
     RDKit          3D

 63 69  0  0  0  0  0  0  0  0999 V2000
   10.5638    2.6537   24.5827 O   0  0  0  0  0  0  0  0  0  0  0  0
    9.9215    1.7343   24.1038 C   0  0  0  0  0  0  0  0  0  0  0  0
   10.5847    0.5996   23.3661 C   0  0  0  0  0  0  0  0  0  0  0  0
   11.9783    0.5885   23.2162 C   0  0  0  0  0  0  0  0  0  0  0  0
   12.5923   -0.2855   22.3363 C   0  0  0  0  0  0  0  0  0  0  0  0
   11.7990   -1.1412   21.5668 C   0  0  0  0  0  0  0  0  0  0  0  0
   12.4622   -2.1223   20.2840 Cl  0  0  0  0  0  0  0  0  0  0  0  0
   10.4329   -1.1776   21.7556 C   0  0  0  0  0  0  0  0  0  0  0  0
    9.8157   -0.3532   22.7006 C   0  0  0  0  0  0  0  0  0  0  0  0
    8.3054   -0.3564   22.7534 C   0  0  1  0  0  0  0  0  0  0  0  0
    7.8383    0.4291   23.9991 C   0  0  0  0  0  0  0  0  0  0  0  0
    8.5441    1.6921   24.1376 N   0  0  0  0  0  0  0  0  0  0  0  0
    7.8123    2.9102   24.4349 C   0  0  0  0  0  0  0  0  0  0  0  0
    7.5377    3.7718   23.2360 C   0  0  0  0  0  0  0  0  0  0  0  0
    7.9821    4.9456   22.9448 N   0  0  0  0  0  0  0  0  0  0  0  0
    7.2838    5.3618   21.8165 N   0  0  0  0  0  0  0  0  0  0  0  0
    6.4784    4.4020   21.5234 C   0  0  0  0  0  0  0  0  0  0  0  0
    6.5733    3.3544   22.3809 O   0  0  0  0  0  0  0  0  0  0  0  0
    5.7350    4.3758   20.7378 H   0  0  0  0  0  0  0  0  0  0  0  0
    8.3806    3.4932   25.1624 H   0  0  0  0  0  0  0  0  0  0  0  0
    6.8394    2.6486   24.8669 H   0  0  0  0  0  0  0  0  0  0  0  0
    8.0023   -0.1865   24.8957 H   0  0  0  0  0  0  0  0  0  0  0  0
    6.7681    0.6407   23.9108 H   0  0  0  0  0  0  0  0  0  0  0  0
    7.8055    0.3242   21.4619 C   0  0  0  0  0  0  0  0  0  0  0  0
    8.1870    1.3782   21.0036 O   0  0  0  0  0  0  0  0  0  0  0  0
    6.8522   -0.4811   20.8782 N   0  0  0  0  0  0  0  0  0  0  0  0
    6.0970    0.0300   19.7967 C   0  0  0  0  0  0  0  0  0  0  0  0
    6.4732   -0.2565   18.5122 C   0  0  0  0  0  0  0  0  0  0  0  0
    5.8252    0.2000   17.4135 N   0  0  0  0  0  0  0  0  0  0  0  0
    4.7972    0.9924   17.6075 C   0  0  0  0  0  0  0  0  0  0  0  0
    4.3243    1.3892   18.8930 C   0  0  0  0  0  0  0  0  0  0  0  0
    3.2188    2.2652   19.0557 C   0  0  0  0  0  0  0  0  0  0  0  0
    2.7812    2.6072   20.3051 C   0  0  0  0  0  0  0  0  0  0  0  0
    3.4332    2.1027   21.4512 C   0  0  0  0  0  0  0  0  0  0  0  0
    4.5210    1.2724   21.3245 C   0  0  0  0  0  0  0  0  0  0  0  0
    4.9852    0.8900   20.0324 C   0  0  0  0  0  0  0  0  0  0  0  0
    5.0392    0.9209   22.2133 H   0  0  0  0  0  0  0  0  0  0  0  0
    3.0847    2.3932   22.4384 H   0  0  0  0  0  0  0  0  0  0  0  0
    1.9347    3.2785   20.4230 H   0  0  0  0  0  0  0  0  0  0  0  0
    2.7372    2.6505   18.1630 H   0  0  0  0  0  0  0  0  0  0  0  0
    4.2706    1.3583   16.7250 H   0  0  0  0  0  0  0  0  0  0  0  0
    7.3525   -0.8726   18.3321 H   0  0  0  0  0  0  0  0  0  0  0  0
    6.5062   -1.6444   21.6690 C   0  0  0  0  0  0  0  0  0  0  0  0
    7.6872   -1.7740   22.6308 C   0  0  2  0  0  0  0  0  0  0  0  0
    7.3150   -2.5368   23.8872 C   0  0  0  0  0  0  0  0  0  0  0  0
    8.4753   -2.9541   24.6409 N   0  0  0  0  0  0  0  0  0  0  0  0
    8.3225   -3.6400   25.7936 C   0  0  0  0  0  0  0  0  0  0  0  0
    9.4008   -4.2164   26.3572 N   0  0  0  0  0  0  0  0  0  0  0  0
    9.1634   -4.7660   27.5369 C   0  0  0  0  0  0  0  0  0  0  0  0
    7.9937   -4.8192   28.1827 N   0  0  0  0  0  0  0  0  0  0  0  0
    7.0069   -4.2356   27.5070 C   0  0  0  0  0  0  0  0  0  0  0  0
    7.0815   -3.6507   26.3217 N   0  0  0  0  0  0  0  0  0  0  0  0
    6.0415   -4.2068   28.0093 H   0  0  0  0  0  0  0  0  0  0  0  0
   10.0209   -5.1843   28.0643 H   0  0  0  0  0  0  0  0  0  0  0  0
    9.4103   -2.8230   24.2839 H   0  0  0  0  0  0  0  0  0  0  0  0
    6.7382   -3.4268   23.6150 H   0  0  0  0  0  0  0  0  0  0  0  0
    6.6594   -1.9557   24.5395 H   0  0  0  0  0  0  0  0  0  0  0  0
    8.4395   -2.3885   22.1388 H   0  0  0  0  0  0  0  0  0  0  0  0
    6.3929   -2.5331   21.0369 H   0  0  0  0  0  0  0  0  0  0  0  0
    5.5709   -1.4959   22.2316 H   0  0  0  0  0  0  0  0  0  0  0  0
    9.8374   -1.7981   21.0994 H   0  0  0  0  0  0  0  0  0  0  0  0
   13.6726   -0.2755   22.2249 H   0  0  0  0  0  0  0  0  0  0  0  0
   12.5668    1.3023   23.7809 H   0  0  0  0  0  0  0  0  0  0  0  0
  1  2  2  0
  2  3  1  0
  3  4  2  0
  4  5  1  0
  5  6  2  0
  6  7  1  0
  6  8  1  0
  8  9  2  0
  9 10  1  0
 10 11  1  1
 11 12  1  0
 12 13  1  0
 13 14  1  0
 14 15  2  0
 15 16  1  0
 16 17  2  0
 17 18  1  0
 17 19  1  0
 13 20  1  0
 13 21  1  0
 11 22  1  0
 11 23  1  0
 10 24  1  0
 24 25  2  0
 24 26  1  0
 26 27  1  0
 27 28  2  0
 28 29  1  0
 29 30  2  0
 30 31  1  0
 31 32  2  0
 32 33  1  0
 33 34  2  0
 34 35  1  0
 35 36  2  0
 35 37  1  0
 34 38  1  0
 33 39  1  0
 32 40  1  0
 30 41  1  0
 28 42  1  0
 26 43  1  0
 43 44  1  0
 44 45  1  0
 45 46  1  0
 46 47  1  0
 47 48  2  0
 48 49  1  0
 49 50  2  0
 50 51  1  0
 51 52  2  0
 51 53  1  0
 49 54  1  0
 46 55  1  0
 45 56  1  0
 45 57  1  0
 44 58  1  6
 43 59  1  0
 43 60  1  0
  8 61  1  0
  5 62  1  0
  4 63  1  0
 12  2  1  0
 18 14  1  0
 36 27  1  0
 52 47  1  0
  9  3  1  0
 44 10  1  0
 36 31  1  0
M  END
>  <cnnaffinities>  (1) 
[6.48117]

>  <score>  (1) 
6.48117

>  <index>  (1) 
0

>  <Smiles>  (1) 
O=C1c2c(c(c(Cl)c(c2[C@@]2(C(N1C(c1nnc(o1)[H])([H])[H])([H])[H])C(=O)N(c1c(nc(c3c(c(c(c(c13)[H])[H])[H])[H])[H])[H])C([C@@]2(C(N(c1nc(nc(n1)[H])[H])[H])([H])[H])[H])([H])[H])[H])[H])[H]

>  <h>  (1) 
<NA>

>  <Training>  (1) 
True

>  <Success>  (1) 
True

>  <enamine_searched>  (1) 
False

>  <enamine_id>  (1) 
nan

$$$$

     RDKit          3D

 51 54  0  0  0  0  0  0  0  0999 V2000
    2.8033   -6.0711   26.4776 C   0  0  0  0  0  0  0  0  0  0  0  0
    3.6458   -6.2075   25.3491 O   0  0  0  0  0  0  0  0  0  0  0  0
    4.2863   -5.1147   24.8403 C   0  0  0  0  0  0  0  0  0  0  0  0
    5.1121   -5.3425   23.7337 C   0  0  0  0  0  0  0  0  0  0  0  0
    5.7962   -4.3012   23.1263 C   0  0  0  0  0  0  0  0  0  0  0  0
    5.6825   -2.9933   23.5977 C   0  0  0  0  0  0  0  0  0  0  0  0
    6.3986   -1.8995   22.9858 N   0  0  0  0  0  0  0  0  0  0  0  0
    7.3987   -1.1861   23.7740 C   0  0  0  0  0  0  0  0  0  0  0  0
    8.8201   -1.4560   23.3451 C   0  0  0  0  0  0  0  0  0  0  0  0
    9.2951   -2.7623   23.3385 C   0  0  0  0  0  0  0  0  0  0  0  0
   10.5892   -3.0215   22.9177 C   0  0  0  0  0  0  0  0  0  0  0  0
   11.4366   -2.0078   22.4941 C   0  0  0  0  0  0  0  0  0  0  0  0
   10.9591   -0.7070   22.5208 C   0  0  0  0  0  0  0  0  0  0  0  0
   12.0007    0.5934   22.0228 Cl  0  0  0  0  0  0  0  0  0  0  0  0
    9.6674   -0.4240   22.9498 C   0  0  0  0  0  0  0  0  0  0  0  0
    9.3293    0.6076   22.9567 H   0  0  0  0  0  0  0  0  0  0  0  0
   12.4456   -2.2231   22.1606 H   0  0  0  0  0  0  0  0  0  0  0  0
   10.9450   -4.0355   22.9387 H   0  0  0  0  0  0  0  0  0  0  0  0
    8.6567   -3.5811   23.6637 H   0  0  0  0  0  0  0  0  0  0  0  0
    7.2709   -1.5188   24.8050 H   0  0  0  0  0  0  0  0  0  0  0  0
    7.2068   -0.1085   23.7683 H   0  0  0  0  0  0  0  0  0  0  0  0
    6.1665   -1.6445   21.6387 C   0  0  0  0  0  0  0  0  0  0  0  0
    5.3746   -2.3188   21.0102 O   0  0  0  0  0  0  0  0  0  0  0  0
    6.9065   -0.4861   20.9243 C   0  0  0  0  0  0  0  0  0  0  0  0
    6.1104    0.0853   19.7723 C   0  0  0  0  0  0  0  0  0  0  0  0
    6.4224   -0.2159   18.4717 C   0  0  0  0  0  0  0  0  0  0  0  0
    5.7590    0.2334   17.3696 N   0  0  0  0  0  0  0  0  0  0  0  0
    4.7381    1.0293   17.5766 C   0  0  0  0  0  0  0  0  0  0  0  0
    4.2875    1.4222   18.8646 C   0  0  0  0  0  0  0  0  0  0  0  0
    3.1672    2.2733   19.0435 C   0  0  0  0  0  0  0  0  0  0  0  0
    2.7501    2.6270   20.2983 C   0  0  0  0  0  0  0  0  0  0  0  0
    3.4406    2.1407   21.4317 C   0  0  0  0  0  0  0  0  0  0  0  0
    4.5297    1.3183   21.2857 C   0  0  0  0  0  0  0  0  0  0  0  0
    4.9886    0.9368   19.9984 C   0  0  0  0  0  0  0  0  0  0  0  0
    5.0461    0.9525   22.1686 H   0  0  0  0  0  0  0  0  0  0  0  0
    3.1086    2.4262   22.4253 H   0  0  0  0  0  0  0  0  0  0  0  0
    1.8934    3.2835   20.4354 H   0  0  0  0  0  0  0  0  0  0  0  0
    2.6494    2.6436   18.1616 H   0  0  0  0  0  0  0  0  0  0  0  0
    4.2033    1.3980   16.6978 H   0  0  0  0  0  0  0  0  0  0  0  0
    7.2657   -0.8677   18.2465 H   0  0  0  0  0  0  0  0  0  0  0  0
    7.8447   -0.8969   20.5288 H   0  0  0  0  0  0  0  0  0  0  0  0
    7.1903    0.3111   21.6200 H   0  0  0  0  0  0  0  0  0  0  0  0
    4.8875   -2.7825   24.7209 C   0  0  0  0  0  0  0  0  0  0  0  0
    4.1807   -3.8181   25.3340 C   0  0  0  0  0  0  0  0  0  0  0  0
    3.5676   -3.5947   26.2004 H   0  0  0  0  0  0  0  0  0  0  0  0
    4.8117   -1.7742   25.1113 H   0  0  0  0  0  0  0  0  0  0  0  0
    6.4202   -4.5044   22.2634 H   0  0  0  0  0  0  0  0  0  0  0  0
    5.1880   -6.3514   23.3458 H   0  0  0  0  0  0  0  0  0  0  0  0
    3.3321   -5.7193   27.3728 H   0  0  0  0  0  0  0  0  0  0  0  0
    1.9431   -5.4149   26.2946 H   0  0  0  0  0  0  0  0  0  0  0  0
    2.4263   -7.0725   26.6812 H   0  0  0  0  0  0  0  0  0  0  0  0
  1  2  1  0
  2  3  1  0
  3  4  2  0
  4  5  1  0
  5  6  2  0
  6  7  1  0
  7  8  1  0
  8  9  1  0
  9 10  2  0
 10 11  1  0
 11 12  2  0
 12 13  1  0
 13 14  1  0
 13 15  2  0
 15 16  1  0
 12 17  1  0
 11 18  1  0
 10 19  1  0
  8 20  1  0
  8 21  1  0
  7 22  1  0
 22 23  2  0
 22 24  1  0
 24 25  1  0
 25 26  2  0
 26 27  1  0
 27 28  2  0
 28 29  1  0
 29 30  2  0
 30 31  1  0
 31 32  2  0
 32 33  1  0
 33 34  2  0
 33 35  1  0
 32 36  1  0
 31 37  1  0
 30 38  1  0
 28 39  1  0
 26 40  1  0
 24 41  1  0
 24 42  1  0
  6 43  1  0
 43 44  2  0
 44 45  1  0
 43 46  1  0
  5 47  1  0
  4 48  1  0
  1 49  1  0
  1 50  1  0
  1 51  1  0
 44  3  1  0
 15  9  1  0
 34 25  1  0
 34 29  1  0
M  END
>  <cnnaffinities>  (2) 
[6.10249, 6.06953]

>  <score>  (2) 
6.10249

>  <index>  (2) 
1

>  <Smiles>  (2) 
C(Oc1c(c(c(N(C(c2c(c(c(c(Cl)c2[H])[H])[H])[H])([H])[H])C(=O)C(c2c(nc(c3c(c(c(c(c23)[H])[H])[H])[H])[H])[H])([H])[H])c(c1[H])[H])[H])[H])([H])([H])[H]

>  <h>  (2) 
<NA>

>  <Training>  (2) 
True

>  <Success>  (2) 
True

>  <enamine_searched>  (2) 
False

>  <enamine_id>  (2) 
nan

$$$$

     RDKit          3D

 56 60  0  0  0  0  0  0  0  0999 V2000
   13.7779   -0.1140   23.9984 C   0  0  0  0  0  0  0  0  0  0  0  0
   12.9482   -1.2453   23.6602 N   0  0  0  0  0  0  0  0  0  0  0  0
   12.3453   -1.2097   22.4497 C   0  0  0  0  0  0  0  0  0  0  0  0
   12.1294   -0.1377   21.8853 O   0  0  0  0  0  0  0  0  0  0  0  0
   11.8495   -2.5368   21.8937 C   0  0  0  0  0  0  0  0  0  0  0  0
   10.4868   -2.7831   22.3388 N   0  0  0  0  0  0  0  0  0  0  0  0
    9.3569   -2.5128   21.4726 C   0  0  0  0  0  0  0  0  0  0  0  0
    8.1647   -1.8787   22.2198 C   0  0  2  0  0  0  0  0  0  0  0  0
    7.0158   -1.7668   21.1995 C   0  0  0  0  0  0  0  0  0  0  0  0
    6.3640   -2.6752   20.7201 O   0  0  0  0  0  0  0  0  0  0  0  0
    6.8292   -0.4383   20.8854 N   0  0  0  0  0  0  0  0  0  0  0  0
    6.0688   -0.0055   19.7743 C   0  0  0  0  0  0  0  0  0  0  0  0
    6.4153   -0.3399   18.4897 C   0  0  0  0  0  0  0  0  0  0  0  0
    5.7980    0.1568   17.3862 N   0  0  0  0  0  0  0  0  0  0  0  0
    4.8079    0.9987   17.5731 C   0  0  0  0  0  0  0  0  0  0  0  0
    4.3283    1.4027   18.8546 C   0  0  0  0  0  0  0  0  0  0  0  0
    3.2286    2.2844   19.0235 C   0  0  0  0  0  0  0  0  0  0  0  0
    2.8031    2.6271   20.2782 C   0  0  0  0  0  0  0  0  0  0  0  0
    3.4551    2.1179   21.4234 C   0  0  0  0  0  0  0  0  0  0  0  0
    4.5239    1.2685   21.2873 C   0  0  0  0  0  0  0  0  0  0  0  0
    4.9798    0.8925   19.9957 C   0  0  0  0  0  0  0  0  0  0  0  0
    5.0248    0.8659   22.1620 H   0  0  0  0  0  0  0  0  0  0  0  0
    3.1120    2.3993   22.4143 H   0  0  0  0  0  0  0  0  0  0  0  0
    1.9565    3.2948   20.4053 H   0  0  0  0  0  0  0  0  0  0  0  0
    2.7400    2.6768   18.1366 H   0  0  0  0  0  0  0  0  0  0  0  0
    4.3217    1.3967   16.6825 H   0  0  0  0  0  0  0  0  0  0  0  0
    7.2372   -1.0290   18.3010 H   0  0  0  0  0  0  0  0  0  0  0  0
    7.8039    0.4489   21.4854 C   0  0  0  0  0  0  0  0  0  0  0  0
    8.3340   -0.3847   22.6561 C   0  0  2  0  0  0  0  0  0  0  0  0
    9.7007    0.0402   23.0808 N   0  0  0  0  0  4  0  0  0  0  0  0
   10.0569   -0.6496   23.7702 H   0  0  0  0  0  0  0  0  0  0  0  0
   10.3858    0.0978   22.2860 H   0  0  0  0  0  0  0  0  0  0  0  0
    9.6593    0.9683   23.5500 H   0  0  0  0  0  0  0  0  0  0  0  0
    7.6803   -0.2500   23.5185 H   0  0  0  0  0  0  0  0  0  0  0  0
    8.6190    0.6849   20.7812 H   0  0  0  0  0  0  0  0  0  0  0  0
    7.3229    1.3884   21.7823 H   0  0  0  0  0  0  0  0  0  0  0  0
    7.8545   -2.8227   23.3636 C   0  0  0  0  0  0  0  0  0  0  0  0
    6.5517   -2.9493   23.8578 C   0  0  0  0  0  0  0  0  0  0  0  0
    6.2863   -3.8676   24.8630 C   0  0  0  0  0  0  0  0  0  0  0  0
    4.6539   -4.0140   25.4615 Cl  0  0  0  0  0  0  0  0  0  0  0  0
    7.2895   -4.6706   25.4072 C   0  0  0  0  0  0  0  0  0  0  0  0
    8.5907   -4.4999   24.9595 C   0  0  0  0  0  0  0  0  0  0  0  0
    8.8808   -3.5758   23.9557 C   0  0  0  0  0  0  0  0  0  0  0  0
   10.3110   -3.3899   23.5463 C   0  0  0  0  0  0  0  0  0  0  0  0
   11.2575   -3.7258   24.2518 O   0  0  0  0  0  0  0  0  0  0  0  0
    9.3980   -5.0845   25.3902 H   0  0  0  0  0  0  0  0  0  0  0  0
    7.0364   -5.3789   26.1942 H   0  0  0  0  0  0  0  0  0  0  0  0
    5.7492   -2.3412   23.4486 H   0  0  0  0  0  0  0  0  0  0  0  0
    9.6918   -1.8741   20.6573 H   0  0  0  0  0  0  0  0  0  0  0  0
    8.9488   -3.4455   21.0684 H   0  0  0  0  0  0  0  0  0  0  0  0
   12.4875   -3.3536   22.2392 H   0  0  0  0  0  0  0  0  0  0  0  0
   11.8727   -2.5073   20.8028 H   0  0  0  0  0  0  0  0  0  0  0  0
   13.0079   -2.1068   24.1813 H   0  0  0  0  0  0  0  0  0  0  0  0
   13.1986    0.8103   23.9915 H   0  0  0  0  0  0  0  0  0  0  0  0
   14.5522   -0.0051   23.2375 H   0  0  0  0  0  0  0  0  0  0  0  0
   14.2166   -0.2688   24.9798 H   0  0  0  0  0  0  0  0  0  0  0  0
  1  2  1  0
  2  3  1  0
  3  4  2  0
  3  5  1  0
  5  6  1  0
  6  7  1  0
  8  7  1  6
  8  9  1  0
  9 10  2  0
  9 11  1  0
 11 12  1  0
 12 13  2  0
 13 14  1  0
 14 15  2  0
 15 16  1  0
 16 17  2  0
 17 18  1  0
 18 19  2  0
 19 20  1  0
 20 21  2  0
 20 22  1  0
 19 23  1  0
 18 24  1  0
 17 25  1  0
 15 26  1  0
 13 27  1  0
 11 28  1  0
 28 29  1  0
 29 30  1  0
 30 31  1  0
 30 32  1  0
 30 33  1  0
 29 34  1  1
 28 35  1  0
 28 36  1  0
  8 37  1  0
 37 38  2  0
 38 39  1  0
 39 40  1  0
 39 41  2  0
 41 42  1  0
 42 43  2  0
 43 44  1  0
 44 45  2  0
 42 46  1  0
 41 47  1  0
 38 48  1  0
  7 49  1  0
  7 50  1  0
  5 51  1  0
  5 52  1  0
  2 53  1  0
  1 54  1  0
  1 55  1  0
  1 56  1  0
 44  6  1  0
 29  8  1  0
 43 37  1  0
 21 12  1  0
 21 16  1  0
M  CHG  1  30   1
M  END
>  <cnnaffinities>  (3) 
[6.78579]

>  <score>  (3) 
6.78579

>  <index>  (3) 
2

>  <Smiles>  (3) 
C(N(C(=O)C(N1C([C@@]2(C(=O)N(c3c(nc(c4c(c(c(c(c34)[H])[H])[H])[H])[H])[H])C([C@@]2([N+]([H])([H])[H])[H])([H])[H])c2c(c(Cl)c(c(c2C1=O)[H])[H])[H])([H])[H])([H])[H])[H])([H])([H])[H]

>  <h>  (3) 
<NA>

>  <Training>  (3) 
True

>  <Success>  (3) 
True

>  <enamine_searched>  (3) 
False

>  <enamine_id>  (3) 
nan

$$$$

     RDKit          3D

 67 73  0  0  0  0  0  0  0  0999 V2000
   11.0602    2.4610   24.1561 O   0  0  0  0  0  0  0  0  0  0  0  0
   10.3502    1.5254   23.7992 C   0  0  0  0  0  0  0  0  0  0  0  0
   10.8304    0.4758   22.8594 C   0  0  0  0  0  0  0  0  0  0  0  0
   12.1688    0.5498   22.4895 C   0  0  0  0  0  0  0  0  0  0  0  0
   12.6851   -0.3485   21.5833 C   0  0  0  0  0  0  0  0  0  0  0  0
   11.8565   -1.3655   21.0976 C   0  0  0  0  0  0  0  0  0  0  0  0
   12.5239   -2.5992   20.0555 Cl  0  0  0  0  0  0  0  0  0  0  0  0
   10.5004   -1.3838   21.3849 C   0  0  0  0  0  0  0  0  0  0  0  0
    9.9701   -0.4877   22.3187 C   0  0  0  0  0  0  0  0  0  0  0  0
    8.4757   -0.4727   22.6364 C   0  0  1  0  0  0  0  0  0  0  0  0
    8.3365    0.1303   24.0506 C   0  0  0  0  0  0  0  0  0  0  0  0
    9.0598    1.3764   24.2175 N   0  0  0  0  0  0  0  0  0  0  0  0
    8.4337    2.5092   24.8752 C   0  0  0  0  0  0  0  0  0  0  0  0
    7.8357    3.5229   23.9234 C   0  0  0  0  0  0  0  0  0  0  0  0
    6.5334    3.4724   23.4977 C   0  0  0  0  0  0  0  0  0  0  0  0
    6.1102    4.4349   22.5848 C   0  0  0  0  0  0  0  0  0  0  0  0
    6.8884    5.4080   22.1298 N   0  0  0  0  0  0  0  0  0  0  0  0
    8.1461    5.4750   22.5486 N   0  0  0  0  0  0  0  0  0  0  0  0
    8.6078    4.5677   23.4033 C   0  0  0  0  0  0  0  0  0  0  0  0
    9.6491    4.6952   23.6960 H   0  0  0  0  0  0  0  0  0  0  0  0
    5.0970    4.4305   22.1859 H   0  0  0  0  0  0  0  0  0  0  0  0
    5.8505    2.7017   23.8545 H   0  0  0  0  0  0  0  0  0  0  0  0
    7.6752    2.1250   25.5615 H   0  0  0  0  0  0  0  0  0  0  0  0
    9.2092    3.0036   25.4497 H   0  0  0  0  0  0  0  0  0  0  0  0
    7.2879    0.3285   24.2659 H   0  0  0  0  0  0  0  0  0  0  0  0
    8.7179   -0.6113   24.7659 H   0  0  0  0  0  0  0  0  0  0  0  0
    7.7542    0.3945   21.5793 C   0  0  0  0  0  0  0  0  0  0  0  0
    7.9219    1.5715   21.3592 O   0  0  0  0  0  0  0  0  0  0  0  0
    6.8762   -0.3976   20.8788 N   0  0  0  0  0  0  0  0  0  0  0  0
    6.1244    0.0994   19.7873 C   0  0  0  0  0  0  0  0  0  0  0  0
    6.4418   -0.2381   18.4941 C   0  0  0  0  0  0  0  0  0  0  0  0
    5.7785    0.2109   17.3997 N   0  0  0  0  0  0  0  0  0  0  0  0
    4.7592    1.0148   17.5978 C   0  0  0  0  0  0  0  0  0  0  0  0
    4.3032    1.4168   18.8873 C   0  0  0  0  0  0  0  0  0  0  0  0
    3.1756    2.2657   19.0545 C   0  0  0  0  0  0  0  0  0  0  0  0
    2.7417    2.6046   20.3081 C   0  0  0  0  0  0  0  0  0  0  0  0
    3.4170    2.1203   21.4484 C   0  0  0  0  0  0  0  0  0  0  0  0
    4.5210    1.3148   21.3151 C   0  0  0  0  0  0  0  0  0  0  0  0
    4.9963    0.9463   20.0234 C   0  0  0  0  0  0  0  0  0  0  0  0
    5.0397    0.9507   22.1955 H   0  0  0  0  0  0  0  0  0  0  0  0
    3.0693    2.3994   22.4419 H   0  0  0  0  0  0  0  0  0  0  0  0
    1.8816    3.2570   20.4391 H   0  0  0  0  0  0  0  0  0  0  0  0
    2.6700    2.6363   18.1677 H   0  0  0  0  0  0  0  0  0  0  0  0
    4.2308    1.3783   16.7156 H   0  0  0  0  0  0  0  0  0  0  0  0
    7.2951   -0.8847   18.2846 H   0  0  0  0  0  0  0  0  0  0  0  0
    7.0023   -1.8017   21.1665 C   0  0  0  0  0  0  0  0  0  0  0  0
    7.7832   -1.8681   22.4904 C   0  0  2  0  0  0  0  0  0  0  0  0
    6.8505   -2.3313   23.6355 C   0  0  0  0  0  0  0  0  0  0  0  0
    6.3438   -3.6672   23.4437 N   0  0  0  0  0  0  0  0  0  0  0  0
    7.0443   -4.8120   23.6419 C   0  0  0  0  0  0  0  0  0  0  0  0
    8.3038   -4.8290   24.2639 C   0  0  0  0  0  0  0  0  0  0  0  0
    8.8253   -6.0844   24.5165 C   0  0  0  0  0  0  0  0  0  0  0  0
    8.2643   -7.2197   24.0787 N   0  0  0  0  0  0  0  0  0  0  0  0
    7.1082   -7.0623   23.4504 C   0  0  0  0  0  0  0  0  0  0  0  0
    6.4435   -5.9381   23.2271 N   0  0  0  0  0  0  0  0  0  0  0  0
    6.6294   -7.9601   23.0709 H   0  0  0  0  0  0  0  0  0  0  0  0
    9.7745   -6.1926   25.0295 H   0  0  0  0  0  0  0  0  0  0  0  0
    8.8317   -3.9117   24.5069 H   0  0  0  0  0  0  0  0  0  0  0  0
    5.3946   -3.8068   23.1440 H   0  0  0  0  0  0  0  0  0  0  0  0
    7.3824   -2.2997   24.5900 H   0  0  0  0  0  0  0  0  0  0  0  0
    5.9891   -1.6606   23.7259 H   0  0  0  0  0  0  0  0  0  0  0  0
    8.5682   -2.6291   22.4351 H   0  0  0  0  0  0  0  0  0  0  0  0
    6.0098   -2.2515   21.2351 H   0  0  0  0  0  0  0  0  0  0  0  0
    7.5385   -2.3035   20.3626 H   0  0  0  0  0  0  0  0  0  0  0  0
    9.8743   -2.0699   20.8233 H   0  0  0  0  0  0  0  0  0  0  0  0
   13.6966   -0.2231   21.2132 H   0  0  0  0  0  0  0  0  0  0  0  0
   12.7666    1.3350   22.9388 H   0  0  0  0  0  0  0  0  0  0  0  0
  1  2  2  0
  2  3  1  0
  3  4  2  0
  4  5  1  0
  5  6  2  0
  6  7  1  0
  6  8  1  0
  8  9  2  0
  9 10  1  0
 10 11  1  1
 11 12  1  0
 12 13  1  0
 13 14  1  0
 14 15  2  0
 15 16  1  0
 16 17  2  0
 17 18  1  0
 18 19  2  0
 19 20  1  0
 16 21  1  0
 15 22  1  0
 13 23  1  0
 13 24  1  0
 11 25  1  0
 11 26  1  0
 10 27  1  0
 27 28  2  0
 27 29  1  0
 29 30  1  0
 30 31  2  0
 31 32  1  0
 32 33  2  0
 33 34  1  0
 34 35  2  0
 35 36  1  0
 36 37  2  0
 37 38  1  0
 38 39  2  0
 38 40  1  0
 37 41  1  0
 36 42  1  0
 35 43  1  0
 33 44  1  0
 31 45  1  0
 29 46  1  0
 46 47  1  0
 47 48  1  0
 48 49  1  0
 49 50  1  0
 50 51  2  0
 51 52  1  0
 52 53  2  0
 53 54  1  0
 54 55  2  0
 54 56  1  0
 52 57  1  0
 51 58  1  0
 49 59  1  0
 48 60  1  0
 48 61  1  0
 47 62  1  6
 46 63  1  0
 46 64  1  0
  8 65  1  0
  5 66  1  0
  4 67  1  0
 12  2  1  0
 19 14  1  0
 39 30  1  0
 55 50  1  0
  9  3  1  0
 47 10  1  0
 39 34  1  0
M  END
>  <cnnaffinities>  (4) 
[7.20927, 6.63488]

>  <score>  (4) 
7.20927

>  <index>  (4) 
3

>  <Smiles>  (4) 
O=C1c2c(c(c(Cl)c(c2[C@@]2(C(N1C(c1c(c(nnc1[H])[H])[H])([H])[H])([H])[H])C(=O)N(c1c(nc(c3c(c(c(c(c13)[H])[H])[H])[H])[H])[H])C([C@@]2(C(N(c1c(c(nc(n1)[H])[H])[H])[H])([H])[H])[H])([H])[H])[H])[H])[H]

>  <h>  (4) 
<NA>

>  <Training>  (4) 
True

>  <Success>  (4) 
True

>  <enamine_searched>  (4) 
False

>  <enamine_id>  (4) 
nan

$$$$

     RDKit          3D

 41 44  0  0  0  0  0  0  0  0999 V2000
    9.0968    2.1662   23.9935 C   0  0  0  0  0  0  0  0  0  0  0  0
    9.7510    1.2160   22.9824 C   0  0  1  0  0  0  0  0  0  0  0  0
   10.9911    0.6104   23.5563 C   0  0  0  0  0  0  0  0  0  0  0  0
   12.2992    1.1937   23.6259 C   0  0  0  0  0  0  0  0  0  0  0  0
   13.1812    0.3757   24.2551 C   0  0  0  0  0  0  0  0  0  0  0  0
   12.4222   -1.0470   24.8559 S   0  0  0  0  0  0  0  0  0  0  0  0
   10.9172   -0.5897   24.1753 C   0  0  0  0  0  0  0  0  0  0  0  0
    9.6489   -1.3602   24.2890 C   0  0  0  0  0  0  0  0  0  0  0  0
    8.8165   -1.1878   23.0206 C   0  0  0  0  0  0  0  0  0  0  0  0
    8.8030    0.1855   22.5047 N   0  0  0  0  0  0  0  0  0  0  0  0
    7.9534    0.5841   21.5038 C   0  0  0  0  0  0  0  0  0  0  0  0
    7.9795    1.7277   21.0714 O   0  0  0  0  0  0  0  0  0  0  0  0
    6.9624   -0.4534   20.9142 C   0  0  0  0  0  0  0  0  0  0  0  0
    6.1276    0.0913   19.7785 C   0  0  0  0  0  0  0  0  0  0  0  0
    6.4349   -0.2107   18.4783 C   0  0  0  0  0  0  0  0  0  0  0  0
    5.7684    0.2347   17.3798 N   0  0  0  0  0  0  0  0  0  0  0  0
    4.7455    1.0261   17.5838 C   0  0  0  0  0  0  0  0  0  0  0  0
    4.2976    1.4227   18.8726 C   0  0  0  0  0  0  0  0  0  0  0  0
    3.1792    2.2772   19.0459 C   0  0  0  0  0  0  0  0  0  0  0  0
    2.7715    2.6450   20.2967 C   0  0  0  0  0  0  0  0  0  0  0  0
    3.4720    2.1722   21.4330 C   0  0  0  0  0  0  0  0  0  0  0  0
    4.5598    1.3471   21.2903 C   0  0  0  0  0  0  0  0  0  0  0  0
    5.0041    0.9470   20.0025 C   0  0  0  0  0  0  0  0  0  0  0  0
    5.0993    0.9977   22.1666 H   0  0  0  0  0  0  0  0  0  0  0  0
    3.1458    2.4748   22.4232 H   0  0  0  0  0  0  0  0  0  0  0  0
    1.9202    3.3079   20.4280 H   0  0  0  0  0  0  0  0  0  0  0  0
    2.6663    2.6372   18.1566 H   0  0  0  0  0  0  0  0  0  0  0  0
    4.2138    1.3879   16.7020 H   0  0  0  0  0  0  0  0  0  0  0  0
    7.2783   -0.8603   18.2423 H   0  0  0  0  0  0  0  0  0  0  0  0
    6.3150   -0.8469   21.7117 H   0  0  0  0  0  0  0  0  0  0  0  0
    7.5419   -1.3127   20.5487 H   0  0  0  0  0  0  0  0  0  0  0  0
    9.1978   -1.8717   22.2479 H   0  0  0  0  0  0  0  0  0  0  0  0
    7.7880   -1.4811   23.2455 H   0  0  0  0  0  0  0  0  0  0  0  0
    9.8417   -2.4215   24.4521 H   0  0  0  0  0  0  0  0  0  0  0  0
    9.1024   -0.9941   25.1702 H   0  0  0  0  0  0  0  0  0  0  0  0
   14.2559    0.4261   24.3056 H   0  0  0  0  0  0  0  0  0  0  0  0
   12.5608    2.1699   23.2268 H   0  0  0  0  0  0  0  0  0  0  0  0
   10.0189    1.7925   22.0908 H   0  0  0  0  0  0  0  0  0  0  0  0
    8.7915    1.6015   24.8822 H   0  0  0  0  0  0  0  0  0  0  0  0
    9.8387    2.9084   24.3057 H   0  0  0  0  0  0  0  0  0  0  0  0
    8.2345    2.6788   23.5574 H   0  0  0  0  0  0  0  0  0  0  0  0
  1  2  1  0
  2  3  1  0
  3  4  1  0
  4  5  2  0
  5  6  1  0
  6  7  1  0
  7  8  1  0
  8  9  1  0
  9 10  1  0
 10 11  1  0
 11 12  2  0
 11 13  1  0
 13 14  1  0
 14 15  2  0
 15 16  1  0
 16 17  2  0
 17 18  1  0
 18 19  2  0
 19 20  1  0
 20 21  2  0
 21 22  1  0
 22 23  2  0
 22 24  1  0
 21 25  1  0
 20 26  1  0
 19 27  1  0
 17 28  1  0
 15 29  1  0
 13 30  1  0
 13 31  1  0
  9 32  1  0
  9 33  1  0
  8 34  1  0
  8 35  1  0
  5 36  1  0
  4 37  1  0
  2 38  1  6
  1 39  1  0
  1 40  1  0
  1 41  1  0
 10  2  1  0
 23 14  1  0
  7  3  2  0
 23 18  1  0
M  END
>  <cnnaffinities>  (5) 
[5.94738]

>  <score>  (5) 
5.94738

>  <index>  (5) 
4

>  <Smiles>  (5) 
C([C@]1(c2c(c(sc2C(C(N1C(=O)C(c1c(nc(c2c(c(c(c(c12)[H])[H])[H])[H])[H])[H])([H])[H])([H])[H])([H])[H])[H])[H])[H])([H])([H])[H]

>  <h>  (5) 
<NA>

>  <Training>  (5) 
True

>  <Success>  (5) 
True

>  <enamine_searched>  (5) 
False

>  <enamine_id>  (5) 
nan

$$$$

     RDKit          3D

 50 54  0  0  0  0  0  0  0  0999 V2000
    9.7574   -1.9761   21.8236 C   0  0  0  0  0  0  0  0  0  0  0  0
    8.6896   -0.9823   22.3122 C   0  0  1  0  0  0  0  0  0  0  0  0
    8.2335   -0.0775   21.1351 C   0  0  0  0  0  0  0  0  0  0  0  0
    6.8686   -0.4728   20.8464 N   0  0  0  0  0  0  0  0  0  0  0  0
    6.1083    0.0779   19.7680 C   0  0  0  0  0  0  0  0  0  0  0  0
    6.4323   -0.2121   18.4614 C   0  0  0  0  0  0  0  0  0  0  0  0
    5.7602    0.2375   17.3708 N   0  0  0  0  0  0  0  0  0  0  0  0
    4.7316    1.0332   17.5740 C   0  0  0  0  0  0  0  0  0  0  0  0
    4.2852    1.4270   18.8675 C   0  0  0  0  0  0  0  0  0  0  0  0
    3.1699    2.2880   19.0452 C   0  0  0  0  0  0  0  0  0  0  0  0
    2.7812    2.6567   20.3085 C   0  0  0  0  0  0  0  0  0  0  0  0
    3.4876    2.1911   21.4377 C   0  0  0  0  0  0  0  0  0  0  0  0
    4.5708    1.3588   21.2902 C   0  0  0  0  0  0  0  0  0  0  0  0
    4.9882    0.9441   19.9962 C   0  0  0  0  0  0  0  0  0  0  0  0
    5.1180    1.0192   22.1655 H   0  0  0  0  0  0  0  0  0  0  0  0
    3.1764    2.4992   22.4292 H   0  0  0  0  0  0  0  0  0  0  0  0
    1.9320    3.3159   20.4501 H   0  0  0  0  0  0  0  0  0  0  0  0
    2.6338    2.6551   18.1741 H   0  0  0  0  0  0  0  0  0  0  0  0
    4.1929    1.4048   16.7027 H   0  0  0  0  0  0  0  0  0  0  0  0
    7.2742   -0.8726   18.2674 H   0  0  0  0  0  0  0  0  0  0  0  0
    6.3523   -1.3515   21.7853 C   0  0  0  0  0  0  0  0  0  0  0  0
    5.2255   -1.8285   21.7521 O   0  0  0  0  0  0  0  0  0  0  0  0
    7.3774   -1.6127   22.9006 C   0  0  1  0  0  0  0  0  0  0  0  0
    7.4774   -3.1666   23.1684 C   0  0  0  0  0  0  0  0  0  0  0  0
    6.2501   -3.7202   23.7486 N   0  0  0  0  0  0  0  0  0  0  0  0
    5.6508   -4.9842   23.1849 C   0  0  0  0  0  0  0  0  0  0  0  0
    6.0153   -6.1989   24.0814 C   0  0  0  0  0  0  0  0  0  0  0  0
    6.0153   -6.1989   24.0812 N   0  0  0  0  0  0  0  0  0  0  0  0
    6.0284   -5.0858   22.2002 H   0  0  0  0  0  0  0  0  0  0  0  0
    4.5835   -4.8316   23.2506 H   0  0  0  0  0  0  0  0  0  0  0  0
    5.7114   -3.1000   24.8666 C   0  0  0  0  0  0  0  0  0  0  0  0
    4.9120   -3.6511   25.6099 O   0  0  0  0  0  0  0  0  0  0  0  0
    6.0766   -1.6149   25.1154 C   0  0  0  0  0  0  0  0  0  0  0  0
    5.5835   -0.9495   26.2556 C   0  0  0  0  0  0  0  0  0  0  0  0
    5.8209    0.4035   26.4519 C   0  0  0  0  0  0  0  0  0  0  0  0
    6.5359    1.1051   25.4884 C   0  0  0  0  0  0  0  0  0  0  0  0
    6.7350    2.4300   25.6546 F   0  0  0  0  0  0  0  0  0  0  0  0
    7.0331    0.4714   24.3594 C   0  0  0  0  0  0  0  0  0  0  0  0
    6.8543   -0.9141   24.1767 C   0  0  0  0  0  0  0  0  0  0  0  0
    7.5464    1.0804   23.6247 H   0  0  0  0  0  0  0  0  0  0  0  0
    5.4371    0.9135   27.3289 H   0  0  0  0  0  0  0  0  0  0  0  0
    4.9931   -1.4868   26.9946 H   0  0  0  0  0  0  0  0  0  0  0  0
    8.3250   -3.3364   23.8531 H   0  0  0  0  0  0  0  0  0  0  0  0
    7.7065   -3.6850   22.2224 H   0  0  0  0  0  0  0  0  0  0  0  0
    8.8627   -0.2135   20.2470 H   0  0  0  0  0  0  0  0  0  0  0  0
    8.2783    0.9860   21.4153 H   0  0  0  0  0  0  0  0  0  0  0  0
    9.1833   -0.3728   23.0818 H   0  0  0  0  0  0  0  0  0  0  0  0
   10.1283   -2.6018   22.6442 H   0  0  0  0  0  0  0  0  0  0  0  0
    9.3690   -2.6166   21.0195 H   0  0  0  0  0  0  0  0  0  0  0  0
   10.6196   -1.4232   21.4252 H   0  0  0  0  0  0  0  0  0  0  0  0
  1  2  1  0
  2  3  1  0
  3  4  1  0
  4  5  1  0
  5  6  2  0
  6  7  1  0
  7  8  2  0
  8  9  1  0
  9 10  2  0
 10 11  1  0
 11 12  2  0
 12 13  1  0
 13 14  2  0
 13 15  1  0
 12 16  1  0
 11 17  1  0
 10 18  1  0
  8 19  1  0
  6 20  1  0
  4 21  1  0
 21 22  2  0
 21 23  1  0
 23 24  1  1
 24 25  1  0
 25 26  1  0
 26 27  1  0
 27 28  3  0
 26 29  1  0
 26 30  1  0
 25 31  1  0
 31 32  2  0
 31 33  1  0
 33 34  2  0
 34 35  1  0
 35 36  2  0
 36 37  1  0
 36 38  1  0
 38 39  2  0
 38 40  1  0
 35 41  1  0
 34 42  1  0
 24 43  1  0
 24 44  1  0
  3 45  1  0
  3 46  1  0
  2 47  1  1
  1 48  1  0
  1 49  1  0
  1 50  1  0
 23  2  1  0
 39 33  1  0
 14  5  1  0
 39 23  1  0
 14  9  1  0
M  END
>  <cnnaffinities>  (6) 
[6.17633]

>  <score>  (6) 
6.17633

>  <index>  (6) 
5

>  <Smiles>  (6) 
C([C@]1(C(N(c2c(nc(c3c(c(c(c(c23)[H])[H])[H])[H])[H])[H])C(=O)[C@]21C(N(C(C#N)([H])[H])C(=O)c1c(c(c(F)c(c21)[H])[H])[H])([H])[H])([H])[H])[H])([H])([H])[H]

>  <h>  (6) 
<NA>

>  <Training>  (6) 
True

>  <Success>  (6) 
True

>  <enamine_searched>  (6) 
False

>  <enamine_id>  (6) 
nan

$$$$

     RDKit          3D

 65 69  0  0  0  0  0  0  0  0999 V2000
    4.1904   -4.9033   26.0150 C   0  0  0  0  0  0  0  0  0  0  0  0
    5.6406   -5.3252   25.7535 C   0  0  0  0  0  0  0  0  0  0  0  0
    6.2980   -4.3376   24.8302 C   0  0  0  0  0  0  0  0  0  0  0  0
    5.9831   -4.2155   23.6771 O   0  0  0  0  0  0  0  0  0  0  0  0
    7.4273   -3.4870   25.4049 N   0  0  1  0  0  4  0  0  0  0  0  0
    8.8359   -4.0242   25.0049 C   0  0  0  0  0  0  0  0  0  0  0  0
    9.1392   -3.6179   23.5742 C   0  0  0  0  0  0  0  0  0  0  0  0
    9.1643   -2.0940   23.4265 C   0  0  0  0  0  0  0  0  0  0  0  0
    7.9851   -1.3947   24.0844 C   0  0  0  0  0  0  0  0  0  0  0  0
    7.6377   -0.0735   23.7476 C   0  0  0  0  0  0  0  0  0  0  0  0
    8.3561    0.5861   22.7014 N   0  0  0  0  0  0  0  0  0  0  0  0
    9.4059    1.5230   23.1085 C   0  0  0  0  0  0  0  0  0  0  0  0
    8.8669    2.8715   23.5428 C   0  0  0  0  0  0  0  0  0  0  0  0
    8.7787    3.2033   24.8933 C   0  0  0  0  0  0  0  0  0  0  0  0
    8.2605    4.4273   25.3053 C   0  0  0  0  0  0  0  0  0  0  0  0
    7.7847    5.3303   24.3591 C   0  0  0  0  0  0  0  0  0  0  0  0
    7.8610    4.9819   23.0142 C   0  0  0  0  0  0  0  0  0  0  0  0
    7.2560    6.0907   21.8171 Cl  0  0  0  0  0  0  0  0  0  0  0  0
    8.4002    3.7730   22.5914 C   0  0  0  0  0  0  0  0  0  0  0  0
    8.4488    3.5182   21.5353 H   0  0  0  0  0  0  0  0  0  0  0  0
    7.3478    6.2841   24.6456 H   0  0  0  0  0  0  0  0  0  0  0  0
    8.2014    4.6750   26.3620 H   0  0  0  0  0  0  0  0  0  0  0  0
    9.0527    2.4399   25.6131 H   0  0  0  0  0  0  0  0  0  0  0  0
   10.0755    1.6340   22.2473 H   0  0  0  0  0  0  0  0  0  0  0  0
    9.9489    1.0633   23.9403 H   0  0  0  0  0  0  0  0  0  0  0  0
    8.0454    0.5193   21.3593 C   0  0  0  0  0  0  0  0  0  0  0  0
    8.6768    1.1655   20.5366 O   0  0  0  0  0  0  0  0  0  0  0  0
    6.9356   -0.4526   20.9061 C   0  0  0  0  0  0  0  0  0  0  0  0
    6.1040    0.0851   19.7689 C   0  0  0  0  0  0  0  0  0  0  0  0
    6.4219   -0.2128   18.4691 C   0  0  0  0  0  0  0  0  0  0  0  0
    5.7609    0.2375   17.3693 N   0  0  0  0  0  0  0  0  0  0  0  0
    4.7383    1.0296   17.5762 C   0  0  0  0  0  0  0  0  0  0  0  0
    4.2871    1.4268   18.8655 C   0  0  0  0  0  0  0  0  0  0  0  0
    3.1770    2.2893   19.0405 C   0  0  0  0  0  0  0  0  0  0  0  0
    2.7802    2.6645   20.2932 C   0  0  0  0  0  0  0  0  0  0  0  0
    3.4819    2.1969   21.4282 C   0  0  0  0  0  0  0  0  0  0  0  0
    4.5601    1.3590   21.2890 C   0  0  0  0  0  0  0  0  0  0  0  0
    4.9902    0.9465   19.9988 C   0  0  0  0  0  0  0  0  0  0  0  0
    5.0893    1.0091   22.1761 H   0  0  0  0  0  0  0  0  0  0  0  0
    3.1630    2.5067   22.4193 H   0  0  0  0  0  0  0  0  0  0  0  0
    1.9328    3.3306   20.4275 H   0  0  0  0  0  0  0  0  0  0  0  0
    2.6616    2.6499   18.1532 H   0  0  0  0  0  0  0  0  0  0  0  0
    4.2066    1.3957   16.6954 H   0  0  0  0  0  0  0  0  0  0  0  0
    7.2719   -0.8563   18.2427 H   0  0  0  0  0  0  0  0  0  0  0  0
    6.3195   -0.7663   21.7582 H   0  0  0  0  0  0  0  0  0  0  0  0
    7.4545   -1.3529   20.5477 H   0  0  0  0  0  0  0  0  0  0  0  0
    6.6257    0.6054   24.4232 C   0  0  0  0  0  0  0  0  0  0  0  0
    5.9158   -0.0287   25.4425 C   0  0  0  0  0  0  0  0  0  0  0  0
    6.2261   -1.3432   25.7629 C   0  0  0  0  0  0  0  0  0  0  0  0
    7.2445   -2.0103   25.0846 C   0  0  0  0  0  0  0  0  0  0  0  0
    5.6796   -1.8825   26.5296 H   0  0  0  0  0  0  0  0  0  0  0  0
    5.1258    0.4950   25.9744 H   0  0  0  0  0  0  0  0  0  0  0  0
    6.4153    1.6415   24.1595 H   0  0  0  0  0  0  0  0  0  0  0  0
    9.2026   -1.8187   22.3669 H   0  0  0  0  0  0  0  0  0  0  0  0
   10.0873   -1.7040   23.8772 H   0  0  0  0  0  0  0  0  0  0  0  0
   10.1119   -4.0292   23.2874 H   0  0  0  0  0  0  0  0  0  0  0  0
    8.3762   -4.0421   22.9145 H   0  0  0  0  0  0  0  0  0  0  0  0
    9.5639   -3.5821   25.6866 H   0  0  0  0  0  0  0  0  0  0  0  0
    8.8595   -5.1128   25.1246 H   0  0  0  0  0  0  0  0  0  0  0  0
    7.3558   -3.5517   26.4359 H   0  0  0  0  0  0  0  0  0  0  0  0
    5.6527   -6.2685   25.2034 H   0  0  0  0  0  0  0  0  0  0  0  0
    6.2243   -5.4319   26.6735 H   0  0  0  0  0  0  0  0  0  0  0  0
    4.1575   -3.9280   26.5174 H   0  0  0  0  0  0  0  0  0  0  0  0
    3.6613   -5.6388   26.6327 H   0  0  0  0  0  0  0  0  0  0  0  0
    3.6699   -4.8007   25.0575 H   0  0  0  0  0  0  0  0  0  0  0  0
  1  2  1  0
  2  3  1  0
  3  4  2  0
  3  5  1  0
  5  6  1  0
  6  7  1  0
  7  8  1  0
  8  9  1  0
  9 10  2  0
 10 11  1  0
 11 12  1  0
 12 13  1  0
 13 14  2  0
 14 15  1  0
 15 16  2  0
 16 17  1  0
 17 18  1  0
 17 19  2  0
 19 20  1  0
 16 21  1  0
 15 22  1  0
 14 23  1  0
 12 24  1  0
 12 25  1  0
 11 26  1  0
 26 27  2  0
 26 28  1  0
 28 29  1  0
 29 30  2  0
 30 31  1  0
 31 32  2  0
 32 33  1  0
 33 34  2  0
 34 35  1  0
 35 36  2  0
 36 37  1  0
 37 38  2  0
 37 39  1  0
 36 40  1  0
 35 41  1  0
 34 42  1  0
 32 43  1  0
 30 44  1  0
 28 45  1  0
 28 46  1  0
 10 47  1  0
 47 48  2  0
 48 49  1  0
 49 50  2  0
 49 51  1  0
 48 52  1  0
 47 53  1  0
  8 54  1  0
  8 55  1  0
  7 56  1  0
  7 57  1  0
  6 58  1  0
  6 59  1  0
  5 60  1  1
  2 61  1  0
  2 62  1  0
  1 63  1  0
  1 64  1  0
  1 65  1  0
 50  5  1  0
 50  9  1  0
 19 13  1  0
 38 29  1  0
 38 33  1  0
M  CHG  1   5   1
M  END
>  <cnnaffinities>  (7) 
[6.45163]

>  <score>  (7) 
6.45163

>  <index>  (7) 
6

>  <Smiles>  (7) 
C(C(C(=O)[N@+]1(C(C(C(c2c(N(C(c3c(c(c(c(Cl)c3[H])[H])[H])[H])([H])[H])C(=O)C(c3c(nc(c4c(c(c(c(c34)[H])[H])[H])[H])[H])[H])([H])[H])c(c(c(c12)[H])[H])[H])([H])[H])([H])[H])([H])[H])[H])([H])[H])([H])([H])[H]

>  <h>  (7) 
<NA>

>  <Training>  (7) 
True

>  <Success>  (7) 
True

>  <enamine_searched>  (7) 
False

>  <enamine_id>  (7) 
nan

$$$$

     RDKit          3D

 37 39  0  0  0  0  0  0  0  0999 V2000
    7.8852    1.7456   21.1572 O   0  0  0  0  0  0  0  0  0  0  0  0
    8.0212    0.5573   21.3978 C   0  0  0  0  0  0  0  0  0  0  0  0
    6.9675   -0.4630   20.8986 C   0  0  0  0  0  0  0  0  0  0  0  0
    6.1170    0.0808   19.7726 C   0  0  0  0  0  0  0  0  0  0  0  0
    6.4288   -0.2126   18.4706 C   0  0  0  0  0  0  0  0  0  0  0  0
    5.7658    0.2369   17.3727 N   0  0  0  0  0  0  0  0  0  0  0  0
    4.7422    1.0283   17.5808 C   0  0  0  0  0  0  0  0  0  0  0  0
    4.2935    1.4222   18.8713 C   0  0  0  0  0  0  0  0  0  0  0  0
    3.1759    2.2786   19.0437 C   0  0  0  0  0  0  0  0  0  0  0  0
    2.7688    2.6472   20.2953 C   0  0  0  0  0  0  0  0  0  0  0  0
    3.4705    2.1760   21.4304 C   0  0  0  0  0  0  0  0  0  0  0  0
    4.5576    1.3503   21.2874 C   0  0  0  0  0  0  0  0  0  0  0  0
    4.9991    0.9439   20.0003 C   0  0  0  0  0  0  0  0  0  0  0  0
    5.1046    1.0155   22.1638 H   0  0  0  0  0  0  0  0  0  0  0  0
    3.1465    2.4805   22.4207 H   0  0  0  0  0  0  0  0  0  0  0  0
    1.9181    3.3101   20.4250 H   0  0  0  0  0  0  0  0  0  0  0  0
    2.6630    2.6380   18.1541 H   0  0  0  0  0  0  0  0  0  0  0  0
    4.2106    1.3912   16.7000 H   0  0  0  0  0  0  0  0  0  0  0  0
    7.2746   -0.8608   18.2394 H   0  0  0  0  0  0  0  0  0  0  0  0
    7.4837   -1.3693   20.5526 H   0  0  0  0  0  0  0  0  0  0  0  0
    6.3439   -0.7667   21.7494 H   0  0  0  0  0  0  0  0  0  0  0  0
    9.1157    0.0945   22.0883 N   0  0  0  0  0  0  0  0  0  0  0  0
    9.3098   -1.2709   22.5502 C   0  0  0  0  0  0  0  0  0  0  0  0
   10.1715   -1.2748   23.8173 C   0  0  0  0  0  0  0  0  0  0  0  0
   11.5108   -0.5628   23.6131 C   0  0  0  0  0  0  0  0  0  0  0  0
   11.2449    0.8689   23.1488 C   0  0  0  0  0  0  0  0  0  0  0  0
   10.3644    0.8287   21.9130 C   0  0  0  0  0  0  0  0  0  0  0  0
   10.9530    0.2811   21.1720 H   0  0  0  0  0  0  0  0  0  0  0  0
   10.0907    1.8246   21.5660 H   0  0  0  0  0  0  0  0  0  0  0  0
   12.1863    1.3538   22.8654 H   0  0  0  0  0  0  0  0  0  0  0  0
   10.7837    1.4690   23.9478 H   0  0  0  0  0  0  0  0  0  0  0  0
   12.1031   -0.5596   24.5344 H   0  0  0  0  0  0  0  0  0  0  0  0
   12.1125   -1.1095   22.8641 H   0  0  0  0  0  0  0  0  0  0  0  0
   10.3241   -2.3099   24.1374 H   0  0  0  0  0  0  0  0  0  0  0  0
    9.6183   -0.7576   24.6114 H   0  0  0  0  0  0  0  0  0  0  0  0
    8.3226   -1.6910   22.7583 H   0  0  0  0  0  0  0  0  0  0  0  0
    9.7959   -1.9107   21.7850 H   0  0  0  0  0  0  0  0  0  0  0  0
  1  2  2  0
  2  3  1  0
  3  4  1  0
  4  5  2  0
  5  6  1  0
  6  7  2  0
  7  8  1  0
  8  9  2  0
  9 10  1  0
 10 11  2  0
 11 12  1  0
 12 13  2  0
 12 14  1  0
 11 15  1  0
 10 16  1  0
  9 17  1  0
  7 18  1  0
  5 19  1  0
  3 20  1  0
  3 21  1  0
  2 22  1  0
 22 23  1  0
 23 24  1  0
 24 25  1  0
 25 26  1  0
 26 27  1  0
 27 28  1  0
 27 29  1  0
 26 30  1  0
 26 31  1  0
 25 32  1  0
 25 33  1  0
 24 34  1  0
 24 35  1  0
 23 36  1  0
 23 37  1  0
 13  4  1  0
 27 22  1  0
 13  8  1  0
M  END
>  <cnnaffinities>  (8) 
[5.25018, 5.25015, 4.93662, 4.93394, 4.93392, 4.86964, 4.87072, 4.95232, 4.95213]

>  <score>  (8) 
5.25018

>  <index>  (8) 
7

>  <Smiles>  (8) 
O=C(C(c1c(nc(c2c(c(c(c(c12)[H])[H])[H])[H])[H])[H])([H])[H])N1C(C(C(C(C1([H])[H])([H])[H])([H])[H])([H])[H])([H])[H]

>  <h>  (8) 
<NA>

>  <Training>  (8) 
True

>  <Success>  (8) 
True

>  <enamine_searched>  (8) 
False

>  <enamine_id>  (8) 
nan

$$$$

     RDKit          3D

 66 71  0  0  0  0  0  0  0  0999 V2000
    7.7407   -3.0331   23.2900 C   0  0  0  0  0  0  0  0  0  0  0  0
    8.0120   -1.9505   22.2422 C   0  0  1  0  0  0  0  0  0  0  0  0
    6.8816   -1.8211   21.2095 C   0  0  0  0  0  0  0  0  0  0  0  0
    6.9190   -0.4299   20.8121 N   0  0  0  0  0  0  0  0  0  0  0  0
    6.1338    0.0962   19.7625 C   0  0  0  0  0  0  0  0  0  0  0  0
    6.4403   -0.2355   18.4671 C   0  0  0  0  0  0  0  0  0  0  0  0
    5.7730    0.2162   17.3787 N   0  0  0  0  0  0  0  0  0  0  0  0
    4.7560    1.0178   17.5915 C   0  0  0  0  0  0  0  0  0  0  0  0
    4.3069    1.4121   18.8845 C   0  0  0  0  0  0  0  0  0  0  0  0
    3.1827    2.2645   19.0536 C   0  0  0  0  0  0  0  0  0  0  0  0
    2.7472    2.6059   20.3042 C   0  0  0  0  0  0  0  0  0  0  0  0
    3.4149    2.1086   21.4473 C   0  0  0  0  0  0  0  0  0  0  0  0
    4.5071    1.2899   21.3105 C   0  0  0  0  0  0  0  0  0  0  0  0
    4.9986    0.9328   20.0187 C   0  0  0  0  0  0  0  0  0  0  0  0
    5.0112    0.9171   22.1990 H   0  0  0  0  0  0  0  0  0  0  0  0
    3.0644    2.3869   22.4383 H   0  0  0  0  0  0  0  0  0  0  0  0
    1.8921    3.2663   20.4295 H   0  0  0  0  0  0  0  0  0  0  0  0
    2.6824    2.6383   18.1638 H   0  0  0  0  0  0  0  0  0  0  0  0
    4.2223    1.3874   16.7151 H   0  0  0  0  0  0  0  0  0  0  0  0
    7.2914   -0.8880   18.2693 H   0  0  0  0  0  0  0  0  0  0  0  0
    7.6250    0.3722   21.6709 C   0  0  0  0  0  0  0  0  0  0  0  0
    7.7467    1.5729   21.5526 O   0  0  0  0  0  0  0  0  0  0  0  0
    8.2197   -0.5088   22.7814 C   0  0  1  0  0  0  0  0  0  0  0  0
    7.4158   -0.2855   24.0883 C   0  0  0  0  0  0  0  0  0  0  0  0
    7.6339    1.0251   24.6577 N   0  0  0  0  0  0  0  0  0  0  0  0
    6.5181    1.8563   25.0718 C   0  0  0  0  0  0  0  0  0  0  0  0
    5.7901    1.3256   26.3050 C   0  0  0  0  0  0  0  0  0  0  0  0
    4.7029    0.7783   26.2406 O   0  0  0  0  0  0  0  0  0  0  0  0
    6.4353    1.5157   27.4904 N   0  0  0  0  0  0  0  0  0  0  0  0
    5.9184    0.8380   28.6775 C   0  0  0  0  0  0  0  0  0  0  0  0
    6.8431    0.8842   29.8545 C   0  0  0  0  0  0  0  0  0  0  0  0
    7.7050   -0.0606   30.3793 C   0  0  0  0  0  0  0  0  0  0  0  0
    8.3190    0.5817   31.4702 C   0  0  0  0  0  0  0  0  0  0  0  0
    7.8755    1.8234   31.6169 N   0  0  0  0  0  0  0  0  0  0  0  0
    6.9844    1.9899   30.6288 N   0  0  0  0  0  0  0  0  0  0  0  0
    6.2759    3.2411   30.5250 C   0  0  0  0  0  0  0  0  0  0  0  0
    6.7349    3.9147   31.2460 H   0  0  0  0  0  0  0  0  0  0  0  0
    5.2184    3.1152   30.7702 H   0  0  0  0  0  0  0  0  0  0  0  0
    6.3681    3.6498   29.5159 H   0  0  0  0  0  0  0  0  0  0  0  0
    9.0835    0.2200   32.1466 H   0  0  0  0  0  0  0  0  0  0  0  0
    7.8657   -1.0638   30.0007 H   0  0  0  0  0  0  0  0  0  0  0  0
    5.7064   -0.2060   28.4276 H   0  0  0  0  0  0  0  0  0  0  0  0
    4.9463    1.2832   28.9235 H   0  0  0  0  0  0  0  0  0  0  0  0
    7.4158    1.7639   27.4589 H   0  0  0  0  0  0  0  0  0  0  0  0
    6.9608    2.8311   25.2917 H   0  0  0  0  0  0  0  0  0  0  0  0
    5.7768    1.9504   24.2690 H   0  0  0  0  0  0  0  0  0  0  0  0
    8.8833    1.5692   24.7017 C   0  0  0  0  0  0  0  0  0  0  0  0
    9.0964    2.6426   25.2425 O   0  0  0  0  0  0  0  0  0  0  0  0
    9.9738    0.8235   23.9958 C   0  0  0  0  0  0  0  0  0  0  0  0
   11.2951    1.1756   24.2591 C   0  0  0  0  0  0  0  0  0  0  0  0
   12.3070    0.6904   23.4523 C   0  0  0  0  0  0  0  0  0  0  0  0
   11.9895   -0.1342   22.3673 C   0  0  0  0  0  0  0  0  0  0  0  0
   10.6795   -0.5203   22.1455 C   0  0  0  0  0  0  0  0  0  0  0  0
    9.6581   -0.1033   23.0025 C   0  0  0  0  0  0  0  0  0  0  0  0
   10.4508   -1.1317   21.2777 H   0  0  0  0  0  0  0  0  0  0  0  0
   12.7661   -0.4704   21.6863 H   0  0  0  0  0  0  0  0  0  0  0  0
   13.3370    0.9857   23.6237 H   0  0  0  0  0  0  0  0  0  0  0  0
   11.4728    1.8347   25.0993 H   0  0  0  0  0  0  0  0  0  0  0  0
    6.3478   -0.4018   23.8923 H   0  0  0  0  0  0  0  0  0  0  0  0
    7.7128   -1.0366   24.8274 H   0  0  0  0  0  0  0  0  0  0  0  0
    5.9114   -2.0729   21.6580 H   0  0  0  0  0  0  0  0  0  0  0  0
    7.0126   -2.4568   20.3346 H   0  0  0  0  0  0  0  0  0  0  0  0
    8.9263   -2.2219   21.7136 H   0  0  0  0  0  0  0  0  0  0  0  0
    7.6705   -4.0263   22.8339 H   0  0  0  0  0  0  0  0  0  0  0  0
    6.7908   -2.8463   23.8040 H   0  0  0  0  0  0  0  0  0  0  0  0
    8.5255   -3.0748   24.0551 H   0  0  0  0  0  0  0  0  0  0  0  0
  1  2  1  0
  2  3  1  0
  3  4  1  0
  4  5  1  0
  5  6  2  0
  6  7  1  0
  7  8  2  0
  8  9  1  0
  9 10  2  0
 10 11  1  0
 11 12  2  0
 12 13  1  0
 13 14  2  0
 13 15  1  0
 12 16  1  0
 11 17  1  0
 10 18  1  0
  8 19  1  0
  6 20  1  0
  4 21  1  0
 21 22  2  0
 21 23  1  0
 23 24  1  1
 24 25  1  0
 25 26  1  0
 26 27  1  0
 27 28  2  0
 27 29  1  0
 29 30  1  0
 30 31  1  0
 31 32  2  0
 32 33  1  0
 33 34  2  0
 34 35  1  0
 35 36  1  0
 36 37  1  0
 36 38  1  0
 36 39  1  0
 33 40  1  0
 32 41  1  0
 30 42  1  0
 30 43  1  0
 29 44  1  0
 26 45  1  0
 26 46  1  0
 25 47  1  0
 47 48  2  0
 47 49  1  0
 49 50  2  0
 50 51  1  0
 51 52  2  0
 52 53  1  0
 53 54  2  0
 53 55  1  0
 52 56  1  0
 51 57  1  0
 50 58  1  0
 24 59  1  0
 24 60  1  0
  3 61  1  0
  3 62  1  0
  2 63  1  6
  1 64  1  0
  1 65  1  0
  1 66  1  0
 23  2  1  0
 35 31  1  0
 54 49  1  0
 14  5  1  0
 54 23  1  0
 14  9  1  0
M  END
>  <cnnaffinities>  (9) 
[6.5119, 6.4985]

>  <score>  (9) 
6.5119

>  <index>  (9) 
8

>  <Smiles>  (9) 
C([C@]1(C(N(c2c(nc(c3c(c(c(c(c23)[H])[H])[H])[H])[H])[H])C(=O)[C@]21C(N(C(C(=O)N(C(c1c(c(nn1C([H])([H])[H])[H])[H])([H])[H])[H])([H])[H])C(=O)c1c(c(c(c(c21)[H])[H])[H])[H])([H])[H])([H])[H])[H])([H])([H])[H]

>  <h>  (9) 
<NA>

>  <Training>  (9) 
True

>  <Success>  (9) 
True

>  <enamine_searched>  (9) 
False

>  <enamine_id>  (9) 
nan

$$$$

     RDKit          3D

 58 63  0  0  0  0  0  0  0  0999 V2000
    5.4337    5.0335   21.9869 C   0  0  0  0  0  0  0  0  0  0  0  0
    6.0357    4.2034   23.0758 C   0  0  0  0  0  0  0  0  0  0  0  0
    7.4214    3.9888   23.3127 C   0  0  0  0  0  0  0  0  0  0  0  0
    7.4427    3.1050   24.3414 C   0  0  0  0  0  0  0  0  0  0  0  0
    8.5716    2.4009   25.0321 C   0  0  0  0  0  0  0  0  0  0  0  0
    9.2120    1.4103   24.1781 N   0  0  0  0  0  0  0  0  0  0  0  0
    8.5373    0.1389   23.9950 C   0  0  0  0  0  0  0  0  0  0  0  0
    8.6455   -0.3946   22.5464 C   0  0  2  0  0  0  0  0  0  0  0  0
    7.8394    0.4714   21.5483 C   0  0  0  0  0  0  0  0  0  0  0  0
    7.9882    1.6526   21.3212 O   0  0  0  0  0  0  0  0  0  0  0  0
    6.9119   -0.3278   20.9073 N   0  0  0  0  0  0  0  0  0  0  0  0
    6.1574    0.1410   19.8028 C   0  0  0  0  0  0  0  0  0  0  0  0
    6.4705   -0.2207   18.5151 C   0  0  0  0  0  0  0  0  0  0  0  0
    5.8040    0.2050   17.4124 N   0  0  0  0  0  0  0  0  0  0  0  0
    4.7833    1.0085   17.6018 C   0  0  0  0  0  0  0  0  0  0  0  0
    4.3260    1.4283   18.8842 C   0  0  0  0  0  0  0  0  0  0  0  0
    3.1936    2.2710   19.0440 C   0  0  0  0  0  0  0  0  0  0  0  0
    2.7545    2.6128   20.2946 C   0  0  0  0  0  0  0  0  0  0  0  0
    3.4186    2.1282   21.4434 C   0  0  0  0  0  0  0  0  0  0  0  0
    4.5251    1.3225   21.3167 C   0  0  0  0  0  0  0  0  0  0  0  0
    5.0151    0.9690   20.0289 C   0  0  0  0  0  0  0  0  0  0  0  0
    5.0252    0.9221   22.1927 H   0  0  0  0  0  0  0  0  0  0  0  0
    3.0555    2.4014   22.4302 H   0  0  0  0  0  0  0  0  0  0  0  0
    1.8873    3.2587   20.4094 H   0  0  0  0  0  0  0  0  0  0  0  0
    2.6903    2.6317   18.1515 H   0  0  0  0  0  0  0  0  0  0  0  0
    4.2494    1.3562   16.7173 H   0  0  0  0  0  0  0  0  0  0  0  0
    7.3216   -0.8722   18.3160 H   0  0  0  0  0  0  0  0  0  0  0  0
    7.1671   -1.7365   21.0870 C   0  0  0  0  0  0  0  0  0  0  0  0
    8.0141   -1.8185   22.3738 C   0  0  2  0  0  0  0  0  0  0  0  0
    7.2084   -2.3783   23.5513 C   0  0  0  0  0  0  0  0  0  0  0  0
    6.8486   -3.3868   23.3088 H   0  0  0  0  0  0  0  0  0  0  0  0
    7.8339   -2.4691   24.4452 H   0  0  0  0  0  0  0  0  0  0  0  0
    6.3442   -1.7493   23.7876 H   0  0  0  0  0  0  0  0  0  0  0  0
    8.8174   -2.5417   22.2343 H   0  0  0  0  0  0  0  0  0  0  0  0
    7.7130   -2.1326   20.2244 H   0  0  0  0  0  0  0  0  0  0  0  0
    6.2191   -2.2798   21.1625 H   0  0  0  0  0  0  0  0  0  0  0  0
   10.1229   -0.3335   22.1593 C   0  0  0  0  0  0  0  0  0  0  0  0
   10.6708   -1.2963   21.3011 C   0  0  0  0  0  0  0  0  0  0  0  0
   12.0150   -1.2491   21.0008 C   0  0  0  0  0  0  0  0  0  0  0  0
   12.5196   -2.1798   20.1642 F   0  0  0  0  0  0  0  0  0  0  0  0
   12.8281   -0.2019   21.4452 C   0  0  0  0  0  0  0  0  0  0  0  0
   12.2774    0.7966   22.2177 C   0  0  0  0  0  0  0  0  0  0  0  0
   10.9351    0.7195   22.6059 C   0  0  0  0  0  0  0  0  0  0  0  0
   10.4142    1.7146   23.5961 C   0  0  0  0  0  0  0  0  0  0  0  0
   11.0354    2.7277   23.8910 O   0  0  0  0  0  0  0  0  0  0  0  0
   12.8605    1.6592   22.5236 H   0  0  0  0  0  0  0  0  0  0  0  0
   13.8629   -0.1526   21.1272 H   0  0  0  0  0  0  0  0  0  0  0  0
   10.0769   -2.0638   20.8216 H   0  0  0  0  0  0  0  0  0  0  0  0
    7.4907    0.2815   24.2704 H   0  0  0  0  0  0  0  0  0  0  0  0
    8.9691   -0.6072   24.6751 H   0  0  0  0  0  0  0  0  0  0  0  0
    9.3434    3.1362   25.2704 H   0  0  0  0  0  0  0  0  0  0  0  0
    8.2022    1.9377   25.9546 H   0  0  0  0  0  0  0  0  0  0  0  0
    6.1877    2.8317   24.7281 O   0  0  0  0  0  0  0  0  0  0  0  0
    5.2963    3.5228   23.9276 N   0  0  0  0  0  0  0  0  0  0  0  0
    8.2575    4.3890   22.7550 H   0  0  0  0  0  0  0  0  0  0  0  0
    6.0079    5.9532   21.8441 H   0  0  0  0  0  0  0  0  0  0  0  0
    4.3957    5.2873   22.2121 H   0  0  0  0  0  0  0  0  0  0  0  0
    5.4560    4.4738   21.0443 H   0  0  0  0  0  0  0  0  0  0  0  0
  1  2  1  0
  2  3  1  0
  3  4  2  0
  4  5  1  0
  5  6  1  0
  6  7  1  0
  8  7  1  1
  8  9  1  0
  9 10  2  0
  9 11  1  0
 11 12  1  0
 12 13  2  0
 13 14  1  0
 14 15  2  0
 15 16  1  0
 16 17  2  0
 17 18  1  0
 18 19  2  0
 19 20  1  0
 20 21  2  0
 20 22  1  0
 19 23  1  0
 18 24  1  0
 17 25  1  0
 15 26  1  0
 13 27  1  0
 11 28  1  0
 28 29  1  0
 29 30  1  0
 30 31  1  0
 30 32  1  0
 30 33  1  0
 29 34  1  6
 28 35  1  0
 28 36  1  0
  8 37  1  0
 37 38  2  0
 38 39  1  0
 39 40  1  0
 39 41  2  0
 41 42  1  0
 42 43  2  0
 43 44  1  0
 44 45  2  0
 42 46  1  0
 41 47  1  0
 38 48  1  0
  7 49  1  0
  7 50  1  0
  5 51  1  0
  5 52  1  0
  4 53  1  0
 53 54  1  0
  3 55  1  0
  1 56  1  0
  1 57  1  0
  1 58  1  0
 54  2  2  0
 44  6  1  0
 29  8  1  0
 43 37  1  0
 21 12  1  0
 21 16  1  0
M  END
>  <cnnaffinities>  (10) 
[6.79354]

>  <score>  (10) 
6.79354

>  <index>  (10) 
9

>  <Smiles>  (10) 
C(c1c(c(C(N2C([C@@]3(C(=O)N(c4c(nc(c5c(c(c(c(c45)[H])[H])[H])[H])[H])[H])C([C@@]3(C([H])([H])[H])[H])([H])[H])c3c(c(F)c(c(c3C2=O)[H])[H])[H])([H])[H])([H])[H])on1)[H])([H])([H])[H]

>  <h>  (10) 
<NA>

>  <Training>  (10) 
True

>  <Success>  (10) 
True

>  <enamine_searched>  (10) 
False

>  <enamine_id>  (10) 
nan

$$$$

     RDKit          3D

 72 77  0  0  0  0  0  0  0  0999 V2000
    5.8803    5.1817   21.4981 C   0  0  0  0  0  0  0  0  0  0  0  0
    5.4071    5.9043   22.7620 C   0  0  1  0  0  0  0  0  0  0  0  0
    5.1174    4.9781   23.9490 C   0  0  0  0  0  0  0  0  0  0  0  0
    6.3510    4.5129   24.6918 N   0  0  0  0  0  4  0  0  0  0  0  0
    7.1143    3.3790   24.0441 C   0  0  0  0  0  0  0  0  0  0  0  0
    7.7645    2.4523   25.0783 C   0  0  0  0  0  0  0  0  0  0  0  0
    8.6037    1.4557   24.4345 N   0  0  0  0  0  0  0  0  0  0  0  0
    8.0608    0.1385   24.1602 C   0  0  0  0  0  0  0  0  0  0  0  0
    8.3876   -0.3611   22.7329 C   0  0  2  0  0  0  0  0  0  0  0  0
    7.6412    0.4781   21.6641 C   0  0  0  0  0  0  0  0  0  0  0  0
    7.6963    1.6844   21.5164 O   0  0  0  0  0  0  0  0  0  0  0  0
    6.8986   -0.3639   20.8690 N   0  0  0  0  0  0  0  0  0  0  0  0
    6.1347    0.1123   19.7785 C   0  0  0  0  0  0  0  0  0  0  0  0
    6.4432   -0.2289   18.4835 C   0  0  0  0  0  0  0  0  0  0  0  0
    5.7716    0.2145   17.3943 N   0  0  0  0  0  0  0  0  0  0  0  0
    4.7546    1.0194   17.5979 C   0  0  0  0  0  0  0  0  0  0  0  0
    4.3031    1.4263   18.8873 C   0  0  0  0  0  0  0  0  0  0  0  0
    3.1723    2.2728   19.0568 C   0  0  0  0  0  0  0  0  0  0  0  0
    2.7378    2.6039   20.3131 C   0  0  0  0  0  0  0  0  0  0  0  0
    3.4099    2.1087   21.4495 C   0  0  0  0  0  0  0  0  0  0  0  0
    4.5126    1.3033   21.3114 C   0  0  0  0  0  0  0  0  0  0  0  0
    5.0006    0.9527   20.0180 C   0  0  0  0  0  0  0  0  0  0  0  0
    5.0227    0.9206   22.1876 H   0  0  0  0  0  0  0  0  0  0  0  0
    3.0520    2.3744   22.4428 H   0  0  0  0  0  0  0  0  0  0  0  0
    1.8781    3.2577   20.4409 H   0  0  0  0  0  0  0  0  0  0  0  0
    2.6683    2.6430   18.1690 H   0  0  0  0  0  0  0  0  0  0  0  0
    4.2284    1.3828   16.7164 H   0  0  0  0  0  0  0  0  0  0  0  0
    7.2925   -0.8768   18.2666 H   0  0  0  0  0  0  0  0  0  0  0  0
    7.2072   -1.7634   21.0705 C   0  0  0  0  0  0  0  0  0  0  0  0
    7.8851   -1.8210   22.4601 C   0  0  2  0  0  0  0  0  0  0  0  0
    6.9378   -2.4264   23.5069 C   0  0  0  0  0  0  0  0  0  0  0  0
    7.4118   -2.5007   24.4908 H   0  0  0  0  0  0  0  0  0  0  0  0
    6.0178   -1.8396   23.6100 H   0  0  0  0  0  0  0  0  0  0  0  0
    6.6550   -3.4424   23.2096 H   0  0  0  0  0  0  0  0  0  0  0  0
    8.7578   -2.4822   22.4193 H   0  0  0  0  0  0  0  0  0  0  0  0
    7.8849   -2.1178   20.2872 H   0  0  0  0  0  0  0  0  0  0  0  0
    6.2888   -2.3602   21.0333 H   0  0  0  0  0  0  0  0  0  0  0  0
    9.8899   -0.1957   22.5466 C   0  0  0  0  0  0  0  0  0  0  0  0
   10.5689   -0.9847   21.6155 C   0  0  0  0  0  0  0  0  0  0  0  0
   11.9200   -0.8023   21.4029 C   0  0  0  0  0  0  0  0  0  0  0  0
   12.6356   -1.6816   20.0648 Cl  0  0  0  0  0  0  0  0  0  0  0  0
   12.6260    0.2120   22.0502 C   0  0  0  0  0  0  0  0  0  0  0  0
   11.9480    1.0298   22.9379 C   0  0  0  0  0  0  0  0  0  0  0  0
   10.5887    0.8386   23.1830 C   0  0  0  0  0  0  0  0  0  0  0  0
    9.8834    1.7923   24.1095 C   0  0  0  0  0  0  0  0  0  0  0  0
   10.4260    2.8092   24.5289 O   0  0  0  0  0  0  0  0  0  0  0  0
   12.4278    1.8745   23.4214 H   0  0  0  0  0  0  0  0  0  0  0  0
   13.6605    0.4003   21.7900 H   0  0  0  0  0  0  0  0  0  0  0  0
   10.0501   -1.6711   20.9557 H   0  0  0  0  0  0  0  0  0  0  0  0
    6.9789    0.1935   24.2867 H   0  0  0  0  0  0  0  0  0  0  0  0
    8.4764   -0.6019   24.8641 H   0  0  0  0  0  0  0  0  0  0  0  0
    6.9961    1.9296   25.6605 H   0  0  0  0  0  0  0  0  0  0  0  0
    8.3993    3.0180   25.7660 H   0  0  0  0  0  0  0  0  0  0  0  0
    7.8969    3.8003   23.4106 H   0  0  0  0  0  0  0  0  0  0  0  0
    6.4229    2.8113   23.4105 H   0  0  0  0  0  0  0  0  0  0  0  0
    7.2245    5.7242   24.9821 C   0  0  0  0  0  0  0  0  0  0  0  0
    7.4913    6.5525   23.7260 C   0  0  2  0  0  0  0  0  0  0  0  0
    8.3119    7.7876   24.0494 C   0  0  0  0  0  0  0  0  0  0  0  0
    9.2722    7.5017   24.4916 H   0  0  0  0  0  0  0  0  0  0  0  0
    8.5076    8.3735   23.1479 H   0  0  0  0  0  0  0  0  0  0  0  0
    7.7754    8.4217   24.7627 H   0  0  0  0  0  0  0  0  0  0  0  0
    6.2614    6.9746   23.1531 O   0  0  0  0  0  0  0  0  0  0  0  0
    8.0357    5.9243   23.0026 H   0  0  0  0  0  0  0  0  0  0  0  0
    6.7102    6.3541   25.7142 H   0  0  0  0  0  0  0  0  0  0  0  0
    8.1730    5.3824   25.4096 H   0  0  0  0  0  0  0  0  0  0  0  0
    6.0288    4.1486   25.6086 H   0  0  0  0  0  0  0  0  0  0  0  0
    4.4964    5.5154   24.6686 H   0  0  0  0  0  0  0  0  0  0  0  0
    4.5710    4.0950   23.6070 H   0  0  0  0  0  0  0  0  0  0  0  0
    4.4625    6.4081   22.5186 H   0  0  0  0  0  0  0  0  0  0  0  0
    6.8272    4.6491   21.6365 H   0  0  0  0  0  0  0  0  0  0  0  0
    6.0115    5.9091   20.6912 H   0  0  0  0  0  0  0  0  0  0  0  0
    5.1427    4.4327   21.1833 H   0  0  0  0  0  0  0  0  0  0  0  0
  1  2  1  0
  2  3  1  0
  3  4  1  0
  4  5  1  0
  5  6  1  0
  6  7  1  0
  7  8  1  0
  9  8  1  1
  9 10  1  0
 10 11  2  0
 10 12  1  0
 12 13  1  0
 13 14  2  0
 14 15  1  0
 15 16  2  0
 16 17  1  0
 17 18  2  0
 18 19  1  0
 19 20  2  0
 20 21  1  0
 21 22  2  0
 21 23  1  0
 20 24  1  0
 19 25  1  0
 18 26  1  0
 16 27  1  0
 14 28  1  0
 12 29  1  0
 29 30  1  0
 30 31  1  0
 31 32  1  0
 31 33  1  0
 31 34  1  0
 30 35  1  6
 29 36  1  0
 29 37  1  0
  9 38  1  0
 38 39  2  0
 39 40  1  0
 40 41  1  0
 40 42  2  0
 42 43  1  0
 43 44  2  0
 44 45  1  0
 45 46  2  0
 43 47  1  0
 42 48  1  0
 39 49  1  0
  8 50  1  0
  8 51  1  0
  6 52  1  0
  6 53  1  0
  5 54  1  0
  5 55  1  0
  4 56  1  0
 56 57  1  0
 57 58  1  0
 58 59  1  0
 58 60  1  0
 58 61  1  0
 57 62  1  0
 57 63  1  6
 56 64  1  0
 56 65  1  0
  4 66  1  0
  3 67  1  0
  3 68  1  0
  2 69  1  6
  1 70  1  0
  1 71  1  0
  1 72  1  0
 62  2  1  0
 45  7  1  0
 30  9  1  0
 44 38  1  0
 22 13  1  0
 22 17  1  0
M  CHG  1   4   1
M  END
>  <cnnaffinities>  (11) 
[6.84594, 6.19108]

>  <score>  (11) 
6.84594

>  <index>  (11) 
10

>  <Smiles>  (11) 
C([C@]1(C([N+](C(C(N2C([C@@]3(C(=O)N(c4c(nc(c5c(c(c(c(c45)[H])[H])[H])[H])[H])[H])C([C@@]3(C([H])([H])[H])[H])([H])[H])c3c(c(Cl)c(c(c3C2=O)[H])[H])[H])([H])[H])([H])[H])([H])[H])(C([C@](C([H])([H])[H])(O1)[H])([H])[H])[H])([H])[H])[H])([H])([H])[H]

>  <h>  (11) 
<NA>

>  <Training>  (11) 
True

>  <Success>  (11) 
True

>  <enamine_searched>  (11) 
False

>  <enamine_id>  (11) 
nan

$$$$

     RDKit          3D

 54 57  0  0  0  0  0  0  0  0999 V2000
    4.8800    1.9203   25.3045 C   0  0  0  0  0  0  0  0  0  0  0  0
    6.1337    1.9650   24.6591 O   0  0  0  0  0  0  0  0  0  0  0  0
    6.4397    2.9884   23.8095 C   0  0  0  0  0  0  0  0  0  0  0  0
    5.5512    4.0276   23.5129 C   0  0  0  0  0  0  0  0  0  0  0  0
    5.9382    5.0317   22.6252 C   0  0  0  0  0  0  0  0  0  0  0  0
    7.1970    5.0151   22.0454 C   0  0  0  0  0  0  0  0  0  0  0  0
    8.0720    3.9818   22.3662 C   0  0  0  0  0  0  0  0  0  0  0  0
    7.7270    2.9602   23.2374 C   0  0  0  0  0  0  0  0  0  0  0  0
    8.6564    1.7833   23.5092 C   0  0  2  0  0  0  0  0  0  0  0  0
   10.1645    2.0526   23.3435 C   0  0  0  0  0  0  0  0  0  0  0  0
   10.9930    0.8544   23.8289 C   0  0  2  0  0  0  0  0  0  0  0  0
   12.4890    1.0790   23.6102 C   0  0  0  0  0  0  0  0  0  0  0  0
   12.8386    1.9808   24.1224 H   0  0  0  0  0  0  0  0  0  0  0  0
   13.0857    0.2310   23.9680 H   0  0  0  0  0  0  0  0  0  0  0  0
   12.7093    1.2055   22.5437 H   0  0  0  0  0  0  0  0  0  0  0  0
   10.5197   -0.4274   23.1388 C   0  0  0  0  0  0  0  0  0  0  0  0
    8.9990   -0.6101   23.2636 C   0  0  0  0  0  0  0  0  0  0  0  0
    8.2620    0.5602   22.7860 N   0  0  0  0  0  0  0  0  0  0  0  0
    7.9300    0.6539   21.4238 C   0  0  0  0  0  0  0  0  0  0  0  0
    8.3436    1.5297   20.6946 O   0  0  0  0  0  0  0  0  0  0  0  0
    6.9756   -0.4303   20.8958 C   0  0  0  0  0  0  0  0  0  0  0  0
    6.1117    0.0832   19.7664 C   0  0  0  0  0  0  0  0  0  0  0  0
    6.4268   -0.2103   18.4657 C   0  0  0  0  0  0  0  0  0  0  0  0
    5.7605    0.2360   17.3659 N   0  0  0  0  0  0  0  0  0  0  0  0
    4.7366    1.0282   17.5756 C   0  0  0  0  0  0  0  0  0  0  0  0
    4.2898    1.4230   18.8651 C   0  0  0  0  0  0  0  0  0  0  0  0
    3.1745    2.2809   19.0424 C   0  0  0  0  0  0  0  0  0  0  0  0
    2.7661    2.6459   20.2968 C   0  0  0  0  0  0  0  0  0  0  0  0
    3.4645    2.1646   21.4307 C   0  0  0  0  0  0  0  0  0  0  0  0
    4.5480    1.3318   21.2894 C   0  0  0  0  0  0  0  0  0  0  0  0
    4.9932    0.9380   19.9994 C   0  0  0  0  0  0  0  0  0  0  0  0
    5.0723    0.9777   22.1737 H   0  0  0  0  0  0  0  0  0  0  0  0
    3.1370    2.4667   22.4233 H   0  0  0  0  0  0  0  0  0  0  0  0
    1.9127    3.3084   20.4266 H   0  0  0  0  0  0  0  0  0  0  0  0
    2.6573    2.6499   18.1592 H   0  0  0  0  0  0  0  0  0  0  0  0
    4.2034    1.3965   16.6961 H   0  0  0  0  0  0  0  0  0  0  0  0
    7.2752   -0.8539   18.2406 H   0  0  0  0  0  0  0  0  0  0  0  0
    6.3698   -0.8302   21.7211 H   0  0  0  0  0  0  0  0  0  0  0  0
    7.5889   -1.2636   20.5241 H   0  0  0  0  0  0  0  0  0  0  0  0
    8.6689   -1.4846   22.6992 H   0  0  0  0  0  0  0  0  0  0  0  0
    8.7401   -0.7777   24.3184 H   0  0  0  0  0  0  0  0  0  0  0  0
   10.7965   -0.3854   22.0783 H   0  0  0  0  0  0  0  0  0  0  0  0
   11.0496   -1.2958   23.5536 H   0  0  0  0  0  0  0  0  0  0  0  0
   10.8228    0.7373   24.9096 H   0  0  0  0  0  0  0  0  0  0  0  0
   10.4535    2.9449   23.9141 H   0  0  0  0  0  0  0  0  0  0  0  0
   10.3979    2.2594   22.2922 H   0  0  0  0  0  0  0  0  0  0  0  0
    8.5160    1.5177   24.5627 H   0  0  0  0  0  0  0  0  0  0  0  0
    9.0399    3.9587   21.8777 H   0  0  0  0  0  0  0  0  0  0  0  0
    7.5021    5.7837   21.3391 H   0  0  0  0  0  0  0  0  0  0  0  0
    5.2505    5.8355   22.3810 H   0  0  0  0  0  0  0  0  0  0  0  0
    4.5622    4.0695   23.9632 H   0  0  0  0  0  0  0  0  0  0  0  0
    4.6974    2.7759   25.9657 H   0  0  0  0  0  0  0  0  0  0  0  0
    4.9075    1.0234   25.9185 H   0  0  0  0  0  0  0  0  0  0  0  0
    4.0298    1.8265   24.6163 H   0  0  0  0  0  0  0  0  0  0  0  0
  1  2  1  0
  2  3  1  0
  3  4  2  0
  4  5  1  0
  5  6  2  0
  6  7  1  0
  7  8  2  0
  8  9  1  0
  9 10  1  0
 10 11  1  0
 11 12  1  0
 12 13  1  0
 12 14  1  0
 12 15  1  0
 11 16  1  0
 16 17  1  0
 17 18  1  0
 18 19  1  0
 19 20  2  0
 19 21  1  0
 21 22  1  0
 22 23  2  0
 23 24  1  0
 24 25  2  0
 25 26  1  0
 26 27  2  0
 27 28  1  0
 28 29  2  0
 29 30  1  0
 30 31  2  0
 30 32  1  0
 29 33  1  0
 28 34  1  0
 27 35  1  0
 25 36  1  0
 23 37  1  0
 21 38  1  0
 21 39  1  0
 17 40  1  0
 17 41  1  0
 16 42  1  0
 16 43  1  0
 11 44  1  1
 10 45  1  0
 10 46  1  0
  9 47  1  1
  7 48  1  0
  6 49  1  0
  5 50  1  0
  4 51  1  0
  1 52  1  0
  1 53  1  0
  1 54  1  0
  8  3  1  0
 18  9  1  0
 31 22  1  0
 31 26  1  0
M  END
>  <cnnaffinities>  (12) 
[5.95771]

>  <score>  (12) 
5.95771

>  <index>  (12) 
11

>  <Smiles>  (12) 
C(Oc1c(c(c(c(c1[C@@]1(C([C@](C([H])([H])[H])(C(C(N1C(=O)C(c1c(nc(c2c(c(c(c(c12)[H])[H])[H])[H])[H])[H])([H])[H])([H])[H])([H])[H])[H])([H])[H])[H])[H])[H])[H])[H])([H])([H])[H]

>  <h>  (12) 
<NA>

>  <Training>  (12) 
True

>  <Success>  (12) 
True

>  <enamine_searched>  (12) 
False

>  <enamine_id>  (12) 
nan

$$$$

     RDKit          3D

 47 50  0  0  0  0  0  0  0  0999 V2000
    5.5085   -2.4332   20.9605 O   0  0  0  0  0  0  0  0  0  0  0  0
    6.1733   -1.6494   21.6198 C   0  0  0  0  0  0  0  0  0  0  0  0
    6.9105   -0.4827   20.9186 C   0  0  0  0  0  0  0  0  0  0  0  0
    6.1129    0.0887   19.7691 C   0  0  0  0  0  0  0  0  0  0  0  0
    6.4215   -0.2154   18.4686 C   0  0  0  0  0  0  0  0  0  0  0  0
    5.7578    0.2337   17.3670 N   0  0  0  0  0  0  0  0  0  0  0  0
    4.7376    1.0299   17.5751 C   0  0  0  0  0  0  0  0  0  0  0  0
    4.2872    1.4236   18.8654 C   0  0  0  0  0  0  0  0  0  0  0  0
    3.1657    2.2751   19.0435 C   0  0  0  0  0  0  0  0  0  0  0  0
    2.7508    2.6273   20.2982 C   0  0  0  0  0  0  0  0  0  0  0  0
    3.4422    2.1394   21.4317 C   0  0  0  0  0  0  0  0  0  0  0  0
    4.5306    1.3168   21.2881 C   0  0  0  0  0  0  0  0  0  0  0  0
    4.9887    0.9387   19.9974 C   0  0  0  0  0  0  0  0  0  0  0  0
    5.0475    0.9529   22.1733 H   0  0  0  0  0  0  0  0  0  0  0  0
    3.1075    2.4269   22.4239 H   0  0  0  0  0  0  0  0  0  0  0  0
    1.8939    3.2831   20.4361 H   0  0  0  0  0  0  0  0  0  0  0  0
    2.6456    2.6452   18.1617 H   0  0  0  0  0  0  0  0  0  0  0  0
    4.2010    1.3992   16.6980 H   0  0  0  0  0  0  0  0  0  0  0  0
    7.2670   -0.8678   18.2480 H   0  0  0  0  0  0  0  0  0  0  0  0
    7.2063    0.3104   21.6158 H   0  0  0  0  0  0  0  0  0  0  0  0
    7.8449   -0.8976   20.5164 H   0  0  0  0  0  0  0  0  0  0  0  0
    6.2951   -1.7860   22.9726 N   0  0  0  0  0  0  0  0  0  0  0  0
    7.0324   -0.9350   23.8933 C   0  0  0  0  0  0  0  0  0  0  0  0
    6.6589   -1.4630   25.2809 C   0  0  2  0  0  0  0  0  0  0  0  0
    7.7126   -1.1187   26.2939 C   0  0  0  0  0  0  0  0  0  0  0  0
    7.3315   -1.5256   27.5671 F   0  0  0  0  0  0  0  0  0  0  0  0
    8.6102   -1.6281   25.9713 H   0  0  0  0  0  0  0  0  0  0  0  0
    7.9576   -0.0490   26.3398 H   0  0  0  0  0  0  0  0  0  0  0  0
    6.3146   -2.9634   25.0683 C   0  0  0  0  0  0  0  0  0  0  0  0
    5.3897   -3.5340   26.1608 C   0  0  0  0  0  0  0  0  0  0  0  0
    6.2459   -4.3527   27.1523 C   0  0  0  0  0  0  0  0  0  0  0  0
    7.6465   -4.4768   26.5231 C   0  0  0  0  0  0  0  0  0  0  0  0
    7.5214   -3.9279   25.0925 C   0  0  0  0  0  0  0  0  0  0  0  0
    7.3243   -4.7609   24.4073 H   0  0  0  0  0  0  0  0  0  0  0  0
    8.4431   -3.4578   24.7382 H   0  0  0  0  0  0  0  0  0  0  0  0
    8.3747   -3.9020   27.1003 H   0  0  0  0  0  0  0  0  0  0  0  0
    7.9936   -5.5152   26.5154 H   0  0  0  0  0  0  0  0  0  0  0  0
    6.3016   -3.8665   28.1287 H   0  0  0  0  0  0  0  0  0  0  0  0
    5.7938   -5.3378   27.3105 H   0  0  0  0  0  0  0  0  0  0  0  0
    4.8377   -2.7415   26.6726 H   0  0  0  0  0  0  0  0  0  0  0  0
    4.6379   -4.1824   25.6986 H   0  0  0  0  0  0  0  0  0  0  0  0
    5.6577   -2.9009   23.6738 C   0  0  0  0  0  0  0  0  0  0  0  0
    5.7897   -3.8276   23.1143 H   0  0  0  0  0  0  0  0  0  0  0  0
    4.5786   -2.7376   23.7669 H   0  0  0  0  0  0  0  0  0  0  0  0
    5.7508   -0.9665   25.6316 H   0  0  0  0  0  0  0  0  0  0  0  0
    6.7392    0.1151   23.8080 H   0  0  0  0  0  0  0  0  0  0  0  0
    8.1138   -0.9939   23.7042 H   0  0  0  0  0  0  0  0  0  0  0  0
  1  2  2  0
  2  3  1  0
  3  4  1  0
  4  5  2  0
  5  6  1  0
  6  7  2  0
  7  8  1  0
  8  9  2  0
  9 10  1  0
 10 11  2  0
 11 12  1  0
 12 13  2  0
 12 14  1  0
 11 15  1  0
 10 16  1  0
  9 17  1  0
  7 18  1  0
  5 19  1  0
  3 20  1  0
  3 21  1  0
  2 22  1  0
 22 23  1  0
 23 24  1  0
 24 25  1  0
 25 26  1  0
 25 27  1  0
 25 28  1  0
 24 29  1  0
 29 30  1  0
 30 31  1  0
 31 32  1  0
 32 33  1  0
 33 34  1  0
 33 35  1  0
 32 36  1  0
 32 37  1  0
 31 38  1  0
 31 39  1  0
 30 40  1  0
 30 41  1  0
 29 42  1  0
 42 43  1  0
 42 44  1  0
 24 45  1  1
 23 46  1  0
 23 47  1  0
 13  4  1  0
 42 22  1  0
 13  8  1  0
 33 29  1  0
M  END
>  <cnnaffinities>  (13) 
[5.75008, 5.66885, 5.66739, 5.38946, 5.57259, 5.42948]

>  <score>  (13) 
5.75008

>  <index>  (13) 
12

>  <Smiles>  (13) 
O=C(C(c1c(nc(c2c(c(c(c(c12)[H])[H])[H])[H])[H])[H])([H])[H])N1C([C@](C(F)([H])[H])(C2(C(C(C(C2([H])[H])([H])[H])([H])[H])([H])[H])C1([H])[H])[H])([H])[H]

>  <h>  (13) 
<NA>

>  <Training>  (13) 
True

>  <Success>  (13) 
True

>  <enamine_searched>  (13) 
False

>  <enamine_id>  (13) 
nan

$$$$

     RDKit          3D

 67 72  0  0  0  0  0  0  0  0999 V2000
    7.8434   -8.3537   23.0425 C   0  0  0  0  0  0  0  0  0  0  0  0
    6.8209   -7.3941   22.6743 N   0  0  0  0  0  0  0  0  0  0  0  0
    7.0499   -6.5624   21.6217 C   0  0  0  0  0  0  0  0  0  0  0  0
    7.9035   -6.7790   20.7820 O   0  0  0  0  0  0  0  0  0  0  0  0
    6.1970   -5.2933   21.6043 C   0  0  0  0  0  0  0  0  0  0  0  0
    6.6894   -4.3307   22.5723 N   0  0  0  0  0  0  0  0  0  0  0  0
    7.7855   -3.4206   22.2573 C   0  0  0  0  0  0  0  0  0  0  0  0
    7.4092   -1.9660   22.6350 C   0  0  2  0  0  0  0  0  0  0  0  0
    6.3097   -1.4691   21.6601 C   0  0  0  0  0  0  0  0  0  0  0  0
    5.1783   -1.8918   21.5501 O   0  0  0  0  0  0  0  0  0  0  0  0
    6.8427   -0.4707   20.8655 N   0  0  0  0  0  0  0  0  0  0  0  0
    6.1168    0.0754   19.7876 C   0  0  0  0  0  0  0  0  0  0  0  0
    6.4722   -0.2216   18.4970 C   0  0  0  0  0  0  0  0  0  0  0  0
    5.8167    0.2192   17.3963 N   0  0  0  0  0  0  0  0  0  0  0  0
    4.7864    1.0056   17.5984 C   0  0  0  0  0  0  0  0  0  0  0  0
    4.3226    1.4042   18.8838 C   0  0  0  0  0  0  0  0  0  0  0  0
    3.2039    2.2633   19.0331 C   0  0  0  0  0  0  0  0  0  0  0  0
    2.7926    2.6507   20.2774 C   0  0  0  0  0  0  0  0  0  0  0  0
    3.4800    2.2072   21.4298 C   0  0  0  0  0  0  0  0  0  0  0  0
    4.5647    1.3741   21.3124 C   0  0  0  0  0  0  0  0  0  0  0  0
    5.0054    0.9409   20.0284 C   0  0  0  0  0  0  0  0  0  0  0  0
    5.0895    1.0386   22.2017 H   0  0  0  0  0  0  0  0  0  0  0  0
    3.1467    2.5348   22.4108 H   0  0  0  0  0  0  0  0  0  0  0  0
    1.9413    3.3158   20.3882 H   0  0  0  0  0  0  0  0  0  0  0  0
    2.7010    2.6125   18.1341 H   0  0  0  0  0  0  0  0  0  0  0  0
    4.2524    1.3614   16.7179 H   0  0  0  0  0  0  0  0  0  0  0  0
    7.3213   -0.8786   18.3143 H   0  0  0  0  0  0  0  0  0  0  0  0
    8.2846   -0.3847   20.9597 C   0  0  0  0  0  0  0  0  0  0  0  0
    8.5651   -0.9590   22.3512 C   0  0  2  0  0  0  0  0  0  0  0  0
    9.9883   -1.4752   22.4571 C   0  0  0  0  0  0  0  0  0  0  0  0
   10.2074   -1.9613   23.7625 O   0  0  0  0  0  0  0  0  0  0  0  0
   11.5203   -2.4410   23.9801 C   0  0  0  0  0  0  0  0  0  0  0  0
   12.4762   -1.3638   24.4396 C   0  0  0  0  0  0  0  0  0  0  0  0
   13.2052   -0.5210   23.4236 C   0  0  0  0  0  0  0  0  0  0  0  0
   13.9344   -1.5831   24.1912 C   0  0  0  0  0  0  0  0  0  0  0  0
   14.6629   -1.2935   24.9358 H   0  0  0  0  0  0  0  0  0  0  0  0
   14.2004   -2.4814   23.6491 H   0  0  0  0  0  0  0  0  0  0  0  0
   13.0006   -0.7076   22.3714 H   0  0  0  0  0  0  0  0  0  0  0  0
   13.3880    0.5205   23.6681 H   0  0  0  0  0  0  0  0  0  0  0  0
   12.2058   -0.8746   25.3718 H   0  0  0  0  0  0  0  0  0  0  0  0
   11.4353   -3.2223   24.7469 H   0  0  0  0  0  0  0  0  0  0  0  0
   11.9029   -2.9224   23.0624 H   0  0  0  0  0  0  0  0  0  0  0  0
   10.1551   -2.2665   21.7055 H   0  0  0  0  0  0  0  0  0  0  0  0
   10.6937   -0.6645   22.2239 H   0  0  0  0  0  0  0  0  0  0  0  0
    8.4668   -0.1419   23.0651 H   0  0  0  0  0  0  0  0  0  0  0  0
    8.6149    0.6552   20.8640 H   0  0  0  0  0  0  0  0  0  0  0  0
    8.7890   -0.9754   20.1770 H   0  0  0  0  0  0  0  0  0  0  0  0
    6.9153   -1.9988   24.0747 C   0  0  0  0  0  0  0  0  0  0  0  0
    6.8806   -0.8336   24.8491 C   0  0  0  0  0  0  0  0  0  0  0  0
    6.4098   -0.8680   26.1481 C   0  0  0  0  0  0  0  0  0  0  0  0
    6.3470    0.6126   27.0607 Cl  0  0  0  0  0  0  0  0  0  0  0  0
    5.9858   -2.0559   26.7456 C   0  0  0  0  0  0  0  0  0  0  0  0
    5.9861   -3.2053   25.9817 C   0  0  0  0  0  0  0  0  0  0  0  0
    6.4025   -3.1719   24.6534 C   0  0  0  0  0  0  0  0  0  0  0  0
    6.2041   -4.3986   23.8373 C   0  0  0  0  0  0  0  0  0  0  0  0
    5.5946   -5.3850   24.2591 O   0  0  0  0  0  0  0  0  0  0  0  0
    5.6391   -4.1524   26.3822 H   0  0  0  0  0  0  0  0  0  0  0  0
    5.6475   -2.0696   27.7760 H   0  0  0  0  0  0  0  0  0  0  0  0
    7.2135    0.1194   24.4555 H   0  0  0  0  0  0  0  0  0  0  0  0
    8.7024   -3.6962   22.8012 H   0  0  0  0  0  0  0  0  0  0  0  0
    7.9933   -3.4827   21.1942 H   0  0  0  0  0  0  0  0  0  0  0  0
    5.1605   -5.5404   21.8515 H   0  0  0  0  0  0  0  0  0  0  0  0
    6.2139   -4.8247   20.6182 H   0  0  0  0  0  0  0  0  0  0  0  0
    6.2368   -7.0124   23.4115 H   0  0  0  0  0  0  0  0  0  0  0  0
    7.3825   -9.1799   23.5855 H   0  0  0  0  0  0  0  0  0  0  0  0
    8.6447   -7.9104   23.6499 H   0  0  0  0  0  0  0  0  0  0  0  0
    8.3095   -8.7337   22.1367 H   0  0  0  0  0  0  0  0  0  0  0  0
  1  2  1  0
  2  3  1  0
  3  4  2  0
  3  5  1  0
  5  6  1  0
  6  7  1  0
  8  7  1  6
  8  9  1  0
  9 10  2  0
  9 11  1  0
 11 12  1  0
 12 13  2  0
 13 14  1  0
 14 15  2  0
 15 16  1  0
 16 17  2  0
 17 18  1  0
 18 19  2  0
 19 20  1  0
 20 21  2  0
 20 22  1  0
 19 23  1  0
 18 24  1  0
 17 25  1  0
 15 26  1  0
 13 27  1  0
 11 28  1  0
 28 29  1  0
 29 30  1  0
 30 31  1  0
 31 32  1  0
 32 33  1  0
 33 34  1  0
 34 35  1  0
 35 36  1  0
 35 37  1  0
 34 38  1  0
 34 39  1  0
 33 40  1  0
 32 41  1  0
 32 42  1  0
 30 43  1  0
 30 44  1  0
 29 45  1  1
 28 46  1  0
 28 47  1  0
  8 48  1  0
 48 49  2  0
 49 50  1  0
 50 51  1  0
 50 52  2  0
 52 53  1  0
 53 54  2  0
 54 55  1  0
 55 56  2  0
 53 57  1  0
 52 58  1  0
 49 59  1  0
  7 60  1  0
  7 61  1  0
  5 62  1  0
  5 63  1  0
  2 64  1  0
  1 65  1  0
  1 66  1  0
  1 67  1  0
 55  6  1  0
 29  8  1  0
 35 33  1  0
 54 48  1  0
 21 12  1  0
 21 16  1  0
M  END
>  <cnnaffinities>  (14) 
[7.24857, 7.36617, 7.32503]

>  <score>  (14) 
7.24857

>  <index>  (14) 
13

>  <Smiles>  (14) 
C(N(C(=O)C(N1C([C@@]2(C(=O)N(c3c(nc(c4c(c(c(c(c34)[H])[H])[H])[H])[H])[H])C([C@@]2(C(OC(C2(C(C2([H])[H])([H])[H])[H])([H])[H])([H])[H])[H])([H])[H])c2c(c(Cl)c(c(c2C1=O)[H])[H])[H])([H])[H])([H])[H])[H])([H])([H])[H]

>  <h>  (14) 
<NA>

>  <Training>  (14) 
True

>  <Success>  (14) 
True

>  <enamine_searched>  (14) 
False

>  <enamine_id>  (14) 
nan

$$$$

     RDKit          3D

 67 73  0  0  0  0  0  0  0  0999 V2000
    7.3735   -2.3921   23.9190 C   0  0  0  0  0  0  0  0  0  0  0  0
    7.7207   -1.7472   22.5807 C   0  0  1  0  0  0  0  0  0  0  0  0
    6.5105   -1.5323   21.6588 C   0  0  0  0  0  0  0  0  0  0  0  0
    6.9099   -0.4133   20.8272 N   0  0  0  0  0  0  0  0  0  0  0  0
    6.1339    0.1044   19.7582 C   0  0  0  0  0  0  0  0  0  0  0  0
    6.4544   -0.2139   18.4635 C   0  0  0  0  0  0  0  0  0  0  0  0
    5.7747    0.2251   17.3750 N   0  0  0  0  0  0  0  0  0  0  0  0
    4.7527    1.0209   17.5871 C   0  0  0  0  0  0  0  0  0  0  0  0
    4.3049    1.4263   18.8786 C   0  0  0  0  0  0  0  0  0  0  0  0
    3.1819    2.2780   19.0558 C   0  0  0  0  0  0  0  0  0  0  0  0
    2.7683    2.6316   20.3117 C   0  0  0  0  0  0  0  0  0  0  0  0
    3.4605    2.1583   21.4469 C   0  0  0  0  0  0  0  0  0  0  0  0
    4.5626    1.3492   21.3040 C   0  0  0  0  0  0  0  0  0  0  0  0
    5.0102    0.9534   20.0107 C   0  0  0  0  0  0  0  0  0  0  0  0
    5.0930    1.0072   22.1873 H   0  0  0  0  0  0  0  0  0  0  0  0
    3.1235    2.4435   22.4402 H   0  0  0  0  0  0  0  0  0  0  0  0
    1.9139    3.2921   20.4417 H   0  0  0  0  0  0  0  0  0  0  0  0
    2.6654    2.6371   18.1710 H   0  0  0  0  0  0  0  0  0  0  0  0
    4.2104    1.3828   16.7122 H   0  0  0  0  0  0  0  0  0  0  0  0
    7.3072   -0.8605   18.2664 H   0  0  0  0  0  0  0  0  0  0  0  0
    8.0218    0.2534   21.2806 C   0  0  0  0  0  0  0  0  0  0  0  0
    8.5572    1.1778   20.6960 O   0  0  0  0  0  0  0  0  0  0  0  0
    8.4489   -0.3682   22.6273 C   0  0  1  0  0  0  0  0  0  0  0  0
    8.0089    0.4946   23.8260 C   0  0  0  0  0  0  0  0  0  0  0  0
    8.7112    1.7596   23.8877 N   0  0  0  0  0  0  0  0  0  0  0  0
    7.9610    2.9926   24.0364 C   0  0  0  0  0  0  0  0  0  0  0  0
    7.6960    3.6519   22.6827 C   0  0  0  0  0  0  0  0  0  0  0  0
    6.9445    4.9323   22.8244 N   0  0  2  0  0  4  0  0  0  0  0  0
    5.4617    4.7686   23.2115 C   0  0  0  0  0  0  0  0  0  0  0  0
    4.7389    5.5022   22.0735 C   0  0  2  0  0  0  0  0  0  0  0  0
    5.5931    5.1308   20.8625 C   0  0  0  0  0  0  0  0  0  0  0  0
    6.8465    5.7174   21.5207 C   0  0  1  0  0  0  0  0  0  0  0  0
    6.3393    7.1127   21.8656 C   0  0  0  0  0  0  0  0  0  0  0  0
    4.9636    6.9069   22.2238 O   0  0  0  0  0  0  0  0  0  0  0  0
    6.8861    7.5554   22.7078 H   0  0  0  0  0  0  0  0  0  0  0  0
    6.3954    7.7854   21.0002 H   0  0  0  0  0  0  0  0  0  0  0  0
    7.7909    5.6814   20.9878 H   0  0  0  0  0  0  0  0  0  0  0  0
    5.6205    4.0532   20.6615 H   0  0  0  0  0  0  0  0  0  0  0  0
    5.3032    5.6778   19.9684 H   0  0  0  0  0  0  0  0  0  0  0  0
    3.6649    5.3357   22.0232 H   0  0  0  0  0  0  0  0  0  0  0  0
    5.2128    3.7048   23.2229 H   0  0  0  0  0  0  0  0  0  0  0  0
    5.2841    5.2141   24.1879 H   0  0  0  0  0  0  0  0  0  0  0  0
    7.4459    5.4941   23.5348 H   0  0  0  0  0  0  0  0  0  0  0  0
    8.6491    3.8493   22.1798 H   0  0  0  0  0  0  0  0  0  0  0  0
    7.1376    2.9636   22.0384 H   0  0  0  0  0  0  0  0  0  0  0  0
    8.5353    3.6582   24.6865 H   0  0  0  0  0  0  0  0  0  0  0  0
    7.0175    2.7333   24.5312 H   0  0  0  0  0  0  0  0  0  0  0  0
   10.0720    1.8255   23.7851 C   0  0  0  0  0  0  0  0  0  0  0  0
   10.7113    2.8250   24.0864 O   0  0  0  0  0  0  0  0  0  0  0  0
   10.7332    0.5950   23.2324 C   0  0  0  0  0  0  0  0  0  0  0  0
   12.1279    0.5156   23.1854 C   0  0  0  0  0  0  0  0  0  0  0  0
   12.7294   -0.5295   22.5031 C   0  0  0  0  0  0  0  0  0  0  0  0
   11.9346   -1.4652   21.8175 C   0  0  0  0  0  0  0  0  0  0  0  0
   12.4441   -2.6995   20.6678 Cl  0  0  0  0  0  0  0  0  0  0  0  0
   10.5682   -1.4280   21.9340 C   0  0  0  0  0  0  0  0  0  0  0  0
    9.9510   -0.4249   22.6691 C   0  0  0  0  0  0  0  0  0  0  0  0
   10.0344   -2.1981   21.3904 H   0  0  0  0  0  0  0  0  0  0  0  0
   13.8069   -0.5699   22.5151 H   0  0  0  0  0  0  0  0  0  0  0  0
   12.7301    1.3047   23.6454 H   0  0  0  0  0  0  0  0  0  0  0  0
    6.9373    0.6954   23.7714 H   0  0  0  0  0  0  0  0  0  0  0  0
    8.2095   -0.0753   24.7418 H   0  0  0  0  0  0  0  0  0  0  0  0
    6.3018   -2.4128   21.0408 H   0  0  0  0  0  0  0  0  0  0  0  0
    5.6084   -1.3034   22.2424 H   0  0  0  0  0  0  0  0  0  0  0  0
    8.3827   -2.4383   22.0572 H   0  0  0  0  0  0  0  0  0  0  0  0
    8.2583   -2.5063   24.5568 H   0  0  0  0  0  0  0  0  0  0  0  0
    6.9475   -3.3900   23.7692 H   0  0  0  0  0  0  0  0  0  0  0  0
    6.6344   -1.7940   24.4633 H   0  0  0  0  0  0  0  0  0  0  0  0
  1  2  1  0
  2  3  1  0
  3  4  1  0
  4  5  1  0
  5  6  2  0
  6  7  1  0
  7  8  2  0
  8  9  1  0
  9 10  2  0
 10 11  1  0
 11 12  2  0
 12 13  1  0
 13 14  2  0
 13 15  1  0
 12 16  1  0
 11 17  1  0
 10 18  1  0
  8 19  1  0
  6 20  1  0
  4 21  1  0
 21 22  2  0
 21 23  1  0
 23 24  1  1
 24 25  1  0
 25 26  1  0
 26 27  1  0
 27 28  1  0
 28 29  1  0
 29 30  1  0
 30 31  1  0
 31 32  1  0
 32 33  1  0
 33 34  1  0
 33 35  1  0
 33 36  1  0
 32 37  1  6
 31 38  1  0
 31 39  1  0
 30 40  1  6
 29 41  1  0
 29 42  1  0
 28 43  1  1
 27 44  1  0
 27 45  1  0
 26 46  1  0
 26 47  1  0
 25 48  1  0
 48 49  2  0
 48 50  1  0
 50 51  2  0
 51 52  1  0
 52 53  2  0
 53 54  1  0
 53 55  1  0
 55 56  2  0
 55 57  1  0
 52 58  1  0
 51 59  1  0
 24 60  1  0
 24 61  1  0
  3 62  1  0
  3 63  1  0
  2 64  1  6
  1 65  1  0
  1 66  1  0
  1 67  1  0
 23  2  1  0
 32 28  1  0
 56 50  1  0
 14  5  1  0
 56 23  1  0
 14  9  1  0
 34 30  1  0
M  CHG  1  28   1
M  END
>  <cnnaffinities>  (15) 
[6.60383]

>  <score>  (15) 
6.60383

>  <index>  (15) 
14

>  <Smiles>  (15) 
C([C@]1(C(N(c2c(nc(c3c(c(c(c(c23)[H])[H])[H])[H])[H])[H])C(=O)[C@]21C(N(C(C([N@@+]1(C([C@@]3(C([C@]1(C(O3)([H])[H])[H])([H])[H])[H])([H])[H])[H])([H])[H])([H])[H])C(=O)c1c(c(c(Cl)c(c21)[H])[H])[H])([H])[H])([H])[H])[H])([H])([H])[H]

>  <h>  (15) 
<NA>

>  <Training>  (15) 
True

>  <Success>  (15) 
True

>  <enamine_searched>  (15) 
False

>  <enamine_id>  (15) 
nan

$$$$

     RDKit          3D

 72 77  0  0  0  0  0  0  0  0999 V2000
    6.9399    7.7563   21.5463 C   0  0  0  0  0  0  0  0  0  0  0  0
    5.9537    6.6055   21.4643 C   0  0  1  0  0  0  0  0  0  0  0  0
    6.6876    5.2580   21.3898 C   0  0  0  0  0  0  0  0  0  0  0  0
    6.9139    4.6874   22.7401 N   0  0  2  0  0  4  0  0  0  0  0  0
    7.6219    3.3972   22.6434 C   0  0  0  0  0  0  0  0  0  0  0  0
    8.0464    2.8848   24.0083 C   0  0  0  0  0  0  0  0  0  0  0  0
    8.7703    1.6366   23.8880 N   0  0  0  0  0  0  0  0  0  0  0  0
    8.0648    0.3706   23.7849 C   0  0  0  0  0  0  0  0  0  0  0  0
    8.4821   -0.4563   22.5316 C   0  0  2  0  0  0  0  0  0  0  0  0
    8.0199    0.1899   21.2107 C   0  0  0  0  0  0  0  0  0  0  0  0
    8.5725    1.0864   20.5999 O   0  0  0  0  0  0  0  0  0  0  0  0
    6.8730   -0.4406   20.7977 N   0  0  0  0  0  0  0  0  0  0  0  0
    6.1186    0.0844   19.7260 C   0  0  0  0  0  0  0  0  0  0  0  0
    6.4575   -0.2111   18.4314 C   0  0  0  0  0  0  0  0  0  0  0  0
    5.7735    0.2294   17.3468 N   0  0  0  0  0  0  0  0  0  0  0  0
    4.7470    1.0169   17.5663 C   0  0  0  0  0  0  0  0  0  0  0  0
    4.3083    1.4220   18.8609 C   0  0  0  0  0  0  0  0  0  0  0  0
    3.2084    2.3006   19.0448 C   0  0  0  0  0  0  0  0  0  0  0  0
    2.8127    2.6624   20.3037 C   0  0  0  0  0  0  0  0  0  0  0  0
    3.4975    2.1713   21.4378 C   0  0  0  0  0  0  0  0  0  0  0  0
    4.5762    1.3323   21.2890 C   0  0  0  0  0  0  0  0  0  0  0  0
    5.0049    0.9346   19.9879 C   0  0  0  0  0  0  0  0  0  0  0  0
    5.1132    0.9918   22.1692 H   0  0  0  0  0  0  0  0  0  0  0  0
    3.1708    2.4670   22.4319 H   0  0  0  0  0  0  0  0  0  0  0  0
    1.9719    3.3378   20.4390 H   0  0  0  0  0  0  0  0  0  0  0  0
    2.7039    2.6789   18.1603 H   0  0  0  0  0  0  0  0  0  0  0  0
    4.2005    1.3787   16.6944 H   0  0  0  0  0  0  0  0  0  0  0  0
    7.3222   -0.8406   18.2343 H   0  0  0  0  0  0  0  0  0  0  0  0
    6.4480   -1.5184   21.6697 C   0  0  0  0  0  0  0  0  0  0  0  0
    7.7385   -1.8155   22.4445 C   0  0  2  0  0  0  0  0  0  0  0  0
    7.5593   -2.5719   23.7487 C   0  0  0  0  0  0  0  0  0  0  0  0
    7.0954   -3.5472   23.5726 H   0  0  0  0  0  0  0  0  0  0  0  0
    8.5292   -2.7299   24.2327 H   0  0  0  0  0  0  0  0  0  0  0  0
    6.9206   -2.0195   24.4458 H   0  0  0  0  0  0  0  0  0  0  0  0
    8.3318   -2.4303   21.7662 H   0  0  0  0  0  0  0  0  0  0  0  0
    5.6233   -1.2165   22.3313 H   0  0  0  0  0  0  0  0  0  0  0  0
    6.1024   -2.3818   21.0916 H   0  0  0  0  0  0  0  0  0  0  0  0
    9.9857   -0.5148   22.4954 C   0  0  0  0  0  0  0  0  0  0  0  0
   10.6278   -1.4585   21.6955 C   0  0  0  0  0  0  0  0  0  0  0  0
   11.9706   -1.3394   21.4239 C   0  0  0  0  0  0  0  0  0  0  0  0
   12.5460   -2.4156   20.1743 Cl  0  0  0  0  0  0  0  0  0  0  0  0
   12.7565   -0.3689   22.0660 C   0  0  0  0  0  0  0  0  0  0  0  0
   12.1356    0.5262   22.9074 C   0  0  0  0  0  0  0  0  0  0  0  0
   10.7513    0.5168   23.0545 C   0  0  0  0  0  0  0  0  0  0  0  0
   10.1132    1.7212   23.6831 C   0  0  0  0  0  0  0  0  0  0  0  0
   10.7577    2.7329   23.9400 O   0  0  0  0  0  0  0  0  0  0  0  0
   12.7056    1.2789   23.4440 H   0  0  0  0  0  0  0  0  0  0  0  0
   13.8209   -0.2679   21.8947 H   0  0  0  0  0  0  0  0  0  0  0  0
   10.1151   -2.2923   21.2298 H   0  0  0  0  0  0  0  0  0  0  0  0
    8.2876   -0.2270   24.6816 H   0  0  0  0  0  0  0  0  0  0  0  0
    6.9858    0.5635   23.7793 H   0  0  0  0  0  0  0  0  0  0  0  0
    8.7231    3.6068   24.4686 H   0  0  0  0  0  0  0  0  0  0  0  0
    7.1897    2.7382   24.6711 H   0  0  0  0  0  0  0  0  0  0  0  0
    8.5098    3.5157   22.0165 H   0  0  0  0  0  0  0  0  0  0  0  0
    6.9694    2.6686   22.1514 H   0  0  0  0  0  0  0  0  0  0  0  0
    5.6594    4.6069   23.6103 C   0  0  1  0  0  0  0  0  0  0  0  0
    5.9844    5.1348   25.0100 C   0  0  0  0  0  0  0  0  0  0  0  0
    5.1320    5.0156   25.6842 H   0  0  0  0  0  0  0  0  0  0  0  0
    6.2398    6.1968   24.9413 H   0  0  0  0  0  0  0  0  0  0  0  0
    6.8406    4.6171   25.4510 H   0  0  0  0  0  0  0  0  0  0  0  0
    4.5668    5.4237   22.9352 C   0  0  0  0  0  0  0  0  0  0  0  0
    5.0885    6.6853   22.5896 O   0  0  0  0  0  0  0  0  0  0  0  0
    3.7359    5.5871   23.6268 H   0  0  0  0  0  0  0  0  0  0  0  0
    4.1789    4.8981   22.0490 H   0  0  0  0  0  0  0  0  0  0  0  0
    5.3533    3.5548   23.6460 H   0  0  0  0  0  0  0  0  0  0  0  0
    7.5558    5.3437   23.2230 H   0  0  0  0  0  0  0  0  0  0  0  0
    7.6580    5.4140   20.9138 H   0  0  0  0  0  0  0  0  0  0  0  0
    6.1400    4.5323   20.7743 H   0  0  0  0  0  0  0  0  0  0  0  0
    5.3526    6.7067   20.5443 H   0  0  0  0  0  0  0  0  0  0  0  0
    6.4402    8.7283   21.5538 H   0  0  0  0  0  0  0  0  0  0  0  0
    7.5618    7.6730   22.4464 H   0  0  0  0  0  0  0  0  0  0  0  0
    7.5904    7.6971   20.6717 H   0  0  0  0  0  0  0  0  0  0  0  0
  1  2  1  0
  2  3  1  0
  3  4  1  0
  4  5  1  0
  5  6  1  0
  6  7  1  0
  7  8  1  0
  9  8  1  1
  9 10  1  0
 10 11  2  0
 10 12  1  0
 12 13  1  0
 13 14  2  0
 14 15  1  0
 15 16  2  0
 16 17  1  0
 17 18  2  0
 18 19  1  0
 19 20  2  0
 20 21  1  0
 21 22  2  0
 21 23  1  0
 20 24  1  0
 19 25  1  0
 18 26  1  0
 16 27  1  0
 14 28  1  0
 12 29  1  0
 29 30  1  0
 30 31  1  0
 31 32  1  0
 31 33  1  0
 31 34  1  0
 30 35  1  6
 29 36  1  0
 29 37  1  0
  9 38  1  0
 38 39  2  0
 39 40  1  0
 40 41  1  0
 40 42  2  0
 42 43  1  0
 43 44  2  0
 44 45  1  0
 45 46  2  0
 43 47  1  0
 42 48  1  0
 39 49  1  0
  8 50  1  0
  8 51  1  0
  6 52  1  0
  6 53  1  0
  5 54  1  0
  5 55  1  0
  4 56  1  0
 56 57  1  0
 57 58  1  0
 57 59  1  0
 57 60  1  0
 56 61  1  0
 61 62  1  0
 61 63  1  0
 61 64  1  0
 56 65  1  1
  4 66  1  1
  3 67  1  0
  3 68  1  0
  2 69  1  6
  1 70  1  0
  1 71  1  0
  1 72  1  0
 62  2  1  0
 45  7  1  0
 30  9  1  0
 44 38  1  0
 22 13  1  0
 22 17  1  0
M  CHG  1   4   1
M  END
>  <cnnaffinities>  (16) 
[6.77393]

>  <score>  (16) 
6.77393

>  <index>  (16) 
15

>  <Smiles>  (16) 
C([C@]1(C([N@+](C(C(N2C([C@@]3(C(=O)N(c4c(nc(c5c(c(c(c(c45)[H])[H])[H])[H])[H])[H])C([C@@]3(C([H])([H])[H])[H])([H])[H])c3c(c(Cl)c(c(c3C2=O)[H])[H])[H])([H])[H])([H])[H])([H])[H])([C@@](C([H])([H])[H])(C(O1)([H])[H])[H])[H])([H])[H])[H])([H])([H])[H]

>  <h>  (16) 
<NA>

>  <Training>  (16) 
True

>  <Success>  (16) 
True

>  <enamine_searched>  (16) 
False

>  <enamine_id>  (16) 
nan

$$$$

     RDKit          3D

 47 50  0  0  0  0  0  0  0  0999 V2000
    7.1252   -4.7462   25.2880 C   0  0  0  0  0  0  0  0  0  0  0  0
    6.6082   -3.3789   24.8584 C   0  0  1  0  0  0  0  0  0  0  0  0
    7.6750   -2.2833   24.9349 C   0  0  0  0  0  0  0  0  0  0  0  0
    7.3649   -1.2924   23.7998 C   0  0  2  0  0  0  0  0  0  0  0  0
    6.6573   -0.0454   24.2969 C   0  0  0  0  0  0  0  0  0  0  0  0
    7.3501    1.1607   24.3873 C   0  0  0  0  0  0  0  0  0  0  0  0
    6.7193    2.3094   24.8527 C   0  0  0  0  0  0  0  0  0  0  0  0
    5.3872    2.2592   25.2519 C   0  0  0  0  0  0  0  0  0  0  0  0
    4.6991    1.0501   25.1978 C   0  0  0  0  0  0  0  0  0  0  0  0
    5.3321   -0.0931   24.7291 C   0  0  0  0  0  0  0  0  0  0  0  0
    4.7794   -1.0276   24.6998 H   0  0  0  0  0  0  0  0  0  0  0  0
    3.6608    0.9981   25.5111 H   0  0  0  0  0  0  0  0  0  0  0  0
    4.8877    3.1560   25.6021 H   0  0  0  0  0  0  0  0  0  0  0  0
    7.2672    3.2449   24.8883 H   0  0  0  0  0  0  0  0  0  0  0  0
    8.3928    1.2013   24.0794 H   0  0  0  0  0  0  0  0  0  0  0  0
    6.5629   -2.0650   22.8602 N   0  0  0  0  0  0  0  0  0  0  0  0
    6.2346   -1.7221   21.5765 C   0  0  0  0  0  0  0  0  0  0  0  0
    5.4462   -2.4006   20.9325 O   0  0  0  0  0  0  0  0  0  0  0  0
    6.9119   -0.4910   20.9233 C   0  0  0  0  0  0  0  0  0  0  0  0
    6.1133    0.0839   19.7724 C   0  0  0  0  0  0  0  0  0  0  0  0
    6.4212   -0.2161   18.4697 C   0  0  0  0  0  0  0  0  0  0  0  0
    5.7574    0.2341   17.3669 N   0  0  0  0  0  0  0  0  0  0  0  0
    4.7378    1.0303   17.5757 C   0  0  0  0  0  0  0  0  0  0  0  0
    4.2868    1.4232   18.8676 C   0  0  0  0  0  0  0  0  0  0  0  0
    3.1667    2.2758   19.0447 C   0  0  0  0  0  0  0  0  0  0  0  0
    2.7520    2.6291   20.2977 C   0  0  0  0  0  0  0  0  0  0  0  0
    3.4464    2.1372   21.4297 C   0  0  0  0  0  0  0  0  0  0  0  0
    4.5336    1.3114   21.2936 C   0  0  0  0  0  0  0  0  0  0  0  0
    4.9889    0.9357   20.0014 C   0  0  0  0  0  0  0  0  0  0  0  0
    5.0488    0.9483   22.1839 H   0  0  0  0  0  0  0  0  0  0  0  0
    3.1118    2.4272   22.4198 H   0  0  0  0  0  0  0  0  0  0  0  0
    1.8965    3.2863   20.4380 H   0  0  0  0  0  0  0  0  0  0  0  0
    2.6473    2.6466   18.1617 H   0  0  0  0  0  0  0  0  0  0  0  0
    4.2016    1.3992   16.6968 H   0  0  0  0  0  0  0  0  0  0  0  0
    7.2658   -0.8665   18.2454 H   0  0  0  0  0  0  0  0  0  0  0  0
    7.8745   -0.8360   20.5203 H   0  0  0  0  0  0  0  0  0  0  0  0
    7.1528    0.2916   21.6540 H   0  0  0  0  0  0  0  0  0  0  0  0
    6.1057   -3.3376   23.4111 C   0  0  0  0  0  0  0  0  0  0  0  0
    6.5193   -4.1591   22.8212 H   0  0  0  0  0  0  0  0  0  0  0  0
    5.0179   -3.4442   23.3476 H   0  0  0  0  0  0  0  0  0  0  0  0
    8.2982   -0.9943   23.3153 H   0  0  0  0  0  0  0  0  0  0  0  0
    8.6695   -2.7186   24.8036 H   0  0  0  0  0  0  0  0  0  0  0  0
    7.6901   -1.7966   25.9114 H   0  0  0  0  0  0  0  0  0  0  0  0
    5.7860   -3.1127   25.5295 H   0  0  0  0  0  0  0  0  0  0  0  0
    7.4980   -4.7437   26.3176 H   0  0  0  0  0  0  0  0  0  0  0  0
    7.9587   -5.0576   24.6522 H   0  0  0  0  0  0  0  0  0  0  0  0
    6.3541   -5.5183   25.2188 H   0  0  0  0  0  0  0  0  0  0  0  0
  1  2  1  0
  2  3  1  0
  3  4  1  0
  4  5  1  0
  5  6  2  0
  6  7  1  0
  7  8  2  0
  8  9  1  0
  9 10  2  0
 10 11  1  0
  9 12  1  0
  8 13  1  0
  7 14  1  0
  6 15  1  0
  4 16  1  0
 16 17  1  0
 17 18  2  0
 17 19  1  0
 19 20  1  0
 20 21  2  0
 21 22  1  0
 22 23  2  0
 23 24  1  0
 24 25  2  0
 25 26  1  0
 26 27  2  0
 27 28  1  0
 28 29  2  0
 28 30  1  0
 27 31  1  0
 26 32  1  0
 25 33  1  0
 23 34  1  0
 21 35  1  0
 19 36  1  0
 19 37  1  0
 16 38  1  0
 38 39  1  0
 38 40  1  0
  4 41  1  6
  3 42  1  0
  3 43  1  0
  2 44  1  1
  1 45  1  0
  1 46  1  0
  1 47  1  0
 38  2  1  0
 10  5  1  0
 29 20  1  0
 29 24  1  0
M  END
>  <cnnaffinities>  (17) 
[5.69569, 5.2641, 5.62453]

>  <score>  (17) 
5.69569

>  <index>  (17) 
16

>  <Smiles>  (17) 
C([C@]1(C([C@](c2c(c(c(c(c2[H])[H])[H])[H])[H])(N(C(=O)C(c2c(nc(c3c(c(c(c(c23)[H])[H])[H])[H])[H])[H])([H])[H])C1([H])[H])[H])([H])[H])[H])([H])([H])[H]

>  <h>  (17) 
<NA>

>  <Training>  (17) 
True

>  <Success>  (17) 
True

>  <enamine_searched>  (17) 
False

>  <enamine_id>  (17) 
nan

$$$$

     RDKit          3D

 58 63  0  0  0  0  0  0  0  0999 V2000
    7.6388   -2.9460   23.3951 C   0  0  0  0  0  0  0  0  0  0  0  0
    7.8910   -1.8911   22.3226 C   0  0  1  0  0  0  0  0  0  0  0  0
    6.7626   -1.7958   21.2843 C   0  0  0  0  0  0  0  0  0  0  0  0
    6.8811   -0.4331   20.8091 N   0  0  0  0  0  0  0  0  0  0  0  0
    6.1172    0.0870   19.7498 C   0  0  0  0  0  0  0  0  0  0  0  0
    6.4291   -0.2512   18.4593 C   0  0  0  0  0  0  0  0  0  0  0  0
    5.7614    0.2005   17.3738 N   0  0  0  0  0  0  0  0  0  0  0  0
    4.7536    1.0127   17.5935 C   0  0  0  0  0  0  0  0  0  0  0  0
    4.3103    1.4135   18.8851 C   0  0  0  0  0  0  0  0  0  0  0  0
    3.1972    2.2753   19.0606 C   0  0  0  0  0  0  0  0  0  0  0  0
    2.7653    2.6108   20.3130 C   0  0  0  0  0  0  0  0  0  0  0  0
    3.4273    2.1012   21.4559 C   0  0  0  0  0  0  0  0  0  0  0  0
    4.5100    1.2719   21.3105 C   0  0  0  0  0  0  0  0  0  0  0  0
    4.9943    0.9267   20.0152 C   0  0  0  0  0  0  0  0  0  0  0  0
    5.0099    0.8782   22.1920 H   0  0  0  0  0  0  0  0  0  0  0  0
    3.0833    2.3682   22.4508 H   0  0  0  0  0  0  0  0  0  0  0  0
    1.9064    3.2653   20.4332 H   0  0  0  0  0  0  0  0  0  0  0  0
    2.7048    2.6521   18.1683 H   0  0  0  0  0  0  0  0  0  0  0  0
    4.2276    1.3897   16.7184 H   0  0  0  0  0  0  0  0  0  0  0  0
    7.2725   -0.9134   18.2679 H   0  0  0  0  0  0  0  0  0  0  0  0
    7.5617    0.4019   21.6577 C   0  0  0  0  0  0  0  0  0  0  0  0
    7.6784    1.5999   21.4931 O   0  0  0  0  0  0  0  0  0  0  0  0
    8.1070   -0.4346   22.8297 C   0  0  1  0  0  0  0  0  0  0  0  0
    7.2874   -0.1343   24.1221 C   0  0  0  0  0  0  0  0  0  0  0  0
    7.4800    1.2238   24.5992 N   0  0  0  0  0  0  0  0  0  0  0  0
    6.3334    2.1202   24.6401 C   0  0  0  0  0  0  0  0  0  0  0  0
    5.2004    1.5708   25.4302 C   0  0  0  0  0  0  0  0  0  0  0  0
    4.0158    1.2825   24.9502 N   0  0  0  0  0  0  0  0  0  0  0  0
    3.2288    0.8936   25.9998 N   0  0  0  0  0  0  0  0  0  0  0  0
    3.9656    0.9490   27.0736 C   0  0  0  0  0  0  0  0  0  0  0  0
    5.2356    1.3490   26.7783 N   0  0  0  0  0  0  0  0  0  0  0  0
    6.3736    1.4749   27.6750 C   0  0  0  0  0  0  0  0  0  0  0  0
    6.9504    2.3683   27.4006 H   0  0  0  0  0  0  0  0  0  0  0  0
    6.0280    1.5869   28.7128 H   0  0  0  0  0  0  0  0  0  0  0  0
    7.0030    0.5865   27.5905 H   0  0  0  0  0  0  0  0  0  0  0  0
    3.6187    0.7667   28.0810 H   0  0  0  0  0  0  0  0  0  0  0  0
    6.6817    3.0695   25.0536 H   0  0  0  0  0  0  0  0  0  0  0  0
    5.9874    2.3303   23.6201 H   0  0  0  0  0  0  0  0  0  0  0  0
    8.7220    1.7877   24.6305 C   0  0  0  0  0  0  0  0  0  0  0  0
    8.9098    2.9021   25.1025 O   0  0  0  0  0  0  0  0  0  0  0  0
    9.8239    0.9602   24.0144 C   0  0  0  0  0  0  0  0  0  0  0  0
   11.1476    1.2837   24.3013 C   0  0  0  0  0  0  0  0  0  0  0  0
   12.1827    0.8078   23.5199 C   0  0  0  0  0  0  0  0  0  0  0  0
   11.8636   -0.0106   22.4402 C   0  0  0  0  0  0  0  0  0  0  0  0
   12.8341   -0.3641   21.5859 F   0  0  0  0  0  0  0  0  0  0  0  0
   10.5761   -0.4542   22.2122 C   0  0  0  0  0  0  0  0  0  0  0  0
    9.5434   -0.0235   23.0579 C   0  0  0  0  0  0  0  0  0  0  0  0
   10.4109   -1.1211   21.3706 H   0  0  0  0  0  0  0  0  0  0  0  0
   13.2180    1.0725   23.6987 H   0  0  0  0  0  0  0  0  0  0  0  0
   11.3215    1.9516   25.1283 H   0  0  0  0  0  0  0  0  0  0  0  0
    6.2167   -0.2525   23.9312 H   0  0  0  0  0  0  0  0  0  0  0  0
    7.5955   -0.8272   24.9207 H   0  0  0  0  0  0  0  0  0  0  0  0
    6.8841   -2.4987   20.4574 H   0  0  0  0  0  0  0  0  0  0  0  0
    5.7732   -1.9924   21.7297 H   0  0  0  0  0  0  0  0  0  0  0  0
    8.7989   -2.1663   21.7774 H   0  0  0  0  0  0  0  0  0  0  0  0
    7.5677   -3.9457   22.9519 H   0  0  0  0  0  0  0  0  0  0  0  0
    6.7025   -2.7501   23.9325 H   0  0  0  0  0  0  0  0  0  0  0  0
    8.4481   -2.9495   24.1333 H   0  0  0  0  0  0  0  0  0  0  0  0
  1  2  1  0
  2  3  1  0
  3  4  1  0
  4  5  1  0
  5  6  2  0
  6  7  1  0
  7  8  2  0
  8  9  1  0
  9 10  2  0
 10 11  1  0
 11 12  2  0
 12 13  1  0
 13 14  2  0
 13 15  1  0
 12 16  1  0
 11 17  1  0
 10 18  1  0
  8 19  1  0
  6 20  1  0
  4 21  1  0
 21 22  2  0
 21 23  1  0
 23 24  1  1
 24 25  1  0
 25 26  1  0
 26 27  1  0
 27 28  2  0
 28 29  1  0
 29 30  2  0
 30 31  1  0
 31 32  1  0
 32 33  1  0
 32 34  1  0
 32 35  1  0
 30 36  1  0
 26 37  1  0
 26 38  1  0
 25 39  1  0
 39 40  2  0
 39 41  1  0
 41 42  2  0
 42 43  1  0
 43 44  2  0
 44 45  1  0
 44 46  1  0
 46 47  2  0
 46 48  1  0
 43 49  1  0
 42 50  1  0
 24 51  1  0
 24 52  1  0
  3 53  1  0
  3 54  1  0
  2 55  1  6
  1 56  1  0
  1 57  1  0
  1 58  1  0
 23  2  1  0
 31 27  1  0
 47 41  1  0
 14  5  1  0
 47 23  1  0
 14  9  1  0
M  END
>  <cnnaffinities>  (18) 
[6.38428]

>  <score>  (18) 
6.38428

>  <index>  (18) 
17

>  <Smiles>  (18) 
C([C@]1(C(N(c2c(nc(c3c(c(c(c(c23)[H])[H])[H])[H])[H])[H])C(=O)[C@]21C(N(C(c1nnc(n1C([H])([H])[H])[H])([H])[H])C(=O)c1c(c(c(F)c(c21)[H])[H])[H])([H])[H])([H])[H])[H])([H])([H])[H]

>  <h>  (18) 
<NA>

>  <Training>  (18) 
True

>  <Success>  (18) 
True

>  <enamine_searched>  (18) 
False

>  <enamine_id>  (18) 
nan

$$$$

     RDKit          3D

 50 53  0  0  0  0  0  0  0  0999 V2000
    3.9012   -1.8259   29.3979 C   0  0  0  0  0  0  0  0  0  0  0  0
    3.9685   -2.1652   27.9142 C   0  0  1  0  0  0  0  0  0  0  0  0
    4.0183   -0.9049   27.0473 C   0  0  0  0  0  0  0  0  0  0  0  0
    4.1307   -1.2267   25.5522 C   0  0  0  0  0  0  0  0  0  0  0  0
    5.3030   -2.1842   25.2045 C   0  0  2  0  0  0  0  0  0  0  0  0
    6.6632   -1.4661   25.2998 C   0  0  0  0  0  0  0  0  0  0  0  0
    6.9390   -0.8566   23.9158 C   0  0  0  0  0  0  0  0  0  0  0  0
    6.1320   -1.6427   22.9969 N   0  0  0  0  0  0  0  0  0  0  0  0
    6.1506   -1.6272   21.6285 C   0  0  0  0  0  0  0  0  0  0  0  0
    5.5827   -2.4828   20.9665 O   0  0  0  0  0  0  0  0  0  0  0  0
    6.9093   -0.4837   20.9170 C   0  0  0  0  0  0  0  0  0  0  0  0
    6.1140    0.0916   19.7663 C   0  0  0  0  0  0  0  0  0  0  0  0
    6.4220   -0.2145   18.4661 C   0  0  0  0  0  0  0  0  0  0  0  0
    5.7575    0.2345   17.3655 N   0  0  0  0  0  0  0  0  0  0  0  0
    4.7369    1.0306   17.5747 C   0  0  0  0  0  0  0  0  0  0  0  0
    4.2871    1.4246   18.8658 C   0  0  0  0  0  0  0  0  0  0  0  0
    3.1640    2.2749   19.0431 C   0  0  0  0  0  0  0  0  0  0  0  0
    2.7495    2.6260   20.2989 C   0  0  0  0  0  0  0  0  0  0  0  0
    3.4407    2.1403   21.4320 C   0  0  0  0  0  0  0  0  0  0  0  0
    4.5316    1.3194   21.2875 C   0  0  0  0  0  0  0  0  0  0  0  0
    4.9892    0.9413   19.9959 C   0  0  0  0  0  0  0  0  0  0  0  0
    5.0490    0.9573   22.1726 H   0  0  0  0  0  0  0  0  0  0  0  0
    3.1054    2.4265   22.4243 H   0  0  0  0  0  0  0  0  0  0  0  0
    1.8917    3.2800   20.4362 H   0  0  0  0  0  0  0  0  0  0  0  0
    2.6425    2.6444   18.1624 H   0  0  0  0  0  0  0  0  0  0  0  0
    4.1995    1.3997   16.6987 H   0  0  0  0  0  0  0  0  0  0  0  0
    7.2674   -0.8684   18.2488 H   0  0  0  0  0  0  0  0  0  0  0  0
    7.8368   -0.9164   20.5174 H   0  0  0  0  0  0  0  0  0  0  0  0
    7.2114    0.3102   21.6097 H   0  0  0  0  0  0  0  0  0  0  0  0
    5.2958   -2.5897   23.7164 C   0  0  0  0  0  0  0  0  0  0  0  0
    5.6016   -3.6290   23.5550 H   0  0  0  0  0  0  0  0  0  0  0  0
    4.3218   -2.5178   23.2942 H   0  0  0  0  0  0  0  0  0  0  0  0
    7.9928   -0.9464   23.6526 H   0  0  0  0  0  0  0  0  0  0  0  0
    6.6522    0.1999   23.8879 H   0  0  0  0  0  0  0  0  0  0  0  0
    6.6787   -0.6998   26.0750 H   0  0  0  0  0  0  0  0  0  0  0  0
    7.4380   -2.1944   25.5537 H   0  0  0  0  0  0  0  0  0  0  0  0
    5.2187   -3.4253   26.1145 C   0  0  0  0  0  0  0  0  0  0  0  0
    5.1552   -3.0778   27.6005 C   0  0  0  0  0  0  0  0  0  0  0  0
    5.0905   -3.9952   28.1999 H   0  0  0  0  0  0  0  0  0  0  0  0
    6.0882   -2.5820   27.9025 H   0  0  0  0  0  0  0  0  0  0  0  0
    4.3261   -4.0122   25.8488 H   0  0  0  0  0  0  0  0  0  0  0  0
    6.0782   -4.0785   25.9187 H   0  0  0  0  0  0  0  0  0  0  0  0
    3.1819   -1.6875   25.2419 H   0  0  0  0  0  0  0  0  0  0  0  0
    4.2230   -0.2967   24.9762 H   0  0  0  0  0  0  0  0  0  0  0  0
    3.1209   -0.2978   27.2306 H   0  0  0  0  0  0  0  0  0  0  0  0
    4.8658   -0.2816   27.3641 H   0  0  0  0  0  0  0  0  0  0  0  0
    3.0540   -2.7129   27.6467 H   0  0  0  0  0  0  0  0  0  0  0  0
    3.0354   -1.1943   29.6235 H   0  0  0  0  0  0  0  0  0  0  0  0
    3.8333   -2.7321   30.0097 H   0  0  0  0  0  0  0  0  0  0  0  0
    4.8017   -1.2827   29.7073 H   0  0  0  0  0  0  0  0  0  0  0  0
  1  2  1  0
  2  3  1  0
  3  4  1  0
  5  4  1  6
  5  6  1  0
  6  7  1  0
  7  8  1  0
  8  9  1  0
  9 10  2  0
  9 11  1  0
 11 12  1  0
 12 13  2  0
 13 14  1  0
 14 15  2  0
 15 16  1  0
 16 17  2  0
 17 18  1  0
 18 19  2  0
 19 20  1  0
 20 21  2  0
 20 22  1  0
 19 23  1  0
 18 24  1  0
 17 25  1  0
 15 26  1  0
 13 27  1  0
 11 28  1  0
 11 29  1  0
  8 30  1  0
 30 31  1  0
 30 32  1  0
  7 33  1  0
  7 34  1  0
  6 35  1  0
  6 36  1  0
  5 37  1  0
 37 38  1  0
 38 39  1  0
 38 40  1  0
 37 41  1  0
 37 42  1  0
  4 43  1  0
  4 44  1  0
  3 45  1  0
  3 46  1  0
  2 47  1  6
  1 48  1  0
  1 49  1  0
  1 50  1  0
 38  2  1  0
 30  5  1  0
 21 12  1  0
 21 16  1  0
M  END
>  <cnnaffinities>  (19) 
[5.548]

>  <score>  (19) 
5.548

>  <index>  (19) 
18

>  <Smiles>  (19) 
C([C@]1(C(C([C@@]2(C(C(N(C(=O)C(c3c(nc(c4c(c(c(c(c34)[H])[H])[H])[H])[H])[H])([H])[H])C2([H])[H])([H])[H])([H])[H])C(C1([H])[H])([H])[H])([H])[H])([H])[H])[H])([H])([H])[H]

>  <h>  (19) 
<NA>

>  <Training>  (19) 
True

>  <Success>  (19) 
True

>  <enamine_searched>  (19) 
False

>  <enamine_id>  (19) 
nan

$$$$

     RDKit          3D

 67 71  0  0  0  0  0  0  0  0999 V2000
    3.6135   -5.2784   21.8638 O   0  0  0  0  0  0  0  0  0  0  0  0
    4.1778   -5.8510   22.7875 C   0  0  0  0  0  0  0  0  0  0  0  0
    5.6920   -5.7017   22.8774 C   0  0  0  0  0  0  0  0  0  0  0  0
    5.9138   -4.2257   22.7839 N   0  0  1  0  0  4  0  0  0  0  0  0
    5.1994   -3.5985   23.9567 C   0  0  0  0  0  0  0  0  0  0  0  0
    5.5260   -2.1577   24.2427 C   0  0  0  0  0  0  0  0  0  0  0  0
    4.7250   -1.4485   25.1416 C   0  0  0  0  0  0  0  0  0  0  0  0
    5.0710   -0.1689   25.5511 C   0  0  0  0  0  0  0  0  0  0  0  0
    6.2434    0.3959   25.0538 C   0  0  0  0  0  0  0  0  0  0  0  0
    6.7155    1.9911   25.5778 Cl  0  0  0  0  0  0  0  0  0  0  0  0
    7.0233   -0.2776   24.1238 C   0  0  0  0  0  0  0  0  0  0  0  0
    6.6430   -1.5495   23.6859 C   0  0  0  0  0  0  0  0  0  0  0  0
    7.3455   -2.2404   22.5362 C   0  0  2  0  0  0  0  0  0  0  0  0
    6.6242   -1.8630   21.2323 C   0  0  0  0  0  0  0  0  0  0  0  0
    5.9255   -2.6511   20.6126 O   0  0  0  0  0  0  0  0  0  0  0  0
    6.8046   -0.5583   20.8332 N   0  0  0  0  0  0  0  0  0  0  0  0
    6.0895    0.0178   19.7559 C   0  0  0  0  0  0  0  0  0  0  0  0
    6.4345   -0.2719   18.4631 C   0  0  0  0  0  0  0  0  0  0  0  0
    5.7953    0.2180   17.3702 N   0  0  0  0  0  0  0  0  0  0  0  0
    4.7786    1.0209   17.5790 C   0  0  0  0  0  0  0  0  0  0  0  0
    4.3225    1.4170   18.8707 C   0  0  0  0  0  0  0  0  0  0  0  0
    3.2038    2.2710   19.0447 C   0  0  0  0  0  0  0  0  0  0  0  0
    2.7843    2.6112   20.3020 C   0  0  0  0  0  0  0  0  0  0  0  0
    3.4624    2.1177   21.4382 C   0  0  0  0  0  0  0  0  0  0  0  0
    4.5468    1.2874   21.2994 C   0  0  0  0  0  0  0  0  0  0  0  0
    5.0005    0.9164   20.0017 C   0  0  0  0  0  0  0  0  0  0  0  0
    5.0426    0.8973   22.1851 H   0  0  0  0  0  0  0  0  0  0  0  0
    3.1179    2.4024   22.4283 H   0  0  0  0  0  0  0  0  0  0  0  0
    1.9274    3.2637   20.4346 H   0  0  0  0  0  0  0  0  0  0  0  0
    2.6944    2.6404   18.1609 H   0  0  0  0  0  0  0  0  0  0  0  0
    4.2518    1.3985   16.7028 H   0  0  0  0  0  0  0  0  0  0  0  0
    7.2789   -0.9328   18.2821 H   0  0  0  0  0  0  0  0  0  0  0  0
    7.1870    0.0918   21.5086 H   0  0  0  0  0  0  0  0  0  0  0  0
    7.3282   -3.7636   22.6934 C   0  0  0  0  0  0  0  0  0  0  0  0
    7.8169   -4.2231   21.8324 H   0  0  0  0  0  0  0  0  0  0  0  0
    7.8821   -4.0692   23.5877 H   0  0  0  0  0  0  0  0  0  0  0  0
    8.3771   -1.8736   22.4773 H   0  0  0  0  0  0  0  0  0  0  0  0
    7.9297    0.1909   23.7515 H   0  0  0  0  0  0  0  0  0  0  0  0
    4.4590    0.3789   26.2617 H   0  0  0  0  0  0  0  0  0  0  0  0
    3.8231   -1.9075   25.5433 H   0  0  0  0  0  0  0  0  0  0  0  0
    5.4244   -4.1973   24.8477 H   0  0  0  0  0  0  0  0  0  0  0  0
    4.1248   -3.6820   23.7872 H   0  0  0  0  0  0  0  0  0  0  0  0
    5.4382   -3.9221   21.9012 H   0  0  0  0  0  0  0  0  0  0  0  0
    6.1009   -6.0995   23.8164 H   0  0  0  0  0  0  0  0  0  0  0  0
    6.1406   -6.2164   22.0212 H   0  0  0  0  0  0  0  0  0  0  0  0
    3.5186   -6.4764   23.7907 N   0  0  0  0  0  0  0  0  0  0  0  0
    2.0802   -6.7059   23.7011 C   0  0  0  0  0  0  0  0  0  0  0  0
    1.2864   -5.3897   23.6171 C   0  0  0  0  0  0  0  0  0  0  0  0
   -0.2078   -5.5812   23.5815 C   0  0  0  0  0  0  0  0  0  0  0  0
   -0.9384   -5.6170   24.7699 C   0  0  0  0  0  0  0  0  0  0  0  0
   -2.3123   -5.8333   24.7582 C   0  0  0  0  0  0  0  0  0  0  0  0
   -2.9841   -6.0163   23.5534 C   0  0  0  0  0  0  0  0  0  0  0  0
   -4.4639   -6.2485   23.5383 C   0  0  0  0  0  0  0  0  0  0  0  0
   -5.0838   -5.3339   22.7372 F   0  0  0  0  0  0  0  0  0  0  0  0
   -4.7403   -7.4775   23.0128 F   0  0  0  0  0  0  0  0  0  0  0  0
   -4.9131   -6.1921   24.5375 H   0  0  0  0  0  0  0  0  0  0  0  0
   -2.2643   -5.9801   22.3595 C   0  0  0  0  0  0  0  0  0  0  0  0
   -0.8909   -5.7595   22.3744 C   0  0  0  0  0  0  0  0  0  0  0  0
   -0.3522   -5.7094   21.4276 H   0  0  0  0  0  0  0  0  0  0  0  0
   -2.7838   -6.1069   21.4138 H   0  0  0  0  0  0  0  0  0  0  0  0
   -2.8605   -5.8400   25.6994 H   0  0  0  0  0  0  0  0  0  0  0  0
   -0.4234   -5.4623   25.7165 H   0  0  0  0  0  0  0  0  0  0  0  0
    1.5581   -4.7480   24.4672 H   0  0  0  0  0  0  0  0  0  0  0  0
    1.6263   -4.8840   22.7121 H   0  0  0  0  0  0  0  0  0  0  0  0
    1.7697   -7.2989   24.5642 H   0  0  0  0  0  0  0  0  0  0  0  0
    1.8469   -7.3033   22.8090 H   0  0  0  0  0  0  0  0  0  0  0  0
    4.0338   -6.7853   24.5987 H   0  0  0  0  0  0  0  0  0  0  0  0
  1  2  2  0
  2  3  1  0
  3  4  1  0
  4  5  1  0
  5  6  1  0
  6  7  2  0
  7  8  1  0
  8  9  2  0
  9 10  1  0
  9 11  1  0
 11 12  2  0
 12 13  1  0
 13 14  1  0
 14 15  2  0
 14 16  1  0
 16 17  1  0
 17 18  2  0
 18 19  1  0
 19 20  2  0
 20 21  1  0
 21 22  2  0
 22 23  1  0
 23 24  2  0
 24 25  1  0
 25 26  2  0
 25 27  1  0
 24 28  1  0
 23 29  1  0
 22 30  1  0
 20 31  1  0
 18 32  1  0
 16 33  1  0
 13 34  1  0
 34 35  1  0
 34 36  1  0
 13 37  1  6
 11 38  1  0
  8 39  1  0
  7 40  1  0
  5 41  1  0
  5 42  1  0
  4 43  1  6
  3 44  1  0
  3 45  1  0
  2 46  1  0
 46 47  1  0
 47 48  1  0
 48 49  1  0
 49 50  2  0
 50 51  1  0
 51 52  2  0
 52 53  1  0
 53 54  1  0
 53 55  1  0
 53 56  1  0
 52 57  1  0
 57 58  2  0
 58 59  1  0
 57 60  1  0
 51 61  1  0
 50 62  1  0
 48 63  1  0
 48 64  1  0
 47 65  1  0
 47 66  1  0
 46 67  1  0
 34  4  1  0
 58 49  1  0
 12  6  1  0
 26 17  1  0
 26 21  1  0
M  CHG  1   4   1
M  END
>  <cnnaffinities>  (20) 
[6.43211, 6.55675]

>  <score>  (20) 
6.43211

>  <index>  (20) 
19

>  <Smiles>  (20) 
O=C(C([N@+]1(C(c2c(c(c(Cl)c(c2[C@](C(=O)N(c2c(nc(c3c(c(c(c(c23)[H])[H])[H])[H])[H])[H])[H])(C1([H])[H])[H])[H])[H])[H])([H])[H])[H])([H])[H])N(C(C(c1c(c(c(C(F)(F)[H])c(c1[H])[H])[H])[H])([H])[H])([H])[H])[H]

>  <h>  (20) 
<NA>

>  <Training>  (20) 
True

>  <Success>  (20) 
True

>  <enamine_searched>  (20) 
False

>  <enamine_id>  (20) 
nan

$$$$

     RDKit          3D

 66 70  0  0  0  0  0  0  0  0999 V2000
    6.4317    3.8674   28.3770 C   0  0  0  0  0  0  0  0  0  0  0  0
    6.2311    3.2718   26.9762 C   0  0  0  0  0  0  0  0  0  0  0  0
    5.0915    2.2668   27.0899 C   0  0  0  0  0  0  0  0  0  0  0  0
    4.0024    2.6401   27.4775 O   0  0  0  0  0  0  0  0  0  0  0  0
    5.3542    0.9068   26.9132 N   0  0  0  0  0  0  0  0  0  0  0  0
    4.6894   -0.0245   27.8226 C   0  0  0  0  0  0  0  0  0  0  0  0
    5.7543   -0.9295   28.4175 C   0  0  0  0  0  0  0  0  0  0  0  0
    6.3716   -1.7630   27.2971 C   0  0  0  0  0  0  0  0  0  0  0  0
    6.7607   -0.9091   26.1048 C   0  0  0  0  0  0  0  0  0  0  0  0
    7.6211   -1.3831   25.1149 C   0  0  0  0  0  0  0  0  0  0  0  0
    7.8856   -0.6677   23.9525 C   0  0  0  0  0  0  0  0  0  0  0  0
    7.2600    0.5696   23.7635 C   0  0  0  0  0  0  0  0  0  0  0  0
    7.4499    1.3515   22.5968 N   0  0  0  0  0  0  0  0  0  0  0  0
    7.8016    0.8413   21.3512 C   0  0  0  0  0  0  0  0  0  0  0  0
    8.6101    1.4099   20.6417 O   0  0  0  0  0  0  0  0  0  0  0  0
    7.0136   -0.3778   20.8903 C   0  0  0  0  0  0  0  0  0  0  0  0
    6.1234    0.0628   19.7571 C   0  0  0  0  0  0  0  0  0  0  0  0
    6.4630   -0.2290   18.4623 C   0  0  0  0  0  0  0  0  0  0  0  0
    5.8043    0.2149   17.3656 N   0  0  0  0  0  0  0  0  0  0  0  0
    4.7783    1.0062   17.5744 C   0  0  0  0  0  0  0  0  0  0  0  0
    4.3116    1.3966   18.8614 C   0  0  0  0  0  0  0  0  0  0  0  0
    3.2067    2.2720   19.0295 C   0  0  0  0  0  0  0  0  0  0  0  0
    2.7793    2.6261   20.2808 C   0  0  0  0  0  0  0  0  0  0  0  0
    3.4548    2.1423   21.4179 C   0  0  0  0  0  0  0  0  0  0  0  0
    4.5495    1.3138   21.2814 C   0  0  0  0  0  0  0  0  0  0  0  0
    4.9984    0.9034   19.9939 C   0  0  0  0  0  0  0  0  0  0  0  0
    5.1134    1.0437   22.1725 H   0  0  0  0  0  0  0  0  0  0  0  0
    3.1324    2.4511   22.4089 H   0  0  0  0  0  0  0  0  0  0  0  0
    1.9289    3.2923   20.4047 H   0  0  0  0  0  0  0  0  0  0  0  0
    2.7174    2.6562   18.1400 H   0  0  0  0  0  0  0  0  0  0  0  0
    4.2519    1.3763   16.6950 H   0  0  0  0  0  0  0  0  0  0  0  0
    7.3264   -0.8632   18.2587 H   0  0  0  0  0  0  0  0  0  0  0  0
    7.7270   -1.1255   20.5316 H   0  0  0  0  0  0  0  0  0  0  0  0
    6.4365   -0.8110   21.7115 H   0  0  0  0  0  0  0  0  0  0  0  0
    7.3475    2.7337   22.7340 N   0  0  0  0  0  0  0  0  0  0  0  0
    6.8153    3.5060   21.6114 C   0  0  0  0  0  0  0  0  0  0  0  0
    7.4248    4.3969   21.4459 H   0  0  0  0  0  0  0  0  0  0  0  0
    5.7807    3.8193   21.7994 H   0  0  0  0  0  0  0  0  0  0  0  0
    6.8301    2.9265   20.6879 H   0  0  0  0  0  0  0  0  0  0  0  0
    8.3685    3.3309   23.5040 C   0  0  0  0  0  0  0  0  0  0  0  0
    9.6171    2.7173   23.6298 C   0  0  0  0  0  0  0  0  0  0  0  0
   10.5872    3.3037   24.4240 C   0  0  0  0  0  0  0  0  0  0  0  0
   10.3196    4.4613   25.1461 C   0  0  0  0  0  0  0  0  0  0  0  0
    9.0738    5.0594   25.0058 C   0  0  0  0  0  0  0  0  0  0  0  0
    8.7270    6.5106   25.9159 Cl  0  0  0  0  0  0  0  0  0  0  0  0
    8.0986    4.5246   24.1745 C   0  0  0  0  0  0  0  0  0  0  0  0
    7.1556    5.0422   24.0146 H   0  0  0  0  0  0  0  0  0  0  0  0
   11.0667    4.9258   25.7792 H   0  0  0  0  0  0  0  0  0  0  0  0
   11.5754    2.8606   24.4503 H   0  0  0  0  0  0  0  0  0  0  0  0
    9.8148    1.7883   23.1065 H   0  0  0  0  0  0  0  0  0  0  0  0
    6.4645    1.1004   24.7716 C   0  0  0  0  0  0  0  0  0  0  0  0
    6.2121    0.3746   25.9334 C   0  0  0  0  0  0  0  0  0  0  0  0
    6.0437    2.0856   24.6226 H   0  0  0  0  0  0  0  0  0  0  0  0
    8.5555   -1.0953   23.2106 H   0  0  0  0  0  0  0  0  0  0  0  0
    8.0844   -2.3600   25.2360 H   0  0  0  0  0  0  0  0  0  0  0  0
    5.6331   -2.5107   26.9697 H   0  0  0  0  0  0  0  0  0  0  0  0
    7.2284   -2.3391   27.6685 H   0  0  0  0  0  0  0  0  0  0  0  0
    5.3342   -1.5697   29.2000 H   0  0  0  0  0  0  0  0  0  0  0  0
    6.5186   -0.2937   28.8792 H   0  0  0  0  0  0  0  0  0  0  0  0
    3.9217   -0.6029   27.2893 H   0  0  0  0  0  0  0  0  0  0  0  0
    4.1788    0.5786   28.5743 H   0  0  0  0  0  0  0  0  0  0  0  0
    7.1539    2.8174   26.6014 H   0  0  0  0  0  0  0  0  0  0  0  0
    5.9360    4.0558   26.2645 H   0  0  0  0  0  0  0  0  0  0  0  0
    6.7023    3.0703   29.0786 H   0  0  0  0  0  0  0  0  0  0  0  0
    7.2099    4.6354   28.4042 H   0  0  0  0  0  0  0  0  0  0  0  0
    5.4888    4.3005   28.7246 H   0  0  0  0  0  0  0  0  0  0  0  0
  1  2  1  0
  2  3  1  0
  3  4  2  0
  3  5  1  0
  5  6  1  0
  6  7  1  0
  7  8  1  0
  8  9  1  0
  9 10  2  0
 10 11  1  0
 11 12  2  0
 12 13  1  0
 13 14  1  0
 14 15  2  0
 14 16  1  0
 16 17  1  0
 17 18  2  0
 18 19  1  0
 19 20  2  0
 20 21  1  0
 21 22  2  0
 22 23  1  0
 23 24  2  0
 24 25  1  0
 25 26  2  0
 25 27  1  0
 24 28  1  0
 23 29  1  0
 22 30  1  0
 20 31  1  0
 18 32  1  0
 16 33  1  0
 16 34  1  0
 13 35  1  0
 35 36  1  0
 36 37  1  0
 36 38  1  0
 36 39  1  0
 35 40  1  0
 40 41  2  0
 41 42  1  0
 42 43  2  0
 43 44  1  0
 44 45  1  0
 44 46  2  0
 46 47  1  0
 43 48  1  0
 42 49  1  0
 41 50  1  0
 12 51  1  0
 51 52  2  0
 51 53  1  0
 11 54  1  0
 10 55  1  0
  8 56  1  0
  8 57  1  0
  7 58  1  0
  7 59  1  0
  6 60  1  0
  6 61  1  0
  2 62  1  0
  2 63  1  0
  1 64  1  0
  1 65  1  0
  1 66  1  0
 52  5  1  0
 52  9  1  0
 26 17  1  0
 46 40  1  0
 26 21  1  0
M  END
>  <cnnaffinities>  (21) 
[6.75334, 6.77486]

>  <score>  (21) 
6.75334

>  <index>  (21) 
20

>  <Smiles>  (21) 
C(C(C(=O)N1C(C(C(c2c(c(c(N(C(=O)C(c3c(nc(c4c(c(c(c(c34)[H])[H])[H])[H])[H])[H])([H])[H])N(C([H])([H])[H])c3c(c(c(c(Cl)c3[H])[H])[H])[H])c(c12)[H])[H])[H])([H])[H])([H])[H])([H])[H])([H])[H])([H])([H])[H]

>  <h>  (21) 
<NA>

>  <Training>  (21) 
True

>  <Success>  (21) 
True

>  <enamine_searched>  (21) 
False

>  <enamine_id>  (21) 
nan

$$$$

     RDKit          3D

 59 64  0  0  0  0  0  0  0  0999 V2000
    6.8015   -2.2560   23.6498 C   0  0  0  0  0  0  0  0  0  0  0  0
    7.7650   -1.8291   22.5306 C   0  0  1  0  0  0  0  0  0  0  0  0
    7.0309   -1.7873   21.1708 C   0  0  0  0  0  0  0  0  0  0  0  0
    6.8833   -0.3832   20.8719 N   0  0  0  0  0  0  0  0  0  0  0  0
    6.1307    0.1075   19.7759 C   0  0  0  0  0  0  0  0  0  0  0  0
    6.4443   -0.2302   18.4832 C   0  0  0  0  0  0  0  0  0  0  0  0
    5.7715    0.2146   17.3918 N   0  0  0  0  0  0  0  0  0  0  0  0
    4.7527    1.0178   17.5961 C   0  0  0  0  0  0  0  0  0  0  0  0
    4.2997    1.4253   18.8831 C   0  0  0  0  0  0  0  0  0  0  0  0
    3.1721    2.2736   19.0615 C   0  0  0  0  0  0  0  0  0  0  0  0
    2.7449    2.6138   20.3178 C   0  0  0  0  0  0  0  0  0  0  0  0
    3.4254    2.1224   21.4541 C   0  0  0  0  0  0  0  0  0  0  0  0
    4.5224    1.3111   21.3068 C   0  0  0  0  0  0  0  0  0  0  0  0
    5.0018    0.9526   20.0161 C   0  0  0  0  0  0  0  0  0  0  0  0
    5.0323    0.9173   22.1784 H   0  0  0  0  0  0  0  0  0  0  0  0
    3.0751    2.3932   22.4469 H   0  0  0  0  0  0  0  0  0  0  0  0
    1.8826    3.2609   20.4450 H   0  0  0  0  0  0  0  0  0  0  0  0
    2.6610    2.6411   18.1763 H   0  0  0  0  0  0  0  0  0  0  0  0
    4.2262    1.3823   16.7130 H   0  0  0  0  0  0  0  0  0  0  0  0
    7.2920   -0.8776   18.2640 H   0  0  0  0  0  0  0  0  0  0  0  0
    7.7183    0.4338   21.6006 C   0  0  0  0  0  0  0  0  0  0  0  0
    7.8736    1.6143   21.3754 O   0  0  0  0  0  0  0  0  0  0  0  0
    8.4332   -0.4164   22.6843 C   0  0  1  0  0  0  0  0  0  0  0  0
    8.2413    0.1776   24.1040 C   0  0  0  0  0  0  0  0  0  0  0  0
    8.9517    1.4255   24.3083 N   0  0  0  0  0  0  0  0  0  0  0  0
    8.2682    2.5698   24.9031 C   0  0  0  0  0  0  0  0  0  0  0  0
    7.7533    3.5744   23.8971 C   0  0  0  0  0  0  0  0  0  0  0  0
    8.4761    4.5947   23.2394 C   0  0  0  0  0  0  0  0  0  0  0  0
    7.7387    5.2237   22.3321 N   0  0  0  0  0  0  0  0  0  0  0  0
    6.5459    4.6266   22.3913 N   0  0  0  0  0  0  0  0  0  0  0  0
    5.4922    4.9492   21.4552 C   0  0  0  0  0  0  0  0  0  0  0  0
    5.4717    4.2370   20.6171 H   0  0  0  0  0  0  0  0  0  0  0  0
    5.6661    5.9648   21.0917 H   0  0  0  0  0  0  0  0  0  0  0  0
    4.5414    4.8861   21.9930 H   0  0  0  0  0  0  0  0  0  0  0  0
    6.5002    3.6484   23.3249 C   0  0  0  0  0  0  0  0  0  0  0  0
    5.5883    3.0658   23.4451 H   0  0  0  0  0  0  0  0  0  0  0  0
    9.5152    4.8768   23.3655 H   0  0  0  0  0  0  0  0  0  0  0  0
    8.9758    3.0521   25.5778 H   0  0  0  0  0  0  0  0  0  0  0  0
    7.4448    2.1779   25.5088 H   0  0  0  0  0  0  0  0  0  0  0  0
   10.2538    1.5783   23.9302 C   0  0  0  0  0  0  0  0  0  0  0  0
   10.9456    2.5175   24.3134 O   0  0  0  0  0  0  0  0  0  0  0  0
   10.7719    0.5393   22.9879 C   0  0  0  0  0  0  0  0  0  0  0  0
   12.1243    0.5992   22.6606 C   0  0  0  0  0  0  0  0  0  0  0  0
   12.6528   -0.2754   21.7417 C   0  0  0  0  0  0  0  0  0  0  0  0
   11.8241   -1.2361   21.1712 C   0  0  0  0  0  0  0  0  0  0  0  0
   12.3593   -2.0650   20.2596 F   0  0  0  0  0  0  0  0  0  0  0  0
   10.4711   -1.2905   21.4415 C   0  0  0  0  0  0  0  0  0  0  0  0
    9.9323   -0.4152   22.3950 C   0  0  0  0  0  0  0  0  0  0  0  0
    9.8524   -1.9639   20.8561 H   0  0  0  0  0  0  0  0  0  0  0  0
   13.6775   -0.1838   21.4101 H   0  0  0  0  0  0  0  0  0  0  0  0
   12.7408    1.3564   23.1304 H   0  0  0  0  0  0  0  0  0  0  0  0
    7.1828    0.3844   24.2621 H   0  0  0  0  0  0  0  0  0  0  0  0
    8.5760   -0.5737   24.8379 H   0  0  0  0  0  0  0  0  0  0  0  0
    7.6134   -2.2844   20.3923 H   0  0  0  0  0  0  0  0  0  0  0  0
    6.0455   -2.2649   21.2171 H   0  0  0  0  0  0  0  0  0  0  0  0
    8.5617   -2.5813   22.5042 H   0  0  0  0  0  0  0  0  0  0  0  0
    7.3041   -2.3285   24.6184 H   0  0  0  0  0  0  0  0  0  0  0  0
    6.3894   -3.2459   23.4259 H   0  0  0  0  0  0  0  0  0  0  0  0
    5.9603   -1.5615   23.7510 H   0  0  0  0  0  0  0  0  0  0  0  0
  1  2  1  0
  2  3  1  0
  3  4  1  0
  4  5  1  0
  5  6  2  0
  6  7  1  0
  7  8  2  0
  8  9  1  0
  9 10  2  0
 10 11  1  0
 11 12  2  0
 12 13  1  0
 13 14  2  0
 13 15  1  0
 12 16  1  0
 11 17  1  0
 10 18  1  0
  8 19  1  0
  6 20  1  0
  4 21  1  0
 21 22  2  0
 21 23  1  0
 23 24  1  1
 24 25  1  0
 25 26  1  0
 26 27  1  0
 27 28  1  0
 28 29  2  0
 29 30  1  0
 30 31  1  0
 31 32  1  0
 31 33  1  0
 31 34  1  0
 30 35  1  0
 35 36  1  0
 28 37  1  0
 26 38  1  0
 26 39  1  0
 25 40  1  0
 40 41  2  0
 40 42  1  0
 42 43  2  0
 43 44  1  0
 44 45  2  0
 45 46  1  0
 45 47  1  0
 47 48  2  0
 47 49  1  0
 44 50  1  0
 43 51  1  0
 24 52  1  0
 24 53  1  0
  3 54  1  0
  3 55  1  0
  2 56  1  6
  1 57  1  0
  1 58  1  0
  1 59  1  0
 23  2  1  0
 35 27  2  0
 48 42  1  0
 14  5  1  0
 48 23  1  0
 14  9  1  0
M  END
>  <cnnaffinities>  (22) 
[6.89947, 6.83953]

>  <score>  (22) 
6.89947

>  <index>  (22) 
21

>  <Smiles>  (22) 
C([C@]1(C(N(c2c(nc(c3c(c(c(c(c23)[H])[H])[H])[H])[H])[H])C(=O)[C@]21C(N(C(c1c(nn(C([H])([H])[H])c1[H])[H])([H])[H])C(=O)c1c(c(c(F)c(c21)[H])[H])[H])([H])[H])([H])[H])[H])([H])([H])[H]

>  <h>  (22) 
<NA>

>  <Training>  (22) 
True

>  <Success>  (22) 
True

>  <enamine_searched>  (22) 
False

>  <enamine_id>  (22) 
nan

$$$$

     RDKit          3D

 41 44  0  0  0  0  0  0  0  0999 V2000
    5.0868   -2.0761   21.2380 O   0  0  0  0  0  0  0  0  0  0  0  0
    6.2714   -1.8606   21.4430 C   0  0  0  0  0  0  0  0  0  0  0  0
    6.9223   -0.5767   20.9045 C   0  0  0  0  0  0  0  0  0  0  0  0
    6.1191    0.0384   19.7832 C   0  0  0  0  0  0  0  0  0  0  0  0
    6.4417   -0.2472   18.4824 C   0  0  0  0  0  0  0  0  0  0  0  0
    5.7879    0.2089   17.3812 N   0  0  0  0  0  0  0  0  0  0  0  0
    4.7648    1.0029   17.5889 C   0  0  0  0  0  0  0  0  0  0  0  0
    4.3057    1.3849   18.8774 C   0  0  0  0  0  0  0  0  0  0  0  0
    3.1949    2.2514   19.0426 C   0  0  0  0  0  0  0  0  0  0  0  0
    2.7712    2.6057   20.2951 C   0  0  0  0  0  0  0  0  0  0  0  0
    3.4462    2.1095   21.4327 C   0  0  0  0  0  0  0  0  0  0  0  0
    4.5244    1.2694   21.2982 C   0  0  0  0  0  0  0  0  0  0  0  0
    4.9904    0.8848   20.0118 C   0  0  0  0  0  0  0  0  0  0  0  0
    5.0264    0.8901   22.1830 H   0  0  0  0  0  0  0  0  0  0  0  0
    3.1086    2.4058   22.4226 H   0  0  0  0  0  0  0  0  0  0  0  0
    1.9191    3.2689   20.4224 H   0  0  0  0  0  0  0  0  0  0  0  0
    2.6956    2.6326   18.1547 H   0  0  0  0  0  0  0  0  0  0  0  0
    4.2348    1.3831   16.7136 H   0  0  0  0  0  0  0  0  0  0  0  0
    7.2949   -0.8900   18.2641 H   0  0  0  0  0  0  0  0  0  0  0  0
    7.0457    0.1274   21.7390 H   0  0  0  0  0  0  0  0  0  0  0  0
    7.9323   -0.8155   20.5440 H   0  0  0  0  0  0  0  0  0  0  0  0
    7.0516   -2.7582   22.1344 N   0  0  0  0  0  0  0  0  0  0  0  0
    8.4063   -2.4939   22.6240 C   0  0  0  0  0  0  0  0  0  0  0  0
    8.7074   -3.2272   23.9354 C   0  0  0  0  0  0  0  0  0  0  0  0
    8.2903   -4.6760   23.9219 C   0  0  0  0  0  0  0  0  0  0  0  0
    8.9427   -5.6639   24.6702 C   0  0  0  0  0  0  0  0  0  0  0  0
   10.1258   -5.2251   25.8730 Cl  0  0  0  0  0  0  0  0  0  0  0  0
    8.7020   -7.0136   24.4596 C   0  0  0  0  0  0  0  0  0  0  0  0
    7.7213   -7.4035   23.5504 C   0  0  0  0  0  0  0  0  0  0  0  0
    6.9933   -6.4298   22.8776 C   0  0  0  0  0  0  0  0  0  0  0  0
    7.2372   -5.0717   23.0905 C   0  0  0  0  0  0  0  0  0  0  0  0
    6.3902   -4.0345   22.3887 C   0  0  0  0  0  0  0  0  0  0  0  0
    6.0460   -4.4549   21.4374 H   0  0  0  0  0  0  0  0  0  0  0  0
    5.4573   -3.8008   22.9172 H   0  0  0  0  0  0  0  0  0  0  0  0
    6.2074   -6.7473   22.1957 H   0  0  0  0  0  0  0  0  0  0  0  0
    7.5322   -8.4617   23.3841 H   0  0  0  0  0  0  0  0  0  0  0  0
    9.2801   -7.7409   25.0209 H   0  0  0  0  0  0  0  0  0  0  0  0
    9.7803   -3.1799   24.1392 H   0  0  0  0  0  0  0  0  0  0  0  0
    8.2187   -2.6864   24.7484 H   0  0  0  0  0  0  0  0  0  0  0  0
    8.4976   -1.4174   22.8083 H   0  0  0  0  0  0  0  0  0  0  0  0
    9.1592   -2.7576   21.8690 H   0  0  0  0  0  0  0  0  0  0  0  0
  1  2  2  0
  2  3  1  0
  3  4  1  0
  4  5  2  0
  5  6  1  0
  6  7  2  0
  7  8  1  0
  8  9  2  0
  9 10  1  0
 10 11  2  0
 11 12  1  0
 12 13  2  0
 12 14  1  0
 11 15  1  0
 10 16  1  0
  9 17  1  0
  7 18  1  0
  5 19  1  0
  3 20  1  0
  3 21  1  0
  2 22  1  0
 22 23  1  0
 23 24  1  0
 24 25  1  0
 25 26  2  0
 26 27  1  0
 26 28  1  0
 28 29  2  0
 29 30  1  0
 30 31  2  0
 31 32  1  0
 32 33  1  0
 32 34  1  0
 30 35  1  0
 29 36  1  0
 28 37  1  0
 24 38  1  0
 24 39  1  0
 23 40  1  0
 23 41  1  0
 13  4  1  0
 32 22  1  0
 13  8  1  0
 31 25  1  0
M  END
>  <cnnaffinities>  (23) 
[5.78797, 6.00421]

>  <score>  (23) 
5.78797

>  <index>  (23) 
22

>  <Smiles>  (23) 
O=C(C(c1c(nc(c2c(c(c(c(c12)[H])[H])[H])[H])[H])[H])([H])[H])N1C(C(c2c(Cl)c(c(c(c2C1([H])[H])[H])[H])[H])([H])[H])([H])[H]

>  <h>  (23) 
<NA>

>  <Training>  (23) 
True

>  <Success>  (23) 
True

>  <enamine_searched>  (23) 
False

>  <enamine_id>  (23) 
nan

$$$$

     RDKit          3D

 69 74  0  0  0  0  0  0  0  0999 V2000
    4.3501    6.5963   20.6848 C   0  0  0  0  0  0  0  0  0  0  0  0
    5.1490    6.1518   21.8818 C   0  0  1  0  0  0  0  0  0  0  0  0
    6.1231    5.0264   21.5560 C   0  0  0  0  0  0  0  0  0  0  0  0
    6.8108    4.6124   22.8178 N   0  0  1  0  0  4  0  0  0  0  0  0
    7.7065    3.4491   22.6449 C   0  0  0  0  0  0  0  0  0  0  0  0
    8.0826    2.8540   24.0058 C   0  0  0  0  0  0  0  0  0  0  0  0
    8.8261    1.6183   23.8524 N   0  0  0  0  0  0  0  0  0  0  0  0
    8.1128    0.3619   23.7481 C   0  0  0  0  0  0  0  0  0  0  0  0
    8.5305   -0.4675   22.5065 C   0  0  2  0  0  0  0  0  0  0  0  0
    8.0289    0.2054   21.2050 C   0  0  0  0  0  0  0  0  0  0  0  0
    8.5541    1.1325   20.6242 O   0  0  0  0  0  0  0  0  0  0  0  0
    6.8758   -0.4297   20.7964 N   0  0  0  0  0  0  0  0  0  0  0  0
    6.1122    0.0912   19.7194 C   0  0  0  0  0  0  0  0  0  0  0  0
    6.4546   -0.2050   18.4238 C   0  0  0  0  0  0  0  0  0  0  0  0
    5.7658    0.2294   17.3395 N   0  0  0  0  0  0  0  0  0  0  0  0
    4.7354    1.0154   17.5489 C   0  0  0  0  0  0  0  0  0  0  0  0
    4.2879    1.4258   18.8393 C   0  0  0  0  0  0  0  0  0  0  0  0
    3.1829    2.2994   19.0327 C   0  0  0  0  0  0  0  0  0  0  0  0
    2.7992    2.6633   20.2954 C   0  0  0  0  0  0  0  0  0  0  0  0
    3.4921    2.1817   21.4254 C   0  0  0  0  0  0  0  0  0  0  0  0
    4.5794    1.3571   21.2620 C   0  0  0  0  0  0  0  0  0  0  0  0
    4.9947    0.9467   19.9650 C   0  0  0  0  0  0  0  0  0  0  0  0
    5.1335    1.0220   22.1304 H   0  0  0  0  0  0  0  0  0  0  0  0
    3.1875    2.4764   22.4248 H   0  0  0  0  0  0  0  0  0  0  0  0
    1.9663    3.3456   20.4394 H   0  0  0  0  0  0  0  0  0  0  0  0
    2.6731    2.6855   18.1568 H   0  0  0  0  0  0  0  0  0  0  0  0
    4.1975    1.3713   16.6698 H   0  0  0  0  0  0  0  0  0  0  0  0
    7.3184   -0.8356   18.2208 H   0  0  0  0  0  0  0  0  0  0  0  0
    6.4543   -1.4967   21.6921 C   0  0  0  0  0  0  0  0  0  0  0  0
    7.7731   -1.8223   22.4266 C   0  0  2  0  0  0  0  0  0  0  0  0
    7.6208   -2.6083   23.7259 C   0  0  0  0  0  0  0  0  0  0  0  0
    7.1675   -3.5915   23.5484 H   0  0  0  0  0  0  0  0  0  0  0  0
    6.9888   -2.0794   24.4511 H   0  0  0  0  0  0  0  0  0  0  0  0
    8.6018   -2.7719   24.1877 H   0  0  0  0  0  0  0  0  0  0  0  0
    8.3503   -2.4265   21.7227 H   0  0  0  0  0  0  0  0  0  0  0  0
    6.0629   -2.3439   21.1162 H   0  0  0  0  0  0  0  0  0  0  0  0
    5.6557   -1.1775   22.3878 H   0  0  0  0  0  0  0  0  0  0  0  0
   10.0390   -0.5163   22.4461 C   0  0  0  0  0  0  0  0  0  0  0  0
   10.6746   -1.4769   21.6541 C   0  0  0  0  0  0  0  0  0  0  0  0
   11.9903   -1.3092   21.2870 C   0  0  0  0  0  0  0  0  0  0  0  0
   12.6143   -2.3998   20.0770 Cl  0  0  0  0  0  0  0  0  0  0  0  0
   12.7541   -0.2409   21.7673 C   0  0  0  0  0  0  0  0  0  0  0  0
   12.1567    0.6575   22.6256 C   0  0  0  0  0  0  0  0  0  0  0  0
   10.8015    0.5595   22.9171 C   0  0  0  0  0  0  0  0  0  0  0  0
   10.1573    1.7371   23.5853 C   0  0  0  0  0  0  0  0  0  0  0  0
   10.7737    2.7704   23.8159 O   0  0  0  0  0  0  0  0  0  0  0  0
   12.7071    1.4781   23.0661 H   0  0  0  0  0  0  0  0  0  0  0  0
   13.7720   -0.0928   21.4323 H   0  0  0  0  0  0  0  0  0  0  0  0
   10.1501   -2.3165   21.2190 H   0  0  0  0  0  0  0  0  0  0  0  0
    8.2935   -0.2361   24.6512 H   0  0  0  0  0  0  0  0  0  0  0  0
    7.0436    0.5959   23.7011 H   0  0  0  0  0  0  0  0  0  0  0  0
    7.1584    2.6630   24.5704 H   0  0  0  0  0  0  0  0  0  0  0  0
    8.7127    3.5435   24.5758 H   0  0  0  0  0  0  0  0  0  0  0  0
    8.6056    3.7552   22.0942 H   0  0  0  0  0  0  0  0  0  0  0  0
    7.1876    2.7004   22.0352 H   0  0  0  0  0  0  0  0  0  0  0  0
    7.5186    5.8070   23.4018 C   0  0  0  0  0  0  0  0  0  0  0  0
    6.5323    6.9496   23.5889 C   0  0  0  0  0  0  0  0  0  0  0  0
    5.8498    7.2735   22.3976 O   0  0  0  0  0  0  0  0  0  0  0  0
    5.8130    6.6564   24.3742 H   0  0  0  0  0  0  0  0  0  0  0  0
    7.0526    7.8539   23.9156 H   0  0  0  0  0  0  0  0  0  0  0  0
    7.9444    5.5351   24.3680 H   0  0  0  0  0  0  0  0  0  0  0  0
    8.3330    6.0893   22.7242 H   0  0  0  0  0  0  0  0  0  0  0  0
    6.0617    4.3104   23.4748 H   0  0  0  0  0  0  0  0  0  0  0  0
    5.6031    4.1600   21.1337 H   0  0  0  0  0  0  0  0  0  0  0  0
    6.8761    5.3613   20.8315 H   0  0  0  0  0  0  0  0  0  0  0  0
    4.4699    5.7703   22.6629 H   0  0  0  0  0  0  0  0  0  0  0  0
    3.6925    5.7810   20.3615 H   0  0  0  0  0  0  0  0  0  0  0  0
    3.7354    7.4615   20.9358 H   0  0  0  0  0  0  0  0  0  0  0  0
    5.0251    6.8766   19.8692 H   0  0  0  0  0  0  0  0  0  0  0  0
  1  2  1  0
  2  3  1  0
  3  4  1  0
  4  5  1  0
  5  6  1  0
  6  7  1  0
  7  8  1  0
  9  8  1  1
  9 10  1  0
 10 11  2  0
 10 12  1  0
 12 13  1  0
 13 14  2  0
 14 15  1  0
 15 16  2  0
 16 17  1  0
 17 18  2  0
 18 19  1  0
 19 20  2  0
 20 21  1  0
 21 22  2  0
 21 23  1  0
 20 24  1  0
 19 25  1  0
 18 26  1  0
 16 27  1  0
 14 28  1  0
 12 29  1  0
 29 30  1  0
 30 31  1  0
 31 32  1  0
 31 33  1  0
 31 34  1  0
 30 35  1  6
 29 36  1  0
 29 37  1  0
  9 38  1  0
 38 39  2  0
 39 40  1  0
 40 41  1  0
 40 42  2  0
 42 43  1  0
 43 44  2  0
 44 45  1  0
 45 46  2  0
 43 47  1  0
 42 48  1  0
 39 49  1  0
  8 50  1  0
  8 51  1  0
  6 52  1  0
  6 53  1  0
  5 54  1  0
  5 55  1  0
  4 56  1  0
 56 57  1  0
 57 58  1  0
 57 59  1  0
 57 60  1  0
 56 61  1  0
 56 62  1  0
  4 63  1  1
  3 64  1  0
  3 65  1  0
  2 66  1  1
  1 67  1  0
  1 68  1  0
  1 69  1  0
 58  2  1  0
 45  7  1  0
 30  9  1  0
 44 38  1  0
 22 13  1  0
 22 17  1  0
M  CHG  1   4   1
M  END
>  <cnnaffinities>  (24) 
[6.70793]

>  <score>  (24) 
6.70793

>  <index>  (24) 
23

>  <Smiles>  (24) 
C([C@]1(C([N@@+](C(C(N2C([C@@]3(C(=O)N(c4c(nc(c5c(c(c(c(c45)[H])[H])[H])[H])[H])[H])C([C@@]3(C([H])([H])[H])[H])([H])[H])c3c(c(Cl)c(c(c3C2=O)[H])[H])[H])([H])[H])([H])[H])([H])[H])(C(C(O1)([H])[H])([H])[H])[H])([H])[H])[H])([H])([H])[H]

>  <h>  (24) 
<NA>

>  <Training>  (24) 
True

>  <Success>  (24) 
True

>  <enamine_searched>  (24) 
False

>  <enamine_id>  (24) 
nan

$$$$

     RDKit          3D

 70 75  0  0  0  0  0  0  0  0999 V2000
    4.5393   -7.6654   23.7806 C   0  0  0  0  0  0  0  0  0  0  0  0
    5.9670   -7.4077   23.4744 N   0  0  0  0  0  4  0  0  0  0  0  0
    6.4310   -6.0610   23.9404 C   0  0  0  0  0  0  0  0  0  0  0  0
    5.7223   -4.8956   23.2405 C   0  0  0  0  0  0  0  0  0  0  0  0
    6.2380   -3.6207   23.7043 N   0  0  0  0  0  0  0  0  0  0  0  0
    7.4664   -3.0914   23.1299 C   0  0  0  0  0  0  0  0  0  0  0  0
    7.3250   -1.5912   22.7904 C   0  0  2  0  0  0  0  0  0  0  0  0
    6.3592   -1.4133   21.5984 C   0  0  0  0  0  0  0  0  0  0  0  0
    5.3168   -1.9994   21.3936 O   0  0  0  0  0  0  0  0  0  0  0  0
    6.8706   -0.4420   20.7716 N   0  0  0  0  0  0  0  0  0  0  0  0
    6.1079    0.0902   19.7067 C   0  0  0  0  0  0  0  0  0  0  0  0
    6.4582   -0.1940   18.4138 C   0  0  0  0  0  0  0  0  0  0  0  0
    5.7914    0.2580   17.3238 N   0  0  0  0  0  0  0  0  0  0  0  0
    4.7592    1.0403   17.5359 C   0  0  0  0  0  0  0  0  0  0  0  0
    4.2994    1.4259   18.8296 C   0  0  0  0  0  0  0  0  0  0  0  0
    3.1889    2.2928   19.0058 C   0  0  0  0  0  0  0  0  0  0  0  0
    2.7908    2.6602   20.2606 C   0  0  0  0  0  0  0  0  0  0  0  0
    3.4785    2.1804   21.3985 C   0  0  0  0  0  0  0  0  0  0  0  0
    4.5521    1.3373   21.2622 C   0  0  0  0  0  0  0  0  0  0  0  0
    4.9875    0.9392   19.9620 C   0  0  0  0  0  0  0  0  0  0  0  0
    5.0768    0.9723   22.1475 H   0  0  0  0  0  0  0  0  0  0  0  0
    3.1552    2.4891   22.3883 H   0  0  0  0  0  0  0  0  0  0  0  0
    1.9489    3.3346   20.3939 H   0  0  0  0  0  0  0  0  0  0  0  0
    2.6773    2.6638   18.1223 H   0  0  0  0  0  0  0  0  0  0  0  0
    4.2266    1.4077   16.6586 H   0  0  0  0  0  0  0  0  0  0  0  0
    7.3146   -0.8397   18.2218 H   0  0  0  0  0  0  0  0  0  0  0  0
    8.1253    0.1202   21.2158 C   0  0  0  0  0  0  0  0  0  0  0  0
    8.6279   -0.9055   22.2442 C   0  0  2  0  0  0  0  0  0  0  0  0
    9.6717   -1.8080   21.5511 C   0  0  0  0  0  0  0  0  0  0  0  0
   10.4255   -2.5943   22.4219 O   0  0  0  0  0  0  0  0  0  0  0  0
   11.4005   -1.8495   23.1971 C   0  0  0  0  0  0  0  0  0  0  0  0
   12.0016   -2.4858   24.3738 C   0  0  0  0  0  0  0  0  0  0  0  0
   11.9008   -2.8858   24.3846 C   0  0  0  0  0  0  0  0  0  0  0  0
   14.2943   -3.3100   24.8374 O   0  0  0  0  0  0  0  0  0  0  0  0
   13.5209   -2.3661   24.4938 C   0  0  0  0  0  0  0  0  0  0  0  0
   13.6111   -1.5113   25.2478 H   0  0  0  0  0  0  0  0  0  0  0  0
   13.8556   -1.8793   23.5144 H   0  0  0  0  0  0  0  0  0  0  0  0
   11.6168   -3.8693   25.3991 H   0  0  0  0  0  0  0  0  0  0  0  0
   11.8920   -3.9130   23.7466 H   0  0  0  0  0  0  0  0  0  0  0  0
   11.4722   -2.1156   25.2977 H   0  0  0  0  0  0  0  0  0  0  0  0
   12.1727   -1.5073   22.4676 H   0  0  0  0  0  0  0  0  0  0  0  0
   10.8824   -0.9381   23.5384 H   0  0  0  0  0  0  0  0  0  0  0  0
   10.3469   -1.1900   20.9346 H   0  0  0  0  0  0  0  0  0  0  0  0
    9.1667   -2.4852   20.8516 H   0  0  0  0  0  0  0  0  0  0  0  0
    9.1321   -0.4137   23.0760 H   0  0  0  0  0  0  0  0  0  0  0  0
    8.8045    0.2343   20.3705 H   0  0  0  0  0  0  0  0  0  0  0  0
    7.9980    1.1243   21.6428 H   0  0  0  0  0  0  0  0  0  0  0  0
    6.7705   -0.8881   24.0429 C   0  0  0  0  0  0  0  0  0  0  0  0
    6.9616    0.4835   24.2679 C   0  0  0  0  0  0  0  0  0  0  0  0
    6.4736    1.0862   25.4175 C   0  0  0  0  0  0  0  0  0  0  0  0
    6.7564    2.7868   25.6767 Cl  0  0  0  0  0  0  0  0  0  0  0  0
    5.7629    0.3694   26.3764 C   0  0  0  0  0  0  0  0  0  0  0  0
    5.5239   -0.9695   26.1405 C   0  0  0  0  0  0  0  0  0  0  0  0
    6.0090   -1.5901   24.9895 C   0  0  0  0  0  0  0  0  0  0  0  0
    5.6421   -3.0278   24.7753 C   0  0  0  0  0  0  0  0  0  0  0  0
    4.8338   -3.6094   25.4911 O   0  0  0  0  0  0  0  0  0  0  0  0
    4.9477   -1.5702   26.8368 H   0  0  0  0  0  0  0  0  0  0  0  0
    5.4032    0.8605   27.2741 H   0  0  0  0  0  0  0  0  0  0  0  0
    7.4975    1.1118   23.5685 H   0  0  0  0  0  0  0  0  0  0  0  0
    7.6834   -3.6633   22.2279 H   0  0  0  0  0  0  0  0  0  0  0  0
    8.3053   -3.2166   23.8298 H   0  0  0  0  0  0  0  0  0  0  0  0
    5.8500   -4.9236   22.1483 H   0  0  0  0  0  0  0  0  0  0  0  0
    4.6471   -4.9009   23.4509 H   0  0  0  0  0  0  0  0  0  0  0  0
    7.5059   -6.0074   23.7781 H   0  0  0  0  0  0  0  0  0  0  0  0
    6.2429   -5.9763   25.0130 H   0  0  0  0  0  0  0  0  0  0  0  0
    6.0914   -7.4465   22.4353 H   0  0  0  0  0  0  0  0  0  0  0  0
    6.5377   -8.1503   23.9260 H   0  0  0  0  0  0  0  0  0  0  0  0
    4.2422   -7.0926   24.6586 H   0  0  0  0  0  0  0  0  0  0  0  0
    3.9032   -7.3631   22.9480 H   0  0  0  0  0  0  0  0  0  0  0  0
    4.3902   -8.7244   23.9746 H   0  0  0  0  0  0  0  0  0  0  0  0
  1  2  1  0
  2  3  1  0
  3  4  1  0
  4  5  1  0
  5  6  1  0
  7  6  1  1
  7  8  1  0
  8  9  2  0
  8 10  1  0
 10 11  1  0
 11 12  2  0
 12 13  1  0
 13 14  2  0
 14 15  1  0
 15 16  2  0
 16 17  1  0
 17 18  2  0
 18 19  1  0
 19 20  2  0
 19 21  1  0
 18 22  1  0
 17 23  1  0
 16 24  1  0
 14 25  1  0
 12 26  1  0
 10 27  1  0
 27 28  1  0
 28 29  1  0
 29 30  1  0
 30 31  1  0
 31 32  1  0
 32 33  1  0
 33 34  1  0
 34 35  1  0
 35 36  1  0
 35 37  1  0
 33 38  1  0
 33 39  1  0
 32 40  1  0
 31 41  1  0
 31 42  1  0
 29 43  1  0
 29 44  1  0
 28 45  1  1
 27 46  1  0
 27 47  1  0
  7 48  1  0
 48 49  2  0
 49 50  1  0
 50 51  1  0
 50 52  2  0
 52 53  1  0
 53 54  2  0
 54 55  1  0
 55 56  2  0
 53 57  1  0
 52 58  1  0
 49 59  1  0
  6 60  1  0
  6 61  1  0
  4 62  1  0
  4 63  1  0
  3 64  1  0
  3 65  1  0
  2 66  1  0
  2 67  1  0
  1 68  1  0
  1 69  1  0
  1 70  1  0
 55  5  1  0
 28  7  1  0
 35 32  1  0
 54 48  1  0
 20 11  1  0
 20 15  1  0
M  CHG  1   2   1
M  END
>  <cnnaffinities>  (25) 
[6.89409]

>  <score>  (25) 
6.89409

>  <index>  (25) 
24

>  <Smiles>  (25) 
C([N+](C(C(N1C([C@@]2(C(=O)N(c3c(nc(c4c(c(c(c(c34)[H])[H])[H])[H])[H])[H])C([C@@]2(C(OC(C2(C(OC2([H])[H])([H])[H])[H])([H])[H])([H])[H])[H])([H])[H])c2c(c(Cl)c(c(c2C1=O)[H])[H])[H])([H])[H])([H])[H])([H])[H])([H])[H])([H])([H])[H]

>  <h>  (25) 
<NA>

>  <Training>  (25) 
True

>  <Success>  (25) 
True

>  <enamine_searched>  (25) 
False

>  <enamine_id>  (25) 
nan

$$$$

     RDKit          3D

 68 73  0  0  0  0  0  0  0  0999 V2000
    6.4682    4.3153   21.3524 C   0  0  0  0  0  0  0  0  0  0  0  0
    7.4685    3.9346   22.3423 N   0  0  0  0  0  0  0  0  0  0  0  0
    7.0225    3.3157   23.4782 C   0  0  0  0  0  0  0  0  0  0  0  0
    5.8335    3.1253   23.6846 O   0  0  0  0  0  0  0  0  0  0  0  0
    8.0799    2.8702   24.4920 C   0  0  0  0  0  0  0  0  0  0  0  0
    8.7177    1.6348   24.0592 N   0  0  0  0  0  0  0  0  0  0  0  0
    7.9239    0.4180   23.9022 C   0  0  0  0  0  0  0  0  0  0  0  0
    8.3671   -0.4425   22.6847 C   0  0  2  0  0  0  0  0  0  0  0  0
    7.9199    0.2192   21.3583 C   0  0  0  0  0  0  0  0  0  0  0  0
    8.4249    1.1879   20.8200 O   0  0  0  0  0  0  0  0  0  0  0  0
    6.8555   -0.4803   20.8431 N   0  0  0  0  0  0  0  0  0  0  0  0
    6.1130    0.0516   19.7620 C   0  0  0  0  0  0  0  0  0  0  0  0
    6.4800   -0.2302   18.4730 C   0  0  0  0  0  0  0  0  0  0  0  0
    5.8170    0.2170   17.3799 N   0  0  0  0  0  0  0  0  0  0  0  0
    4.7787    0.9954   17.5810 C   0  0  0  0  0  0  0  0  0  0  0  0
    4.3089    1.3855   18.8682 C   0  0  0  0  0  0  0  0  0  0  0  0
    3.2035    2.2588   19.0407 C   0  0  0  0  0  0  0  0  0  0  0  0
    2.7980    2.6300   20.2948 C   0  0  0  0  0  0  0  0  0  0  0  0
    3.4852    2.1583   21.4366 C   0  0  0  0  0  0  0  0  0  0  0  0
    4.5615    1.3155   21.2953 C   0  0  0  0  0  0  0  0  0  0  0  0
    4.9940    0.8998   20.0047 C   0  0  0  0  0  0  0  0  0  0  0  0
    5.1312    1.0195   22.1724 H   0  0  0  0  0  0  0  0  0  0  0  0
    3.1904    2.4925   22.4274 H   0  0  0  0  0  0  0  0  0  0  0  0
    1.9531    3.3008   20.4207 H   0  0  0  0  0  0  0  0  0  0  0  0
    2.7038    2.6357   18.1527 H   0  0  0  0  0  0  0  0  0  0  0  0
    4.2469    1.3615   16.7012 H   0  0  0  0  0  0  0  0  0  0  0  0
    7.3566   -0.8467   18.2848 H   0  0  0  0  0  0  0  0  0  0  0  0
    6.4166   -1.5793   21.6746 C   0  0  0  0  0  0  0  0  0  0  0  0
    7.6314   -1.8180   22.5785 C   0  0  2  0  0  0  0  0  0  0  0  0
    7.2756   -2.5678   23.8530 C   0  0  0  0  0  0  0  0  0  0  0  0
    8.4417   -3.1782   24.4413 N   0  0  0  0  0  0  0  0  0  0  0  0
    8.3210   -3.7504   25.7106 C   0  0  0  0  0  0  0  0  0  0  0  0
    7.2050   -3.8538   26.5824 C   0  0  0  0  0  0  0  0  0  0  0  0
    7.5307   -4.4622   27.7199 N   0  0  0  0  0  0  0  0  0  0  0  0
    8.8316   -4.7487   27.6035 N   0  0  0  0  0  0  0  0  0  0  0  0
    9.5528   -5.2887   28.7339 C   0  0  0  0  0  0  0  0  0  0  0  0
    9.4921   -4.5918   29.5739 H   0  0  0  0  0  0  0  0  0  0  0  0
    9.1314   -6.2497   29.0384 H   0  0  0  0  0  0  0  0  0  0  0  0
   10.6021   -5.4261   28.4633 H   0  0  0  0  0  0  0  0  0  0  0  0
    9.3423   -4.3601   26.4087 C   0  0  0  0  0  0  0  0  0  0  0  0
   10.3714   -4.5558   26.1356 H   0  0  0  0  0  0  0  0  0  0  0  0
    6.1938   -3.4840   26.4458 H   0  0  0  0  0  0  0  0  0  0  0  0
    9.2872   -2.6241   24.3391 H   0  0  0  0  0  0  0  0  0  0  0  0
    6.5612   -3.3614   23.6139 H   0  0  0  0  0  0  0  0  0  0  0  0
    6.7596   -1.9019   24.5593 H   0  0  0  0  0  0  0  0  0  0  0  0
    8.2954   -2.4791   22.0184 H   0  0  0  0  0  0  0  0  0  0  0  0
    5.5171   -1.3202   22.2537 H   0  0  0  0  0  0  0  0  0  0  0  0
    6.1762   -2.4614   21.0690 H   0  0  0  0  0  0  0  0  0  0  0  0
    9.8799   -0.5282   22.6685 C   0  0  0  0  0  0  0  0  0  0  0  0
   10.5085   -1.3989   21.7708 C   0  0  0  0  0  0  0  0  0  0  0  0
   11.8719   -1.3515   21.5720 C   0  0  0  0  0  0  0  0  0  0  0  0
   12.4778   -2.3729   20.2886 Cl  0  0  0  0  0  0  0  0  0  0  0  0
   12.6756   -0.4773   22.3148 C   0  0  0  0  0  0  0  0  0  0  0  0
   12.0670    0.3694   23.2182 C   0  0  0  0  0  0  0  0  0  0  0  0
   10.6794    0.4073   23.3383 C   0  0  0  0  0  0  0  0  0  0  0  0
   10.0846    1.5841   24.0507 C   0  0  0  0  0  0  0  0  0  0  0  0
   10.7857    2.4695   24.5276 O   0  0  0  0  0  0  0  0  0  0  0  0
   12.6614    1.0597   23.8079 H   0  0  0  0  0  0  0  0  0  0  0  0
   13.7445   -0.3881   22.1715 H   0  0  0  0  0  0  0  0  0  0  0  0
    9.9541   -2.0804   21.1378 H   0  0  0  0  0  0  0  0  0  0  0  0
    8.0107   -0.1744   24.8229 H   0  0  0  0  0  0  0  0  0  0  0  0
    6.8755    0.7020   23.7866 H   0  0  0  0  0  0  0  0  0  0  0  0
    8.8768    3.6141   24.5806 H   0  0  0  0  0  0  0  0  0  0  0  0
    7.6179    2.7642   25.4860 H   0  0  0  0  0  0  0  0  0  0  0  0
    8.3852    3.6741   22.0010 H   0  0  0  0  0  0  0  0  0  0  0  0
    5.9967    3.4281   20.9087 H   0  0  0  0  0  0  0  0  0  0  0  0
    6.9281    4.9137   20.5643 H   0  0  0  0  0  0  0  0  0  0  0  0
    5.6993    4.9207   21.8429 H   0  0  0  0  0  0  0  0  0  0  0  0
  1  2  1  0
  2  3  1  0
  3  4  2  0
  3  5  1  0
  5  6  1  0
  6  7  1  0
  8  7  1  1
  8  9  1  0
  9 10  2  0
  9 11  1  0
 11 12  1  0
 12 13  2  0
 13 14  1  0
 14 15  2  0
 15 16  1  0
 16 17  2  0
 17 18  1  0
 18 19  2  0
 19 20  1  0
 20 21  2  0
 20 22  1  0
 19 23  1  0
 18 24  1  0
 17 25  1  0
 15 26  1  0
 13 27  1  0
 11 28  1  0
 28 29  1  0
 29 30  1  0
 30 31  1  0
 31 32  1  0
 32 33  1  0
 33 34  2  0
 34 35  1  0
 35 36  1  0
 36 37  1  0
 36 38  1  0
 36 39  1  0
 35 40  1  0
 40 41  1  0
 33 42  1  0
 31 43  1  0
 30 44  1  0
 30 45  1  0
 29 46  1  6
 28 47  1  0
 28 48  1  0
  8 49  1  0
 49 50  2  0
 50 51  1  0
 51 52  1  0
 51 53  2  0
 53 54  1  0
 54 55  2  0
 55 56  1  0
 56 57  2  0
 54 58  1  0
 53 59  1  0
 50 60  1  0
  7 61  1  0
  7 62  1  0
  5 63  1  0
  5 64  1  0
  2 65  1  0
  1 66  1  0
  1 67  1  0
  1 68  1  0
 56  6  1  0
 29  8  1  0
 40 32  2  0
 55 49  1  0
 21 12  1  0
 21 16  1  0
M  END
>  <cnnaffinities>  (26) 
[6.50385]

>  <score>  (26) 
6.50385

>  <index>  (26) 
25

>  <Smiles>  (26) 
C(N(C(=O)C(N1C([C@@]2(C(=O)N(c3c(nc(c4c(c(c(c(c34)[H])[H])[H])[H])[H])[H])C([C@@]2(C(N(c2c(nn(C([H])([H])[H])c2[H])[H])[H])([H])[H])[H])([H])[H])c2c(c(Cl)c(c(c2C1=O)[H])[H])[H])([H])[H])([H])[H])[H])([H])([H])[H]

>  <h>  (26) 
<NA>

>  <Training>  (26) 
True

>  <Success>  (26) 
True

>  <enamine_searched>  (26) 
False

>  <enamine_id>  (26) 
nan

$$$$

     RDKit          3D

 43 47  0  0  0  0  0  0  0  0999 V2000
    8.8678    0.5670   20.6247 O   0  0  0  0  0  0  0  0  0  0  0  0
    8.2245   -0.3587   21.0580 C   0  0  0  0  0  0  0  0  0  0  0  0
    8.6254   -1.4361   21.8043 N   0  0  0  0  0  0  0  0  0  0  0  0
    7.5219   -2.1046   22.4637 C   0  0  1  0  0  0  0  0  0  0  0  0
    7.5620   -3.6477   22.5380 C   0  0  0  0  0  0  0  0  0  0  0  0
    7.6494   -3.5831   24.0908 C   0  0  2  0  0  0  0  0  0  0  0  0
    6.5712   -4.2671   24.8643 C   0  0  0  0  0  0  0  0  0  0  0  0
    5.2334   -4.0516   24.5308 C   0  0  0  0  0  0  0  0  0  0  0  0
    4.2093   -4.7124   25.1942 C   0  0  0  0  0  0  0  0  0  0  0  0
    4.4972   -5.5236   26.2902 C   0  0  0  0  0  0  0  0  0  0  0  0
    5.8115   -5.6519   26.7145 C   0  0  0  0  0  0  0  0  0  0  0  0
    6.8343   -5.0979   25.9520 C   0  0  0  0  0  0  0  0  0  0  0  0
    8.4725   -5.5553   26.3611 Cl  0  0  0  0  0  0  0  0  0  0  0  0
    6.0907   -6.2456   27.5830 H   0  0  0  0  0  0  0  0  0  0  0  0
    3.6998   -6.0699   26.7867 H   0  0  0  0  0  0  0  0  0  0  0  0
    3.1881   -4.5894   24.8531 H   0  0  0  0  0  0  0  0  0  0  0  0
    4.9915   -3.3798   23.7077 H   0  0  0  0  0  0  0  0  0  0  0  0
    7.4922   -2.0404   24.0105 C   0  0  0  0  0  0  0  0  0  0  0  0
    8.2949   -1.4414   24.4406 H   0  0  0  0  0  0  0  0  0  0  0  0
    6.5430   -1.6902   24.4206 H   0  0  0  0  0  0  0  0  0  0  0  0
    8.6265   -3.8854   24.4546 H   0  0  0  0  0  0  0  0  0  0  0  0
    8.4183   -4.0727   22.0126 H   0  0  0  0  0  0  0  0  0  0  0  0
    6.6550   -4.1281   22.1658 H   0  0  0  0  0  0  0  0  0  0  0  0
    6.3355   -1.5019   21.7370 C   0  0  0  0  0  0  0  0  0  0  0  0
    5.1708   -1.7942   21.8603 O   0  0  0  0  0  0  0  0  0  0  0  0
    6.8435   -0.5301   20.8750 N   0  0  0  0  0  0  0  0  0  0  0  0
    6.1268    0.0549   19.7975 C   0  0  0  0  0  0  0  0  0  0  0  0
    6.4761   -0.2344   18.4980 C   0  0  0  0  0  0  0  0  0  0  0  0
    5.8095    0.2180   17.4054 N   0  0  0  0  0  0  0  0  0  0  0  0
    4.7819    1.0044   17.6107 C   0  0  0  0  0  0  0  0  0  0  0  0
    4.3316    1.3973   18.9027 C   0  0  0  0  0  0  0  0  0  0  0  0
    3.2151    2.2594   19.0584 C   0  0  0  0  0  0  0  0  0  0  0  0
    2.8053    2.6418   20.3056 C   0  0  0  0  0  0  0  0  0  0  0  0
    3.4947    2.1877   21.4543 C   0  0  0  0  0  0  0  0  0  0  0  0
    4.5782    1.3514   21.3300 C   0  0  0  0  0  0  0  0  0  0  0  0
    5.0175    0.9227   20.0420 C   0  0  0  0  0  0  0  0  0  0  0  0
    5.1042    1.0132   22.2190 H   0  0  0  0  0  0  0  0  0  0  0  0
    3.1645    2.5063   22.4414 H   0  0  0  0  0  0  0  0  0  0  0  0
    1.9475    3.2990   20.4257 H   0  0  0  0  0  0  0  0  0  0  0  0
    2.7080    2.6078   18.1614 H   0  0  0  0  0  0  0  0  0  0  0  0
    4.2355    1.3745   16.7389 H   0  0  0  0  0  0  0  0  0  0  0  0
    7.3223   -0.8840   18.2863 H   0  0  0  0  0  0  0  0  0  0  0  0
    9.5779   -1.5135   22.1212 H   0  0  0  0  0  0  0  0  0  0  0  0
  1  2  2  0
  2  3  1  0
  4  3  1  6
  4  5  1  0
  5  6  1  0
  6  7  1  0
  7  8  2  0
  8  9  1  0
  9 10  2  0
 10 11  1  0
 11 12  2  0
 12 13  1  0
 11 14  1  0
 10 15  1  0
  9 16  1  0
  8 17  1  0
  6 18  1  0
 18 19  1  0
 18 20  1  0
  6 21  1  1
  5 22  1  0
  5 23  1  0
  4 24  1  0
 24 25  2  0
 24 26  1  0
 26 27  1  0
 27 28  2  0
 28 29  1  0
 29 30  2  0
 30 31  1  0
 31 32  2  0
 32 33  1  0
 33 34  2  0
 34 35  1  0
 35 36  2  0
 35 37  1  0
 34 38  1  0
 33 39  1  0
 32 40  1  0
 30 41  1  0
 28 42  1  0
  3 43  1  0
 26  2  1  0
 36 27  1  0
 18  4  1  0
 36 31  1  0
 12  7  1  0
M  END
>  <cnnaffinities>  (27) 
[5.93073]

>  <score>  (27) 
5.93073

>  <index>  (27) 
26

>  <Smiles>  (27) 
O=C1N([C@]2(C([C@](c3c(c(c(c(c3Cl)[H])[H])[H])[H])(C2([H])[H])[H])([H])[H])C(=O)N1c1c(nc(c2c(c(c(c(c12)[H])[H])[H])[H])[H])[H])[H]

>  <h>  (27) 
<NA>

>  <Training>  (27) 
True

>  <Success>  (27) 
True

>  <enamine_searched>  (27) 
False

>  <enamine_id>  (27) 
nan

$$$$

     RDKit          3D

 46 48  0  0  0  0  0  0  0  0999 V2000
    7.6409    0.6568   24.4157 C   0  0  0  0  0  0  0  0  0  0  0  0
    7.8416   -0.8011   24.8004 C   0  0  0  0  0  0  0  0  0  0  0  0
    7.7573   -1.7554   23.6057 C   0  0  1  0  0  0  0  0  0  0  0  0
    8.2466   -3.1882   23.9095 C   0  0  0  0  0  0  0  0  0  0  0  0
    7.2377   -4.1533   24.5495 C   0  0  1  0  0  0  0  0  0  0  0  0
    7.2222   -4.1395   26.0757 C   0  0  0  0  0  0  0  0  0  0  0  0
    6.5783   -3.0756   26.6021 F   0  0  0  0  0  0  0  0  0  0  0  0
    8.4586   -4.1508   26.6066 F   0  0  0  0  0  0  0  0  0  0  0  0
    6.5892   -5.2311   26.5581 F   0  0  0  0  0  0  0  0  0  0  0  0
    5.8380   -4.0006   23.9580 C   0  0  0  0  0  0  0  0  0  0  0  0
    5.4393   -2.5407   23.7795 C   0  0  0  0  0  0  0  0  0  0  0  0
    6.4200   -1.7869   23.0052 N   0  0  0  0  0  0  0  0  0  0  0  0
    6.1781   -1.6255   21.6401 C   0  0  0  0  0  0  0  0  0  0  0  0
    5.3642   -2.3064   21.0437 O   0  0  0  0  0  0  0  0  0  0  0  0
    6.9246   -0.4884   20.9089 C   0  0  0  0  0  0  0  0  0  0  0  0
    6.1180    0.0908   19.7675 C   0  0  0  0  0  0  0  0  0  0  0  0
    6.4226   -0.2148   18.4641 C   0  0  0  0  0  0  0  0  0  0  0  0
    5.7581    0.2332   17.3650 N   0  0  0  0  0  0  0  0  0  0  0  0
    4.7366    1.0310   17.5743 C   0  0  0  0  0  0  0  0  0  0  0  0
    4.2877    1.4226   18.8669 C   0  0  0  0  0  0  0  0  0  0  0  0
    3.1662    2.2750   19.0424 C   0  0  0  0  0  0  0  0  0  0  0  0
    2.7501    2.6279   20.3002 C   0  0  0  0  0  0  0  0  0  0  0  0
    3.4399    2.1402   21.4319 C   0  0  0  0  0  0  0  0  0  0  0  0
    4.5308    1.3151   21.2873 C   0  0  0  0  0  0  0  0  0  0  0  0
    4.9898    0.9364   19.9971 C   0  0  0  0  0  0  0  0  0  0  0  0
    5.0434    0.9492   22.1717 H   0  0  0  0  0  0  0  0  0  0  0  0
    3.1050    2.4247   22.4239 H   0  0  0  0  0  0  0  0  0  0  0  0
    1.8937    3.2829   20.4365 H   0  0  0  0  0  0  0  0  0  0  0  0
    2.6450    2.6461   18.1628 H   0  0  0  0  0  0  0  0  0  0  0  0
    4.2001    1.3997   16.6984 H   0  0  0  0  0  0  0  0  0  0  0  0
    7.2659   -0.8677   18.2466 H   0  0  0  0  0  0  0  0  0  0  0  0
    7.2161    0.3039   21.6133 H   0  0  0  0  0  0  0  0  0  0  0  0
    7.8573   -0.9068   20.5086 H   0  0  0  0  0  0  0  0  0  0  0  0
    4.4981   -2.4815   23.2487 H   0  0  0  0  0  0  0  0  0  0  0  0
    5.2910   -2.0694   24.7548 H   0  0  0  0  0  0  0  0  0  0  0  0
    5.8237   -4.4622   22.9686 H   0  0  0  0  0  0  0  0  0  0  0  0
    5.0981   -4.5386   24.5646 H   0  0  0  0  0  0  0  0  0  0  0  0
    7.5834   -5.1718   24.3418 H   0  0  0  0  0  0  0  0  0  0  0  0
    8.5471   -3.6360   22.9568 H   0  0  0  0  0  0  0  0  0  0  0  0
    9.1581   -3.1454   24.5135 H   0  0  0  0  0  0  0  0  0  0  0  0
    8.4363   -1.3645   22.8427 H   0  0  0  0  0  0  0  0  0  0  0  0
    8.8338   -0.9082   25.2581 H   0  0  0  0  0  0  0  0  0  0  0  0
    7.1247   -1.0883   25.5701 H   0  0  0  0  0  0  0  0  0  0  0  0
    7.7464    1.3094   25.2864 H   0  0  0  0  0  0  0  0  0  0  0  0
    8.3790    0.9803   23.6725 H   0  0  0  0  0  0  0  0  0  0  0  0
    6.6435    0.8189   23.9959 H   0  0  0  0  0  0  0  0  0  0  0  0
  1  2  1  0
  2  3  1  0
  3  4  1  0
  4  5  1  0
  5  6  1  0
  6  7  1  0
  6  8  1  0
  6  9  1  0
  5 10  1  0
 10 11  1  0
 11 12  1  0
 12 13  1  0
 13 14  2  0
 13 15  1  0
 15 16  1  0
 16 17  2  0
 17 18  1  0
 18 19  2  0
 19 20  1  0
 20 21  2  0
 21 22  1  0
 22 23  2  0
 23 24  1  0
 24 25  2  0
 24 26  1  0
 23 27  1  0
 22 28  1  0
 21 29  1  0
 19 30  1  0
 17 31  1  0
 15 32  1  0
 15 33  1  0
 11 34  1  0
 11 35  1  0
 10 36  1  0
 10 37  1  0
  5 38  1  1
  4 39  1  0
  4 40  1  0
  3 41  1  6
  2 42  1  0
  2 43  1  0
  1 44  1  0
  1 45  1  0
  1 46  1  0
 12  3  1  0
 25 16  1  0
 25 20  1  0
M  END
>  <cnnaffinities>  (28) 
[5.74293]

>  <score>  (28) 
5.74293

>  <index>  (28) 
27

>  <Smiles>  (28) 
C(C([C@]1(C([C@@](C(F)(F)F)(C(C(N1C(=O)C(c1c(nc(c2c(c(c(c(c12)[H])[H])[H])[H])[H])[H])([H])[H])([H])[H])([H])[H])[H])([H])[H])[H])([H])[H])([H])([H])[H]

>  <h>  (28) 
<NA>

>  <Training>  (28) 
True

>  <Success>  (28) 
True

>  <enamine_searched>  (28) 
False

>  <enamine_id>  (28) 
nan

$$$$

     RDKit          3D

 70 75  0  0  0  0  0  0  0  0999 V2000
    6.4836    4.5845   21.4787 C   0  0  0  0  0  0  0  0  0  0  0  0
    6.8318    3.5792   22.4891 N   0  0  0  0  0  4  0  0  0  0  0  0
    7.8391    4.0256   23.4827 C   0  0  0  0  0  0  0  0  0  0  0  0
    8.0593    2.9738   24.5727 C   0  0  0  0  0  0  0  0  0  0  0  0
    8.6864    1.7643   24.0570 N   0  0  0  0  0  0  0  0  0  0  0  0
    7.9305    0.5255   23.9628 C   0  0  0  0  0  0  0  0  0  0  0  0
    8.3148   -0.2896   22.7036 C   0  0  2  0  0  0  0  0  0  0  0  0
    7.7388    0.4100   21.4645 C   0  0  0  0  0  0  0  0  0  0  0  0
    7.9301    1.5758   21.1302 O   0  0  0  0  0  0  0  0  0  0  0  0
    6.8863   -0.4352   20.8085 N   0  0  0  0  0  0  0  0  0  0  0  0
    6.1147    0.0920   19.7433 C   0  0  0  0  0  0  0  0  0  0  0  0
    6.4628   -0.2124   18.4553 C   0  0  0  0  0  0  0  0  0  0  0  0
    5.7871    0.2261   17.3686 N   0  0  0  0  0  0  0  0  0  0  0  0
    4.7643    1.0185   17.5881 C   0  0  0  0  0  0  0  0  0  0  0  0
    4.3267    1.4377   18.8789 C   0  0  0  0  0  0  0  0  0  0  0  0
    3.2192    2.3092   19.0534 C   0  0  0  0  0  0  0  0  0  0  0  0
    2.8187    2.6852   20.3065 C   0  0  0  0  0  0  0  0  0  0  0  0
    3.5076    2.2167   21.4461 C   0  0  0  0  0  0  0  0  0  0  0  0
    4.5884    1.3792   21.3045 C   0  0  0  0  0  0  0  0  0  0  0  0
    5.0249    0.9654   20.0085 C   0  0  0  0  0  0  0  0  0  0  0  0
    5.1030    1.0192   22.1933 H   0  0  0  0  0  0  0  0  0  0  0  0
    3.1793    2.5237   22.4364 H   0  0  0  0  0  0  0  0  0  0  0  0
    1.9627    3.3413   20.4307 H   0  0  0  0  0  0  0  0  0  0  0  0
    2.7074    2.6614   18.1632 H   0  0  0  0  0  0  0  0  0  0  0  0
    4.2204    1.3744   16.7139 H   0  0  0  0  0  0  0  0  0  0  0  0
    7.3307   -0.8427   18.2732 H   0  0  0  0  0  0  0  0  0  0  0  0
    6.4516   -1.5419   21.6463 C   0  0  0  0  0  0  0  0  0  0  0  0
    7.6299   -1.6879   22.6115 C   0  0  2  0  0  0  0  0  0  0  0  0
    7.2705   -2.3792   23.9096 C   0  0  0  0  0  0  0  0  0  0  0  0
    6.1175   -1.7538   24.4544 O   0  0  0  0  0  0  0  0  0  0  0  0
    5.7664   -2.2081   25.7354 C   0  0  0  0  0  0  0  0  0  0  0  0
    6.3826   -1.3362   26.8013 C   0  0  0  0  0  0  0  0  0  0  0  0
    7.7667   -1.4721   26.7299 F   0  0  0  0  0  0  0  0  0  0  0  0
    5.8458   -1.4527   28.2227 C   0  0  0  0  0  0  0  0  0  0  0  0
    5.3373   -0.1099   28.1841 O   0  0  0  0  0  0  0  0  0  0  0  0
    5.9458    0.1270   26.9066 C   0  0  0  0  0  0  0  0  0  0  0  0
    5.2319    0.4982   26.1605 H   0  0  0  0  0  0  0  0  0  0  0  0
    6.8088    0.8007   26.9754 H   0  0  0  0  0  0  0  0  0  0  0  0
    6.6515   -1.5803   28.9562 H   0  0  0  0  0  0  0  0  0  0  0  0
    5.0536   -2.1903   28.3951 H   0  0  0  0  0  0  0  0  0  0  0  0
    4.6738   -2.1550   25.8100 H   0  0  0  0  0  0  0  0  0  0  0  0
    6.0817   -3.2535   25.8814 H   0  0  0  0  0  0  0  0  0  0  0  0
    7.0656   -3.4441   23.7150 H   0  0  0  0  0  0  0  0  0  0  0  0
    8.1126   -2.3234   24.6088 H   0  0  0  0  0  0  0  0  0  0  0  0
    8.3432   -2.3446   22.1157 H   0  0  0  0  0  0  0  0  0  0  0  0
    5.5196   -1.3093   22.1803 H   0  0  0  0  0  0  0  0  0  0  0  0
    6.2928   -2.4425   21.0442 H   0  0  0  0  0  0  0  0  0  0  0  0
    9.8239   -0.3563   22.5946 C   0  0  0  0  0  0  0  0  0  0  0  0
   10.4251   -1.3089   21.7685 C   0  0  0  0  0  0  0  0  0  0  0  0
   11.7902   -1.3507   21.6162 C   0  0  0  0  0  0  0  0  0  0  0  0
   12.3785   -2.5280   20.4654 Cl  0  0  0  0  0  0  0  0  0  0  0  0
   12.6100   -0.4594   22.3189 C   0  0  0  0  0  0  0  0  0  0  0  0
   12.0259    0.5111   23.1045 C   0  0  0  0  0  0  0  0  0  0  0  0
   10.6413    0.5992   23.2021 C   0  0  0  0  0  0  0  0  0  0  0  0
   10.0447    1.7752   23.9078 C   0  0  0  0  0  0  0  0  0  0  0  0
   10.7424    2.7049   24.3066 O   0  0  0  0  0  0  0  0  0  0  0  0
   12.6324    1.2390   23.6356 H   0  0  0  0  0  0  0  0  0  0  0  0
   13.6877   -0.4495   22.2636 H   0  0  0  0  0  0  0  0  0  0  0  0
    9.8644   -2.0296   21.1823 H   0  0  0  0  0  0  0  0  0  0  0  0
    6.8690    0.7714   23.8976 H   0  0  0  0  0  0  0  0  0  0  0  0
    8.0913   -0.0786   24.8672 H   0  0  0  0  0  0  0  0  0  0  0  0
    8.7167    3.3806   25.3478 H   0  0  0  0  0  0  0  0  0  0  0  0
    7.1047    2.6997   25.0441 H   0  0  0  0  0  0  0  0  0  0  0  0
    7.5202    4.9704   23.9411 H   0  0  0  0  0  0  0  0  0  0  0  0
    8.7962    4.2048   22.9795 H   0  0  0  0  0  0  0  0  0  0  0  0
    7.1895    2.7362   22.0046 H   0  0  0  0  0  0  0  0  0  0  0  0
    5.9580    3.3157   22.9807 H   0  0  0  0  0  0  0  0  0  0  0  0
    7.3256    4.7542   20.8017 H   0  0  0  0  0  0  0  0  0  0  0  0
    5.6219    4.2330   20.9022 H   0  0  0  0  0  0  0  0  0  0  0  0
    6.2339    5.5412   21.9502 H   0  0  0  0  0  0  0  0  0  0  0  0
  1  2  1  0
  2  3  1  0
  3  4  1  0
  4  5  1  0
  5  6  1  0
  7  6  1  1
  7  8  1  0
  8  9  2  0
  8 10  1  0
 10 11  1  0
 11 12  2  0
 12 13  1  0
 13 14  2  0
 14 15  1  0
 15 16  2  0
 16 17  1  0
 17 18  2  0
 18 19  1  0
 19 20  2  0
 19 21  1  0
 18 22  1  0
 17 23  1  0
 16 24  1  0
 14 25  1  0
 12 26  1  0
 10 27  1  0
 27 28  1  0
 28 29  1  0
 29 30  1  0
 30 31  1  0
 31 32  1  0
 32 33  1  0
 32 34  1  0
 34 35  1  0
 35 36  1  0
 36 37  1  0
 36 38  1  0
 34 39  1  0
 34 40  1  0
 31 41  1  0
 31 42  1  0
 29 43  1  0
 29 44  1  0
 28 45  1  6
 27 46  1  0
 27 47  1  0
  7 48  1  0
 48 49  2  0
 49 50  1  0
 50 51  1  0
 50 52  2  0
 52 53  1  0
 53 54  2  0
 54 55  1  0
 55 56  2  0
 53 57  1  0
 52 58  1  0
 49 59  1  0
  6 60  1  0
  6 61  1  0
  4 62  1  0
  4 63  1  0
  3 64  1  0
  3 65  1  0
  2 66  1  0
  2 67  1  0
  1 68  1  0
  1 69  1  0
  1 70  1  0
 55  5  1  0
 28  7  1  0
 36 32  1  0
 54 48  1  0
 20 11  1  0
 20 15  1  0
M  CHG  1   2   1
M  END
>  <cnnaffinities>  (29) 
[6.36457, 6.72079]

>  <score>  (29) 
6.36457

>  <index>  (29) 
28

>  <Smiles>  (29) 
C([N+](C(C(N1C([C@@]2(C(=O)N(c3c(nc(c4c(c(c(c(c34)[H])[H])[H])[H])[H])[H])C([C@@]2(C(OC(C2(F)C(OC2([H])[H])([H])[H])([H])[H])([H])[H])[H])([H])[H])c2c(c(Cl)c(c(c2C1=O)[H])[H])[H])([H])[H])([H])[H])([H])[H])([H])[H])([H])([H])[H]

>  <h>  (29) 
<NA>

>  <Training>  (29) 
True

>  <Success>  (29) 
True

>  <enamine_searched>  (29) 
False

>  <enamine_id>  (29) 
nan

$$$$

     RDKit          3D

 67 72  0  0  0  0  0  0  0  0999 V2000
    7.4776   -8.4515   23.0998 C   0  0  0  0  0  0  0  0  0  0  0  0
    6.3439   -7.5932   22.6865 N   0  0  0  0  0  4  0  0  0  0  0  0
    6.6108   -6.7626   21.4736 C   0  0  0  0  0  0  0  0  0  0  0  0
    6.0744   -5.3251   21.5592 C   0  0  0  0  0  0  0  0  0  0  0  0
    6.7134   -4.4848   22.5681 N   0  0  0  0  0  0  0  0  0  0  0  0
    7.8074   -3.5866   22.2206 C   0  0  0  0  0  0  0  0  0  0  0  0
    7.5392   -2.1207   22.6582 C   0  0  2  0  0  0  0  0  0  0  0  0
    6.4152   -1.5397   21.7590 C   0  0  0  0  0  0  0  0  0  0  0  0
    5.2679   -1.9329   21.7084 O   0  0  0  0  0  0  0  0  0  0  0  0
    6.9363   -0.5344   20.9600 N   0  0  0  0  0  0  0  0  0  0  0  0
    6.2165   -0.0067   19.8576 C   0  0  0  0  0  0  0  0  0  0  0  0
    6.6086   -0.3129   18.5781 C   0  0  0  0  0  0  0  0  0  0  0  0
    6.0047    0.1256   17.4469 N   0  0  0  0  0  0  0  0  0  0  0  0
    4.9796    0.9283   17.5962 C   0  0  0  0  0  0  0  0  0  0  0  0
    4.4690    1.3406   18.8580 C   0  0  0  0  0  0  0  0  0  0  0  0
    3.3575    2.2201   18.9403 C   0  0  0  0  0  0  0  0  0  0  0  0
    2.8846    2.6195   20.1604 C   0  0  0  0  0  0  0  0  0  0  0  0
    3.4950    2.1528   21.3471 C   0  0  0  0  0  0  0  0  0  0  0  0
    4.5681    1.2974   21.2915 C   0  0  0  0  0  0  0  0  0  0  0  0
    5.0895    0.8646   20.0374 C   0  0  0  0  0  0  0  0  0  0  0  0
    5.0198    0.9380   22.2108 H   0  0  0  0  0  0  0  0  0  0  0  0
    3.1106    2.4830   22.3103 H   0  0  0  0  0  0  0  0  0  0  0  0
    2.0402    3.2989   20.2257 H   0  0  0  0  0  0  0  0  0  0  0  0
    2.9008    2.5692   18.0153 H   0  0  0  0  0  0  0  0  0  0  0  0
    4.4969    1.2883   16.6881 H   0  0  0  0  0  0  0  0  0  0  0  0
    7.4541   -0.9811   18.4275 H   0  0  0  0  0  0  0  0  0  0  0  0
    8.3898   -0.5004   21.0014 C   0  0  0  0  0  0  0  0  0  0  0  0
    8.7215   -1.1484   22.3526 C   0  0  2  0  0  0  0  0  0  0  0  0
   10.1471   -1.6849   22.3692 C   0  0  0  0  0  0  0  0  0  0  0  0
   10.5393   -2.1484   23.6992 N   0  0  0  0  0  0  0  0  0  0  0  0
   11.8713   -2.2134   23.9856 C   0  0  0  0  0  0  0  0  0  0  0  0
   12.6594   -1.2269   23.5340 N   0  0  0  0  0  0  0  0  0  0  0  0
   13.9171   -1.3140   23.9219 C   0  0  0  0  0  0  0  0  0  0  0  0
   14.4447   -2.2528   24.7152 N   0  0  0  0  0  0  0  0  0  0  0  0
   13.5686   -3.1947   25.0644 C   0  0  0  0  0  0  0  0  0  0  0  0
   12.2941   -3.2623   24.7117 N   0  0  0  0  0  0  0  0  0  0  0  0
   13.9316   -3.9829   25.7321 H   0  0  0  0  0  0  0  0  0  0  0  0
   14.5502   -0.4890   23.5989 H   0  0  0  0  0  0  0  0  0  0  0  0
   10.0565   -2.9752   24.0211 H   0  0  0  0  0  0  0  0  0  0  0  0
   10.2809   -2.4812   21.6218 H   0  0  0  0  0  0  0  0  0  0  0  0
   10.8377   -0.8829   22.1020 H   0  0  0  0  0  0  0  0  0  0  0  0
    8.6965   -0.3582   23.1029 H   0  0  0  0  0  0  0  0  0  0  0  0
    8.7454    0.5355   20.9263 H   0  0  0  0  0  0  0  0  0  0  0  0
    8.8353   -1.0714   20.1699 H   0  0  0  0  0  0  0  0  0  0  0  0
    7.0862   -2.1513   24.1062 C   0  0  0  0  0  0  0  0  0  0  0  0
    7.0773   -0.9761   24.8692 C   0  0  0  0  0  0  0  0  0  0  0  0
    6.6093   -0.9960   26.1701 C   0  0  0  0  0  0  0  0  0  0  0  0
    6.5576    0.4868   27.0850 Cl  0  0  0  0  0  0  0  0  0  0  0  0
    6.1447   -2.1713   26.7596 C   0  0  0  0  0  0  0  0  0  0  0  0
    6.0958   -3.3199   25.9935 C   0  0  0  0  0  0  0  0  0  0  0  0
    6.5370   -3.3160   24.6718 C   0  0  0  0  0  0  0  0  0  0  0  0
    6.2952   -4.5479   23.8533 C   0  0  0  0  0  0  0  0  0  0  0  0
    5.7112   -5.5417   24.3061 O   0  0  0  0  0  0  0  0  0  0  0  0
    5.6764   -4.2390   26.3843 H   0  0  0  0  0  0  0  0  0  0  0  0
    5.7988   -2.1554   27.7883 H   0  0  0  0  0  0  0  0  0  0  0  0
    7.3841   -0.0240   24.4483 H   0  0  0  0  0  0  0  0  0  0  0  0
    7.9198   -3.5969   21.1490 H   0  0  0  0  0  0  0  0  0  0  0  0
    8.7454   -3.9511   22.6636 H   0  0  0  0  0  0  0  0  0  0  0  0
    4.9902   -5.3132   21.7429 H   0  0  0  0  0  0  0  0  0  0  0  0
    6.2394   -4.8271   20.5974 H   0  0  0  0  0  0  0  0  0  0  0  0
    7.6917   -6.7201   21.3125 H   0  0  0  0  0  0  0  0  0  0  0  0
    6.1743   -7.2353   20.5869 H   0  0  0  0  0  0  0  0  0  0  0  0
    5.5296   -8.2122   22.4877 H   0  0  0  0  0  0  0  0  0  0  0  0
    6.0784   -6.9677   23.4819 H   0  0  0  0  0  0  0  0  0  0  0  0
    7.5899   -9.3322   22.4582 H   0  0  0  0  0  0  0  0  0  0  0  0
    7.3351   -8.7941   24.1257 H   0  0  0  0  0  0  0  0  0  0  0  0
    8.4069   -7.8790   23.0506 H   0  0  0  0  0  0  0  0  0  0  0  0
  1  2  1  0
  2  3  1  0
  3  4  1  0
  4  5  1  0
  5  6  1  0
  7  6  1  6
  7  8  1  0
  8  9  2  0
  8 10  1  0
 10 11  1  0
 11 12  2  0
 12 13  1  0
 13 14  2  0
 14 15  1  0
 15 16  2  0
 16 17  1  0
 17 18  2  0
 18 19  1  0
 19 20  2  0
 19 21  1  0
 18 22  1  0
 17 23  1  0
 16 24  1  0
 14 25  1  0
 12 26  1  0
 10 27  1  0
 27 28  1  0
 28 29  1  0
 29 30  1  0
 30 31  1  0
 31 32  2  0
 32 33  1  0
 33 34  2  0
 34 35  1  0
 35 36  2  0
 35 37  1  0
 33 38  1  0
 30 39  1  0
 29 40  1  0
 29 41  1  0
 28 42  1  1
 27 43  1  0
 27 44  1  0
  7 45  1  0
 45 46  2  0
 46 47  1  0
 47 48  1  0
 47 49  2  0
 49 50  1  0
 50 51  2  0
 51 52  1  0
 52 53  2  0
 50 54  1  0
 49 55  1  0
 46 56  1  0
  6 57  1  0
  6 58  1  0
  4 59  1  0
  4 60  1  0
  3 61  1  0
  3 62  1  0
  2 63  1  0
  2 64  1  0
  1 65  1  0
  1 66  1  0
  1 67  1  0
 52  5  1  0
 28  7  1  0
 36 31  1  0
 51 45  1  0
 20 11  1  0
 20 15  1  0
M  CHG  1   2   1
M  END
>  <cnnaffinities>  (30) 
[7.14317, 6.6082]

>  <score>  (30) 
7.14317

>  <index>  (30) 
29

>  <Smiles>  (30) 
C([N+](C(C(N1C([C@@]2(C(=O)N(c3c(nc(c4c(c(c(c(c34)[H])[H])[H])[H])[H])[H])C([C@@]2(C(N(c2nc(nc(n2)[H])[H])[H])([H])[H])[H])([H])[H])c2c(c(Cl)c(c(c2C1=O)[H])[H])[H])([H])[H])([H])[H])([H])[H])([H])[H])([H])([H])[H]

>  <h>  (30) 
<NA>

>  <Training>  (30) 
True

>  <Success>  (30) 
True

>  <enamine_searched>  (30) 
False

>  <enamine_id>  (30) 
nan

$$$$

     RDKit          3D

 66 71  0  0  0  0  0  0  0  0999 V2000
    7.8696   -5.5975   20.9261 C   0  0  0  0  0  0  0  0  0  0  0  0
    8.0824   -6.8960   20.7788 N   0  0  0  0  0  0  0  0  0  0  0  0
    5.5124   -6.4921   22.1947 C   0  0  0  0  0  0  0  0  0  0  0  0
    6.2857   -7.0356   22.9445 O   0  0  0  0  0  0  0  0  0  0  0  0
    4.9219   -5.1085   22.4368 C   0  0  0  0  0  0  0  0  0  0  0  0
    5.7396   -4.2406   23.2431 N   0  0  0  0  0  0  0  0  0  0  0  0
    6.8565   -3.5090   22.6791 C   0  0  0  0  0  0  0  0  0  0  0  0
    6.7201   -1.9953   22.8848 C   0  0  2  0  0  0  0  0  0  0  0  0
    5.7004   -1.4787   21.8522 C   0  0  0  0  0  0  0  0  0  0  0  0
    4.5051   -1.6795   21.8567 O   0  0  0  0  0  0  0  0  0  0  0  0
    6.3699   -0.8219   20.8422 N   0  0  0  0  0  0  0  0  0  0  0  0
    5.7628   -0.2087   19.7321 C   0  0  0  0  0  0  0  0  0  0  0  0
    6.1922   -0.5133   18.4621 C   0  0  0  0  0  0  0  0  0  0  0  0
    5.6737    0.0025   17.3229 N   0  0  0  0  0  0  0  0  0  0  0  0
    4.7151    0.8880   17.4514 C   0  0  0  0  0  0  0  0  0  0  0  0
    4.2096    1.3336   18.7064 C   0  0  0  0  0  0  0  0  0  0  0  0
    3.1914    2.3207   18.7863 C   0  0  0  0  0  0  0  0  0  0  0  0
    2.7669    2.7785   20.0035 C   0  0  0  0  0  0  0  0  0  0  0  0
    3.3451    2.2830   21.1948 C   0  0  0  0  0  0  0  0  0  0  0  0
    4.3235    1.3234   21.1431 C   0  0  0  0  0  0  0  0  0  0  0  0
    4.7581    0.7999   19.8915 C   0  0  0  0  0  0  0  0  0  0  0  0
    4.7707    0.9575   22.0610 H   0  0  0  0  0  0  0  0  0  0  0  0
    3.0174    2.6709   22.1558 H   0  0  0  0  0  0  0  0  0  0  0  0
    1.9943    3.5399   20.0632 H   0  0  0  0  0  0  0  0  0  0  0  0
    2.7778    2.7094   17.8582 H   0  0  0  0  0  0  0  0  0  0  0  0
    4.2987    1.3067   16.5356 H   0  0  0  0  0  0  0  0  0  0  0  0
    6.9954   -1.2348   18.3239 H   0  0  0  0  0  0  0  0  0  0  0  0
    7.8093   -0.9082   20.9356 C   0  0  0  0  0  0  0  0  0  0  0  0
    7.9929   -1.2796   22.4037 C   0  0  2  0  0  0  0  0  0  0  0  0
   10.7344   -1.9763   22.0821 C   0  0  0  0  0  0  0  0  0  0  0  0
   11.6806   -0.7286   22.0205 C   0  0  0  0  0  0  0  0  0  0  0  0
   11.0143    0.3654   22.7217 C   0  0  0  0  0  0  0  0  0  0  0  0
   12.0894    0.9743   23.4918 C   0  0  0  0  0  0  0  0  0  0  0  0
   13.3008    0.5662   22.9641 C   0  0  0  0  0  0  0  0  0  0  0  0
   13.5936    0.6051   21.6289 C   0  0  0  0  0  0  0  0  0  0  0  0
   11.7167   -0.8545   22.0995 C   0  0  0  0  0  0  0  0  0  0  0  0
   11.3627   -2.5832   22.7972 H   0  0  0  0  0  0  0  0  0  0  0  0
   12.7795   -0.5888   21.6947 H   0  0  0  0  0  0  0  0  0  0  0  0
   14.1243    0.4383   23.6804 H   0  0  0  0  0  0  0  0  0  0  0  0
   11.9224    1.6724   24.3242 H   0  0  0  0  0  0  0  0  0  0  0  0
   10.8887    0.8809   21.7820 H   0  0  0  0  0  0  0  0  0  0  0  0
    9.6484   -1.8649   22.5905 H   0  0  0  0  0  0  0  0  0  0  0  0
   10.5774   -2.7034   21.1759 H   0  0  0  0  0  0  0  0  0  0  0  0
    8.1528   -0.3928   23.0130 H   0  0  0  0  0  0  0  0  0  0  0  0
    8.2275   -1.6829   20.2788 H   0  0  0  0  0  0  0  0  0  0  0  0
    8.2248    0.0629   20.6540 H   0  0  0  0  0  0  0  0  0  0  0  0
    6.3643   -1.7565   24.3384 C   0  0  0  0  0  0  0  0  0  0  0  0
    6.5149   -0.4910   24.9210 C   0  0  0  0  0  0  0  0  0  0  0  0
    6.3081   -0.3209   26.2768 C   0  0  0  0  0  0  0  0  0  0  0  0
    6.4751    1.2713   26.9564 Cl  0  0  0  0  0  0  0  0  0  0  0  0
    5.9661   -1.3846   27.1112 C   0  0  0  0  0  0  0  0  0  0  0  0
    5.7365   -2.6161   26.5305 C   0  0  0  0  0  0  0  0  0  0  0  0
    5.8879   -2.7906   25.1580 C   0  0  0  0  0  0  0  0  0  0  0  0
    5.4311   -4.0852   24.5671 C   0  0  0  0  0  0  0  0  0  0  0  0
    4.7707   -4.9042   25.1882 O   0  0  0  0  0  0  0  0  0  0  0  0
    5.4155   -3.4668   27.1223 H   0  0  0  0  0  0  0  0  0  0  0  0
    5.8602   -1.2310   28.1797 H   0  0  0  0  0  0  0  0  0  0  0  0
    6.8035    0.3706   24.3301 H   0  0  0  0  0  0  0  0  0  0  0  0
    7.7951   -3.8171   23.1577 H   0  0  0  0  0  0  0  0  0  0  0  0
    6.9285   -3.7363   21.6138 H   0  0  0  0  0  0  0  0  0  0  0  0
    3.9721   -5.2602   22.9556 H   0  0  0  0  0  0  0  0  0  0  0  0
    4.7103   -4.6340   21.4704 H   0  0  0  0  0  0  0  0  0  0  0  0
    8.5456   -4.7907   20.5575 H   0  0  0  0  0  0  0  0  0  0  0  0
    5.2197   -6.9487   21.2322 H   0  0  0  0  0  0  0  0  0  0  0  0
    7.8136   -7.5497   21.5163 H   0  0  0  0  0  0  0  0  0  0  0  0
    8.8466   -7.2105   20.1867 H   0  0  0  0  0  0  0  0  0  0  0  0
  1  2  1  0
  2  3  1  0
  3  4  2  0
  3  5  1  0
  5  6  1  0
  6  7  1  0
  8  7  1  1
  8  9  1  0
  9 10  2  0
  9 11  1  0
 11 12  1  0
 12 13  2  0
 13 14  1  0
 14 15  2  0
 15 16  1  0
 16 17  2  0
 17 18  1  0
 18 19  2  0
 19 20  1  0
 20 21  2  0
 20 22  1  0
 19 23  1  0
 18 24  1  0
 17 25  1  0
 15 26  1  0
 13 27  1  0
 11 28  1  0
 28 29  1  0
 29 30  1  0
 30 31  1  0
 31 32  2  0
 32 33  1  0
 33 34  2  0
 34 35  1  0
 35 36  2  0
 36 37  1  0
 35 38  1  0
 34 39  1  0
 33 40  1  0
 32 41  1  0
 30 42  1  0
 30 43  1  0
 29 44  1  1
 28 45  1  0
 28 46  1  0
  8 47  1  0
 47 48  2  0
 48 49  1  0
 49 50  1  0
 49 51  2  0
 51 52  1  0
 52 53  2  0
 53 54  1  0
 54 55  2  0
 52 56  1  0
 51 57  1  0
 48 58  1  0
  7 59  1  0
  7 60  1  0
  5 61  1  0
  5 62  1  0
  2 63  1  0
  1 64  1  0
  1 65  1  0
  1 66  1  0
 54  6  1  0
 29  8  1  0
 36 31  1  0
 53 47  1  0
 21 12  1  0
 21 16  1  0
M  END
>  <cnnaffinities>  (31) 
[6.93963]

>  <score>  (31) 
6.93963

>  <index>  (31) 
30

>  <Smiles>  (31) 
C(N(C(=O)C(N1C([C@@]2(C(=O)N(c3c(nc(c4c(c(c(c(c34)[H])[H])[H])[H])[H])[H])C([C@@]2(C(c2c(c(c(c(c2[H])[H])[H])[H])[H])([H])[H])[H])([H])[H])c2c(c(Cl)c(c(c2C1=O)[H])[H])[H])([H])[H])([H])[H])[H])([H])([H])[H]

>  <h>  (31) 
<NA>

>  <Training>  (31) 
True

>  <Success>  (31) 
True

>  <enamine_searched>  (31) 
False

>  <enamine_id>  (31) 
nan

$$$$

     RDKit          3D

 64 70  0  0  0  0  0  0  0  0999 V2000
    8.9095    2.6143   25.4156 O   0  0  0  0  0  0  0  0  0  0  0  0
    8.7507    1.5588   24.8155 C   0  0  0  0  0  0  0  0  0  0  0  0
    9.8813    0.8548   24.1364 C   0  0  0  0  0  0  0  0  0  0  0  0
   11.1690    1.2692   24.4480 C   0  0  0  0  0  0  0  0  0  0  0  0
   12.2219    0.9159   23.6364 C   0  0  0  0  0  0  0  0  0  0  0  0
   11.9501    0.1816   22.4806 C   0  0  0  0  0  0  0  0  0  0  0  0
   13.2255    0.0618   21.3076 Cl  0  0  0  0  0  0  0  0  0  0  0  0
   10.6956   -0.3522   22.2293 C   0  0  0  0  0  0  0  0  0  0  0  0
    9.6388   -0.0507   23.1003 C   0  0  0  0  0  0  0  0  0  0  0  0
    8.2216   -0.5010   22.8093 C   0  0  1  0  0  0  0  0  0  0  0  0
    7.3637   -0.3127   24.0911 C   0  0  0  0  0  0  0  0  0  0  0  0
    7.5117    1.0200   24.6316 N   0  0  0  0  0  0  0  0  0  0  0  0
    6.3774    1.7622   25.1382 C   0  0  0  0  0  0  0  0  0  0  0  0
    6.0192    1.3741   26.5397 C   0  0  0  0  0  0  0  0  0  0  0  0
    6.3398    1.9608   27.6412 N   0  0  0  0  0  0  0  0  0  0  0  0
    5.7779    1.2110   28.6708 N   0  0  0  0  0  0  0  0  0  0  0  0
    5.1663    0.2403   28.0986 C   0  0  0  0  0  0  0  0  0  0  0  0
    5.2682    0.2600   26.7482 O   0  0  0  0  0  0  0  0  0  0  0  0
    4.5911   -0.5550   28.5508 H   0  0  0  0  0  0  0  0  0  0  0  0
    5.5086    1.6233   24.4805 H   0  0  0  0  0  0  0  0  0  0  0  0
    6.6823    2.8129   25.1471 H   0  0  0  0  0  0  0  0  0  0  0  0
    7.6803   -1.0384   24.8483 H   0  0  0  0  0  0  0  0  0  0  0  0
    6.3063   -0.4988   23.8765 H   0  0  0  0  0  0  0  0  0  0  0  0
    7.6374    0.3846   21.6843 C   0  0  0  0  0  0  0  0  0  0  0  0
    7.7642    1.5824   21.5624 O   0  0  0  0  0  0  0  0  0  0  0  0
    6.9196   -0.4162   20.8267 N   0  0  0  0  0  0  0  0  0  0  0  0
    6.1374    0.1021   19.7685 C   0  0  0  0  0  0  0  0  0  0  0  0
    6.4425   -0.2324   18.4721 C   0  0  0  0  0  0  0  0  0  0  0  0
    5.7739    0.2160   17.3815 N   0  0  0  0  0  0  0  0  0  0  0  0
    4.7551    1.0169   17.5917 C   0  0  0  0  0  0  0  0  0  0  0  0
    4.3050    1.4139   18.8842 C   0  0  0  0  0  0  0  0  0  0  0  0
    3.1785    2.2655   19.0529 C   0  0  0  0  0  0  0  0  0  0  0  0
    2.7454    2.6063   20.3054 C   0  0  0  0  0  0  0  0  0  0  0  0
    3.4138    2.1094   21.4463 C   0  0  0  0  0  0  0  0  0  0  0  0
    4.5065    1.2916   21.3093 C   0  0  0  0  0  0  0  0  0  0  0  0
    4.9976    0.9366   20.0176 C   0  0  0  0  0  0  0  0  0  0  0  0
    5.0122    0.9141   22.1937 H   0  0  0  0  0  0  0  0  0  0  0  0
    3.0649    2.3864   22.4375 H   0  0  0  0  0  0  0  0  0  0  0  0
    1.8905    3.2659   20.4310 H   0  0  0  0  0  0  0  0  0  0  0  0
    2.6765    2.6383   18.1642 H   0  0  0  0  0  0  0  0  0  0  0  0
    4.2227    1.3852   16.7144 H   0  0  0  0  0  0  0  0  0  0  0  0
    7.2937   -0.8843   18.2731 H   0  0  0  0  0  0  0  0  0  0  0  0
    6.9036   -1.8105   21.2108 C   0  0  0  0  0  0  0  0  0  0  0  0
    8.0711   -1.9264   22.2092 C   0  0  2  0  0  0  0  0  0  0  0  0
    7.9084   -3.0875   23.2144 C   0  0  0  0  0  0  0  0  0  0  0  0
    7.9975   -4.4059   22.6226 N   0  0  0  0  0  0  0  0  0  0  0  0
    6.9907   -5.0582   21.9850 C   0  0  0  0  0  0  0  0  0  0  0  0
    5.6290   -4.8021   22.2633 C   0  0  0  0  0  0  0  0  0  0  0  0
    4.7260   -5.5528   21.5406 C   0  0  0  0  0  0  0  0  0  0  0  0
    5.0820   -6.4445   20.6055 N   0  0  0  0  0  0  0  0  0  0  0  0
    6.3826   -6.5971   20.4420 C   0  0  0  0  0  0  0  0  0  0  0  0
    7.3663   -5.9881   21.0907 N   0  0  0  0  0  0  0  0  0  0  0  0
    6.6921   -7.2953   19.6621 H   0  0  0  0  0  0  0  0  0  0  0  0
    3.6528   -5.4299   21.7033 H   0  0  0  0  0  0  0  0  0  0  0  0
    5.3105   -4.0688   23.0058 H   0  0  0  0  0  0  0  0  0  0  0  0
    8.9217   -4.7322   22.3804 H   0  0  0  0  0  0  0  0  0  0  0  0
    8.6847   -3.0256   23.9879 H   0  0  0  0  0  0  0  0  0  0  0  0
    6.9418   -2.9913   23.7201 H   0  0  0  0  0  0  0  0  0  0  0  0
    8.9814   -2.1169   21.6371 H   0  0  0  0  0  0  0  0  0  0  0  0
    7.0077   -2.4396   20.3266 H   0  0  0  0  0  0  0  0  0  0  0  0
    5.9426   -2.0617   21.6827 H   0  0  0  0  0  0  0  0  0  0  0  0
   10.5432   -0.9756   21.3538 H   0  0  0  0  0  0  0  0  0  0  0  0
   13.2346    1.2316   23.8469 H   0  0  0  0  0  0  0  0  0  0  0  0
   11.2710    1.9248   25.2983 H   0  0  0  0  0  0  0  0  0  0  0  0
  1  2  2  0
  2  3  1  0
  3  4  2  0
  4  5  1  0
  5  6  2  0
  6  7  1  0
  6  8  1  0
  8  9  2  0
  9 10  1  0
 10 11  1  1
 11 12  1  0
 12 13  1  0
 13 14  1  0
 14 15  2  0
 15 16  1  0
 16 17  2  0
 17 18  1  0
 17 19  1  0
 13 20  1  0
 13 21  1  0
 11 22  1  0
 11 23  1  0
 10 24  1  0
 24 25  2  0
 24 26  1  0
 26 27  1  0
 27 28  2  0
 28 29  1  0
 29 30  2  0
 30 31  1  0
 31 32  2  0
 32 33  1  0
 33 34  2  0
 34 35  1  0
 35 36  2  0
 35 37  1  0
 34 38  1  0
 33 39  1  0
 32 40  1  0
 30 41  1  0
 28 42  1  0
 26 43  1  0
 43 44  1  0
 44 45  1  0
 45 46  1  0
 46 47  1  0
 47 48  2  0
 48 49  1  0
 49 50  2  0
 50 51  1  0
 51 52  2  0
 51 53  1  0
 49 54  1  0
 48 55  1  0
 46 56  1  0
 45 57  1  0
 45 58  1  0
 44 59  1  6
 43 60  1  0
 43 61  1  0
  8 62  1  0
  5 63  1  0
  4 64  1  0
 12  2  1  0
 18 14  1  0
 36 27  1  0
 52 47  1  0
  9  3  1  0
 44 10  1  0
 36 31  1  0
M  END
>  <cnnaffinities>  (32) 
[6.37168, 6.24009, 6.30103]

>  <score>  (32) 
6.37168

>  <index>  (32) 
31

>  <Smiles>  (32) 
O=C1c2c(c(c(Cl)c(c2[C@@]2(C(N1C(c1nnc(o1)[H])([H])[H])([H])[H])C(=O)N(c1c(nc(c3c(c(c(c(c13)[H])[H])[H])[H])[H])[H])C([C@@]2(C(N(c1c(c(nc(n1)[H])[H])[H])[H])([H])[H])[H])([H])[H])[H])[H])[H]

>  <h>  (32) 
<NA>

>  <Training>  (32) 
True

>  <Success>  (32) 
True

>  <enamine_searched>  (32) 
False

>  <enamine_id>  (32) 
nan

$$$$

     RDKit          3D

 72 77  0  0  0  0  0  0  0  0999 V2000
    7.7110   -2.9583   23.3836 C   0  0  0  0  0  0  0  0  0  0  0  0
    7.9791   -1.8861   22.3226 C   0  0  1  0  0  0  0  0  0  0  0  0
    6.8223   -1.7874   21.3062 C   0  0  0  0  0  0  0  0  0  0  0  0
    6.9145   -0.4252   20.8250 N   0  0  0  0  0  0  0  0  0  0  0  0
    6.1349    0.0876   19.7642 C   0  0  0  0  0  0  0  0  0  0  0  0
    6.4409   -0.2533   18.4720 C   0  0  0  0  0  0  0  0  0  0  0  0
    5.7751    0.1997   17.3834 N   0  0  0  0  0  0  0  0  0  0  0  0
    4.7666    1.0139   17.5925 C   0  0  0  0  0  0  0  0  0  0  0  0
    4.3230    1.4236   18.8827 C   0  0  0  0  0  0  0  0  0  0  0  0
    3.1980    2.2747   19.0524 C   0  0  0  0  0  0  0  0  0  0  0  0
    2.7718    2.6252   20.3045 C   0  0  0  0  0  0  0  0  0  0  0  0
    3.4529    2.1442   21.4436 C   0  0  0  0  0  0  0  0  0  0  0  0
    4.5470    1.3260   21.3066 C   0  0  0  0  0  0  0  0  0  0  0  0
    5.0200    0.9489   20.0150 C   0  0  0  0  0  0  0  0  0  0  0  0
    5.0565    0.9606   22.1915 H   0  0  0  0  0  0  0  0  0  0  0  0
    3.1180    2.4335   22.4369 H   0  0  0  0  0  0  0  0  0  0  0  0
    1.9039    3.2688   20.4232 H   0  0  0  0  0  0  0  0  0  0  0  0
    2.6949    2.6405   18.1628 H   0  0  0  0  0  0  0  0  0  0  0  0
    4.2379    1.3826   16.7134 H   0  0  0  0  0  0  0  0  0  0  0  0
    7.2840   -0.9156   18.2756 H   0  0  0  0  0  0  0  0  0  0  0  0
    7.6629    0.3958   21.6279 C   0  0  0  0  0  0  0  0  0  0  0  0
    7.8636    1.5753   21.4080 O   0  0  0  0  0  0  0  0  0  0  0  0
    8.1861   -0.4183   22.8246 C   0  0  1  0  0  0  0  0  0  0  0  0
    7.2972   -0.1288   24.0702 C   0  0  0  0  0  0  0  0  0  0  0  0
    7.4986    1.1969   24.6078 N   0  0  0  0  0  0  0  0  0  0  0  0
    6.4037    2.0795   24.9695 C   0  0  0  0  0  0  0  0  0  0  0  0
    6.2988    3.2599   24.0022 C   0  0  0  0  0  0  0  0  0  0  0  0
    5.1166    4.1247   24.2800 N   0  0  1  0  0  4  0  0  0  0  0  0
    5.2120    4.8654   25.5932 C   0  0  0  0  0  0  0  0  0  0  0  0
    4.0101    5.7778   25.7723 C   0  0  0  0  0  0  0  0  0  0  0  0
    3.8803    6.6917   24.7024 O   0  0  0  0  0  0  0  0  0  0  0  0
    3.7543    6.0689   23.4183 C   0  0  0  0  0  0  0  0  0  0  0  0
    2.4269    5.3192   23.3014 C   0  0  0  0  0  0  0  0  0  0  0  0
    1.5941    5.9830   23.5503 H   0  0  0  0  0  0  0  0  0  0  0  0
    2.3919    4.4452   23.9619 H   0  0  0  0  0  0  0  0  0  0  0  0
    2.2963    4.9540   22.2760 H   0  0  0  0  0  0  0  0  0  0  0  0
    3.8262    7.2093   22.4146 C   0  0  0  0  0  0  0  0  0  0  0  0
    2.9922    7.8993   22.5690 H   0  0  0  0  0  0  0  0  0  0  0  0
    3.7865    6.8250   21.3883 H   0  0  0  0  0  0  0  0  0  0  0  0
    4.7608    7.7635   22.5471 H   0  0  0  0  0  0  0  0  0  0  0  0
    4.9298    5.1175   23.1724 C   0  0  0  0  0  0  0  0  0  0  0  0
    5.8549    5.6982   23.0758 H   0  0  0  0  0  0  0  0  0  0  0  0
    4.7742    4.5700   22.2350 H   0  0  0  0  0  0  0  0  0  0  0  0
    3.1018    5.1679   25.8910 H   0  0  0  0  0  0  0  0  0  0  0  0
    4.1258    6.3839   26.6759 H   0  0  0  0  0  0  0  0  0  0  0  0
    6.1316    5.4617   25.5882 H   0  0  0  0  0  0  0  0  0  0  0  0
    5.2667    4.1481   26.4145 H   0  0  0  0  0  0  0  0  0  0  0  0
    4.2957    3.4890   24.3062 H   0  0  0  0  0  0  0  0  0  0  0  0
    7.1988    3.8775   24.0680 H   0  0  0  0  0  0  0  0  0  0  0  0
    6.2311    2.8925   22.9728 H   0  0  0  0  0  0  0  0  0  0  0  0
    6.6089    2.4351   25.9817 H   0  0  0  0  0  0  0  0  0  0  0  0
    5.4642    1.5138   24.9772 H   0  0  0  0  0  0  0  0  0  0  0  0
    8.7518    1.6803   24.8028 C   0  0  0  0  0  0  0  0  0  0  0  0
    8.9415    2.7540   25.3690 O   0  0  0  0  0  0  0  0  0  0  0  0
    9.8675    0.8768   24.2019 C   0  0  0  0  0  0  0  0  0  0  0  0
   11.1701    1.1331   24.6266 C   0  0  0  0  0  0  0  0  0  0  0  0
   12.2348    0.7754   23.8284 C   0  0  0  0  0  0  0  0  0  0  0  0
   11.9548    0.1412   22.6151 C   0  0  0  0  0  0  0  0  0  0  0  0
   13.2400    0.0553   21.4481 Cl  0  0  0  0  0  0  0  0  0  0  0  0
   10.6806   -0.2955   22.2764 C   0  0  0  0  0  0  0  0  0  0  0  0
    9.6103    0.0131   23.1272 C   0  0  0  0  0  0  0  0  0  0  0  0
   10.5418   -0.8275   21.3366 H   0  0  0  0  0  0  0  0  0  0  0  0
   13.2583    1.0641   24.0591 H   0  0  0  0  0  0  0  0  0  0  0  0
   11.3070    1.6786   25.5511 H   0  0  0  0  0  0  0  0  0  0  0  0
    6.2408   -0.2451   23.8031 H   0  0  0  0  0  0  0  0  0  0  0  0
    7.5472   -0.8577   24.8499 H   0  0  0  0  0  0  0  0  0  0  0  0
    5.8490   -1.9794   21.7891 H   0  0  0  0  0  0  0  0  0  0  0  0
    6.9141   -2.4884   20.4735 H   0  0  0  0  0  0  0  0  0  0  0  0
    8.8890   -2.1570   21.7755 H   0  0  0  0  0  0  0  0  0  0  0  0
    8.4991   -3.0004   24.1442 H   0  0  0  0  0  0  0  0  0  0  0  0
    7.6377   -3.9512   22.9251 H   0  0  0  0  0  0  0  0  0  0  0  0
    6.7572   -2.7795   23.8966 H   0  0  0  0  0  0  0  0  0  0  0  0
  1  2  1  0
  2  3  1  0
  3  4  1  0
  4  5  1  0
  5  6  2  0
  6  7  1  0
  7  8  2  0
  8  9  1  0
  9 10  2  0
 10 11  1  0
 11 12  2  0
 12 13  1  0
 13 14  2  0
 13 15  1  0
 12 16  1  0
 11 17  1  0
 10 18  1  0
  8 19  1  0
  6 20  1  0
  4 21  1  0
 21 22  2  0
 21 23  1  0
 23 24  1  1
 24 25  1  0
 25 26  1  0
 26 27  1  0
 27 28  1  0
 28 29  1  0
 29 30  1  0
 30 31  1  0
 31 32  1  0
 32 33  1  0
 33 34  1  0
 33 35  1  0
 33 36  1  0
 32 37  1  0
 37 38  1  0
 37 39  1  0
 37 40  1  0
 32 41  1  0
 41 42  1  0
 41 43  1  0
 30 44  1  0
 30 45  1  0
 29 46  1  0
 29 47  1  0
 28 48  1  1
 27 49  1  0
 27 50  1  0
 26 51  1  0
 26 52  1  0
 25 53  1  0
 53 54  2  0
 53 55  1  0
 55 56  2  0
 56 57  1  0
 57 58  2  0
 58 59  1  0
 58 60  1  0
 60 61  2  0
 60 62  1  0
 57 63  1  0
 56 64  1  0
 24 65  1  0
 24 66  1  0
  3 67  1  0
  3 68  1  0
  2 69  1  6
  1 70  1  0
  1 71  1  0
  1 72  1  0
 23  2  1  0
 41 28  1  0
 61 55  1  0
 14  5  1  0
 61 23  1  0
 14  9  1  0
M  CHG  1  28   1
M  END
>  <cnnaffinities>  (33) 
[6.62549, 6.6281]

>  <score>  (33) 
6.62549

>  <index>  (33) 
32

>  <Smiles>  (33) 
C([C@]1(C(N(c2c(nc(c3c(c(c(c(c23)[H])[H])[H])[H])[H])[H])C(=O)[C@]21C(N(C(C([N@+]1(C(C(OC(C([H])([H])[H])(C([H])([H])[H])C1([H])[H])([H])[H])([H])[H])[H])([H])[H])([H])[H])C(=O)c1c(c(c(Cl)c(c21)[H])[H])[H])([H])[H])([H])[H])[H])([H])([H])[H]

>  <h>  (33) 
<NA>

>  <Training>  (33) 
True

>  <Success>  (33) 
True

>  <enamine_searched>  (33) 
False

>  <enamine_id>  (33) 
nan

$$$$

     RDKit          3D

 44 47  0  0  0  0  0  0  0  0999 V2000
    8.5148    1.3927   20.7373 O   0  0  0  0  0  0  0  0  0  0  0  0
    7.8671    0.6914   21.5029 C   0  0  0  0  0  0  0  0  0  0  0  0
    6.9521   -0.4140   20.9250 C   0  0  0  0  0  0  0  0  0  0  0  0
    6.1119    0.0894   19.7693 C   0  0  0  0  0  0  0  0  0  0  0  0
    6.4282   -0.2072   18.4684 C   0  0  0  0  0  0  0  0  0  0  0  0
    5.7594    0.2373   17.3657 N   0  0  0  0  0  0  0  0  0  0  0  0
    4.7367    1.0285   17.5765 C   0  0  0  0  0  0  0  0  0  0  0  0
    4.2864    1.4241   18.8658 C   0  0  0  0  0  0  0  0  0  0  0  0
    3.1732    2.2845   19.0466 C   0  0  0  0  0  0  0  0  0  0  0  0
    2.7644    2.6528   20.2979 C   0  0  0  0  0  0  0  0  0  0  0  0
    3.4653    2.1688   21.4301 C   0  0  0  0  0  0  0  0  0  0  0  0
    4.5438    1.3344   21.2895 C   0  0  0  0  0  0  0  0  0  0  0  0
    4.9894    0.9389   20.0011 C   0  0  0  0  0  0  0  0  0  0  0  0
    5.0717    0.9835   22.1770 H   0  0  0  0  0  0  0  0  0  0  0  0
    3.1343    2.4715   22.4190 H   0  0  0  0  0  0  0  0  0  0  0  0
    1.9130    3.3157   20.4320 H   0  0  0  0  0  0  0  0  0  0  0  0
    2.6553    2.6534   18.1616 H   0  0  0  0  0  0  0  0  0  0  0  0
    4.2017    1.3985   16.6969 H   0  0  0  0  0  0  0  0  0  0  0  0
    7.2753   -0.8550   18.2450 H   0  0  0  0  0  0  0  0  0  0  0  0
    7.6150   -1.1973   20.5372 H   0  0  0  0  0  0  0  0  0  0  0  0
    6.3233   -0.8902   21.6868 H   0  0  0  0  0  0  0  0  0  0  0  0
    7.9405    0.8594   22.8620 N   0  0  0  0  0  0  0  0  0  0  0  0
    7.4852   -0.0762   23.8818 C   0  0  0  0  0  0  0  0  0  0  0  0
    7.8303    0.5797   25.2250 C   0  0  0  0  0  0  0  0  0  0  0  0
    8.7633    1.7533   24.9050 C   0  0  0  0  0  0  0  0  0  0  0  0
    8.5926    2.0502   23.4074 C   0  0  2  0  0  0  0  0  0  0  0  0
    7.7992    3.3159   23.1420 C   0  0  0  0  0  0  0  0  0  0  0  0
    8.3961    4.4134   22.5250 C   0  0  0  0  0  0  0  0  0  0  0  0
    7.6647    5.5691   22.2705 C   0  0  0  0  0  0  0  0  0  0  0  0
    6.3281    5.6588   22.6336 C   0  0  0  0  0  0  0  0  0  0  0  0
    5.7667    4.5614   23.2651 C   0  0  0  0  0  0  0  0  0  0  0  0
    4.4685    4.6176   23.6155 F   0  0  0  0  0  0  0  0  0  0  0  0
    6.4670    3.3989   23.5349 C   0  0  0  0  0  0  0  0  0  0  0  0
    5.9562    2.5755   24.0304 H   0  0  0  0  0  0  0  0  0  0  0  0
    5.7336    6.5450   22.4331 H   0  0  0  0  0  0  0  0  0  0  0  0
    8.1384    6.4020   21.7669 H   0  0  0  0  0  0  0  0  0  0  0  0
    9.4398    4.3564   22.2267 H   0  0  0  0  0  0  0  0  0  0  0  0
    9.5675    2.1687   22.9353 H   0  0  0  0  0  0  0  0  0  0  0  0
    8.5333    2.6277   25.5175 H   0  0  0  0  0  0  0  0  0  0  0  0
    9.8008    1.4995   25.1367 H   0  0  0  0  0  0  0  0  0  0  0  0
    8.3013   -0.1275   25.9081 H   0  0  0  0  0  0  0  0  0  0  0  0
    6.9287    0.9269   25.7340 H   0  0  0  0  0  0  0  0  0  0  0  0
    7.9978   -1.0338   23.7588 H   0  0  0  0  0  0  0  0  0  0  0  0
    6.4097   -0.2705   23.8098 H   0  0  0  0  0  0  0  0  0  0  0  0
  1  2  2  0
  2  3  1  0
  3  4  1  0
  4  5  2  0
  5  6  1  0
  6  7  2  0
  7  8  1  0
  8  9  2  0
  9 10  1  0
 10 11  2  0
 11 12  1  0
 12 13  2  0
 12 14  1  0
 11 15  1  0
 10 16  1  0
  9 17  1  0
  7 18  1  0
  5 19  1  0
  3 20  1  0
  3 21  1  0
  2 22  1  0
 22 23  1  0
 23 24  1  0
 24 25  1  0
 25 26  1  0
 26 27  1  0
 27 28  2  0
 28 29  1  0
 29 30  2  0
 30 31  1  0
 31 32  1  0
 31 33  2  0
 33 34  1  0
 30 35  1  0
 29 36  1  0
 28 37  1  0
 26 38  1  6
 25 39  1  0
 25 40  1  0
 24 41  1  0
 24 42  1  0
 23 43  1  0
 23 44  1  0
 13  4  1  0
 26 22  1  0
 33 27  1  0
 13  8  1  0
M  END
>  <cnnaffinities>  (34) 
[5.28065, 5.71487, 5.6986]

>  <score>  (34) 
5.28065

>  <index>  (34) 
33

>  <Smiles>  (34) 
O=C(C(c1c(nc(c2c(c(c(c(c12)[H])[H])[H])[H])[H])[H])([H])[H])N1C(C(C([C@@]1(c1c(c(c(c(F)c1[H])[H])[H])[H])[H])([H])[H])([H])[H])([H])[H]

>  <h>  (34) 
<NA>

>  <Training>  (34) 
True

>  <Success>  (34) 
True

>  <enamine_searched>  (34) 
False

>  <enamine_id>  (34) 
nan

$$$$

     RDKit          3D

 58 63  0  0  0  0  0  0  0  0999 V2000
    6.6998   -2.3088   23.6203 C   0  0  0  0  0  0  0  0  0  0  0  0
    7.7070   -1.8399   22.5550 C   0  0  1  0  0  0  0  0  0  0  0  0
    7.0350   -1.7953   21.1615 C   0  0  0  0  0  0  0  0  0  0  0  0
    6.8771   -0.3892   20.8720 N   0  0  0  0  0  0  0  0  0  0  0  0
    6.1287    0.1075   19.7754 C   0  0  0  0  0  0  0  0  0  0  0  0
    6.4433   -0.2288   18.4829 C   0  0  0  0  0  0  0  0  0  0  0  0
    5.7711    0.2161   17.3913 N   0  0  0  0  0  0  0  0  0  0  0  0
    4.7531    1.0196   17.5935 C   0  0  0  0  0  0  0  0  0  0  0  0
    4.2987    1.4279   18.8791 C   0  0  0  0  0  0  0  0  0  0  0  0
    3.1680    2.2722   19.0583 C   0  0  0  0  0  0  0  0  0  0  0  0
    2.7380    2.6093   20.3127 C   0  0  0  0  0  0  0  0  0  0  0  0
    3.4177    2.1168   21.4503 C   0  0  0  0  0  0  0  0  0  0  0  0
    4.5150    1.3083   21.3022 C   0  0  0  0  0  0  0  0  0  0  0  0
    4.9989    0.9533   20.0127 C   0  0  0  0  0  0  0  0  0  0  0  0
    5.0221    0.9231   22.1807 H   0  0  0  0  0  0  0  0  0  0  0  0
    3.0800    2.3918   22.4468 H   0  0  0  0  0  0  0  0  0  0  0  0
    1.8752    3.2565   20.4428 H   0  0  0  0  0  0  0  0  0  0  0  0
    2.6582    2.6398   18.1721 H   0  0  0  0  0  0  0  0  0  0  0  0
    4.2269    1.3830   16.7105 H   0  0  0  0  0  0  0  0  0  0  0  0
    7.2906   -0.8775   18.2637 H   0  0  0  0  0  0  0  0  0  0  0  0
    7.6818    0.4300   21.6326 C   0  0  0  0  0  0  0  0  0  0  0  0
    7.8625    1.6035   21.4064 O   0  0  0  0  0  0  0  0  0  0  0  0
    8.3336   -0.4172   22.7612 C   0  0  1  0  0  0  0  0  0  0  0  0
    8.0363    0.1668   24.1645 C   0  0  0  0  0  0  0  0  0  0  0  0
    8.7061    1.4307   24.4035 N   0  0  0  0  0  0  0  0  0  0  0  0
    7.9556    2.5655   24.9431 C   0  0  0  0  0  0  0  0  0  0  0  0
    7.5751    3.5950   23.9078 C   0  0  0  0  0  0  0  0  0  0  0  0
    8.3681    4.6216   23.3817 C   0  0  0  0  0  0  0  0  0  0  0  0
    7.6945    5.2369   22.4164 N   0  0  0  0  0  0  0  0  0  0  0  0
    6.5401    4.6054   22.3882 N   0  0  0  0  0  0  0  0  0  0  0  0
    5.5393    4.8831   21.3725 C   0  0  0  0  0  0  0  0  0  0  0  0
    4.5637    4.8452   21.8606 H   0  0  0  0  0  0  0  0  0  0  0  0
    5.7429    5.8841   20.9797 H   0  0  0  0  0  0  0  0  0  0  0  0
    5.5743    4.1285   20.5737 H   0  0  0  0  0  0  0  0  0  0  0  0
    6.3961    3.6279   23.2758 N   0  0  0  0  0  0  0  0  0  0  0  0
    9.3704    4.9206   23.6590 H   0  0  0  0  0  0  0  0  0  0  0  0
    8.5811    3.0336   25.7076 H   0  0  0  0  0  0  0  0  0  0  0  0
    7.0492    2.1795   25.4212 H   0  0  0  0  0  0  0  0  0  0  0  0
   10.0373    1.5954   24.1360 C   0  0  0  0  0  0  0  0  0  0  0  0
   10.6853    2.5350   24.5839 O   0  0  0  0  0  0  0  0  0  0  0  0
   10.6389    0.5724   23.2167 C   0  0  0  0  0  0  0  0  0  0  0  0
   12.0093    0.6413   22.9670 C   0  0  0  0  0  0  0  0  0  0  0  0
   12.6022   -0.2061   22.0543 C   0  0  0  0  0  0  0  0  0  0  0  0
   11.7946   -1.1174   21.3828 C   0  0  0  0  0  0  0  0  0  0  0  0
   12.3327   -1.9031   20.4354 F   0  0  0  0  0  0  0  0  0  0  0  0
   10.4378   -1.2042   21.6036 C   0  0  0  0  0  0  0  0  0  0  0  0
    9.8432   -0.3780   22.5623 C   0  0  0  0  0  0  0  0  0  0  0  0
    9.8773   -1.8926   20.9794 H   0  0  0  0  0  0  0  0  0  0  0  0
   13.6600   -0.1499   21.8306 H   0  0  0  0  0  0  0  0  0  0  0  0
   12.5885    1.3888   23.4966 H   0  0  0  0  0  0  0  0  0  0  0  0
    8.3395   -0.5759   24.9202 H   0  0  0  0  0  0  0  0  0  0  0  0
    6.9656    0.3550   24.2525 H   0  0  0  0  0  0  0  0  0  0  0  0
    6.0558   -2.2892   21.1544 H   0  0  0  0  0  0  0  0  0  0  0  0
    7.6660   -2.2735   20.4087 H   0  0  0  0  0  0  0  0  0  0  0  0
    8.5187   -2.5769   22.5540 H   0  0  0  0  0  0  0  0  0  0  0  0
    5.8375   -1.6352   23.6915 H   0  0  0  0  0  0  0  0  0  0  0  0
    6.3210   -3.3055   23.3625 H   0  0  0  0  0  0  0  0  0  0  0  0
    7.1576   -2.3837   24.6114 H   0  0  0  0  0  0  0  0  0  0  0  0
  1  2  1  0
  2  3  1  0
  3  4  1  0
  4  5  1  0
  5  6  2  0
  6  7  1  0
  7  8  2  0
  8  9  1  0
  9 10  2  0
 10 11  1  0
 11 12  2  0
 12 13  1  0
 13 14  2  0
 13 15  1  0
 12 16  1  0
 11 17  1  0
 10 18  1  0
  8 19  1  0
  6 20  1  0
  4 21  1  0
 21 22  2  0
 21 23  1  0
 23 24  1  1
 24 25  1  0
 25 26  1  0
 26 27  1  0
 27 28  1  0
 28 29  2  0
 29 30  1  0
 30 31  1  0
 31 32  1  0
 31 33  1  0
 31 34  1  0
 30 35  1  0
 28 36  1  0
 26 37  1  0
 26 38  1  0
 25 39  1  0
 39 40  2  0
 39 41  1  0
 41 42  2  0
 42 43  1  0
 43 44  2  0
 44 45  1  0
 44 46  1  0
 46 47  2  0
 46 48  1  0
 43 49  1  0
 42 50  1  0
 24 51  1  0
 24 52  1  0
  3 53  1  0
  3 54  1  0
  2 55  1  6
  1 56  1  0
  1 57  1  0
  1 58  1  0
 23  2  1  0
 35 27  2  0
 47 41  1  0
 14  5  1  0
 47 23  1  0
 14  9  1  0
M  END
>  <cnnaffinities>  (35) 
[6.79912, 6.64452]

>  <score>  (35) 
6.79912

>  <index>  (35) 
34

>  <Smiles>  (35) 
C([C@]1(C(N(c2c(nc(c3c(c(c(c(c23)[H])[H])[H])[H])[H])[H])C(=O)[C@]21C(N(C(c1c(nn(C([H])([H])[H])n1)[H])([H])[H])C(=O)c1c(c(c(F)c(c21)[H])[H])[H])([H])[H])([H])[H])[H])([H])([H])[H]

>  <h>  (35) 
<NA>

>  <Training>  (35) 
True

>  <Success>  (35) 
True

>  <enamine_searched>  (35) 
False

>  <enamine_id>  (35) 
nan

$$$$

     RDKit          3D

 51 54  0  0  0  0  0  0  0  0999 V2000
   13.5360    0.2681   22.3881 N   0  0  0  0  0  0  0  0  0  0  0  0
   13.0711   -0.5971   22.9991 C   0  0  0  0  0  0  0  0  0  0  0  0
   12.4769   -1.6965   23.7809 C   0  0  0  0  0  0  0  0  0  0  0  0
   11.0491   -1.9830   23.3414 C   0  0  0  0  0  0  0  0  0  0  0  0
    9.9662   -1.2987   23.8942 C   0  0  0  0  0  0  0  0  0  0  0  0
    8.6713   -1.5292   23.4375 C   0  0  0  0  0  0  0  0  0  0  0  0
    8.4597   -2.4659   22.4234 C   0  0  0  0  0  0  0  0  0  0  0  0
    7.1445   -2.7554   21.9397 N   0  0  0  0  0  0  0  0  0  0  0  0
    6.5775   -4.0640   22.2734 C   0  0  0  0  0  0  0  0  0  0  0  0
    6.0881   -4.1582   23.7090 C   0  0  0  0  0  0  0  0  0  0  0  0
    4.7359   -3.9728   23.9840 C   0  0  0  0  0  0  0  0  0  0  0  0
    4.2655   -3.9575   25.2964 C   0  0  0  0  0  0  0  0  0  0  0  0
    5.1487   -4.1778   26.3506 C   0  0  0  0  0  0  0  0  0  0  0  0
    6.4885   -4.4164   26.0635 C   0  0  0  0  0  0  0  0  0  0  0  0
    7.6019   -4.7072   27.3748 Cl  0  0  0  0  0  0  0  0  0  0  0  0
    6.9711   -4.4056   24.7593 C   0  0  0  0  0  0  0  0  0  0  0  0
    8.0290   -4.5809   24.5706 H   0  0  0  0  0  0  0  0  0  0  0  0
    4.8213   -4.1695   27.3881 H   0  0  0  0  0  0  0  0  0  0  0  0
    3.2151   -3.7603   25.5063 H   0  0  0  0  0  0  0  0  0  0  0  0
    4.0808   -3.8522   23.1278 H   0  0  0  0  0  0  0  0  0  0  0  0
    5.7471   -4.2282   21.5802 H   0  0  0  0  0  0  0  0  0  0  0  0
    7.3606   -4.8092   22.0997 H   0  0  0  0  0  0  0  0  0  0  0  0
    6.2780   -1.8094   21.4359 C   0  0  0  0  0  0  0  0  0  0  0  0
    5.0727   -2.0097   21.3892 O   0  0  0  0  0  0  0  0  0  0  0  0
    6.9164   -0.5290   20.8836 C   0  0  0  0  0  0  0  0  0  0  0  0
    6.1184    0.0812   19.7619 C   0  0  0  0  0  0  0  0  0  0  0  0
    6.4279   -0.2226   18.4623 C   0  0  0  0  0  0  0  0  0  0  0  0
    5.7624    0.2268   17.3674 N   0  0  0  0  0  0  0  0  0  0  0  0
    4.7413    1.0224   17.5799 C   0  0  0  0  0  0  0  0  0  0  0  0
    4.2923    1.4128   18.8701 C   0  0  0  0  0  0  0  0  0  0  0  0
    3.1739    2.2675   19.0421 C   0  0  0  0  0  0  0  0  0  0  0  0
    2.7530    2.6173   20.2969 C   0  0  0  0  0  0  0  0  0  0  0  0
    3.4369    2.1245   21.4314 C   0  0  0  0  0  0  0  0  0  0  0  0
    4.5230    1.2957   21.2885 C   0  0  0  0  0  0  0  0  0  0  0  0
    4.9881    0.9226   19.9988 C   0  0  0  0  0  0  0  0  0  0  0  0
    5.0286    0.9069   22.1663 H   0  0  0  0  0  0  0  0  0  0  0  0
    3.1006    2.4140   22.4235 H   0  0  0  0  0  0  0  0  0  0  0  0
    1.8978    3.2757   20.4230 H   0  0  0  0  0  0  0  0  0  0  0  0
    2.6745    2.6378   18.1493 H   0  0  0  0  0  0  0  0  0  0  0  0
    4.2151    1.3931   16.6990 H   0  0  0  0  0  0  0  0  0  0  0  0
    7.2760   -0.8717   18.2386 H   0  0  0  0  0  0  0  0  0  0  0  0
    7.0518    0.1825   21.7101 H   0  0  0  0  0  0  0  0  0  0  0  0
    7.9310   -0.7884   20.5548 H   0  0  0  0  0  0  0  0  0  0  0  0
    9.5372   -3.1541   21.8706 C   0  0  0  0  0  0  0  0  0  0  0  0
   10.8336   -2.8822   22.3007 C   0  0  0  0  0  0  0  0  0  0  0  0
   11.7150   -3.3099   21.8256 H   0  0  0  0  0  0  0  0  0  0  0  0
    9.2987   -3.8697   21.0883 H   0  0  0  0  0  0  0  0  0  0  0  0
    7.8164   -0.9984   23.8609 H   0  0  0  0  0  0  0  0  0  0  0  0
   10.1449   -0.5488   24.6623 H   0  0  0  0  0  0  0  0  0  0  0  0
   13.1048   -2.5862   23.6447 H   0  0  0  0  0  0  0  0  0  0  0  0
   12.5262   -1.4329   24.8446 H   0  0  0  0  0  0  0  0  0  0  0  0
  1  2  3  0
  2  3  1  0
  3  4  1  0
  4  5  2  0
  5  6  1  0
  6  7  2  0
  7  8  1  0
  8  9  1  0
  9 10  1  0
 10 11  2  0
 11 12  1  0
 12 13  2  0
 13 14  1  0
 14 15  1  0
 14 16  2  0
 16 17  1  0
 13 18  1  0
 12 19  1  0
 11 20  1  0
  9 21  1  0
  9 22  1  0
  8 23  1  0
 23 24  2  0
 23 25  1  0
 25 26  1  0
 26 27  2  0
 27 28  1  0
 28 29  2  0
 29 30  1  0
 30 31  2  0
 31 32  1  0
 32 33  2  0
 33 34  1  0
 34 35  2  0
 34 36  1  0
 33 37  1  0
 32 38  1  0
 31 39  1  0
 29 40  1  0
 27 41  1  0
 25 42  1  0
 25 43  1  0
  7 44  1  0
 44 45  2  0
 45 46  1  0
 44 47  1  0
  6 48  1  0
  5 49  1  0
  3 50  1  0
  3 51  1  0
 45  4  1  0
 16 10  1  0
 35 26  1  0
 35 30  1  0
M  END
>  <cnnaffinities>  (36) 
[6.84467]

>  <score>  (36) 
6.84467

>  <index>  (36) 
35

>  <Smiles>  (36) 
N#CC(c1c(c(c(N(C(c2c(c(c(c(Cl)c2[H])[H])[H])[H])([H])[H])C(=O)C(c2c(nc(c3c(c(c(c(c23)[H])[H])[H])[H])[H])[H])([H])[H])c(c1[H])[H])[H])[H])([H])[H]

>  <h>  (36) 
<NA>

>  <Training>  (36) 
True

>  <Success>  (36) 
True

>  <enamine_searched>  (36) 
False

>  <enamine_id>  (36) 
nan

$$$$

     RDKit          3D

 59 64  0  0  0  0  0  0  0  0999 V2000
    6.7921   -2.3152   23.5841 C   0  0  0  0  0  0  0  0  0  0  0  0
    7.7836   -1.8365   22.5134 C   0  0  1  0  0  0  0  0  0  0  0  0
    7.1040   -1.7868   21.1263 C   0  0  0  0  0  0  0  0  0  0  0  0
    6.8795   -0.3822   20.8754 N   0  0  0  0  0  0  0  0  0  0  0  0
    6.1272    0.1055   19.7788 C   0  0  0  0  0  0  0  0  0  0  0  0
    6.4416   -0.2302   18.4854 C   0  0  0  0  0  0  0  0  0  0  0  0
    5.7703    0.2155   17.3936 N   0  0  0  0  0  0  0  0  0  0  0  0
    4.7515    1.0184   17.5941 C   0  0  0  0  0  0  0  0  0  0  0  0
    4.2961    1.4220   18.8817 C   0  0  0  0  0  0  0  0  0  0  0  0
    3.1704    2.2734   19.0559 C   0  0  0  0  0  0  0  0  0  0  0  0
    2.7419    2.6116   20.3104 C   0  0  0  0  0  0  0  0  0  0  0  0
    3.4137    2.1093   21.4475 C   0  0  0  0  0  0  0  0  0  0  0  0
    4.5031    1.2893   21.3049 C   0  0  0  0  0  0  0  0  0  0  0  0
    4.9896    0.9424   20.0146 C   0  0  0  0  0  0  0  0  0  0  0  0
    5.0191    0.8987   22.1759 H   0  0  0  0  0  0  0  0  0  0  0  0
    3.0666    2.3871   22.4396 H   0  0  0  0  0  0  0  0  0  0  0  0
    1.8886    3.2713   20.4392 H   0  0  0  0  0  0  0  0  0  0  0  0
    2.6652    2.6477   18.1685 H   0  0  0  0  0  0  0  0  0  0  0  0
    4.2268    1.3831   16.7099 H   0  0  0  0  0  0  0  0  0  0  0  0
    7.2907   -0.8752   18.2644 H   0  0  0  0  0  0  0  0  0  0  0  0
    7.6663    0.4484   21.6470 C   0  0  0  0  0  0  0  0  0  0  0  0
    7.7676    1.6388   21.4677 O   0  0  0  0  0  0  0  0  0  0  0  0
    8.3980   -0.4070   22.7191 C   0  0  1  0  0  0  0  0  0  0  0  0
    8.1695    0.1502   24.1472 C   0  0  0  0  0  0  0  0  0  0  0  0
    8.8179    1.4327   24.3676 N   0  0  0  0  0  0  0  0  0  0  0  0
    8.0763    2.5187   24.9990 C   0  0  0  0  0  0  0  0  0  0  0  0
    7.3608    3.4262   24.0242 C   0  0  0  0  0  0  0  0  0  0  0  0
    5.9769    3.4236   23.7220 C   0  0  0  0  0  0  0  0  0  0  0  0
    5.8482    4.3483   22.7169 C   0  0  0  0  0  0  0  0  0  0  0  0
    7.0695    4.8736   22.5031 N   0  0  0  0  0  0  0  0  0  0  0  0
    7.3565    5.7720   21.4078 C   0  0  0  0  0  0  0  0  0  0  0  0
    6.6554    6.6118   21.4351 H   0  0  0  0  0  0  0  0  0  0  0  0
    8.3809    6.1253   21.5147 H   0  0  0  0  0  0  0  0  0  0  0  0
    7.2356    5.2409   20.4505 H   0  0  0  0  0  0  0  0  0  0  0  0
    8.0037    4.3292   23.2951 N   0  0  0  0  0  0  0  0  0  0  0  0
    5.0403    4.6774   22.0753 H   0  0  0  0  0  0  0  0  0  0  0  0
    5.1991    2.8162   24.1713 H   0  0  0  0  0  0  0  0  0  0  0  0
    7.3359    2.0716   25.6743 H   0  0  0  0  0  0  0  0  0  0  0  0
    8.7957    3.0876   25.5939 H   0  0  0  0  0  0  0  0  0  0  0  0
   10.1105    1.6630   23.9903 C   0  0  0  0  0  0  0  0  0  0  0  0
   10.7435    2.6402   24.3758 O   0  0  0  0  0  0  0  0  0  0  0  0
   10.6944    0.6462   23.0589 C   0  0  0  0  0  0  0  0  0  0  0  0
   12.0534    0.7485   22.7653 C   0  0  0  0  0  0  0  0  0  0  0  0
   12.6428   -0.1267   21.8774 C   0  0  0  0  0  0  0  0  0  0  0  0
   11.8451   -1.0967   21.2819 C   0  0  0  0  0  0  0  0  0  0  0  0
   12.3874   -1.8871   20.3401 F   0  0  0  0  0  0  0  0  0  0  0  0
   10.4930   -1.1995   21.5266 C   0  0  0  0  0  0  0  0  0  0  0  0
    9.9011   -0.3444   22.4612 C   0  0  0  0  0  0  0  0  0  0  0  0
    9.9292   -1.9065   20.9281 H   0  0  0  0  0  0  0  0  0  0  0  0
   13.6842   -0.0453   21.5930 H   0  0  0  0  0  0  0  0  0  0  0  0
   12.6157    1.5465   23.2376 H   0  0  0  0  0  0  0  0  0  0  0  0
    8.5412   -0.5964   24.8684 H   0  0  0  0  0  0  0  0  0  0  0  0
    7.1019    0.2979   24.3098 H   0  0  0  0  0  0  0  0  0  0  0  0
    7.7537   -2.2116   20.3573 H   0  0  0  0  0  0  0  0  0  0  0  0
    6.1503   -2.3240   21.1115 H   0  0  0  0  0  0  0  0  0  0  0  0
    8.6025   -2.5638   22.5015 H   0  0  0  0  0  0  0  0  0  0  0  0
    6.4231   -3.3144   23.3286 H   0  0  0  0  0  0  0  0  0  0  0  0
    7.2585   -2.3861   24.5706 H   0  0  0  0  0  0  0  0  0  0  0  0
    5.9247   -1.6510   23.6614 H   0  0  0  0  0  0  0  0  0  0  0  0
  1  2  1  0
  2  3  1  0
  3  4  1  0
  4  5  1  0
  5  6  2  0
  6  7  1  0
  7  8  2  0
  8  9  1  0
  9 10  2  0
 10 11  1  0
 11 12  2  0
 12 13  1  0
 13 14  2  0
 13 15  1  0
 12 16  1  0
 11 17  1  0
 10 18  1  0
  8 19  1  0
  6 20  1  0
  4 21  1  0
 21 22  2  0
 21 23  1  0
 23 24  1  1
 24 25  1  0
 25 26  1  0
 26 27  1  0
 27 28  1  0
 28 29  2  0
 29 30  1  0
 30 31  1  0
 31 32  1  0
 31 33  1  0
 31 34  1  0
 30 35  1  0
 29 36  1  0
 28 37  1  0
 26 38  1  0
 26 39  1  0
 25 40  1  0
 40 41  2  0
 40 42  1  0
 42 43  2  0
 43 44  1  0
 44 45  2  0
 45 46  1  0
 45 47  1  0
 47 48  2  0
 47 49  1  0
 44 50  1  0
 43 51  1  0
 24 52  1  0
 24 53  1  0
  3 54  1  0
  3 55  1  0
  2 56  1  6
  1 57  1  0
  1 58  1  0
  1 59  1  0
 23  2  1  0
 35 27  2  0
 48 42  1  0
 14  5  1  0
 48 23  1  0
 14  9  1  0
M  END
>  <cnnaffinities>  (37) 
[6.61414]

>  <score>  (37) 
6.61414

>  <index>  (37) 
36

>  <Smiles>  (37) 
C([C@]1(C(N(c2c(nc(c3c(c(c(c(c23)[H])[H])[H])[H])[H])[H])C(=O)[C@]21C(N(C(c1c(c(n(C([H])([H])[H])n1)[H])[H])([H])[H])C(=O)c1c(c(c(F)c(c21)[H])[H])[H])([H])[H])([H])[H])[H])([H])([H])[H]

>  <h>  (37) 
<NA>

>  <Training>  (37) 
True

>  <Success>  (37) 
True

>  <enamine_searched>  (37) 
False

>  <enamine_id>  (37) 
nan

$$$$

     RDKit          3D

 48 51  0  0  0  0  0  0  0  0999 V2000
   13.4109   -1.3700   24.3362 N   0  0  0  0  0  0  0  0  0  0  0  0
   12.3442   -1.5979   23.9492 C   0  0  0  0  0  0  0  0  0  0  0  0
   11.0058   -1.8731   23.4799 C   0  0  0  0  0  0  0  0  0  0  0  0
    9.9105   -1.1598   23.9743 C   0  0  0  0  0  0  0  0  0  0  0  0
    8.6325   -1.4264   23.5045 C   0  0  0  0  0  0  0  0  0  0  0  0
    8.4378   -2.4095   22.5345 C   0  0  0  0  0  0  0  0  0  0  0  0
    7.1338   -2.7135   22.0397 N   0  0  0  0  0  0  0  0  0  0  0  0
    6.5605   -4.0050   22.4283 C   0  0  0  0  0  0  0  0  0  0  0  0
    6.0275   -4.0273   23.8538 C   0  0  0  0  0  0  0  0  0  0  0  0
    6.8587   -4.2310   24.9539 C   0  0  0  0  0  0  0  0  0  0  0  0
    6.3378   -4.1690   26.2457 C   0  0  0  0  0  0  0  0  0  0  0  0
    4.9867   -3.9021   26.4576 C   0  0  0  0  0  0  0  0  0  0  0  0
    4.1598   -3.7380   25.3508 C   0  0  0  0  0  0  0  0  0  0  0  0
    2.4707   -3.4018   25.6424 Cl  0  0  0  0  0  0  0  0  0  0  0  0
    4.6659   -3.8335   24.0561 C   0  0  0  0  0  0  0  0  0  0  0  0
    4.0616   -3.7708   23.1588 H   0  0  0  0  0  0  0  0  0  0  0  0
    4.5702   -3.8372   27.4646 H   0  0  0  0  0  0  0  0  0  0  0  0
    6.9980   -4.3142   27.0982 H   0  0  0  0  0  0  0  0  0  0  0  0
    7.9183   -4.4294   24.7895 H   0  0  0  0  0  0  0  0  0  0  0  0
    7.3475   -4.7570   22.3241 H   0  0  0  0  0  0  0  0  0  0  0  0
    5.7527   -4.2249   21.7224 H   0  0  0  0  0  0  0  0  0  0  0  0
    6.2834   -1.7945   21.4620 C   0  0  0  0  0  0  0  0  0  0  0  0
    5.0863   -2.0029   21.3918 O   0  0  0  0  0  0  0  0  0  0  0  0
    6.9277   -0.5179   20.8845 C   0  0  0  0  0  0  0  0  0  0  0  0
    6.1166    0.0803   19.7651 C   0  0  0  0  0  0  0  0  0  0  0  0
    6.4255   -0.2184   18.4657 C   0  0  0  0  0  0  0  0  0  0  0  0
    5.7585    0.2305   17.3705 N   0  0  0  0  0  0  0  0  0  0  0  0
    4.7382    1.0246   17.5804 C   0  0  0  0  0  0  0  0  0  0  0  0
    4.2895    1.4159   18.8704 C   0  0  0  0  0  0  0  0  0  0  0  0
    3.1692    2.2692   19.0437 C   0  0  0  0  0  0  0  0  0  0  0  0
    2.7495    2.6184   20.2969 C   0  0  0  0  0  0  0  0  0  0  0  0
    3.4353    2.1269   21.4318 C   0  0  0  0  0  0  0  0  0  0  0  0
    4.5226    1.3004   21.2885 C   0  0  0  0  0  0  0  0  0  0  0  0
    4.9877    0.9260   19.9988 C   0  0  0  0  0  0  0  0  0  0  0  0
    5.0307    0.9136   22.1668 H   0  0  0  0  0  0  0  0  0  0  0  0
    3.0974    2.4136   22.4246 H   0  0  0  0  0  0  0  0  0  0  0  0
    1.8934    3.2759   20.4261 H   0  0  0  0  0  0  0  0  0  0  0  0
    2.6670    2.6389   18.1530 H   0  0  0  0  0  0  0  0  0  0  0  0
    4.2123    1.3943   16.6986 H   0  0  0  0  0  0  0  0  0  0  0  0
    7.2722   -0.8667   18.2372 H   0  0  0  0  0  0  0  0  0  0  0  0
    7.9359   -0.7847   20.5434 H   0  0  0  0  0  0  0  0  0  0  0  0
    7.0776    0.2080   21.6984 H   0  0  0  0  0  0  0  0  0  0  0  0
    9.5232   -3.1339   22.0529 C   0  0  0  0  0  0  0  0  0  0  0  0
   10.8055   -2.8599   22.5120 C   0  0  0  0  0  0  0  0  0  0  0  0
   11.6817   -3.3710   22.1370 H   0  0  0  0  0  0  0  0  0  0  0  0
    9.3081   -3.8854   21.2996 H   0  0  0  0  0  0  0  0  0  0  0  0
    7.7762   -0.8914   23.9092 H   0  0  0  0  0  0  0  0  0  0  0  0
   10.0715   -0.3903   24.7192 H   0  0  0  0  0  0  0  0  0  0  0  0
  1  2  3  0
  2  3  1  0
  3  4  2  0
  4  5  1  0
  5  6  2  0
  6  7  1  0
  7  8  1  0
  8  9  1  0
  9 10  2  0
 10 11  1  0
 11 12  2  0
 12 13  1  0
 13 14  1  0
 13 15  2  0
 15 16  1  0
 12 17  1  0
 11 18  1  0
 10 19  1  0
  8 20  1  0
  8 21  1  0
  7 22  1  0
 22 23  2  0
 22 24  1  0
 24 25  1  0
 25 26  2  0
 26 27  1  0
 27 28  2  0
 28 29  1  0
 29 30  2  0
 30 31  1  0
 31 32  2  0
 32 33  1  0
 33 34  2  0
 33 35  1  0
 32 36  1  0
 31 37  1  0
 30 38  1  0
 28 39  1  0
 26 40  1  0
 24 41  1  0
 24 42  1  0
  6 43  1  0
 43 44  2  0
 44 45  1  0
 43 46  1  0
  5 47  1  0
  4 48  1  0
 44  3  1  0
 15  9  1  0
 34 25  1  0
 34 29  1  0
M  END
>  <cnnaffinities>  (38) 
[6.43071, 6.06678, 6.06633]

>  <score>  (38) 
6.43071

>  <index>  (38) 
37

>  <Smiles>  (38) 
N#Cc1c(c(c(N(C(c2c(c(c(c(Cl)c2[H])[H])[H])[H])([H])[H])C(=O)C(c2c(nc(c3c(c(c(c(c23)[H])[H])[H])[H])[H])[H])([H])[H])c(c1[H])[H])[H])[H]

>  <h>  (38) 
<NA>

>  <Training>  (38) 
True

>  <Success>  (38) 
True

>  <enamine_searched>  (38) 
False

>  <enamine_id>  (38) 
nan

$$$$

     RDKit          3D

 72 77  0  0  0  0  0  0  0  0999 V2000
    4.9226   -7.6414   20.1342 C   0  0  0  0  0  0  0  0  0  0  0  0
    5.4290   -6.3366   19.6580 N   0  0  0  0  0  4  0  0  0  0  0  0
    5.5602   -5.3065   20.7390 C   0  0  0  0  0  0  0  0  0  0  0  0
    6.7706   -5.5428   21.6532 C   0  0  0  0  0  0  0  0  0  0  0  0
    6.9306   -4.4371   22.5773 N   0  0  0  0  0  0  0  0  0  0  0  0
    7.9127   -3.4116   22.3098 C   0  0  0  0  0  0  0  0  0  0  0  0
    7.4081   -1.9870   22.6559 C   0  0  2  0  0  0  0  0  0  0  0  0
    6.2763   -1.5854   21.6635 C   0  0  0  0  0  0  0  0  0  0  0  0
    5.1597   -2.0621   21.6027 O   0  0  0  0  0  0  0  0  0  0  0  0
    6.7533   -0.6013   20.8198 N   0  0  0  0  0  0  0  0  0  0  0  0
    6.0220   -0.0313   19.7509 C   0  0  0  0  0  0  0  0  0  0  0  0
    6.4154   -0.2681   18.4577 C   0  0  0  0  0  0  0  0  0  0  0  0
    5.7970    0.2209   17.3554 N   0  0  0  0  0  0  0  0  0  0  0  0
    4.7707    1.0148   17.5459 C   0  0  0  0  0  0  0  0  0  0  0  0
    4.2846    1.3878   18.8322 C   0  0  0  0  0  0  0  0  0  0  0  0
    3.1912    2.2829   18.9800 C   0  0  0  0  0  0  0  0  0  0  0  0
    2.7827    2.6740   20.2257 C   0  0  0  0  0  0  0  0  0  0  0  0
    3.4475    2.1946   21.3769 C   0  0  0  0  0  0  0  0  0  0  0  0
    4.4978    1.3147   21.2614 C   0  0  0  0  0  0  0  0  0  0  0  0
    4.9323    0.8738   19.9791 C   0  0  0  0  0  0  0  0  0  0  0  0
    5.0158    0.9591   22.1474 H   0  0  0  0  0  0  0  0  0  0  0  0
    3.1278    2.5352   22.3579 H   0  0  0  0  0  0  0  0  0  0  0  0
    1.9525    3.3672   20.3375 H   0  0  0  0  0  0  0  0  0  0  0  0
    2.7059    2.6600   18.0827 H   0  0  0  0  0  0  0  0  0  0  0  0
    4.2748    1.4139   16.6597 H   0  0  0  0  0  0  0  0  0  0  0  0
    7.2746   -0.9089   18.2665 H   0  0  0  0  0  0  0  0  0  0  0  0
    8.1841   -0.4153   20.9240 C   0  0  0  0  0  0  0  0  0  0  0  0
    8.5049   -0.9246   22.3386 C   0  0  2  0  0  0  0  0  0  0  0  0
    9.9660   -1.3730   22.4354 C   0  0  0  0  0  0  0  0  0  0  0  0
   10.8201   -0.2643   22.3636 O   0  0  0  0  0  0  0  0  0  0  0  0
   11.3370   -0.0092   23.6420 C   0  0  0  0  0  0  0  0  0  0  0  0
   11.9656    1.3187   23.4937 C   0  0  0  0  0  0  0  0  0  0  0  0
   10.9957    2.3010   23.4010 C   0  0  0  0  0  0  0  0  0  0  0  0
   10.7551    3.8696   24.2410 S   0  0  0  0  0  0  0  0  0  0  0  0
   11.8733    4.7814   24.1276 O   0  0  0  0  0  0  0  0  0  0  0  0
    9.3822    4.2404   24.5311 O   0  0  0  0  0  0  0  0  0  0  0  0
   12.1351    1.3010   23.7973 C   0  0  0  0  0  0  0  0  0  0  0  0
   13.2206    1.2065   24.5130 H   0  0  0  0  0  0  0  0  0  0  0  0
   12.1006    1.2800   25.0253 H   0  0  0  0  0  0  0  0  0  0  0  0
   11.1587    2.4895   22.3503 H   0  0  0  0  0  0  0  0  0  0  0  0
   10.0448    1.7881   23.3766 H   0  0  0  0  0  0  0  0  0  0  0  0
   13.0402    1.5221   22.6235 H   0  0  0  0  0  0  0  0  0  0  0  0
   10.4910    0.0846   24.3399 H   0  0  0  0  0  0  0  0  0  0  0  0
   11.9483   -0.8859   23.9080 H   0  0  0  0  0  0  0  0  0  0  0  0
   10.2100   -2.0460   21.6002 H   0  0  0  0  0  0  0  0  0  0  0  0
   10.1497   -1.9255   23.3724 H   0  0  0  0  0  0  0  0  0  0  0  0
    8.3757   -0.0834   23.0252 H   0  0  0  0  0  0  0  0  0  0  0  0
    8.4314    0.6396   20.7853 H   0  0  0  0  0  0  0  0  0  0  0  0
    8.7364   -0.9887   20.1623 H   0  0  0  0  0  0  0  0  0  0  0  0
    6.9118   -2.0469   24.0950 C   0  0  0  0  0  0  0  0  0  0  0  0
    6.9392   -0.9389   24.9519 C   0  0  0  0  0  0  0  0  0  0  0  0
    6.4818   -1.0584   26.2536 C   0  0  0  0  0  0  0  0  0  0  0  0
    6.5229    0.3372   27.2937 Cl  0  0  0  0  0  0  0  0  0  0  0  0
    5.9674   -2.2523   26.7539 C   0  0  0  0  0  0  0  0  0  0  0  0
    5.8906   -3.3347   25.9018 C   0  0  0  0  0  0  0  0  0  0  0  0
    6.3498   -3.2366   24.5910 C   0  0  0  0  0  0  0  0  0  0  0  0
    6.1985   -4.4472   23.7230 C   0  0  0  0  0  0  0  0  0  0  0  0
    5.4601   -5.3800   24.0230 O   0  0  0  0  0  0  0  0  0  0  0  0
    5.4692   -4.2805   26.2237 H   0  0  0  0  0  0  0  0  0  0  0  0
    5.6242   -2.3131   27.7815 H   0  0  0  0  0  0  0  0  0  0  0  0
    7.2914    0.0308   24.6199 H   0  0  0  0  0  0  0  0  0  0  0  0
    8.8273   -3.6133   22.8830 H   0  0  0  0  0  0  0  0  0  0  0  0
    8.1591   -3.4415   21.2512 H   0  0  0  0  0  0  0  0  0  0  0  0
    7.7007   -5.6264   21.0755 H   0  0  0  0  0  0  0  0  0  0  0  0
    6.6488   -6.4498   22.2561 H   0  0  0  0  0  0  0  0  0  0  0  0
    4.6586   -5.3217   21.3534 H   0  0  0  0  0  0  0  0  0  0  0  0
    5.6289   -4.3275   20.2714 H   0  0  0  0  0  0  0  0  0  0  0  0
    6.3885   -6.4767   19.2659 H   0  0  0  0  0  0  0  0  0  0  0  0
    4.8017   -6.0073   18.9009 H   0  0  0  0  0  0  0  0  0  0  0  0
    4.1960   -7.5022   20.9348 H   0  0  0  0  0  0  0  0  0  0  0  0
    4.4553   -8.1775   19.3102 H   0  0  0  0  0  0  0  0  0  0  0  0
    5.7146   -8.2696   20.5387 H   0  0  0  0  0  0  0  0  0  0  0  0
  1  2  1  0
  2  3  1  0
  3  4  1  0
  4  5  1  0
  5  6  1  0
  7  6  1  6
  7  8  1  0
  8  9  2  0
  8 10  1  0
 10 11  1  0
 11 12  2  0
 12 13  1  0
 13 14  2  0
 14 15  1  0
 15 16  2  0
 16 17  1  0
 17 18  2  0
 18 19  1  0
 19 20  2  0
 19 21  1  0
 18 22  1  0
 17 23  1  0
 16 24  1  0
 14 25  1  0
 12 26  1  0
 10 27  1  0
 27 28  1  0
 28 29  1  0
 29 30  1  0
 30 31  1  0
 31 32  1  0
 32 33  1  0
 33 34  1  0
 34 35  2  0
 34 36  2  0
 34 37  1  0
 37 38  1  0
 37 39  1  0
 33 40  1  0
 33 41  1  0
 32 42  1  0
 31 43  1  0
 31 44  1  0
 29 45  1  0
 29 46  1  0
 28 47  1  1
 27 48  1  0
 27 49  1  0
  7 50  1  0
 50 51  2  0
 51 52  1  0
 52 53  1  0
 52 54  2  0
 54 55  1  0
 55 56  2  0
 56 57  1  0
 57 58  2  0
 55 59  1  0
 54 60  1  0
 51 61  1  0
  6 62  1  0
  6 63  1  0
  4 64  1  0
  4 65  1  0
  3 66  1  0
  3 67  1  0
  2 68  1  0
  2 69  1  0
  1 70  1  0
  1 71  1  0
  1 72  1  0
 57  5  1  0
 28  7  1  0
 37 32  1  0
 56 50  1  0
 20 11  1  0
 20 15  1  0
M  CHG  1   2   1
M  END
>  <cnnaffinities>  (39) 
[6.4094]

>  <score>  (39) 
6.4094

>  <index>  (39) 
38

>  <Smiles>  (39) 
C([N+](C(C(N1C([C@@]2(C(=O)N(c3c(nc(c4c(c(c(c(c34)[H])[H])[H])[H])[H])[H])C([C@@]2(C(OC(C2(C(S(=O)(=O)C2([H])[H])([H])[H])[H])([H])[H])([H])[H])[H])([H])[H])c2c(c(Cl)c(c(c2C1=O)[H])[H])[H])([H])[H])([H])[H])([H])[H])([H])[H])([H])([H])[H]

>  <h>  (39) 
<NA>

>  <Training>  (39) 
True

>  <Success>  (39) 
True

>  <enamine_searched>  (39) 
False

>  <enamine_id>  (39) 
nan

$$$$

     RDKit          3D

 60 64  0  0  0  0  0  0  0  0999 V2000
   11.4743   -0.5255   23.7625 C   0  0  0  0  0  0  0  0  0  0  0  0
   10.4837   -1.6648   23.5677 C   0  0  0  0  0  0  0  0  0  0  0  0
    9.8288   -1.5560   22.3148 O   0  0  0  0  0  0  0  0  0  0  0  0
    8.5527   -0.9647   22.3396 C   0  0  1  0  0  0  0  0  0  0  0  0
    8.2777   -0.4128   20.9481 C   0  0  0  0  0  0  0  0  0  0  0  0
    6.8361   -0.4860   20.8487 N   0  0  0  0  0  0  0  0  0  0  0  0
    6.1084    0.0687   19.7778 C   0  0  0  0  0  0  0  0  0  0  0  0
    6.4621   -0.2208   18.4845 C   0  0  0  0  0  0  0  0  0  0  0  0
    5.8047    0.2247   17.3871 N   0  0  0  0  0  0  0  0  0  0  0  0
    4.7717    1.0076   17.5940 C   0  0  0  0  0  0  0  0  0  0  0  0
    4.3144    1.4049   18.8828 C   0  0  0  0  0  0  0  0  0  0  0  0
    3.1979    2.2661   19.0390 C   0  0  0  0  0  0  0  0  0  0  0  0
    2.7887    2.6510   20.2848 C   0  0  0  0  0  0  0  0  0  0  0  0
    3.4789    2.2047   21.4325 C   0  0  0  0  0  0  0  0  0  0  0  0
    4.5631    1.3733   21.3100 C   0  0  0  0  0  0  0  0  0  0  0  0
    4.9982    0.9371   20.0236 C   0  0  0  0  0  0  0  0  0  0  0  0
    5.0883    1.0425   22.2014 H   0  0  0  0  0  0  0  0  0  0  0  0
    3.1520    2.5337   22.4158 H   0  0  0  0  0  0  0  0  0  0  0  0
    1.9383    3.3172   20.3995 H   0  0  0  0  0  0  0  0  0  0  0  0
    2.6918    2.6184   18.1445 H   0  0  0  0  0  0  0  0  0  0  0  0
    4.2358    1.3758   16.7193 H   0  0  0  0  0  0  0  0  0  0  0  0
    7.3109   -0.8780   18.2978 H   0  0  0  0  0  0  0  0  0  0  0  0
    6.2888   -1.4535   21.6671 C   0  0  0  0  0  0  0  0  0  0  0  0
    5.1550   -1.8680   21.5707 O   0  0  0  0  0  0  0  0  0  0  0  0
    7.3733   -1.9288   22.6664 C   0  0  1  0  0  0  0  0  0  0  0  0
    7.7494   -3.4041   22.3666 C   0  0  0  0  0  0  0  0  0  0  0  0
    6.6965   -4.3192   22.7840 N   0  0  0  0  0  0  0  0  0  0  0  0
    6.1259   -5.2849   21.8563 C   0  0  0  0  0  0  0  0  0  0  0  0
    6.9861   -6.5444   21.7582 C   0  0  0  0  0  0  0  0  0  0  0  0
    7.7403   -6.7492   20.8202 O   0  0  0  0  0  0  0  0  0  0  0  0
    6.8509   -7.4046   22.8095 N   0  0  0  0  0  0  0  0  0  0  0  0
    7.7827   -8.5038   22.9472 C   0  0  0  0  0  0  0  0  0  0  0  0
    8.7707   -8.1767   23.3048 H   0  0  0  0  0  0  0  0  0  0  0  0
    7.9131   -8.9892   21.9811 H   0  0  0  0  0  0  0  0  0  0  0  0
    7.3842   -9.2466   23.6419 H   0  0  0  0  0  0  0  0  0  0  0  0
    6.3316   -7.0935   23.6237 H   0  0  0  0  0  0  0  0  0  0  0  0
    5.1174   -5.5470   22.2109 H   0  0  0  0  0  0  0  0  0  0  0  0
    6.0619   -4.8037   20.8745 H   0  0  0  0  0  0  0  0  0  0  0  0
    6.2091   -4.2812   24.0527 C   0  0  0  0  0  0  0  0  0  0  0  0
    5.6103   -5.2399   24.5405 O   0  0  0  0  0  0  0  0  0  0  0  0
    6.3803   -2.9791   24.7661 C   0  0  0  0  0  0  0  0  0  0  0  0
    5.9417   -2.8970   26.0862 C   0  0  0  0  0  0  0  0  0  0  0  0
    5.9364   -1.6899   26.7548 C   0  0  0  0  0  0  0  0  0  0  0  0
    6.3655   -0.5582   26.0652 C   0  0  0  0  0  0  0  0  0  0  0  0
    6.3090    0.9881   26.8559 Cl  0  0  0  0  0  0  0  0  0  0  0  0
    6.8312   -0.6231   24.7663 C   0  0  0  0  0  0  0  0  0  0  0  0
    6.8732   -1.8502   24.0962 C   0  0  0  0  0  0  0  0  0  0  0  0
    7.1497    0.2924   24.2824 H   0  0  0  0  0  0  0  0  0  0  0  0
    5.5941   -1.6063   27.7820 H   0  0  0  0  0  0  0  0  0  0  0  0
    5.5873   -3.8014   26.5648 H   0  0  0  0  0  0  0  0  0  0  0  0
    8.7092   -3.6261   22.8550 H   0  0  0  0  0  0  0  0  0  0  0  0
    7.9109   -3.5343   21.3031 H   0  0  0  0  0  0  0  0  0  0  0  0
    8.6196    0.6206   20.8429 H   0  0  0  0  0  0  0  0  0  0  0  0
    8.8063   -1.0405   20.2203 H   0  0  0  0  0  0  0  0  0  0  0  0
    8.5368   -0.1313   23.0512 H   0  0  0  0  0  0  0  0  0  0  0  0
    9.7502   -1.7069   24.3933 H   0  0  0  0  0  0  0  0  0  0  0  0
   11.0181   -2.6228   23.5457 H   0  0  0  0  0  0  0  0  0  0  0  0
   12.2157   -0.5318   22.9566 H   0  0  0  0  0  0  0  0  0  0  0  0
   11.9967   -0.6394   24.7182 H   0  0  0  0  0  0  0  0  0  0  0  0
   10.9701    0.4477   23.7560 H   0  0  0  0  0  0  0  0  0  0  0  0
  1  2  1  0
  2  3  1  0
  3  4  1  0
  4  5  1  0
  5  6  1  0
  6  7  1  0
  7  8  2  0
  8  9  1  0
  9 10  2  0
 10 11  1  0
 11 12  2  0
 12 13  1  0
 13 14  2  0
 14 15  1  0
 15 16  2  0
 15 17  1  0
 14 18  1  0
 13 19  1  0
 12 20  1  0
 10 21  1  0
  8 22  1  0
  6 23  1  0
 23 24  2  0
 23 25  1  0
 25 26  1  6
 26 27  1  0
 27 28  1  0
 28 29  1  0
 29 30  2  0
 29 31  1  0
 31 32  1  0
 32 33  1  0
 32 34  1  0
 32 35  1  0
 31 36  1  0
 28 37  1  0
 28 38  1  0
 27 39  1  0
 39 40  2  0
 39 41  1  0
 41 42  2  0
 42 43  1  0
 43 44  2  0
 44 45  1  0
 44 46  1  0
 46 47  2  0
 46 48  1  0
 43 49  1  0
 42 50  1  0
 26 51  1  0
 26 52  1  0
  5 53  1  0
  5 54  1  0
  4 55  1  1
  2 56  1  0
  2 57  1  0
  1 58  1  0
  1 59  1  0
  1 60  1  0
 25  4  1  0
 47 41  1  0
 16  7  1  0
 47 25  1  0
 16 11  1  0
M  END
>  <cnnaffinities>  (40) 
[6.66193]

>  <score>  (40) 
6.66193

>  <index>  (40) 
39

>  <Smiles>  (40) 
C(C(O[C@]1(C(N(c2c(nc(c3c(c(c(c(c23)[H])[H])[H])[H])[H])[H])C(=O)[C@]21C(N(C(C(=O)N(C([H])([H])[H])[H])([H])[H])C(=O)c1c(c(c(Cl)c(c21)[H])[H])[H])([H])[H])([H])[H])[H])([H])[H])([H])([H])[H]

>  <h>  (40) 
<NA>

>  <Training>  (40) 
True

>  <Success>  (40) 
True

>  <enamine_searched>  (40) 
False

>  <enamine_id>  (40) 
nan

$$$$

     RDKit          3D

 57 61  0  0  0  0  0  0  0  0999 V2000
    7.8068   -8.4507   22.9584 C   0  0  0  0  0  0  0  0  0  0  0  0
    6.8238   -7.4319   22.6482 N   0  0  0  0  0  0  0  0  0  0  0  0
    7.0659   -6.5559   21.6298 C   0  0  0  0  0  0  0  0  0  0  0  0
    7.9299   -6.7319   20.7830 O   0  0  0  0  0  0  0  0  0  0  0  0
    6.1997   -5.2893   21.6648 C   0  0  0  0  0  0  0  0  0  0  0  0
    6.7069   -4.3433   22.6456 N   0  0  0  0  0  0  0  0  0  0  0  0
    7.7581   -3.4078   22.2908 C   0  0  0  0  0  0  0  0  0  0  0  0
    7.3850   -1.9477   22.6424 C   0  0  2  0  0  0  0  0  0  0  0  0
    6.2953   -1.4468   21.6649 C   0  0  0  0  0  0  0  0  0  0  0  0
    5.1512   -1.8452   21.5789 O   0  0  0  0  0  0  0  0  0  0  0  0
    6.8429   -0.4728   20.8565 N   0  0  0  0  0  0  0  0  0  0  0  0
    6.1164    0.0765   19.7841 C   0  0  0  0  0  0  0  0  0  0  0  0
    6.4674   -0.2225   18.4921 C   0  0  0  0  0  0  0  0  0  0  0  0
    5.8079    0.2178   17.3941 N   0  0  0  0  0  0  0  0  0  0  0  0
    4.7754    1.0034   17.5987 C   0  0  0  0  0  0  0  0  0  0  0  0
    4.3173    1.4037   18.8884 C   0  0  0  0  0  0  0  0  0  0  0  0
    3.2006    2.2661   19.0436 C   0  0  0  0  0  0  0  0  0  0  0  0
    2.7900    2.6515   20.2896 C   0  0  0  0  0  0  0  0  0  0  0  0
    3.4786    2.2044   21.4376 C   0  0  0  0  0  0  0  0  0  0  0  0
    4.5638    1.3724   21.3163 C   0  0  0  0  0  0  0  0  0  0  0  0
    5.0027    0.9386   20.0299 C   0  0  0  0  0  0  0  0  0  0  0  0
    5.0873    1.0417   22.2081 H   0  0  0  0  0  0  0  0  0  0  0  0
    3.1511    2.5336   22.4195 H   0  0  0  0  0  0  0  0  0  0  0  0
    1.9390    3.3156   20.4021 H   0  0  0  0  0  0  0  0  0  0  0  0
    2.6956    2.6173   18.1478 H   0  0  0  0  0  0  0  0  0  0  0  0
    4.2415    1.3741   16.7225 H   0  0  0  0  0  0  0  0  0  0  0  0
    7.3115   -0.8858   18.3092 H   0  0  0  0  0  0  0  0  0  0  0  0
    8.2835   -0.3884   20.9649 C   0  0  0  0  0  0  0  0  0  0  0  0
    8.5587   -0.9679   22.3552 C   0  0  2  0  0  0  0  0  0  0  0  0
    9.9823   -1.5366   22.4690 C   0  0  0  0  0  0  0  0  0  0  0  0
   10.9971   -0.4843   22.3120 C   0  0  0  0  0  0  0  0  0  0  0  0
   11.7851    0.3538   22.1910 N   0  0  0  0  0  0  0  0  0  0  0  0
   10.1593   -2.2858   21.6900 H   0  0  0  0  0  0  0  0  0  0  0  0
   10.1464   -2.0155   23.4394 H   0  0  0  0  0  0  0  0  0  0  0  0
    8.4869   -0.1503   23.0706 H   0  0  0  0  0  0  0  0  0  0  0  0
    8.7974   -0.9767   20.1898 H   0  0  0  0  0  0  0  0  0  0  0  0
    8.6148    0.6499   20.8764 H   0  0  0  0  0  0  0  0  0  0  0  0
    6.8784   -1.9431   24.0718 C   0  0  0  0  0  0  0  0  0  0  0  0
    6.8396   -0.7559   24.8071 C   0  0  0  0  0  0  0  0  0  0  0  0
    6.3651   -0.7615   26.1039 C   0  0  0  0  0  0  0  0  0  0  0  0
    6.2951    0.7391   26.9736 Cl  0  0  0  0  0  0  0  0  0  0  0  0
    5.9346   -1.9291   26.7300 C   0  0  0  0  0  0  0  0  0  0  0  0
    5.9393   -3.0979   25.9993 C   0  0  0  0  0  0  0  0  0  0  0  0
    6.3729   -3.1025   24.6784 C   0  0  0  0  0  0  0  0  0  0  0  0
    6.1969   -4.3657   23.9067 C   0  0  0  0  0  0  0  0  0  0  0  0
    5.5795   -5.3392   24.3478 O   0  0  0  0  0  0  0  0  0  0  0  0
    5.5964   -4.0368   26.4154 H   0  0  0  0  0  0  0  0  0  0  0  0
    5.5940   -1.9046   27.7583 H   0  0  0  0  0  0  0  0  0  0  0  0
    7.1850    0.1804   24.3848 H   0  0  0  0  0  0  0  0  0  0  0  0
    8.6895   -3.6666   22.8114 H   0  0  0  0  0  0  0  0  0  0  0  0
    7.9361   -3.4984   21.2249 H   0  0  0  0  0  0  0  0  0  0  0  0
    5.1841   -5.5611   21.9692 H   0  0  0  0  0  0  0  0  0  0  0  0
    6.1567   -4.7926   20.6828 H   0  0  0  0  0  0  0  0  0  0  0  0
    6.1422   -7.1909   23.3624 H   0  0  0  0  0  0  0  0  0  0  0  0
    7.3365   -9.2211   23.5740 H   0  0  0  0  0  0  0  0  0  0  0  0
    8.1451   -8.8987   22.0260 H   0  0  0  0  0  0  0  0  0  0  0  0
    8.6849   -8.0228   23.4667 H   0  0  0  0  0  0  0  0  0  0  0  0
  1  2  1  0
  2  3  1  0
  3  4  2  0
  3  5  1  0
  5  6  1  0
  6  7  1  0
  8  7  1  6
  8  9  1  0
  9 10  2  0
  9 11  1  0
 11 12  1  0
 12 13  2  0
 13 14  1  0
 14 15  2  0
 15 16  1  0
 16 17  2  0
 17 18  1  0
 18 19  2  0
 19 20  1  0
 20 21  2  0
 20 22  1  0
 19 23  1  0
 18 24  1  0
 17 25  1  0
 15 26  1  0
 13 27  1  0
 11 28  1  0
 28 29  1  0
 29 30  1  0
 30 31  1  0
 31 32  3  0
 30 33  1  0
 30 34  1  0
 29 35  1  1
 28 36  1  0
 28 37  1  0
  8 38  1  0
 38 39  2  0
 39 40  1  0
 40 41  1  0
 40 42  2  0
 42 43  1  0
 43 44  2  0
 44 45  1  0
 45 46  2  0
 43 47  1  0
 42 48  1  0
 39 49  1  0
  7 50  1  0
  7 51  1  0
  5 52  1  0
  5 53  1  0
  2 54  1  0
  1 55  1  0
  1 56  1  0
  1 57  1  0
 45  6  1  0
 29  8  1  0
 44 38  1  0
 21 12  1  0
 21 16  1  0
M  END
>  <cnnaffinities>  (41) 
[7.15541]

>  <score>  (41) 
7.15541

>  <index>  (41) 
40

>  <Smiles>  (41) 
C(N(C(=O)C(N1C([C@@]2(C(=O)N(c3c(nc(c4c(c(c(c(c34)[H])[H])[H])[H])[H])[H])C([C@@]2(C(C#N)([H])[H])[H])([H])[H])c2c(c(Cl)c(c(c2C1=O)[H])[H])[H])([H])[H])([H])[H])[H])([H])([H])[H]

>  <h>  (41) 
<NA>

>  <Training>  (41) 
True

>  <Success>  (41) 
True

>  <enamine_searched>  (41) 
False

>  <enamine_id>  (41) 
nan

$$$$

     RDKit          3D

 68 73  0  0  0  0  0  0  0  0999 V2000
    7.1302   -2.4712   23.4523 C   0  0  0  0  0  0  0  0  0  0  0  0
    8.0055   -1.7816   22.3993 C   0  0  1  0  0  0  0  0  0  0  0  0
    7.3010   -1.7157   21.0280 C   0  0  0  0  0  0  0  0  0  0  0  0
    6.9324   -0.3260   20.8654 N   0  0  0  0  0  0  0  0  0  0  0  0
    6.1481    0.1266   19.7838 C   0  0  0  0  0  0  0  0  0  0  0  0
    6.4477   -0.2323   18.4923 C   0  0  0  0  0  0  0  0  0  0  0  0
    5.7747    0.2055   17.4008 N   0  0  0  0  0  0  0  0  0  0  0  0
    4.7612    1.0138   17.6024 C   0  0  0  0  0  0  0  0  0  0  0  0
    4.3111    1.4203   18.8911 C   0  0  0  0  0  0  0  0  0  0  0  0
    3.1886    2.2762   19.0569 C   0  0  0  0  0  0  0  0  0  0  0  0
    2.7534    2.6201   20.3082 C   0  0  0  0  0  0  0  0  0  0  0  0
    3.4168    2.1205   21.4528 C   0  0  0  0  0  0  0  0  0  0  0  0
    4.5102    1.3029   21.3177 C   0  0  0  0  0  0  0  0  0  0  0  0
    5.0046    0.9502   20.0271 C   0  0  0  0  0  0  0  0  0  0  0  0
    5.0146    0.9242   22.2014 H   0  0  0  0  0  0  0  0  0  0  0  0
    3.0746    2.4078   22.4450 H   0  0  0  0  0  0  0  0  0  0  0  0
    1.9018    3.2834   20.4327 H   0  0  0  0  0  0  0  0  0  0  0  0
    2.6923    2.6508   18.1654 H   0  0  0  0  0  0  0  0  0  0  0  0
    4.2335    1.3777   16.7201 H   0  0  0  0  0  0  0  0  0  0  0  0
    7.2958   -0.8833   18.2814 H   0  0  0  0  0  0  0  0  0  0  0  0
    7.6358    0.5258   21.6834 C   0  0  0  0  0  0  0  0  0  0  0  0
    7.6112    1.7421   21.6025 O   0  0  0  0  0  0  0  0  0  0  0  0
    8.4410   -0.3118   22.7043 C   0  0  1  0  0  0  0  0  0  0  0  0
    8.1226    0.1337   24.1404 C   0  0  0  0  0  0  0  0  0  0  0  0
    8.6089    1.4703   24.4218 N   0  0  0  0  0  0  0  0  0  0  0  0
    7.7777    2.3174   25.2531 C   0  0  0  0  0  0  0  0  0  0  0  0
    6.7452    3.0926   24.4392 C   0  0  0  0  0  0  0  0  0  0  0  0
    7.3669    4.1662   23.5939 N   0  0  0  0  0  4  0  0  0  0  0  0
    7.9186    5.2921   24.4554 C   0  0  0  0  0  0  0  0  0  0  0  0
    8.0223    6.6212   23.7143 C   0  0  0  0  0  0  0  0  0  0  0  0
    6.4050    7.2576   23.2629 S   0  0  0  0  0  0  0  0  0  0  0  0
    5.8245    7.8874   24.4469 O   0  0  0  0  0  0  0  0  0  0  0  0
    6.5445    8.0023   22.0158 O   0  0  0  0  0  0  0  0  0  0  0  0
    5.4889    5.7526   22.9298 C   0  0  0  0  0  0  0  0  0  0  0  0
    6.4366    4.6394   22.4928 C   0  0  0  0  0  0  0  0  0  0  0  0
    5.8637    3.7735   22.1578 H   0  0  0  0  0  0  0  0  0  0  0  0
    7.0552    4.9693   21.6532 H   0  0  0  0  0  0  0  0  0  0  0  0
    4.7720    6.0271   22.1523 H   0  0  0  0  0  0  0  0  0  0  0  0
    4.9500    5.5070   23.8500 H   0  0  0  0  0  0  0  0  0  0  0  0
    8.6009    6.5488   22.7886 H   0  0  0  0  0  0  0  0  0  0  0  0
    8.4445    7.4087   24.3432 H   0  0  0  0  0  0  0  0  0  0  0  0
    7.2655    5.4115   25.3272 H   0  0  0  0  0  0  0  0  0  0  0  0
    8.9099    4.9991   24.8054 H   0  0  0  0  0  0  0  0  0  0  0  0
    8.1562    3.7129   23.0990 H   0  0  0  0  0  0  0  0  0  0  0  0
    6.2235    2.4091   23.7597 H   0  0  0  0  0  0  0  0  0  0  0  0
    6.0072    3.5422   25.1129 H   0  0  0  0  0  0  0  0  0  0  0  0
    8.4449    2.9826   25.7992 H   0  0  0  0  0  0  0  0  0  0  0  0
    7.2644    1.6761   25.9756 H   0  0  0  0  0  0  0  0  0  0  0  0
    9.8841    1.8492   24.1264 C   0  0  0  0  0  0  0  0  0  0  0  0
   10.3896    2.8843   24.5460 O   0  0  0  0  0  0  0  0  0  0  0  0
   10.6154    0.9394   23.1808 C   0  0  0  0  0  0  0  0  0  0  0  0
   11.9554    1.2085   22.9024 C   0  0  0  0  0  0  0  0  0  0  0  0
   12.6713    0.3946   22.0336 C   0  0  0  0  0  0  0  0  0  0  0  0
   11.9972   -0.6708   21.4326 C   0  0  0  0  0  0  0  0  0  0  0  0
   12.6582   -1.6008   20.0875 Cl  0  0  0  0  0  0  0  0  0  0  0  0
   10.6477   -0.8723   21.6190 C   0  0  0  0  0  0  0  0  0  0  0  0
    9.9365   -0.0981   22.5290 C   0  0  0  0  0  0  0  0  0  0  0  0
   10.1632   -1.5682   20.9464 H   0  0  0  0  0  0  0  0  0  0  0  0
   13.6913    0.6364   21.7636 H   0  0  0  0  0  0  0  0  0  0  0  0
   12.3796    2.1017   23.3561 H   0  0  0  0  0  0  0  0  0  0  0  0
    8.5873   -0.5955   24.8228 H   0  0  0  0  0  0  0  0  0  0  0  0
    7.0436    0.1375   24.2962 H   0  0  0  0  0  0  0  0  0  0  0  0
    6.4084   -2.3487   20.9904 H   0  0  0  0  0  0  0  0  0  0  0  0
    7.9742   -2.0193   20.2195 H   0  0  0  0  0  0  0  0  0  0  0  0
    8.9058   -2.3970   22.3168 H   0  0  0  0  0  0  0  0  0  0  0  0
    7.6470   -2.5538   24.4138 H   0  0  0  0  0  0  0  0  0  0  0  0
    6.8967   -3.4911   23.1286 H   0  0  0  0  0  0  0  0  0  0  0  0
    6.1842   -1.9426   23.6107 H   0  0  0  0  0  0  0  0  0  0  0  0
  1  2  1  0
  2  3  1  0
  3  4  1  0
  4  5  1  0
  5  6  2  0
  6  7  1  0
  7  8  2  0
  8  9  1  0
  9 10  2  0
 10 11  1  0
 11 12  2  0
 12 13  1  0
 13 14  2  0
 13 15  1  0
 12 16  1  0
 11 17  1  0
 10 18  1  0
  8 19  1  0
  6 20  1  0
  4 21  1  0
 21 22  2  0
 21 23  1  0
 23 24  1  1
 24 25  1  0
 25 26  1  0
 26 27  1  0
 27 28  1  0
 28 29  1  0
 29 30  1  0
 30 31  1  0
 31 32  2  0
 31 33  2  0
 31 34  1  0
 34 35  1  0
 35 36  1  0
 35 37  1  0
 34 38  1  0
 34 39  1  0
 30 40  1  0
 30 41  1  0
 29 42  1  0
 29 43  1  0
 28 44  1  0
 27 45  1  0
 27 46  1  0
 26 47  1  0
 26 48  1  0
 25 49  1  0
 49 50  2  0
 49 51  1  0
 51 52  2  0
 52 53  1  0
 53 54  2  0
 54 55  1  0
 54 56  1  0
 56 57  2  0
 56 58  1  0
 53 59  1  0
 52 60  1  0
 24 61  1  0
 24 62  1  0
  3 63  1  0
  3 64  1  0
  2 65  1  6
  1 66  1  0
  1 67  1  0
  1 68  1  0
 23  2  1  0
 35 28  1  0
 57 51  1  0
 14  5  1  0
 57 23  1  0
 14  9  1  0
M  CHG  1  28   1
M  END
>  <cnnaffinities>  (42) 
[6.83787]

>  <score>  (42) 
6.83787

>  <index>  (42) 
41

>  <Smiles>  (42) 
C([C@]1(C(N(c2c(nc(c3c(c(c(c(c23)[H])[H])[H])[H])[H])[H])C(=O)[C@]21C(N(C(C([N+]1(C(C(S(=O)(=O)C(C1([H])[H])([H])[H])([H])[H])([H])[H])[H])([H])[H])([H])[H])C(=O)c1c(c(c(Cl)c(c21)[H])[H])[H])([H])[H])([H])[H])[H])([H])([H])[H]

>  <h>  (42) 
<NA>

>  <Training>  (42) 
True

>  <Success>  (42) 
True

>  <enamine_searched>  (42) 
False

>  <enamine_id>  (42) 
nan

$$$$

     RDKit          3D

 60 65  0  0  0  0  0  0  0  0999 V2000
   13.7485   -0.0646   24.0331 C   0  0  0  0  0  0  0  0  0  0  0  0
   12.9263   -1.2041   23.6827 N   0  0  0  0  0  0  0  0  0  0  0  0
   12.4200   -1.2217   22.4278 C   0  0  0  0  0  0  0  0  0  0  0  0
   12.4753   -0.2251   21.7137 O   0  0  0  0  0  0  0  0  0  0  0  0
   11.8574   -2.5316   21.8861 C   0  0  0  0  0  0  0  0  0  0  0  0
   10.4958   -2.7894   22.3137 N   0  0  0  0  0  0  0  0  0  0  0  0
    9.3667   -2.4908   21.4483 C   0  0  0  0  0  0  0  0  0  0  0  0
    8.1466   -1.9024   22.2018 C   0  0  2  0  0  0  0  0  0  0  0  0
    6.9988   -1.7931   21.1726 C   0  0  0  0  0  0  0  0  0  0  0  0
    6.3639   -2.7013   20.6769 O   0  0  0  0  0  0  0  0  0  0  0  0
    6.8057   -0.4590   20.8739 N   0  0  0  0  0  0  0  0  0  0  0  0
    6.0597   -0.0089   19.7646 C   0  0  0  0  0  0  0  0  0  0  0  0
    6.4139   -0.3311   18.4803 C   0  0  0  0  0  0  0  0  0  0  0  0
    5.7927    0.1674   17.3813 N   0  0  0  0  0  0  0  0  0  0  0  0
    4.7951    0.9989   17.5695 C   0  0  0  0  0  0  0  0  0  0  0  0
    4.3220    1.4044   18.8522 C   0  0  0  0  0  0  0  0  0  0  0  0
    3.2164    2.2790   19.0253 C   0  0  0  0  0  0  0  0  0  0  0  0
    2.7921    2.6199   20.2810 C   0  0  0  0  0  0  0  0  0  0  0  0
    3.4569    2.1194   21.4235 C   0  0  0  0  0  0  0  0  0  0  0  0
    4.5328    1.2801   21.2810 C   0  0  0  0  0  0  0  0  0  0  0  0
    4.9814    0.8976   19.9893 C   0  0  0  0  0  0  0  0  0  0  0  0
    5.0401    0.8842   22.1538 H   0  0  0  0  0  0  0  0  0  0  0  0
    3.1153    2.3965   22.4166 H   0  0  0  0  0  0  0  0  0  0  0  0
    1.9354    3.2757   20.4123 H   0  0  0  0  0  0  0  0  0  0  0  0
    2.7136    2.6609   18.1411 H   0  0  0  0  0  0  0  0  0  0  0  0
    4.2992    1.3869   16.6787 H   0  0  0  0  0  0  0  0  0  0  0  0
    7.2448   -1.0081   18.2914 H   0  0  0  0  0  0  0  0  0  0  0  0
    7.7444    0.4269   21.5228 C   0  0  0  0  0  0  0  0  0  0  0  0
    8.2798   -0.4149   22.6813 C   0  0  2  0  0  0  0  0  0  0  0  0
    9.6830    0.0560   23.0548 C   0  0  0  0  0  0  0  0  0  0  0  0
    9.7757    1.4854   23.4609 C   0  0  0  0  0  0  0  0  0  0  0  0
   10.3015    2.4250   22.6822 N   0  0  0  0  0  0  0  0  0  0  0  0
   10.2234    3.5464   23.3902 N   0  0  0  0  0  0  0  0  0  0  0  0
    9.6704    3.2845   24.5458 N   0  0  0  0  0  2  0  0  0  0  0  0
    9.3792    1.9899   24.6194 N   0  0  0  0  0  0  0  0  0  0  0  0
   10.3156   -0.0241   22.1689 H   0  0  0  0  0  0  0  0  0  0  0  0
   10.0878   -0.5644   23.8525 H   0  0  0  0  0  0  0  0  0  0  0  0
    7.6067   -0.3200   23.5465 H   0  0  0  0  0  0  0  0  0  0  0  0
    8.5580    0.7138   20.8351 H   0  0  0  0  0  0  0  0  0  0  0  0
    7.2683    1.3530   21.8603 H   0  0  0  0  0  0  0  0  0  0  0  0
    7.8576   -2.8792   23.3257 C   0  0  0  0  0  0  0  0  0  0  0  0
    6.5597   -3.0248   23.8237 C   0  0  0  0  0  0  0  0  0  0  0  0
    6.3046   -3.9348   24.8344 C   0  0  0  0  0  0  0  0  0  0  0  0
    4.6976   -4.0953   25.4697 Cl  0  0  0  0  0  0  0  0  0  0  0  0
    7.3178   -4.7225   25.3756 C   0  0  0  0  0  0  0  0  0  0  0  0
    8.6135   -4.5398   24.9255 C   0  0  0  0  0  0  0  0  0  0  0  0
    8.8924   -3.6231   23.9163 C   0  0  0  0  0  0  0  0  0  0  0  0
   10.3190   -3.3946   23.5198 C   0  0  0  0  0  0  0  0  0  0  0  0
   11.2715   -3.6743   24.2511 O   0  0  0  0  0  0  0  0  0  0  0  0
    9.4476   -5.0945   25.3433 H   0  0  0  0  0  0  0  0  0  0  0  0
    7.0958   -5.4637   26.1354 H   0  0  0  0  0  0  0  0  0  0  0  0
    5.7372   -2.4548   23.4094 H   0  0  0  0  0  0  0  0  0  0  0  0
    9.6947   -1.8141   20.6555 H   0  0  0  0  0  0  0  0  0  0  0  0
    8.9985   -3.4219   21.0096 H   0  0  0  0  0  0  0  0  0  0  0  0
   11.9166   -2.4653   20.7964 H   0  0  0  0  0  0  0  0  0  0  0  0
   12.4892   -3.3581   22.2200 H   0  0  0  0  0  0  0  0  0  0  0  0
   12.7543   -1.9794   24.3060 H   0  0  0  0  0  0  0  0  0  0  0  0
   13.1738    0.8650   23.9477 H   0  0  0  0  0  0  0  0  0  0  0  0
   14.1404   -0.1781   25.0490 H   0  0  0  0  0  0  0  0  0  0  0  0
   14.5346    0.0126   23.2759 H   0  0  0  0  0  0  0  0  0  0  0  0
  1  2  1  0
  2  3  1  0
  3  4  2  0
  3  5  1  0
  5  6  1  0
  6  7  1  0
  8  7  1  6
  8  9  1  0
  9 10  2  0
  9 11  1  0
 11 12  1  0
 12 13  2  0
 13 14  1  0
 14 15  2  0
 15 16  1  0
 16 17  2  0
 17 18  1  0
 18 19  2  0
 19 20  1  0
 20 21  2  0
 20 22  1  0
 19 23  1  0
 18 24  1  0
 17 25  1  0
 15 26  1  0
 13 27  1  0
 11 28  1  0
 28 29  1  0
 29 30  1  0
 30 31  1  0
 31 32  1  0
 32 33  2  0
 33 34  1  0
 34 35  1  0
 30 36  1  0
 30 37  1  0
 29 38  1  1
 28 39  1  0
 28 40  1  0
  8 41  1  0
 41 42  2  0
 42 43  1  0
 43 44  1  0
 43 45  2  0
 45 46  1  0
 46 47  2  0
 47 48  1  0
 48 49  2  0
 46 50  1  0
 45 51  1  0
 42 52  1  0
  7 53  1  0
  7 54  1  0
  5 55  1  0
  5 56  1  0
  2 57  1  0
  1 58  1  0
  1 59  1  0
  1 60  1  0
 48  6  1  0
 29  8  1  0
 35 31  2  0
 47 41  1  0
 21 12  1  0
 21 16  1  0
M  CHG  1  34  -1
M  END
>  <cnnaffinities>  (43) 
[7.12744]

>  <score>  (43) 
7.12744

>  <index>  (43) 
42

>  <Smiles>  (43) 
C(N(C(=O)C(N1C([C@@]2(C(=O)N(c3c(nc(c4c(c(c(c(c34)[H])[H])[H])[H])[H])[H])C([C@@]2(C(c2nn[n-]n2)([H])[H])[H])([H])[H])c2c(c(Cl)c(c(c2C1=O)[H])[H])[H])([H])[H])([H])[H])[H])([H])([H])[H]

>  <h>  (43) 
<NA>

>  <Training>  (43) 
True

>  <Success>  (43) 
True

>  <enamine_searched>  (43) 
False

>  <enamine_id>  (43) 
nan

$$$$

     RDKit          3D

 62 67  0  0  0  0  0  0  0  0999 V2000
    6.5044    4.2589   28.0452 C   0  0  0  0  0  0  0  0  0  0  0  0
    5.2360    3.9480   27.2506 C   0  0  0  0  0  0  0  0  0  0  0  0
    5.4353    3.9932   25.8059 N   0  0  0  0  0  0  0  0  0  0  0  0
    5.1909    5.1417   25.1523 N   0  0  0  0  0  0  0  0  0  0  0  0
    5.5163    4.9015   23.8891 C   0  0  0  0  0  0  0  0  0  0  0  0
    5.9884    3.5810   23.7262 C   0  0  0  0  0  0  0  0  0  0  0  0
    5.9323    3.0291   24.9837 C   0  0  0  0  0  0  0  0  0  0  0  0
    6.2908    1.6307   25.4089 C   0  0  0  0  0  0  0  0  0  0  0  0
    7.4088    1.0835   24.6574 N   0  0  0  0  0  0  0  0  0  0  0  0
    7.3162   -0.2474   24.0899 C   0  0  0  0  0  0  0  0  0  0  0  0
    8.2116   -0.4098   22.8339 C   0  0  2  0  0  0  0  0  0  0  0  0
    7.6412    0.4412   21.6699 C   0  0  0  0  0  0  0  0  0  0  0  0
    7.7678    1.6387   21.5002 O   0  0  0  0  0  0  0  0  0  0  0  0
    6.9350   -0.3868   20.8328 N   0  0  0  0  0  0  0  0  0  0  0  0
    6.1456    0.1113   19.7678 C   0  0  0  0  0  0  0  0  0  0  0  0
    6.4446   -0.2275   18.4725 C   0  0  0  0  0  0  0  0  0  0  0  0
    5.7664    0.2137   17.3861 N   0  0  0  0  0  0  0  0  0  0  0  0
    4.7501    1.0175   17.5953 C   0  0  0  0  0  0  0  0  0  0  0  0
    4.3047    1.4210   18.8857 C   0  0  0  0  0  0  0  0  0  0  0  0
    3.1806    2.2753   19.0595 C   0  0  0  0  0  0  0  0  0  0  0  0
    2.7585    2.6260   20.3112 C   0  0  0  0  0  0  0  0  0  0  0  0
    3.4351    2.1303   21.4487 C   0  0  0  0  0  0  0  0  0  0  0  0
    4.5211    1.3039   21.3063 C   0  0  0  0  0  0  0  0  0  0  0  0
    5.0066    0.9459   20.0166 C   0  0  0  0  0  0  0  0  0  0  0  0
    5.0257    0.9195   22.1878 H   0  0  0  0  0  0  0  0  0  0  0  0
    3.0957    2.4133   22.4414 H   0  0  0  0  0  0  0  0  0  0  0  0
    1.9057    3.2889   20.4396 H   0  0  0  0  0  0  0  0  0  0  0  0
    2.6736    2.6450   18.1706 H   0  0  0  0  0  0  0  0  0  0  0  0
    4.2218    1.3842   16.7144 H   0  0  0  0  0  0  0  0  0  0  0  0
    7.2922   -0.8798   18.2637 H   0  0  0  0  0  0  0  0  0  0  0  0
    6.9555   -1.7796   21.2351 C   0  0  0  0  0  0  0  0  0  0  0  0
    8.0988   -1.8570   22.2647 C   0  0  2  0  0  0  0  0  0  0  0  0
    7.9082   -2.9865   23.2834 C   0  0  0  0  0  0  0  0  0  0  0  0
    7.9356   -3.9664   22.7942 H   0  0  0  0  0  0  0  0  0  0  0  0
    8.6842   -2.9802   24.0590 H   0  0  0  0  0  0  0  0  0  0  0  0
    6.9374   -2.9042   23.7886 H   0  0  0  0  0  0  0  0  0  0  0  0
    9.0274   -2.0433   21.7184 H   0  0  0  0  0  0  0  0  0  0  0  0
    7.1238   -2.4108   20.3636 H   0  0  0  0  0  0  0  0  0  0  0  0
    5.9962   -2.0834   21.6813 H   0  0  0  0  0  0  0  0  0  0  0  0
    9.6105    0.0661   23.1674 C   0  0  0  0  0  0  0  0  0  0  0  0
   10.7182   -0.3189   22.3984 C   0  0  0  0  0  0  0  0  0  0  0  0
   11.9625    0.1929   22.7051 C   0  0  0  0  0  0  0  0  0  0  0  0
   13.0163   -0.1605   21.9531 F   0  0  0  0  0  0  0  0  0  0  0  0
   12.1686    1.0861   23.7497 C   0  0  0  0  0  0  0  0  0  0  0  0
   11.0668    1.5181   24.4599 C   0  0  0  0  0  0  0  0  0  0  0  0
    9.7939    1.0402   24.1604 C   0  0  0  0  0  0  0  0  0  0  0  0
    8.6265    1.6567   24.8759 C   0  0  0  0  0  0  0  0  0  0  0  0
    8.7385    2.6441   25.5919 O   0  0  0  0  0  0  0  0  0  0  0  0
   11.1199    2.2635   25.2392 H   0  0  0  0  0  0  0  0  0  0  0  0
   13.1767    1.4332   23.9388 H   0  0  0  0  0  0  0  0  0  0  0  0
   10.6392   -0.9798   21.5410 H   0  0  0  0  0  0  0  0  0  0  0  0
    7.6175   -1.0027   24.8323 H   0  0  0  0  0  0  0  0  0  0  0  0
    6.2753   -0.4284   23.8011 H   0  0  0  0  0  0  0  0  0  0  0  0
    5.4450    0.9629   25.2243 H   0  0  0  0  0  0  0  0  0  0  0  0
    6.5161    1.6043   26.4836 H   0  0  0  0  0  0  0  0  0  0  0  0
    6.3282    3.0577   22.8375 H   0  0  0  0  0  0  0  0  0  0  0  0
    5.4057    5.7019   23.1637 H   0  0  0  0  0  0  0  0  0  0  0  0
    4.4493    4.6795   27.4627 H   0  0  0  0  0  0  0  0  0  0  0  0
    4.8467    2.9554   27.5057 H   0  0  0  0  0  0  0  0  0  0  0  0
    7.3058    3.5487   27.8089 H   0  0  0  0  0  0  0  0  0  0  0  0
    6.2905    4.1981   29.1168 H   0  0  0  0  0  0  0  0  0  0  0  0
    6.8615    5.2694   27.8247 H   0  0  0  0  0  0  0  0  0  0  0  0
  1  2  1  0
  2  3  1  0
  3  4  1  0
  4  5  2  0
  5  6  1  0
  6  7  2  0
  7  8  1  0
  8  9  1  0
  9 10  1  0
 11 10  1  1
 11 12  1  0
 12 13  2  0
 12 14  1  0
 14 15  1  0
 15 16  2  0
 16 17  1  0
 17 18  2  0
 18 19  1  0
 19 20  2  0
 20 21  1  0
 21 22  2  0
 22 23  1  0
 23 24  2  0
 23 25  1  0
 22 26  1  0
 21 27  1  0
 20 28  1  0
 18 29  1  0
 16 30  1  0
 14 31  1  0
 31 32  1  0
 32 33  1  0
 33 34  1  0
 33 35  1  0
 33 36  1  0
 32 37  1  6
 31 38  1  0
 31 39  1  0
 11 40  1  0
 40 41  2  0
 41 42  1  0
 42 43  1  0
 42 44  2  0
 44 45  1  0
 45 46  2  0
 46 47  1  0
 47 48  2  0
 45 49  1  0
 44 50  1  0
 41 51  1  0
 10 52  1  0
 10 53  1  0
  8 54  1  0
  8 55  1  0
  6 56  1  0
  5 57  1  0
  2 58  1  0
  2 59  1  0
  1 60  1  0
  1 61  1  0
  1 62  1  0
  7  3  1  0
 47  9  1  0
 32 11  1  0
 46 40  1  0
 24 15  1  0
 24 19  1  0
M  END
>  <cnnaffinities>  (44) 
[6.69091]

>  <score>  (44) 
6.69091

>  <index>  (44) 
43

>  <Smiles>  (44) 
C(C(n1nc(c(c1C(N1C([C@@]2(C(=O)N(c3c(nc(c4c(c(c(c(c34)[H])[H])[H])[H])[H])[H])C([C@@]2(C([H])([H])[H])[H])([H])[H])c2c(c(F)c(c(c2C1=O)[H])[H])[H])([H])[H])([H])[H])[H])[H])([H])[H])([H])([H])[H]

>  <h>  (44) 
<NA>

>  <Training>  (44) 
True

>  <Success>  (44) 
True

>  <enamine_searched>  (44) 
False

>  <enamine_id>  (44) 
nan

$$$$

     RDKit          3D

 56 60  0  0  0  0  0  0  0  0999 V2000
    7.8523   -8.3867   22.9720 C   0  0  0  0  0  0  0  0  0  0  0  0
    6.8469   -7.4127   22.6107 N   0  0  0  0  0  0  0  0  0  0  0  0
    7.0937   -6.5413   21.5898 C   0  0  0  0  0  0  0  0  0  0  0  0
    7.9754   -6.7064   20.7635 O   0  0  0  0  0  0  0  0  0  0  0  0
    6.2180   -5.2851   21.6026 C   0  0  0  0  0  0  0  0  0  0  0  0
    6.6914   -4.3306   22.5911 N   0  0  0  0  0  0  0  0  0  0  0  0
    7.7615   -3.4014   22.2711 C   0  0  0  0  0  0  0  0  0  0  0  0
    7.3842   -1.9483   22.6403 C   0  0  2  0  0  0  0  0  0  0  0  0
    6.2964   -1.4383   21.6693 C   0  0  0  0  0  0  0  0  0  0  0  0
    5.1475   -1.8235   21.5876 O   0  0  0  0  0  0  0  0  0  0  0  0
    6.8491   -0.4740   20.8528 N   0  0  0  0  0  0  0  0  0  0  0  0
    6.1206    0.0776   19.7828 C   0  0  0  0  0  0  0  0  0  0  0  0
    6.4711   -0.2221   18.4908 C   0  0  0  0  0  0  0  0  0  0  0  0
    5.8103    0.2178   17.3935 N   0  0  0  0  0  0  0  0  0  0  0  0
    4.7771    1.0023   17.5990 C   0  0  0  0  0  0  0  0  0  0  0  0
    4.3212    1.4026   18.8885 C   0  0  0  0  0  0  0  0  0  0  0  0
    3.2041    2.2634   19.0431 C   0  0  0  0  0  0  0  0  0  0  0  0
    2.7923    2.6499   20.2887 C   0  0  0  0  0  0  0  0  0  0  0  0
    3.4811    2.2034   21.4375 C   0  0  0  0  0  0  0  0  0  0  0  0
    4.5672    1.3726   21.3175 C   0  0  0  0  0  0  0  0  0  0  0  0
    5.0064    0.9388   20.0302 C   0  0  0  0  0  0  0  0  0  0  0  0
    5.0884    1.0425   22.2112 H   0  0  0  0  0  0  0  0  0  0  0  0
    3.1523    2.5336   22.4192 H   0  0  0  0  0  0  0  0  0  0  0  0
    1.9405    3.3140   20.4016 H   0  0  0  0  0  0  0  0  0  0  0  0
    2.6981    2.6140   18.1485 H   0  0  0  0  0  0  0  0  0  0  0  0
    4.2412    1.3723   16.7241 H   0  0  0  0  0  0  0  0  0  0  0  0
    7.3157   -0.8865   18.3097 H   0  0  0  0  0  0  0  0  0  0  0  0
    8.2902   -0.3977   20.9604 C   0  0  0  0  0  0  0  0  0  0  0  0
    8.5516   -0.9555   22.3651 C   0  0  2  0  0  0  0  0  0  0  0  0
    9.9808   -1.4731   22.4435 C   0  0  0  0  0  0  0  0  0  0  0  0
   10.4664   -2.0047   24.0789 Cl  0  0  0  0  0  0  0  0  0  0  0  0
   10.1259   -2.3217   21.7694 H   0  0  0  0  0  0  0  0  0  0  0  0
   10.6823   -0.6881   22.1572 H   0  0  0  0  0  0  0  0  0  0  0  0
    8.4585   -0.1252   23.0628 H   0  0  0  0  0  0  0  0  0  0  0  0
    8.6232    0.6391   20.8562 H   0  0  0  0  0  0  0  0  0  0  0  0
    8.8074   -1.0057   20.2017 H   0  0  0  0  0  0  0  0  0  0  0  0
    6.8845   -1.9728   24.0703 C   0  0  0  0  0  0  0  0  0  0  0  0
    6.8501   -0.8054   24.8355 C   0  0  0  0  0  0  0  0  0  0  0  0
    6.3879   -0.8443   26.1363 C   0  0  0  0  0  0  0  0  0  0  0  0
    6.3302    0.6381   27.0364 Cl  0  0  0  0  0  0  0  0  0  0  0  0
    5.9608   -2.0252   26.7391 C   0  0  0  0  0  0  0  0  0  0  0  0
    5.9576   -3.1747   25.9790 C   0  0  0  0  0  0  0  0  0  0  0  0
    6.3822   -3.1448   24.6553 C   0  0  0  0  0  0  0  0  0  0  0  0
    6.1914   -4.3887   23.8548 C   0  0  0  0  0  0  0  0  0  0  0  0
    5.5826   -5.3693   24.2814 O   0  0  0  0  0  0  0  0  0  0  0  0
    5.6167   -4.1233   26.3724 H   0  0  0  0  0  0  0  0  0  0  0  0
    5.6285   -2.0252   27.7704 H   0  0  0  0  0  0  0  0  0  0  0  0
    7.1931    0.1403   24.4335 H   0  0  0  0  0  0  0  0  0  0  0  0
    8.6836   -3.6722   22.8041 H   0  0  0  0  0  0  0  0  0  0  0  0
    7.9617   -3.4778   21.2089 H   0  0  0  0  0  0  0  0  0  0  0  0
    5.2001   -5.5598   21.8882 H   0  0  0  0  0  0  0  0  0  0  0  0
    6.1975   -4.7910   20.6204 H   0  0  0  0  0  0  0  0  0  0  0  0
    6.1448   -7.1904   23.3054 H   0  0  0  0  0  0  0  0  0  0  0  0
    8.6742   -7.9365   23.5505 H   0  0  0  0  0  0  0  0  0  0  0  0
    7.3794   -9.2031   23.5229 H   0  0  0  0  0  0  0  0  0  0  0  0
    8.2645   -8.7832   22.0507 H   0  0  0  0  0  0  0  0  0  0  0  0
  1  2  1  0
  2  3  1  0
  3  4  2  0
  3  5  1  0
  5  6  1  0
  6  7  1  0
  8  7  1  6
  8  9  1  0
  9 10  2  0
  9 11  1  0
 11 12  1  0
 12 13  2  0
 13 14  1  0
 14 15  2  0
 15 16  1  0
 16 17  2  0
 17 18  1  0
 18 19  2  0
 19 20  1  0
 20 21  2  0
 20 22  1  0
 19 23  1  0
 18 24  1  0
 17 25  1  0
 15 26  1  0
 13 27  1  0
 11 28  1  0
 28 29  1  0
 29 30  1  0
 30 31  1  0
 30 32  1  0
 30 33  1  0
 29 34  1  1
 28 35  1  0
 28 36  1  0
  8 37  1  0
 37 38  2  0
 38 39  1  0
 39 40  1  0
 39 41  2  0
 41 42  1  0
 42 43  2  0
 43 44  1  0
 44 45  2  0
 42 46  1  0
 41 47  1  0
 38 48  1  0
  7 49  1  0
  7 50  1  0
  5 51  1  0
  5 52  1  0
  2 53  1  0
  1 54  1  0
  1 55  1  0
  1 56  1  0
 44  6  1  0
 29  8  1  0
 43 37  1  0
 21 12  1  0
 21 16  1  0
M  END
>  <cnnaffinities>  (45) 
[6.89899, 6.64606]

>  <score>  (45) 
6.89899

>  <index>  (45) 
44

>  <Smiles>  (45) 
C(N(C(=O)C(N1C([C@@]2(C(=O)N(c3c(nc(c4c(c(c(c(c34)[H])[H])[H])[H])[H])[H])C([C@@]2(C(Cl)([H])[H])[H])([H])[H])c2c(c(Cl)c(c(c2C1=O)[H])[H])[H])([H])[H])([H])[H])[H])([H])([H])[H]

>  <h>  (45) 
<NA>

>  <Training>  (45) 
True

>  <Success>  (45) 
True

>  <enamine_searched>  (45) 
False

>  <enamine_id>  (45) 
nan

$$$$

     RDKit          3D

 60 64  0  0  0  0  0  0  0  0999 V2000
    7.7556   -8.4464   23.0123 C   0  0  0  0  0  0  0  0  0  0  0  0
    6.7929   -7.4042   22.7370 N   0  0  0  0  0  0  0  0  0  0  0  0
    6.9958   -6.5554   21.7028 C   0  0  0  0  0  0  0  0  0  0  0  0
    7.8229   -6.7487   20.8286 O   0  0  0  0  0  0  0  0  0  0  0  0
    6.1414   -5.2906   21.7323 C   0  0  0  0  0  0  0  0  0  0  0  0
    6.6660   -4.3275   22.6823 N   0  0  0  0  0  0  0  0  0  0  0  0
    7.7371   -3.4175   22.3142 C   0  0  0  0  0  0  0  0  0  0  0  0
    7.3599   -1.9516   22.6478 C   0  0  2  0  0  0  0  0  0  0  0  0
    6.2855   -1.4718   21.6459 C   0  0  0  0  0  0  0  0  0  0  0  0
    5.1525   -1.8946   21.5203 O   0  0  0  0  0  0  0  0  0  0  0  0
    6.8342   -0.4846   20.8538 N   0  0  0  0  0  0  0  0  0  0  0  0
    6.1147    0.0725   19.7826 C   0  0  0  0  0  0  0  0  0  0  0  0
    6.4720   -0.2206   18.4903 C   0  0  0  0  0  0  0  0  0  0  0  0
    5.8141    0.2210   17.3925 N   0  0  0  0  0  0  0  0  0  0  0  0
    4.7830    1.0059   17.5964 C   0  0  0  0  0  0  0  0  0  0  0  0
    4.3230    1.4037   18.8849 C   0  0  0  0  0  0  0  0  0  0  0  0
    3.2038    2.2630   19.0342 C   0  0  0  0  0  0  0  0  0  0  0  0
    2.7923    2.6508   20.2796 C   0  0  0  0  0  0  0  0  0  0  0  0
    3.4797    2.2067   21.4304 C   0  0  0  0  0  0  0  0  0  0  0  0
    4.5657    1.3738   21.3124 C   0  0  0  0  0  0  0  0  0  0  0  0
    5.0059    0.9402   20.0266 C   0  0  0  0  0  0  0  0  0  0  0  0
    5.0894    1.0405   22.2021 H   0  0  0  0  0  0  0  0  0  0  0  0
    3.1500    2.5350   22.4122 H   0  0  0  0  0  0  0  0  0  0  0  0
    1.9415    3.3162   20.3915 H   0  0  0  0  0  0  0  0  0  0  0  0
    2.7003    2.6135   18.1378 H   0  0  0  0  0  0  0  0  0  0  0  0
    4.2477    1.3670   16.7183 H   0  0  0  0  0  0  0  0  0  0  0  0
    7.3189   -0.8803   18.3079 H   0  0  0  0  0  0  0  0  0  0  0  0
    8.2761   -0.4020   20.9639 C   0  0  0  0  0  0  0  0  0  0  0  0
    8.5292   -0.9760   22.3609 C   0  0  2  0  0  0  0  0  0  0  0  0
    9.9203   -1.5604   22.4926 C   0  0  0  0  0  0  0  0  0  0  0  0
   10.8459   -0.5167   22.3533 O   0  0  0  0  0  0  0  0  0  0  0  0
   12.1573   -1.0085   22.3099 C   0  0  0  0  0  0  0  0  0  0  0  0
   12.8287   -0.1696   22.1161 H   0  0  0  0  0  0  0  0  0  0  0  0
   12.4445   -1.4887   23.2580 H   0  0  0  0  0  0  0  0  0  0  0  0
   12.2643   -1.7508   21.5053 H   0  0  0  0  0  0  0  0  0  0  0  0
   10.0429   -2.0680   23.4650 H   0  0  0  0  0  0  0  0  0  0  0  0
   10.0838   -2.3156   21.7022 H   0  0  0  0  0  0  0  0  0  0  0  0
    8.4666   -0.1461   23.0631 H   0  0  0  0  0  0  0  0  0  0  0  0
    8.7914   -0.9918   20.1903 H   0  0  0  0  0  0  0  0  0  0  0  0
    8.6154    0.6323   20.8780 H   0  0  0  0  0  0  0  0  0  0  0  0
    6.8558   -1.9228   24.0794 C   0  0  0  0  0  0  0  0  0  0  0  0
    6.8231   -0.7216   24.7988 C   0  0  0  0  0  0  0  0  0  0  0  0
    6.3495   -0.7014   26.0966 C   0  0  0  0  0  0  0  0  0  0  0  0
    6.2972    0.8167   26.9459 Cl  0  0  0  0  0  0  0  0  0  0  0  0
    5.9177   -1.8580   26.7420 C   0  0  0  0  0  0  0  0  0  0  0  0
    5.9195   -3.0417   26.0296 C   0  0  0  0  0  0  0  0  0  0  0  0
    6.3504   -3.0703   24.7050 C   0  0  0  0  0  0  0  0  0  0  0  0
    6.1733   -4.3417   23.9472 C   0  0  0  0  0  0  0  0  0  0  0  0
    5.5669   -5.3147   24.4010 O   0  0  0  0  0  0  0  0  0  0  0  0
    5.5697   -3.9662   26.4709 H   0  0  0  0  0  0  0  0  0  0  0  0
    5.5753   -1.8197   27.7708 H   0  0  0  0  0  0  0  0  0  0  0  0
    7.1683    0.2104   24.3667 H   0  0  0  0  0  0  0  0  0  0  0  0
    7.9197   -3.5254   21.2495 H   0  0  0  0  0  0  0  0  0  0  0  0
    8.6712   -3.6798   22.8355 H   0  0  0  0  0  0  0  0  0  0  0  0
    6.1085   -4.8148   20.7479 H   0  0  0  0  0  0  0  0  0  0  0  0
    5.1243   -5.5541   22.0353 H   0  0  0  0  0  0  0  0  0  0  0  0
    6.2188   -7.0623   23.4996 H   0  0  0  0  0  0  0  0  0  0  0  0
    8.6753   -8.0460   23.4552 H   0  0  0  0  0  0  0  0  0  0  0  0
    8.0145   -8.9376   22.0785 H   0  0  0  0  0  0  0  0  0  0  0  0
    7.3133   -9.1835   23.6810 H   0  0  0  0  0  0  0  0  0  0  0  0
  1  2  1  0
  2  3  1  0
  3  4  2  0
  3  5  1  0
  5  6  1  0
  6  7  1  0
  8  7  1  6
  8  9  1  0
  9 10  2  0
  9 11  1  0
 11 12  1  0
 12 13  2  0
 13 14  1  0
 14 15  2  0
 15 16  1  0
 16 17  2  0
 17 18  1  0
 18 19  2  0
 19 20  1  0
 20 21  2  0
 20 22  1  0
 19 23  1  0
 18 24  1  0
 17 25  1  0
 15 26  1  0
 13 27  1  0
 11 28  1  0
 28 29  1  0
 29 30  1  0
 30 31  1  0
 31 32  1  0
 32 33  1  0
 32 34  1  0
 32 35  1  0
 30 36  1  0
 30 37  1  0
 29 38  1  1
 28 39  1  0
 28 40  1  0
  8 41  1  0
 41 42  2  0
 42 43  1  0
 43 44  1  0
 43 45  2  0
 45 46  1  0
 46 47  2  0
 47 48  1  0
 48 49  2  0
 46 50  1  0
 45 51  1  0
 42 52  1  0
  7 53  1  0
  7 54  1  0
  5 55  1  0
  5 56  1  0
  2 57  1  0
  1 58  1  0
  1 59  1  0
  1 60  1  0
 48  6  1  0
 29  8  1  0
 47 41  1  0
 21 12  1  0
 21 16  1  0
M  END
>  <cnnaffinities>  (46) 
[6.89984]

>  <score>  (46) 
6.89984

>  <index>  (46) 
45

>  <Smiles>  (46) 
C(N(C(=O)C(N1C([C@@]2(C(=O)N(c3c(nc(c4c(c(c(c(c34)[H])[H])[H])[H])[H])[H])C([C@@]2(C(OC([H])([H])[H])([H])[H])[H])([H])[H])c2c(c(Cl)c(c(c2C1=O)[H])[H])[H])([H])[H])([H])[H])[H])([H])([H])[H]

>  <h>  (46) 
<NA>

>  <Training>  (46) 
True

>  <Success>  (46) 
True

>  <enamine_searched>  (46) 
False

>  <enamine_id>  (46) 
nan

$$$$

     RDKit          3D

 64 68  0  0  0  0  0  0  0  0999 V2000
   10.7585    3.9057   23.4529 C   0  0  0  0  0  0  0  0  0  0  0  0
   10.3300    2.6307   22.7362 C   0  0  0  0  0  0  0  0  0  0  0  0
    9.9753    1.3979   23.9783 S   0  0  0  0  0  0  0  0  0  0  0  0
    8.7559    1.7810   24.6651 O   0  0  0  0  0  0  0  0  0  0  0  0
   11.2089    1.1826   24.7176 O   0  0  0  0  0  0  0  0  0  0  0  0
    9.6608    0.0269   23.0928 N   0  0  0  0  0  0  0  0  0  0  0  0
    8.3154   -0.3447   22.6805 C   0  0  1  0  0  0  0  0  0  0  0  0
    7.7733    0.4702   21.4988 C   0  0  0  0  0  0  0  0  0  0  0  0
    6.8316   -0.4379   20.8792 N   0  0  0  0  0  0  0  0  0  0  0  0
    6.0529   -0.0197   19.7739 C   0  0  0  0  0  0  0  0  0  0  0  0
    6.3945   -0.3516   18.4877 C   0  0  0  0  0  0  0  0  0  0  0  0
    5.7759    0.1485   17.3866 N   0  0  0  0  0  0  0  0  0  0  0  0
    4.7876    0.9928   17.5682 C   0  0  0  0  0  0  0  0  0  0  0  0
    4.3075    1.3932   18.8502 C   0  0  0  0  0  0  0  0  0  0  0  0
    3.2099    2.2827   19.0166 C   0  0  0  0  0  0  0  0  0  0  0  0
    2.7840    2.6317   20.2703 C   0  0  0  0  0  0  0  0  0  0  0  0
    3.4342    2.1165   21.4153 C   0  0  0  0  0  0  0  0  0  0  0  0
    4.4965    1.2570   21.2776 C   0  0  0  0  0  0  0  0  0  0  0  0
    4.9596    0.8768   19.9904 C   0  0  0  0  0  0  0  0  0  0  0  0
    4.9916    0.8518   22.1531 H   0  0  0  0  0  0  0  0  0  0  0  0
    3.0972    2.4072   22.4069 H   0  0  0  0  0  0  0  0  0  0  0  0
    1.9397    3.3061   20.3983 H   0  0  0  0  0  0  0  0  0  0  0  0
    2.7186    2.6797   18.1306 H   0  0  0  0  0  0  0  0  0  0  0  0
    4.3117    1.4026   16.6745 H   0  0  0  0  0  0  0  0  0  0  0  0
    7.2126   -1.0421   18.2948 H   0  0  0  0  0  0  0  0  0  0  0  0
    7.0552   -1.7631   21.1891 C   0  0  0  0  0  0  0  0  0  0  0  0
    6.4431   -2.6918   20.7011 O   0  0  0  0  0  0  0  0  0  0  0  0
    8.1750   -1.8393   22.2444 C   0  0  1  0  0  0  0  0  0  0  0  0
    9.4536   -2.3991   21.5596 C   0  0  0  0  0  0  0  0  0  0  0  0
   10.5487   -2.6551   22.5045 N   0  0  0  0  0  0  0  0  0  0  0  0
   11.9566   -2.4552   22.1575 C   0  0  0  0  0  0  0  0  0  0  0  0
   12.5708   -1.1750   22.7831 C   0  0  0  0  0  0  0  0  0  0  0  0
   12.8272   -1.0746   23.9644 O   0  0  0  0  0  0  0  0  0  0  0  0
   12.7863   -0.1586   21.8719 N   0  0  0  0  0  0  0  0  0  0  0  0
   13.5610    1.0345   22.2046 C   0  0  0  0  0  0  0  0  0  0  0  0
   13.0349    1.6287   22.9490 H   0  0  0  0  0  0  0  0  0  0  0  0
   13.6710    1.6464   21.3034 H   0  0  0  0  0  0  0  0  0  0  0  0
   14.5554    0.8169   22.6081 H   0  0  0  0  0  0  0  0  0  0  0  0
   12.8770   -0.4738   20.9176 H   0  0  0  0  0  0  0  0  0  0  0  0
   12.0839   -2.4684   21.0645 H   0  0  0  0  0  0  0  0  0  0  0  0
   12.5154   -3.2909   22.5993 H   0  0  0  0  0  0  0  0  0  0  0  0
   10.3070   -3.3920   23.6409 C   0  0  0  0  0  0  0  0  0  0  0  0
   11.2057   -3.8709   24.3204 O   0  0  0  0  0  0  0  0  0  0  0  0
    8.8633   -3.5580   24.0014 C   0  0  0  0  0  0  0  0  0  0  0  0
    8.5664   -4.4754   25.0069 C   0  0  0  0  0  0  0  0  0  0  0  0
    7.2668   -4.6471   25.4417 C   0  0  0  0  0  0  0  0  0  0  0  0
    6.2664   -3.8734   24.8577 C   0  0  0  0  0  0  0  0  0  0  0  0
    4.6360   -4.0650   25.4276 Cl  0  0  0  0  0  0  0  0  0  0  0  0
    6.5431   -2.9691   23.8450 C   0  0  0  0  0  0  0  0  0  0  0  0
    7.8544   -2.8020   23.3818 C   0  0  0  0  0  0  0  0  0  0  0  0
    5.7209   -2.4431   23.3769 H   0  0  0  0  0  0  0  0  0  0  0  0
    7.0271   -5.3862   26.1983 H   0  0  0  0  0  0  0  0  0  0  0  0
    9.3917   -5.0430   25.4300 H   0  0  0  0  0  0  0  0  0  0  0  0
    9.7912   -1.7134   20.7763 H   0  0  0  0  0  0  0  0  0  0  0  0
    9.1351   -3.3338   21.0818 H   0  0  0  0  0  0  0  0  0  0  0  0
    7.2704    1.3883   21.8127 H   0  0  0  0  0  0  0  0  0  0  0  0
    8.5733    0.7473   20.7923 H   0  0  0  0  0  0  0  0  0  0  0  0
    7.6572   -0.2006   23.5400 H   0  0  0  0  0  0  0  0  0  0  0  0
   10.3782   -0.1468   22.3950 H   0  0  0  0  0  0  0  0  0  0  0  0
   11.1288    2.2222   22.1060 H   0  0  0  0  0  0  0  0  0  0  0  0
    9.4288    2.7489   22.1292 H   0  0  0  0  0  0  0  0  0  0  0  0
   11.6737    3.7265   24.0281 H   0  0  0  0  0  0  0  0  0  0  0  0
   10.9406    4.7130   22.7388 H   0  0  0  0  0  0  0  0  0  0  0  0
    9.9759    4.2144   24.1525 H   0  0  0  0  0  0  0  0  0  0  0  0
  1  2  1  0
  2  3  1  0
  3  4  2  0
  3  5  2  0
  3  6  1  0
  6  7  1  0
  7  8  1  0
  8  9  1  0
  9 10  1  0
 10 11  2  0
 11 12  1  0
 12 13  2  0
 13 14  1  0
 14 15  2  0
 15 16  1  0
 16 17  2  0
 17 18  1  0
 18 19  2  0
 18 20  1  0
 17 21  1  0
 16 22  1  0
 15 23  1  0
 13 24  1  0
 11 25  1  0
  9 26  1  0
 26 27  2  0
 26 28  1  0
 28 29  1  6
 29 30  1  0
 30 31  1  0
 31 32  1  0
 32 33  2  0
 32 34  1  0
 34 35  1  0
 35 36  1  0
 35 37  1  0
 35 38  1  0
 34 39  1  0
 31 40  1  0
 31 41  1  0
 30 42  1  0
 42 43  2  0
 42 44  1  0
 44 45  2  0
 45 46  1  0
 46 47  2  0
 47 48  1  0
 47 49  1  0
 49 50  2  0
 49 51  1  0
 46 52  1  0
 45 53  1  0
 29 54  1  0
 29 55  1  0
  8 56  1  0
  8 57  1  0
  7 58  1  1
  6 59  1  0
  2 60  1  0
  2 61  1  0
  1 62  1  0
  1 63  1  0
  1 64  1  0
 28  7  1  0
 50 44  1  0
 19 10  1  0
 50 28  1  0
 19 14  1  0
M  END
>  <cnnaffinities>  (47) 
[7.08376]

>  <score>  (47) 
7.08376

>  <index>  (47) 
46

>  <Smiles>  (47) 
C(C(S(=O)(=O)N([C@]1(C(N(c2c(nc(c3c(c(c(c(c23)[H])[H])[H])[H])[H])[H])C(=O)[C@]21C(N(C(C(=O)N(C([H])([H])[H])[H])([H])[H])C(=O)c1c(c(c(Cl)c(c21)[H])[H])[H])([H])[H])([H])[H])[H])[H])([H])[H])([H])([H])[H]

>  <h>  (47) 
<NA>

>  <Training>  (47) 
True

>  <Success>  (47) 
True

>  <enamine_searched>  (47) 
False

>  <enamine_id>  (47) 
nan

$$$$

     RDKit          3D

 56 60  0  0  0  0  0  0  0  0999 V2000
    7.7265   -8.4770   22.9909 C   0  0  0  0  0  0  0  0  0  0  0  0
    6.7834   -7.4065   22.7533 N   0  0  0  0  0  0  0  0  0  0  0  0
    6.9868   -6.5484   21.7186 C   0  0  0  0  0  0  0  0  0  0  0  0
    7.8031   -6.7411   20.8320 O   0  0  0  0  0  0  0  0  0  0  0  0
    6.1331   -5.2850   21.7652 C   0  0  0  0  0  0  0  0  0  0  0  0
    6.6763   -4.3272   22.7129 N   0  0  0  0  0  0  0  0  0  0  0  0
    7.7465   -3.4200   22.3292 C   0  0  0  0  0  0  0  0  0  0  0  0
    7.3803   -1.9497   22.6453 C   0  0  2  0  0  0  0  0  0  0  0  0
    6.2936   -1.4735   21.6494 C   0  0  0  0  0  0  0  0  0  0  0  0
    5.1622   -1.8999   21.5313 O   0  0  0  0  0  0  0  0  0  0  0  0
    6.8333   -0.4816   20.8575 N   0  0  0  0  0  0  0  0  0  0  0  0
    6.1102    0.0712   19.7844 C   0  0  0  0  0  0  0  0  0  0  0  0
    6.4680   -0.2226   18.4933 C   0  0  0  0  0  0  0  0  0  0  0  0
    5.8123    0.2193   17.3940 N   0  0  0  0  0  0  0  0  0  0  0  0
    4.7810    1.0051   17.5981 C   0  0  0  0  0  0  0  0  0  0  0  0
    4.3191    1.4031   18.8858 C   0  0  0  0  0  0  0  0  0  0  0  0
    3.2020    2.2642   19.0365 C   0  0  0  0  0  0  0  0  0  0  0  0
    2.7905    2.6515   20.2808 C   0  0  0  0  0  0  0  0  0  0  0  0
    3.4775    2.2074   21.4321 C   0  0  0  0  0  0  0  0  0  0  0  0
    4.5618    1.3737   21.3139 C   0  0  0  0  0  0  0  0  0  0  0  0
    5.0013    0.9389   20.0292 C   0  0  0  0  0  0  0  0  0  0  0  0
    5.0851    1.0417   22.2051 H   0  0  0  0  0  0  0  0  0  0  0  0
    3.1478    2.5377   22.4129 H   0  0  0  0  0  0  0  0  0  0  0  0
    1.9401    3.3177   20.3920 H   0  0  0  0  0  0  0  0  0  0  0  0
    2.6990    2.6149   18.1390 H   0  0  0  0  0  0  0  0  0  0  0  0
    4.2479    1.3680   16.7199 H   0  0  0  0  0  0  0  0  0  0  0  0
    7.3162   -0.8820   18.3120 H   0  0  0  0  0  0  0  0  0  0  0  0
    8.2754   -0.4023   20.9524 C   0  0  0  0  0  0  0  0  0  0  0  0
    8.5631   -0.9796   22.3408 C   0  0  2  0  0  0  0  0  0  0  0  0
    9.9709   -1.5523   22.4338 C   0  0  0  0  0  0  0  0  0  0  0  0
   10.1221   -2.3349   21.6809 H   0  0  0  0  0  0  0  0  0  0  0  0
   10.1753   -1.9826   23.4197 H   0  0  0  0  0  0  0  0  0  0  0  0
   10.7059   -0.7640   22.2458 H   0  0  0  0  0  0  0  0  0  0  0  0
    8.4870   -0.1508   23.0458 H   0  0  0  0  0  0  0  0  0  0  0  0
    8.7827   -0.9889   20.1704 H   0  0  0  0  0  0  0  0  0  0  0  0
    8.6077    0.6357   20.8622 H   0  0  0  0  0  0  0  0  0  0  0  0
    6.8714   -1.9030   24.0773 C   0  0  0  0  0  0  0  0  0  0  0  0
    6.8422   -0.6960   24.7839 C   0  0  0  0  0  0  0  0  0  0  0  0
    6.3688   -0.6732   26.0783 C   0  0  0  0  0  0  0  0  0  0  0  0
    6.3501    0.4989   26.7351 F   0  0  0  0  0  0  0  0  0  0  0  0
    5.9212   -1.8093   26.7407 C   0  0  0  0  0  0  0  0  0  0  0  0
    5.9187   -2.9965   26.0388 C   0  0  0  0  0  0  0  0  0  0  0  0
    6.3564   -3.0418   24.7174 C   0  0  0  0  0  0  0  0  0  0  0  0
    6.1785   -4.3199   23.9742 C   0  0  0  0  0  0  0  0  0  0  0  0
    5.5618   -5.2877   24.4365 O   0  0  0  0  0  0  0  0  0  0  0  0
    5.5645   -3.9174   26.4858 H   0  0  0  0  0  0  0  0  0  0  0  0
    5.5813   -1.7419   27.7677 H   0  0  0  0  0  0  0  0  0  0  0  0
    7.1967    0.2342   24.3551 H   0  0  0  0  0  0  0  0  0  0  0  0
    8.6858   -3.6707   22.8476 H   0  0  0  0  0  0  0  0  0  0  0  0
    7.9169   -3.5450   21.2645 H   0  0  0  0  0  0  0  0  0  0  0  0
    5.1204   -5.5501   22.0878 H   0  0  0  0  0  0  0  0  0  0  0  0
    6.0827   -4.8007   20.7829 H   0  0  0  0  0  0  0  0  0  0  0  0
    6.2252   -7.0690   23.5292 H   0  0  0  0  0  0  0  0  0  0  0  0
    8.6730   -8.1008   23.3978 H   0  0  0  0  0  0  0  0  0  0  0  0
    7.2895   -9.1960   23.6846 H   0  0  0  0  0  0  0  0  0  0  0  0
    7.9320   -8.9844   22.0509 H   0  0  0  0  0  0  0  0  0  0  0  0
  1  2  1  0
  2  3  1  0
  3  4  2  0
  3  5  1  0
  5  6  1  0
  6  7  1  0
  8  7  1  6
  8  9  1  0
  9 10  2  0
  9 11  1  0
 11 12  1  0
 12 13  2  0
 13 14  1  0
 14 15  2  0
 15 16  1  0
 16 17  2  0
 17 18  1  0
 18 19  2  0
 19 20  1  0
 20 21  2  0
 20 22  1  0
 19 23  1  0
 18 24  1  0
 17 25  1  0
 15 26  1  0
 13 27  1  0
 11 28  1  0
 28 29  1  0
 29 30  1  0
 30 31  1  0
 30 32  1  0
 30 33  1  0
 29 34  1  1
 28 35  1  0
 28 36  1  0
  8 37  1  0
 37 38  2  0
 38 39  1  0
 39 40  1  0
 39 41  2  0
 41 42  1  0
 42 43  2  0
 43 44  1  0
 44 45  2  0
 42 46  1  0
 41 47  1  0
 38 48  1  0
  7 49  1  0
  7 50  1  0
  5 51  1  0
  5 52  1  0
  2 53  1  0
  1 54  1  0
  1 55  1  0
  1 56  1  0
 44  6  1  0
 29  8  1  0
 43 37  1  0
 21 12  1  0
 21 16  1  0
M  END
>  <cnnaffinities>  (48) 
[6.6182]

>  <score>  (48) 
6.6182

>  <index>  (48) 
47

>  <Smiles>  (48) 
C(N(C(=O)C(N1C([C@@]2(C(=O)N(c3c(nc(c4c(c(c(c(c34)[H])[H])[H])[H])[H])[H])C([C@@]2(C([H])([H])[H])[H])([H])[H])c2c(c(F)c(c(c2C1=O)[H])[H])[H])([H])[H])([H])[H])[H])([H])([H])[H]

>  <h>  (48) 
<NA>

>  <Training>  (48) 
True

>  <Success>  (48) 
True

>  <enamine_searched>  (48) 
False

>  <enamine_id>  (48) 
nan

$$$$

     RDKit          3D

 41 43  0  0  0  0  0  0  0  0999 V2000
   10.9104   -2.4513   23.7827 C   0  0  0  0  0  0  0  0  0  0  0  0
   10.0172   -1.2725   23.4542 C   0  0  1  0  0  0  0  0  0  0  0  0
    8.5429   -1.5709   23.7524 C   0  0  0  0  0  0  0  0  0  0  0  0
    7.6637   -0.3150   23.8327 C   0  0  0  0  0  0  0  0  0  0  0  0
    8.0159    0.7492   22.8945 N   0  0  0  0  0  0  0  0  0  0  0  0
    7.8623    0.6364   21.5252 C   0  0  0  0  0  0  0  0  0  0  0  0
    8.4375    1.3984   20.7668 O   0  0  0  0  0  0  0  0  0  0  0  0
    6.9376   -0.4475   20.9204 C   0  0  0  0  0  0  0  0  0  0  0  0
    6.1114    0.0854   19.7681 C   0  0  0  0  0  0  0  0  0  0  0  0
    6.4270   -0.2076   18.4639 C   0  0  0  0  0  0  0  0  0  0  0  0
    5.7605    0.2383   17.3638 N   0  0  0  0  0  0  0  0  0  0  0  0
    4.7355    1.0298   17.5740 C   0  0  0  0  0  0  0  0  0  0  0  0
    4.2872    1.4240   18.8666 C   0  0  0  0  0  0  0  0  0  0  0  0
    3.1695    2.2812   19.0425 C   0  0  0  0  0  0  0  0  0  0  0  0
    2.7640    2.6455   20.2992 C   0  0  0  0  0  0  0  0  0  0  0  0
    3.4626    2.1678   21.4303 C   0  0  0  0  0  0  0  0  0  0  0  0
    4.5479    1.3382   21.2863 C   0  0  0  0  0  0  0  0  0  0  0  0
    4.9917    0.9422   19.9958 C   0  0  0  0  0  0  0  0  0  0  0  0
    5.0726    0.9901   22.1707 H   0  0  0  0  0  0  0  0  0  0  0  0
    3.1372    2.4641   22.4223 H   0  0  0  0  0  0  0  0  0  0  0  0
    1.9112    3.3051   20.4363 H   0  0  0  0  0  0  0  0  0  0  0  0
    2.6460    2.6488   18.1628 H   0  0  0  0  0  0  0  0  0  0  0  0
    4.1992    1.3995   16.6986 H   0  0  0  0  0  0  0  0  0  0  0  0
    7.2737   -0.8569   18.2457 H   0  0  0  0  0  0  0  0  0  0  0  0
    7.5901   -1.2392   20.5272 H   0  0  0  0  0  0  0  0  0  0  0  0
    6.2859   -0.9123   21.6674 H   0  0  0  0  0  0  0  0  0  0  0  0
    9.0462    1.6759   23.3760 C   0  0  0  0  0  0  0  0  0  0  0  0
   10.4539    1.0768   23.4656 C   0  0  0  0  0  0  0  0  0  0  0  0
   10.4978   -0.1436   24.1760 O   0  0  0  0  0  0  0  0  0  0  0  0
   10.8636    0.9354   22.4554 H   0  0  0  0  0  0  0  0  0  0  0  0
   11.1265    1.7679   23.9975 H   0  0  0  0  0  0  0  0  0  0  0  0
    8.7536    1.9966   24.3793 H   0  0  0  0  0  0  0  0  0  0  0  0
    9.0628    2.5590   22.7333 H   0  0  0  0  0  0  0  0  0  0  0  0
    6.6075   -0.5752   23.7201 H   0  0  0  0  0  0  0  0  0  0  0  0
    7.7555    0.1110   24.8326 H   0  0  0  0  0  0  0  0  0  0  0  0
    8.4667   -2.1272   24.6969 H   0  0  0  0  0  0  0  0  0  0  0  0
    8.1656   -2.2443   22.9725 H   0  0  0  0  0  0  0  0  0  0  0  0
   10.1177   -1.0537   22.3865 H   0  0  0  0  0  0  0  0  0  0  0  0
   10.5944   -3.3354   23.2204 H   0  0  0  0  0  0  0  0  0  0  0  0
   11.9461   -2.2263   23.5146 H   0  0  0  0  0  0  0  0  0  0  0  0
   10.8695   -2.6770   24.8510 H   0  0  0  0  0  0  0  0  0  0  0  0
  1  2  1  0
  2  3  1  0
  3  4  1  0
  4  5  1  0
  5  6  1  0
  6  7  2  0
  6  8  1  0
  8  9  1  0
  9 10  2  0
 10 11  1  0
 11 12  2  0
 12 13  1  0
 13 14  2  0
 14 15  1  0
 15 16  2  0
 16 17  1  0
 17 18  2  0
 17 19  1  0
 16 20  1  0
 15 21  1  0
 14 22  1  0
 12 23  1  0
 10 24  1  0
  8 25  1  0
  8 26  1  0
  5 27  1  0
 27 28  1  0
 28 29  1  0
 28 30  1  0
 28 31  1  0
 27 32  1  0
 27 33  1  0
  4 34  1  0
  4 35  1  0
  3 36  1  0
  3 37  1  0
  2 38  1  6
  1 39  1  0
  1 40  1  0
  1 41  1  0
 29  2  1  0
 18  9  1  0
 18 13  1  0
M  END
>  <cnnaffinities>  (49) 
[5.49324, 5.51394]

>  <score>  (49) 
5.49324

>  <index>  (49) 
48

>  <Smiles>  (49) 
C([C@]1(C(C(N(C(=O)C(c2c(nc(c3c(c(c(c(c23)[H])[H])[H])[H])[H])[H])([H])[H])C(C(O1)([H])[H])([H])[H])([H])[H])([H])[H])[H])([H])([H])[H]

>  <h>  (49) 
<NA>

>  <Training>  (49) 
True

>  <Success>  (49) 
True

>  <enamine_searched>  (49) 
False

>  <enamine_id>  (49) 
nan

$$$$

     RDKit          3D

 42 45  0  0  0  0  0  0  0  0999 V2000
    6.7794   -4.4348   21.6018 C   0  0  0  0  0  0  0  0  0  0  0  0
    7.3774   -3.2935   22.2883 N   0  0  0  0  0  0  0  0  0  0  0  0
    8.6866   -2.8026   21.8813 C   0  0  0  0  0  0  0  0  0  0  0  0
    8.8698   -1.2956   22.0818 C   0  0  1  0  0  0  0  0  0  0  0  0
    8.1965   -0.3764   21.0529 C   0  0  0  0  0  0  0  0  0  0  0  0
    8.8163    0.5180   20.5029 O   0  0  0  0  0  0  0  0  0  0  0  0
    6.8510   -0.5586   20.8618 N   0  0  0  0  0  0  0  0  0  0  0  0
    6.1448    0.0321   19.7856 C   0  0  0  0  0  0  0  0  0  0  0  0
    6.5007   -0.2470   18.4897 C   0  0  0  0  0  0  0  0  0  0  0  0
    5.8349    0.2023   17.3982 N   0  0  0  0  0  0  0  0  0  0  0  0
    4.8013    0.9792   17.6081 C   0  0  0  0  0  0  0  0  0  0  0  0
    4.3282    1.3613   18.8947 C   0  0  0  0  0  0  0  0  0  0  0  0
    3.2159    2.2286   19.0589 C   0  0  0  0  0  0  0  0  0  0  0  0
    2.8149    2.5998   20.3114 C   0  0  0  0  0  0  0  0  0  0  0  0
    3.5016    2.1249   21.4536 C   0  0  0  0  0  0  0  0  0  0  0  0
    4.5793    1.2765   21.3209 C   0  0  0  0  0  0  0  0  0  0  0  0
    5.0147    0.8751   20.0304 C   0  0  0  0  0  0  0  0  0  0  0  0
    5.1205    0.9229   22.1956 H   0  0  0  0  0  0  0  0  0  0  0  0
    3.1827    2.4470   22.4403 H   0  0  0  0  0  0  0  0  0  0  0  0
    1.9756    3.2812   20.4370 H   0  0  0  0  0  0  0  0  0  0  0  0
    2.7189    2.6000   18.1653 H   0  0  0  0  0  0  0  0  0  0  0  0
    4.2774    1.3453   16.7273 H   0  0  0  0  0  0  0  0  0  0  0  0
    7.3683   -0.8728   18.2922 H   0  0  0  0  0  0  0  0  0  0  0  0
    6.4092   -1.3321   21.3299 H   0  0  0  0  0  0  0  0  0  0  0  0
    8.3915   -0.9118   23.4479 C   0  0  0  0  0  0  0  0  0  0  0  0
    8.7428    0.3390   23.9556 C   0  0  0  0  0  0  0  0  0  0  0  0
    8.2155    0.7236   25.1744 C   0  0  0  0  0  0  0  0  0  0  0  0
    8.4700    2.3410   25.7321 Cl  0  0  0  0  0  0  0  0  0  0  0  0
    7.4078   -0.1210   25.9315 C   0  0  0  0  0  0  0  0  0  0  0  0
    7.0868   -1.3673   25.4301 C   0  0  0  0  0  0  0  0  0  0  0  0
    7.5084   -1.7305   24.1525 C   0  0  0  0  0  0  0  0  0  0  0  0
    6.9075   -2.9691   23.5370 C   0  0  0  0  0  0  0  0  0  0  0  0
    6.0130   -3.5998   24.0868 O   0  0  0  0  0  0  0  0  0  0  0  0
    6.5102   -2.0938   25.9895 H   0  0  0  0  0  0  0  0  0  0  0  0
    6.9944    0.2289   26.8704 H   0  0  0  0  0  0  0  0  0  0  0  0
    9.3893    1.0239   23.4110 H   0  0  0  0  0  0  0  0  0  0  0  0
    9.9328   -1.0713   21.9337 H   0  0  0  0  0  0  0  0  0  0  0  0
    9.4809   -3.3343   22.4297 H   0  0  0  0  0  0  0  0  0  0  0  0
    8.8342   -3.0102   20.8313 H   0  0  0  0  0  0  0  0  0  0  0  0
    7.5606   -5.0936   21.2127 H   0  0  0  0  0  0  0  0  0  0  0  0
    6.1697   -4.9740   22.3292 H   0  0  0  0  0  0  0  0  0  0  0  0
    6.1353   -4.1278   20.7683 H   0  0  0  0  0  0  0  0  0  0  0  0
  1  2  1  0
  2  3  1  0
  3  4  1  0
  4  5  1  0
  5  6  2  0
  5  7  1  0
  7  8  1  0
  8  9  2  0
  9 10  1  0
 10 11  2  0
 11 12  1  0
 12 13  2  0
 13 14  1  0
 14 15  2  0
 15 16  1  0
 16 17  2  0
 16 18  1  0
 15 19  1  0
 14 20  1  0
 13 21  1  0
 11 22  1  0
  9 23  1  0
  7 24  1  0
  4 25  1  0
 25 26  2  0
 26 27  1  0
 27 28  1  0
 27 29  2  0
 29 30  1  0
 30 31  2  0
 31 32  1  0
 32 33  2  0
 30 34  1  0
 29 35  1  0
 26 36  1  0
  4 37  1  1
  3 38  1  0
  3 39  1  0
  1 40  1  0
  1 41  1  0
  1 42  1  0
 32  2  1  0
 17  8  1  0
 31 25  1  0
 17 12  1  0
M  END
>  <cnnaffinities>  (50) 
[5.49091]

>  <score>  (50) 
5.49091

>  <index>  (50) 
49

>  <Smiles>  (50) 
C(N1C([C@@](C(=O)N(c2c(nc(c3c(c(c(c(c23)[H])[H])[H])[H])[H])[H])[H])(c2c(c(Cl)c(c(c2C1=O)[H])[H])[H])[H])([H])[H])([H])([H])[H]

>  <h>  (50) 
<NA>

>  <Training>  (50) 
True

>  <Success>  (50) 
True

>  <enamine_searched>  (50) 
False

>  <enamine_id>  (50) 
nan

$$$$

     RDKit          3D

 38 41  0  0  0  0  0  0  0  0999 V2000
    5.0917   -1.9823   21.3299 O   0  0  0  0  0  0  0  0  0  0  0  0
    6.2765   -1.7691   21.5166 C   0  0  0  0  0  0  0  0  0  0  0  0
    6.9398   -0.5089   20.8986 C   0  0  0  0  0  0  0  0  0  0  0  0
    6.1197    0.0874   19.7732 C   0  0  0  0  0  0  0  0  0  0  0  0
    6.4229   -0.2118   18.4687 C   0  0  0  0  0  0  0  0  0  0  0  0
    5.7580    0.2323   17.3693 N   0  0  0  0  0  0  0  0  0  0  0  0
    4.7368    1.0307   17.5759 C   0  0  0  0  0  0  0  0  0  0  0  0
    4.2879    1.4208   18.8686 C   0  0  0  0  0  0  0  0  0  0  0  0
    3.1652    2.2740   19.0414 C   0  0  0  0  0  0  0  0  0  0  0  0
    2.7459    2.6239   20.2985 C   0  0  0  0  0  0  0  0  0  0  0  0
    3.4323    2.1331   21.4306 C   0  0  0  0  0  0  0  0  0  0  0  0
    4.5244    1.3095   21.2881 C   0  0  0  0  0  0  0  0  0  0  0  0
    4.9877    0.9328   19.9994 C   0  0  0  0  0  0  0  0  0  0  0  0
    5.0292    0.9267   22.1680 H   0  0  0  0  0  0  0  0  0  0  0  0
    3.0931    2.4131   22.4229 H   0  0  0  0  0  0  0  0  0  0  0  0
    1.8885    3.2783   20.4333 H   0  0  0  0  0  0  0  0  0  0  0  0
    2.6462    2.6460   18.1604 H   0  0  0  0  0  0  0  0  0  0  0  0
    4.2010    1.3990   16.6990 H   0  0  0  0  0  0  0  0  0  0  0  0
    7.2638   -0.8650   18.2449 H   0  0  0  0  0  0  0  0  0  0  0  0
    7.0930    0.2468   21.6818 H   0  0  0  0  0  0  0  0  0  0  0  0
    7.9389   -0.7579   20.5100 H   0  0  0  0  0  0  0  0  0  0  0  0
    7.0562   -2.6405   22.2524 N   0  0  0  0  0  0  0  0  0  0  0  0
    6.6250   -4.0332   22.4112 C   0  0  0  0  0  0  0  0  0  0  0  0
    6.7423   -4.5000   23.8583 C   0  0  0  0  0  0  0  0  0  0  0  0
    8.0831   -4.1314   24.3979 C   0  0  0  0  0  0  0  0  0  0  0  0
    8.8359   -4.8849   25.7558 S   0  0  0  0  0  0  0  0  0  0  0  0
   10.2029   -3.8580   25.5976 C   0  0  0  0  0  0  0  0  0  0  0  0
   10.0689   -2.9462   24.5887 C   0  0  0  0  0  0  0  0  0  0  0  0
    8.8416   -3.1272   23.8823 C   0  0  0  0  0  0  0  0  0  0  0  0
    8.4080   -2.3230   22.6867 C   0  0  0  0  0  0  0  0  0  0  0  0
    9.1501   -2.4608   21.8849 H   0  0  0  0  0  0  0  0  0  0  0  0
    8.4698   -1.2654   22.9592 H   0  0  0  0  0  0  0  0  0  0  0  0
   10.8059   -2.1751   24.3640 H   0  0  0  0  0  0  0  0  0  0  0  0
   10.9649   -3.9419   26.3520 H   0  0  0  0  0  0  0  0  0  0  0  0
    5.9665   -4.0214   24.4661 H   0  0  0  0  0  0  0  0  0  0  0  0
    6.5675   -5.5777   23.9345 H   0  0  0  0  0  0  0  0  0  0  0  0
    5.5942   -4.1168   22.0676 H   0  0  0  0  0  0  0  0  0  0  0  0
    7.2352   -4.6884   21.7743 H   0  0  0  0  0  0  0  0  0  0  0  0
  1  2  2  0
  2  3  1  0
  3  4  1  0
  4  5  2  0
  5  6  1  0
  6  7  2  0
  7  8  1  0
  8  9  2  0
  9 10  1  0
 10 11  2  0
 11 12  1  0
 12 13  2  0
 12 14  1  0
 11 15  1  0
 10 16  1  0
  9 17  1  0
  7 18  1  0
  5 19  1  0
  3 20  1  0
  3 21  1  0
  2 22  1  0
 22 23  1  0
 23 24  1  0
 24 25  1  0
 25 26  1  0
 26 27  1  0
 27 28  2  0
 28 29  1  0
 29 30  1  0
 30 31  1  0
 30 32  1  0
 28 33  1  0
 27 34  1  0
 24 35  1  0
 24 36  1  0
 23 37  1  0
 23 38  1  0
 13  4  1  0
 30 22  1  0
 13  8  1  0
 29 25  2  0
M  END
>  <cnnaffinities>  (51) 
[5.46689, 5.45364]

>  <score>  (51) 
5.46689

>  <index>  (51) 
50

>  <Smiles>  (51) 
O=C(C(c1c(nc(c2c(c(c(c(c12)[H])[H])[H])[H])[H])[H])([H])[H])N1C(C(c2sc(c(c2C1([H])[H])[H])[H])([H])[H])([H])[H]

>  <h>  (51) 
<NA>

>  <Training>  (51) 
True

>  <Success>  (51) 
True

>  <enamine_searched>  (51) 
False

>  <enamine_id>  (51) 
nan

$$$$

     RDKit          3D

 67 73  0  0  0  0  0  0  0  0999 V2000
    6.2293    1.6027   29.9984 C   0  0  0  0  0  0  0  0  0  0  0  0
    5.8956    1.3142   28.5756 C   0  0  0  0  0  0  0  0  0  0  0  0
    5.0729    0.4250   28.1296 N   0  0  0  0  0  0  0  0  0  0  0  0
    5.1322    0.4919   26.7426 N   0  0  0  0  0  0  0  0  0  0  0  0
    5.9768    1.4229   26.4607 C   0  0  0  0  0  0  0  0  0  0  0  0
    6.4095    1.8539   25.0933 C   0  0  0  0  0  0  0  0  0  0  0  0
    7.5305    1.0884   24.5985 N   0  0  0  0  0  0  0  0  0  0  0  0
    7.3640   -0.2535   24.0894 C   0  0  0  0  0  0  0  0  0  0  0  0
    8.2025   -0.4837   22.8037 C   0  0  2  0  0  0  0  0  0  0  0  0
    7.6339    0.3840   21.6631 C   0  0  0  0  0  0  0  0  0  0  0  0
    7.7718    1.5786   21.5164 O   0  0  0  0  0  0  0  0  0  0  0  0
    6.9163   -0.4292   20.8197 N   0  0  0  0  0  0  0  0  0  0  0  0
    6.1338    0.0919   19.7682 C   0  0  0  0  0  0  0  0  0  0  0  0
    6.4435   -0.2393   18.4731 C   0  0  0  0  0  0  0  0  0  0  0  0
    5.7777    0.2115   17.3834 N   0  0  0  0  0  0  0  0  0  0  0  0
    4.7603    1.0144   17.5929 C   0  0  0  0  0  0  0  0  0  0  0  0
    4.3099    1.4099   18.8856 C   0  0  0  0  0  0  0  0  0  0  0  0
    3.1860    2.2631   19.0518 C   0  0  0  0  0  0  0  0  0  0  0  0
    2.7488    2.6064   20.3020 C   0  0  0  0  0  0  0  0  0  0  0  0
    3.4144    2.1101   21.4463 C   0  0  0  0  0  0  0  0  0  0  0  0
    4.5066    1.2902   21.3118 C   0  0  0  0  0  0  0  0  0  0  0  0
    4.9994    0.9310   20.0205 C   0  0  0  0  0  0  0  0  0  0  0  0
    5.0083    0.9169   22.2010 H   0  0  0  0  0  0  0  0  0  0  0  0
    3.0611    2.3887   22.4359 H   0  0  0  0  0  0  0  0  0  0  0  0
    1.8934    3.2659   20.4249 H   0  0  0  0  0  0  0  0  0  0  0  0
    2.6876    2.6360   18.1611 H   0  0  0  0  0  0  0  0  0  0  0  0
    4.2259    1.3828   16.7168 H   0  0  0  0  0  0  0  0  0  0  0  0
    7.2963   -0.8892   18.2759 H   0  0  0  0  0  0  0  0  0  0  0  0
    6.8774   -1.8144   21.2342 C   0  0  0  0  0  0  0  0  0  0  0  0
    8.0302   -1.9190   22.2430 C   0  0  2  0  0  0  0  0  0  0  0  0
    7.8126   -3.0445   23.2666 C   0  0  0  0  0  0  0  0  0  0  0  0
    7.8338   -4.3605   22.6607 N   0  0  0  0  0  0  0  0  0  0  0  0
    6.7330   -5.0418   22.2543 C   0  0  0  0  0  0  0  0  0  0  0  0
    6.8506   -6.2320   21.5035 C   0  0  0  0  0  0  0  0  0  0  0  0
    5.6786   -6.8904   21.2281 C   0  0  0  0  0  0  0  0  0  0  0  0
    4.4716   -6.4542   21.6162 N   0  0  0  0  0  0  0  0  0  0  0  0
    4.4745   -5.2956   22.2511 C   0  0  0  0  0  0  0  0  0  0  0  0
    5.5284   -4.5522   22.5830 N   0  0  0  0  0  0  0  0  0  0  0  0
    3.4979   -4.8951   22.5245 H   0  0  0  0  0  0  0  0  0  0  0  0
    5.6944   -7.8123   20.6517 H   0  0  0  0  0  0  0  0  0  0  0  0
    7.8119   -6.5905   21.1462 H   0  0  0  0  0  0  0  0  0  0  0  0
    8.7386   -4.7295   22.4198 H   0  0  0  0  0  0  0  0  0  0  0  0
    6.8420   -2.9236   23.7511 H   0  0  0  0  0  0  0  0  0  0  0  0
    8.5826   -3.0033   24.0466 H   0  0  0  0  0  0  0  0  0  0  0  0
    8.9519   -2.1445   21.7017 H   0  0  0  0  0  0  0  0  0  0  0  0
    5.9161   -2.0583   21.7042 H   0  0  0  0  0  0  0  0  0  0  0  0
    6.9830   -2.4725   20.3737 H   0  0  0  0  0  0  0  0  0  0  0  0
    9.6222   -0.0407   23.0742 C   0  0  0  0  0  0  0  0  0  0  0  0
   10.6728   -0.3608   22.2028 C   0  0  0  0  0  0  0  0  0  0  0  0
   11.9346    0.1623   22.4510 C   0  0  0  0  0  0  0  0  0  0  0  0
   13.2222    0.0191   21.2987 Cl  0  0  0  0  0  0  0  0  0  0  0  0
   12.2201    0.8995   23.6058 C   0  0  0  0  0  0  0  0  0  0  0  0
   11.1722    1.2671   24.4180 C   0  0  0  0  0  0  0  0  0  0  0  0
    9.8792    0.8708   24.1028 C   0  0  0  0  0  0  0  0  0  0  0  0
    8.7712    1.6215   24.7613 C   0  0  0  0  0  0  0  0  0  0  0  0
    8.9529    2.6925   25.3234 O   0  0  0  0  0  0  0  0  0  0  0  0
   11.2890    1.9035   25.2835 H   0  0  0  0  0  0  0  0  0  0  0  0
   13.2423    1.2056   23.8122 H   0  0  0  0  0  0  0  0  0  0  0  0
   10.5038   -1.0071   21.3437 H   0  0  0  0  0  0  0  0  0  0  0  0
    6.3043   -0.4218   23.8823 H   0  0  0  0  0  0  0  0  0  0  0  0
    7.6705   -0.9710   24.8611 H   0  0  0  0  0  0  0  0  0  0  0  0
    5.5604    1.7232   24.4122 H   0  0  0  0  0  0  0  0  0  0  0  0
    6.7326    2.8994   25.0953 H   0  0  0  0  0  0  0  0  0  0  0  0
    6.4997    2.0019   27.5686 O   0  0  0  0  0  0  0  0  0  0  0  0
    6.9919    0.9032   30.3596 H   0  0  0  0  0  0  0  0  0  0  0  0
    6.6069    2.6180   30.1246 H   0  0  0  0  0  0  0  0  0  0  0  0
    5.3404    1.4597   30.6172 H   0  0  0  0  0  0  0  0  0  0  0  0
  1  2  1  0
  2  3  2  0
  3  4  1  0
  4  5  2  0
  5  6  1  0
  6  7  1  0
  7  8  1  0
  9  8  1  1
  9 10  1  0
 10 11  2  0
 10 12  1  0
 12 13  1  0
 13 14  2  0
 14 15  1  0
 15 16  2  0
 16 17  1  0
 17 18  2  0
 18 19  1  0
 19 20  2  0
 20 21  1  0
 21 22  2  0
 21 23  1  0
 20 24  1  0
 19 25  1  0
 18 26  1  0
 16 27  1  0
 14 28  1  0
 12 29  1  0
 29 30  1  0
 30 31  1  0
 31 32  1  0
 32 33  1  0
 33 34  2  0
 34 35  1  0
 35 36  2  0
 36 37  1  0
 37 38  2  0
 37 39  1  0
 35 40  1  0
 34 41  1  0
 32 42  1  0
 31 43  1  0
 31 44  1  0
 30 45  1  6
 29 46  1  0
 29 47  1  0
  9 48  1  0
 48 49  2  0
 49 50  1  0
 50 51  1  0
 50 52  2  0
 52 53  1  0
 53 54  2  0
 54 55  1  0
 55 56  2  0
 53 57  1  0
 52 58  1  0
 49 59  1  0
  8 60  1  0
  8 61  1  0
  6 62  1  0
  6 63  1  0
  5 64  1  0
  1 65  1  0
  1 66  1  0
  1 67  1  0
 64  2  1  0
 55  7  1  0
 30  9  1  0
 38 33  1  0
 54 48  1  0
 22 13  1  0
 22 17  1  0
M  END
>  <cnnaffinities>  (52) 
[6.45094, 6.3314]

>  <score>  (52) 
6.45094

>  <index>  (52) 
51

>  <Smiles>  (52) 
C(c1nnc(C(N2C([C@@]3(C(=O)N(c4c(nc(c5c(c(c(c(c45)[H])[H])[H])[H])[H])[H])C([C@@]3(C(N(c3c(c(nc(n3)[H])[H])[H])[H])([H])[H])[H])([H])[H])c3c(c(Cl)c(c(c3C2=O)[H])[H])[H])([H])[H])([H])[H])o1)([H])([H])[H]

>  <h>  (52) 
<NA>

>  <Training>  (52) 
True

>  <Success>  (52) 
True

>  <enamine_searched>  (52) 
False

>  <enamine_id>  (52) 
nan

$$$$

     RDKit          3D

 66 71  0  0  0  0  0  0  0  0999 V2000
    6.5055    4.3425   21.3693 C   0  0  0  0  0  0  0  0  0  0  0  0
    7.4745    3.9640   22.3869 N   0  0  0  0  0  0  0  0  0  0  0  0
    7.0114    3.3218   23.4975 C   0  0  0  0  0  0  0  0  0  0  0  0
    5.8181    3.1254   23.6799 O   0  0  0  0  0  0  0  0  0  0  0  0
    8.0623    2.8574   24.5195 C   0  0  0  0  0  0  0  0  0  0  0  0
    8.7246    1.6421   24.0684 N   0  0  0  0  0  0  0  0  0  0  0  0
    7.9450    0.4153   23.9341 C   0  0  0  0  0  0  0  0  0  0  0  0
    8.3703   -0.4259   22.7013 C   0  0  2  0  0  0  0  0  0  0  0  0
    7.8881    0.2425   21.3927 C   0  0  0  0  0  0  0  0  0  0  0  0
    8.3470    1.2393   20.8684 O   0  0  0  0  0  0  0  0  0  0  0  0
    6.8522   -0.4933   20.8680 N   0  0  0  0  0  0  0  0  0  0  0  0
    6.1114    0.0366   19.7839 C   0  0  0  0  0  0  0  0  0  0  0  0
    6.4889   -0.2421   18.4969 C   0  0  0  0  0  0  0  0  0  0  0  0
    5.8327    0.2045   17.4000 N   0  0  0  0  0  0  0  0  0  0  0  0
    4.7933    0.9829   17.5991 C   0  0  0  0  0  0  0  0  0  0  0  0
    4.3176    1.3781   18.8826 C   0  0  0  0  0  0  0  0  0  0  0  0
    3.2081    2.2477   19.0466 C   0  0  0  0  0  0  0  0  0  0  0  0
    2.7964    2.6220   20.2985 C   0  0  0  0  0  0  0  0  0  0  0  0
    3.4831    2.1568   21.4426 C   0  0  0  0  0  0  0  0  0  0  0  0
    4.5622    1.3171   21.3097 C   0  0  0  0  0  0  0  0  0  0  0  0
    5.0000    0.8971   20.0219 C   0  0  0  0  0  0  0  0  0  0  0  0
    5.1246    1.0200   22.1907 H   0  0  0  0  0  0  0  0  0  0  0  0
    3.1838    2.4936   22.4309 H   0  0  0  0  0  0  0  0  0  0  0  0
    1.9467    3.2876   20.4162 H   0  0  0  0  0  0  0  0  0  0  0  0
    2.7120    2.6170   18.1543 H   0  0  0  0  0  0  0  0  0  0  0  0
    4.2692    1.3441   16.7156 H   0  0  0  0  0  0  0  0  0  0  0  0
    7.3685   -0.8566   18.3154 H   0  0  0  0  0  0  0  0  0  0  0  0
    6.4510   -1.6168   21.6899 C   0  0  0  0  0  0  0  0  0  0  0  0
    7.6683   -1.8153   22.6032 C   0  0  2  0  0  0  0  0  0  0  0  0
    7.3216   -2.5647   23.8773 C   0  0  0  0  0  0  0  0  0  0  0  0
    8.4839   -3.1382   24.5206 N   0  0  0  0  0  0  0  0  0  0  0  0
    8.3346   -3.7240   25.7423 C   0  0  0  0  0  0  0  0  0  0  0  0
    9.4026   -4.3451   26.4226 C   0  0  0  0  0  0  0  0  0  0  0  0
    9.1070   -4.8285   27.6751 C   0  0  0  0  0  0  0  0  0  0  0  0
    7.8864   -4.7840   28.2326 N   0  0  0  0  0  0  0  0  0  0  0  0
    6.9582   -4.2158   27.4798 C   0  0  0  0  0  0  0  0  0  0  0  0
    7.1011   -3.6984   26.2632 N   0  0  0  0  0  0  0  0  0  0  0  0
    5.9515   -4.1929   27.9001 H   0  0  0  0  0  0  0  0  0  0  0  0
    9.8893   -5.2747   28.2878 H   0  0  0  0  0  0  0  0  0  0  0  0
   10.3992   -4.4205   25.9834 H   0  0  0  0  0  0  0  0  0  0  0  0
    9.3973   -2.7871   24.2629 H   0  0  0  0  0  0  0  0  0  0  0  0
    6.6250   -3.3782   23.6522 H   0  0  0  0  0  0  0  0  0  0  0  0
    6.7798   -1.9312   24.5846 H   0  0  0  0  0  0  0  0  0  0  0  0
    8.3544   -2.4623   22.0563 H   0  0  0  0  0  0  0  0  0  0  0  0
    6.2506   -2.5061   21.0765 H   0  0  0  0  0  0  0  0  0  0  0  0
    5.5411   -1.3924   22.2702 H   0  0  0  0  0  0  0  0  0  0  0  0
    9.8796   -0.4876   22.6390 C   0  0  0  0  0  0  0  0  0  0  0  0
   10.4876   -1.3487   21.7164 C   0  0  0  0  0  0  0  0  0  0  0  0
   11.8510   -1.3204   21.5112 C   0  0  0  0  0  0  0  0  0  0  0  0
   12.4682   -2.3902   20.2722 Cl  0  0  0  0  0  0  0  0  0  0  0  0
   12.6583   -0.4324   22.2313 C   0  0  0  0  0  0  0  0  0  0  0  0
   12.0647    0.4258   23.1314 C   0  0  0  0  0  0  0  0  0  0  0  0
   10.6828    0.4511   23.2929 C   0  0  0  0  0  0  0  0  0  0  0  0
   10.0927    1.6111   24.0337 C   0  0  0  0  0  0  0  0  0  0  0  0
   10.7910    2.4976   24.5098 O   0  0  0  0  0  0  0  0  0  0  0  0
   12.6629    1.1297   23.6970 H   0  0  0  0  0  0  0  0  0  0  0  0
   13.7244   -0.3411   22.0779 H   0  0  0  0  0  0  0  0  0  0  0  0
    9.9144   -1.9914   21.0606 H   0  0  0  0  0  0  0  0  0  0  0  0
    8.0637   -0.1851   24.8490 H   0  0  0  0  0  0  0  0  0  0  0  0
    6.8939    0.6958   23.8309 H   0  0  0  0  0  0  0  0  0  0  0  0
    8.8525    3.6022   24.6786 H   0  0  0  0  0  0  0  0  0  0  0  0
    7.5522    2.7045   25.4799 H   0  0  0  0  0  0  0  0  0  0  0  0
    8.4090    3.7326   22.0572 H   0  0  0  0  0  0  0  0  0  0  0  0
    6.9852    4.9362   20.5863 H   0  0  0  0  0  0  0  0  0  0  0  0
    6.0236    3.4634   20.9202 H   0  0  0  0  0  0  0  0  0  0  0  0
    5.7178    4.9409   21.8314 H   0  0  0  0  0  0  0  0  0  0  0  0
  1  2  1  0
  2  3  1  0
  3  4  2  0
  3  5  1  0
  5  6  1  0
  6  7  1  0
  8  7  1  1
  8  9  1  0
  9 10  2  0
  9 11  1  0
 11 12  1  0
 12 13  2  0
 13 14  1  0
 14 15  2  0
 15 16  1  0
 16 17  2  0
 17 18  1  0
 18 19  2  0
 19 20  1  0
 20 21  2  0
 20 22  1  0
 19 23  1  0
 18 24  1  0
 17 25  1  0
 15 26  1  0
 13 27  1  0
 11 28  1  0
 28 29  1  0
 29 30  1  0
 30 31  1  0
 31 32  1  0
 32 33  2  0
 33 34  1  0
 34 35  2  0
 35 36  1  0
 36 37  2  0
 36 38  1  0
 34 39  1  0
 33 40  1  0
 31 41  1  0
 30 42  1  0
 30 43  1  0
 29 44  1  6
 28 45  1  0
 28 46  1  0
  8 47  1  0
 47 48  2  0
 48 49  1  0
 49 50  1  0
 49 51  2  0
 51 52  1  0
 52 53  2  0
 53 54  1  0
 54 55  2  0
 52 56  1  0
 51 57  1  0
 48 58  1  0
  7 59  1  0
  7 60  1  0
  5 61  1  0
  5 62  1  0
  2 63  1  0
  1 64  1  0
  1 65  1  0
  1 66  1  0
 54  6  1  0
 29  8  1  0
 37 32  1  0
 53 47  1  0
 21 12  1  0
 21 16  1  0
M  END
>  <cnnaffinities>  (53) 
[6.58116, 7.52356]

>  <score>  (53) 
6.58116

>  <index>  (53) 
52

>  <Smiles>  (53) 
C(N(C(=O)C(N1C([C@@]2(C(=O)N(c3c(nc(c4c(c(c(c(c34)[H])[H])[H])[H])[H])[H])C([C@@]2(C(N(c2c(c(nc(n2)[H])[H])[H])[H])([H])[H])[H])([H])[H])c2c(c(Cl)c(c(c2C1=O)[H])[H])[H])([H])[H])([H])[H])[H])([H])([H])[H]

>  <h>  (53) 
<NA>

>  <Training>  (53) 
True

>  <Success>  (53) 
True

>  <enamine_searched>  (53) 
False

>  <enamine_id>  (53) 
nan

$$$$

     RDKit          3D

 77 84  0  0  0  0  0  0  0  0999 V2000
   10.2685    2.8635   24.4174 O   0  0  0  0  0  0  0  0  0  0  0  0
    9.7647    1.7832   24.1293 C   0  0  0  0  0  0  0  0  0  0  0  0
   10.5457    0.7399   23.3581 C   0  0  0  0  0  0  0  0  0  0  0  0
   11.9380    0.8203   23.2427 C   0  0  0  0  0  0  0  0  0  0  0  0
   12.6262    0.0322   22.3270 C   0  0  0  0  0  0  0  0  0  0  0  0
   11.8969   -0.8346   21.5098 C   0  0  0  0  0  0  0  0  0  0  0  0
   12.5799   -1.6879   20.1462 Cl  0  0  0  0  0  0  0  0  0  0  0  0
   10.5374   -0.9579   21.6552 C   0  0  0  0  0  0  0  0  0  0  0  0
    9.8577   -0.2462   22.6481 C   0  0  0  0  0  0  0  0  0  0  0  0
    8.3565   -0.3807   22.7643 C   0  0  1  0  0  0  0  0  0  0  0  0
    7.8581    0.1964   24.1119 C   0  0  0  0  0  0  0  0  0  0  0  0
    8.4605    1.4828   24.4231 N   0  0  0  0  0  0  0  0  0  0  0  0
    7.5684    2.5162   24.9445 C   0  0  0  0  0  0  0  0  0  0  0  0
    6.7858    3.2285   23.8414 C   0  0  0  0  0  0  0  0  0  0  0  0
    7.7022    4.0979   23.0490 N   0  0  0  0  0  4  0  0  0  0  0  0
    8.2786    5.3197   23.8142 C   0  0  0  0  0  0  0  0  0  0  0  0
    7.7328    6.2955   22.7571 C   0  0  0  0  0  0  0  0  0  0  0  0
    8.6493    7.2780   22.0450 C   0  0  0  0  0  0  0  0  0  0  0  0
    7.7309    8.3556   22.2626 O   0  0  0  0  0  0  0  0  0  0  0  0
    6.8428    7.5124   23.0061 C   0  0  0  0  0  0  0  0  0  0  0  0
    5.8520    7.4396   22.5355 H   0  0  0  0  0  0  0  0  0  0  0  0
    6.7151    7.8453   24.0453 H   0  0  0  0  0  0  0  0  0  0  0  0
    8.8213    7.0475   20.9871 H   0  0  0  0  0  0  0  0  0  0  0  0
    9.6159    7.4651   22.5320 H   0  0  0  0  0  0  0  0  0  0  0  0
    7.1245    5.0751   22.0355 C   0  0  0  0  0  0  0  0  0  0  0  0
    6.0353    5.0448   22.0140 H   0  0  0  0  0  0  0  0  0  0  0  0
    7.5126    4.8650   21.0417 H   0  0  0  0  0  0  0  0  0  0  0  0
    9.3581    5.2303   23.8972 H   0  0  0  0  0  0  0  0  0  0  0  0
    7.8230    5.4025   24.8013 H   0  0  0  0  0  0  0  0  0  0  0  0
    8.3944    3.4897   22.5796 H   0  0  0  0  0  0  0  0  0  0  0  0
    5.9719    3.8425   24.2426 H   0  0  0  0  0  0  0  0  0  0  0  0
    6.3610    2.5062   23.1470 H   0  0  0  0  0  0  0  0  0  0  0  0
    6.8587    2.0483   25.6344 H   0  0  0  0  0  0  0  0  0  0  0  0
    8.1728    3.2155   25.5262 H   0  0  0  0  0  0  0  0  0  0  0  0
    6.7714    0.3313   24.0191 H   0  0  0  0  0  0  0  0  0  0  0  0
    8.0595   -0.5160   24.9262 H   0  0  0  0  0  0  0  0  0  0  0  0
    7.7340    0.4455   21.6194 C   0  0  0  0  0  0  0  0  0  0  0  0
    7.9024    1.6381   21.4124 O   0  0  0  0  0  0  0  0  0  0  0  0
    6.9489   -0.3896   20.8613 N   0  0  0  0  0  0  0  0  0  0  0  0
    6.1731    0.0932   19.7845 C   0  0  0  0  0  0  0  0  0  0  0  0
    6.4860   -0.2717   18.5015 C   0  0  0  0  0  0  0  0  0  0  0  0
    5.8131    0.1546   17.4062 N   0  0  0  0  0  0  0  0  0  0  0  0
    4.8051    0.9703   17.6087 C   0  0  0  0  0  0  0  0  0  0  0  0
    4.3600    1.3998   18.8921 C   0  0  0  0  0  0  0  0  0  0  0  0
    3.2508    2.2723   19.0508 C   0  0  0  0  0  0  0  0  0  0  0  0
    2.8215    2.6297   20.2995 C   0  0  0  0  0  0  0  0  0  0  0  0
    3.4735    2.1274   21.4494 C   0  0  0  0  0  0  0  0  0  0  0  0
    4.5503    1.2850   21.3186 C   0  0  0  0  0  0  0  0  0  0  0  0
    5.0426    0.9273   20.0292 C   0  0  0  0  0  0  0  0  0  0  0  0
    5.0394    0.8931   22.2061 H   0  0  0  0  0  0  0  0  0  0  0  0
    3.1240    2.4189   22.4360 H   0  0  0  0  0  0  0  0  0  0  0  0
    1.9741    3.2996   20.4128 H   0  0  0  0  0  0  0  0  0  0  0  0
    2.7682    2.6496   18.1528 H   0  0  0  0  0  0  0  0  0  0  0  0
    4.2792    1.3263   16.7252 H   0  0  0  0  0  0  0  0  0  0  0  0
    7.3312   -0.9345   18.3216 H   0  0  0  0  0  0  0  0  0  0  0  0
    6.6758   -1.6658   21.4923 C   0  0  0  0  0  0  0  0  0  0  0  0
    7.8399   -1.8183   22.4663 C   0  0  2  0  0  0  0  0  0  0  0  0
    7.5190   -2.7182   23.6487 C   0  0  0  0  0  0  0  0  0  0  0  0
    8.7402   -3.0562   24.3497 N   0  0  0  0  0  0  0  0  0  0  0  0
    8.7310   -3.8503   25.4448 C   0  0  0  0  0  0  0  0  0  0  0  0
    9.9177   -4.2308   25.9568 N   0  0  0  0  0  0  0  0  0  0  0  0
    9.8488   -4.9454   27.0770 C   0  0  0  0  0  0  0  0  0  0  0  0
    8.6467   -5.2893   27.6903 C   0  0  0  0  0  0  0  0  0  0  0  0
    7.4935   -4.8789   27.0354 C   0  0  0  0  0  0  0  0  0  0  0  0
    7.5105   -4.1722   25.9123 N   0  0  0  0  0  0  0  0  0  0  0  0
    6.5017   -5.1300   27.4071 H   0  0  0  0  0  0  0  0  0  0  0  0
    8.6159   -5.8497   28.6165 H   0  0  0  0  0  0  0  0  0  0  0  0
   10.7958   -5.2702   27.5116 H   0  0  0  0  0  0  0  0  0  0  0  0
    9.6390   -2.7223   24.0318 H   0  0  0  0  0  0  0  0  0  0  0  0
    7.0195   -3.6371   23.3139 H   0  0  0  0  0  0  0  0  0  0  0  0
    6.8076   -2.2345   24.3304 H   0  0  0  0  0  0  0  0  0  0  0  0
    8.6439   -2.3195   21.9285 H   0  0  0  0  0  0  0  0  0  0  0  0
    5.7133   -1.6654   22.0312 H   0  0  0  0  0  0  0  0  0  0  0  0
    6.6455   -2.4741   20.7535 H   0  0  0  0  0  0  0  0  0  0  0  0
   10.0184   -1.5480   20.9109 H   0  0  0  0  0  0  0  0  0  0  0  0
   13.6970    0.1235   22.2086 H   0  0  0  0  0  0  0  0  0  0  0  0
   12.4934    1.5292   23.8473 H   0  0  0  0  0  0  0  0  0  0  0  0
  1  2  2  0
  2  3  1  0
  3  4  2  0
  4  5  1  0
  5  6  2  0
  6  7  1  0
  6  8  1  0
  8  9  2  0
  9 10  1  0
 10 11  1  1
 11 12  1  0
 12 13  1  0
 13 14  1  0
 14 15  1  0
 15 16  1  0
 16 17  1  0
 17 18  1  0
 18 19  1  0
 19 20  1  0
 20 21  1  0
 20 22  1  0
 18 23  1  0
 18 24  1  0
 17 25  1  0
 25 26  1  0
 25 27  1  0
 16 28  1  0
 16 29  1  0
 15 30  1  0
 14 31  1  0
 14 32  1  0
 13 33  1  0
 13 34  1  0
 11 35  1  0
 11 36  1  0
 10 37  1  0
 37 38  2  0
 37 39  1  0
 39 40  1  0
 40 41  2  0
 41 42  1  0
 42 43  2  0
 43 44  1  0
 44 45  2  0
 45 46  1  0
 46 47  2  0
 47 48  1  0
 48 49  2  0
 48 50  1  0
 47 51  1  0
 46 52  1  0
 45 53  1  0
 43 54  1  0
 41 55  1  0
 39 56  1  0
 56 57  1  0
 57 58  1  0
 58 59  1  0
 59 60  1  0
 60 61  2  0
 61 62  1  0
 62 63  2  0
 63 64  1  0
 64 65  2  0
 64 66  1  0
 63 67  1  0
 62 68  1  0
 59 69  1  0
 58 70  1  0
 58 71  1  0
 57 72  1  6
 56 73  1  0
 56 74  1  0
  8 75  1  0
  5 76  1  0
  4 77  1  0
 12  2  1  0
 25 15  1  0
 49 40  1  0
 65 60  1  0
  9  3  1  0
 57 10  1  0
 20 17  1  0
 49 44  1  0
M  CHG  1  15   1
M  END
>  <cnnaffinities>  (54) 
[6.639]

>  <score>  (54) 
6.639

>  <index>  (54) 
53

>  <Smiles>  (54) 
O=C1c2c(c(c(Cl)c(c2[C@@]2(C(N1C(C([N+]1(C(C3(C(OC3([H])[H])([H])[H])C1([H])[H])([H])[H])[H])([H])[H])([H])[H])([H])[H])C(=O)N(c1c(nc(c3c(c(c(c(c13)[H])[H])[H])[H])[H])[H])C([C@@]2(C(N(c1nc(c(c(n1)[H])[H])[H])[H])([H])[H])[H])([H])[H])[H])[H])[H]

>  <h>  (54) 
<NA>

>  <Training>  (54) 
True

>  <Success>  (54) 
True

>  <enamine_searched>  (54) 
False

>  <enamine_id>  (54) 
nan

$$$$

     RDKit          3D

 66 71  0  0  0  0  0  0  0  0999 V2000
    7.7522   -8.4644   23.1638 C   0  0  0  0  0  0  0  0  0  0  0  0
    6.7809   -7.4219   22.8953 N   0  0  0  0  0  0  0  0  0  0  0  0
    6.9117   -6.5921   21.8283 C   0  0  0  0  0  0  0  0  0  0  0  0
    7.7013   -6.7692   20.9116 O   0  0  0  0  0  0  0  0  0  0  0  0
    5.9744   -5.3865   21.8475 C   0  0  0  0  0  0  0  0  0  0  0  0
    6.4576   -4.3064   22.6912 N   0  0  0  0  0  0  0  0  0  0  0  0
    7.5686   -3.4848   22.2362 C   0  0  0  0  0  0  0  0  0  0  0  0
    7.3987   -1.9966   22.6307 C   0  0  2  0  0  0  0  0  0  0  0  0
    6.3083   -1.3876   21.7150 C   0  0  0  0  0  0  0  0  0  0  0  0
    5.1327   -1.6795   21.7079 O   0  0  0  0  0  0  0  0  0  0  0  0
    6.8886   -0.4741   20.8551 N   0  0  0  0  0  0  0  0  0  0  0  0
    6.1603    0.0504   19.7651 C   0  0  0  0  0  0  0  0  0  0  0  0
    6.5097   -0.2842   18.4798 C   0  0  0  0  0  0  0  0  0  0  0  0
    5.8681    0.1414   17.3663 N   0  0  0  0  0  0  0  0  0  0  0  0
    4.8521    0.9510   17.5416 C   0  0  0  0  0  0  0  0  0  0  0  0
    4.3891    1.3866   18.8137 C   0  0  0  0  0  0  0  0  0  0  0  0
    3.2789    2.2629   18.9249 C   0  0  0  0  0  0  0  0  0  0  0  0
    2.8221    2.6518   20.1530 C   0  0  0  0  0  0  0  0  0  0  0  0
    3.4555    2.1773   21.3225 C   0  0  0  0  0  0  0  0  0  0  0  0
    4.5382    1.3377   21.2410 C   0  0  0  0  0  0  0  0  0  0  0  0
    5.0392    0.9182   19.9742 C   0  0  0  0  0  0  0  0  0  0  0  0
    4.9951    0.9709   22.1527 H   0  0  0  0  0  0  0  0  0  0  0  0
    3.0738    2.4760   22.2946 H   0  0  0  0  0  0  0  0  0  0  0  0
    1.9737    3.3253   20.2362 H   0  0  0  0  0  0  0  0  0  0  0  0
    2.8098    2.6140   18.0101 H   0  0  0  0  0  0  0  0  0  0  0  0
    4.3278    1.2908   16.6500 H   0  0  0  0  0  0  0  0  0  0  0  0
    7.3395   -0.9668   18.3088 H   0  0  0  0  0  0  0  0  0  0  0  0
    8.3428   -0.5341   20.8850 C   0  0  0  0  0  0  0  0  0  0  0  0
    8.6395   -1.1195   22.2770 C   0  0  2  0  0  0  0  0  0  0  0  0
   10.0319   -1.7421   22.3485 C   0  0  0  0  0  0  0  0  0  0  0  0
   10.3912   -2.1637   23.7000 N   0  0  0  0  0  0  0  0  0  0  0  0
   11.7434   -2.3430   23.9766 C   0  0  0  0  0  0  0  0  0  0  0  0
   12.1992   -3.4036   24.7763 C   0  0  0  0  0  0  0  0  0  0  0  0
   13.4595   -3.4820   25.1895 N   0  0  0  0  0  0  0  0  0  0  0  0
   14.3108   -2.5840   24.6940 C   0  0  0  0  0  0  0  0  0  0  0  0
   13.8769   -1.5863   23.8352 C   0  0  0  0  0  0  0  0  0  0  0  0
   12.5985   -1.4556   23.4873 N   0  0  0  0  0  0  0  0  0  0  0  0
   14.5391   -0.8486   23.3897 H   0  0  0  0  0  0  0  0  0  0  0  0
   15.3453   -2.6966   24.9909 H   0  0  0  0  0  0  0  0  0  0  0  0
   11.5103   -4.1702   25.1293 H   0  0  0  0  0  0  0  0  0  0  0  0
    9.8142   -2.9254   24.0411 H   0  0  0  0  0  0  0  0  0  0  0  0
   10.7626   -0.9920   22.0404 H   0  0  0  0  0  0  0  0  0  0  0  0
   10.1067   -2.5902   21.6462 H   0  0  0  0  0  0  0  0  0  0  0  0
    8.6384   -0.2861   22.9785 H   0  0  0  0  0  0  0  0  0  0  0  0
    8.7401   -1.1720   20.0794 H   0  0  0  0  0  0  0  0  0  0  0  0
    8.7591    0.4694   20.7553 H   0  0  0  0  0  0  0  0  0  0  0  0
    6.9457   -1.9164   24.0767 C   0  0  0  0  0  0  0  0  0  0  0  0
    6.9857   -0.6900   24.7506 C   0  0  0  0  0  0  0  0  0  0  0  0
    6.5785   -0.6080   26.0677 C   0  0  0  0  0  0  0  0  0  0  0  0
    6.5889    0.9462   26.8510 Cl  0  0  0  0  0  0  0  0  0  0  0  0
    6.1413   -1.7346   26.7653 C   0  0  0  0  0  0  0  0  0  0  0  0
    6.0159   -2.9288   26.0797 C   0  0  0  0  0  0  0  0  0  0  0  0
    6.3658   -3.0150   24.7322 C   0  0  0  0  0  0  0  0  0  0  0  0
    6.0419   -4.2745   23.9880 C   0  0  0  0  0  0  0  0  0  0  0  0
    5.4084   -5.2093   24.4811 O   0  0  0  0  0  0  0  0  0  0  0  0
    5.6108   -3.8137   26.5591 H   0  0  0  0  0  0  0  0  0  0  0  0
    5.8872   -1.6515   27.8165 H   0  0  0  0  0  0  0  0  0  0  0  0
    7.3047    0.2177   24.2492 H   0  0  0  0  0  0  0  0  0  0  0  0
    7.5903   -3.5472   21.1554 H   0  0  0  0  0  0  0  0  0  0  0  0
    8.5193   -3.8844   22.6138 H   0  0  0  0  0  0  0  0  0  0  0  0
    4.9931   -5.6889   22.2264 H   0  0  0  0  0  0  0  0  0  0  0  0
    5.8869   -5.0374   20.8166 H   0  0  0  0  0  0  0  0  0  0  0  0
    6.2275   -7.0744   23.6698 H   0  0  0  0  0  0  0  0  0  0  0  0
    8.6302   -8.0728   23.6961 H   0  0  0  0  0  0  0  0  0  0  0  0
    8.0935   -8.8955   22.2204 H   0  0  0  0  0  0  0  0  0  0  0  0
    7.2823   -9.2476   23.7674 H   0  0  0  0  0  0  0  0  0  0  0  0
  1  2  1  0
  2  3  1  0
  3  4  2  0
  3  5  1  0
  5  6  1  0
  6  7  1  0
  8  7  1  6
  8  9  1  0
  9 10  2  0
  9 11  1  0
 11 12  1  0
 12 13  2  0
 13 14  1  0
 14 15  2  0
 15 16  1  0
 16 17  2  0
 17 18  1  0
 18 19  2  0
 19 20  1  0
 20 21  2  0
 20 22  1  0
 19 23  1  0
 18 24  1  0
 17 25  1  0
 15 26  1  0
 13 27  1  0
 11 28  1  0
 28 29  1  0
 29 30  1  0
 30 31  1  0
 31 32  1  0
 32 33  2  0
 33 34  1  0
 34 35  2  0
 35 36  1  0
 36 37  2  0
 36 38  1  0
 35 39  1  0
 33 40  1  0
 31 41  1  0
 30 42  1  0
 30 43  1  0
 29 44  1  1
 28 45  1  0
 28 46  1  0
  8 47  1  0
 47 48  2  0
 48 49  1  0
 49 50  1  0
 49 51  2  0
 51 52  1  0
 52 53  2  0
 53 54  1  0
 54 55  2  0
 52 56  1  0
 51 57  1  0
 48 58  1  0
  7 59  1  0
  7 60  1  0
  5 61  1  0
  5 62  1  0
  2 63  1  0
  1 64  1  0
  1 65  1  0
  1 66  1  0
 54  6  1  0
 29  8  1  0
 37 32  1  0
 53 47  1  0
 21 12  1  0
 21 16  1  0
M  END
>  <cnnaffinities>  (55) 
[7.42712]

>  <score>  (55) 
7.42712

>  <index>  (55) 
54

>  <Smiles>  (55) 
C(N(C(=O)C(N1C([C@@]2(C(=O)N(c3c(nc(c4c(c(c(c(c34)[H])[H])[H])[H])[H])[H])C([C@@]2(C(N(c2c(nc(c(n2)[H])[H])[H])[H])([H])[H])[H])([H])[H])c2c(c(Cl)c(c(c2C1=O)[H])[H])[H])([H])[H])([H])[H])[H])([H])([H])[H]

>  <h>  (55) 
<NA>

>  <Training>  (55) 
True

>  <Success>  (55) 
True

>  <enamine_searched>  (55) 
False

>  <enamine_id>  (55) 
nan

$$$$

     RDKit          3D

 56 61  0  0  0  0  0  0  0  0999 V2000
   12.9177    1.9956   22.1791 C   0  0  0  0  0  0  0  0  0  0  0  0
   12.8214    0.6644   22.7276 N   0  0  0  0  0  0  0  0  0  0  0  0
   13.1118    0.1768   23.9506 C   0  0  0  0  0  0  0  0  0  0  0  0
   12.8050   -1.1651   23.9371 C   0  0  0  0  0  0  0  0  0  0  0  0
   12.3409   -1.3949   22.6218 C   0  0  0  0  0  0  0  0  0  0  0  0
   11.8798   -2.6519   21.9696 C   0  0  0  0  0  0  0  0  0  0  0  0
   10.5006   -2.9189   22.3176 N   0  0  0  0  0  0  0  0  0  0  0  0
    9.4223   -2.6121   21.4029 C   0  0  0  0  0  0  0  0  0  0  0  0
    8.2259   -1.9394   22.1168 C   0  0  1  0  0  0  0  0  0  0  0  0
    8.5370   -0.4782   22.5436 C   0  0  0  0  0  0  0  0  0  0  0  0
    7.9011    0.4321   21.4836 C   0  0  0  0  0  0  0  0  0  0  0  0
    6.9043   -0.4247   20.8624 N   0  0  0  0  0  0  0  0  0  0  0  0
    6.1151    0.0280   19.7788 C   0  0  0  0  0  0  0  0  0  0  0  0
    6.4440   -0.2988   18.4872 C   0  0  0  0  0  0  0  0  0  0  0  0
    5.8010    0.1804   17.3923 N   0  0  0  0  0  0  0  0  0  0  0  0
    4.7951    0.9972   17.5970 C   0  0  0  0  0  0  0  0  0  0  0  0
    4.3327    1.3901   18.8861 C   0  0  0  0  0  0  0  0  0  0  0  0
    3.2184    2.2508   19.0527 C   0  0  0  0  0  0  0  0  0  0  0  0
    2.7950    2.5937   20.3075 C   0  0  0  0  0  0  0  0  0  0  0  0
    3.4675    2.1048   21.4501 C   0  0  0  0  0  0  0  0  0  0  0  0
    4.5559    1.2769   21.3161 C   0  0  0  0  0  0  0  0  0  0  0  0
    5.0105    0.9008   20.0219 C   0  0  0  0  0  0  0  0  0  0  0  0
    5.0697    0.8979   22.1947 H   0  0  0  0  0  0  0  0  0  0  0  0
    3.1237    2.3927   22.4399 H   0  0  0  0  0  0  0  0  0  0  0  0
    1.9412    3.2538   20.4337 H   0  0  0  0  0  0  0  0  0  0  0  0
    2.7233    2.6298   18.1632 H   0  0  0  0  0  0  0  0  0  0  0  0
    4.2821    1.3865   16.7176 H   0  0  0  0  0  0  0  0  0  0  0  0
    7.2781   -0.9697   18.2910 H   0  0  0  0  0  0  0  0  0  0  0  0
    7.0743   -1.7668   21.1179 C   0  0  0  0  0  0  0  0  0  0  0  0
    6.3903   -2.6439   20.6260 O   0  0  0  0  0  0  0  0  0  0  0  0
    8.6336    0.7788   20.7382 H   0  0  0  0  0  0  0  0  0  0  0  0
    7.4291    1.3232   21.9144 H   0  0  0  0  0  0  0  0  0  0  0  0
    9.6138   -0.3130   22.6118 H   0  0  0  0  0  0  0  0  0  0  0  0
    8.0966   -0.2958   23.5287 H   0  0  0  0  0  0  0  0  0  0  0  0
    7.8679   -2.8442   23.2745 C   0  0  0  0  0  0  0  0  0  0  0  0
    6.5657   -2.9303   23.7599 C   0  0  0  0  0  0  0  0  0  0  0  0
    6.2962   -3.7295   24.8610 C   0  0  0  0  0  0  0  0  0  0  0  0
    4.6833   -3.7410   25.5133 Cl  0  0  0  0  0  0  0  0  0  0  0  0
    7.2826   -4.5021   25.4783 C   0  0  0  0  0  0  0  0  0  0  0  0
    8.5741   -4.4123   24.9974 C   0  0  0  0  0  0  0  0  0  0  0  0
    8.8659   -3.5635   23.9372 C   0  0  0  0  0  0  0  0  0  0  0  0
   10.2905   -3.3984   23.5753 C   0  0  0  0  0  0  0  0  0  0  0  0
   11.2022   -3.6522   24.3533 O   0  0  0  0  0  0  0  0  0  0  0  0
    9.3945   -4.9842   25.4201 H   0  0  0  0  0  0  0  0  0  0  0  0
    7.0434   -5.1317   26.3319 H   0  0  0  0  0  0  0  0  0  0  0  0
    5.7649   -2.3861   23.2725 H   0  0  0  0  0  0  0  0  0  0  0  0
    9.8089   -1.9418   20.6331 H   0  0  0  0  0  0  0  0  0  0  0  0
    9.0715   -3.5481   20.9663 H   0  0  0  0  0  0  0  0  0  0  0  0
   11.9713   -2.5821   20.8794 H   0  0  0  0  0  0  0  0  0  0  0  0
   12.4911   -3.4752   22.3341 H   0  0  0  0  0  0  0  0  0  0  0  0
   12.3238   -0.2767   21.9201 N   0  0  0  0  0  0  0  0  0  0  0  0
   12.8778   -1.8776   24.7424 H   0  0  0  0  0  0  0  0  0  0  0  0
   13.4572    0.8462   24.7188 H   0  0  0  0  0  0  0  0  0  0  0  0
   13.9567    2.2432   21.9356 H   0  0  0  0  0  0  0  0  0  0  0  0
   12.3117    1.9107   21.2776 H   0  0  0  0  0  0  0  0  0  0  0  0
   12.4916    2.7280   22.8699 H   0  0  0  0  0  0  0  0  0  0  0  0
  1  2  1  0
  2  3  1  0
  3  4  2  0
  4  5  1  0
  5  6  1  0
  6  7  1  0
  7  8  1  0
  9  8  1  6
  9 10  1  0
 10 11  1  0
 11 12  1  0
 12 13  1  0
 13 14  2  0
 14 15  1  0
 15 16  2  0
 16 17  1  0
 17 18  2  0
 18 19  1  0
 19 20  2  0
 20 21  1  0
 21 22  2  0
 21 23  1  0
 20 24  1  0
 19 25  1  0
 18 26  1  0
 16 27  1  0
 14 28  1  0
 12 29  1  0
 29 30  2  0
 11 31  1  0
 11 32  1  0
 10 33  1  0
 10 34  1  0
  9 35  1  0
 35 36  2  0
 36 37  1  0
 37 38  1  0
 37 39  2  0
 39 40  1  0
 40 41  2  0
 41 42  1  0
 42 43  2  0
 40 44  1  0
 39 45  1  0
 36 46  1  0
  8 47  1  0
  8 48  1  0
  6 49  1  0
  6 50  1  0
  5 51  2  0
  4 52  1  0
  3 53  1  0
  1 54  1  0
  1 55  1  0
  1 56  1  0
 51  2  1  0
 42  7  1  0
 29  9  1  0
 41 35  1  0
 22 13  1  0
 22 17  1  0
M  END
>  <cnnaffinities>  (56) 
[7.07432]

>  <score>  (56) 
7.07432

>  <index>  (56) 
55

>  <Smiles>  (56) 
C(n1c(c(c(C(N2C([C@]3(C(C(N(c4c(nc(c5c(c(c(c(c45)[H])[H])[H])[H])[H])[H])C3=O)([H])[H])([H])[H])c3c(c(Cl)c(c(c3C2=O)[H])[H])[H])([H])[H])([H])[H])n1)[H])[H])([H])([H])[H]

>  <h>  (56) 
<NA>

>  <Training>  (56) 
True

>  <Success>  (56) 
True

>  <enamine_searched>  (56) 
False

>  <enamine_id>  (56) 
nan

$$$$

     RDKit          3D

 41 43  0  0  0  0  0  0  0  0999 V2000
    8.3899    1.4743   20.6689 O   0  0  0  0  0  0  0  0  0  0  0  0
    7.9657    0.6264   21.4264 C   0  0  0  0  0  0  0  0  0  0  0  0
    6.9663   -0.4304   20.9087 C   0  0  0  0  0  0  0  0  0  0  0  0
    6.1115    0.0848   19.7696 C   0  0  0  0  0  0  0  0  0  0  0  0
    6.4263   -0.2083   18.4648 C   0  0  0  0  0  0  0  0  0  0  0  0
    5.7604    0.2369   17.3651 N   0  0  0  0  0  0  0  0  0  0  0  0
    4.7351    1.0297   17.5739 C   0  0  0  0  0  0  0  0  0  0  0  0
    4.2879    1.4245   18.8659 C   0  0  0  0  0  0  0  0  0  0  0  0
    3.1722    2.2838   19.0408 C   0  0  0  0  0  0  0  0  0  0  0  0
    2.7671    2.6495   20.2983 C   0  0  0  0  0  0  0  0  0  0  0  0
    3.4640    2.1694   21.4297 C   0  0  0  0  0  0  0  0  0  0  0  0
    4.5508    1.3368   21.2882 C   0  0  0  0  0  0  0  0  0  0  0  0
    4.9916    0.9402   19.9970 C   0  0  0  0  0  0  0  0  0  0  0  0
    5.0764    0.9854   22.1726 H   0  0  0  0  0  0  0  0  0  0  0  0
    3.1356    2.4675   22.4206 H   0  0  0  0  0  0  0  0  0  0  0  0
    1.9162    3.3118   20.4346 H   0  0  0  0  0  0  0  0  0  0  0  0
    2.6493    2.6523   18.1610 H   0  0  0  0  0  0  0  0  0  0  0  0
    4.1997    1.3995   16.6979 H   0  0  0  0  0  0  0  0  0  0  0  0
    7.2744   -0.8536   18.2441 H   0  0  0  0  0  0  0  0  0  0  0  0
    6.3335   -0.8099   21.7227 H   0  0  0  0  0  0  0  0  0  0  0  0
    7.5526   -1.2858   20.5419 H   0  0  0  0  0  0  0  0  0  0  0  0
    8.3513    0.5371   22.7716 N   0  0  0  0  0  0  0  0  0  0  0  0
    8.7803   -0.7584   23.3043 C   0  0  0  0  0  0  0  0  0  0  0  0
   10.0261   -1.3665   22.6261 C   0  0  0  0  0  0  0  0  0  0  0  0
   11.0888   -0.3442   22.2221 C   0  0  0  0  0  0  0  0  0  0  0  0
   11.5111    0.8836   23.4905 S   0  0  0  0  0  0  0  0  0  0  0  0
   10.2797    2.1497   23.0879 C   0  0  0  0  0  0  0  0  0  0  0  0
    8.8602    1.7244   23.4603 C   0  0  1  0  0  0  0  0  0  0  0  0
    7.8729    2.8894   23.3750 C   0  0  0  0  0  0  0  0  0  0  0  0
    8.1700    3.8180   24.3130 F   0  0  0  0  0  0  0  0  0  0  0  0
    6.6202    2.4728   23.6205 F   0  0  0  0  0  0  0  0  0  0  0  0
    7.8748    3.5123   22.1966 F   0  0  0  0  0  0  0  0  0  0  0  0
    8.8738    1.4769   24.5250 H   0  0  0  0  0  0  0  0  0  0  0  0
   10.5727    3.0524   23.6398 H   0  0  0  0  0  0  0  0  0  0  0  0
   10.3412    2.3619   22.0214 H   0  0  0  0  0  0  0  0  0  0  0  0
   10.7616    0.2168   21.3449 H   0  0  0  0  0  0  0  0  0  0  0  0
   12.0192   -0.8557   21.9518 H   0  0  0  0  0  0  0  0  0  0  0  0
   10.4781   -2.1016   23.3035 H   0  0  0  0  0  0  0  0  0  0  0  0
    9.7278   -1.9224   21.7253 H   0  0  0  0  0  0  0  0  0  0  0  0
    7.9456   -1.4603   23.2326 H   0  0  0  0  0  0  0  0  0  0  0  0
    8.9813   -0.6301   24.3715 H   0  0  0  0  0  0  0  0  0  0  0  0
  1  2  2  0
  2  3  1  0
  3  4  1  0
  4  5  2  0
  5  6  1  0
  6  7  2  0
  7  8  1  0
  8  9  2  0
  9 10  1  0
 10 11  2  0
 11 12  1  0
 12 13  2  0
 12 14  1  0
 11 15  1  0
 10 16  1  0
  9 17  1  0
  7 18  1  0
  5 19  1  0
  3 20  1  0
  3 21  1  0
  2 22  1  0
 22 23  1  0
 23 24  1  0
 24 25  1  0
 25 26  1  0
 26 27  1  0
 27 28  1  0
 28 29  1  0
 29 30  1  0
 29 31  1  0
 29 32  1  0
 28 33  1  1
 27 34  1  0
 27 35  1  0
 25 36  1  0
 25 37  1  0
 24 38  1  0
 24 39  1  0
 23 40  1  0
 23 41  1  0
 13  4  1  0
 28 22  1  0
 13  8  1  0
M  END
>  <cnnaffinities>  (57) 
[5.9295, 5.9282, 5.96373, 5.96367, 5.96364]

>  <score>  (57) 
5.9295

>  <index>  (57) 
56

>  <Smiles>  (57) 
O=C(C(c1c(nc(c2c(c(c(c(c12)[H])[H])[H])[H])[H])[H])([H])[H])N1C(C(C(SC([C@]1(C(F)(F)F)[H])([H])[H])([H])[H])([H])[H])([H])[H]

>  <h>  (57) 
<NA>

>  <Training>  (57) 
True

>  <Success>  (57) 
True

>  <enamine_searched>  (57) 
False

>  <enamine_id>  (57) 
nan

$$$$

     RDKit          3D

 67 72  0  0  0  0  0  0  0  0999 V2000
    6.4416    4.3343   21.3577 C   0  0  0  0  0  0  0  0  0  0  0  0
    7.3942    3.9151   22.3759 N   0  0  0  0  0  0  0  0  0  0  0  0
    6.9441    3.3270   23.5177 C   0  0  0  0  0  0  0  0  0  0  0  0
    5.7559    3.1654   23.7602 O   0  0  0  0  0  0  0  0  0  0  0  0
    8.0254    2.8718   24.5044 C   0  0  0  0  0  0  0  0  0  0  0  0
    8.6916    1.6597   24.0478 N   0  0  0  0  0  0  0  0  0  0  0  0
    7.9135    0.4351   23.8852 C   0  0  0  0  0  0  0  0  0  0  0  0
    8.3426   -0.3811   22.6325 C   0  0  2  0  0  0  0  0  0  0  0  0
    7.8425    0.2865   21.3353 C   0  0  0  0  0  0  0  0  0  0  0  0
    8.2888    1.2890   20.8064 O   0  0  0  0  0  0  0  0  0  0  0  0
    6.7992   -0.4553   20.8315 N   0  0  0  0  0  0  0  0  0  0  0  0
    6.0619    0.0534   19.7385 C   0  0  0  0  0  0  0  0  0  0  0  0
    6.4461   -0.2212   18.4525 C   0  0  0  0  0  0  0  0  0  0  0  0
    5.7922    0.2272   17.3555 N   0  0  0  0  0  0  0  0  0  0  0  0
    4.7522    1.0088   17.5532 C   0  0  0  0  0  0  0  0  0  0  0  0
    4.2760    1.4038   18.8390 C   0  0  0  0  0  0  0  0  0  0  0  0
    3.1658    2.2729   19.0151 C   0  0  0  0  0  0  0  0  0  0  0  0
    2.7642    2.6429   20.2736 C   0  0  0  0  0  0  0  0  0  0  0  0
    3.4533    2.1754   21.4138 C   0  0  0  0  0  0  0  0  0  0  0  0
    4.5271    1.3322   21.2679 C   0  0  0  0  0  0  0  0  0  0  0  0
    4.9545    0.9166   19.9747 C   0  0  0  0  0  0  0  0  0  0  0  0
    5.0945    1.0322   22.1433 H   0  0  0  0  0  0  0  0  0  0  0  0
    3.1659    2.5086   22.4079 H   0  0  0  0  0  0  0  0  0  0  0  0
    1.9192    3.3117   20.3992 H   0  0  0  0  0  0  0  0  0  0  0  0
    2.6622    2.6499   18.1305 H   0  0  0  0  0  0  0  0  0  0  0  0
    4.2342    1.3730   16.6679 H   0  0  0  0  0  0  0  0  0  0  0  0
    7.3266   -0.8373   18.2759 H   0  0  0  0  0  0  0  0  0  0  0  0
    6.3926   -1.5687   21.6684 C   0  0  0  0  0  0  0  0  0  0  0  0
    7.6561   -1.7726   22.5139 C   0  0  2  0  0  0  0  0  0  0  0  0
    7.4370   -2.5922   23.7844 C   0  0  0  0  0  0  0  0  0  0  0  0
    7.0723   -3.9534   23.4522 N   0  0  0  0  0  0  0  0  0  0  0  0
    5.7817   -4.4122   23.5501 C   0  0  0  0  0  0  0  0  0  0  0  0
    4.7755   -3.9963   24.3746 C   0  0  0  0  0  0  0  0  0  0  0  0
    3.5617   -4.6301   24.2291 N   0  0  0  0  0  0  0  0  0  0  0  0
    3.6231   -5.5334   23.3050 C   0  0  0  0  0  0  0  0  0  0  0  0
    2.4700   -6.3941   22.9043 C   0  0  0  0  0  0  0  0  0  0  0  0
    2.2052   -6.2838   21.8482 H   0  0  0  0  0  0  0  0  0  0  0  0
    2.7085   -7.4471   23.0721 H   0  0  0  0  0  0  0  0  0  0  0  0
    1.6082   -6.1251   23.5175 H   0  0  0  0  0  0  0  0  0  0  0  0
    5.1957   -5.7258   22.5586 S   0  0  0  0  0  0  0  0  0  0  0  0
    4.8968   -3.2584   25.1581 H   0  0  0  0  0  0  0  0  0  0  0  0
    7.8002   -4.6285   23.2670 H   0  0  0  0  0  0  0  0  0  0  0  0
    8.3521   -2.5937   24.3892 H   0  0  0  0  0  0  0  0  0  0  0  0
    6.6289   -2.1447   24.3792 H   0  0  0  0  0  0  0  0  0  0  0  0
    8.3287   -2.3545   21.8805 H   0  0  0  0  0  0  0  0  0  0  0  0
    5.4938   -1.3305   22.2660 H   0  0  0  0  0  0  0  0  0  0  0  0
    6.1547   -2.4521   21.0650 H   0  0  0  0  0  0  0  0  0  0  0  0
    9.8518   -0.4340   22.5607 C   0  0  0  0  0  0  0  0  0  0  0  0
   10.4617   -1.2974   21.6408 C   0  0  0  0  0  0  0  0  0  0  0  0
   11.8305   -1.2813   21.4744 C   0  0  0  0  0  0  0  0  0  0  0  0
   12.4745   -2.3744   20.2771 Cl  0  0  0  0  0  0  0  0  0  0  0  0
   12.6387   -0.4026   22.2047 C   0  0  0  0  0  0  0  0  0  0  0  0
   12.0386    0.4580   23.0992 C   0  0  0  0  0  0  0  0  0  0  0  0
   10.6527    0.4863   23.2403 C   0  0  0  0  0  0  0  0  0  0  0  0
   10.0608    1.6301   24.0122 C   0  0  0  0  0  0  0  0  0  0  0  0
   10.7651    2.5013   24.5050 O   0  0  0  0  0  0  0  0  0  0  0  0
   12.6253    1.1545   23.6872 H   0  0  0  0  0  0  0  0  0  0  0  0
   13.7106   -0.3436   22.0571 H   0  0  0  0  0  0  0  0  0  0  0  0
    9.8846   -1.9669   21.0097 H   0  0  0  0  0  0  0  0  0  0  0  0
    6.8637    0.7295   23.8111 H   0  0  0  0  0  0  0  0  0  0  0  0
    8.0263   -0.1877   24.7847 H   0  0  0  0  0  0  0  0  0  0  0  0
    8.8136    3.6230   24.6043 H   0  0  0  0  0  0  0  0  0  0  0  0
    7.5650    2.7365   25.4922 H   0  0  0  0  0  0  0  0  0  0  0  0
    8.3183    3.6394   22.0683 H   0  0  0  0  0  0  0  0  0  0  0  0
    5.9737    3.4723   20.8553 H   0  0  0  0  0  0  0  0  0  0  0  0
    5.6588    4.9382   21.8295 H   0  0  0  0  0  0  0  0  0  0  0  0
    6.9534    4.9529   20.6161 H   0  0  0  0  0  0  0  0  0  0  0  0
  1  2  1  0
  2  3  1  0
  3  4  2  0
  3  5  1  0
  5  6  1  0
  6  7  1  0
  8  7  1  1
  8  9  1  0
  9 10  2  0
  9 11  1  0
 11 12  1  0
 12 13  2  0
 13 14  1  0
 14 15  2  0
 15 16  1  0
 16 17  2  0
 17 18  1  0
 18 19  2  0
 19 20  1  0
 20 21  2  0
 20 22  1  0
 19 23  1  0
 18 24  1  0
 17 25  1  0
 15 26  1  0
 13 27  1  0
 11 28  1  0
 28 29  1  0
 29 30  1  0
 30 31  1  0
 31 32  1  0
 32 33  2  0
 33 34  1  0
 34 35  2  0
 35 36  1  0
 36 37  1  0
 36 38  1  0
 36 39  1  0
 35 40  1  0
 33 41  1  0
 31 42  1  0
 30 43  1  0
 30 44  1  0
 29 45  1  6
 28 46  1  0
 28 47  1  0
  8 48  1  0
 48 49  2  0
 49 50  1  0
 50 51  1  0
 50 52  2  0
 52 53  1  0
 53 54  2  0
 54 55  1  0
 55 56  2  0
 53 57  1  0
 52 58  1  0
 49 59  1  0
  7 60  1  0
  7 61  1  0
  5 62  1  0
  5 63  1  0
  2 64  1  0
  1 65  1  0
  1 66  1  0
  1 67  1  0
 55  6  1  0
 29  8  1  0
 40 32  1  0
 54 48  1  0
 21 12  1  0
 21 16  1  0
M  END
>  <cnnaffinities>  (58) 
[7.11764, 6.9112]

>  <score>  (58) 
7.11764

>  <index>  (58) 
57

>  <Smiles>  (58) 
C(N(C(=O)C(N1C([C@@]2(C(=O)N(c3c(nc(c4c(c(c(c(c34)[H])[H])[H])[H])[H])[H])C([C@@]2(C(N(c2c(nc(C([H])([H])[H])s2)[H])[H])([H])[H])[H])([H])[H])c2c(c(Cl)c(c(c2C1=O)[H])[H])[H])([H])[H])([H])[H])[H])([H])([H])[H]

>  <h>  (58) 
<NA>

>  <Training>  (58) 
True

>  <Success>  (58) 
True

>  <enamine_searched>  (58) 
False

>  <enamine_id>  (58) 
nan

$$$$

     RDKit          3D

 57 62  0  0  0  0  0  0  0  0999 V2000
    6.9483   -2.3663   23.5707 C   0  0  0  0  0  0  0  0  0  0  0  0
    7.8646   -1.8506   22.4516 C   0  0  1  0  0  0  0  0  0  0  0  0
    7.1104   -1.7855   21.1062 C   0  0  0  0  0  0  0  0  0  0  0  0
    6.8792   -0.3799   20.8757 N   0  0  0  0  0  0  0  0  0  0  0  0
    6.1266    0.1041   19.7799 C   0  0  0  0  0  0  0  0  0  0  0  0
    6.4433   -0.2315   18.4856 C   0  0  0  0  0  0  0  0  0  0  0  0
    5.7730    0.2146   17.3943 N   0  0  0  0  0  0  0  0  0  0  0  0
    4.7532    1.0161   17.5971 C   0  0  0  0  0  0  0  0  0  0  0  0
    4.2976    1.4185   18.8862 C   0  0  0  0  0  0  0  0  0  0  0  0
    3.1701    2.2676   19.0571 C   0  0  0  0  0  0  0  0  0  0  0  0
    2.7389    2.6043   20.3121 C   0  0  0  0  0  0  0  0  0  0  0  0
    3.4123    2.1065   21.4494 C   0  0  0  0  0  0  0  0  0  0  0  0
    4.5101    1.2961   21.3105 C   0  0  0  0  0  0  0  0  0  0  0  0
    4.9918    0.9429   20.0175 C   0  0  0  0  0  0  0  0  0  0  0  0
    5.0292    0.9223   22.1856 H   0  0  0  0  0  0  0  0  0  0  0  0
    3.0678    2.3881   22.4416 H   0  0  0  0  0  0  0  0  0  0  0  0
    1.8856    3.2636   20.4433 H   0  0  0  0  0  0  0  0  0  0  0  0
    2.6683    2.6411   18.1690 H   0  0  0  0  0  0  0  0  0  0  0  0
    4.2305    1.3805   16.7138 H   0  0  0  0  0  0  0  0  0  0  0  0
    7.2937   -0.8759   18.2650 H   0  0  0  0  0  0  0  0  0  0  0  0
    7.6999    0.4443   21.6154 C   0  0  0  0  0  0  0  0  0  0  0  0
    7.7827    1.6400   21.4476 O   0  0  0  0  0  0  0  0  0  0  0  0
    8.4771   -0.4220   22.6466 C   0  0  1  0  0  0  0  0  0  0  0  0
    8.2978    0.1242   24.0795 C   0  0  0  0  0  0  0  0  0  0  0  0
    8.9423    1.4114   24.2701 N   0  0  0  0  0  0  0  0  0  0  0  0
    8.2438    2.4743   24.9748 C   0  0  0  0  0  0  0  0  0  0  0  0
    7.6884    3.5267   24.0463 C   0  0  0  0  0  0  0  0  0  0  0  0
    6.3654    3.4868   23.6080 C   0  0  0  0  0  0  0  0  0  0  0  0
    5.9829    4.4663   22.7047 C   0  0  0  0  0  0  0  0  0  0  0  0
    6.8205    5.4118   22.2769 N   0  0  0  0  0  0  0  0  0  0  0  0
    8.0540    5.3729   22.7784 C   0  0  0  0  0  0  0  0  0  0  0  0
    8.5227    4.4999   23.6696 N   0  0  0  0  0  0  0  0  0  0  0  0
    8.7522    6.1286   22.4190 H   0  0  0  0  0  0  0  0  0  0  0  0
    4.9709    4.5014   22.2895 H   0  0  0  0  0  0  0  0  0  0  0  0
    5.6865    2.7074   23.9498 H   0  0  0  0  0  0  0  0  0  0  0  0
    7.4359    2.0188   25.5592 H   0  0  0  0  0  0  0  0  0  0  0  0
    8.9578    2.9640   25.6346 H   0  0  0  0  0  0  0  0  0  0  0  0
   10.2412    1.6153   23.9060 C   0  0  0  0  0  0  0  0  0  0  0  0
   10.9166    2.5412   24.3404 O   0  0  0  0  0  0  0  0  0  0  0  0
   10.7857    0.6157   22.9388 C   0  0  0  0  0  0  0  0  0  0  0  0
   12.1351    0.7282   22.6081 C   0  0  0  0  0  0  0  0  0  0  0  0
   12.6910   -0.1513   21.7054 C   0  0  0  0  0  0  0  0  0  0  0  0
   11.8974   -1.1551   21.1617 C   0  0  0  0  0  0  0  0  0  0  0  0
   12.4530   -1.9519   20.2313 F   0  0  0  0  0  0  0  0  0  0  0  0
   10.5416   -1.2291   21.4083 C   0  0  0  0  0  0  0  0  0  0  0  0
    9.9757   -0.3692   22.3577 C   0  0  0  0  0  0  0  0  0  0  0  0
    9.9333   -1.8773   20.7885 H   0  0  0  0  0  0  0  0  0  0  0  0
   13.7033   -0.0510   21.3382 H   0  0  0  0  0  0  0  0  0  0  0  0
   12.6944    1.5583   23.0284 H   0  0  0  0  0  0  0  0  0  0  0  0
    8.7113   -0.6230   24.7767 H   0  0  0  0  0  0  0  0  0  0  0  0
    7.2375    0.2653   24.2876 H   0  0  0  0  0  0  0  0  0  0  0  0
    6.1558   -2.3224   21.1402 H   0  0  0  0  0  0  0  0  0  0  0  0
    7.7147   -2.2009   20.2968 H   0  0  0  0  0  0  0  0  0  0  0  0
    8.6910   -2.5648   22.3789 H   0  0  0  0  0  0  0  0  0  0  0  0
    6.5808   -3.3661   23.3144 H   0  0  0  0  0  0  0  0  0  0  0  0
    7.4772   -2.4525   24.5249 H   0  0  0  0  0  0  0  0  0  0  0  0
    6.0782   -1.7164   23.7157 H   0  0  0  0  0  0  0  0  0  0  0  0
  1  2  1  0
  2  3  1  0
  3  4  1  0
  4  5  1  0
  5  6  2  0
  6  7  1  0
  7  8  2  0
  8  9  1  0
  9 10  2  0
 10 11  1  0
 11 12  2  0
 12 13  1  0
 13 14  2  0
 13 15  1  0
 12 16  1  0
 11 17  1  0
 10 18  1  0
  8 19  1  0
  6 20  1  0
  4 21  1  0
 21 22  2  0
 21 23  1  0
 23 24  1  1
 24 25  1  0
 25 26  1  0
 26 27  1  0
 27 28  2  0
 28 29  1  0
 29 30  2  0
 30 31  1  0
 31 32  2  0
 31 33  1  0
 29 34  1  0
 28 35  1  0
 26 36  1  0
 26 37  1  0
 25 38  1  0
 38 39  2  0
 38 40  1  0
 40 41  2  0
 41 42  1  0
 42 43  2  0
 43 44  1  0
 43 45  1  0
 45 46  2  0
 45 47  1  0
 42 48  1  0
 41 49  1  0
 24 50  1  0
 24 51  1  0
  3 52  1  0
  3 53  1  0
  2 54  1  6
  1 55  1  0
  1 56  1  0
  1 57  1  0
 23  2  1  0
 32 27  1  0
 46 40  1  0
 14  5  1  0
 46 23  1  0
 14  9  1  0
M  END
>  <cnnaffinities>  (59) 
[6.79423, 6.36307, 6.8244]

>  <score>  (59) 
6.79423

>  <index>  (59) 
58

>  <Smiles>  (59) 
C([C@]1(C(N(c2c(nc(c3c(c(c(c(c23)[H])[H])[H])[H])[H])[H])C(=O)[C@]21C(N(C(c1c(c(nc(n1)[H])[H])[H])([H])[H])C(=O)c1c(c(c(F)c(c21)[H])[H])[H])([H])[H])([H])[H])[H])([H])([H])[H]

>  <h>  (59) 
<NA>

>  <Training>  (59) 
True

>  <Success>  (59) 
True

>  <enamine_searched>  (59) 
False

>  <enamine_id>  (59) 
nan

$$$$

     RDKit          3D

 60 65  0  0  0  0  0  0  0  0999 V2000
    7.3797   -4.7283   23.7957 C   0  0  0  0  0  0  0  0  0  0  0  0
    6.5799   -3.7185   23.2269 O   0  0  0  0  0  0  0  0  0  0  0  0
    6.9972   -2.4022   23.5295 C   0  0  0  0  0  0  0  0  0  0  0  0
    7.9131   -1.8385   22.4257 C   0  0  1  0  0  0  0  0  0  0  0  0
    7.1634   -1.7694   21.0805 C   0  0  0  0  0  0  0  0  0  0  0  0
    6.8840   -0.3657   20.8897 N   0  0  0  0  0  0  0  0  0  0  0  0
    6.1258    0.1091   19.7931 C   0  0  0  0  0  0  0  0  0  0  0  0
    6.4432   -0.2348   18.5014 C   0  0  0  0  0  0  0  0  0  0  0  0
    5.7812    0.2103   17.4033 N   0  0  0  0  0  0  0  0  0  0  0  0
    4.7617    1.0134   17.5979 C   0  0  0  0  0  0  0  0  0  0  0  0
    4.3016    1.4136   18.8854 C   0  0  0  0  0  0  0  0  0  0  0  0
    3.1782    2.2679   19.0497 C   0  0  0  0  0  0  0  0  0  0  0  0
    2.7402    2.6077   20.3001 C   0  0  0  0  0  0  0  0  0  0  0  0
    3.4004    2.1082   21.4449 C   0  0  0  0  0  0  0  0  0  0  0  0
    4.4932    1.2897   21.3159 C   0  0  0  0  0  0  0  0  0  0  0  0
    4.9852    0.9392   20.0265 C   0  0  0  0  0  0  0  0  0  0  0  0
    4.9853    0.9019   22.2017 H   0  0  0  0  0  0  0  0  0  0  0  0
    3.0532    2.3910   22.4364 H   0  0  0  0  0  0  0  0  0  0  0  0
    1.8872    3.2686   20.4292 H   0  0  0  0  0  0  0  0  0  0  0  0
    2.6811    2.6440   18.1599 H   0  0  0  0  0  0  0  0  0  0  0  0
    4.2335    1.3775   16.7150 H   0  0  0  0  0  0  0  0  0  0  0  0
    7.2979   -0.8795   18.2944 H   0  0  0  0  0  0  0  0  0  0  0  0
    7.7120    0.4551   21.6313 C   0  0  0  0  0  0  0  0  0  0  0  0
    7.8122    1.6502   21.4711 O   0  0  0  0  0  0  0  0  0  0  0  0
    8.4835   -0.4087   22.6579 C   0  0  1  0  0  0  0  0  0  0  0  0
    8.2651    0.0955   24.0979 C   0  0  0  0  0  0  0  0  0  0  0  0
    8.8770    1.3871   24.3381 N   0  0  0  0  0  0  0  0  0  0  0  0
    8.1258    2.4092   25.0406 C   0  0  0  0  0  0  0  0  0  0  0  0
    7.4337    3.3492   24.0975 C   0  0  0  0  0  0  0  0  0  0  0  0
    6.1697    3.2761   23.7401 N   0  0  0  0  0  0  0  0  0  0  0  0
    5.9969    4.3108   22.8537 C   0  0  0  0  0  0  0  0  0  0  0  0
    7.1567    5.0191   22.6850 C   0  0  0  0  0  0  0  0  0  0  0  0
    8.0745    4.3858   23.4934 N   0  0  0  0  0  0  0  0  0  0  0  0
    9.0594    4.5962   23.5810 H   0  0  0  0  0  0  0  0  0  0  0  0
    7.4195    5.8624   22.0632 H   0  0  0  0  0  0  0  0  0  0  0  0
    5.0426    4.4523   22.3691 H   0  0  0  0  0  0  0  0  0  0  0  0
    8.8402    2.9631   25.6522 H   0  0  0  0  0  0  0  0  0  0  0  0
    7.3849    1.9172   25.6798 H   0  0  0  0  0  0  0  0  0  0  0  0
   10.1270    1.7064   23.9055 C   0  0  0  0  0  0  0  0  0  0  0  0
   10.6594    2.7768   24.2016 O   0  0  0  0  0  0  0  0  0  0  0  0
   10.7559    0.7033   22.9962 C   0  0  0  0  0  0  0  0  0  0  0  0
   12.0944    0.8772   22.6582 C   0  0  0  0  0  0  0  0  0  0  0  0
   12.7226   -0.0128   21.8014 C   0  0  0  0  0  0  0  0  0  0  0  0
   11.9502   -1.0401   21.2401 C   0  0  0  0  0  0  0  0  0  0  0  0
   12.5971   -2.1265   20.0271 Cl  0  0  0  0  0  0  0  0  0  0  0  0
   10.5977   -1.1516   21.4882 C   0  0  0  0  0  0  0  0  0  0  0  0
    9.9824   -0.3091   22.4111 C   0  0  0  0  0  0  0  0  0  0  0  0
   10.0368   -1.8742   20.9038 H   0  0  0  0  0  0  0  0  0  0  0  0
   13.7669    0.1072   21.5299 H   0  0  0  0  0  0  0  0  0  0  0  0
   12.5966    1.7438   23.0789 H   0  0  0  0  0  0  0  0  0  0  0  0
    7.1993    0.1921   24.3177 H   0  0  0  0  0  0  0  0  0  0  0  0
    8.7108   -0.6466   24.7729 H   0  0  0  0  0  0  0  0  0  0  0  0
    7.7887   -2.1350   20.2638 H   0  0  0  0  0  0  0  0  0  0  0  0
    6.2360   -2.3479   21.0898 H   0  0  0  0  0  0  0  0  0  0  0  0
    8.7412   -2.5503   22.3666 H   0  0  0  0  0  0  0  0  0  0  0  0
    6.0871   -1.7972   23.6146 H   0  0  0  0  0  0  0  0  0  0  0  0
    7.5017   -2.3886   24.5067 H   0  0  0  0  0  0  0  0  0  0  0  0
    8.4459   -4.6268   23.5335 H   0  0  0  0  0  0  0  0  0  0  0  0
    7.2935   -4.7453   24.8943 H   0  0  0  0  0  0  0  0  0  0  0  0
    7.0140   -5.6811   23.4040 H   0  0  0  0  0  0  0  0  0  0  0  0
  1  2  1  0
  2  3  1  0
  3  4  1  0
  4  5  1  0
  5  6  1  0
  6  7  1  0
  7  8  2  0
  8  9  1  0
  9 10  2  0
 10 11  1  0
 11 12  2  0
 12 13  1  0
 13 14  2  0
 14 15  1  0
 15 16  2  0
 15 17  1  0
 14 18  1  0
 13 19  1  0
 12 20  1  0
 10 21  1  0
  8 22  1  0
  6 23  1  0
 23 24  2  0
 23 25  1  0
 25 26  1  1
 26 27  1  0
 27 28  1  0
 28 29  1  0
 29 30  2  0
 30 31  1  0
 31 32  2  0
 32 33  1  0
 33 34  1  0
 32 35  1  0
 31 36  1  0
 28 37  1  0
 28 38  1  0
 27 39  1  0
 39 40  2  0
 39 41  1  0
 41 42  2  0
 42 43  1  0
 43 44  2  0
 44 45  1  0
 44 46  1  0
 46 47  2  0
 46 48  1  0
 43 49  1  0
 42 50  1  0
 26 51  1  0
 26 52  1  0
  5 53  1  0
  5 54  1  0
  4 55  1  6
  3 56  1  0
  3 57  1  0
  1 58  1  0
  1 59  1  0
  1 60  1  0
 25  4  1  0
 33 29  1  0
 47 41  1  0
 16  7  1  0
 47 25  1  0
 16 11  1  0
M  END
>  <cnnaffinities>  (60) 
[6.89784, 6.83457]

>  <score>  (60) 
6.89784

>  <index>  (60) 
59

>  <Smiles>  (60) 
C(OC([C@]1(C(N(c2c(nc(c3c(c(c(c(c23)[H])[H])[H])[H])[H])[H])C(=O)[C@]21C(N(C(c1nc(c(n1[H])[H])[H])([H])[H])C(=O)c1c(c(c(Cl)c(c21)[H])[H])[H])([H])[H])([H])[H])[H])([H])[H])([H])([H])[H]

>  <h>  (60) 
<NA>

>  <Training>  (60) 
True

>  <Success>  (60) 
True

>  <enamine_searched>  (60) 
False

>  <enamine_id>  (60) 
nan

$$$$

     RDKit          3D

 38 41  0  0  0  0  0  0  0  0999 V2000
    5.0917   -1.9823   21.3299 O   0  0  0  0  0  0  0  0  0  0  0  0
    6.2765   -1.7691   21.5166 C   0  0  0  0  0  0  0  0  0  0  0  0
    6.9398   -0.5089   20.8986 C   0  0  0  0  0  0  0  0  0  0  0  0
    6.1197    0.0874   19.7732 C   0  0  0  0  0  0  0  0  0  0  0  0
    6.4229   -0.2118   18.4687 C   0  0  0  0  0  0  0  0  0  0  0  0
    5.7580    0.2323   17.3693 N   0  0  0  0  0  0  0  0  0  0  0  0
    4.7368    1.0307   17.5759 C   0  0  0  0  0  0  0  0  0  0  0  0
    4.2879    1.4208   18.8686 C   0  0  0  0  0  0  0  0  0  0  0  0
    3.1652    2.2740   19.0414 C   0  0  0  0  0  0  0  0  0  0  0  0
    2.7459    2.6239   20.2985 C   0  0  0  0  0  0  0  0  0  0  0  0
    3.4323    2.1331   21.4306 C   0  0  0  0  0  0  0  0  0  0  0  0
    4.5244    1.3095   21.2881 C   0  0  0  0  0  0  0  0  0  0  0  0
    4.9877    0.9328   19.9994 C   0  0  0  0  0  0  0  0  0  0  0  0
    5.0292    0.9267   22.1680 H   0  0  0  0  0  0  0  0  0  0  0  0
    3.0931    2.4131   22.4229 H   0  0  0  0  0  0  0  0  0  0  0  0
    1.8885    3.2783   20.4333 H   0  0  0  0  0  0  0  0  0  0  0  0
    2.6462    2.6460   18.1604 H   0  0  0  0  0  0  0  0  0  0  0  0
    4.2010    1.3990   16.6990 H   0  0  0  0  0  0  0  0  0  0  0  0
    7.2638   -0.8650   18.2449 H   0  0  0  0  0  0  0  0  0  0  0  0
    7.0930    0.2468   21.6818 H   0  0  0  0  0  0  0  0  0  0  0  0
    7.9389   -0.7579   20.5100 H   0  0  0  0  0  0  0  0  0  0  0  0
    7.0562   -2.6405   22.2524 N   0  0  0  0  0  0  0  0  0  0  0  0
    6.6250   -4.0332   22.4112 C   0  0  0  0  0  0  0  0  0  0  0  0
    6.7423   -4.5000   23.8583 C   0  0  0  0  0  0  0  0  0  0  0  0
    8.0831   -4.1314   24.3979 C   0  0  0  0  0  0  0  0  0  0  0  0
    8.8359   -4.8849   25.7558 S   0  0  0  0  0  0  0  0  0  0  0  0
   10.2029   -3.8580   25.5976 C   0  0  0  0  0  0  0  0  0  0  0  0
   10.0689   -2.9462   24.5887 C   0  0  0  0  0  0  0  0  0  0  0  0
    8.8416   -3.1272   23.8823 C   0  0  0  0  0  0  0  0  0  0  0  0
    8.4080   -2.3230   22.6867 C   0  0  0  0  0  0  0  0  0  0  0  0
    9.1501   -2.4608   21.8849 H   0  0  0  0  0  0  0  0  0  0  0  0
    8.4698   -1.2654   22.9592 H   0  0  0  0  0  0  0  0  0  0  0  0
   10.8059   -2.1751   24.3640 H   0  0  0  0  0  0  0  0  0  0  0  0
   10.9649   -3.9419   26.3520 H   0  0  0  0  0  0  0  0  0  0  0  0
    5.9665   -4.0214   24.4661 H   0  0  0  0  0  0  0  0  0  0  0  0
    6.5675   -5.5777   23.9345 H   0  0  0  0  0  0  0  0  0  0  0  0
    5.5942   -4.1168   22.0676 H   0  0  0  0  0  0  0  0  0  0  0  0
    7.2352   -4.6884   21.7743 H   0  0  0  0  0  0  0  0  0  0  0  0
  1  2  2  0
  2  3  1  0
  3  4  1  0
  4  5  2  0
  5  6  1  0
  6  7  2  0
  7  8  1  0
  8  9  2  0
  9 10  1  0
 10 11  2  0
 11 12  1  0
 12 13  2  0
 12 14  1  0
 11 15  1  0
 10 16  1  0
  9 17  1  0
  7 18  1  0
  5 19  1  0
  3 20  1  0
  3 21  1  0
  2 22  1  0
 22 23  1  0
 23 24  1  0
 24 25  1  0
 25 26  1  0
 26 27  1  0
 27 28  2  0
 28 29  1  0
 29 30  1  0
 30 31  1  0
 30 32  1  0
 28 33  1  0
 27 34  1  0
 24 35  1  0
 24 36  1  0
 23 37  1  0
 23 38  1  0
 13  4  1  0
 30 22  1  0
 13  8  1  0
 29 25  2  0
M  END
>  <cnnaffinities>  (61) 
[5.46689, 5.45364]

>  <score>  (61) 
5.46689

>  <index>  (61) 
60

>  <Smiles>  (61) 
O=C(C(c1c(nc(c2c(c(c(c(c12)[H])[H])[H])[H])[H])[H])([H])[H])N1C(C(c2sc(c(c2C1([H])[H])[H])[H])([H])[H])([H])[H]

>  <h>  (61) 
<NA>

>  <Training>  (61) 
True

>  <Success>  (61) 
True

>  <enamine_searched>  (61) 
False

>  <enamine_id>  (61) 
nan

$$$$

     RDKit          3D

 64 70  0  0  0  0  0  0  0  0999 V2000
   11.0172    2.6072   24.0477 O   0  0  0  0  0  0  0  0  0  0  0  0
   10.3635    1.6212   23.7215 C   0  0  0  0  0  0  0  0  0  0  0  0
   10.8747    0.6023   22.7572 C   0  0  0  0  0  0  0  0  0  0  0  0
   12.2113    0.6931   22.3761 C   0  0  0  0  0  0  0  0  0  0  0  0
   12.7833   -0.2539   21.5538 C   0  0  0  0  0  0  0  0  0  0  0  0
   11.9578   -1.2856   21.0837 C   0  0  0  0  0  0  0  0  0  0  0  0
   12.5554   -2.5732   20.0757 Cl  0  0  0  0  0  0  0  0  0  0  0  0
   10.6024   -1.3128   21.3564 C   0  0  0  0  0  0  0  0  0  0  0  0
   10.0423   -0.4020   22.2493 C   0  0  0  0  0  0  0  0  0  0  0  0
    8.5567   -0.4383   22.5828 C   0  0  1  0  0  0  0  0  0  0  0  0
    8.4383    0.1119   24.0207 C   0  0  0  0  0  0  0  0  0  0  0  0
    9.1098    1.3831   24.1991 N   0  0  0  0  0  0  0  0  0  0  0  0
    8.4473    2.4534   24.9200 C   0  0  0  0  0  0  0  0  0  0  0  0
    7.6946    3.4027   24.0199 C   0  0  0  0  0  0  0  0  0  0  0  0
    8.3259    4.4431   23.3767 C   0  0  0  0  0  0  0  0  0  0  0  0
    7.5608    5.2495   22.5359 C   0  0  0  0  0  0  0  0  0  0  0  0
    6.2567    5.0711   22.3405 N   0  0  0  0  0  0  0  0  0  0  0  0
    5.6503    4.0639   22.9515 N   0  0  0  0  0  0  0  0  0  0  0  0
    6.3336    3.2575   23.7569 C   0  0  0  0  0  0  0  0  0  0  0  0
    5.7551    2.4594   24.2185 H   0  0  0  0  0  0  0  0  0  0  0  0
    8.0100    6.0887   22.0098 H   0  0  0  0  0  0  0  0  0  0  0  0
    9.3865    4.6319   23.5251 H   0  0  0  0  0  0  0  0  0  0  0  0
    7.7851    2.0160   25.6729 H   0  0  0  0  0  0  0  0  0  0  0  0
    9.2319    3.0110   25.4232 H   0  0  0  0  0  0  0  0  0  0  0  0
    8.8899   -0.6230   24.6983 H   0  0  0  0  0  0  0  0  0  0  0  0
    7.3918    0.2406   24.2955 H   0  0  0  0  0  0  0  0  0  0  0  0
    7.7729    0.4314   21.5757 C   0  0  0  0  0  0  0  0  0  0  0  0
    7.8990    1.6209   21.3927 O   0  0  0  0  0  0  0  0  0  0  0  0
    6.8924   -0.3707   20.8848 N   0  0  0  0  0  0  0  0  0  0  0  0
    6.1267    0.1025   19.7924 C   0  0  0  0  0  0  0  0  0  0  0  0
    6.4433   -0.2370   18.4996 C   0  0  0  0  0  0  0  0  0  0  0  0
    5.7806    0.2090   17.4028 N   0  0  0  0  0  0  0  0  0  0  0  0
    4.7573    1.0076   17.5986 C   0  0  0  0  0  0  0  0  0  0  0  0
    4.2970    1.4017   18.8875 C   0  0  0  0  0  0  0  0  0  0  0  0
    3.1752    2.2570   19.0553 C   0  0  0  0  0  0  0  0  0  0  0  0
    2.7508    2.6122   20.3059 C   0  0  0  0  0  0  0  0  0  0  0  0
    3.4303    2.1371   21.4491 C   0  0  0  0  0  0  0  0  0  0  0  0
    4.5226    1.3169   21.3149 C   0  0  0  0  0  0  0  0  0  0  0  0
    4.9897    0.9357   20.0266 C   0  0  0  0  0  0  0  0  0  0  0  0
    5.0599    0.9920   22.2027 H   0  0  0  0  0  0  0  0  0  0  0  0
    3.1387    2.4714   22.4420 H   0  0  0  0  0  0  0  0  0  0  0  0
    1.8922    3.2675   20.4277 H   0  0  0  0  0  0  0  0  0  0  0  0
    2.6757    2.6347   18.1670 H   0  0  0  0  0  0  0  0  0  0  0  0
    4.2304    1.3781   16.7172 H   0  0  0  0  0  0  0  0  0  0  0  0
    7.2995   -0.8790   18.2908 H   0  0  0  0  0  0  0  0  0  0  0  0
    7.0985   -1.7775   21.1108 C   0  0  0  0  0  0  0  0  0  0  0  0
    7.9186   -1.8508   22.4072 C   0  0  2  0  0  0  0  0  0  0  0  0
    7.0678   -2.3905   23.5738 C   0  0  0  0  0  0  0  0  0  0  0  0
    6.6257   -3.7478   23.3382 N   0  0  0  0  0  0  0  0  0  0  0  0
    7.2792   -4.8922   23.6773 C   0  0  0  0  0  0  0  0  0  0  0  0
    6.8179   -6.0733   23.3608 N   0  0  0  0  0  0  0  0  0  0  0  0
    7.6466   -7.0814   23.7612 N   0  0  0  0  0  0  0  0  0  0  0  0
    8.6894   -6.6611   24.3944 C   0  0  0  0  0  0  0  0  0  0  0  0
    8.7934   -4.9304   24.5381 S   0  0  0  0  0  0  0  0  0  0  0  0
    9.4574   -7.3208   24.7790 H   0  0  0  0  0  0  0  0  0  0  0  0
    5.6766   -3.9010   23.0419 H   0  0  0  0  0  0  0  0  0  0  0  0
    7.6381   -2.3703   24.5034 H   0  0  0  0  0  0  0  0  0  0  0  0
    6.1789   -1.7666   23.7149 H   0  0  0  0  0  0  0  0  0  0  0  0
    8.7210   -2.5833   22.3024 H   0  0  0  0  0  0  0  0  0  0  0  0
    6.1368   -2.2919   21.1802 H   0  0  0  0  0  0  0  0  0  0  0  0
    7.6469   -2.2112   20.2752 H   0  0  0  0  0  0  0  0  0  0  0  0
    9.9902   -2.0385   20.8301 H   0  0  0  0  0  0  0  0  0  0  0  0
   13.8277   -0.1612   21.2473 H   0  0  0  0  0  0  0  0  0  0  0  0
   12.7773    1.5390   22.7508 H   0  0  0  0  0  0  0  0  0  0  0  0
  1  2  2  0
  2  3  1  0
  3  4  2  0
  4  5  1  0
  5  6  2  0
  6  7  1  0
  6  8  1  0
  8  9  2  0
  9 10  1  0
 10 11  1  1
 11 12  1  0
 12 13  1  0
 13 14  1  0
 14 15  2  0
 15 16  1  0
 16 17  2  0
 17 18  1  0
 18 19  2  0
 19 20  1  0
 16 21  1  0
 15 22  1  0
 13 23  1  0
 13 24  1  0
 11 25  1  0
 11 26  1  0
 10 27  1  0
 27 28  2  0
 27 29  1  0
 29 30  1  0
 30 31  2  0
 31 32  1  0
 32 33  2  0
 33 34  1  0
 34 35  2  0
 35 36  1  0
 36 37  2  0
 37 38  1  0
 38 39  2  0
 38 40  1  0
 37 41  1  0
 36 42  1  0
 35 43  1  0
 33 44  1  0
 31 45  1  0
 29 46  1  0
 46 47  1  0
 47 48  1  0
 48 49  1  0
 49 50  1  0
 50 51  2  0
 51 52  1  0
 52 53  2  0
 53 54  1  0
 53 55  1  0
 49 56  1  0
 48 57  1  0
 48 58  1  0
 47 59  1  6
 46 60  1  0
 46 61  1  0
  8 62  1  0
  5 63  1  0
  4 64  1  0
 12  2  1  0
 19 14  1  0
 39 30  1  0
 54 50  1  0
  9  3  1  0
 47 10  1  0
 39 34  1  0
M  END
>  <cnnaffinities>  (62) 
[7.29399]

>  <score>  (62) 
7.29399

>  <index>  (62) 
61

>  <Smiles>  (62) 
O=C1c2c(c(c(Cl)c(c2[C@@]2(C(N1C(c1c(c(nnc1[H])[H])[H])([H])[H])([H])[H])C(=O)N(c1c(nc(c3c(c(c(c(c13)[H])[H])[H])[H])[H])[H])C([C@@]2(C(N(c1nnc(s1)[H])[H])([H])[H])[H])([H])[H])[H])[H])[H]

>  <h>  (62) 
<NA>

>  <Training>  (62) 
True

>  <Success>  (62) 
True

>  <enamine_searched>  (62) 
False

>  <enamine_id>  (62) 
nan

$$$$

     RDKit          3D

 70 76  0  0  0  0  0  0  0  0999 V2000
    9.7264   -1.9287   21.8678 C   0  0  0  0  0  0  0  0  0  0  0  0
    8.6608   -0.9219   22.3215 C   0  0  1  0  0  0  0  0  0  0  0  0
    8.2242   -0.0425   21.1350 C   0  0  0  0  0  0  0  0  0  0  0  0
    6.8822   -0.4813   20.8269 N   0  0  0  0  0  0  0  0  0  0  0  0
    6.1184    0.0659   19.7742 C   0  0  0  0  0  0  0  0  0  0  0  0
    6.4633   -0.2217   18.4790 C   0  0  0  0  0  0  0  0  0  0  0  0
    5.7992    0.2244   17.3870 N   0  0  0  0  0  0  0  0  0  0  0  0
    4.7688    1.0087   17.6040 C   0  0  0  0  0  0  0  0  0  0  0  0
    4.3173    1.4001   18.8983 C   0  0  0  0  0  0  0  0  0  0  0  0
    3.2036    2.2653   19.0527 C   0  0  0  0  0  0  0  0  0  0  0  0
    2.7979    2.6504   20.2994 C   0  0  0  0  0  0  0  0  0  0  0  0
    3.4922    2.2008   21.4449 C   0  0  0  0  0  0  0  0  0  0  0  0
    4.5768    1.3660   21.3289 C   0  0  0  0  0  0  0  0  0  0  0  0
    5.0079    0.9303   20.0362 C   0  0  0  0  0  0  0  0  0  0  0  0
    5.1034    1.0458   22.2291 H   0  0  0  0  0  0  0  0  0  0  0  0
    3.1638    2.5325   22.4254 H   0  0  0  0  0  0  0  0  0  0  0  0
    1.9505    3.3199   20.4134 H   0  0  0  0  0  0  0  0  0  0  0  0
    2.7004    2.6180   18.1564 H   0  0  0  0  0  0  0  0  0  0  0  0
    4.2320    1.3803   16.7312 H   0  0  0  0  0  0  0  0  0  0  0  0
    7.3159   -0.8748   18.2965 H   0  0  0  0  0  0  0  0  0  0  0  0
    6.3466   -1.3805   21.7139 C   0  0  0  0  0  0  0  0  0  0  0  0
    5.2717   -1.9285   21.5631 O   0  0  0  0  0  0  0  0  0  0  0  0
    7.3410   -1.5415   22.8826 C   0  0  1  0  0  0  0  0  0  0  0  0
    7.4926   -3.0269   23.2372 C   0  0  0  0  0  0  0  0  0  0  0  0
    6.3013   -3.5267   23.8813 N   0  0  0  0  0  0  0  0  0  0  0  0
    5.7490   -4.7764   23.4421 C   0  0  0  0  0  0  0  0  0  0  0  0
    6.4570   -5.9338   24.1236 C   0  0  0  0  0  0  0  0  0  0  0  0
    5.8560   -7.2591   23.7373 N   0  0  2  0  0  4  0  0  0  0  0  0
    5.8625   -7.4664   22.2448 C   0  0  0  0  0  0  0  0  0  0  0  0
    4.4307   -7.1904   21.7674 C   0  0  0  0  0  0  0  0  0  0  0  0
    3.4854   -7.2953   22.9771 C   0  0  0  0  0  0  0  0  0  0  0  0
    2.2829   -8.2686   22.9575 C   0  0  0  0  0  0  0  0  0  0  0  0
    1.3220   -7.2055   22.9557 O   0  0  0  0  0  0  0  0  0  0  0  0
    2.3655   -6.2351   23.0598 C   0  0  0  0  0  0  0  0  0  0  0  0
    2.3215   -5.6730   24.0046 H   0  0  0  0  0  0  0  0  0  0  0  0
    2.3304   -5.5374   22.2148 H   0  0  0  0  0  0  0  0  0  0  0  0
    2.2114   -8.8511   23.8904 H   0  0  0  0  0  0  0  0  0  0  0  0
    2.1703   -8.9096   22.0705 H   0  0  0  0  0  0  0  0  0  0  0  0
    4.4176   -7.4730   24.1864 C   0  0  0  0  0  0  0  0  0  0  0  0
    4.3665   -8.4917   24.5827 H   0  0  0  0  0  0  0  0  0  0  0  0
    4.1931   -6.7847   25.0097 H   0  0  0  0  0  0  0  0  0  0  0  0
    4.3953   -6.1781   21.3579 H   0  0  0  0  0  0  0  0  0  0  0  0
    4.1681   -7.8694   20.9540 H   0  0  0  0  0  0  0  0  0  0  0  0
    6.5874   -6.7927   21.7861 H   0  0  0  0  0  0  0  0  0  0  0  0
    6.1918   -8.4879   22.0521 H   0  0  0  0  0  0  0  0  0  0  0  0
    6.4454   -7.9645   24.1982 H   0  0  0  0  0  0  0  0  0  0  0  0
    7.5228   -5.9455   23.8504 H   0  0  0  0  0  0  0  0  0  0  0  0
    6.3936   -5.8132   25.2101 H   0  0  0  0  0  0  0  0  0  0  0  0
    5.8582   -4.8108   22.3530 H   0  0  0  0  0  0  0  0  0  0  0  0
    4.6791   -4.7734   23.6664 H   0  0  0  0  0  0  0  0  0  0  0  0
    5.7445   -2.9246   24.9607 C   0  0  0  0  0  0  0  0  0  0  0  0
    4.9788   -3.5039   25.7223 O   0  0  0  0  0  0  0  0  0  0  0  0
    6.0909   -1.4859   25.1146 C   0  0  0  0  0  0  0  0  0  0  0  0
    5.6180   -0.8329   26.2477 C   0  0  0  0  0  0  0  0  0  0  0  0
    5.8335    0.5165   26.4190 C   0  0  0  0  0  0  0  0  0  0  0  0
    6.5218    1.1997   25.4183 C   0  0  0  0  0  0  0  0  0  0  0  0
    6.7821    2.9054   25.6023 Cl  0  0  0  0  0  0  0  0  0  0  0  0
    7.0076    0.5594   24.2896 C   0  0  0  0  0  0  0  0  0  0  0  0
    6.8178   -0.8153   24.1240 C   0  0  0  0  0  0  0  0  0  0  0  0
    7.5470    1.1440   23.5522 H   0  0  0  0  0  0  0  0  0  0  0  0
    5.4702    1.0320   27.3010 H   0  0  0  0  0  0  0  0  0  0  0  0
    5.0728   -1.4265   26.9730 H   0  0  0  0  0  0  0  0  0  0  0  0
    8.3769   -3.1512   23.8796 H   0  0  0  0  0  0  0  0  0  0  0  0
    7.6567   -3.6079   22.3285 H   0  0  0  0  0  0  0  0  0  0  0  0
    8.2549    1.0316   21.3631 H   0  0  0  0  0  0  0  0  0  0  0  0
    8.8741   -0.2022   20.2759 H   0  0  0  0  0  0  0  0  0  0  0  0
    9.1200   -0.3153   23.1093 H   0  0  0  0  0  0  0  0  0  0  0  0
   10.5904   -1.3921   21.4652 H   0  0  0  0  0  0  0  0  0  0  0  0
   10.0816   -2.5428   22.6989 H   0  0  0  0  0  0  0  0  0  0  0  0
    9.3479   -2.5923   21.0828 H   0  0  0  0  0  0  0  0  0  0  0  0
  1  2  1  0
  2  3  1  0
  3  4  1  0
  4  5  1  0
  5  6  2  0
  6  7  1  0
  7  8  2  0
  8  9  1  0
  9 10  2  0
 10 11  1  0
 11 12  2  0
 12 13  1  0
 13 14  2  0
 13 15  1  0
 12 16  1  0
 11 17  1  0
 10 18  1  0
  8 19  1  0
  6 20  1  0
  4 21  1  0
 21 22  2  0
 21 23  1  0
 23 24  1  1
 24 25  1  0
 25 26  1  0
 26 27  1  0
 27 28  1  0
 28 29  1  0
 29 30  1  0
 30 31  1  0
 31 32  1  0
 32 33  1  0
 33 34  1  0
 34 35  1  0
 34 36  1  0
 32 37  1  0
 32 38  1  0
 31 39  1  0
 39 40  1  0
 39 41  1  0
 30 42  1  0
 30 43  1  0
 29 44  1  0
 29 45  1  0
 28 46  1  1
 27 47  1  0
 27 48  1  0
 26 49  1  0
 26 50  1  0
 25 51  1  0
 51 52  2  0
 51 53  1  0
 53 54  2  0
 54 55  1  0
 55 56  2  0
 56 57  1  0
 56 58  1  0
 58 59  2  0
 58 60  1  0
 55 61  1  0
 54 62  1  0
 24 63  1  0
 24 64  1  0
  3 65  1  0
  3 66  1  0
  2 67  1  1
  1 68  1  0
  1 69  1  0
  1 70  1  0
 23  2  1  0
 39 28  1  0
 59 53  1  0
 14  5  1  0
 59 23  1  0
 14  9  1  0
 34 31  1  0
M  CHG  1  28   1
M  END
>  <cnnaffinities>  (63) 
[6.82418]

>  <score>  (63) 
6.82418

>  <index>  (63) 
62

>  <Smiles>  (63) 
C([C@]1(C(N(c2c(nc(c3c(c(c(c(c23)[H])[H])[H])[H])[H])[H])C(=O)[C@]21C(N(C(C([N@@+]1(C(C(C3(C(OC3([H])[H])([H])[H])C1([H])[H])([H])[H])([H])[H])[H])([H])[H])([H])[H])C(=O)c1c(c(c(Cl)c(c21)[H])[H])[H])([H])[H])([H])[H])[H])([H])([H])[H]

>  <h>  (63) 
<NA>

>  <Training>  (63) 
True

>  <Success>  (63) 
True

>  <enamine_searched>  (63) 
False

>  <enamine_id>  (63) 
nan

$$$$

     RDKit          3D

 56 61  0  0  0  0  0  0  0  0999 V2000
   12.9177    1.9956   22.1791 C   0  0  0  0  0  0  0  0  0  0  0  0
   12.8214    0.6644   22.7276 N   0  0  0  0  0  0  0  0  0  0  0  0
   13.1118    0.1768   23.9506 C   0  0  0  0  0  0  0  0  0  0  0  0
   12.8051   -1.1651   23.9372 C   0  0  0  0  0  0  0  0  0  0  0  0
   12.3409   -1.3949   22.6218 C   0  0  0  0  0  0  0  0  0  0  0  0
   11.8798   -2.6519   21.9696 C   0  0  0  0  0  0  0  0  0  0  0  0
   10.5005   -2.9189   22.3176 N   0  0  0  0  0  0  0  0  0  0  0  0
    9.4223   -2.6121   21.4029 C   0  0  0  0  0  0  0  0  0  0  0  0
    8.2259   -1.9394   22.1168 C   0  0  1  0  0  0  0  0  0  0  0  0
    8.5370   -0.4782   22.5436 C   0  0  0  0  0  0  0  0  0  0  0  0
    7.9011    0.4321   21.4837 C   0  0  0  0  0  0  0  0  0  0  0  0
    6.9043   -0.4247   20.8624 N   0  0  0  0  0  0  0  0  0  0  0  0
    6.1151    0.0280   19.7788 C   0  0  0  0  0  0  0  0  0  0  0  0
    6.4440   -0.2988   18.4872 C   0  0  0  0  0  0  0  0  0  0  0  0
    5.8010    0.1804   17.3923 N   0  0  0  0  0  0  0  0  0  0  0  0
    4.7951    0.9972   17.5970 C   0  0  0  0  0  0  0  0  0  0  0  0
    4.3327    1.3901   18.8861 C   0  0  0  0  0  0  0  0  0  0  0  0
    3.2184    2.2508   19.0527 C   0  0  0  0  0  0  0  0  0  0  0  0
    2.7950    2.5937   20.3075 C   0  0  0  0  0  0  0  0  0  0  0  0
    3.4675    2.1048   21.4501 C   0  0  0  0  0  0  0  0  0  0  0  0
    4.5559    1.2769   21.3161 C   0  0  0  0  0  0  0  0  0  0  0  0
    5.0105    0.9008   20.0219 C   0  0  0  0  0  0  0  0  0  0  0  0
    5.0697    0.8979   22.1947 H   0  0  0  0  0  0  0  0  0  0  0  0
    3.1237    2.3927   22.4399 H   0  0  0  0  0  0  0  0  0  0  0  0
    1.9412    3.2538   20.4337 H   0  0  0  0  0  0  0  0  0  0  0  0
    2.7233    2.6298   18.1632 H   0  0  0  0  0  0  0  0  0  0  0  0
    4.2821    1.3865   16.7176 H   0  0  0  0  0  0  0  0  0  0  0  0
    7.2781   -0.9698   18.2910 H   0  0  0  0  0  0  0  0  0  0  0  0
    7.0743   -1.7668   21.1179 C   0  0  0  0  0  0  0  0  0  0  0  0
    6.3903   -2.6439   20.6260 O   0  0  0  0  0  0  0  0  0  0  0  0
    8.6336    0.7788   20.7382 H   0  0  0  0  0  0  0  0  0  0  0  0
    7.4291    1.3232   21.9144 H   0  0  0  0  0  0  0  0  0  0  0  0
    9.6138   -0.3130   22.6118 H   0  0  0  0  0  0  0  0  0  0  0  0
    8.0966   -0.2958   23.5287 H   0  0  0  0  0  0  0  0  0  0  0  0
    7.8679   -2.8442   23.2745 C   0  0  0  0  0  0  0  0  0  0  0  0
    6.5657   -2.9303   23.7599 C   0  0  0  0  0  0  0  0  0  0  0  0
    6.2962   -3.7295   24.8609 C   0  0  0  0  0  0  0  0  0  0  0  0
    4.6833   -3.7410   25.5133 Cl  0  0  0  0  0  0  0  0  0  0  0  0
    7.2826   -4.5021   25.4783 C   0  0  0  0  0  0  0  0  0  0  0  0
    8.5741   -4.4123   24.9974 C   0  0  0  0  0  0  0  0  0  0  0  0
    8.8659   -3.5635   23.9372 C   0  0  0  0  0  0  0  0  0  0  0  0
   10.2905   -3.3984   23.5753 C   0  0  0  0  0  0  0  0  0  0  0  0
   11.2022   -3.6522   24.3534 O   0  0  0  0  0  0  0  0  0  0  0  0
    9.3945   -4.9842   25.4201 H   0  0  0  0  0  0  0  0  0  0  0  0
    7.0434   -5.1317   26.3319 H   0  0  0  0  0  0  0  0  0  0  0  0
    5.7649   -2.3861   23.2725 H   0  0  0  0  0  0  0  0  0  0  0  0
    9.8089   -1.9418   20.6331 H   0  0  0  0  0  0  0  0  0  0  0  0
    9.0715   -3.5481   20.9663 H   0  0  0  0  0  0  0  0  0  0  0  0
   11.9713   -2.5821   20.8794 H   0  0  0  0  0  0  0  0  0  0  0  0
   12.4911   -3.4752   22.3342 H   0  0  0  0  0  0  0  0  0  0  0  0
   12.3238   -0.2767   21.9201 N   0  0  0  0  0  0  0  0  0  0  0  0
   12.8778   -1.8776   24.7424 H   0  0  0  0  0  0  0  0  0  0  0  0
   13.4572    0.8462   24.7188 H   0  0  0  0  0  0  0  0  0  0  0  0
   13.9567    2.2432   21.9357 H   0  0  0  0  0  0  0  0  0  0  0  0
   12.3117    1.9107   21.2776 H   0  0  0  0  0  0  0  0  0  0  0  0
   12.4916    2.7280   22.8699 H   0  0  0  0  0  0  0  0  0  0  0  0
  1  2  1  0
  2  3  1  0
  3  4  2  0
  4  5  1  0
  5  6  1  0
  6  7  1  0
  7  8  1  0
  9  8  1  6
  9 10  1  0
 10 11  1  0
 11 12  1  0
 12 13  1  0
 13 14  2  0
 14 15  1  0
 15 16  2  0
 16 17  1  0
 17 18  2  0
 18 19  1  0
 19 20  2  0
 20 21  1  0
 21 22  2  0
 21 23  1  0
 20 24  1  0
 19 25  1  0
 18 26  1  0
 16 27  1  0
 14 28  1  0
 12 29  1  0
 29 30  2  0
 11 31  1  0
 11 32  1  0
 10 33  1  0
 10 34  1  0
  9 35  1  0
 35 36  2  0
 36 37  1  0
 37 38  1  0
 37 39  2  0
 39 40  1  0
 40 41  2  0
 41 42  1  0
 42 43  2  0
 40 44  1  0
 39 45  1  0
 36 46  1  0
  8 47  1  0
  8 48  1  0
  6 49  1  0
  6 50  1  0
  5 51  2  0
  4 52  1  0
  3 53  1  0
  1 54  1  0
  1 55  1  0
  1 56  1  0
 51  2  1  0
 42  7  1  0
 29  9  1  0
 41 35  1  0
 22 13  1  0
 22 17  1  0
M  END
>  <cnnaffinities>  (64) 
[7.07433]

>  <score>  (64) 
7.07433

>  <index>  (64) 
63

>  <Smiles>  (64) 
C(n1c(c(c(C(N2C([C@]3(C(C(N(c4c(nc(c5c(c(c(c(c45)[H])[H])[H])[H])[H])[H])C3=O)([H])[H])([H])[H])c3c(c(Cl)c(c(c3C2=O)[H])[H])[H])([H])[H])([H])[H])n1)[H])[H])([H])([H])[H]

>  <h>  (64) 
<NA>

>  <Training>  (64) 
True

>  <Success>  (64) 
True

>  <enamine_searched>  (64) 
False

>  <enamine_id>  (64) 
nan

$$$$

     RDKit          3D

 66 71  0  0  0  0  0  0  0  0999 V2000
    7.1529   -2.4798   23.4336 C   0  0  0  0  0  0  0  0  0  0  0  0
    8.0255   -1.7713   22.3909 C   0  0  1  0  0  0  0  0  0  0  0  0
    7.3290   -1.7025   21.0161 C   0  0  0  0  0  0  0  0  0  0  0  0
    6.9396   -0.3159   20.8633 N   0  0  0  0  0  0  0  0  0  0  0  0
    6.1505    0.1295   19.7829 C   0  0  0  0  0  0  0  0  0  0  0  0
    6.4485   -0.2332   18.4919 C   0  0  0  0  0  0  0  0  0  0  0  0
    5.7744    0.2034   17.4011 N   0  0  0  0  0  0  0  0  0  0  0  0
    4.7615    1.0122   17.6019 C   0  0  0  0  0  0  0  0  0  0  0  0
    4.3108    1.4187   18.8903 C   0  0  0  0  0  0  0  0  0  0  0  0
    3.1896    2.2759   19.0561 C   0  0  0  0  0  0  0  0  0  0  0  0
    2.7544    2.6204   20.3075 C   0  0  0  0  0  0  0  0  0  0  0  0
    3.4160    2.1178   21.4519 C   0  0  0  0  0  0  0  0  0  0  0  0
    4.5086    1.2988   21.3165 C   0  0  0  0  0  0  0  0  0  0  0  0
    5.0037    0.9485   20.0258 C   0  0  0  0  0  0  0  0  0  0  0  0
    5.0144    0.9205   22.1992 H   0  0  0  0  0  0  0  0  0  0  0  0
    3.0723    2.4027   22.4441 H   0  0  0  0  0  0  0  0  0  0  0  0
    1.9041    3.2862   20.4314 H   0  0  0  0  0  0  0  0  0  0  0  0
    2.6939    2.6507   18.1644 H   0  0  0  0  0  0  0  0  0  0  0  0
    4.2347    1.3766   16.7195 H   0  0  0  0  0  0  0  0  0  0  0  0
    7.2954   -0.8852   18.2796 H   0  0  0  0  0  0  0  0  0  0  0  0
    7.6170    0.5388   21.7015 C   0  0  0  0  0  0  0  0  0  0  0  0
    7.5652    1.7558   21.6524 O   0  0  0  0  0  0  0  0  0  0  0  0
    8.4352   -0.2983   22.7104 C   0  0  1  0  0  0  0  0  0  0  0  0
    8.1116    0.1284   24.1482 C   0  0  0  0  0  0  0  0  0  0  0  0
    8.5705    1.4721   24.4364 N   0  0  0  0  0  0  0  0  0  0  0  0
    7.7453    2.2808   25.3076 C   0  0  0  0  0  0  0  0  0  0  0  0
    6.6851    3.0686   24.5422 C   0  0  0  0  0  0  0  0  0  0  0  0
    7.2685    4.1264   23.6702 N   0  0  0  0  0  4  0  0  0  0  0  0
    7.7951    5.3062   24.4611 C   0  0  0  0  0  0  0  0  0  0  0  0
    8.2643    6.4217   23.5364 C   0  0  0  0  0  0  0  0  0  0  0  0
    7.2402    6.8414   22.6595 O   0  0  0  0  0  0  0  0  0  0  0  0
    6.8264    5.7652   21.8450 C   0  0  0  0  0  0  0  0  0  0  0  0
    6.2578    4.6186   22.6656 C   0  0  0  0  0  0  0  0  0  0  0  0
    5.9967    3.7796   22.0172 H   0  0  0  0  0  0  0  0  0  0  0  0
    5.3627    4.9584   23.2000 H   0  0  0  0  0  0  0  0  0  0  0  0
    7.6792    5.3920   21.2612 H   0  0  0  0  0  0  0  0  0  0  0  0
    6.0793    6.1639   21.1528 H   0  0  0  0  0  0  0  0  0  0  0  0
    8.5539    7.3084   24.1084 H   0  0  0  0  0  0  0  0  0  0  0  0
    9.1406    6.0788   22.9600 H   0  0  0  0  0  0  0  0  0  0  0  0
    6.9822    5.6894   25.0906 H   0  0  0  0  0  0  0  0  0  0  0  0
    8.6177    4.9788   25.0978 H   0  0  0  0  0  0  0  0  0  0  0  0
    8.0262    3.6592   23.1330 H   0  0  0  0  0  0  0  0  0  0  0  0
    6.1146    2.3892   23.8954 H   0  0  0  0  0  0  0  0  0  0  0  0
    5.9869    3.5294   25.2516 H   0  0  0  0  0  0  0  0  0  0  0  0
    7.2559    1.6119   26.0220 H   0  0  0  0  0  0  0  0  0  0  0  0
    8.4165    2.9421   25.8523 H   0  0  0  0  0  0  0  0  0  0  0  0
    9.8320    1.8866   24.1313 C   0  0  0  0  0  0  0  0  0  0  0  0
   10.3102    2.9398   24.5476 O   0  0  0  0  0  0  0  0  0  0  0  0
   10.5846    0.9949   23.1905 C   0  0  0  0  0  0  0  0  0  0  0  0
   11.9195    1.2915   22.9129 C   0  0  0  0  0  0  0  0  0  0  0  0
   12.6603    0.4818   22.0586 C   0  0  0  0  0  0  0  0  0  0  0  0
   12.0130   -0.6075   21.4660 C   0  0  0  0  0  0  0  0  0  0  0  0
   12.6717   -1.5304   20.1102 Cl  0  0  0  0  0  0  0  0  0  0  0  0
   10.6650   -0.8322   21.6496 C   0  0  0  0  0  0  0  0  0  0  0  0
    9.9288   -0.0599   22.5419 C   0  0  0  0  0  0  0  0  0  0  0  0
   10.2052   -1.5384   20.9720 H   0  0  0  0  0  0  0  0  0  0  0  0
   13.6716    0.7529   21.7874 H   0  0  0  0  0  0  0  0  0  0  0  0
   12.3179    2.2033   23.3575 H   0  0  0  0  0  0  0  0  0  0  0  0
    7.0332    0.1153   24.2980 H   0  0  0  0  0  0  0  0  0  0  0  0
    8.5879   -0.5982   24.8250 H   0  0  0  0  0  0  0  0  0  0  0  0
    8.0099   -1.9891   20.2075 H   0  0  0  0  0  0  0  0  0  0  0  0
    6.4468   -2.3494   20.9685 H   0  0  0  0  0  0  0  0  0  0  0  0
    8.9342   -2.3749   22.3087 H   0  0  0  0  0  0  0  0  0  0  0  0
    6.1978   -1.9662   23.5889 H   0  0  0  0  0  0  0  0  0  0  0  0
    7.6638   -2.5596   24.3987 H   0  0  0  0  0  0  0  0  0  0  0  0
    6.9365   -3.5014   23.1034 H   0  0  0  0  0  0  0  0  0  0  0  0
  1  2  1  0
  2  3  1  0
  3  4  1  0
  4  5  1  0
  5  6  2  0
  6  7  1  0
  7  8  2  0
  8  9  1  0
  9 10  2  0
 10 11  1  0
 11 12  2  0
 12 13  1  0
 13 14  2  0
 13 15  1  0
 12 16  1  0
 11 17  1  0
 10 18  1  0
  8 19  1  0
  6 20  1  0
  4 21  1  0
 21 22  2  0
 21 23  1  0
 23 24  1  1
 24 25  1  0
 25 26  1  0
 26 27  1  0
 27 28  1  0
 28 29  1  0
 29 30  1  0
 30 31  1  0
 31 32  1  0
 32 33  1  0
 33 34  1  0
 33 35  1  0
 32 36  1  0
 32 37  1  0
 30 38  1  0
 30 39  1  0
 29 40  1  0
 29 41  1  0
 28 42  1  0
 27 43  1  0
 27 44  1  0
 26 45  1  0
 26 46  1  0
 25 47  1  0
 47 48  2  0
 47 49  1  0
 49 50  2  0
 50 51  1  0
 51 52  2  0
 52 53  1  0
 52 54  1  0
 54 55  2  0
 54 56  1  0
 51 57  1  0
 50 58  1  0
 24 59  1  0
 24 60  1  0
  3 61  1  0
  3 62  1  0
  2 63  1  6
  1 64  1  0
  1 65  1  0
  1 66  1  0
 23  2  1  0
 33 28  1  0
 55 49  1  0
 14  5  1  0
 55 23  1  0
 14  9  1  0
M  CHG  1  28   1
M  END
>  <cnnaffinities>  (65) 
[6.7371, 6.79592]

>  <score>  (65) 
6.7371

>  <index>  (65) 
64

>  <Smiles>  (65) 
C([C@]1(C(N(c2c(nc(c3c(c(c(c(c23)[H])[H])[H])[H])[H])[H])C(=O)[C@]21C(N(C(C([N+]1(C(C(OC(C1([H])[H])([H])[H])([H])[H])([H])[H])[H])([H])[H])([H])[H])C(=O)c1c(c(c(Cl)c(c21)[H])[H])[H])([H])[H])([H])[H])[H])([H])([H])[H]

>  <h>  (65) 
<NA>

>  <Training>  (65) 
True

>  <Success>  (65) 
True

>  <enamine_searched>  (65) 
False

>  <enamine_id>  (65) 
nan

$$$$

     RDKit          3D

 54 59  0  0  0  0  0  0  0  0999 V2000
    8.4671    3.3868   22.9314 C   0  0  0  0  0  0  0  0  0  0  0  0
    7.4088    2.5462   23.4745 N   0  0  0  0  0  0  0  0  0  0  0  0
    7.5230    2.0490   24.7397 C   0  0  0  0  0  0  0  0  0  0  0  0
    8.5161    2.2512   25.4180 O   0  0  0  0  0  0  0  0  0  0  0  0
    6.3188    1.2497   25.2877 C   0  0  0  0  0  0  0  0  0  0  0  0
    6.3868   -0.1867   25.0776 N   0  0  0  0  0  0  0  0  0  0  0  0
    7.1569   -0.9739   25.9198 C   0  0  0  0  0  0  0  0  0  0  0  0
    7.6400   -0.6173   26.9706 O   0  0  0  0  0  0  0  0  0  0  0  0
    7.2324   -2.3082   25.2792 C   0  0  0  0  0  0  0  0  0  0  0  0
    7.8006   -3.4152   25.8519 C   0  0  0  0  0  0  0  0  0  0  0  0
    7.6702   -4.6520   25.1809 C   0  0  0  0  0  0  0  0  0  0  0  0
    6.8762   -4.7490   24.0733 C   0  0  0  0  0  0  0  0  0  0  0  0
    6.7939   -6.2385   23.1935 Cl  0  0  0  0  0  0  0  0  0  0  0  0
    6.0067   -3.6549   23.5602 C   0  0  0  0  0  0  0  0  0  0  0  0
    6.5416   -2.2987   23.9989 C   0  0  1  0  0  0  0  0  0  0  0  0
    5.8829   -0.9383   23.9629 C   0  0  2  0  0  0  0  0  0  0  0  0
    6.8526   -1.2998   22.8599 C   0  0  2  0  0  0  0  0  0  0  0  0
    6.2122   -1.3774   21.4897 C   0  0  0  0  0  0  0  0  0  0  0  0
    5.1992   -1.9599   21.1459 O   0  0  0  0  0  0  0  0  0  0  0  0
    6.9364   -0.5711   20.6258 N   0  0  0  0  0  0  0  0  0  0  0  0
    6.2070    0.0428   19.5697 C   0  0  0  0  0  0  0  0  0  0  0  0
    6.5087   -0.2277   18.2611 C   0  0  0  0  0  0  0  0  0  0  0  0
    5.8054    0.2519   17.2060 N   0  0  0  0  0  0  0  0  0  0  0  0
    4.7829    1.0345   17.4612 C   0  0  0  0  0  0  0  0  0  0  0  0
    4.3716    1.4068   18.7736 C   0  0  0  0  0  0  0  0  0  0  0  0
    3.2602    2.2616   19.0101 C   0  0  0  0  0  0  0  0  0  0  0  0
    2.9022    2.5981   20.2870 C   0  0  0  0  0  0  0  0  0  0  0  0
    3.6204    2.0851   21.3930 C   0  0  0  0  0  0  0  0  0  0  0  0
    4.6850    1.2437   21.1900 C   0  0  0  0  0  0  0  0  0  0  0  0
    5.0957    0.8938   19.8684 C   0  0  0  0  0  0  0  0  0  0  0  0
    5.2129    0.8104   22.0388 H   0  0  0  0  0  0  0  0  0  0  0  0
    3.3188    2.3547   22.4022 H   0  0  0  0  0  0  0  0  0  0  0  0
    2.0686    3.2727   20.4621 H   0  0  0  0  0  0  0  0  0  0  0  0
    2.7134    2.6562   18.1555 H   0  0  0  0  0  0  0  0  0  0  0  0
    4.2196    1.4151   16.6066 H   0  0  0  0  0  0  0  0  0  0  0  0
    7.3428   -0.8868   18.0307 H   0  0  0  0  0  0  0  0  0  0  0  0
    8.1312    0.0050   21.2380 C   0  0  0  0  0  0  0  0  0  0  0  0
    8.1511   -0.6422   22.6055 C   0  0  0  0  0  0  0  0  0  0  0  0
    9.2238   -0.6359   23.3847 C   0  0  0  0  0  0  0  0  0  0  0  0
   10.3200    0.0650   23.0330 F   0  0  0  0  0  0  0  0  0  0  0  0
    9.3446   -1.1827   24.3133 H   0  0  0  0  0  0  0  0  0  0  0  0
    8.0523    1.0980   21.3077 H   0  0  0  0  0  0  0  0  0  0  0  0
    9.0410   -0.2187   20.6762 H   0  0  0  0  0  0  0  0  0  0  0  0
    4.8364   -0.8266   23.6963 H   0  0  0  0  0  0  0  0  0  0  0  0
    5.9715   -3.7057   22.4675 H   0  0  0  0  0  0  0  0  0  0  0  0
    4.9596   -3.7895   23.8914 H   0  0  0  0  0  0  0  0  0  0  0  0
    8.1913   -5.5303   25.5542 H   0  0  0  0  0  0  0  0  0  0  0  0
    8.3553   -3.3122   26.7781 H   0  0  0  0  0  0  0  0  0  0  0  0
    6.3436    1.3928   26.3704 H   0  0  0  0  0  0  0  0  0  0  0  0
    5.3691    1.6267   24.8877 H   0  0  0  0  0  0  0  0  0  0  0  0
    6.5522    2.4296   22.9499 H   0  0  0  0  0  0  0  0  0  0  0  0
    8.6697    4.2388   23.5907 H   0  0  0  0  0  0  0  0  0  0  0  0
    9.3925    2.8093   22.8157 H   0  0  0  0  0  0  0  0  0  0  0  0
    8.1547    3.7685   21.9549 H   0  0  0  0  0  0  0  0  0  0  0  0
  1  2  1  0
  2  3  1  0
  3  4  2  0
  3  5  1  0
  5  6  1  0
  6  7  1  0
  7  8  2  0
  7  9  1  0
  9 10  2  0
 10 11  1  0
 11 12  2  0
 12 13  1  0
 12 14  1  0
 15 14  1  6
 15 16  1  0
 16 17  1  0
 17 18  1  6
 18 19  2  0
 18 20  1  0
 20 21  1  0
 21 22  2  0
 22 23  1  0
 23 24  2  0
 24 25  1  0
 25 26  2  0
 26 27  1  0
 27 28  2  0
 28 29  1  0
 29 30  2  0
 29 31  1  0
 28 32  1  0
 27 33  1  0
 26 34  1  0
 24 35  1  0
 22 36  1  0
 20 37  1  0
 37 38  1  0
 38 39  2  0
 39 40  1  0
 39 41  1  0
 37 42  1  0
 37 43  1  0
 16 44  1  6
 14 45  1  0
 14 46  1  0
 11 47  1  0
 10 48  1  0
  5 49  1  0
  5 50  1  0
  2 51  1  0
  1 52  1  0
  1 53  1  0
  1 54  1  0
 16  6  1  0
 38 17  1  0
 15  9  1  0
 30 21  1  0
 17 15  1  0
 30 25  1  0
M  END
>  <cnnaffinities>  (66) 
[6.48449, 6.54193]

>  <score>  (66) 
6.48449

>  <index>  (66) 
65

>  <Smiles>  (66) 
C(N(C(=O)C(N1C(=O)C2=C(C(=C(Cl)C([C@]32[C@@]1([C@@]13C(=O)N(c2c(nc(c3c(c(c(c(c23)[H])[H])[H])[H])[H])[H])C(/C/1=C(\F)/[H])([H])[H])[H])([H])[H])[H])[H])([H])[H])[H])([H])([H])[H]

>  <h>  (66) 
<NA>

>  <Training>  (66) 
True

>  <Success>  (66) 
True

>  <enamine_searched>  (66) 
False

>  <enamine_id>  (66) 
nan

$$$$

     RDKit          3D

 47 50  0  0  0  0  0  0  0  0999 V2000
    5.4130   -2.3984   20.9771 O   0  0  0  0  0  0  0  0  0  0  0  0
    6.1412   -1.6455   21.6086 C   0  0  0  0  0  0  0  0  0  0  0  0
    6.9041   -0.5134   20.9148 C   0  0  0  0  0  0  0  0  0  0  0  0
    6.1168    0.0826   19.7717 C   0  0  0  0  0  0  0  0  0  0  0  0
    6.4273   -0.2221   18.4692 C   0  0  0  0  0  0  0  0  0  0  0  0
    5.7638    0.2297   17.3710 N   0  0  0  0  0  0  0  0  0  0  0  0
    4.7442    1.0235   17.5782 C   0  0  0  0  0  0  0  0  0  0  0  0
    4.2897    1.4174   18.8694 C   0  0  0  0  0  0  0  0  0  0  0  0
    3.1694    2.2662   19.0458 C   0  0  0  0  0  0  0  0  0  0  0  0
    2.7513    2.6157   20.3008 C   0  0  0  0  0  0  0  0  0  0  0  0
    3.4431    2.1338   21.4373 C   0  0  0  0  0  0  0  0  0  0  0  0
    4.5360    1.3168   21.2868 C   0  0  0  0  0  0  0  0  0  0  0  0
    4.9916    0.9309   19.9994 C   0  0  0  0  0  0  0  0  0  0  0  0
    5.0715    0.9638   22.1639 H   0  0  0  0  0  0  0  0  0  0  0  0
    3.1106    2.4216   22.4312 H   0  0  0  0  0  0  0  0  0  0  0  0
    1.8959    3.2708   20.4318 H   0  0  0  0  0  0  0  0  0  0  0  0
    2.6588    2.6355   18.1580 H   0  0  0  0  0  0  0  0  0  0  0  0
    4.2143    1.3926   16.6984 H   0  0  0  0  0  0  0  0  0  0  0  0
    7.2702   -0.8735   18.2465 H   0  0  0  0  0  0  0  0  0  0  0  0
    7.8494   -0.9215   20.5315 H   0  0  0  0  0  0  0  0  0  0  0  0
    7.1579    0.2487   21.6629 H   0  0  0  0  0  0  0  0  0  0  0  0
    6.2520   -1.7290   22.9810 N   0  0  0  0  0  0  0  0  0  0  0  0
    7.5016   -1.6427   23.7187 C   0  0  0  0  0  0  0  0  0  0  0  0
    7.2493   -1.0087   25.0854 C   0  0  0  0  0  0  0  0  0  0  0  0
    6.1546   -1.7601   25.8612 C   0  0  1  0  0  0  0  0  0  0  0  0
    5.8750   -1.1138   27.2372 C   0  0  0  0  0  0  0  0  0  0  0  0
    5.1244    0.2206   27.1386 C   0  0  0  0  0  0  0  0  0  0  0  0
    3.8678    0.0646   26.3110 C   0  0  0  0  0  0  0  0  0  0  0  0
    3.2535    1.2822   26.1653 F   0  0  0  0  0  0  0  0  0  0  0  0
    2.9818   -0.7385   26.9969 F   0  0  0  0  0  0  0  0  0  0  0  0
    4.1139   -0.5337   24.9391 C   0  0  0  0  0  0  0  0  0  0  0  0
    4.8599   -1.8755   25.0237 C   0  0  1  0  0  0  0  0  0  0  0  0
    5.2009   -2.4709   23.6498 C   0  0  0  0  0  0  0  0  0  0  0  0
    5.4863   -3.5289   23.7698 H   0  0  0  0  0  0  0  0  0  0  0  0
    4.3965   -2.4237   22.9218 H   0  0  0  0  0  0  0  0  0  0  0  0
    4.1934   -2.5726   25.5467 H   0  0  0  0  0  0  0  0  0  0  0  0
    4.6866    0.1943   24.3503 H   0  0  0  0  0  0  0  0  0  0  0  0
    3.1343   -0.6588   24.4667 H   0  0  0  0  0  0  0  0  0  0  0  0
    4.8354    0.6025   28.1248 H   0  0  0  0  0  0  0  0  0  0  0  0
    5.7418    0.9869   26.6554 H   0  0  0  0  0  0  0  0  0  0  0  0
    6.8240   -0.9638   27.7680 H   0  0  0  0  0  0  0  0  0  0  0  0
    5.2757   -1.8039   27.8457 H   0  0  0  0  0  0  0  0  0  0  0  0
    6.5172   -2.7853   26.0447 H   0  0  0  0  0  0  0  0  0  0  0  0
    6.9423    0.0381   24.9577 H   0  0  0  0  0  0  0  0  0  0  0  0
    8.1801   -1.0158   25.6688 H   0  0  0  0  0  0  0  0  0  0  0  0
    7.9126   -2.6582   23.8649 H   0  0  0  0  0  0  0  0  0  0  0  0
    8.2222   -1.0724   23.1243 H   0  0  0  0  0  0  0  0  0  0  0  0
  1  2  2  0
  2  3  1  0
  3  4  1  0
  4  5  2  0
  5  6  1  0
  6  7  2  0
  7  8  1  0
  8  9  2  0
  9 10  1  0
 10 11  2  0
 11 12  1  0
 12 13  2  0
 12 14  1  0
 11 15  1  0
 10 16  1  0
  9 17  1  0
  7 18  1  0
  5 19  1  0
  3 20  1  0
  3 21  1  0
  2 22  1  0
 22 23  1  0
 23 24  1  0
 24 25  1  0
 25 26  1  0
 26 27  1  0
 27 28  1  0
 28 29  1  0
 28 30  1  0
 28 31  1  0
 31 32  1  0
 32 33  1  0
 33 34  1  0
 33 35  1  0
 32 36  1  1
 31 37  1  0
 31 38  1  0
 27 39  1  0
 27 40  1  0
 26 41  1  0
 26 42  1  0
 25 43  1  1
 24 44  1  0
 24 45  1  0
 23 46  1  0
 23 47  1  0
 13  4  1  0
 33 22  1  0
 13  8  1  0
 32 25  1  0
M  END
>  <cnnaffinities>  (67) 
[5.57255, 5.57229]

>  <score>  (67) 
5.57255

>  <index>  (67) 
66

>  <Smiles>  (67) 
O=C(C(c1c(nc(c2c(c(c(c(c12)[H])[H])[H])[H])[H])[H])([H])[H])N1C(C([C@]2(C(C(C(F)(F)C([C@]2(C1([H])[H])[H])([H])[H])([H])[H])([H])[H])[H])([H])[H])([H])[H]

>  <h>  (67) 
<NA>

>  <Training>  (67) 
True

>  <Success>  (67) 
True

>  <enamine_searched>  (67) 
False

>  <enamine_id>  (67) 
nan

$$$$

     RDKit          3D

 69 74  0  0  0  0  0  0  0  0999 V2000
    6.6358   -7.7358   22.2511 C   0  0  0  0  0  0  0  0  0  0  0  0
    6.1457   -7.3878   23.5960 N   0  0  0  0  0  4  0  0  0  0  0  0
    6.5171   -6.0060   24.0230 C   0  0  0  0  0  0  0  0  0  0  0  0
    5.7054   -4.9251   23.3042 C   0  0  0  0  0  0  0  0  0  0  0  0
    6.1139   -3.6017   23.7211 N   0  0  0  0  0  0  0  0  0  0  0  0
    7.3267   -3.0362   23.1714 C   0  0  0  0  0  0  0  0  0  0  0  0
    7.1380   -1.5509   22.8116 C   0  0  2  0  0  0  0  0  0  0  0  0
    6.2083   -1.4169   21.5871 C   0  0  0  0  0  0  0  0  0  0  0  0
    5.1666   -2.0106   21.3773 O   0  0  0  0  0  0  0  0  0  0  0  0
    6.7595   -0.5010   20.7154 N   0  0  0  0  0  0  0  0  0  0  0  0
    6.0074    0.0656   19.6603 C   0  0  0  0  0  0  0  0  0  0  0  0
    6.3639   -0.1897   18.3625 C   0  0  0  0  0  0  0  0  0  0  0  0
    5.7083    0.2911   17.2789 N   0  0  0  0  0  0  0  0  0  0  0  0
    4.6812    1.0777   17.4999 C   0  0  0  0  0  0  0  0  0  0  0  0
    4.2253    1.4481   18.7998 C   0  0  0  0  0  0  0  0  0  0  0  0
    3.1239    2.3249   18.9863 C   0  0  0  0  0  0  0  0  0  0  0  0
    2.7417    2.6961   20.2457 C   0  0  0  0  0  0  0  0  0  0  0  0
    3.4406    2.2140   21.3763 C   0  0  0  0  0  0  0  0  0  0  0  0
    4.5017    1.3566   21.2293 C   0  0  0  0  0  0  0  0  0  0  0  0
    4.9099    0.9423   19.9250 C   0  0  0  0  0  0  0  0  0  0  0  0
    5.0386    0.9991   22.1094 H   0  0  0  0  0  0  0  0  0  0  0  0
    3.1357    2.5328   22.3683 H   0  0  0  0  0  0  0  0  0  0  0  0
    1.9061    3.3760   20.3873 H   0  0  0  0  0  0  0  0  0  0  0  0
    2.6097    2.7043   18.1075 H   0  0  0  0  0  0  0  0  0  0  0  0
    4.1575    1.4685   16.6267 H   0  0  0  0  0  0  0  0  0  0  0  0
    7.2187   -0.8335   18.1605 H   0  0  0  0  0  0  0  0  0  0  0  0
    7.9818    0.1041   21.1934 C   0  0  0  0  0  0  0  0  0  0  0  0
    8.4422   -0.8890   22.2731 C   0  0  2  0  0  0  0  0  0  0  0  0
    9.4565   -1.8476   21.6205 C   0  0  0  0  0  0  0  0  0  0  0  0
   10.6443   -1.1011   21.4421 O   0  0  0  0  0  0  0  0  0  0  0  0
   11.8784   -1.7771   21.5997 C   0  0  0  0  0  0  0  0  0  0  0  0
   12.2802   -1.7455   23.0378 C   0  0  0  0  0  0  0  0  0  0  0  0
   12.3499   -0.4122   23.5079 F   0  0  0  0  0  0  0  0  0  0  0  0
   13.3132   -2.7138   23.5813 C   0  0  0  0  0  0  0  0  0  0  0  0
   13.0790   -2.7221   23.6409 C   0  0  0  0  0  0  0  0  0  0  0  0
   11.5470   -2.1864   23.6547 H   0  0  0  0  0  0  0  0  0  0  0  0
   12.9933   -3.3781   24.6820 H   0  0  0  0  0  0  0  0  0  0  0  0
   14.8758   -2.4129   23.6313 H   0  0  0  0  0  0  0  0  0  0  0  0
   13.1398   -3.7066   22.8731 H   0  0  0  0  0  0  0  0  0  0  0  0
   11.8025   -2.7762   21.1053 H   0  0  0  0  0  0  0  0  0  0  0  0
   12.5746   -1.2001   20.9668 H   0  0  0  0  0  0  0  0  0  0  0  0
    9.0701   -2.1961   20.6485 H   0  0  0  0  0  0  0  0  0  0  0  0
    9.6252   -2.7473   22.2300 H   0  0  0  0  0  0  0  0  0  0  0  0
    8.9702   -0.3763   23.0798 H   0  0  0  0  0  0  0  0  0  0  0  0
    8.7036    0.2015   20.3803 H   0  0  0  0  0  0  0  0  0  0  0  0
    7.8163    1.1156   21.5885 H   0  0  0  0  0  0  0  0  0  0  0  0
    6.5777   -0.8684   24.0701 C   0  0  0  0  0  0  0  0  0  0  0  0
    6.7706    0.4977   24.3204 C   0  0  0  0  0  0  0  0  0  0  0  0
    6.3311    1.0626   25.5098 C   0  0  0  0  0  0  0  0  0  0  0  0
    6.6211    2.7540   25.8176 Cl  0  0  0  0  0  0  0  0  0  0  0  0
    5.6718    0.3145   26.4821 C   0  0  0  0  0  0  0  0  0  0  0  0
    5.4371   -1.0205   26.2245 C   0  0  0  0  0  0  0  0  0  0  0  0
    5.8707   -1.6036   25.0359 C   0  0  0  0  0  0  0  0  0  0  0  0
    5.5431   -3.0496   24.8260 C   0  0  0  0  0  0  0  0  0  0  0  0
    4.8028   -3.6737   25.5757 O   0  0  0  0  0  0  0  0  0  0  0  0
    4.9171   -1.6519   26.9373 H   0  0  0  0  0  0  0  0  0  0  0  0
    5.3496    0.7800   27.4077 H   0  0  0  0  0  0  0  0  0  0  0  0
    7.2830    1.1423   23.6140 H   0  0  0  0  0  0  0  0  0  0  0  0
    7.5994   -3.6143   22.2861 H   0  0  0  0  0  0  0  0  0  0  0  0
    8.1447   -3.1040   23.9060 H   0  0  0  0  0  0  0  0  0  0  0  0
    4.6392   -5.0246   23.5300 H   0  0  0  0  0  0  0  0  0  0  0  0
    5.8280   -4.9650   22.2114 H   0  0  0  0  0  0  0  0  0  0  0  0
    6.3600   -5.9258   25.0943 H   0  0  0  0  0  0  0  0  0  0  0  0
    7.5826   -5.8580   23.8270 H   0  0  0  0  0  0  0  0  0  0  0  0
    5.1002   -7.4384   23.5873 H   0  0  0  0  0  0  0  0  0  0  0  0
    6.5263   -8.0746   24.2782 H   0  0  0  0  0  0  0  0  0  0  0  0
    5.9636   -7.3742   21.4724 H   0  0  0  0  0  0  0  0  0  0  0  0
    7.6121   -7.2850   22.0764 H   0  0  0  0  0  0  0  0  0  0  0  0
    6.7234   -8.8152   22.1540 H   0  0  0  0  0  0  0  0  0  0  0  0
  1  2  1  0
  2  3  1  0
  3  4  1  0
  4  5  1  0
  5  6  1  0
  7  6  1  1
  7  8  1  0
  8  9  2  0
  8 10  1  0
 10 11  1  0
 11 12  2  0
 12 13  1  0
 13 14  2  0
 14 15  1  0
 15 16  2  0
 16 17  1  0
 17 18  2  0
 18 19  1  0
 19 20  2  0
 19 21  1  0
 18 22  1  0
 17 23  1  0
 16 24  1  0
 14 25  1  0
 12 26  1  0
 10 27  1  0
 27 28  1  0
 28 29  1  0
 29 30  1  0
 30 31  1  0
 31 32  1  0
 32 33  1  0
 32 34  1  0
 34 35  1  0
 35 36  1  0
 35 37  1  0
 34 38  1  0
 34 39  1  0
 31 40  1  0
 31 41  1  0
 29 42  1  0
 29 43  1  0
 28 44  1  1
 27 45  1  0
 27 46  1  0
  7 47  1  0
 47 48  2  0
 48 49  1  0
 49 50  1  0
 49 51  2  0
 51 52  1  0
 52 53  2  0
 53 54  1  0
 54 55  2  0
 52 56  1  0
 51 57  1  0
 48 58  1  0
  6 59  1  0
  6 60  1  0
  4 61  1  0
  4 62  1  0
  3 63  1  0
  3 64  1  0
  2 65  1  0
  2 66  1  0
  1 67  1  0
  1 68  1  0
  1 69  1  0
 54  5  1  0
 28  7  1  0
 35 32  1  0
 53 47  1  0
 20 11  1  0
 20 15  1  0
M  CHG  1   2   1
M  END
>  <cnnaffinities>  (68) 
[6.88284]

>  <score>  (68) 
6.88284

>  <index>  (68) 
67

>  <Smiles>  (68) 
C([N+](C(C(N1C([C@@]2(C(=O)N(c3c(nc(c4c(c(c(c(c34)[H])[H])[H])[H])[H])[H])C([C@@]2(C(OC(C2(F)C(C2([H])[H])([H])[H])([H])[H])([H])[H])[H])([H])[H])c2c(c(Cl)c(c(c2C1=O)[H])[H])[H])([H])[H])([H])[H])([H])[H])([H])[H])([H])([H])[H]

>  <h>  (68) 
<NA>

>  <Training>  (68) 
True

>  <Success>  (68) 
True

>  <enamine_searched>  (68) 
False

>  <enamine_id>  (68) 
nan

$$$$

     RDKit          3D

 57 62  0  0  0  0  0  0  0  0999 V2000
    5.4068    4.9821   21.5222 C   0  0  0  0  0  0  0  0  0  0  0  0
    6.3790    4.5221   22.5550 C   0  0  0  0  0  0  0  0  0  0  0  0
    6.2910    3.5182   23.3803 N   0  0  0  0  0  0  0  0  0  0  0  0
    7.5165    3.5485   24.0088 C   0  0  0  0  0  0  0  0  0  0  0  0
    7.9453    2.5074   25.0045 C   0  0  0  0  0  0  0  0  0  0  0  0
    8.7042    1.4250   24.3956 N   0  0  0  0  0  0  0  0  0  0  0  0
    8.0838    0.1345   24.1540 C   0  0  0  0  0  0  0  0  0  0  0  0
    8.3735   -0.4036   22.7338 C   0  0  2  0  0  0  0  0  0  0  0  0
    7.6647    0.4481   21.6462 C   0  0  0  0  0  0  0  0  0  0  0  0
    7.7856    1.6390   21.4605 O   0  0  0  0  0  0  0  0  0  0  0  0
    6.8806   -0.3802   20.8730 N   0  0  0  0  0  0  0  0  0  0  0  0
    6.1281    0.1064   19.7769 C   0  0  0  0  0  0  0  0  0  0  0  0
    6.4446   -0.2299   18.4834 C   0  0  0  0  0  0  0  0  0  0  0  0
    5.7721    0.2147   17.3932 N   0  0  0  0  0  0  0  0  0  0  0  0
    4.7529    1.0171   17.5954 C   0  0  0  0  0  0  0  0  0  0  0  0
    4.2957    1.4210   18.8814 C   0  0  0  0  0  0  0  0  0  0  0  0
    3.1672    2.2697   19.0571 C   0  0  0  0  0  0  0  0  0  0  0  0
    2.7354    2.6071   20.3124 C   0  0  0  0  0  0  0  0  0  0  0  0
    3.4139    2.1117   21.4485 C   0  0  0  0  0  0  0  0  0  0  0  0
    4.5097    1.2997   21.3040 C   0  0  0  0  0  0  0  0  0  0  0  0
    4.9929    0.9455   20.0129 C   0  0  0  0  0  0  0  0  0  0  0  0
    5.0211    0.9240   22.1825 H   0  0  0  0  0  0  0  0  0  0  0  0
    3.0811    2.3911   22.4458 H   0  0  0  0  0  0  0  0  0  0  0  0
    1.8768    3.2613   20.4403 H   0  0  0  0  0  0  0  0  0  0  0  0
    2.6643    2.6416   18.1703 H   0  0  0  0  0  0  0  0  0  0  0  0
    4.2300    1.3819   16.7126 H   0  0  0  0  0  0  0  0  0  0  0  0
    7.2928   -0.8767   18.2622 H   0  0  0  0  0  0  0  0  0  0  0  0
    7.1137   -1.7862   21.1134 C   0  0  0  0  0  0  0  0  0  0  0  0
    7.8007   -1.8437   22.4981 C   0  0  2  0  0  0  0  0  0  0  0  0
    6.8293   -2.3827   23.5627 C   0  0  0  0  0  0  0  0  0  0  0  0
    7.3040   -2.4625   24.5460 H   0  0  0  0  0  0  0  0  0  0  0  0
    5.9408   -1.7475   23.6616 H   0  0  0  0  0  0  0  0  0  0  0  0
    6.4906   -3.3887   23.2839 H   0  0  0  0  0  0  0  0  0  0  0  0
    8.6404   -2.5474   22.4650 H   0  0  0  0  0  0  0  0  0  0  0  0
    6.1614   -2.3304   21.0978 H   0  0  0  0  0  0  0  0  0  0  0  0
    7.7648   -2.1998   20.3387 H   0  0  0  0  0  0  0  0  0  0  0  0
    9.8789   -0.3102   22.5234 C   0  0  0  0  0  0  0  0  0  0  0  0
   10.5004   -1.1201   21.5696 C   0  0  0  0  0  0  0  0  0  0  0  0
   11.8529   -0.9845   21.3513 C   0  0  0  0  0  0  0  0  0  0  0  0
   12.4116   -1.7285   20.3802 F   0  0  0  0  0  0  0  0  0  0  0  0
   12.6303   -0.0378   22.0062 C   0  0  0  0  0  0  0  0  0  0  0  0
   12.0093    0.7982   22.9117 C   0  0  0  0  0  0  0  0  0  0  0  0
   10.6452    0.6694   23.1681 C   0  0  0  0  0  0  0  0  0  0  0  0
   10.0238    1.6474   24.1167 C   0  0  0  0  0  0  0  0  0  0  0  0
   10.6396    2.5930   24.5891 O   0  0  0  0  0  0  0  0  0  0  0  0
   12.5471    1.5866   23.4261 H   0  0  0  0  0  0  0  0  0  0  0  0
   13.6732    0.0657   21.7364 H   0  0  0  0  0  0  0  0  0  0  0  0
    9.9583   -1.7938   20.9154 H   0  0  0  0  0  0  0  0  0  0  0  0
    7.0085    0.2701   24.2747 H   0  0  0  0  0  0  0  0  0  0  0  0
    8.4440   -0.6105   24.8825 H   0  0  0  0  0  0  0  0  0  0  0  0
    8.5692    2.9697   25.7736 H   0  0  0  0  0  0  0  0  0  0  0  0
    7.0454    2.0831   25.4563 H   0  0  0  0  0  0  0  0  0  0  0  0
    8.2787    4.5393   23.6528 N   0  0  0  0  0  0  0  0  0  0  0  0
    7.5351    5.1902   22.6792 O   0  0  0  0  0  0  0  0  0  0  0  0
    5.6416    5.9981   21.1983 H   0  0  0  0  0  0  0  0  0  0  0  0
    4.3980    4.9447   21.9363 H   0  0  0  0  0  0  0  0  0  0  0  0
    5.4242    4.3061   20.6606 H   0  0  0  0  0  0  0  0  0  0  0  0
  1  2  1  0
  2  3  2  0
  3  4  1  0
  4  5  1  0
  5  6  1  0
  6  7  1  0
  8  7  1  1
  8  9  1  0
  9 10  2  0
  9 11  1  0
 11 12  1  0
 12 13  2  0
 13 14  1  0
 14 15  2  0
 15 16  1  0
 16 17  2  0
 17 18  1  0
 18 19  2  0
 19 20  1  0
 20 21  2  0
 20 22  1  0
 19 23  1  0
 18 24  1  0
 17 25  1  0
 15 26  1  0
 13 27  1  0
 11 28  1  0
 28 29  1  0
 29 30  1  0
 30 31  1  0
 30 32  1  0
 30 33  1  0
 29 34  1  6
 28 35  1  0
 28 36  1  0
  8 37  1  0
 37 38  2  0
 38 39  1  0
 39 40  1  0
 39 41  2  0
 41 42  1  0
 42 43  2  0
 43 44  1  0
 44 45  2  0
 42 46  1  0
 41 47  1  0
 38 48  1  0
  7 49  1  0
  7 50  1  0
  5 51  1  0
  5 52  1  0
  4 53  2  0
 53 54  1  0
  1 55  1  0
  1 56  1  0
  1 57  1  0
 54  2  1  0
 44  6  1  0
 29  8  1  0
 43 37  1  0
 21 12  1  0
 21 16  1  0
M  END
>  <cnnaffinities>  (69) 
[6.7409]

>  <score>  (69) 
6.7409

>  <index>  (69) 
68

>  <Smiles>  (69) 
C(c1nc(C(N2C([C@@]3(C(=O)N(c4c(nc(c5c(c(c(c(c45)[H])[H])[H])[H])[H])[H])C([C@@]3(C([H])([H])[H])[H])([H])[H])c3c(c(F)c(c(c3C2=O)[H])[H])[H])([H])[H])([H])[H])no1)([H])([H])[H]

>  <h>  (69) 
<NA>

>  <Training>  (69) 
True

>  <Success>  (69) 
True

>  <enamine_searched>  (69) 
False

>  <enamine_id>  (69) 
nan

$$$$

     RDKit          3D

 64 68  0  0  0  0  0  0  0  0999 V2000
    3.4002    3.9432   26.8031 C   0  0  0  0  0  0  0  0  0  0  0  0
    3.7222    2.4534   26.6837 C   0  0  0  0  0  0  0  0  0  0  0  0
    4.5648    2.1140   25.4622 C   0  0  0  0  0  0  0  0  0  0  0  0
    4.0410    2.0778   24.3619 O   0  0  0  0  0  0  0  0  0  0  0  0
    5.9105    1.8349   25.6648 N   0  0  0  0  0  0  0  0  0  0  0  0
    6.6762    2.4160   26.7685 C   0  0  0  0  0  0  0  0  0  0  0  0
    7.9780    2.9786   26.2157 C   0  0  0  0  0  0  0  0  0  0  0  0
    8.8241    1.8844   25.5735 C   0  0  0  0  0  0  0  0  0  0  0  0
    8.0014    0.9218   24.7707 C   0  0  0  0  0  0  0  0  0  0  0  0
    8.6710   -0.0544   24.0377 C   0  0  0  0  0  0  0  0  0  0  0  0
    7.9777   -0.9708   23.2694 C   0  0  0  0  0  0  0  0  0  0  0  0
    6.5884   -0.8858   23.2458 C   0  0  0  0  0  0  0  0  0  0  0  0
    5.8516   -1.7474   22.3971 N   0  0  0  0  0  0  0  0  0  0  0  0
    5.1375   -2.8140   23.0813 C   0  0  0  0  0  0  0  0  0  0  0  0
    6.0816   -3.8800   23.6023 C   0  0  0  0  0  0  0  0  0  0  0  0
    6.7427   -3.7482   24.8240 C   0  0  0  0  0  0  0  0  0  0  0  0
    7.6149   -4.7413   25.2598 C   0  0  0  0  0  0  0  0  0  0  0  0
    7.8146   -5.8926   24.5033 C   0  0  0  0  0  0  0  0  0  0  0  0
    7.1365   -6.0217   23.3003 C   0  0  0  0  0  0  0  0  0  0  0  0
    7.2121   -7.5179   22.4116 Cl  0  0  0  0  0  0  0  0  0  0  0  0
    6.3250   -5.0025   22.8158 C   0  0  0  0  0  0  0  0  0  0  0  0
    5.8683   -5.0836   21.8359 H   0  0  0  0  0  0  0  0  0  0  0  0
    8.4758   -6.6829   24.8517 H   0  0  0  0  0  0  0  0  0  0  0  0
    8.1264   -4.6403   26.2122 H   0  0  0  0  0  0  0  0  0  0  0  0
    6.5923   -2.8550   25.4293 H   0  0  0  0  0  0  0  0  0  0  0  0
    4.5896   -2.3515   23.9140 H   0  0  0  0  0  0  0  0  0  0  0  0
    4.4263   -3.2393   22.3701 H   0  0  0  0  0  0  0  0  0  0  0  0
    5.9557   -1.7426   21.0226 C   0  0  0  0  0  0  0  0  0  0  0  0
    5.3871   -2.5746   20.3350 O   0  0  0  0  0  0  0  0  0  0  0  0
    6.8014   -0.6314   20.3754 C   0  0  0  0  0  0  0  0  0  0  0  0
    6.0306    0.1094   19.3227 C   0  0  0  0  0  0  0  0  0  0  0  0
    6.2787   -0.1072   17.9961 C   0  0  0  0  0  0  0  0  0  0  0  0
    5.5879    0.4394   16.9657 N   0  0  0  0  0  0  0  0  0  0  0  0
    4.5925    1.2407   17.2750 C   0  0  0  0  0  0  0  0  0  0  0  0
    4.2268    1.5515   18.6136 C   0  0  0  0  0  0  0  0  0  0  0  0
    3.1252    2.3715   18.9372 C   0  0  0  0  0  0  0  0  0  0  0  0
    2.3807    2.8379   17.9208 F   0  0  0  0  0  0  0  0  0  0  0  0
    2.7896    2.6971   20.2204 C   0  0  0  0  0  0  0  0  0  0  0  0
    3.5886    2.1991   21.2683 C   0  0  0  0  0  0  0  0  0  0  0  0
    4.6620    1.3875   21.0069 C   0  0  0  0  0  0  0  0  0  0  0  0
    4.9861    1.0106   19.6750 C   0  0  0  0  0  0  0  0  0  0  0  0
    5.2712    1.0374   21.8351 H   0  0  0  0  0  0  0  0  0  0  0  0
    3.3591    2.4522   22.2977 H   0  0  0  0  0  0  0  0  0  0  0  0
    1.9279    3.3277   20.4063 H   0  0  0  0  0  0  0  0  0  0  0  0
    4.0286    1.6821   16.4584 H   0  0  0  0  0  0  0  0  0  0  0  0
    7.0959   -0.7681   17.7033 H   0  0  0  0  0  0  0  0  0  0  0  0
    7.6610   -1.1293   19.9083 H   0  0  0  0  0  0  0  0  0  0  0  0
    7.1982    0.0698   21.1136 H   0  0  0  0  0  0  0  0  0  0  0  0
    5.8964   -0.0013   24.0566 C   0  0  0  0  0  0  0  0  0  0  0  0
    6.6004    0.9382   24.8120 C   0  0  0  0  0  0  0  0  0  0  0  0
    4.8140    0.0231   24.0204 H   0  0  0  0  0  0  0  0  0  0  0  0
    8.5128   -1.6990   22.6640 H   0  0  0  0  0  0  0  0  0  0  0  0
    9.7569   -0.0871   24.0745 H   0  0  0  0  0  0  0  0  0  0  0  0
    9.3484    1.2768   26.3210 H   0  0  0  0  0  0  0  0  0  0  0  0
    9.6301    2.3159   24.9600 H   0  0  0  0  0  0  0  0  0  0  0  0
    8.5532    3.4744   27.0022 H   0  0  0  0  0  0  0  0  0  0  0  0
    7.7007    3.7118   25.4521 H   0  0  0  0  0  0  0  0  0  0  0  0
    6.0804    3.2153   27.2165 H   0  0  0  0  0  0  0  0  0  0  0  0
    6.8568    1.6504   27.5319 H   0  0  0  0  0  0  0  0  0  0  0  0
    4.1851    2.0670   27.5960 H   0  0  0  0  0  0  0  0  0  0  0  0
    2.7876    1.9035   26.5411 H   0  0  0  0  0  0  0  0  0  0  0  0
    2.9565    4.3155   25.8776 H   0  0  0  0  0  0  0  0  0  0  0  0
    4.2821    4.5522   27.0197 H   0  0  0  0  0  0  0  0  0  0  0  0
    2.6797    4.1065   27.6079 H   0  0  0  0  0  0  0  0  0  0  0  0
  1  2  1  0
  2  3  1  0
  3  4  2  0
  3  5  1  0
  5  6  1  0
  6  7  1  0
  7  8  1  0
  8  9  1  0
  9 10  2  0
 10 11  1  0
 11 12  2  0
 12 13  1  0
 13 14  1  0
 14 15  1  0
 15 16  2  0
 16 17  1  0
 17 18  2  0
 18 19  1  0
 19 20  1  0
 19 21  2  0
 21 22  1  0
 18 23  1  0
 17 24  1  0
 16 25  1  0
 14 26  1  0
 14 27  1  0
 13 28  1  0
 28 29  2  0
 28 30  1  0
 30 31  1  0
 31 32  2  0
 32 33  1  0
 33 34  2  0
 34 35  1  0
 35 36  2  0
 36 37  1  0
 36 38  1  0
 38 39  2  0
 39 40  1  0
 40 41  2  0
 40 42  1  0
 39 43  1  0
 38 44  1  0
 34 45  1  0
 32 46  1  0
 30 47  1  0
 30 48  1  0
 12 49  1  0
 49 50  2  0
 49 51  1  0
 11 52  1  0
 10 53  1  0
  8 54  1  0
  8 55  1  0
  7 56  1  0
  7 57  1  0
  6 58  1  0
  6 59  1  0
  2 60  1  0
  2 61  1  0
  1 62  1  0
  1 63  1  0
  1 64  1  0
 50  5  1  0
 50  9  1  0
 21 15  1  0
 41 31  1  0
 41 35  1  0
M  END
>  <cnnaffinities>  (70) 
[6.28482, 6.47934]

>  <score>  (70) 
6.28482

>  <index>  (70) 
69

>  <Smiles>  (70) 
C(C(C(=O)N1C(C(C(c2c(c(c(N(C(c3c(c(c(c(Cl)c3[H])[H])[H])[H])([H])[H])C(=O)C(c3c(nc(c4c(F)c(c(c(c34)[H])[H])[H])[H])[H])([H])[H])c(c12)[H])[H])[H])([H])[H])([H])[H])([H])[H])([H])[H])([H])([H])[H]

>  <h>  (70) 
<NA>

>  <Training>  (70) 
True

>  <Success>  (70) 
True

>  <enamine_searched>  (70) 
False

>  <enamine_id>  (70) 
nan

$$$$

     RDKit          3D

 57 62  0  0  0  0  0  0  0  0999 V2000
    6.7939   -2.3757   23.5709 C   0  0  0  0  0  0  0  0  0  0  0  0
    7.7762   -1.8500   22.5099 C   0  0  1  0  0  0  0  0  0  0  0  0
    7.0954   -1.7921   21.1215 C   0  0  0  0  0  0  0  0  0  0  0  0
    6.8798   -0.3858   20.8715 N   0  0  0  0  0  0  0  0  0  0  0  0
    6.1283    0.1063   19.7758 C   0  0  0  0  0  0  0  0  0  0  0  0
    6.4437   -0.2298   18.4831 C   0  0  0  0  0  0  0  0  0  0  0  0
    5.7717    0.2157   17.3917 N   0  0  0  0  0  0  0  0  0  0  0  0
    4.7530    1.0179   17.5940 C   0  0  0  0  0  0  0  0  0  0  0  0
    4.2959    1.4230   18.8790 C   0  0  0  0  0  0  0  0  0  0  0  0
    3.1668    2.2701   19.0566 C   0  0  0  0  0  0  0  0  0  0  0  0
    2.7372    2.6095   20.3105 C   0  0  0  0  0  0  0  0  0  0  0  0
    3.4158    2.1151   21.4482 C   0  0  0  0  0  0  0  0  0  0  0  0
    4.5108    1.3034   21.3021 C   0  0  0  0  0  0  0  0  0  0  0  0
    4.9955    0.9481   20.0130 C   0  0  0  0  0  0  0  0  0  0  0  0
    5.0170    0.9177   22.1807 H   0  0  0  0  0  0  0  0  0  0  0  0
    3.0784    2.3907   22.4446 H   0  0  0  0  0  0  0  0  0  0  0  0
    1.8763    3.2596   20.4401 H   0  0  0  0  0  0  0  0  0  0  0  0
    2.6603    2.6396   18.1692 H   0  0  0  0  0  0  0  0  0  0  0  0
    4.2283    1.3828   16.7110 H   0  0  0  0  0  0  0  0  0  0  0  0
    7.2920   -0.8767   18.2625 H   0  0  0  0  0  0  0  0  0  0  0  0
    7.6620    0.4399   21.6492 C   0  0  0  0  0  0  0  0  0  0  0  0
    7.7895    1.6282   21.4661 O   0  0  0  0  0  0  0  0  0  0  0  0
    8.3592   -0.4141   22.7440 C   0  0  1  0  0  0  0  0  0  0  0  0
    8.0642    0.1334   24.1608 C   0  0  0  0  0  0  0  0  0  0  0  0
    8.6892    1.4232   24.4002 N   0  0  0  0  0  0  0  0  0  0  0  0
    7.9175    2.5218   24.9746 C   0  0  0  0  0  0  0  0  0  0  0  0
    7.4896    3.5552   23.9679 C   0  0  0  0  0  0  0  0  0  0  0  0
    8.2717    4.5777   23.5544 N   0  0  0  0  0  0  0  0  0  0  0  0
    7.6077    5.2006   22.6226 N   0  0  0  0  0  0  0  0  0  0  0  0
    6.4610    4.5727   22.5058 N   0  0  0  0  0  0  0  0  0  0  0  0
    5.4820    4.9264   21.4983 C   0  0  0  0  0  0  0  0  0  0  0  0
    5.5390    4.2195   20.6594 H   0  0  0  0  0  0  0  0  0  0  0  0
    5.7036    5.9474   21.1740 H   0  0  0  0  0  0  0  0  0  0  0  0
    4.4986    4.8766   21.9704 H   0  0  0  0  0  0  0  0  0  0  0  0
    6.3164    3.5582   23.3430 N   0  0  0  0  0  0  0  0  0  0  0  0
    7.0261    2.0977   25.4487 H   0  0  0  0  0  0  0  0  0  0  0  0
    8.5370    3.0029   25.7337 H   0  0  0  0  0  0  0  0  0  0  0  0
   10.0168    1.6274   24.1370 C   0  0  0  0  0  0  0  0  0  0  0  0
   10.6490    2.5590   24.6169 O   0  0  0  0  0  0  0  0  0  0  0  0
   10.6370    0.6420   23.1910 C   0  0  0  0  0  0  0  0  0  0  0  0
   12.0038    0.7582   22.9382 C   0  0  0  0  0  0  0  0  0  0  0  0
   12.6213   -0.0741   22.0264 C   0  0  0  0  0  0  0  0  0  0  0  0
   11.8369   -1.0081   21.3603 C   0  0  0  0  0  0  0  0  0  0  0  0
   12.3920   -1.7535   20.3891 F   0  0  0  0  0  0  0  0  0  0  0  0
   10.4834   -1.1338   21.5768 C   0  0  0  0  0  0  0  0  0  0  0  0
    9.8657   -0.3276   22.5366 C   0  0  0  0  0  0  0  0  0  0  0  0
    9.9392   -1.8133   20.9296 H   0  0  0  0  0  0  0  0  0  0  0  0
   13.6708    0.0138   21.7748 H   0  0  0  0  0  0  0  0  0  0  0  0
   12.5520    1.5324   23.4631 H   0  0  0  0  0  0  0  0  0  0  0  0
    6.9885    0.2731   24.2736 H   0  0  0  0  0  0  0  0  0  0  0  0
    8.4122   -0.6100   24.8963 H   0  0  0  0  0  0  0  0  0  0  0  0
    6.1372   -2.3252   21.1047 H   0  0  0  0  0  0  0  0  0  0  0  0
    7.7443   -2.2184   20.3525 H   0  0  0  0  0  0  0  0  0  0  0  0
    8.6099   -2.5610   22.4843 H   0  0  0  0  0  0  0  0  0  0  0  0
    6.4471   -3.3789   23.2939 H   0  0  0  0  0  0  0  0  0  0  0  0
    7.2620   -2.4565   24.5569 H   0  0  0  0  0  0  0  0  0  0  0  0
    5.9111   -1.7322   23.6625 H   0  0  0  0  0  0  0  0  0  0  0  0
  1  2  1  0
  2  3  1  0
  3  4  1  0
  4  5  1  0
  5  6  2  0
  6  7  1  0
  7  8  2  0
  8  9  1  0
  9 10  2  0
 10 11  1  0
 11 12  2  0
 12 13  1  0
 13 14  2  0
 13 15  1  0
 12 16  1  0
 11 17  1  0
 10 18  1  0
  8 19  1  0
  6 20  1  0
  4 21  1  0
 21 22  2  0
 21 23  1  0
 23 24  1  1
 24 25  1  0
 25 26  1  0
 26 27  1  0
 27 28  1  0
 28 29  2  0
 29 30  1  0
 30 31  1  0
 31 32  1  0
 31 33  1  0
 31 34  1  0
 30 35  1  0
 26 36  1  0
 26 37  1  0
 25 38  1  0
 38 39  2  0
 38 40  1  0
 40 41  2  0
 41 42  1  0
 42 43  2  0
 43 44  1  0
 43 45  1  0
 45 46  2  0
 45 47  1  0
 42 48  1  0
 41 49  1  0
 24 50  1  0
 24 51  1  0
  3 52  1  0
  3 53  1  0
  2 54  1  6
  1 55  1  0
  1 56  1  0
  1 57  1  0
 23  2  1  0
 35 27  2  0
 46 40  1  0
 14  5  1  0
 46 23  1  0
 14  9  1  0
M  END
>  <cnnaffinities>  (71) 
[6.7194, 6.68717]

>  <score>  (71) 
6.7194

>  <index>  (71) 
70

>  <Smiles>  (71) 
C([C@]1(C(N(c2c(nc(c3c(c(c(c(c23)[H])[H])[H])[H])[H])[H])C(=O)[C@]21C(N(C(c1nnn(C([H])([H])[H])n1)([H])[H])C(=O)c1c(c(c(F)c(c21)[H])[H])[H])([H])[H])([H])[H])[H])([H])([H])[H]

>  <h>  (71) 
<NA>

>  <Training>  (71) 
True

>  <Success>  (71) 
True

>  <enamine_searched>  (71) 
False

>  <enamine_id>  (71) 
nan

$$$$

     RDKit          3D

 59 64  0  0  0  0  0  0  0  0999 V2000
    7.3116   -2.4309   23.8986 C   0  0  0  0  0  0  0  0  0  0  0  0
    7.5963   -1.7198   22.5848 C   0  0  1  0  0  0  0  0  0  0  0  0
    6.4053   -1.5690   21.6258 C   0  0  0  0  0  0  0  0  0  0  0  0
    6.8300   -0.4507   20.8031 N   0  0  0  0  0  0  0  0  0  0  0  0
    6.0842    0.0731   19.7273 C   0  0  0  0  0  0  0  0  0  0  0  0
    6.4400   -0.2185   18.4393 C   0  0  0  0  0  0  0  0  0  0  0  0
    5.7635    0.2196   17.3495 N   0  0  0  0  0  0  0  0  0  0  0  0
    4.7309    1.0019   17.5657 C   0  0  0  0  0  0  0  0  0  0  0  0
    4.2870    1.4128   18.8576 C   0  0  0  0  0  0  0  0  0  0  0  0
    3.1813    2.2851   19.0400 C   0  0  0  0  0  0  0  0  0  0  0  0
    2.7902    2.6584   20.2961 C   0  0  0  0  0  0  0  0  0  0  0  0
    3.4943    2.1953   21.4327 C   0  0  0  0  0  0  0  0  0  0  0  0
    4.5761    1.3656   21.2849 C   0  0  0  0  0  0  0  0  0  0  0  0
    4.9890    0.9456   19.9852 C   0  0  0  0  0  0  0  0  0  0  0  0
    5.1368    1.0515   22.1650 H   0  0  0  0  0  0  0  0  0  0  0  0
    3.1996    2.5135   22.4281 H   0  0  0  0  0  0  0  0  0  0  0  0
    1.9461    3.3291   20.4258 H   0  0  0  0  0  0  0  0  0  0  0  0
    2.6772    2.6604   18.1536 H   0  0  0  0  0  0  0  0  0  0  0  0
    4.1943    1.3588   16.6885 H   0  0  0  0  0  0  0  0  0  0  0  0
    7.3161   -0.8383   18.2556 H   0  0  0  0  0  0  0  0  0  0  0  0
    7.7527    0.3665   21.4085 C   0  0  0  0  0  0  0  0  0  0  0  0
    8.1242    1.4230   20.9332 O   0  0  0  0  0  0  0  0  0  0  0  0
    8.2385   -0.3110   22.6975 C   0  0  1  0  0  0  0  0  0  0  0  0
    7.7614    0.4576   23.9494 C   0  0  0  0  0  0  0  0  0  0  0  0
    8.4312    1.7433   24.0678 N   0  0  0  0  0  0  0  0  0  0  0  0
    7.6177    2.9489   23.8435 C   0  0  0  0  0  0  0  0  0  0  0  0
    6.4866    3.0199   24.8284 C   0  0  0  0  0  0  0  0  0  0  0  0
    5.2346    2.6699   24.6088 N   0  0  0  0  0  0  0  0  0  0  0  0
    4.6247    2.7326   25.8368 C   0  0  0  0  0  0  0  0  0  0  0  0
    5.5131    3.1301   26.7973 C   0  0  0  0  0  0  0  0  0  0  0  0
    6.7048    3.3299   26.1349 N   0  0  0  0  0  0  0  0  0  0  0  0
    8.0172    3.5948   26.6861 C   0  0  0  0  0  0  0  0  0  0  0  0
    7.9442    3.7451   27.7641 H   0  0  0  0  0  0  0  0  0  0  0  0
    8.6423    2.7288   26.4797 H   0  0  0  0  0  0  0  0  0  0  0  0
    8.4832    4.4717   26.2203 H   0  0  0  0  0  0  0  0  0  0  0  0
    5.4077    3.3011   27.8593 H   0  0  0  0  0  0  0  0  0  0  0  0
    3.5864    2.4637   25.9655 H   0  0  0  0  0  0  0  0  0  0  0  0
    7.2041    2.9308   22.8256 H   0  0  0  0  0  0  0  0  0  0  0  0
    8.2775    3.8182   23.9374 H   0  0  0  0  0  0  0  0  0  0  0  0
    9.8068    1.8047   24.0277 C   0  0  0  0  0  0  0  0  0  0  0  0
   10.4434    2.7463   24.4842 O   0  0  0  0  0  0  0  0  0  0  0  0
   10.4943    0.6559   23.3241 C   0  0  0  0  0  0  0  0  0  0  0  0
   11.8898    0.6254   23.2389 C   0  0  0  0  0  0  0  0  0  0  0  0
   12.5283   -0.2473   22.3721 C   0  0  0  0  0  0  0  0  0  0  0  0
   11.7479   -1.0966   21.5847 C   0  0  0  0  0  0  0  0  0  0  0  0
   12.3027   -1.8955   20.6573 F   0  0  0  0  0  0  0  0  0  0  0  0
   10.3807   -1.1253   21.6951 C   0  0  0  0  0  0  0  0  0  0  0  0
    9.7451   -0.2996   22.6283 C   0  0  0  0  0  0  0  0  0  0  0  0
    9.8308   -1.7680   21.0112 H   0  0  0  0  0  0  0  0  0  0  0  0
   13.6063   -0.2565   22.2659 H   0  0  0  0  0  0  0  0  0  0  0  0
   12.4829    1.3068   23.8398 H   0  0  0  0  0  0  0  0  0  0  0  0
    7.9767   -0.1326   24.8533 H   0  0  0  0  0  0  0  0  0  0  0  0
    6.6792    0.6253   23.8985 H   0  0  0  0  0  0  0  0  0  0  0  0
    5.4578   -1.3575   22.1485 H   0  0  0  0  0  0  0  0  0  0  0  0
    6.2558   -2.4639   21.0111 H   0  0  0  0  0  0  0  0  0  0  0  0
    8.3218   -2.3306   22.0481 H   0  0  0  0  0  0  0  0  0  0  0  0
    6.9592   -3.4501   23.7167 H   0  0  0  0  0  0  0  0  0  0  0  0
    8.2316   -2.4845   24.4922 H   0  0  0  0  0  0  0  0  0  0  0  0
    6.5551   -1.9116   24.4961 H   0  0  0  0  0  0  0  0  0  0  0  0
  1  2  1  0
  2  3  1  0
  3  4  1  0
  4  5  1  0
  5  6  2  0
  6  7  1  0
  7  8  2  0
  8  9  1  0
  9 10  2  0
 10 11  1  0
 11 12  2  0
 12 13  1  0
 13 14  2  0
 13 15  1  0
 12 16  1  0
 11 17  1  0
 10 18  1  0
  8 19  1  0
  6 20  1  0
  4 21  1  0
 21 22  2  0
 21 23  1  0
 23 24  1  1
 24 25  1  0
 25 26  1  0
 26 27  1  0
 27 28  2  0
 28 29  1  0
 29 30  2  0
 30 31  1  0
 31 32  1  0
 32 33  1  0
 32 34  1  0
 32 35  1  0
 30 36  1  0
 29 37  1  0
 26 38  1  0
 26 39  1  0
 25 40  1  0
 40 41  2  0
 40 42  1  0
 42 43  2  0
 43 44  1  0
 44 45  2  0
 45 46  1  0
 45 47  1  0
 47 48  2  0
 47 49  1  0
 44 50  1  0
 43 51  1  0
 24 52  1  0
 24 53  1  0
  3 54  1  0
  3 55  1  0
  2 56  1  6
  1 57  1  0
  1 58  1  0
  1 59  1  0
 23  2  1  0
 31 27  1  0
 48 42  1  0
 14  5  1  0
 48 23  1  0
 14  9  1  0
M  END
>  <cnnaffinities>  (72) 
[6.23499]

>  <score>  (72) 
6.23499

>  <index>  (72) 
71

>  <Smiles>  (72) 
C([C@]1(C(N(c2c(nc(c3c(c(c(c(c23)[H])[H])[H])[H])[H])[H])C(=O)[C@]21C(N(C(c1nc(c(n1C([H])([H])[H])[H])[H])([H])[H])C(=O)c1c(c(c(F)c(c21)[H])[H])[H])([H])[H])([H])[H])[H])([H])([H])[H]

>  <h>  (72) 
<NA>

>  <Training>  (72) 
True

>  <Success>  (72) 
True

>  <enamine_searched>  (72) 
False

>  <enamine_id>  (72) 
nan

$$$$

     RDKit          3D

 60 64  0  0  0  0  0  0  0  0999 V2000
    7.8451   -8.4321   22.9782 C   0  0  0  0  0  0  0  0  0  0  0  0
    6.8494   -7.4048   22.7541 N   0  0  0  0  0  0  0  0  0  0  0  0
    7.0077   -6.5563   21.7015 C   0  0  0  0  0  0  0  0  0  0  0  0
    7.8186   -6.7344   20.8089 O   0  0  0  0  0  0  0  0  0  0  0  0
    6.1314   -5.3109   21.7382 C   0  0  0  0  0  0  0  0  0  0  0  0
    6.6534   -4.3358   22.6797 N   0  0  0  0  0  0  0  0  0  0  0  0
    7.7522   -3.4466   22.3124 C   0  0  0  0  0  0  0  0  0  0  0  0
    7.3937   -1.9787   22.6415 C   0  0  2  0  0  0  0  0  0  0  0  0
    6.3222   -1.4653   21.6570 C   0  0  0  0  0  0  0  0  0  0  0  0
    5.1882   -1.8764   21.5270 O   0  0  0  0  0  0  0  0  0  0  0  0
    6.8704   -0.4527   20.8924 N   0  0  0  0  0  0  0  0  0  0  0  0
    6.1474    0.0897   19.8083 C   0  0  0  0  0  0  0  0  0  0  0  0
    6.4965   -0.2215   18.5178 C   0  0  0  0  0  0  0  0  0  0  0  0
    5.8344    0.2078   17.4161 N   0  0  0  0  0  0  0  0  0  0  0  0
    4.8027    0.9946   17.6126 C   0  0  0  0  0  0  0  0  0  0  0  0
    4.3428    1.4000   18.8968 C   0  0  0  0  0  0  0  0  0  0  0  0
    3.2208    2.2540   19.0401 C   0  0  0  0  0  0  0  0  0  0  0  0
    2.8023    2.6448   20.2819 C   0  0  0  0  0  0  0  0  0  0  0  0
    3.4858    2.2048   21.4366 C   0  0  0  0  0  0  0  0  0  0  0  0
    4.5752    1.3775   21.3252 C   0  0  0  0  0  0  0  0  0  0  0  0
    5.0275    0.9475   20.0432 C   0  0  0  0  0  0  0  0  0  0  0  0
    5.0914    1.0438   22.2199 H   0  0  0  0  0  0  0  0  0  0  0  0
    3.1485    2.5323   22.4163 H   0  0  0  0  0  0  0  0  0  0  0  0
    1.9482    3.3071   20.3888 H   0  0  0  0  0  0  0  0  0  0  0  0
    2.7174    2.5975   18.1414 H   0  0  0  0  0  0  0  0  0  0  0  0
    4.2638    1.3469   16.7334 H   0  0  0  0  0  0  0  0  0  0  0  0
    7.3412   -0.8859   18.3336 H   0  0  0  0  0  0  0  0  0  0  0  0
    8.3162   -0.4171   20.9788 C   0  0  0  0  0  0  0  0  0  0  0  0
    8.5823   -1.0121   22.3618 C   0  0  2  0  0  0  0  0  0  0  0  0
    9.9058   -1.5652   22.4479 N   0  0  0  0  0  0  0  0  0  0  0  0
   10.5551   -1.7396   23.6376 C   0  0  0  0  0  0  0  0  0  0  0  0
   10.0892   -1.3298   24.6864 O   0  0  0  0  0  0  0  0  0  0  0  0
   11.8630   -2.4837   23.5291 C   0  0  0  0  0  0  0  0  0  0  0  0
   11.6948   -3.4820   23.1196 H   0  0  0  0  0  0  0  0  0  0  0  0
   12.3047   -2.5807   24.5167 H   0  0  0  0  0  0  0  0  0  0  0  0
   12.5628   -1.9626   22.8718 H   0  0  0  0  0  0  0  0  0  0  0  0
   10.3517   -1.8422   21.5888 H   0  0  0  0  0  0  0  0  0  0  0  0
    8.5352   -0.2134   23.0963 H   0  0  0  0  0  0  0  0  0  0  0  0
    8.6844    0.6085   20.8999 H   0  0  0  0  0  0  0  0  0  0  0  0
    8.8014   -1.0256   20.1974 H   0  0  0  0  0  0  0  0  0  0  0  0
    6.8758   -1.9484   24.0696 C   0  0  0  0  0  0  0  0  0  0  0  0
    6.8230   -0.7425   24.7756 C   0  0  0  0  0  0  0  0  0  0  0  0
    6.3587   -0.7130   26.0770 C   0  0  0  0  0  0  0  0  0  0  0  0
    6.3126    0.8085   26.9194 Cl  0  0  0  0  0  0  0  0  0  0  0  0
    5.9349   -1.8660   26.7367 C   0  0  0  0  0  0  0  0  0  0  0  0
    5.9367   -3.0533   26.0325 C   0  0  0  0  0  0  0  0  0  0  0  0
    6.3692   -3.0915   24.7084 C   0  0  0  0  0  0  0  0  0  0  0  0
    6.1865   -4.3618   23.9539 C   0  0  0  0  0  0  0  0  0  0  0  0
    5.5963   -5.3436   24.4165 O   0  0  0  0  0  0  0  0  0  0  0  0
    5.5881   -3.9754   26.4837 H   0  0  0  0  0  0  0  0  0  0  0  0
    5.6013   -1.8211   27.7687 H   0  0  0  0  0  0  0  0  0  0  0  0
    7.1593    0.1848   24.3304 H   0  0  0  0  0  0  0  0  0  0  0  0
    7.9319   -3.5671   21.2502 H   0  0  0  0  0  0  0  0  0  0  0  0
    8.6844   -3.7123   22.8299 H   0  0  0  0  0  0  0  0  0  0  0  0
    6.0974   -4.8382   20.7524 H   0  0  0  0  0  0  0  0  0  0  0  0
    5.1188   -5.5918   22.0457 H   0  0  0  0  0  0  0  0  0  0  0  0
    6.3175   -7.0599   23.5418 H   0  0  0  0  0  0  0  0  0  0  0  0
    8.7632   -8.0260   23.4245 H   0  0  0  0  0  0  0  0  0  0  0  0
    8.0912   -8.8742   22.0164 H   0  0  0  0  0  0  0  0  0  0  0  0
    7.4390   -9.2096   23.6278 H   0  0  0  0  0  0  0  0  0  0  0  0
  1  2  1  0
  2  3  1  0
  3  4  2  0
  3  5  1  0
  5  6  1  0
  6  7  1  0
  8  7  1  6
  8  9  1  0
  9 10  2  0
  9 11  1  0
 11 12  1  0
 12 13  2  0
 13 14  1  0
 14 15  2  0
 15 16  1  0
 16 17  2  0
 17 18  1  0
 18 19  2  0
 19 20  1  0
 20 21  2  0
 20 22  1  0
 19 23  1  0
 18 24  1  0
 17 25  1  0
 15 26  1  0
 13 27  1  0
 11 28  1  0
 28 29  1  0
 29 30  1  0
 30 31  1  0
 31 32  2  0
 31 33  1  0
 33 34  1  0
 33 35  1  0
 33 36  1  0
 30 37  1  0
 29 38  1  1
 28 39  1  0
 28 40  1  0
  8 41  1  0
 41 42  2  0
 42 43  1  0
 43 44  1  0
 43 45  2  0
 45 46  1  0
 46 47  2  0
 47 48  1  0
 48 49  2  0
 46 50  1  0
 45 51  1  0
 42 52  1  0
  7 53  1  0
  7 54  1  0
  5 55  1  0
  5 56  1  0
  2 57  1  0
  1 58  1  0
  1 59  1  0
  1 60  1  0
 48  6  1  0
 29  8  1  0
 47 41  1  0
 21 12  1  0
 21 16  1  0
M  END
>  <cnnaffinities>  (73) 
[6.98746]

>  <score>  (73) 
6.98746

>  <index>  (73) 
72

>  <Smiles>  (73) 
C(N(C(=O)C(N1C([C@@]2(C(=O)N(c3c(nc(c4c(c(c(c(c34)[H])[H])[H])[H])[H])[H])C([C@@]2(N(C(=O)C([H])([H])[H])[H])[H])([H])[H])c2c(c(Cl)c(c(c2C1=O)[H])[H])[H])([H])[H])([H])[H])[H])([H])([H])[H]

>  <h>  (73) 
<NA>

>  <Training>  (73) 
True

>  <Success>  (73) 
True

>  <enamine_searched>  (73) 
False

>  <enamine_id>  (73) 
nan

$$$$

     RDKit          3D

 56 61  0  0  0  0  0  0  0  0999 V2000
    9.7689   -1.9273   21.8579 C   0  0  0  0  0  0  0  0  0  0  0  0
    8.6718   -0.9520   22.3228 C   0  0  1  0  0  0  0  0  0  0  0  0
    8.2192   -0.0592   21.1429 C   0  0  0  0  0  0  0  0  0  0  0  0
    6.8673   -0.4829   20.8413 N   0  0  0  0  0  0  0  0  0  0  0  0
    6.1051    0.0595   19.7730 C   0  0  0  0  0  0  0  0  0  0  0  0
    6.4445   -0.2245   18.4752 C   0  0  0  0  0  0  0  0  0  0  0  0
    5.7798    0.2339   17.3847 N   0  0  0  0  0  0  0  0  0  0  0  0
    4.7528    1.0220   17.5969 C   0  0  0  0  0  0  0  0  0  0  0  0
    4.2980    1.4140   18.8879 C   0  0  0  0  0  0  0  0  0  0  0  0
    3.1830    2.2789   19.0571 C   0  0  0  0  0  0  0  0  0  0  0  0
    2.7837    2.6571   20.3075 C   0  0  0  0  0  0  0  0  0  0  0  0
    3.4882    2.1992   21.4457 C   0  0  0  0  0  0  0  0  0  0  0  0
    4.5696    1.3664   21.3126 C   0  0  0  0  0  0  0  0  0  0  0  0
    4.9942    0.9325   20.0222 C   0  0  0  0  0  0  0  0  0  0  0  0
    5.1053    1.0298   22.2011 H   0  0  0  0  0  0  0  0  0  0  0  0
    3.1639    2.5104   22.4335 H   0  0  0  0  0  0  0  0  0  0  0  0
    1.9314    3.3180   20.4360 H   0  0  0  0  0  0  0  0  0  0  0  0
    2.6682    2.6362   18.1673 H   0  0  0  0  0  0  0  0  0  0  0  0
    4.2209    1.3859   16.7167 H   0  0  0  0  0  0  0  0  0  0  0  0
    7.2929   -0.8746   18.2675 H   0  0  0  0  0  0  0  0  0  0  0  0
    6.3314   -1.3708   21.7456 C   0  0  0  0  0  0  0  0  0  0  0  0
    5.2198   -1.8544   21.6565 O   0  0  0  0  0  0  0  0  0  0  0  0
    7.3586   -1.6067   22.8773 C   0  0  1  0  0  0  0  0  0  0  0  0
    7.5049   -3.1185   23.1584 C   0  0  0  0  0  0  0  0  0  0  0  0
    6.3090   -3.6740   23.7571 N   0  0  0  0  0  0  0  0  0  0  0  0
    5.6944   -4.8449   23.1599 C   0  0  0  0  0  0  0  0  0  0  0  0
    5.5734   -6.1254   24.0407 C   0  0  0  0  0  0  0  0  0  0  0  0
    4.0482   -6.0676   23.9822 N   0  0  0  0  0  4  0  0  0  0  0  0
    4.1410   -4.8605   23.0560 C   0  0  0  0  0  0  0  0  0  0  0  0
    3.6572   -3.9950   23.4904 H   0  0  0  0  0  0  0  0  0  0  0  0
    3.7108   -5.0610   22.0784 H   0  0  0  0  0  0  0  0  0  0  0  0
    3.6607   -5.7897   24.9071 H   0  0  0  0  0  0  0  0  0  0  0  0
    3.5696   -6.9034   23.5983 H   0  0  0  0  0  0  0  0  0  0  0  0
    5.9379   -6.0214   25.0581 H   0  0  0  0  0  0  0  0  0  0  0  0
    5.9520   -7.0489   23.6112 H   0  0  0  0  0  0  0  0  0  0  0  0
    6.2108   -4.9688   22.2010 H   0  0  0  0  0  0  0  0  0  0  0  0
    5.7733   -3.1171   24.8863 C   0  0  0  0  0  0  0  0  0  0  0  0
    5.0073   -3.7443   25.6210 O   0  0  0  0  0  0  0  0  0  0  0  0
    6.1192   -1.6693   25.1126 C   0  0  0  0  0  0  0  0  0  0  0  0
    5.6336   -1.0304   26.2565 C   0  0  0  0  0  0  0  0  0  0  0  0
    5.8201    0.3274   26.4421 C   0  0  0  0  0  0  0  0  0  0  0  0
    6.4877    1.0591   25.4623 C   0  0  0  0  0  0  0  0  0  0  0  0
    6.6847    2.7769   25.6736 Cl  0  0  0  0  0  0  0  0  0  0  0  0
    6.9887    0.4446   24.3275 C   0  0  0  0  0  0  0  0  0  0  0  0
    6.8402   -0.9396   24.1526 C   0  0  0  0  0  0  0  0  0  0  0  0
    7.4805    1.0678   23.5847 H   0  0  0  0  0  0  0  0  0  0  0  0
    5.4450    0.8331   27.3244 H   0  0  0  0  0  0  0  0  0  0  0  0
    5.0889   -1.6280   26.9807 H   0  0  0  0  0  0  0  0  0  0  0  0
    7.6959   -3.6411   22.2197 H   0  0  0  0  0  0  0  0  0  0  0  0
    8.3615   -3.2654   23.8336 H   0  0  0  0  0  0  0  0  0  0  0  0
    8.2492    1.0134   21.3858 H   0  0  0  0  0  0  0  0  0  0  0  0
    8.8662   -0.2150   20.2781 H   0  0  0  0  0  0  0  0  0  0  0  0
    9.1201   -0.3423   23.1176 H   0  0  0  0  0  0  0  0  0  0  0  0
   10.6279   -1.3677   21.4707 H   0  0  0  0  0  0  0  0  0  0  0  0
   10.1353   -2.5499   22.6789 H   0  0  0  0  0  0  0  0  0  0  0  0
    9.4158   -2.5867   21.0564 H   0  0  0  0  0  0  0  0  0  0  0  0
  1  2  1  0
  2  3  1  0
  3  4  1  0
  4  5  1  0
  5  6  2  0
  6  7  1  0
  7  8  2  0
  8  9  1  0
  9 10  2  0
 10 11  1  0
 11 12  2  0
 12 13  1  0
 13 14  2  0
 13 15  1  0
 12 16  1  0
 11 17  1  0
 10 18  1  0
  8 19  1  0
  6 20  1  0
  4 21  1  0
 21 22  2  0
 21 23  1  0
 23 24  1  1
 24 25  1  0
 25 26  1  0
 26 27  1  0
 27 28  1  0
 28 29  1  0
 29 30  1  0
 29 31  1  0
 28 32  1  0
 28 33  1  0
 27 34  1  0
 27 35  1  0
 26 36  1  0
 25 37  1  0
 37 38  2  0
 37 39  1  0
 39 40  2  0
 40 41  1  0
 41 42  2  0
 42 43  1  0
 42 44  1  0
 44 45  2  0
 44 46  1  0
 41 47  1  0
 40 48  1  0
 24 49  1  0
 24 50  1  0
  3 51  1  0
  3 52  1  0
  2 53  1  1
  1 54  1  0
  1 55  1  0
  1 56  1  0
 23  2  1  0
 29 26  1  0
 45 39  1  0
 14  5  1  0
 45 23  1  0
 14  9  1  0
M  CHG  1  28   1
M  END
>  <cnnaffinities>  (74) 
[6.15536, 6.14934, 6.1512, 6.24129, 6.24872]

>  <score>  (74) 
6.15536

>  <index>  (74) 
73

>  <Smiles>  (74) 
C([C@]1(C(N(c2c(nc(c3c(c(c(c(c23)[H])[H])[H])[H])[H])[H])C(=O)[C@]21C(N(C1(C([N+](C1([H])[H])([H])[H])([H])[H])[H])C(=O)c1c(c(c(Cl)c(c21)[H])[H])[H])([H])[H])([H])[H])[H])([H])([H])[H]

>  <h>  (74) 
<NA>

>  <Training>  (74) 
True

>  <Success>  (74) 
True

>  <enamine_searched>  (74) 
False

>  <enamine_id>  (74) 
nan

$$$$

     RDKit          3D

 55 60  0  0  0  0  0  0  0  0999 V2000
    7.3181   -2.5921   23.7812 C   0  0  0  0  0  0  0  0  0  0  0  0
    7.7422   -1.8240   22.5266 C   0  0  1  0  0  0  0  0  0  0  0  0
    6.5988   -1.6604   21.5084 C   0  0  0  0  0  0  0  0  0  0  0  0
    6.9071   -0.4186   20.8304 N   0  0  0  0  0  0  0  0  0  0  0  0
    6.1318    0.0960   19.7582 C   0  0  0  0  0  0  0  0  0  0  0  0
    6.4511   -0.2241   18.4627 C   0  0  0  0  0  0  0  0  0  0  0  0
    5.7720    0.2200   17.3750 N   0  0  0  0  0  0  0  0  0  0  0  0
    4.7512    1.0158   17.5872 C   0  0  0  0  0  0  0  0  0  0  0  0
    4.2997    1.4150   18.8786 C   0  0  0  0  0  0  0  0  0  0  0  0
    3.1802    2.2738   19.0567 C   0  0  0  0  0  0  0  0  0  0  0  0
    2.7590    2.6199   20.3097 C   0  0  0  0  0  0  0  0  0  0  0  0
    3.4344    2.1173   21.4456 C   0  0  0  0  0  0  0  0  0  0  0  0
    4.5196    1.2864   21.3001 C   0  0  0  0  0  0  0  0  0  0  0  0
    4.9943    0.9292   20.0079 C   0  0  0  0  0  0  0  0  0  0  0  0
    5.0472    0.9401   22.1863 H   0  0  0  0  0  0  0  0  0  0  0  0
    3.1193    2.4199   22.4397 H   0  0  0  0  0  0  0  0  0  0  0  0
    1.9169    3.2951   20.4405 H   0  0  0  0  0  0  0  0  0  0  0  0
    2.6781    2.6494   18.1687 H   0  0  0  0  0  0  0  0  0  0  0  0
    4.2191    1.3819   16.7100 H   0  0  0  0  0  0  0  0  0  0  0  0
    7.3004   -0.8735   18.2545 H   0  0  0  0  0  0  0  0  0  0  0  0
    7.8462    0.3607   21.4701 C   0  0  0  0  0  0  0  0  0  0  0  0
    8.2334    1.4297   21.0602 O   0  0  0  0  0  0  0  0  0  0  0  0
    8.3287   -0.3910   22.7364 C   0  0  1  0  0  0  0  0  0  0  0  0
    7.8146    0.2625   24.0331 C   0  0  0  0  0  0  0  0  0  0  0  0
    8.4722    1.5198   24.3251 N   0  0  0  0  0  0  0  0  0  0  0  0
    7.6653    2.6873   24.6103 C   0  0  0  0  0  0  0  0  0  0  0  0
    7.4683    3.5633   23.3999 C   0  0  0  0  0  0  0  0  0  0  0  0
    8.3699    4.5139   22.8489 C   0  0  0  0  0  0  0  0  0  0  0  0
    7.6444    5.1018   21.8710 C   0  0  0  0  0  0  0  0  0  0  0  0
    6.4270    4.5489   21.7959 O   0  0  0  0  0  0  0  0  0  0  0  0
    6.3268    3.5669   22.7596 N   0  0  0  0  0  0  0  0  0  0  0  0
    7.8304    5.9075   21.1727 H   0  0  0  0  0  0  0  0  0  0  0  0
    9.3856    4.6778   23.1731 H   0  0  0  0  0  0  0  0  0  0  0  0
    6.6915    2.3403   24.9710 H   0  0  0  0  0  0  0  0  0  0  0  0
    8.1719    3.2449   25.4038 H   0  0  0  0  0  0  0  0  0  0  0  0
    9.8304    1.6772   24.2561 C   0  0  0  0  0  0  0  0  0  0  0  0
   10.4050    2.6652   24.7021 O   0  0  0  0  0  0  0  0  0  0  0  0
   10.5565    0.6009   23.5216 C   0  0  0  0  0  0  0  0  0  0  0  0
   11.9539    0.6248   23.4837 C   0  0  0  0  0  0  0  0  0  0  0  0
   12.6362   -0.2137   22.6110 C   0  0  0  0  0  0  0  0  0  0  0  0
   11.8800   -1.0233   21.7572 C   0  0  0  0  0  0  0  0  0  0  0  0
   12.4006   -1.7153   20.7266 F   0  0  0  0  0  0  0  0  0  0  0  0
   10.5177   -1.1128   21.8482 C   0  0  0  0  0  0  0  0  0  0  0  0
    9.8336   -0.3308   22.7664 C   0  0  0  0  0  0  0  0  0  0  0  0
   10.0260   -1.7839   21.1551 H   0  0  0  0  0  0  0  0  0  0  0  0
   13.7190   -0.2273   22.5649 H   0  0  0  0  0  0  0  0  0  0  0  0
   12.4704    1.3468   24.1174 H   0  0  0  0  0  0  0  0  0  0  0  0
    7.9833   -0.4356   24.8644 H   0  0  0  0  0  0  0  0  0  0  0  0
    6.7416    0.4603   23.9342 H   0  0  0  0  0  0  0  0  0  0  0  0
    6.5522   -2.4870   20.7873 H   0  0  0  0  0  0  0  0  0  0  0  0
    5.6271   -1.5989   22.0232 H   0  0  0  0  0  0  0  0  0  0  0  0
    8.5301   -2.4044   22.0455 H   0  0  0  0  0  0  0  0  0  0  0  0
    8.1434   -2.6979   24.4978 H   0  0  0  0  0  0  0  0  0  0  0  0
    6.9760   -3.6006   23.5202 H   0  0  0  0  0  0  0  0  0  0  0  0
    6.4898   -2.0814   24.2879 H   0  0  0  0  0  0  0  0  0  0  0  0
  1  2  1  0
  2  3  1  0
  3  4  1  0
  4  5  1  0
  5  6  2  0
  6  7  1  0
  7  8  2  0
  8  9  1  0
  9 10  2  0
 10 11  1  0
 11 12  2  0
 12 13  1  0
 13 14  2  0
 13 15  1  0
 12 16  1  0
 11 17  1  0
 10 18  1  0
  8 19  1  0
  6 20  1  0
  4 21  1  0
 21 22  2  0
 21 23  1  0
 23 24  1  1
 24 25  1  0
 25 26  1  0
 26 27  1  0
 27 28  1  0
 28 29  2  0
 29 30  1  0
 30 31  1  0
 29 32  1  0
 28 33  1  0
 26 34  1  0
 26 35  1  0
 25 36  1  0
 36 37  2  0
 36 38  1  0
 38 39  2  0
 39 40  1  0
 40 41  2  0
 41 42  1  0
 41 43  1  0
 43 44  2  0
 43 45  1  0
 40 46  1  0
 39 47  1  0
 24 48  1  0
 24 49  1  0
  3 50  1  0
  3 51  1  0
  2 52  1  6
  1 53  1  0
  1 54  1  0
  1 55  1  0
 23  2  1  0
 31 27  2  0
 44 38  1  0
 14  5  1  0
 44 23  1  0
 14  9  1  0
M  END
>  <cnnaffinities>  (75) 
[6.32935, 6.61252]

>  <score>  (75) 
6.32935

>  <index>  (75) 
74

>  <Smiles>  (75) 
C([C@]1(C(N(c2c(nc(c3c(c(c(c(c23)[H])[H])[H])[H])[H])[H])C(=O)[C@]21C(N(C(c1c(c(on1)[H])[H])([H])[H])C(=O)c1c(c(c(F)c(c21)[H])[H])[H])([H])[H])([H])[H])[H])([H])([H])[H]

>  <h>  (75) 
<NA>

>  <Training>  (75) 
True

>  <Success>  (75) 
True

>  <enamine_searched>  (75) 
False

>  <enamine_id>  (75) 
nan

$$$$

     RDKit          3D

 70 75  0  0  0  0  0  0  0  0999 V2000
   11.2491    5.7015   26.0682 C   0  0  0  0  0  0  0  0  0  0  0  0
   11.6654    5.2206   24.8138 O   0  0  0  0  0  0  0  0  0  0  0  0
   10.6910    4.8111   23.9627 C   0  0  0  0  0  0  0  0  0  0  0  0
   11.1320    4.1312   22.8290 C   0  0  0  0  0  0  0  0  0  0  0  0
   10.2087    3.6856   21.9005 C   0  0  0  0  0  0  0  0  0  0  0  0
    8.8562    3.9533   22.0573 C   0  0  0  0  0  0  0  0  0  0  0  0
    8.4189    4.6252   23.1929 C   0  0  0  0  0  0  0  0  0  0  0  0
    6.9285    4.7660   23.4181 C   0  0  0  0  0  0  0  0  0  0  0  0
    6.3596    3.4506   23.6888 N   0  0  0  0  0  0  0  0  0  0  0  0
    6.2174    3.0765   25.0051 C   0  0  0  0  0  0  0  0  0  0  0  0
    6.0297    3.8623   25.9178 O   0  0  0  0  0  0  0  0  0  0  0  0
    6.2516    1.5631   25.2300 C   0  0  0  0  0  0  0  0  0  0  0  0
    7.3486    0.9303   24.5155 N   0  0  0  0  0  0  0  0  0  0  0  0
    7.2027   -0.3600   23.8617 C   0  0  0  0  0  0  0  0  0  0  0  0
    8.1201   -0.4973   22.6101 C   0  0  2  0  0  0  0  0  0  0  0  0
    7.4687    0.2874   21.4508 C   0  0  0  0  0  0  0  0  0  0  0  0
    7.5115    1.4878   21.2570 O   0  0  0  0  0  0  0  0  0  0  0  0
    6.7508   -0.5780   20.6656 N   0  0  0  0  0  0  0  0  0  0  0  0
    5.9743   -0.0780   19.5934 C   0  0  0  0  0  0  0  0  0  0  0  0
    6.2927   -0.3573   18.2884 C   0  0  0  0  0  0  0  0  0  0  0  0
    5.6614    0.1815   17.2151 N   0  0  0  0  0  0  0  0  0  0  0  0
    4.6810    1.0247   17.4479 C   0  0  0  0  0  0  0  0  0  0  0  0
    4.2286    1.3746   18.7513 C   0  0  0  0  0  0  0  0  0  0  0  0
    3.1673    2.2951   18.9647 C   0  0  0  0  0  0  0  0  0  0  0  0
    2.7771    2.6280   20.2341 C   0  0  0  0  0  0  0  0  0  0  0  0
    3.4309    2.0626   21.3527 C   0  0  0  0  0  0  0  0  0  0  0  0
    4.4546    1.1714   21.1699 C   0  0  0  0  0  0  0  0  0  0  0  0
    4.8880    0.8096   19.8622 C   0  0  0  0  0  0  0  0  0  0  0  0
    4.9650    0.7472   22.0281 H   0  0  0  0  0  0  0  0  0  0  0  0
    3.1348    2.3476   22.3589 H   0  0  0  0  0  0  0  0  0  0  0  0
    1.9692    3.3358   20.3945 H   0  0  0  0  0  0  0  0  0  0  0  0
    2.6851    2.7421   18.0988 H   0  0  0  0  0  0  0  0  0  0  0  0
    4.1972    1.4804   16.5819 H   0  0  0  0  0  0  0  0  0  0  0  0
    7.1289   -1.0186   18.0629 H   0  0  0  0  0  0  0  0  0  0  0  0
    6.7777   -1.9417   21.1547 C   0  0  0  0  0  0  0  0  0  0  0  0
    8.0404   -1.9528   22.0419 C   0  0  2  0  0  0  0  0  0  0  0  0
    8.0532   -3.0803   23.0730 C   0  0  0  0  0  0  0  0  0  0  0  0
    7.1396   -3.0688   23.6786 H   0  0  0  0  0  0  0  0  0  0  0  0
    8.1077   -4.0645   22.5961 H   0  0  0  0  0  0  0  0  0  0  0  0
    8.9030   -2.9925   23.7600 H   0  0  0  0  0  0  0  0  0  0  0  0
    8.9018   -2.0708   21.3768 H   0  0  0  0  0  0  0  0  0  0  0  0
    6.8020   -2.6378   20.3182 H   0  0  0  0  0  0  0  0  0  0  0  0
    5.8849   -2.1880   21.7536 H   0  0  0  0  0  0  0  0  0  0  0  0
    9.5165    0.0225   22.9468 C   0  0  0  0  0  0  0  0  0  0  0  0
   10.6289   -0.1851   22.1100 C   0  0  0  0  0  0  0  0  0  0  0  0
   11.8716    0.3148   22.4766 C   0  0  0  0  0  0  0  0  0  0  0  0
   13.2334    0.2229   21.3888 Cl  0  0  0  0  0  0  0  0  0  0  0  0
   12.0903    0.9514   23.6988 C   0  0  0  0  0  0  0  0  0  0  0  0
   10.9979    1.2019   24.4938 C   0  0  0  0  0  0  0  0  0  0  0  0
    9.7266    0.8153   24.0827 C   0  0  0  0  0  0  0  0  0  0  0  0
    8.5901    1.3940   24.8442 C   0  0  0  0  0  0  0  0  0  0  0  0
    8.7402    2.3092   25.6455 O   0  0  0  0  0  0  0  0  0  0  0  0
   11.0857    1.7822   25.4034 H   0  0  0  0  0  0  0  0  0  0  0  0
   13.0868    1.3012   23.9538 H   0  0  0  0  0  0  0  0  0  0  0  0
   10.5365   -0.7154   21.1666 H   0  0  0  0  0  0  0  0  0  0  0  0
    7.4470   -1.1634   24.5683 H   0  0  0  0  0  0  0  0  0  0  0  0
    6.1594   -0.4888   23.5535 H   0  0  0  0  0  0  0  0  0  0  0  0
    5.3134    1.1457   24.8534 H   0  0  0  0  0  0  0  0  0  0  0  0
    6.3047    1.4028   26.3131 H   0  0  0  0  0  0  0  0  0  0  0  0
    6.7033    2.7214   23.0649 H   0  0  0  0  0  0  0  0  0  0  0  0
    6.4259    5.1972   22.5457 H   0  0  0  0  0  0  0  0  0  0  0  0
    6.6926    5.3892   24.2828 H   0  0  0  0  0  0  0  0  0  0  0  0
    9.3293    5.0259   24.1682 C   0  0  0  0  0  0  0  0  0  0  0  0
    8.9581    5.4516   25.0948 H   0  0  0  0  0  0  0  0  0  0  0  0
    8.1656    3.5958   21.2959 H   0  0  0  0  0  0  0  0  0  0  0  0
   10.5021    3.0883   21.0461 H   0  0  0  0  0  0  0  0  0  0  0  0
   12.1925    3.9015   22.7706 H   0  0  0  0  0  0  0  0  0  0  0  0
   12.1501    6.0357   26.5777 H   0  0  0  0  0  0  0  0  0  0  0  0
   10.5652    6.5554   25.9779 H   0  0  0  0  0  0  0  0  0  0  0  0
   10.7710    4.8987   26.6442 H   0  0  0  0  0  0  0  0  0  0  0  0
  1  2  1  0
  2  3  1  0
  3  4  2  0
  4  5  1  0
  5  6  2  0
  6  7  1  0
  7  8  1  0
  8  9  1  0
  9 10  1  0
 10 11  2  0
 10 12  1  0
 12 13  1  0
 13 14  1  0
 15 14  1  1
 15 16  1  0
 16 17  2  0
 16 18  1  0
 18 19  1  0
 19 20  2  0
 20 21  1  0
 21 22  2  0
 22 23  1  0
 23 24  2  0
 24 25  1  0
 25 26  2  0
 26 27  1  0
 27 28  2  0
 27 29  1  0
 26 30  1  0
 25 31  1  0
 24 32  1  0
 22 33  1  0
 20 34  1  0
 18 35  1  0
 35 36  1  0
 36 37  1  0
 37 38  1  0
 37 39  1  0
 37 40  1  0
 36 41  1  6
 35 42  1  0
 35 43  1  0
 15 44  1  0
 44 45  2  0
 45 46  1  0
 46 47  1  0
 46 48  2  0
 48 49  1  0
 49 50  2  0
 50 51  1  0
 51 52  2  0
 49 53  1  0
 48 54  1  0
 45 55  1  0
 14 56  1  0
 14 57  1  0
 12 58  1  0
 12 59  1  0
  9 60  1  0
  8 61  1  0
  8 62  1  0
  7 63  2  0
 63 64  1  0
  6 65  1  0
  5 66  1  0
  4 67  1  0
  1 68  1  0
  1 69  1  0
  1 70  1  0
 63  3  1  0
 51 13  1  0
 36 15  1  0
 50 44  1  0
 28 19  1  0
 28 23  1  0
M  END
>  <cnnaffinities>  (76) 
[6.72454]

>  <score>  (76) 
6.72454

>  <index>  (76) 
75

>  <Smiles>  (76) 
C(Oc1c(c(c(c(C(N(C(=O)C(N2C([C@@]3(C(=O)N(c4c(nc(c5c(c(c(c(c45)[H])[H])[H])[H])[H])[H])C([C@@]3(C([H])([H])[H])[H])([H])[H])c3c(c(Cl)c(c(c3C2=O)[H])[H])[H])([H])[H])([H])[H])[H])([H])[H])c1[H])[H])[H])[H])([H])([H])[H]

>  <h>  (76) 
<NA>

>  <Training>  (76) 
True

>  <Success>  (76) 
True

>  <enamine_searched>  (76) 
False

>  <enamine_id>  (76) 
nan

$$$$

     RDKit          3D

 61 65  0  0  0  0  0  0  0  0999 V2000
    7.1174   -2.4986   23.4311 C   0  0  0  0  0  0  0  0  0  0  0  0
    8.0005   -1.7962   22.3927 C   0  0  1  0  0  0  0  0  0  0  0  0
    7.3085   -1.7188   21.0154 C   0  0  0  0  0  0  0  0  0  0  0  0
    6.9282   -0.3300   20.8662 N   0  0  0  0  0  0  0  0  0  0  0  0
    6.1464    0.1248   19.7830 C   0  0  0  0  0  0  0  0  0  0  0  0
    6.4477   -0.2333   18.4917 C   0  0  0  0  0  0  0  0  0  0  0  0
    5.7751    0.2052   17.3996 N   0  0  0  0  0  0  0  0  0  0  0  0
    4.7612    1.0124   17.6022 C   0  0  0  0  0  0  0  0  0  0  0  0
    4.3098    1.4200   18.8901 C   0  0  0  0  0  0  0  0  0  0  0  0
    3.1871    2.2750   19.0570 C   0  0  0  0  0  0  0  0  0  0  0  0
    2.7526    2.6190   20.3078 C   0  0  0  0  0  0  0  0  0  0  0  0
    3.4161    2.1183   21.4531 C   0  0  0  0  0  0  0  0  0  0  0  0
    4.5100    1.3021   21.3166 C   0  0  0  0  0  0  0  0  0  0  0  0
    5.0035    0.9496   20.0265 C   0  0  0  0  0  0  0  0  0  0  0  0
    5.0166    0.9235   22.1992 H   0  0  0  0  0  0  0  0  0  0  0  0
    3.0685    2.4002   22.4439 H   0  0  0  0  0  0  0  0  0  0  0  0
    1.9013    3.2826   20.4311 H   0  0  0  0  0  0  0  0  0  0  0  0
    2.6905    2.6481   18.1637 H   0  0  0  0  0  0  0  0  0  0  0  0
    4.2351    1.3767   16.7192 H   0  0  0  0  0  0  0  0  0  0  0  0
    7.2946   -0.8848   18.2802 H   0  0  0  0  0  0  0  0  0  0  0  0
    7.6121    0.5197   21.7048 C   0  0  0  0  0  0  0  0  0  0  0  0
    7.5643    1.7350   21.6504 O   0  0  0  0  0  0  0  0  0  0  0  0
    8.4231   -0.3258   22.7175 C   0  0  1  0  0  0  0  0  0  0  0  0
    8.0943    0.1026   24.1552 C   0  0  0  0  0  0  0  0  0  0  0  0
    8.5652    1.4409   24.4502 N   0  0  0  0  0  0  0  0  0  0  0  0
    7.7406    2.2560   25.3167 C   0  0  0  0  0  0  0  0  0  0  0  0
    6.7099    3.0714   24.5417 C   0  0  0  0  0  0  0  0  0  0  0  0
    7.3383    4.1345   23.6901 N   0  0  0  0  0  4  0  0  0  0  0  0
    7.8436    5.2804   24.5011 C   0  0  0  0  0  0  0  0  0  0  0  0
    8.6529    4.9664   25.1606 H   0  0  0  0  0  0  0  0  0  0  0  0
    7.0227    5.6968   25.1013 H   0  0  0  0  0  0  0  0  0  0  0  0
    8.2114    6.0678   23.8378 H   0  0  0  0  0  0  0  0  0  0  0  0
    6.3704    4.6492   22.6859 C   0  0  0  0  0  0  0  0  0  0  0  0
    6.8478    5.4195   22.0747 H   0  0  0  0  0  0  0  0  0  0  0  0
    6.0464    3.8237   22.0501 H   0  0  0  0  0  0  0  0  0  0  0  0
    5.4977    5.0874   23.1888 H   0  0  0  0  0  0  0  0  0  0  0  0
    8.1117    3.6845   23.1703 H   0  0  0  0  0  0  0  0  0  0  0  0
    6.1447    2.4210   23.8633 H   0  0  0  0  0  0  0  0  0  0  0  0
    6.0093    3.5502   25.2360 H   0  0  0  0  0  0  0  0  0  0  0  0
    8.4154    2.8971   25.8812 H   0  0  0  0  0  0  0  0  0  0  0  0
    7.2256    1.5891   26.0147 H   0  0  0  0  0  0  0  0  0  0  0  0
    9.8320    1.8415   24.1518 C   0  0  0  0  0  0  0  0  0  0  0  0
   10.3194    2.8851   24.5839 O   0  0  0  0  0  0  0  0  0  0  0  0
   10.5789    0.9464   23.2092 C   0  0  0  0  0  0  0  0  0  0  0  0
   11.9192    1.2277   22.9419 C   0  0  0  0  0  0  0  0  0  0  0  0
   12.6483    0.4282   22.0706 C   0  0  0  0  0  0  0  0  0  0  0  0
   11.9880   -0.6419   21.4589 C   0  0  0  0  0  0  0  0  0  0  0  0
   12.6491   -1.5629   20.1040 Cl  0  0  0  0  0  0  0  0  0  0  0  0
   10.6398   -0.8589   21.6419 C   0  0  0  0  0  0  0  0  0  0  0  0
    9.9154   -0.0968   22.5512 C   0  0  0  0  0  0  0  0  0  0  0  0
   10.1722   -1.5546   20.9562 H   0  0  0  0  0  0  0  0  0  0  0  0
   13.6680    0.6880   21.8064 H   0  0  0  0  0  0  0  0  0  0  0  0
   12.3286    2.1224   23.4017 H   0  0  0  0  0  0  0  0  0  0  0  0
    7.0132    0.0994   24.2999 H   0  0  0  0  0  0  0  0  0  0  0  0
    8.5601   -0.6326   24.8308 H   0  0  0  0  0  0  0  0  0  0  0  0
    6.4221   -2.3603   20.9632 H   0  0  0  0  0  0  0  0  0  0  0  0
    7.9920   -2.0065   20.2089 H   0  0  0  0  0  0  0  0  0  0  0  0
    8.9076   -2.4021   22.3123 H   0  0  0  0  0  0  0  0  0  0  0  0
    6.8937   -3.5165   23.0963 H   0  0  0  0  0  0  0  0  0  0  0  0
    7.6238   -2.5863   24.3976 H   0  0  0  0  0  0  0  0  0  0  0  0
    6.1663   -1.9768   23.5833 H   0  0  0  0  0  0  0  0  0  0  0  0
  1  2  1  0
  2  3  1  0
  3  4  1  0
  4  5  1  0
  5  6  2  0
  6  7  1  0
  7  8  2  0
  8  9  1  0
  9 10  2  0
 10 11  1  0
 11 12  2  0
 12 13  1  0
 13 14  2  0
 13 15  1  0
 12 16  1  0
 11 17  1  0
 10 18  1  0
  8 19  1  0
  6 20  1  0
  4 21  1  0
 21 22  2  0
 21 23  1  0
 23 24  1  1
 24 25  1  0
 25 26  1  0
 26 27  1  0
 27 28  1  0
 28 29  1  0
 29 30  1  0
 29 31  1  0
 29 32  1  0
 28 33  1  0
 33 34  1  0
 33 35  1  0
 33 36  1  0
 28 37  1  0
 27 38  1  0
 27 39  1  0
 26 40  1  0
 26 41  1  0
 25 42  1  0
 42 43  2  0
 42 44  1  0
 44 45  2  0
 45 46  1  0
 46 47  2  0
 47 48  1  0
 47 49  1  0
 49 50  2  0
 49 51  1  0
 46 52  1  0
 45 53  1  0
 24 54  1  0
 24 55  1  0
  3 56  1  0
  3 57  1  0
  2 58  1  6
  1 59  1  0
  1 60  1  0
  1 61  1  0
 23  2  1  0
 50 44  1  0
 14  5  1  0
 50 23  1  0
 14  9  1  0
M  CHG  1  28   1
M  END
>  <cnnaffinities>  (77) 
[6.58242, 6.19975]

>  <score>  (77) 
6.58242

>  <index>  (77) 
76

>  <Smiles>  (77) 
C([C@]1(C(N(c2c(nc(c3c(c(c(c(c23)[H])[H])[H])[H])[H])[H])C(=O)[C@]21C(N(C(C([N+](C([H])([H])[H])(C([H])([H])[H])[H])([H])[H])([H])[H])C(=O)c1c(c(c(Cl)c(c21)[H])[H])[H])([H])[H])([H])[H])[H])([H])([H])[H]

>  <h>  (77) 
<NA>

>  <Training>  (77) 
True

>  <Success>  (77) 
True

>  <enamine_searched>  (77) 
False

>  <enamine_id>  (77) 
nan

$$$$

     RDKit          3D

 57 60  0  0  0  0  0  0  0  0999 V2000
    3.8228   -6.1488   26.7239 C   0  0  0  0  0  0  0  0  0  0  0  0
    3.3011   -5.8770   25.2906 C   0  0  0  0  0  0  0  0  0  0  0  0
    1.7925   -5.5367   25.2738 C   0  0  0  0  0  0  0  0  0  0  0  0
    1.2528   -6.3632   25.7492 H   0  0  0  0  0  0  0  0  0  0  0  0
    1.4304   -5.4236   24.2437 H   0  0  0  0  0  0  0  0  0  0  0  0
    1.5924   -4.6070   25.8124 H   0  0  0  0  0  0  0  0  0  0  0  0
    3.3657   -7.1466   24.5313 C   0  0  0  0  0  0  0  0  0  0  0  0
    3.2781   -8.1646   23.9897 N   0  0  0  0  0  0  0  0  0  0  0  0
    4.1568   -4.7740   24.6759 C   0  0  0  0  0  0  0  0  0  0  0  0
    4.1317   -3.4781   25.1963 C   0  0  0  0  0  0  0  0  0  0  0  0
    4.9123   -2.4802   24.6331 C   0  0  0  0  0  0  0  0  0  0  0  0
    5.6884   -2.7557   23.5064 C   0  0  0  0  0  0  0  0  0  0  0  0
    6.3973   -1.6969   22.8691 N   0  0  0  0  0  0  0  0  0  0  0  0
    7.3658   -0.9372   23.6627 C   0  0  0  0  0  0  0  0  0  0  0  0
    8.7991   -1.2452   23.2872 C   0  0  0  0  0  0  0  0  0  0  0  0
    9.2109   -2.5755   23.2835 C   0  0  0  0  0  0  0  0  0  0  0  0
   10.5183   -2.8983   22.9517 C   0  0  0  0  0  0  0  0  0  0  0  0
   11.4264   -1.9078   22.5942 C   0  0  0  0  0  0  0  0  0  0  0  0
   11.0041   -0.5860   22.5915 C   0  0  0  0  0  0  0  0  0  0  0  0
   12.1195    0.6709   22.1375 Cl  0  0  0  0  0  0  0  0  0  0  0  0
    9.7025   -0.2419   22.9404 C   0  0  0  0  0  0  0  0  0  0  0  0
    9.4195    0.8097   22.9512 H   0  0  0  0  0  0  0  0  0  0  0  0
   12.4553   -2.1488   22.3541 H   0  0  0  0  0  0  0  0  0  0  0  0
   10.8232   -3.9362   22.9673 H   0  0  0  0  0  0  0  0  0  0  0  0
    8.4970   -3.3536   23.5549 H   0  0  0  0  0  0  0  0  0  0  0  0
    7.1959   -1.2113   24.7080 H   0  0  0  0  0  0  0  0  0  0  0  0
    7.1851    0.1422   23.5917 H   0  0  0  0  0  0  0  0  0  0  0  0
    6.2446   -1.5604   21.5006 C   0  0  0  0  0  0  0  0  0  0  0  0
    5.5239   -2.2977   20.8481 O   0  0  0  0  0  0  0  0  0  0  0  0
    6.9614   -0.3937   20.8182 C   0  0  0  0  0  0  0  0  0  0  0  0
    6.1526    0.1306   19.6731 C   0  0  0  0  0  0  0  0  0  0  0  0
    6.4304   -0.2305   18.3823 C   0  0  0  0  0  0  0  0  0  0  0  0
    5.7578    0.2025   17.2827 N   0  0  0  0  0  0  0  0  0  0  0  0
    4.7538    1.0177   17.4958 C   0  0  0  0  0  0  0  0  0  0  0  0
    4.3072    1.4170   18.7853 C   0  0  0  0  0  0  0  0  0  0  0  0
    3.1975    2.2807   18.9514 C   0  0  0  0  0  0  0  0  0  0  0  0
    2.7670    2.6294   20.2012 C   0  0  0  0  0  0  0  0  0  0  0  0
    3.4312    2.1239   21.3441 C   0  0  0  0  0  0  0  0  0  0  0  0
    4.5136    1.2912   21.2085 C   0  0  0  0  0  0  0  0  0  0  0  0
    5.0011    0.9343   19.9192 C   0  0  0  0  0  0  0  0  0  0  0  0
    4.9925    0.8990   22.1030 H   0  0  0  0  0  0  0  0  0  0  0  0
    3.0843    2.4078   22.3352 H   0  0  0  0  0  0  0  0  0  0  0  0
    1.9189    3.2967   20.3242 H   0  0  0  0  0  0  0  0  0  0  0  0
    2.7026    2.6483   18.0545 H   0  0  0  0  0  0  0  0  0  0  0  0
    4.2246    1.3899   16.6169 H   0  0  0  0  0  0  0  0  0  0  0  0
    7.2625   -0.9069   18.1833 H   0  0  0  0  0  0  0  0  0  0  0  0
    7.1666    0.4100   21.5308 H   0  0  0  0  0  0  0  0  0  0  0  0
    7.9223   -0.7774   20.4581 H   0  0  0  0  0  0  0  0  0  0  0  0
    5.8016   -4.0672   23.0530 C   0  0  0  0  0  0  0  0  0  0  0  0
    5.0501   -5.0656   23.6506 C   0  0  0  0  0  0  0  0  0  0  0  0
    5.1540   -6.0949   23.3219 H   0  0  0  0  0  0  0  0  0  0  0  0
    6.4552   -4.3050   22.2210 H   0  0  0  0  0  0  0  0  0  0  0  0
    4.9073   -1.4746   25.0442 H   0  0  0  0  0  0  0  0  0  0  0  0
    3.5210   -3.2485   26.0662 H   0  0  0  0  0  0  0  0  0  0  0  0
    3.6385   -5.2766   27.3604 H   0  0  0  0  0  0  0  0  0  0  0  0
    4.9080   -6.3293   26.6978 H   0  0  0  0  0  0  0  0  0  0  0  0
    3.3208   -7.0166   27.1656 H   0  0  0  0  0  0  0  0  0  0  0  0
  1  2  1  0
  2  3  1  0
  3  4  1  0
  3  5  1  0
  3  6  1  0
  2  7  1  0
  7  8  3  0
  2  9  1  0
  9 10  2  0
 10 11  1  0
 11 12  2  0
 12 13  1  0
 13 14  1  0
 14 15  1  0
 15 16  2  0
 16 17  1  0
 17 18  2  0
 18 19  1  0
 19 20  1  0
 19 21  2  0
 21 22  1  0
 18 23  1  0
 17 24  1  0
 16 25  1  0
 14 26  1  0
 14 27  1  0
 13 28  1  0
 28 29  2  0
 28 30  1  0
 30 31  1  0
 31 32  2  0
 32 33  1  0
 33 34  2  0
 34 35  1  0
 35 36  2  0
 36 37  1  0
 37 38  2  0
 38 39  1  0
 39 40  2  0
 39 41  1  0
 38 42  1  0
 37 43  1  0
 36 44  1  0
 34 45  1  0
 32 46  1  0
 30 47  1  0
 30 48  1  0
 12 49  1  0
 49 50  2  0
 50 51  1  0
 49 52  1  0
 11 53  1  0
 10 54  1  0
  1 55  1  0
  1 56  1  0
  1 57  1  0
 50  9  1  0
 21 15  1  0
 40 31  1  0
 40 35  1  0
M  END
>  <cnnaffinities>  (78) 
[6.64023]

>  <score>  (78) 
6.64023

>  <index>  (78) 
77

>  <Smiles>  (78) 
C(C(C([H])([H])[H])(C#N)c1c(c(c(N(C(c2c(c(c(c(Cl)c2[H])[H])[H])[H])([H])[H])C(=O)C(c2c(nc(c3c(c(c(c(c23)[H])[H])[H])[H])[H])[H])([H])[H])c(c1[H])[H])[H])[H])([H])([H])[H]

>  <h>  (78) 
<NA>

>  <Training>  (78) 
True

>  <Success>  (78) 
True

>  <enamine_searched>  (78) 
False

>  <enamine_id>  (78) 
nan

$$$$

     RDKit          3D

 40 42  0  0  0  0  0  0  0  0999 V2000
   12.3675   -0.5448   24.8783 C   0  0  0  0  0  0  0  0  0  0  0  0
   11.5196   -0.5574   23.6082 C   0  0  0  0  0  0  0  0  0  0  0  0
   10.1737   -1.2597   23.8107 C   0  0  0  0  0  0  0  0  0  0  0  0
    9.3089   -1.2684   22.5449 C   0  0  0  0  0  0  0  0  0  0  0  0
    9.1136    0.0937   22.0787 N   0  0  0  0  0  0  0  0  0  0  0  0
    8.0145    0.5594   21.3922 C   0  0  0  0  0  0  0  0  0  0  0  0
    7.8796    1.7484   21.1541 O   0  0  0  0  0  0  0  0  0  0  0  0
    6.9638   -0.4624   20.8976 C   0  0  0  0  0  0  0  0  0  0  0  0
    6.1143    0.0798   19.7701 C   0  0  0  0  0  0  0  0  0  0  0  0
    6.4282   -0.2130   18.4715 C   0  0  0  0  0  0  0  0  0  0  0  0
    5.7657    0.2371   17.3715 N   0  0  0  0  0  0  0  0  0  0  0  0
    4.7418    1.0287   17.5822 C   0  0  0  0  0  0  0  0  0  0  0  0
    4.2937    1.4220   18.8694 C   0  0  0  0  0  0  0  0  0  0  0  0
    3.1757    2.2788   19.0428 C   0  0  0  0  0  0  0  0  0  0  0  0
    2.7692    2.6468   20.2965 C   0  0  0  0  0  0  0  0  0  0  0  0
    3.4706    2.1758   21.4291 C   0  0  0  0  0  0  0  0  0  0  0  0
    4.5573    1.3506   21.2879 C   0  0  0  0  0  0  0  0  0  0  0  0
    4.9985    0.9433   20.0002 C   0  0  0  0  0  0  0  0  0  0  0  0
    5.1047    1.0157   22.1637 H   0  0  0  0  0  0  0  0  0  0  0  0
    3.1462    2.4806   22.4214 H   0  0  0  0  0  0  0  0  0  0  0  0
    1.9178    3.3102   20.4248 H   0  0  0  0  0  0  0  0  0  0  0  0
    2.6635    2.6378   18.1541 H   0  0  0  0  0  0  0  0  0  0  0  0
    4.2106    1.3912   16.6997 H   0  0  0  0  0  0  0  0  0  0  0  0
    7.2748   -0.8610   18.2392 H   0  0  0  0  0  0  0  0  0  0  0  0
    6.3425   -0.7666   21.7503 H   0  0  0  0  0  0  0  0  0  0  0  0
    7.4826   -1.3681   20.5528 H   0  0  0  0  0  0  0  0  0  0  0  0
   10.3581    0.8256   21.9010 C   0  0  0  0  0  0  0  0  0  0  0  0
   11.2354    0.8687   23.1359 C   0  0  0  0  0  0  0  0  0  0  0  0
   12.1828    1.3478   22.8582 H   0  0  0  0  0  0  0  0  0  0  0  0
   10.7807    1.4622   23.9467 H   0  0  0  0  0  0  0  0  0  0  0  0
   10.9484    0.2697   21.1640 H   0  0  0  0  0  0  0  0  0  0  0  0
   10.0880    1.8202   21.5531 H   0  0  0  0  0  0  0  0  0  0  0  0
    8.3262   -1.6934   22.7554 H   0  0  0  0  0  0  0  0  0  0  0  0
    9.8016   -1.9070   21.7820 H   0  0  0  0  0  0  0  0  0  0  0  0
    9.6310   -0.7317   24.6068 H   0  0  0  0  0  0  0  0  0  0  0  0
   10.3349   -2.2912   24.1407 H   0  0  0  0  0  0  0  0  0  0  0  0
   12.0720   -1.0975   22.8150 H   0  0  0  0  0  0  0  0  0  0  0  0
   11.8385    0.0104   25.6599 H   0  0  0  0  0  0  0  0  0  0  0  0
   13.3322   -0.0507   24.7119 H   0  0  0  0  0  0  0  0  0  0  0  0
   12.5566   -1.5573   25.2489 H   0  0  0  0  0  0  0  0  0  0  0  0
  1  2  1  0
  2  3  1  0
  3  4  1  0
  4  5  1  0
  5  6  1  0
  6  7  2  0
  6  8  1  0
  8  9  1  0
  9 10  2  0
 10 11  1  0
 11 12  2  0
 12 13  1  0
 13 14  2  0
 14 15  1  0
 15 16  2  0
 16 17  1  0
 17 18  2  0
 17 19  1  0
 16 20  1  0
 15 21  1  0
 14 22  1  0
 12 23  1  0
 10 24  1  0
  8 25  1  0
  8 26  1  0
  5 27  1  0
 27 28  1  0
 28 29  1  0
 28 30  1  0
 27 31  1  0
 27 32  1  0
  4 33  1  0
  4 34  1  0
  3 35  1  0
  3 36  1  0
  2 37  1  0
  1 38  1  0
  1 39  1  0
  1 40  1  0
 28  2  1  0
 18  9  1  0
 18 13  1  0
M  END
>  <cnnaffinities>  (79) 
[5.4203, 5.42026, 5.0155, 5.28335, 5.01464, 5.00884, 5.05873, 5.05868]

>  <score>  (79) 
5.4203

>  <index>  (79) 
79

>  <Smiles>  (79) 
C(C1(C(C(N(C(=O)C(c2c(nc(c3c(c(c(c(c23)[H])[H])[H])[H])[H])[H])([H])[H])C(C1([H])[H])([H])[H])([H])[H])([H])[H])[H])([H])([H])[H]

>  <h>  (79) 
<NA>

>  <Training>  (79) 
True

>  <Success>  (79) 
True

>  <enamine_searched>  (79) 
False

>  <enamine_id>  (79) 
nan

$$$$

     RDKit          3D

 59 64  0  0  0  0  0  0  0  0999 V2000
    9.7275   -1.8588   21.9265 C   0  0  0  0  0  0  0  0  0  0  0  0
    8.5470   -0.9922   22.3885 C   0  0  1  0  0  0  0  0  0  0  0  0
    8.1191   -0.0214   21.2677 C   0  0  0  0  0  0  0  0  0  0  0  0
    6.8457   -0.5280   20.8186 N   0  0  0  0  0  0  0  0  0  0  0  0
    6.1035    0.0470   19.7642 C   0  0  0  0  0  0  0  0  0  0  0  0
    6.4585   -0.2259   18.4687 C   0  0  0  0  0  0  0  0  0  0  0  0
    5.8011    0.2362   17.3795 N   0  0  0  0  0  0  0  0  0  0  0  0
    4.7685    1.0180   17.5957 C   0  0  0  0  0  0  0  0  0  0  0  0
    4.3097    1.3964   18.8919 C   0  0  0  0  0  0  0  0  0  0  0  0
    3.1954    2.2596   19.0553 C   0  0  0  0  0  0  0  0  0  0  0  0
    2.7871    2.6299   20.3070 C   0  0  0  0  0  0  0  0  0  0  0  0
    3.4739    2.1597   21.4495 C   0  0  0  0  0  0  0  0  0  0  0  0
    4.5536    1.3185   21.3240 C   0  0  0  0  0  0  0  0  0  0  0  0
    4.9925    0.9089   20.0255 C   0  0  0  0  0  0  0  0  0  0  0  0
    5.0737    0.9714   22.2179 H   0  0  0  0  0  0  0  0  0  0  0  0
    3.1452    2.4792   22.4345 H   0  0  0  0  0  0  0  0  0  0  0  0
    1.9406    3.2997   20.4290 H   0  0  0  0  0  0  0  0  0  0  0  0
    2.6950    2.6272   18.1645 H   0  0  0  0  0  0  0  0  0  0  0  0
    4.2388    1.3997   16.7235 H   0  0  0  0  0  0  0  0  0  0  0  0
    7.3093   -0.8787   18.2783 H   0  0  0  0  0  0  0  0  0  0  0  0
    6.3040   -1.5180   21.5988 C   0  0  0  0  0  0  0  0  0  0  0  0
    5.2606   -2.0828   21.3548 O   0  0  0  0  0  0  0  0  0  0  0  0
    7.2464   -1.7593   22.7955 C   0  0  1  0  0  0  0  0  0  0  0  0
    7.4609   -3.2738   22.9707 C   0  0  0  0  0  0  0  0  0  0  0  0
    6.2554   -3.9157   23.4441 N   0  0  0  0  0  0  0  0  0  0  0  0
    5.7888   -5.1238   22.8219 C   0  0  0  0  0  0  0  0  0  0  0  0
    6.3988   -6.3614   23.4066 C   0  0  0  0  0  0  0  0  0  0  0  0
    7.7027   -6.6651   23.7163 C   0  0  0  0  0  0  0  0  0  0  0  0
    7.7348   -8.0729   23.7732 C   0  0  0  0  0  0  0  0  0  0  0  0
    6.5235   -8.5949   23.6515 N   0  0  0  0  0  0  0  0  0  0  0  0
    5.7062   -7.5359   23.4518 N   0  0  0  0  0  0  0  0  0  0  0  0
    4.2903   -7.6399   23.7800 C   0  0  0  0  0  0  0  0  0  0  0  0
    3.6825   -7.6418   22.8717 H   0  0  0  0  0  0  0  0  0  0  0  0
    4.1783   -8.5990   24.2817 H   0  0  0  0  0  0  0  0  0  0  0  0
    3.9695   -6.8177   24.4411 H   0  0  0  0  0  0  0  0  0  0  0  0
    8.5794   -8.7215   23.9906 H   0  0  0  0  0  0  0  0  0  0  0  0
    8.5277   -5.9823   23.9136 H   0  0  0  0  0  0  0  0  0  0  0  0
    4.6977   -5.1449   22.9096 H   0  0  0  0  0  0  0  0  0  0  0  0
    6.0427   -5.0782   21.7523 H   0  0  0  0  0  0  0  0  0  0  0  0
    5.5907   -3.4812   24.5488 C   0  0  0  0  0  0  0  0  0  0  0  0
    4.7805   -4.1824   25.1493 O   0  0  0  0  0  0  0  0  0  0  0  0
    5.8650   -2.0696   24.9269 C   0  0  0  0  0  0  0  0  0  0  0  0
    5.2806   -1.6023   26.0999 C   0  0  0  0  0  0  0  0  0  0  0  0
    5.3833   -0.2734   26.4506 C   0  0  0  0  0  0  0  0  0  0  0  0
    6.0779    0.5645   25.5870 C   0  0  0  0  0  0  0  0  0  0  0  0
    6.1620    1.8679   25.9046 F   0  0  0  0  0  0  0  0  0  0  0  0
    6.6812    0.1215   24.4235 C   0  0  0  0  0  0  0  0  0  0  0  0
    6.6069   -1.2332   24.0822 C   0  0  0  0  0  0  0  0  0  0  0  0
    7.2117    0.8406   23.8085 H   0  0  0  0  0  0  0  0  0  0  0  0
    4.9260    0.1217   27.3501 H   0  0  0  0  0  0  0  0  0  0  0  0
    4.7344   -2.3180   26.7033 H   0  0  0  0  0  0  0  0  0  0  0  0
    7.7224   -3.7274   22.0145 H   0  0  0  0  0  0  0  0  0  0  0  0
    8.2894   -3.4339   23.6765 H   0  0  0  0  0  0  0  0  0  0  0  0
    8.0339    1.0147   21.6210 H   0  0  0  0  0  0  0  0  0  0  0  0
    8.8339   -0.0058   20.4421 H   0  0  0  0  0  0  0  0  0  0  0  0
    8.9052   -0.4372   23.2603 H   0  0  0  0  0  0  0  0  0  0  0  0
   10.5747   -1.2199   21.6548 H   0  0  0  0  0  0  0  0  0  0  0  0
   10.0715   -2.5298   22.7183 H   0  0  0  0  0  0  0  0  0  0  0  0
    9.4736   -2.4631   21.0496 H   0  0  0  0  0  0  0  0  0  0  0  0
  1  2  1  0
  2  3  1  0
  3  4  1  0
  4  5  1  0
  5  6  2  0
  6  7  1  0
  7  8  2  0
  8  9  1  0
  9 10  2  0
 10 11  1  0
 11 12  2  0
 12 13  1  0
 13 14  2  0
 13 15  1  0
 12 16  1  0
 11 17  1  0
 10 18  1  0
  8 19  1  0
  6 20  1  0
  4 21  1  0
 21 22  2  0
 21 23  1  0
 23 24  1  1
 24 25  1  0
 25 26  1  0
 26 27  1  0
 27 28  2  0
 28 29  1  0
 29 30  2  0
 30 31  1  0
 31 32  1  0
 32 33  1  0
 32 34  1  0
 32 35  1  0
 29 36  1  0
 28 37  1  0
 26 38  1  0
 26 39  1  0
 25 40  1  0
 40 41  2  0
 40 42  1  0
 42 43  2  0
 43 44  1  0
 44 45  2  0
 45 46  1  0
 45 47  1  0
 47 48  2  0
 47 49  1  0
 44 50  1  0
 43 51  1  0
 24 52  1  0
 24 53  1  0
  3 54  1  0
  3 55  1  0
  2 56  1  1
  1 57  1  0
  1 58  1  0
  1 59  1  0
 23  2  1  0
 31 27  1  0
 48 42  1  0
 14  5  1  0
 48 23  1  0
 14  9  1  0
M  END
>  <cnnaffinities>  (80) 
[6.67575]

>  <score>  (80) 
6.67575

>  <index>  (80) 
80

>  <Smiles>  (80) 
C([C@]1(C(N(c2c(nc(c3c(c(c(c(c23)[H])[H])[H])[H])[H])[H])C(=O)[C@]21C(N(C(c1c(c(nn1C([H])([H])[H])[H])[H])([H])[H])C(=O)c1c(c(c(F)c(c21)[H])[H])[H])([H])[H])([H])[H])[H])([H])([H])[H]

>  <h>  (80) 
<NA>

>  <Training>  (80) 
True

>  <Success>  (80) 
True

>  <enamine_searched>  (80) 
False

>  <enamine_id>  (80) 
nan

$$$$

     RDKit          3D

 58 63  0  0  0  0  0  0  0  0999 V2000
    5.4592    4.9522   21.4126 C   0  0  0  0  0  0  0  0  0  0  0  0
    6.4450    4.5467   22.4634 C   0  0  0  0  0  0  0  0  0  0  0  0
    6.3464    3.5892   23.3347 N   0  0  0  0  0  0  0  0  0  0  0  0
    7.5797    3.5757   23.9892 C   0  0  0  0  0  0  0  0  0  0  0  0
    7.9649    2.5285   24.9933 C   0  0  0  0  0  0  0  0  0  0  0  0
    8.7143    1.4159   24.4141 N   0  0  0  0  0  0  0  0  0  0  0  0
    8.0577    0.1483   24.1625 C   0  0  0  0  0  0  0  0  0  0  0  0
    8.3520   -0.4124   22.7495 C   0  0  2  0  0  0  0  0  0  0  0  0
    7.6806    0.4389   21.6346 C   0  0  0  0  0  0  0  0  0  0  0  0
    7.8456    1.6168   21.4174 O   0  0  0  0  0  0  0  0  0  0  0  0
    6.8787   -0.3842   20.8728 N   0  0  0  0  0  0  0  0  0  0  0  0
    6.1278    0.1061   19.7760 C   0  0  0  0  0  0  0  0  0  0  0  0
    6.4439   -0.2293   18.4827 C   0  0  0  0  0  0  0  0  0  0  0  0
    5.7718    0.2153   17.3919 N   0  0  0  0  0  0  0  0  0  0  0  0
    4.7523    1.0175   17.5939 C   0  0  0  0  0  0  0  0  0  0  0  0
    4.2954    1.4216   18.8802 C   0  0  0  0  0  0  0  0  0  0  0  0
    3.1664    2.2696   19.0576 C   0  0  0  0  0  0  0  0  0  0  0  0
    2.7349    2.6051   20.3131 C   0  0  0  0  0  0  0  0  0  0  0  0
    3.4137    2.1109   21.4493 C   0  0  0  0  0  0  0  0  0  0  0  0
    4.5117    1.3020   21.3032 C   0  0  0  0  0  0  0  0  0  0  0  0
    4.9940    0.9471   20.0119 C   0  0  0  0  0  0  0  0  0  0  0  0
    5.0232    0.9263   22.1820 H   0  0  0  0  0  0  0  0  0  0  0  0
    3.0800    2.3897   22.4464 H   0  0  0  0  0  0  0  0  0  0  0  0
    1.8755    3.2577   20.4422 H   0  0  0  0  0  0  0  0  0  0  0  0
    2.6616    2.6419   18.1719 H   0  0  0  0  0  0  0  0  0  0  0  0
    4.2283    1.3826   16.7115 H   0  0  0  0  0  0  0  0  0  0  0  0
    7.2917   -0.8772   18.2634 H   0  0  0  0  0  0  0  0  0  0  0  0
    7.0632   -1.7915   21.1442 C   0  0  0  0  0  0  0  0  0  0  0  0
    7.7427   -1.8416   22.5334 C   0  0  2  0  0  0  0  0  0  0  0  0
    6.7484   -2.3353   23.6002 C   0  0  0  0  0  0  0  0  0  0  0  0
    7.2138   -2.4129   24.5878 H   0  0  0  0  0  0  0  0  0  0  0  0
    5.8768   -1.6747   23.6825 H   0  0  0  0  0  0  0  0  0  0  0  0
    6.3833   -3.3354   23.3352 H   0  0  0  0  0  0  0  0  0  0  0  0
    8.5640   -2.5680   22.5196 H   0  0  0  0  0  0  0  0  0  0  0  0
    6.0926   -2.3030   21.1358 H   0  0  0  0  0  0  0  0  0  0  0  0
    7.7007   -2.2468   20.3822 H   0  0  0  0  0  0  0  0  0  0  0  0
    9.8604   -0.3532   22.5435 C   0  0  0  0  0  0  0  0  0  0  0  0
   10.4614   -1.1735   21.5838 C   0  0  0  0  0  0  0  0  0  0  0  0
   11.8165   -1.0700   21.3603 C   0  0  0  0  0  0  0  0  0  0  0  0
   12.3608   -1.8382   20.4015 F   0  0  0  0  0  0  0  0  0  0  0  0
   12.6147   -0.1480   22.0265 C   0  0  0  0  0  0  0  0  0  0  0  0
   12.0154    0.6966   22.9388 C   0  0  0  0  0  0  0  0  0  0  0  0
   10.6467    0.6080   23.1937 C   0  0  0  0  0  0  0  0  0  0  0  0
   10.0342    1.6175   24.1204 C   0  0  0  0  0  0  0  0  0  0  0  0
   10.6582    2.5778   24.5539 O   0  0  0  0  0  0  0  0  0  0  0  0
   12.5823    1.4566   23.4642 H   0  0  0  0  0  0  0  0  0  0  0  0
   13.6683   -0.0809   21.7863 H   0  0  0  0  0  0  0  0  0  0  0  0
    9.9059   -1.8592   20.9526 H   0  0  0  0  0  0  0  0  0  0  0  0
    6.9850    0.3220   24.2583 H   0  0  0  0  0  0  0  0  0  0  0  0
    8.3768   -0.6020   24.9047 H   0  0  0  0  0  0  0  0  0  0  0  0
    7.0586    2.1268   25.4575 H   0  0  0  0  0  0  0  0  0  0  0  0
    8.5950    2.9779   25.7654 H   0  0  0  0  0  0  0  0  0  0  0  0
    8.3309    4.5879   23.5093 C   0  0  0  0  0  0  0  0  0  0  0  0
    7.6246    5.2187   22.5283 O   0  0  0  0  0  0  0  0  0  0  0  0
    9.3118    4.9712   23.7439 H   0  0  0  0  0  0  0  0  0  0  0  0
    5.6671    5.9547   21.0311 H   0  0  0  0  0  0  0  0  0  0  0  0
    4.4573    4.9186   21.8418 H   0  0  0  0  0  0  0  0  0  0  0  0
    5.4675    4.2372   20.5823 H   0  0  0  0  0  0  0  0  0  0  0  0
  1  2  1  0
  2  3  2  0
  3  4  1  0
  4  5  1  0
  5  6  1  0
  6  7  1  0
  8  7  1  1
  8  9  1  0
  9 10  2  0
  9 11  1  0
 11 12  1  0
 12 13  2  0
 13 14  1  0
 14 15  2  0
 15 16  1  0
 16 17  2  0
 17 18  1  0
 18 19  2  0
 19 20  1  0
 20 21  2  0
 20 22  1  0
 19 23  1  0
 18 24  1  0
 17 25  1  0
 15 26  1  0
 13 27  1  0
 11 28  1  0
 28 29  1  0
 29 30  1  0
 30 31  1  0
 30 32  1  0
 30 33  1  0
 29 34  1  6
 28 35  1  0
 28 36  1  0
  8 37  1  0
 37 38  2  0
 38 39  1  0
 39 40  1  0
 39 41  2  0
 41 42  1  0
 42 43  2  0
 43 44  1  0
 44 45  2  0
 42 46  1  0
 41 47  1  0
 38 48  1  0
  7 49  1  0
  7 50  1  0
  5 51  1  0
  5 52  1  0
  4 53  2  0
 53 54  1  0
 53 55  1  0
  1 56  1  0
  1 57  1  0
  1 58  1  0
 54  2  1  0
 44  6  1  0
 29  8  1  0
 43 37  1  0
 21 12  1  0
 21 16  1  0
M  END
>  <cnnaffinities>  (81) 
[6.7616]

>  <score>  (81) 
6.7616

>  <index>  (81) 
81

>  <Smiles>  (81) 
C(c1nc(C(N2C([C@@]3(C(=O)N(c4c(nc(c5c(c(c(c(c45)[H])[H])[H])[H])[H])[H])C([C@@]3(C([H])([H])[H])[H])([H])[H])c3c(c(F)c(c(c3C2=O)[H])[H])[H])([H])[H])([H])[H])c(o1)[H])([H])([H])[H]

>  <h>  (81) 
<NA>

>  <Training>  (81) 
True

>  <Success>  (81) 
True

>  <enamine_searched>  (81) 
False

>  <enamine_id>  (81) 
nan

$$$$

     RDKit          3D

 55 60  0  0  0  0  0  0  0  0999 V2000
    7.3809   -2.5923   23.7647 C   0  0  0  0  0  0  0  0  0  0  0  0
    7.7714   -1.7968   22.5187 C   0  0  1  0  0  0  0  0  0  0  0  0
    6.6248   -1.6540   21.5060 C   0  0  0  0  0  0  0  0  0  0  0  0
    6.9108   -0.4075   20.8270 N   0  0  0  0  0  0  0  0  0  0  0  0
    6.1316    0.1003   19.7571 C   0  0  0  0  0  0  0  0  0  0  0  0
    6.4494   -0.2282   18.4645 C   0  0  0  0  0  0  0  0  0  0  0  0
    5.7720    0.2166   17.3777 N   0  0  0  0  0  0  0  0  0  0  0  0
    4.7542    1.0171   17.5867 C   0  0  0  0  0  0  0  0  0  0  0  0
    4.3066    1.4224   18.8788 C   0  0  0  0  0  0  0  0  0  0  0  0
    3.1848    2.2772   19.0590 C   0  0  0  0  0  0  0  0  0  0  0  0
    2.7649    2.6221   20.3139 C   0  0  0  0  0  0  0  0  0  0  0  0
    3.4456    2.1302   21.4501 C   0  0  0  0  0  0  0  0  0  0  0  0
    4.5361    1.3064   21.3025 C   0  0  0  0  0  0  0  0  0  0  0  0
    5.0027    0.9405   20.0074 C   0  0  0  0  0  0  0  0  0  0  0  0
    5.0560    0.9464   22.1861 H   0  0  0  0  0  0  0  0  0  0  0  0
    3.1230    2.4277   22.4434 H   0  0  0  0  0  0  0  0  0  0  0  0
    1.9135    3.2868   20.4433 H   0  0  0  0  0  0  0  0  0  0  0  0
    2.6763    2.6483   18.1733 H   0  0  0  0  0  0  0  0  0  0  0  0
    4.2171    1.3806   16.7099 H   0  0  0  0  0  0  0  0  0  0  0  0
    7.3004   -0.8753   18.2557 H   0  0  0  0  0  0  0  0  0  0  0  0
    7.8067    0.4035   21.4859 C   0  0  0  0  0  0  0  0  0  0  0  0
    8.1275    1.5072   21.1128 O   0  0  0  0  0  0  0  0  0  0  0  0
    8.3089   -0.3496   22.7442 C   0  0  1  0  0  0  0  0  0  0  0  0
    7.7699    0.2877   24.0363 C   0  0  0  0  0  0  0  0  0  0  0  0
    8.3669    1.5807   24.2913 N   0  0  0  0  0  0  0  0  0  0  0  0
    7.5256    2.7242   24.5574 C   0  0  0  0  0  0  0  0  0  0  0  0
    7.3759    3.6189   23.3614 C   0  0  0  0  0  0  0  0  0  0  0  0
    8.1871    4.5466   22.9815 N   0  0  0  0  0  0  0  0  0  0  0  0
    7.5723    5.1024   21.8679 C   0  0  0  0  0  0  0  0  0  0  0  0
    6.4071    4.4626   21.6356 C   0  0  0  0  0  0  0  0  0  0  0  0
    6.2681    3.5033   22.6003 O   0  0  0  0  0  0  0  0  0  0  0  0
    5.6201    4.5272   20.8992 H   0  0  0  0  0  0  0  0  0  0  0  0
    8.0399    5.9220   21.3373 H   0  0  0  0  0  0  0  0  0  0  0  0
    8.0096    3.2945   25.3536 H   0  0  0  0  0  0  0  0  0  0  0  0
    6.5480    2.3590   24.8774 H   0  0  0  0  0  0  0  0  0  0  0  0
    9.7249    1.7659   24.2725 C   0  0  0  0  0  0  0  0  0  0  0  0
   10.2693    2.7570   24.7376 O   0  0  0  0  0  0  0  0  0  0  0  0
   10.4979    0.7047   23.5591 C   0  0  0  0  0  0  0  0  0  0  0  0
   11.8972    0.7782   23.5410 C   0  0  0  0  0  0  0  0  0  0  0  0
   12.6141   -0.0302   22.6723 C   0  0  0  0  0  0  0  0  0  0  0  0
   11.8929   -0.8478   21.8007 C   0  0  0  0  0  0  0  0  0  0  0  0
   12.4528   -1.4662   20.7509 F   0  0  0  0  0  0  0  0  0  0  0  0
   10.5354   -1.0152   21.8950 C   0  0  0  0  0  0  0  0  0  0  0  0
    9.8129   -0.2510   22.7987 C   0  0  0  0  0  0  0  0  0  0  0  0
   10.0806   -1.7248   21.2139 H   0  0  0  0  0  0  0  0  0  0  0  0
   13.6981   -0.0081   22.6329 H   0  0  0  0  0  0  0  0  0  0  0  0
   12.3774    1.5219   24.1789 H   0  0  0  0  0  0  0  0  0  0  0  0
    7.9798   -0.3914   24.8735 H   0  0  0  0  0  0  0  0  0  0  0  0
    6.6895    0.4210   23.9436 H   0  0  0  0  0  0  0  0  0  0  0  0
    5.6543   -1.6148   22.0222 H   0  0  0  0  0  0  0  0  0  0  0  0
    6.5948   -2.4770   20.7857 H   0  0  0  0  0  0  0  0  0  0  0  0
    8.5749   -2.3454   22.0260 H   0  0  0  0  0  0  0  0  0  0  0  0
    8.2112   -2.6795   24.4766 H   0  0  0  0  0  0  0  0  0  0  0  0
    6.5387   -2.1192   24.2819 H   0  0  0  0  0  0  0  0  0  0  0  0
    7.0730   -3.6075   23.4939 H   0  0  0  0  0  0  0  0  0  0  0  0
  1  2  1  0
  2  3  1  0
  3  4  1  0
  4  5  1  0
  5  6  2  0
  6  7  1  0
  7  8  2  0
  8  9  1  0
  9 10  2  0
 10 11  1  0
 11 12  2  0
 12 13  1  0
 13 14  2  0
 13 15  1  0
 12 16  1  0
 11 17  1  0
 10 18  1  0
  8 19  1  0
  6 20  1  0
  4 21  1  0
 21 22  2  0
 21 23  1  0
 23 24  1  1
 24 25  1  0
 25 26  1  0
 26 27  1  0
 27 28  2  0
 28 29  1  0
 29 30  2  0
 30 31  1  0
 30 32  1  0
 29 33  1  0
 26 34  1  0
 26 35  1  0
 25 36  1  0
 36 37  2  0
 36 38  1  0
 38 39  2  0
 39 40  1  0
 40 41  2  0
 41 42  1  0
 41 43  1  0
 43 44  2  0
 43 45  1  0
 40 46  1  0
 39 47  1  0
 24 48  1  0
 24 49  1  0
  3 50  1  0
  3 51  1  0
  2 52  1  6
  1 53  1  0
  1 54  1  0
  1 55  1  0
 23  2  1  0
 31 27  1  0
 44 38  1  0
 14  5  1  0
 44 23  1  0
 14  9  1  0
M  END
>  <cnnaffinities>  (82) 
[6.35299, 6.61617, 6.62382]

>  <score>  (82) 
6.35299

>  <index>  (82) 
82

>  <Smiles>  (82) 
C([C@]1(C(N(c2c(nc(c3c(c(c(c(c23)[H])[H])[H])[H])[H])[H])C(=O)[C@]21C(N(C(c1nc(c(o1)[H])[H])([H])[H])C(=O)c1c(c(c(F)c(c21)[H])[H])[H])([H])[H])([H])[H])[H])([H])([H])[H]

>  <h>  (82) 
<NA>

>  <Training>  (82) 
True

>  <Success>  (82) 
True

>  <enamine_searched>  (82) 
False

>  <enamine_id>  (82) 
nan

$$$$

     RDKit          3D

 72 77  0  0  0  0  0  0  0  0999 V2000
    9.2079    6.0395   23.5210 C   0  0  0  0  0  0  0  0  0  0  0  0
    7.9900    6.0639   22.6101 C   0  0  2  0  0  0  0  0  0  0  0  0
    7.2573    7.3915   22.7045 C   0  0  0  0  0  0  0  0  0  0  0  0
    6.0946    7.4202   21.9054 O   0  0  0  0  0  0  0  0  0  0  0  0
    5.1661    6.4603   22.3648 C   0  0  0  0  0  0  0  0  0  0  0  0
    5.7018    5.0400   22.2553 C   0  0  1  0  0  0  0  0  0  0  0  0
    5.8504    4.6088   20.8083 C   0  0  0  0  0  0  0  0  0  0  0  0
    6.1966    3.5763   20.7382 H   0  0  0  0  0  0  0  0  0  0  0  0
    6.5663    5.2454   20.2882 H   0  0  0  0  0  0  0  0  0  0  0  0
    4.9067    4.6583   20.2689 H   0  0  0  0  0  0  0  0  0  0  0  0
    7.0286    4.9467   22.9745 N   0  0  0  0  0  4  0  0  0  0  0  0
    7.6410    3.6027   22.8334 C   0  0  0  0  0  0  0  0  0  0  0  0
    8.0293    3.0118   24.1788 C   0  0  0  0  0  0  0  0  0  0  0  0
    8.6978    1.7393   23.9846 N   0  0  0  0  0  0  0  0  0  0  0  0
    7.9324    0.5137   23.8414 C   0  0  0  0  0  0  0  0  0  0  0  0
    8.3733   -0.3449   22.6195 C   0  0  2  0  0  0  0  0  0  0  0  0
    7.9520    0.2640   21.2668 C   0  0  0  0  0  0  0  0  0  0  0  0
    8.4959    1.1656   20.6616 O   0  0  0  0  0  0  0  0  0  0  0  0
    6.8523   -0.4190   20.8077 N   0  0  0  0  0  0  0  0  0  0  0  0
    6.1078    0.1029   19.7290 C   0  0  0  0  0  0  0  0  0  0  0  0
    6.4650   -0.1915   18.4399 C   0  0  0  0  0  0  0  0  0  0  0  0
    5.7973    0.2552   17.3517 N   0  0  0  0  0  0  0  0  0  0  0  0
    4.7677    1.0429   17.5709 C   0  0  0  0  0  0  0  0  0  0  0  0
    4.3089    1.4379   18.8602 C   0  0  0  0  0  0  0  0  0  0  0  0
    3.1951    2.2980   19.0461 C   0  0  0  0  0  0  0  0  0  0  0  0
    2.7732    2.6386   20.3028 C   0  0  0  0  0  0  0  0  0  0  0  0
    3.4736    2.1756   21.4377 C   0  0  0  0  0  0  0  0  0  0  0  0
    4.5704    1.3610   21.2905 C   0  0  0  0  0  0  0  0  0  0  0  0
    4.9989    0.9539   19.9925 C   0  0  0  0  0  0  0  0  0  0  0  0
    5.1194    1.0427   22.1720 H   0  0  0  0  0  0  0  0  0  0  0  0
    3.1441    2.4668   22.4310 H   0  0  0  0  0  0  0  0  0  0  0  0
    1.9089    3.2832   20.4315 H   0  0  0  0  0  0  0  0  0  0  0  0
    2.6977    2.6803   18.1610 H   0  0  0  0  0  0  0  0  0  0  0  0
    4.2313    1.4081   16.6962 H   0  0  0  0  0  0  0  0  0  0  0  0
    7.3315   -0.8249   18.2595 H   0  0  0  0  0  0  0  0  0  0  0  0
    6.4020   -1.4896   21.6726 C   0  0  0  0  0  0  0  0  0  0  0  0
    7.6343   -1.7123   22.5604 C   0  0  2  0  0  0  0  0  0  0  0  0
    7.3627   -2.4041   23.8846 C   0  0  0  0  0  0  0  0  0  0  0  0
    8.2984   -2.5318   24.4401 H   0  0  0  0  0  0  0  0  0  0  0  0
    6.6690   -1.8322   24.5106 H   0  0  0  0  0  0  0  0  0  0  0  0
    6.9244   -3.3929   23.7131 H   0  0  0  0  0  0  0  0  0  0  0  0
    8.2741   -2.3770   21.9781 H   0  0  0  0  0  0  0  0  0  0  0  0
    6.1520   -2.3861   21.0903 H   0  0  0  0  0  0  0  0  0  0  0  0
    5.5067   -1.2068   22.2468 H   0  0  0  0  0  0  0  0  0  0  0  0
    9.8741   -0.4332   22.6049 C   0  0  0  0  0  0  0  0  0  0  0  0
   10.4894   -1.3831   21.7859 C   0  0  0  0  0  0  0  0  0  0  0  0
   11.8535   -1.3784   21.6139 C   0  0  0  0  0  0  0  0  0  0  0  0
   12.4353   -2.4789   20.3810 Cl  0  0  0  0  0  0  0  0  0  0  0  0
   12.6559   -0.4881   22.3426 C   0  0  0  0  0  0  0  0  0  0  0  0
   12.0498    0.4544   23.1427 C   0  0  0  0  0  0  0  0  0  0  0  0
   10.6660    0.5444   23.2086 C   0  0  0  0  0  0  0  0  0  0  0  0
   10.0522    1.7628   23.8256 C   0  0  0  0  0  0  0  0  0  0  0  0
   10.7337    2.7407   24.1223 O   0  0  0  0  0  0  0  0  0  0  0  0
   12.6491    1.1672   23.6940 H   0  0  0  0  0  0  0  0  0  0  0  0
   13.7339   -0.4582   22.3077 H   0  0  0  0  0  0  0  0  0  0  0  0
    9.9396   -2.1320   21.2255 H   0  0  0  0  0  0  0  0  0  0  0  0
    6.8654    0.7608   23.7663 H   0  0  0  0  0  0  0  0  0  0  0  0
    8.0803   -0.0876   24.7498 H   0  0  0  0  0  0  0  0  0  0  0  0
    8.7193    3.6667   24.7121 H   0  0  0  0  0  0  0  0  0  0  0  0
    7.1248    2.8920   24.7920 H   0  0  0  0  0  0  0  0  0  0  0  0
    8.5047    3.6599   22.1626 H   0  0  0  0  0  0  0  0  0  0  0  0
    6.9299    2.9108   22.3765 H   0  0  0  0  0  0  0  0  0  0  0  0
    6.8357    5.0595   23.9847 H   0  0  0  0  0  0  0  0  0  0  0  0
    5.0116    4.3581   22.7703 H   0  0  0  0  0  0  0  0  0  0  0  0
    4.2684    6.5594   21.7461 H   0  0  0  0  0  0  0  0  0  0  0  0
    4.8885    6.6658   23.4111 H   0  0  0  0  0  0  0  0  0  0  0  0
    6.9973    7.5796   23.7607 H   0  0  0  0  0  0  0  0  0  0  0  0
    7.9028    8.1986   22.3513 H   0  0  0  0  0  0  0  0  0  0  0  0
    8.3038    5.9071   21.5737 H   0  0  0  0  0  0  0  0  0  0  0  0
    9.8245    5.1507   23.3621 H   0  0  0  0  0  0  0  0  0  0  0  0
    9.8367    6.9171   23.3546 H   0  0  0  0  0  0  0  0  0  0  0  0
    8.8855    6.0491   24.5699 H   0  0  0  0  0  0  0  0  0  0  0  0
  1  2  1  0
  2  3  1  0
  3  4  1  0
  4  5  1  0
  5  6  1  0
  6  7  1  0
  7  8  1  0
  7  9  1  0
  7 10  1  0
  6 11  1  0
 11 12  1  0
 12 13  1  0
 13 14  1  0
 14 15  1  0
 16 15  1  1
 16 17  1  0
 17 18  2  0
 17 19  1  0
 19 20  1  0
 20 21  2  0
 21 22  1  0
 22 23  2  0
 23 24  1  0
 24 25  2  0
 25 26  1  0
 26 27  2  0
 27 28  1  0
 28 29  2  0
 28 30  1  0
 27 31  1  0
 26 32  1  0
 25 33  1  0
 23 34  1  0
 21 35  1  0
 19 36  1  0
 36 37  1  0
 37 38  1  0
 38 39  1  0
 38 40  1  0
 38 41  1  0
 37 42  1  6
 36 43  1  0
 36 44  1  0
 16 45  1  0
 45 46  2  0
 46 47  1  0
 47 48  1  0
 47 49  2  0
 49 50  1  0
 50 51  2  0
 51 52  1  0
 52 53  2  0
 50 54  1  0
 49 55  1  0
 46 56  1  0
 15 57  1  0
 15 58  1  0
 13 59  1  0
 13 60  1  0
 12 61  1  0
 12 62  1  0
 11 63  1  0
  6 64  1  1
  5 65  1  0
  5 66  1  0
  3 67  1  0
  3 68  1  0
  2 69  1  6
  1 70  1  0
  1 71  1  0
  1 72  1  0
 11  2  1  0
 52 14  1  0
 37 16  1  0
 51 45  1  0
 29 20  1  0
 29 24  1  0
M  CHG  1  11   1
M  END
>  <cnnaffinities>  (83) 
[6.73095]

>  <score>  (83) 
6.73095

>  <index>  (83) 
83

>  <Smiles>  (83) 
C([C@@]1(C(OC([C@@](C([H])([H])[H])([N+]1(C(C(N1C([C@@]2(C(=O)N(c3c(nc(c4c(c(c(c(c34)[H])[H])[H])[H])[H])[H])C([C@@]2(C([H])([H])[H])[H])([H])[H])c2c(c(Cl)c(c(c2C1=O)[H])[H])[H])([H])[H])([H])[H])([H])[H])[H])[H])([H])[H])([H])[H])[H])([H])([H])[H]

>  <h>  (83) 
<NA>

>  <Training>  (83) 
True

>  <Success>  (83) 
True

>  <enamine_searched>  (83) 
False

>  <enamine_id>  (83) 
nan

$$$$

     RDKit          3D

 60 65  0  0  0  0  0  0  0  0999 V2000
    7.5308   -8.7649   22.7258 C   0  0  0  0  0  0  0  0  0  0  0  0
    6.7314   -7.5952   22.4511 N   0  0  0  0  0  0  0  0  0  0  0  0
    7.1531   -6.6929   21.5278 C   0  0  0  0  0  0  0  0  0  0  0  0
    8.0613   -6.8944   20.7383 O   0  0  0  0  0  0  0  0  0  0  0  0
    6.3693   -5.3935   21.5431 C   0  0  0  0  0  0  0  0  0  0  0  0
    6.7419   -4.4018   22.5073 N   0  0  0  0  0  0  0  0  0  0  0  0
    7.7976   -3.4522   22.2196 C   0  0  0  0  0  0  0  0  0  0  0  0
    7.4027   -2.0135   22.6168 C   0  0  2  0  0  0  0  0  0  0  0  0
    6.3127   -1.4978   21.6427 C   0  0  0  0  0  0  0  0  0  0  0  0
    5.1763   -1.9135   21.5350 O   0  0  0  0  0  0  0  0  0  0  0  0
    6.8364   -0.4892   20.8613 N   0  0  0  0  0  0  0  0  0  0  0  0
    6.1096    0.0633   19.7828 C   0  0  0  0  0  0  0  0  0  0  0  0
    6.4662   -0.2206   18.4882 C   0  0  0  0  0  0  0  0  0  0  0  0
    5.8070    0.2262   17.3927 N   0  0  0  0  0  0  0  0  0  0  0  0
    4.7731    1.0102   17.5922 C   0  0  0  0  0  0  0  0  0  0  0  0
    4.3128    1.4057   18.8820 C   0  0  0  0  0  0  0  0  0  0  0  0
    3.1953    2.2677   19.0389 C   0  0  0  0  0  0  0  0  0  0  0  0
    2.7872    2.6512   20.2888 C   0  0  0  0  0  0  0  0  0  0  0  0
    3.4779    2.1949   21.4340 C   0  0  0  0  0  0  0  0  0  0  0  0
    4.5593    1.3580   21.3086 C   0  0  0  0  0  0  0  0  0  0  0  0
    4.9968    0.9312   20.0210 C   0  0  0  0  0  0  0  0  0  0  0  0
    5.0918    1.0123   22.1892 H   0  0  0  0  0  0  0  0  0  0  0  0
    3.1503    2.5162   22.4196 H   0  0  0  0  0  0  0  0  0  0  0  0
    1.9350    3.3152   20.4074 H   0  0  0  0  0  0  0  0  0  0  0  0
    2.6871    2.6234   18.1465 H   0  0  0  0  0  0  0  0  0  0  0  0
    4.2422    1.3730   16.7113 H   0  0  0  0  0  0  0  0  0  0  0  0
    7.3128   -0.8762   18.2893 H   0  0  0  0  0  0  0  0  0  0  0  0
    8.2759   -0.3867   20.9744 C   0  0  0  0  0  0  0  0  0  0  0  0
    8.5636   -1.0014   22.3528 C   0  0  2  0  0  0  0  0  0  0  0  0
    9.9913   -1.5328   22.4441 C   0  0  0  0  0  0  0  0  0  0  0  0
   10.7150   -0.7211   22.3071 H   0  0  0  0  0  0  0  0  0  0  0  0
   10.1929   -2.0068   23.4104 H   0  0  0  0  0  0  0  0  0  0  0  0
   10.1839   -2.2729   21.6585 H   0  0  0  0  0  0  0  0  0  0  0  0
    8.4510   -0.1973   23.0804 H   0  0  0  0  0  0  0  0  0  0  0  0
    8.7933   -0.9445   20.1793 H   0  0  0  0  0  0  0  0  0  0  0  0
    8.5904    0.6598   20.9091 H   0  0  0  0  0  0  0  0  0  0  0  0
    6.8871   -2.0724   24.0472 C   0  0  0  0  0  0  0  0  0  0  0  0
    6.8499   -0.9200   24.8437 C   0  0  0  0  0  0  0  0  0  0  0  0
    6.3742   -0.9868   26.1408 C   0  0  0  0  0  0  0  0  0  0  0  0
    6.3207    0.4684   27.0967 Cl  0  0  0  0  0  0  0  0  0  0  0  0
    5.9306   -2.1843   26.6988 C   0  0  0  0  0  0  0  0  0  0  0  0
    5.9255   -3.3169   25.9099 C   0  0  0  0  0  0  0  0  0  0  0  0
    6.3691   -3.2616   24.5903 C   0  0  0  0  0  0  0  0  0  0  0  0
    6.2175   -4.4921   23.7649 C   0  0  0  0  0  0  0  0  0  0  0  0
    5.6105   -5.4957   24.1402 O   0  0  0  0  0  0  0  0  0  0  0  0
    5.5694   -4.2699   26.2831 H   0  0  0  0  0  0  0  0  0  0  0  0
    5.5797   -2.2105   27.7242 H   0  0  0  0  0  0  0  0  0  0  0  0
    7.1801    0.0426   24.4693 H   0  0  0  0  0  0  0  0  0  0  0  0
    7.9940   -3.4828   21.1610 H   0  0  0  0  0  0  0  0  0  0  0  0
    8.7095   -3.7454   22.7541 H   0  0  0  0  0  0  0  0  0  0  0  0
    4.9203   -5.5589   21.2048 C   0  0  0  0  0  0  0  0  0  0  0  0
    5.8564   -4.9445   20.2119 C   0  0  0  0  0  0  0  0  0  0  0  0
    6.1868   -5.5364   19.3675 H   0  0  0  0  0  0  0  0  0  0  0  0
    5.8020   -3.8683   20.0773 H   0  0  0  0  0  0  0  0  0  0  0  0
    4.6077   -6.5943   21.0775 H   0  0  0  0  0  0  0  0  0  0  0  0
    4.2251   -4.9138   21.7311 H   0  0  0  0  0  0  0  0  0  0  0  0
    6.0895   -7.2283   23.1488 H   0  0  0  0  0  0  0  0  0  0  0  0
    7.6729   -8.8680   23.8005 H   0  0  0  0  0  0  0  0  0  0  0  0
    8.4837   -8.6157   22.2269 H   0  0  0  0  0  0  0  0  0  0  0  0
    7.1009   -9.6889   22.3332 H   0  0  0  0  0  0  0  0  0  0  0  0
  1  2  1  0
  2  3  1  0
  3  4  2  0
  3  5  1  0
  5  6  1  0
  6  7  1  0
  8  7  1  6
  8  9  1  0
  9 10  2  0
  9 11  1  0
 11 12  1  0
 12 13  2  0
 13 14  1  0
 14 15  2  0
 15 16  1  0
 16 17  2  0
 17 18  1  0
 18 19  2  0
 19 20  1  0
 20 21  2  0
 20 22  1  0
 19 23  1  0
 18 24  1  0
 17 25  1  0
 15 26  1  0
 13 27  1  0
 11 28  1  0
 28 29  1  0
 29 30  1  0
 30 31  1  0
 30 32  1  0
 30 33  1  0
 29 34  1  1
 28 35  1  0
 28 36  1  0
  8 37  1  0
 37 38  2  0
 38 39  1  0
 39 40  1  0
 39 41  2  0
 41 42  1  0
 42 43  2  0
 43 44  1  0
 44 45  2  0
 42 46  1  0
 41 47  1  0
 38 48  1  0
  7 49  1  0
  7 50  1  0
  5 51  1  0
 51 52  1  0
 52 53  1  0
 52 54  1  0
 51 55  1  0
 51 56  1  0
  2 57  1  0
  1 58  1  0
  1 59  1  0
  1 60  1  0
 52  5  1  0
 44  6  1  0
 29  8  1  0
 43 37  1  0
 21 12  1  0
 21 16  1  0
M  END
>  <cnnaffinities>  (84) 
[6.69973]

>  <score>  (84) 
6.69973

>  <index>  (84) 
84

>  <Smiles>  (84) 
C(N(C(=O)C1(N2C([C@@]3(C(=O)N(c4c(nc(c5c(c(c(c(c45)[H])[H])[H])[H])[H])[H])C([C@@]3(C([H])([H])[H])[H])([H])[H])c3c(c(Cl)c(c(c3C2=O)[H])[H])[H])([H])[H])C(C1([H])[H])([H])[H])[H])([H])([H])[H]

>  <h>  (84) 
<NA>

>  <Training>  (84) 
True

>  <Success>  (84) 
True

>  <enamine_searched>  (84) 
False

>  <enamine_id>  (84) 
nan

$$$$

     RDKit          3D

 55 60  0  0  0  0  0  0  0  0999 V2000
    7.2993   -2.5619   23.7976 C   0  0  0  0  0  0  0  0  0  0  0  0
    7.7128   -1.8420   22.5172 C   0  0  1  0  0  0  0  0  0  0  0  0
    6.5426   -1.6474   21.5397 C   0  0  0  0  0  0  0  0  0  0  0  0
    6.8847   -0.4367   20.8277 N   0  0  0  0  0  0  0  0  0  0  0  0
    6.1185    0.0889   19.7577 C   0  0  0  0  0  0  0  0  0  0  0  0
    6.4499   -0.2209   18.4661 C   0  0  0  0  0  0  0  0  0  0  0  0
    5.7787    0.2226   17.3731 N   0  0  0  0  0  0  0  0  0  0  0  0
    4.7536    1.0147   17.5820 C   0  0  0  0  0  0  0  0  0  0  0  0
    4.3004    1.4134   18.8731 C   0  0  0  0  0  0  0  0  0  0  0  0
    3.1805    2.2675   19.0476 C   0  0  0  0  0  0  0  0  0  0  0  0
    2.7611    2.6152   20.3012 C   0  0  0  0  0  0  0  0  0  0  0  0
    3.4436    2.1330   21.4416 C   0  0  0  0  0  0  0  0  0  0  0  0
    4.5346    1.3109   21.2994 C   0  0  0  0  0  0  0  0  0  0  0  0
    4.9943    0.9332   20.0062 C   0  0  0  0  0  0  0  0  0  0  0  0
    5.0588    0.9538   22.1827 H   0  0  0  0  0  0  0  0  0  0  0  0
    3.0986    2.4218   22.4308 H   0  0  0  0  0  0  0  0  0  0  0  0
    1.9063    3.2698   20.4339 H   0  0  0  0  0  0  0  0  0  0  0  0
    2.6733    2.6375   18.1608 H   0  0  0  0  0  0  0  0  0  0  0  0
    4.2157    1.3790   16.7066 H   0  0  0  0  0  0  0  0  0  0  0  0
    7.3095   -0.8601   18.2738 H   0  0  0  0  0  0  0  0  0  0  0  0
    7.8674    0.3198   21.4217 C   0  0  0  0  0  0  0  0  0  0  0  0
    8.2571    1.3811   20.9878 O   0  0  0  0  0  0  0  0  0  0  0  0
    8.3696   -0.4334   22.6777 C   0  0  1  0  0  0  0  0  0  0  0  0
    7.9197    0.2632   23.9789 C   0  0  0  0  0  0  0  0  0  0  0  0
    8.6288    1.5070   24.2120 N   0  0  0  0  0  0  0  0  0  0  0  0
    7.8801    2.6874   24.5893 C   0  0  0  0  0  0  0  0  0  0  0  0
    7.5311    3.6003   23.4568 C   0  0  0  0  0  0  0  0  0  0  0  0
    6.3607    3.8199   22.8143 C   0  0  0  0  0  0  0  0  0  0  0  0
    6.5249    4.8364   21.9316 O   0  0  0  0  0  0  0  0  0  0  0  0
    7.8152    5.1797   22.0661 C   0  0  0  0  0  0  0  0  0  0  0  0
    8.4642    4.4941   22.9480 N   0  0  0  0  0  0  0  0  0  0  0  0
    8.1637    5.9861   21.4352 H   0  0  0  0  0  0  0  0  0  0  0  0
    5.3908    3.3730   22.7937 H   0  0  0  0  0  0  0  0  0  0  0  0
    6.9827    2.3625   25.1237 H   0  0  0  0  0  0  0  0  0  0  0  0
    8.4941    3.2632   25.2798 H   0  0  0  0  0  0  0  0  0  0  0  0
    9.9991    1.5751   24.1604 C   0  0  0  0  0  0  0  0  0  0  0  0
   10.6421    2.4787   24.6720 O   0  0  0  0  0  0  0  0  0  0  0  0
   10.6514    0.4802   23.3771 C   0  0  0  0  0  0  0  0  0  0  0  0
   12.0453    0.4547   23.2980 C   0  0  0  0  0  0  0  0  0  0  0  0
   12.6840   -0.4115   22.4306 C   0  0  0  0  0  0  0  0  0  0  0  0
   11.8896   -1.2345   21.6304 C   0  0  0  0  0  0  0  0  0  0  0  0
   12.4044   -2.0263   20.6745 F   0  0  0  0  0  0  0  0  0  0  0  0
   10.5220   -1.2601   21.7367 C   0  0  0  0  0  0  0  0  0  0  0  0
    9.8791   -0.4323   22.6505 C   0  0  0  0  0  0  0  0  0  0  0  0
    9.9860   -1.9233   21.0685 H   0  0  0  0  0  0  0  0  0  0  0  0
   13.7650   -0.4112   22.3635 H   0  0  0  0  0  0  0  0  0  0  0  0
   12.6115    1.1552   23.9034 H   0  0  0  0  0  0  0  0  0  0  0  0
    8.0865   -0.4237   24.8209 H   0  0  0  0  0  0  0  0  0  0  0  0
    6.8485    0.4797   23.9224 H   0  0  0  0  0  0  0  0  0  0  0  0
    5.5853   -1.5464   22.0748 H   0  0  0  0  0  0  0  0  0  0  0  0
    6.4454   -2.4863   20.8427 H   0  0  0  0  0  0  0  0  0  0  0  0
    8.4449   -2.4826   22.0220 H   0  0  0  0  0  0  0  0  0  0  0  0
    8.1480   -2.6870   24.4789 H   0  0  0  0  0  0  0  0  0  0  0  0
    6.9116   -3.5573   23.5608 H   0  0  0  0  0  0  0  0  0  0  0  0
    6.5121   -2.0146   24.3281 H   0  0  0  0  0  0  0  0  0  0  0  0
  1  2  1  0
  2  3  1  0
  3  4  1  0
  4  5  1  0
  5  6  2  0
  6  7  1  0
  7  8  2  0
  8  9  1  0
  9 10  2  0
 10 11  1  0
 11 12  2  0
 12 13  1  0
 13 14  2  0
 13 15  1  0
 12 16  1  0
 11 17  1  0
 10 18  1  0
  8 19  1  0
  6 20  1  0
  4 21  1  0
 21 22  2  0
 21 23  1  0
 23 24  1  1
 24 25  1  0
 25 26  1  0
 26 27  1  0
 27 28  2  0
 28 29  1  0
 29 30  1  0
 30 31  2  0
 30 32  1  0
 28 33  1  0
 26 34  1  0
 26 35  1  0
 25 36  1  0
 36 37  2  0
 36 38  1  0
 38 39  2  0
 39 40  1  0
 40 41  2  0
 41 42  1  0
 41 43  1  0
 43 44  2  0
 43 45  1  0
 40 46  1  0
 39 47  1  0
 24 48  1  0
 24 49  1  0
  3 50  1  0
  3 51  1  0
  2 52  1  6
  1 53  1  0
  1 54  1  0
  1 55  1  0
 23  2  1  0
 31 27  1  0
 44 38  1  0
 14  5  1  0
 44 23  1  0
 14  9  1  0
M  END
>  <cnnaffinities>  (85) 
[6.17011]

>  <score>  (85) 
6.17011

>  <index>  (85) 
85

>  <Smiles>  (85) 
C([C@]1(C(N(c2c(nc(c3c(c(c(c(c23)[H])[H])[H])[H])[H])[H])C(=O)[C@]21C(N(C(c1c(oc(n1)[H])[H])([H])[H])C(=O)c1c(c(c(F)c(c21)[H])[H])[H])([H])[H])([H])[H])[H])([H])([H])[H]

>  <h>  (85) 
<NA>

>  <Training>  (85) 
True

>  <Success>  (85) 
True

>  <enamine_searched>  (85) 
False

>  <enamine_id>  (85) 
nan

$$$$

     RDKit          3D

 65 70  0  0  0  0  0  0  0  0999 V2000
    2.3334   -5.2647   22.6305 C   0  0  0  0  0  0  0  0  0  0  0  0
    3.5715   -5.3753   23.3853 N   0  0  0  0  0  0  0  0  0  0  0  0
    4.7564   -5.2248   22.7227 C   0  0  0  0  0  0  0  0  0  0  0  0
    4.8237   -5.1526   21.5083 O   0  0  0  0  0  0  0  0  0  0  0  0
    6.0265   -5.1251   23.5669 C   0  0  0  0  0  0  0  0  0  0  0  0
    6.3383   -3.7246   23.8041 N   0  0  0  0  0  0  0  0  0  0  0  0
    7.4880   -3.1342   23.1390 C   0  0  0  0  0  0  0  0  0  0  0  0
    7.3205   -1.6219   22.8512 C   0  0  2  0  0  0  0  0  0  0  0  0
    6.3235   -1.4075   21.6965 C   0  0  0  0  0  0  0  0  0  0  0  0
    5.2324   -1.9097   21.5563 O   0  0  0  0  0  0  0  0  0  0  0  0
    6.8663   -0.4899   20.8349 N   0  0  0  0  0  0  0  0  0  0  0  0
    6.1176    0.0595   19.7782 C   0  0  0  0  0  0  0  0  0  0  0  0
    6.4755   -0.2251   18.4865 C   0  0  0  0  0  0  0  0  0  0  0  0
    5.8173    0.2232   17.3929 N   0  0  0  0  0  0  0  0  0  0  0  0
    4.7849    1.0047   17.6062 C   0  0  0  0  0  0  0  0  0  0  0  0
    4.3280    1.3967   18.8976 C   0  0  0  0  0  0  0  0  0  0  0  0
    3.2116    2.2567   19.0496 C   0  0  0  0  0  0  0  0  0  0  0  0
    2.8022    2.6462   20.2932 C   0  0  0  0  0  0  0  0  0  0  0  0
    3.4954    2.2012   21.4440 C   0  0  0  0  0  0  0  0  0  0  0  0
    4.5814    1.3679   21.3306 C   0  0  0  0  0  0  0  0  0  0  0  0
    5.0123    0.9273   20.0390 C   0  0  0  0  0  0  0  0  0  0  0  0
    5.1104    1.0495   22.2324 H   0  0  0  0  0  0  0  0  0  0  0  0
    3.1624    2.5311   22.4241 H   0  0  0  0  0  0  0  0  0  0  0  0
    1.9504    3.3111   20.4052 H   0  0  0  0  0  0  0  0  0  0  0  0
    2.7117    2.6056   18.1497 H   0  0  0  0  0  0  0  0  0  0  0  0
    4.2490    1.3739   16.7318 H   0  0  0  0  0  0  0  0  0  0  0  0
    7.3299   -0.8758   18.3039 H   0  0  0  0  0  0  0  0  0  0  0  0
    8.1983   -0.0502   21.1589 C   0  0  0  0  0  0  0  0  0  0  0  0
    8.6224   -0.9490   22.3306 C   0  0  2  0  0  0  0  0  0  0  0  0
    9.7515   -1.9007   21.8983 C   0  0  0  0  0  0  0  0  0  0  0  0
   10.8972   -1.1430   21.4381 N   0  0  0  0  0  0  0  0  0  0  0  0
   11.7838   -0.5856   22.2905 C   0  0  0  0  0  0  0  0  0  0  0  0
   12.8088    0.1032   21.7432 N   0  0  0  0  0  0  0  0  0  0  0  0
   13.6646    0.5751   22.6251 C   0  0  0  0  0  0  0  0  0  0  0  0
   13.5982    0.4660   23.9573 N   0  0  0  0  0  0  0  0  0  0  0  0
   12.5252   -0.2016   24.3727 C   0  0  0  0  0  0  0  0  0  0  0  0
   11.5769   -0.7307   23.6157 N   0  0  0  0  0  0  0  0  0  0  0  0
   12.4233   -0.3147   25.4520 H   0  0  0  0  0  0  0  0  0  0  0  0
   14.5215    1.1186   22.2273 H   0  0  0  0  0  0  0  0  0  0  0  0
   11.2202   -1.2626   20.4912 H   0  0  0  0  0  0  0  0  0  0  0  0
    9.4143   -2.5622   21.0937 H   0  0  0  0  0  0  0  0  0  0  0  0
   10.0785   -2.5059   22.7481 H   0  0  0  0  0  0  0  0  0  0  0  0
    9.0588   -0.3543   23.1360 H   0  0  0  0  0  0  0  0  0  0  0  0
    8.2124    1.0172   21.4124 H   0  0  0  0  0  0  0  0  0  0  0  0
    8.8490   -0.1713   20.2977 H   0  0  0  0  0  0  0  0  0  0  0  0
    6.7733   -0.9368   24.0994 C   0  0  0  0  0  0  0  0  0  0  0  0
    6.9602    0.4319   24.3315 C   0  0  0  0  0  0  0  0  0  0  0  0
    6.4370    1.0256   25.4673 C   0  0  0  0  0  0  0  0  0  0  0  0
    6.6864    2.7275   25.7351 Cl  0  0  0  0  0  0  0  0  0  0  0  0
    5.7077    0.2906   26.3998 C   0  0  0  0  0  0  0  0  0  0  0  0
    5.4733   -1.0454   26.1488 C   0  0  0  0  0  0  0  0  0  0  0  0
    5.9679   -1.6458   24.9927 C   0  0  0  0  0  0  0  0  0  0  0  0
    5.5864   -3.0622   24.7207 C   0  0  0  0  0  0  0  0  0  0  0  0
    4.6375   -3.6024   25.2979 O   0  0  0  0  0  0  0  0  0  0  0  0
    4.8955   -1.6572   26.8340 H   0  0  0  0  0  0  0  0  0  0  0  0
    5.3159    0.7679   27.2897 H   0  0  0  0  0  0  0  0  0  0  0  0
    7.5104    1.0589   23.6381 H   0  0  0  0  0  0  0  0  0  0  0  0
    8.3702   -3.2801   23.7740 H   0  0  0  0  0  0  0  0  0  0  0  0
    7.6346   -3.6670   22.1941 H   0  0  0  0  0  0  0  0  0  0  0  0
    6.8493   -5.5836   23.0070 H   0  0  0  0  0  0  0  0  0  0  0  0
    5.9333   -5.6490   24.5197 H   0  0  0  0  0  0  0  0  0  0  0  0
    3.5556   -5.0903   24.3575 H   0  0  0  0  0  0  0  0  0  0  0  0
    1.5025   -5.2170   23.3336 H   0  0  0  0  0  0  0  0  0  0  0  0
    2.3155   -4.3691   22.0007 H   0  0  0  0  0  0  0  0  0  0  0  0
    2.1795   -6.1312   21.9860 H   0  0  0  0  0  0  0  0  0  0  0  0
  1  2  1  0
  2  3  1  0
  3  4  2  0
  3  5  1  0
  5  6  1  0
  6  7  1  0
  8  7  1  1
  8  9  1  0
  9 10  2  0
  9 11  1  0
 11 12  1  0
 12 13  2  0
 13 14  1  0
 14 15  2  0
 15 16  1  0
 16 17  2  0
 17 18  1  0
 18 19  2  0
 19 20  1  0
 20 21  2  0
 20 22  1  0
 19 23  1  0
 18 24  1  0
 17 25  1  0
 15 26  1  0
 13 27  1  0
 11 28  1  0
 28 29  1  0
 29 30  1  0
 30 31  1  0
 31 32  1  0
 32 33  2  0
 33 34  1  0
 34 35  2  0
 35 36  1  0
 36 37  2  0
 36 38  1  0
 34 39  1  0
 31 40  1  0
 30 41  1  0
 30 42  1  0
 29 43  1  1
 28 44  1  0
 28 45  1  0
  8 46  1  0
 46 47  2  0
 47 48  1  0
 48 49  1  0
 48 50  2  0
 50 51  1  0
 51 52  2  0
 52 53  1  0
 53 54  2  0
 51 55  1  0
 50 56  1  0
 47 57  1  0
  7 58  1  0
  7 59  1  0
  5 60  1  0
  5 61  1  0
  2 62  1  0
  1 63  1  0
  1 64  1  0
  1 65  1  0
 53  6  1  0
 29  8  1  0
 37 32  1  0
 52 46  1  0
 21 12  1  0
 21 16  1  0
M  END
>  <cnnaffinities>  (86) 
[7.31353]

>  <score>  (86) 
7.31353

>  <index>  (86) 
86

>  <Smiles>  (86) 
C(N(C(=O)C(N1C([C@@]2(C(=O)N(c3c(nc(c4c(c(c(c(c34)[H])[H])[H])[H])[H])[H])C([C@@]2(C(N(c2nc(nc(n2)[H])[H])[H])([H])[H])[H])([H])[H])c2c(c(Cl)c(c(c2C1=O)[H])[H])[H])([H])[H])([H])[H])[H])([H])([H])[H]

>  <h>  (86) 
<NA>

>  <Training>  (86) 
True

>  <Success>  (86) 
True

>  <enamine_searched>  (86) 
False

>  <enamine_id>  (86) 
nan

$$$$

     RDKit          3D

 63 68  0  0  0  0  0  0  0  0999 V2000
    6.6421    4.3641   22.0007 C   0  0  0  0  0  0  0  0  0  0  0  0
    7.4008    3.9003   23.1462 N   0  0  0  0  0  0  0  0  0  0  0  0
    6.8037    3.1036   24.0682 C   0  0  0  0  0  0  0  0  0  0  0  0
    5.6004    2.9012   24.1017 O   0  0  0  0  0  0  0  0  0  0  0  0
    7.7672    2.4557   25.0723 C   0  0  0  0  0  0  0  0  0  0  0  0
    8.5464    1.4070   24.4334 N   0  0  0  0  0  0  0  0  0  0  0  0
    7.8664    0.1712   24.0761 C   0  0  0  0  0  0  0  0  0  0  0  0
    8.2702   -0.3708   22.6853 C   0  0  2  0  0  0  0  0  0  0  0  0
    7.7114    0.5287   21.5517 C   0  0  0  0  0  0  0  0  0  0  0  0
    7.9230    1.7153   21.3957 O   0  0  0  0  0  0  0  0  0  0  0  0
    6.9604   -0.2550   20.7068 N   0  0  0  0  0  0  0  0  0  0  0  0
    6.1811    0.2544   19.6384 C   0  0  0  0  0  0  0  0  0  0  0  0
    6.4266   -0.1657   18.3567 C   0  0  0  0  0  0  0  0  0  0  0  0
    5.7130    0.2232   17.2727 N   0  0  0  0  0  0  0  0  0  0  0  0
    4.7102    1.0444   17.4769 C   0  0  0  0  0  0  0  0  0  0  0  0
    4.3084    1.5083   18.7628 C   0  0  0  0  0  0  0  0  0  0  0  0
    3.1780    2.3502   18.9513 C   0  0  0  0  0  0  0  0  0  0  0  0
    2.7810    2.7181   20.2084 C   0  0  0  0  0  0  0  0  0  0  0  0
    3.4998    2.2749   21.3427 C   0  0  0  0  0  0  0  0  0  0  0  0
    4.6052    1.4764   21.1843 C   0  0  0  0  0  0  0  0  0  0  0  0
    5.0514    1.0902   19.8874 C   0  0  0  0  0  0  0  0  0  0  0  0
    5.1684    1.1707   22.0618 H   0  0  0  0  0  0  0  0  0  0  0  0
    3.2024    2.5861   22.3414 H   0  0  0  0  0  0  0  0  0  0  0  0
    1.9162    3.3624   20.3440 H   0  0  0  0  0  0  0  0  0  0  0  0
    2.6471    2.7012   18.0711 H   0  0  0  0  0  0  0  0  0  0  0  0
    4.1529    1.3705   16.6001 H   0  0  0  0  0  0  0  0  0  0  0  0
    7.2455   -0.8584   18.1676 H   0  0  0  0  0  0  0  0  0  0  0  0
    6.6222   -1.5391   21.2716 C   0  0  0  0  0  0  0  0  0  0  0  0
    7.6725   -1.7709   22.3607 C   0  0  2  0  0  0  0  0  0  0  0  0
    7.1078   -2.6302   23.5039 C   0  0  0  0  0  0  0  0  0  0  0  0
    6.7418   -3.9719   23.0248 N   0  0  0  0  0  0  0  0  0  0  0  0
    7.5556   -4.9596   23.0307 C   0  0  0  0  0  0  0  0  0  0  0  0
    6.5268   -6.1369   22.3997 C   0  0  0  0  0  0  0  0  0  0  0  0
    6.7401   -5.7914   22.2492 C   0  0  0  0  0  0  0  0  0  0  0  0
    5.6177   -4.1438   22.4067 N   0  0  0  0  0  0  0  0  0  0  0  0
    5.8031   -6.5594   23.0857 H   0  0  0  0  0  0  0  0  0  0  0  0
    6.9790   -7.1628   22.3258 H   0  0  0  0  0  0  0  0  0  0  0  0
    8.5817   -4.9275   23.3237 H   0  0  0  0  0  0  0  0  0  0  0  0
    7.8375   -2.7262   24.3164 H   0  0  0  0  0  0  0  0  0  0  0  0
    6.1694   -2.2019   23.8750 H   0  0  0  0  0  0  0  0  0  0  0  0
    8.5030   -2.3397   21.9473 H   0  0  0  0  0  0  0  0  0  0  0  0
    5.6049   -1.5284   21.6978 H   0  0  0  0  0  0  0  0  0  0  0  0
    6.6299   -2.3385   20.5281 H   0  0  0  0  0  0  0  0  0  0  0  0
    9.7841   -0.3211   22.5567 C   0  0  0  0  0  0  0  0  0  0  0  0
   10.4256   -1.0890   21.5785 C   0  0  0  0  0  0  0  0  0  0  0  0
   11.7935   -1.0241   21.4289 C   0  0  0  0  0  0  0  0  0  0  0  0
   12.5177   -1.9523   20.1466 Cl  0  0  0  0  0  0  0  0  0  0  0  0
   12.5585   -0.1524   22.2021 C   0  0  0  0  0  0  0  0  0  0  0  0
   11.9199    0.6762   23.1042 C   0  0  0  0  0  0  0  0  0  0  0  0
   10.5353    0.6140   23.2710 C   0  0  0  0  0  0  0  0  0  0  0  0
    9.8633    1.6343   24.1460 C   0  0  0  0  0  0  0  0  0  0  0  0
   10.4585    2.6296   24.5374 O   0  0  0  0  0  0  0  0  0  0  0  0
   12.4746    1.4081   23.6778 H   0  0  0  0  0  0  0  0  0  0  0  0
   13.6308   -0.1160   22.0602 H   0  0  0  0  0  0  0  0  0  0  0  0
    9.8649   -1.7030   20.8833 H   0  0  0  0  0  0  0  0  0  0  0  0
    6.7928    0.3734   24.0999 H   0  0  0  0  0  0  0  0  0  0  0  0
    8.0848   -0.5957   24.8259 H   0  0  0  0  0  0  0  0  0  0  0  0
    8.4854    3.1752   25.4736 H   0  0  0  0  0  0  0  0  0  0  0  0
    7.1673    2.0492   25.8926 H   0  0  0  0  0  0  0  0  0  0  0  0
    8.3897    3.7663   22.9971 H   0  0  0  0  0  0  0  0  0  0  0  0
    5.7562    4.9013   22.3502 H   0  0  0  0  0  0  0  0  0  0  0  0
    6.3226    3.5316   21.3618 H   0  0  0  0  0  0  0  0  0  0  0  0
    7.2698    5.0423   21.4188 H   0  0  0  0  0  0  0  0  0  0  0  0
  1  2  1  0
  2  3  1  0
  3  4  2  0
  3  5  1  0
  5  6  1  0
  6  7  1  0
  8  7  1  1
  8  9  1  0
  9 10  2  0
  9 11  1  0
 11 12  1  0
 12 13  2  0
 13 14  1  0
 14 15  2  0
 15 16  1  0
 16 17  2  0
 17 18  1  0
 18 19  2  0
 19 20  1  0
 20 21  2  0
 20 22  1  0
 19 23  1  0
 18 24  1  0
 17 25  1  0
 15 26  1  0
 13 27  1  0
 11 28  1  0
 28 29  1  0
 29 30  1  0
 30 31  1  0
 31 32  1  0
 32 33  2  0
 33 34  1  0
 34 35  2  0
 34 36  1  0
 33 37  1  0
 32 38  1  0
 30 39  1  0
 30 40  1  0
 29 41  1  6
 28 42  1  0
 28 43  1  0
  8 44  1  0
 44 45  2  0
 45 46  1  0
 46 47  1  0
 46 48  2  0
 48 49  1  0
 49 50  2  0
 50 51  1  0
 51 52  2  0
 49 53  1  0
 48 54  1  0
 45 55  1  0
  7 56  1  0
  7 57  1  0
  5 58  1  0
  5 59  1  0
  2 60  1  0
  1 61  1  0
  1 62  1  0
  1 63  1  0
 51  6  1  0
 29  8  1  0
 35 31  1  0
 50 44  1  0
 21 12  1  0
 21 16  1  0
M  END
>  <cnnaffinities>  (87) 
[6.7949]

>  <score>  (87) 
6.7949

>  <index>  (87) 
87

>  <Smiles>  (87) 
C(N(C(=O)C(N1C([C@@]2(C(=O)N(c3c(nc(c4c(c(c(c(c34)[H])[H])[H])[H])[H])[H])C([C@@]2(C(n2c(c(c(n2)[H])[H])[H])([H])[H])[H])([H])[H])c2c(c(Cl)c(c(c2C1=O)[H])[H])[H])([H])[H])([H])[H])[H])([H])([H])[H]

>  <h>  (87) 
<NA>

>  <Training>  (87) 
True

>  <Success>  (87) 
True

>  <enamine_searched>  (87) 
False

>  <enamine_id>  (87) 
nan

$$$$

     RDKit          3D

 64 68  0  0  0  0  0  0  0  0999 V2000
    4.2879    2.5189   28.4248 C   0  0  0  0  0  0  0  0  0  0  0  0
    3.8663    2.6810   26.9608 C   0  0  0  0  0  0  0  0  0  0  0  0
    4.5455    1.6738   26.0261 C   0  0  0  0  0  0  0  0  0  0  0  0
    3.8200    0.8339   25.5148 O   0  0  0  0  0  0  0  0  0  0  0  0
    5.8992    1.7911   25.6958 N   0  0  0  0  0  0  0  0  0  0  0  0
    6.6463    2.9102   26.2912 C   0  0  0  0  0  0  0  0  0  0  0  0
    7.8169    3.3477   25.4184 C   0  0  0  0  0  0  0  0  0  0  0  0
    8.7156    2.1474   25.1946 C   0  0  0  0  0  0  0  0  0  0  0  0
    7.9287    1.0814   24.5121 C   0  0  0  0  0  0  0  0  0  0  0  0
    8.5852    0.2574   23.6071 C   0  0  0  0  0  0  0  0  0  0  0  0
    7.8822   -0.7390   22.9583 C   0  0  0  0  0  0  0  0  0  0  0  0
    6.5294   -0.9234   23.2126 C   0  0  0  0  0  0  0  0  0  0  0  0
    5.8568   -1.8585   22.4375 N   0  0  0  0  0  0  0  0  0  0  0  0
    5.1554   -2.9577   23.0973 C   0  0  0  0  0  0  0  0  0  0  0  0
    6.1509   -3.8735   23.7494 C   0  0  0  0  0  0  0  0  0  0  0  0
    6.7833   -3.4369   24.9227 C   0  0  0  0  0  0  0  0  0  0  0  0
    7.7480   -4.2262   25.5466 C   0  0  0  0  0  0  0  0  0  0  0  0
    8.0130   -5.5067   25.0447 C   0  0  0  0  0  0  0  0  0  0  0  0
    7.3547   -5.9750   23.8969 C   0  0  0  0  0  0  0  0  0  0  0  0
    7.6353   -7.7697   23.2834 Br  0  0  0  0  0  0  0  0  0  0  0  0
    6.4652   -5.1366   23.2164 C   0  0  0  0  0  0  0  0  0  0  0  0
    6.0059   -5.4633   22.2838 H   0  0  0  0  0  0  0  0  0  0  0  0
    8.7406   -6.1489   25.5289 H   0  0  0  0  0  0  0  0  0  0  0  0
    8.2776   -3.8582   26.4233 H   0  0  0  0  0  0  0  0  0  0  0  0
    6.5480   -2.4599   25.3383 H   0  0  0  0  0  0  0  0  0  0  0  0
    4.4893   -2.5555   23.8649 H   0  0  0  0  0  0  0  0  0  0  0  0
    4.5361   -3.5154   22.3903 H   0  0  0  0  0  0  0  0  0  0  0  0
    6.0371   -1.8115   21.0627 C   0  0  0  0  0  0  0  0  0  0  0  0
    5.4725   -2.6307   20.3406 O   0  0  0  0  0  0  0  0  0  0  0  0
    6.9279   -0.7164   20.4281 C   0  0  0  0  0  0  0  0  0  0  0  0
    6.2251    0.0486   19.3395 C   0  0  0  0  0  0  0  0  0  0  0  0
    6.6033   -0.1005   17.9988 C   0  0  0  0  0  0  0  0  0  0  0  0
    5.9385    0.4801   16.9874 N   0  0  0  0  0  0  0  0  0  0  0  0
    4.8750    1.2483   17.2887 C   0  0  0  0  0  0  0  0  0  0  0  0
    4.4495    1.4845   18.6027 C   0  0  0  0  0  0  0  0  0  0  0  0
    3.3292    2.2847   18.8799 C   0  0  0  0  0  0  0  0  0  0  0  0
    2.9362    2.5151   20.2037 C   0  0  0  0  0  0  0  0  0  0  0  0
    3.6560    1.9483   21.2601 C   0  0  0  0  0  0  0  0  0  0  0  0
    4.7591    1.1328   20.9852 C   0  0  0  0  0  0  0  0  0  0  0  0
    5.1540    0.8899   19.6587 C   0  0  0  0  0  0  0  0  0  0  0  0
    5.3137    0.6912   21.8077 H   0  0  0  0  0  0  0  0  0  0  0  0
    3.3572    2.1353   22.2888 H   0  0  0  0  0  0  0  0  0  0  0  0
    2.0737    3.1405   20.4139 H   0  0  0  0  0  0  0  0  0  0  0  0
    2.7637    2.7331   18.0684 H   0  0  0  0  0  0  0  0  0  0  0  0
    4.3195    1.6945   16.4700 H   0  0  0  0  0  0  0  0  0  0  0  0
    7.4516   -0.7442   17.7787 H   0  0  0  0  0  0  0  0  0  0  0  0
    7.2071    0.0249   21.1776 H   0  0  0  0  0  0  0  0  0  0  0  0
    7.8467   -1.1793   20.0645 H   0  0  0  0  0  0  0  0  0  0  0  0
    5.8712   -0.1254   24.1447 C   0  0  0  0  0  0  0  0  0  0  0  0
    6.5547    0.9071   24.8078 C   0  0  0  0  0  0  0  0  0  0  0  0
    4.8136   -0.2920   24.2924 H   0  0  0  0  0  0  0  0  0  0  0  0
    8.3655   -1.3417   22.2003 H   0  0  0  0  0  0  0  0  0  0  0  0
    9.6377    0.4048   23.3885 H   0  0  0  0  0  0  0  0  0  0  0  0
    9.6013    2.4255   24.6126 H   0  0  0  0  0  0  0  0  0  0  0  0
    9.0434    1.7447   26.1490 H   0  0  0  0  0  0  0  0  0  0  0  0
    8.3659    4.1494   25.9096 H   0  0  0  0  0  0  0  0  0  0  0  0
    7.4655    3.7360   24.4618 H   0  0  0  0  0  0  0  0  0  0  0  0
    7.0421    2.6069   27.2637 H   0  0  0  0  0  0  0  0  0  0  0  0
    5.9936    3.7754   26.4440 H   0  0  0  0  0  0  0  0  0  0  0  0
    2.7814    2.5585   26.8820 H   0  0  0  0  0  0  0  0  0  0  0  0
    4.1159    3.6887   26.6228 H   0  0  0  0  0  0  0  0  0  0  0  0
    3.9635    1.5483   28.8140 H   0  0  0  0  0  0  0  0  0  0  0  0
    5.3748    2.5895   28.5277 H   0  0  0  0  0  0  0  0  0  0  0  0
    3.8322    3.3096   29.0305 H   0  0  0  0  0  0  0  0  0  0  0  0
  1  2  1  0
  2  3  1  0
  3  4  2  0
  3  5  1  0
  5  6  1  0
  6  7  1  0
  7  8  1  0
  8  9  1  0
  9 10  2  0
 10 11  1  0
 11 12  2  0
 12 13  1  0
 13 14  1  0
 14 15  1  0
 15 16  2  0
 16 17  1  0
 17 18  2  0
 18 19  1  0
 19 20  1  0
 19 21  2  0
 21 22  1  0
 18 23  1  0
 17 24  1  0
 16 25  1  0
 14 26  1  0
 14 27  1  0
 13 28  1  0
 28 29  2  0
 28 30  1  0
 30 31  1  0
 31 32  2  0
 32 33  1  0
 33 34  2  0
 34 35  1  0
 35 36  2  0
 36 37  1  0
 37 38  2  0
 38 39  1  0
 39 40  2  0
 39 41  1  0
 38 42  1  0
 37 43  1  0
 36 44  1  0
 34 45  1  0
 32 46  1  0
 30 47  1  0
 30 48  1  0
 12 49  1  0
 49 50  2  0
 49 51  1  0
 11 52  1  0
 10 53  1  0
  8 54  1  0
  8 55  1  0
  7 56  1  0
  7 57  1  0
  6 58  1  0
  6 59  1  0
  2 60  1  0
  2 61  1  0
  1 62  1  0
  1 63  1  0
  1 64  1  0
 50  5  1  0
 50  9  1  0
 21 15  1  0
 40 31  1  0
 40 35  1  0
M  END
>  <cnnaffinities>  (88) 
[6.17276]

>  <score>  (88) 
6.17276

>  <index>  (88) 
88

>  <Smiles>  (88) 
C(C(C(=O)N1C(C(C(c2c(c(c(N(C(c3c(c(c(c(Br)c3[H])[H])[H])[H])([H])[H])C(=O)C(c3c(nc(c4c(c(c(c(c34)[H])[H])[H])[H])[H])[H])([H])[H])c(c12)[H])[H])[H])([H])[H])([H])[H])([H])[H])([H])[H])([H])([H])[H]

>  <h>  (88) 
<NA>

>  <Training>  (88) 
True

>  <Success>  (88) 
True

>  <enamine_searched>  (88) 
False

>  <enamine_id>  (88) 
nan

$$$$

     RDKit          3D

 38 40  0  0  0  0  0  0  0  0999 V2000
    8.0552    1.6764   20.9671 O   0  0  0  0  0  0  0  0  0  0  0  0
    7.8875    0.6108   21.5300 C   0  0  0  0  0  0  0  0  0  0  0  0
    6.9517   -0.4558   20.9121 C   0  0  0  0  0  0  0  0  0  0  0  0
    6.1175    0.0874   19.7721 C   0  0  0  0  0  0  0  0  0  0  0  0
    6.4286   -0.2081   18.4709 C   0  0  0  0  0  0  0  0  0  0  0  0
    5.7626    0.2380   17.3708 N   0  0  0  0  0  0  0  0  0  0  0  0
    4.7375    1.0286   17.5772 C   0  0  0  0  0  0  0  0  0  0  0  0
    4.2913    1.4242   18.8667 C   0  0  0  0  0  0  0  0  0  0  0  0
    3.1726    2.2801   19.0431 C   0  0  0  0  0  0  0  0  0  0  0  0
    2.7672    2.6471   20.2980 C   0  0  0  0  0  0  0  0  0  0  0  0
    3.4669    2.1724   21.4302 C   0  0  0  0  0  0  0  0  0  0  0  0
    4.5536    1.3437   21.2868 C   0  0  0  0  0  0  0  0  0  0  0  0
    4.9983    0.9452   19.9986 C   0  0  0  0  0  0  0  0  0  0  0  0
    5.0849    0.9936   22.1668 H   0  0  0  0  0  0  0  0  0  0  0  0
    3.1421    2.4725   22.4224 H   0  0  0  0  0  0  0  0  0  0  0  0
    1.9136    3.3085   20.4343 H   0  0  0  0  0  0  0  0  0  0  0  0
    2.6493    2.6464   18.1619 H   0  0  0  0  0  0  0  0  0  0  0  0
    4.2016    1.3973   16.6990 H   0  0  0  0  0  0  0  0  0  0  0  0
    7.2747   -0.8562   18.2452 H   0  0  0  0  0  0  0  0  0  0  0  0
    6.3000   -0.8843   21.6867 H   0  0  0  0  0  0  0  0  0  0  0  0
    7.5689   -1.2876   20.5386 H   0  0  0  0  0  0  0  0  0  0  0  0
    8.4984    0.3264   22.7413 N   0  0  0  0  0  0  0  0  0  0  0  0
    8.8165   -1.0452   23.1442 C   0  0  0  0  0  0  0  0  0  0  0  0
    9.9944   -1.6533   22.4088 C   0  0  0  0  0  0  0  0  0  0  0  0
   11.2170   -1.1278   22.4430 C   0  0  0  0  0  0  0  0  0  0  0  0
   11.5862    0.1016   23.2434 C   0  0  0  0  0  0  0  0  0  0  0  0
   10.8023    1.3666   22.8580 C   0  0  0  0  0  0  0  0  0  0  0  0
    9.3454    1.3709   23.3255 C   0  0  0  0  0  0  0  0  0  0  0  0
    9.3342    1.2316   24.4112 H   0  0  0  0  0  0  0  0  0  0  0  0
    8.8843    2.3374   23.1152 H   0  0  0  0  0  0  0  0  0  0  0  0
   10.8157    1.4879   21.7738 H   0  0  0  0  0  0  0  0  0  0  0  0
   11.3142    2.2487   23.2721 H   0  0  0  0  0  0  0  0  0  0  0  0
   12.6584    0.2940   23.1284 H   0  0  0  0  0  0  0  0  0  0  0  0
   11.4266   -0.0908   24.3144 H   0  0  0  0  0  0  0  0  0  0  0  0
   11.9977   -1.5805   21.8304 H   0  0  0  0  0  0  0  0  0  0  0  0
    9.8140   -2.5475   21.8086 H   0  0  0  0  0  0  0  0  0  0  0  0
    9.0347   -1.0184   24.2174 H   0  0  0  0  0  0  0  0  0  0  0  0
    7.9274   -1.6682   23.0337 H   0  0  0  0  0  0  0  0  0  0  0  0
  1  2  2  0
  2  3  1  0
  3  4  1  0
  4  5  2  0
  5  6  1  0
  6  7  2  0
  7  8  1  0
  8  9  2  0
  9 10  1  0
 10 11  2  0
 11 12  1  0
 12 13  2  0
 12 14  1  0
 11 15  1  0
 10 16  1  0
  9 17  1  0
  7 18  1  0
  5 19  1  0
  3 20  1  0
  3 21  1  0
  2 22  1  0
 22 23  1  0
 23 24  1  0
 24 25  2  0
 25 26  1  0
 26 27  1  0
 27 28  1  0
 28 29  1  0
 28 30  1  0
 27 31  1  0
 27 32  1  0
 26 33  1  0
 26 34  1  0
 25 35  1  0
 24 36  1  0
 23 37  1  0
 23 38  1  0
 13  4  1  0
 28 22  1  0
 13  8  1  0
M  END
>  <cnnaffinities>  (89) 
[5.56014, 5.50257]

>  <score>  (89) 
5.56014

>  <index>  (89) 
89

>  <Smiles>  (89) 
O=C(C(c1c(nc(c2c(c(c(c(c12)[H])[H])[H])[H])[H])[H])([H])[H])N1C(C(=C(C(C(C1([H])[H])([H])[H])([H])[H])[H])[H])([H])[H]

>  <h>  (89) 
<NA>

>  <Training>  (89) 
True

>  <Success>  (89) 
True

>  <enamine_searched>  (89) 
False

>  <enamine_id>  (89) 
nan

$$$$

     RDKit          3D

 62 67  0  0  0  0  0  0  0  0999 V2000
    9.9516   -1.5106   22.4650 C   0  0  0  0  0  0  0  0  0  0  0  0
    8.5498   -0.9277   22.3507 C   0  0  1  0  0  0  0  0  0  0  0  0
    8.2749   -0.3856   20.9439 C   0  0  0  0  0  0  0  0  0  0  0  0
    6.8341   -0.4505   20.8562 N   0  0  0  0  0  0  0  0  0  0  0  0
    6.1126    0.0835   19.7747 C   0  0  0  0  0  0  0  0  0  0  0  0
    6.4778   -0.2115   18.4868 C   0  0  0  0  0  0  0  0  0  0  0  0
    5.8228    0.2284   17.3872 N   0  0  0  0  0  0  0  0  0  0  0  0
    4.7880    1.0107   17.5823 C   0  0  0  0  0  0  0  0  0  0  0  0
    4.3226    1.4134   18.8664 C   0  0  0  0  0  0  0  0  0  0  0  0
    3.2017    2.2700   19.0146 C   0  0  0  0  0  0  0  0  0  0  0  0
    2.7886    2.6620   20.2585 C   0  0  0  0  0  0  0  0  0  0  0  0
    3.4742    2.2153   21.4120 C   0  0  0  0  0  0  0  0  0  0  0  0
    4.5583    1.3799   21.2956 C   0  0  0  0  0  0  0  0  0  0  0  0
    5.0009    0.9480   20.0114 C   0  0  0  0  0  0  0  0  0  0  0  0
    5.0874    1.0349   22.1798 H   0  0  0  0  0  0  0  0  0  0  0  0
    3.1419    2.5398   22.3949 H   0  0  0  0  0  0  0  0  0  0  0  0
    1.9362    3.3273   20.3695 H   0  0  0  0  0  0  0  0  0  0  0  0
    2.7019    2.6179   18.1145 H   0  0  0  0  0  0  0  0  0  0  0  0
    4.2594    1.3645   16.6971 H   0  0  0  0  0  0  0  0  0  0  0  0
    7.3259   -0.8679   18.2961 H   0  0  0  0  0  0  0  0  0  0  0  0
    6.2983   -1.4423   21.6478 C   0  0  0  0  0  0  0  0  0  0  0  0
    5.1787   -1.8929   21.4900 O   0  0  0  0  0  0  0  0  0  0  0  0
    7.3701   -1.8957   22.6714 C   0  0  1  0  0  0  0  0  0  0  0  0
    7.7356   -3.3546   22.3353 C   0  0  0  0  0  0  0  0  0  0  0  0
    6.6755   -4.2497   22.7292 N   0  0  0  0  0  0  0  0  0  0  0  0
    6.0231   -5.1092   21.7511 C   0  0  0  0  0  0  0  0  0  0  0  0
    6.8904   -6.3219   21.4876 C   0  0  0  0  0  0  0  0  0  0  0  0
    7.1536   -7.0173   22.7785 N   0  0  0  0  0  4  0  0  0  0  0  0
    6.1350   -8.0204   23.2772 C   0  0  0  0  0  0  0  0  0  0  0  0
    7.1698   -9.1899   23.2042 C   0  0  0  0  0  0  0  0  0  0  0  0
    8.1783   -8.1276   22.7373 C   0  0  0  0  0  0  0  0  0  0  0  0
    8.4709   -8.2541   21.7013 H   0  0  0  0  0  0  0  0  0  0  0  0
    9.0584   -7.9306   23.3421 H   0  0  0  0  0  0  0  0  0  0  0  0
    7.0623   -9.9775   22.4633 H   0  0  0  0  0  0  0  0  0  0  0  0
    7.3469   -9.6770   24.1577 H   0  0  0  0  0  0  0  0  0  0  0  0
    5.8443   -7.7534   24.2895 H   0  0  0  0  0  0  0  0  0  0  0  0
    5.2620   -8.0007   22.6319 H   0  0  0  0  0  0  0  0  0  0  0  0
    7.2995   -6.3031   23.5016 H   0  0  0  0  0  0  0  0  0  0  0  0
    6.4480   -7.0110   20.7633 H   0  0  0  0  0  0  0  0  0  0  0  0
    7.8510   -5.9883   21.0898 H   0  0  0  0  0  0  0  0  0  0  0  0
    5.8334   -4.5317   20.8367 H   0  0  0  0  0  0  0  0  0  0  0  0
    5.0555   -5.3985   22.1757 H   0  0  0  0  0  0  0  0  0  0  0  0
    6.3079   -4.3073   24.0346 C   0  0  0  0  0  0  0  0  0  0  0  0
    5.9133   -5.3552   24.5506 O   0  0  0  0  0  0  0  0  0  0  0  0
    6.3845   -3.0114   24.7560 C   0  0  0  0  0  0  0  0  0  0  0  0
    5.9094   -2.9736   26.0662 C   0  0  0  0  0  0  0  0  0  0  0  0
    5.8942   -1.7860   26.7690 C   0  0  0  0  0  0  0  0  0  0  0  0
    6.3522   -0.6346   26.1292 C   0  0  0  0  0  0  0  0  0  0  0  0
    6.3291    0.8861   26.9841 Cl  0  0  0  0  0  0  0  0  0  0  0  0
    6.8341   -0.6598   24.8333 C   0  0  0  0  0  0  0  0  0  0  0  0
    6.8718   -1.8599   24.1119 C   0  0  0  0  0  0  0  0  0  0  0  0
    7.1840    0.2691   24.3989 H   0  0  0  0  0  0  0  0  0  0  0  0
    5.5382   -1.7388   27.7919 H   0  0  0  0  0  0  0  0  0  0  0  0
    5.5436   -3.8934   26.5114 H   0  0  0  0  0  0  0  0  0  0  0  0
    7.8944   -3.4426   21.2622 H   0  0  0  0  0  0  0  0  0  0  0  0
    8.6693   -3.6243   22.8519 H   0  0  0  0  0  0  0  0  0  0  0  0
    8.7695   -1.0022   20.1774 H   0  0  0  0  0  0  0  0  0  0  0  0
    8.6256    0.6419   20.8123 H   0  0  0  0  0  0  0  0  0  0  0  0
    8.4667   -0.0803   23.0322 H   0  0  0  0  0  0  0  0  0  0  0  0
   10.1017   -2.3064   21.7259 H   0  0  0  0  0  0  0  0  0  0  0  0
   10.1303   -1.9372   23.4570 H   0  0  0  0  0  0  0  0  0  0  0  0
   10.7073   -0.7426   22.2730 H   0  0  0  0  0  0  0  0  0  0  0  0
  1  2  1  0
  2  3  1  0
  3  4  1  0
  4  5  1  0
  5  6  2  0
  6  7  1  0
  7  8  2  0
  8  9  1  0
  9 10  2  0
 10 11  1  0
 11 12  2  0
 12 13  1  0
 13 14  2  0
 13 15  1  0
 12 16  1  0
 11 17  1  0
 10 18  1  0
  8 19  1  0
  6 20  1  0
  4 21  1  0
 21 22  2  0
 21 23  1  0
 23 24  1  6
 24 25  1  0
 25 26  1  0
 26 27  1  0
 27 28  1  0
 28 29  1  0
 29 30  1  0
 30 31  1  0
 31 32  1  0
 31 33  1  0
 30 34  1  0
 30 35  1  0
 29 36  1  0
 29 37  1  0
 28 38  1  0
 27 39  1  0
 27 40  1  0
 26 41  1  0
 26 42  1  0
 25 43  1  0
 43 44  2  0
 43 45  1  0
 45 46  2  0
 46 47  1  0
 47 48  2  0
 48 49  1  0
 48 50  1  0
 50 51  2  0
 50 52  1  0
 47 53  1  0
 46 54  1  0
 24 55  1  0
 24 56  1  0
  3 57  1  0
  3 58  1  0
  2 59  1  1
  1 60  1  0
  1 61  1  0
  1 62  1  0
 23  2  1  0
 31 28  1  0
 51 45  1  0
 14  5  1  0
 51 23  1  0
 14  9  1  0
M  CHG  1  28   1
M  END
>  <cnnaffinities>  (90) 
[6.48071, 6.32347]

>  <score>  (90) 
6.48071

>  <index>  (90) 
90

>  <Smiles>  (90) 
C([C@]1(C(N(c2c(nc(c3c(c(c(c(c23)[H])[H])[H])[H])[H])[H])C(=O)[C@]21C(N(C(C([N+]1(C(C(C1([H])[H])([H])[H])([H])[H])[H])([H])[H])([H])[H])C(=O)c1c(c(c(Cl)c(c21)[H])[H])[H])([H])[H])([H])[H])[H])([H])([H])[H]

>  <h>  (90) 
<NA>

>  <Training>  (90) 
True

>  <Success>  (90) 
True

>  <enamine_searched>  (90) 
False

>  <enamine_id>  (90) 
nan

$$$$

     RDKit          3D

 56 61  0  0  0  0  0  0  0  0999 V2000
    7.0656   -2.4159   23.5091 C   0  0  0  0  0  0  0  0  0  0  0  0
    7.9504   -1.8415   22.3986 C   0  0  1  0  0  0  0  0  0  0  0  0
    7.2040   -1.7558   21.0524 C   0  0  0  0  0  0  0  0  0  0  0  0
    6.8799   -0.3550   20.9042 N   0  0  0  0  0  0  0  0  0  0  0  0
    6.1262    0.1102   19.7990 C   0  0  0  0  0  0  0  0  0  0  0  0
    6.4479   -0.2381   18.5094 C   0  0  0  0  0  0  0  0  0  0  0  0
    5.7869    0.2023   17.4090 N   0  0  0  0  0  0  0  0  0  0  0  0
    4.7664    1.0049   17.6025 C   0  0  0  0  0  0  0  0  0  0  0  0
    4.3039    1.4089   18.8875 C   0  0  0  0  0  0  0  0  0  0  0  0
    3.1831    2.2644   19.0533 C   0  0  0  0  0  0  0  0  0  0  0  0
    2.7565    2.6167   20.3037 C   0  0  0  0  0  0  0  0  0  0  0  0
    3.4238    2.1284   21.4508 C   0  0  0  0  0  0  0  0  0  0  0  0
    4.4993    1.2873   21.3181 C   0  0  0  0  0  0  0  0  0  0  0  0
    4.9844    0.9365   20.0285 C   0  0  0  0  0  0  0  0  0  0  0  0
    4.9953    0.8787   22.1945 H   0  0  0  0  0  0  0  0  0  0  0  0
    3.0959    2.4393   22.4395 H   0  0  0  0  0  0  0  0  0  0  0  0
    1.8996    3.2737   20.4206 H   0  0  0  0  0  0  0  0  0  0  0  0
    2.6857    2.6382   18.1627 H   0  0  0  0  0  0  0  0  0  0  0  0
    4.2425    1.3700   16.7191 H   0  0  0  0  0  0  0  0  0  0  0  0
    7.3010   -0.8867   18.3102 H   0  0  0  0  0  0  0  0  0  0  0  0
    7.7314    0.4662   21.6261 C   0  0  0  0  0  0  0  0  0  0  0  0
    7.8448    1.6588   21.4562 O   0  0  0  0  0  0  0  0  0  0  0  0
    8.5210   -0.4061   22.6396 C   0  0  1  0  0  0  0  0  0  0  0  0
    8.3281    0.0734   24.0957 C   0  0  0  0  0  0  0  0  0  0  0  0
    8.9496    1.3553   24.3599 N   0  0  0  0  0  0  0  0  0  0  0  0
    8.1853    2.3724   25.0658 C   0  0  0  0  0  0  0  0  0  0  0  0
    7.3930    3.3061   24.1692 C   0  0  0  0  0  0  0  0  0  0  0  0
    6.0130    3.3118   23.8409 C   0  0  0  0  0  0  0  0  0  0  0  0
    5.6856    4.3045   23.0213 N   0  0  0  0  0  0  0  0  0  0  0  0
    6.8432    4.9515   22.8231 N   0  0  0  0  0  0  0  0  0  0  0  0
    7.8878    4.3921   23.4807 C   0  0  0  0  0  0  0  0  0  0  0  0
    8.8849    4.8074   23.4173 H   0  0  0  0  0  0  0  0  0  0  0  0
    6.8889    5.6916   22.1405 H   0  0  0  0  0  0  0  0  0  0  0  0
    5.2345    2.6160   24.1357 H   0  0  0  0  0  0  0  0  0  0  0  0
    8.9094    2.9509   25.6407 H   0  0  0  0  0  0  0  0  0  0  0  0
    7.5263    1.8567   25.7745 H   0  0  0  0  0  0  0  0  0  0  0  0
   10.1694    1.7113   23.8591 C   0  0  0  0  0  0  0  0  0  0  0  0
   10.7364    2.7477   24.1893 O   0  0  0  0  0  0  0  0  0  0  0  0
   10.7731    0.7481   22.9006 C   0  0  0  0  0  0  0  0  0  0  0  0
   12.1198    0.9066   22.5688 C   0  0  0  0  0  0  0  0  0  0  0  0
   12.7411   -0.0177   21.7500 C   0  0  0  0  0  0  0  0  0  0  0  0
   11.9810   -1.0787   21.2578 C   0  0  0  0  0  0  0  0  0  0  0  0
   12.4967   -1.9717   20.3920 F   0  0  0  0  0  0  0  0  0  0  0  0
   10.6340   -1.1907   21.5032 C   0  0  0  0  0  0  0  0  0  0  0  0
   10.0143   -0.2993   22.3694 C   0  0  0  0  0  0  0  0  0  0  0  0
   10.0863   -1.9261   20.9281 H   0  0  0  0  0  0  0  0  0  0  0  0
   13.7787    0.0888   21.4568 H   0  0  0  0  0  0  0  0  0  0  0  0
   12.6310    1.7798   22.9623 H   0  0  0  0  0  0  0  0  0  0  0  0
    8.7695   -0.6866   24.7519 H   0  0  0  0  0  0  0  0  0  0  0  0
    7.2674    0.1585   24.3365 H   0  0  0  0  0  0  0  0  0  0  0  0
    6.2898   -2.3582   21.0321 H   0  0  0  0  0  0  0  0  0  0  0  0
    7.8521   -2.0890   20.2345 H   0  0  0  0  0  0  0  0  0  0  0  0
    8.7840   -2.5432   22.3222 H   0  0  0  0  0  0  0  0  0  0  0  0
    7.6160   -2.5008   24.4512 H   0  0  0  0  0  0  0  0  0  0  0  0
    6.1721   -1.8096   23.6858 H   0  0  0  0  0  0  0  0  0  0  0  0
    6.7421   -3.4268   23.2409 H   0  0  0  0  0  0  0  0  0  0  0  0
  1  2  1  0
  2  3  1  0
  3  4  1  0
  4  5  1  0
  5  6  2  0
  6  7  1  0
  7  8  2  0
  8  9  1  0
  9 10  2  0
 10 11  1  0
 11 12  2  0
 12 13  1  0
 13 14  2  0
 13 15  1  0
 12 16  1  0
 11 17  1  0
 10 18  1  0
  8 19  1  0
  6 20  1  0
  4 21  1  0
 21 22  2  0
 21 23  1  0
 23 24  1  1
 24 25  1  0
 25 26  1  0
 26 27  1  0
 27 28  1  0
 28 29  2  0
 29 30  1  0
 30 31  1  0
 31 32  1  0
 30 33  1  0
 28 34  1  0
 26 35  1  0
 26 36  1  0
 25 37  1  0
 37 38  2  0
 37 39  1  0
 39 40  2  0
 40 41  1  0
 41 42  2  0
 42 43  1  0
 42 44  1  0
 44 45  2  0
 44 46  1  0
 41 47  1  0
 40 48  1  0
 24 49  1  0
 24 50  1  0
  3 51  1  0
  3 52  1  0
  2 53  1  6
  1 54  1  0
  1 55  1  0
  1 56  1  0
 23  2  1  0
 31 27  2  0
 45 39  1  0
 14  5  1  0
 45 23  1  0
 14  9  1  0
M  END
>  <cnnaffinities>  (91) 
[6.69367, 6.70882]

>  <score>  (91) 
6.69367

>  <index>  (91) 
91

>  <Smiles>  (91) 
C([C@]1(C(N(c2c(nc(c3c(c(c(c(c23)[H])[H])[H])[H])[H])[H])C(=O)[C@]21C(N(C(c1c(nn(c1[H])[H])[H])([H])[H])C(=O)c1c(c(c(F)c(c21)[H])[H])[H])([H])[H])([H])[H])[H])([H])([H])[H]

>  <h>  (91) 
<NA>

>  <Training>  (91) 
True

>  <Success>  (91) 
True

>  <enamine_searched>  (91) 
False

>  <enamine_id>  (91) 
nan

$$$$

     RDKit          3D

 47 50  0  0  0  0  0  0  0  0999 V2000
    8.1250    1.6290   20.6961 O   0  0  0  0  0  0  0  0  0  0  0  0
    7.9504    0.5822   21.2895 C   0  0  0  0  0  0  0  0  0  0  0  0
    6.9117   -0.4488   20.8769 C   0  0  0  0  0  0  0  0  0  0  0  0
    6.0833    0.0542   19.7549 C   0  0  0  0  0  0  0  0  0  0  0  0
    6.4319   -0.2316   18.4627 C   0  0  0  0  0  0  0  0  0  0  0  0
    5.7817    0.2201   17.3609 N   0  0  0  0  0  0  0  0  0  0  0  0
    4.7584    1.0153   17.5738 C   0  0  0  0  0  0  0  0  0  0  0  0
    4.3027    1.4138   18.8617 C   0  0  0  0  0  0  0  0  0  0  0  0
    3.1927    2.2762   19.0380 C   0  0  0  0  0  0  0  0  0  0  0  0
    2.7857    2.6386   20.2920 C   0  0  0  0  0  0  0  0  0  0  0  0
    3.4773    2.1668   21.4296 C   0  0  0  0  0  0  0  0  0  0  0  0
    4.5622    1.3366   21.2897 C   0  0  0  0  0  0  0  0  0  0  0  0
    4.9903    0.9305   19.9954 C   0  0  0  0  0  0  0  0  0  0  0  0
    5.0987    0.9963   22.1730 H   0  0  0  0  0  0  0  0  0  0  0  0
    3.1470    2.4666   22.4204 H   0  0  0  0  0  0  0  0  0  0  0  0
    1.9320    3.2973   20.4215 H   0  0  0  0  0  0  0  0  0  0  0  0
    2.6822    2.6424   18.1519 H   0  0  0  0  0  0  0  0  0  0  0  0
    4.2305    1.3863   16.6957 H   0  0  0  0  0  0  0  0  0  0  0  0
    7.2957   -0.8707   18.2737 H   0  0  0  0  0  0  0  0  0  0  0  0
    6.3144   -0.7324   21.7484 H   0  0  0  0  0  0  0  0  0  0  0  0
    7.4752   -1.3375   20.5618 H   0  0  0  0  0  0  0  0  0  0  0  0
    8.7591    0.2189   22.3596 N   0  0  0  0  0  0  0  0  0  0  0  0
    9.9988    0.9130   22.3869 C   0  0  0  0  0  0  0  0  0  0  0  0
   10.3201    1.8191   23.3172 C   0  0  0  0  0  0  0  0  0  0  0  0
    9.8089    1.7551   24.6744 C   0  0  0  0  0  0  0  0  0  0  0  0
    9.7663    0.6239   25.4083 C   0  0  0  0  0  0  0  0  0  0  0  0
   10.2701   -0.6746   24.9389 C   0  0  0  0  0  0  0  0  0  0  0  0
    9.6633   -1.3950   23.9950 C   0  0  0  0  0  0  0  0  0  0  0  0
    8.4440   -0.9458   23.2274 C   0  0  1  0  0  0  0  0  0  0  0  0
    7.2004   -0.7349   24.1211 C   0  0  0  0  0  0  0  0  0  0  0  0
    6.5631   -1.8654   24.6449 C   0  0  0  0  0  0  0  0  0  0  0  0
    5.3921   -1.7622   25.3929 C   0  0  0  0  0  0  0  0  0  0  0  0
    4.8362   -0.5107   25.6407 C   0  0  0  0  0  0  0  0  0  0  0  0
    5.4770    0.6292   25.1598 C   0  0  0  0  0  0  0  0  0  0  0  0
    6.6450    0.5159   24.4035 C   0  0  0  0  0  0  0  0  0  0  0  0
    7.1079    1.4234   24.0216 H   0  0  0  0  0  0  0  0  0  0  0  0
    5.0519    1.6131   25.3628 H   0  0  0  0  0  0  0  0  0  0  0  0
    3.9247   -0.4228   26.2279 H   0  0  0  0  0  0  0  0  0  0  0  0
    4.9094   -2.6619   25.7730 H   0  0  0  0  0  0  0  0  0  0  0  0
    6.9848   -2.8524   24.4645 H   0  0  0  0  0  0  0  0  0  0  0  0
    8.1981   -1.7708   22.5476 H   0  0  0  0  0  0  0  0  0  0  0  0
   10.0146   -2.4057   23.8040 H   0  0  0  0  0  0  0  0  0  0  0  0
   11.1803   -1.0659   25.3968 H   0  0  0  0  0  0  0  0  0  0  0  0
    9.3381    0.6350   26.4035 H   0  0  0  0  0  0  0  0  0  0  0  0
    9.4723    2.6750   25.1419 H   0  0  0  0  0  0  0  0  0  0  0  0
   11.0183    2.6213   23.0627 H   0  0  0  0  0  0  0  0  0  0  0  0
   10.6384    0.7674   21.5219 H   0  0  0  0  0  0  0  0  0  0  0  0
  1  2  2  0
  2  3  1  0
  3  4  1  0
  4  5  2  0
  5  6  1  0
  6  7  2  0
  7  8  1  0
  8  9  2  0
  9 10  1  0
 10 11  2  0
 11 12  1  0
 12 13  2  0
 12 14  1  0
 11 15  1  0
 10 16  1  0
  9 17  1  0
  7 18  1  0
  5 19  1  0
  3 20  1  0
  3 21  1  0
  2 22  1  0
 22 23  1  0
 23 24  2  3
 24 25  1  0
 25 26  2  3
 26 27  1  0
 27 28  2  3
 28 29  1  0
 29 30  1  0
 30 31  2  0
 31 32  1  0
 32 33  2  0
 33 34  1  0
 34 35  2  0
 35 36  1  0
 34 37  1  0
 33 38  1  0
 32 39  1  0
 31 40  1  0
 29 41  1  6
 28 42  1  0
 27 43  1  0
 26 44  1  0
 25 45  1  0
 24 46  1  0
 23 47  1  0
 13  4  1  0
 29 22  1  0
 35 30  1  0
 13  8  1  0
M  END
>  <cnnaffinities>  (92) 
[6.02285, 5.96238, 5.96204, 6.01199]

>  <score>  (92) 
6.02285

>  <index>  (92) 
92

>  <Smiles>  (92) 
O=C(C(c1c(nc(c2c(c(c(c(c12)[H])[H])[H])[H])[H])[H])([H])[H])N1C(=C(C(=C(C(=C([C@]1(c1c(c(c(c(c1[H])[H])[H])[H])[H])[H])[H])[H])[H])[H])[H])[H]

>  <h>  (92) 
<NA>

>  <Training>  (92) 
True

>  <Success>  (92) 
True

>  <enamine_searched>  (92) 
False

>  <enamine_id>  (92) 
nan

$$$$

     RDKit          3D

 58 62  0  0  0  0  0  0  0  0999 V2000
    6.5551    4.4872   21.3948 C   0  0  0  0  0  0  0  0  0  0  0  0
    6.9226    3.5047   22.4147 N   0  0  0  0  0  4  0  0  0  0  0  0
    7.9244    3.9658   23.4006 C   0  0  0  0  0  0  0  0  0  0  0  0
    8.0993    2.9310   24.5086 C   0  0  0  0  0  0  0  0  0  0  0  0
    8.6964    1.7183   23.9788 N   0  0  0  0  0  0  0  0  0  0  0  0
    7.9600    0.4697   23.8712 C   0  0  0  0  0  0  0  0  0  0  0  0
    8.3486   -0.3309   22.6059 C   0  0  2  0  0  0  0  0  0  0  0  0
    7.7890    0.3715   21.3638 C   0  0  0  0  0  0  0  0  0  0  0  0
    8.0221    1.5179   20.9932 O   0  0  0  0  0  0  0  0  0  0  0  0
    6.8799   -0.4479   20.7661 N   0  0  0  0  0  0  0  0  0  0  0  0
    6.1040    0.0821   19.7126 C   0  0  0  0  0  0  0  0  0  0  0  0
    6.4559   -0.2101   18.4225 C   0  0  0  0  0  0  0  0  0  0  0  0
    5.7775    0.2335   17.3410 N   0  0  0  0  0  0  0  0  0  0  0  0
    4.7554    1.0225   17.5746 C   0  0  0  0  0  0  0  0  0  0  0  0
    4.3282    1.4386   18.8704 C   0  0  0  0  0  0  0  0  0  0  0  0
    3.2261    2.3127   19.0513 C   0  0  0  0  0  0  0  0  0  0  0  0
    2.8319    2.6893   20.3057 C   0  0  0  0  0  0  0  0  0  0  0  0
    3.5265    2.2214   21.4423 C   0  0  0  0  0  0  0  0  0  0  0  0
    4.6069    1.3824   21.2950 C   0  0  0  0  0  0  0  0  0  0  0  0
    5.0275    0.9622   19.9956 C   0  0  0  0  0  0  0  0  0  0  0  0
    5.1244    1.0258   22.1830 H   0  0  0  0  0  0  0  0  0  0  0  0
    3.1994    2.5281   22.4321 H   0  0  0  0  0  0  0  0  0  0  0  0
    1.9774    3.3455   20.4332 H   0  0  0  0  0  0  0  0  0  0  0  0
    2.7114    2.6629   18.1625 H   0  0  0  0  0  0  0  0  0  0  0  0
    4.2017    1.3797   16.7078 H   0  0  0  0  0  0  0  0  0  0  0  0
    7.3299   -0.8323   18.2452 H   0  0  0  0  0  0  0  0  0  0  0  0
    6.4315   -1.5227   21.6374 C   0  0  0  0  0  0  0  0  0  0  0  0
    7.6531   -1.7191   22.5306 C   0  0  2  0  0  0  0  0  0  0  0  0
    7.3978   -2.4084   23.8573 C   0  0  0  0  0  0  0  0  0  0  0  0
    6.9652   -3.3995   23.6934 H   0  0  0  0  0  0  0  0  0  0  0  0
    8.3343   -2.5253   24.4153 H   0  0  0  0  0  0  0  0  0  0  0  0
    6.7018   -1.8321   24.4749 H   0  0  0  0  0  0  0  0  0  0  0  0
    8.3039   -2.3674   21.9489 H   0  0  0  0  0  0  0  0  0  0  0  0
    6.1906   -2.4169   21.0575 H   0  0  0  0  0  0  0  0  0  0  0  0
    5.5421   -1.2461   22.2210 H   0  0  0  0  0  0  0  0  0  0  0  0
    9.8505   -0.4045   22.5389 C   0  0  0  0  0  0  0  0  0  0  0  0
   10.4843   -1.3978   21.7990 C   0  0  0  0  0  0  0  0  0  0  0  0
   11.8516   -1.4090   21.6776 C   0  0  0  0  0  0  0  0  0  0  0  0
   12.3357   -2.3905   20.8941 F   0  0  0  0  0  0  0  0  0  0  0  0
   12.6512   -0.4552   22.3083 C   0  0  0  0  0  0  0  0  0  0  0  0
   12.0234    0.5271   23.0366 C   0  0  0  0  0  0  0  0  0  0  0  0
   10.6392    0.5840   23.1280 C   0  0  0  0  0  0  0  0  0  0  0  0
   10.0477    1.7570   23.8237 C   0  0  0  0  0  0  0  0  0  0  0  0
   10.7438    2.6971   24.2116 O   0  0  0  0  0  0  0  0  0  0  0  0
   12.6148    1.2841   23.5339 H   0  0  0  0  0  0  0  0  0  0  0  0
   13.7317   -0.4343   22.2438 H   0  0  0  0  0  0  0  0  0  0  0  0
    9.9511   -2.1792   21.2768 H   0  0  0  0  0  0  0  0  0  0  0  0
    8.1780   -0.1563   24.7475 H   0  0  0  0  0  0  0  0  0  0  0  0
    6.8857    0.6774   23.8439 H   0  0  0  0  0  0  0  0  0  0  0  0
    7.1450    2.6747   24.9779 H   0  0  0  0  0  0  0  0  0  0  0  0
    8.7791    3.3016   25.2786 H   0  0  0  0  0  0  0  0  0  0  0  0
    8.8912    4.1012   22.9037 H   0  0  0  0  0  0  0  0  0  0  0  0
    7.6361    4.9288   23.8325 H   0  0  0  0  0  0  0  0  0  0  0  0
    6.0556    3.2390   22.9103 H   0  0  0  0  0  0  0  0  0  0  0  0
    7.2927    2.6581   21.9397 H   0  0  0  0  0  0  0  0  0  0  0  0
    5.6676    4.1399   20.8604 H   0  0  0  0  0  0  0  0  0  0  0  0
    7.3698    4.6237   20.6823 H   0  0  0  0  0  0  0  0  0  0  0  0
    6.3405    5.4590   21.8479 H   0  0  0  0  0  0  0  0  0  0  0  0
  1  2  1  0
  2  3  1  0
  3  4  1  0
  4  5  1  0
  5  6  1  0
  7  6  1  1
  7  8  1  0
  8  9  2  0
  8 10  1  0
 10 11  1  0
 11 12  2  0
 12 13  1  0
 13 14  2  0
 14 15  1  0
 15 16  2  0
 16 17  1  0
 17 18  2  0
 18 19  1  0
 19 20  2  0
 19 21  1  0
 18 22  1  0
 17 23  1  0
 16 24  1  0
 14 25  1  0
 12 26  1  0
 10 27  1  0
 27 28  1  0
 28 29  1  0
 29 30  1  0
 29 31  1  0
 29 32  1  0
 28 33  1  6
 27 34  1  0
 27 35  1  0
  7 36  1  0
 36 37  2  0
 37 38  1  0
 38 39  1  0
 38 40  2  0
 40 41  1  0
 41 42  2  0
 42 43  1  0
 43 44  2  0
 41 45  1  0
 40 46  1  0
 37 47  1  0
  6 48  1  0
  6 49  1  0
  4 50  1  0
  4 51  1  0
  3 52  1  0
  3 53  1  0
  2 54  1  0
  2 55  1  0
  1 56  1  0
  1 57  1  0
  1 58  1  0
 43  5  1  0
 28  7  1  0
 42 36  1  0
 20 11  1  0
 20 15  1  0
M  CHG  1   2   1
M  END
>  <cnnaffinities>  (93) 
[6.37035]

>  <score>  (93) 
6.37035

>  <index>  (93) 
93

>  <Smiles>  (93) 
C([N+](C(C(N1C([C@@]2(C(=O)N(c3c(nc(c4c(c(c(c(c34)[H])[H])[H])[H])[H])[H])C([C@@]2(C([H])([H])[H])[H])([H])[H])c2c(c(F)c(c(c2C1=O)[H])[H])[H])([H])[H])([H])[H])([H])[H])([H])[H])([H])([H])[H]

>  <h>  (93) 
<NA>

>  <Training>  (93) 
True

>  <Success>  (93) 
True

>  <enamine_searched>  (93) 
False

>  <enamine_id>  (93) 
nan

$$$$

     RDKit          3D

 65 69  0  0  0  0  0  0  0  0999 V2000
    4.4452   -5.4575   26.8565 C   0  0  0  0  0  0  0  0  0  0  0  0
    5.7760   -5.3282   26.1299 C   0  0  0  0  0  0  0  0  0  0  0  0
    5.8833   -4.0053   25.4182 C   0  0  0  0  0  0  0  0  0  0  0  0
    5.1701   -3.6677   24.5135 O   0  0  0  0  0  0  0  0  0  0  0  0
    6.9701   -3.0546   25.9387 N   0  0  2  0  0  4  0  0  0  0  0  0
    6.4032   -1.8775   26.7884 C   0  0  0  0  0  0  0  0  0  0  0  0
    5.8074   -0.8445   25.8484 C   0  0  0  0  0  0  0  0  0  0  0  0
    6.9203   -0.2159   25.0157 C   0  0  0  0  0  0  0  0  0  0  0  0
    7.8058   -1.2589   24.3432 C   0  0  0  0  0  0  0  0  0  0  0  0
    8.5978   -0.9500   23.2213 C   0  0  0  0  0  0  0  0  0  0  0  0
    8.5729    0.3688   22.6786 N   0  0  0  0  0  0  0  0  0  0  0  0
    9.4002    1.3519   23.3860 C   0  0  0  0  0  0  0  0  0  0  0  0
   10.8877    1.1404   23.1856 C   0  0  0  0  0  0  0  0  0  0  0  0
   11.5185    1.8721   22.1876 C   0  0  0  0  0  0  0  0  0  0  0  0
   12.8393    1.6121   21.8392 C   0  0  0  0  0  0  0  0  0  0  0  0
   13.5441    0.6266   22.5098 C   0  0  0  0  0  0  0  0  0  0  0  0
   12.9425   -0.0432   23.5612 C   0  0  0  0  0  0  0  0  0  0  0  0
   13.8927   -1.2240   24.4244 Cl  0  0  0  0  0  0  0  0  0  0  0  0
   11.6293    0.2140   23.9289 C   0  0  0  0  0  0  0  0  0  0  0  0
   11.1858   -0.3866   24.7197 H   0  0  0  0  0  0  0  0  0  0  0  0
   14.5511    0.3479   22.2464 H   0  0  0  0  0  0  0  0  0  0  0  0
   13.3180    2.1614   21.0367 H   0  0  0  0  0  0  0  0  0  0  0  0
   10.9354    2.6357   21.6791 H   0  0  0  0  0  0  0  0  0  0  0  0
    9.1609    1.2579   24.4513 H   0  0  0  0  0  0  0  0  0  0  0  0
    9.1236    2.3496   23.0309 H   0  0  0  0  0  0  0  0  0  0  0  0
    8.0099    0.6687   21.4543 C   0  0  0  0  0  0  0  0  0  0  0  0
    8.2395    1.7182   20.8751 O   0  0  0  0  0  0  0  0  0  0  0  0
    7.0392   -0.3853   20.8926 C   0  0  0  0  0  0  0  0  0  0  0  0
    6.1719    0.1085   19.7719 C   0  0  0  0  0  0  0  0  0  0  0  0
    6.4797   -0.2088   18.4762 C   0  0  0  0  0  0  0  0  0  0  0  0
    5.8043    0.2142   17.3750 N   0  0  0  0  0  0  0  0  0  0  0  0
    4.7789    1.0051   17.5820 C   0  0  0  0  0  0  0  0  0  0  0  0
    4.3304    1.4093   18.8690 C   0  0  0  0  0  0  0  0  0  0  0  0
    3.2099    2.2640   19.0328 C   0  0  0  0  0  0  0  0  0  0  0  0
    2.7918    2.6260   20.2837 C   0  0  0  0  0  0  0  0  0  0  0  0
    3.4779    2.1514   21.4231 C   0  0  0  0  0  0  0  0  0  0  0  0
    4.5718    1.3313   21.2900 C   0  0  0  0  0  0  0  0  0  0  0  0
    5.0354    0.9415   20.0033 C   0  0  0  0  0  0  0  0  0  0  0  0
    5.0901    0.9863   22.1802 H   0  0  0  0  0  0  0  0  0  0  0  0
    3.1338    2.4470   22.4097 H   0  0  0  0  0  0  0  0  0  0  0  0
    1.9343    3.2817   20.4091 H   0  0  0  0  0  0  0  0  0  0  0  0
    2.6972    2.6282   18.1455 H   0  0  0  0  0  0  0  0  0  0  0  0
    4.2373    1.3640   16.7056 H   0  0  0  0  0  0  0  0  0  0  0  0
    7.3301   -0.8605   18.2730 H   0  0  0  0  0  0  0  0  0  0  0  0
    6.4303   -0.7685   21.7195 H   0  0  0  0  0  0  0  0  0  0  0  0
    7.6466   -1.2342   20.5495 H   0  0  0  0  0  0  0  0  0  0  0  0
    9.4889   -1.8745   22.6825 C   0  0  0  0  0  0  0  0  0  0  0  0
    9.6352   -3.1306   23.2595 C   0  0  0  0  0  0  0  0  0  0  0  0
    8.8405   -3.4715   24.3463 C   0  0  0  0  0  0  0  0  0  0  0  0
    7.9108   -2.5561   24.8519 C   0  0  0  0  0  0  0  0  0  0  0  0
    8.9454   -4.4575   24.7965 H   0  0  0  0  0  0  0  0  0  0  0  0
   10.3770   -3.8284   22.8754 H   0  0  0  0  0  0  0  0  0  0  0  0
   10.1307   -1.5712   21.8561 H   0  0  0  0  0  0  0  0  0  0  0  0
    7.5318    0.4046   25.6858 H   0  0  0  0  0  0  0  0  0  0  0  0
    6.4915    0.4603   24.2714 H   0  0  0  0  0  0  0  0  0  0  0  0
    5.0994   -1.3492   25.1860 H   0  0  0  0  0  0  0  0  0  0  0  0
    5.2648   -0.0849   26.4190 H   0  0  0  0  0  0  0  0  0  0  0  0
    7.2391   -1.4584   27.3589 H   0  0  0  0  0  0  0  0  0  0  0  0
    5.6684   -2.2774   27.4926 H   0  0  0  0  0  0  0  0  0  0  0  0
    7.5562   -3.6325   26.5680 H   0  0  0  0  0  0  0  0  0  0  0  0
    6.6250   -5.4423   26.8124 H   0  0  0  0  0  0  0  0  0  0  0  0
    5.8457   -6.0851   25.3452 H   0  0  0  0  0  0  0  0  0  0  0  0
    4.3749   -6.4396   27.3235 H   0  0  0  0  0  0  0  0  0  0  0  0
    4.3482   -4.6938   27.6324 H   0  0  0  0  0  0  0  0  0  0  0  0
    3.6234   -5.3375   26.1503 H   0  0  0  0  0  0  0  0  0  0  0  0
  1  2  1  0
  2  3  1  0
  3  4  2  0
  3  5  1  0
  5  6  1  0
  6  7  1  0
  7  8  1  0
  8  9  1  0
  9 10  2  0
 10 11  1  0
 11 12  1  0
 12 13  1  0
 13 14  2  0
 14 15  1  0
 15 16  2  0
 16 17  1  0
 17 18  1  0
 17 19  2  0
 19 20  1  0
 16 21  1  0
 15 22  1  0
 14 23  1  0
 12 24  1  0
 12 25  1  0
 11 26  1  0
 26 27  2  0
 26 28  1  0
 28 29  1  0
 29 30  2  0
 30 31  1  0
 31 32  2  0
 32 33  1  0
 33 34  2  0
 34 35  1  0
 35 36  2  0
 36 37  1  0
 37 38  2  0
 37 39  1  0
 36 40  1  0
 35 41  1  0
 34 42  1  0
 32 43  1  0
 30 44  1  0
 28 45  1  0
 28 46  1  0
 10 47  1  0
 47 48  2  0
 48 49  1  0
 49 50  2  0
 49 51  1  0
 48 52  1  0
 47 53  1  0
  8 54  1  0
  8 55  1  0
  7 56  1  0
  7 57  1  0
  6 58  1  0
  6 59  1  0
  5 60  1  1
  2 61  1  0
  2 62  1  0
  1 63  1  0
  1 64  1  0
  1 65  1  0
 50  5  1  0
 50  9  1  0
 19 13  1  0
 38 29  1  0
 38 33  1  0
M  CHG  1   5   1
M  END
>  <cnnaffinities>  (94) 
[7.01393]

>  <score>  (94) 
7.01393

>  <index>  (94) 
94

>  <Smiles>  (94) 
C(C(C(=O)[N@@+]1(C(C(C(c2c(N(C(c3c(c(c(c(Cl)c3[H])[H])[H])[H])([H])[H])C(=O)C(c3c(nc(c4c(c(c(c(c34)[H])[H])[H])[H])[H])[H])([H])[H])c(c(c(c12)[H])[H])[H])([H])[H])([H])[H])([H])[H])[H])([H])[H])([H])([H])[H]

>  <h>  (94) 
<NA>

>  <Training>  (94) 
True

>  <Success>  (94) 
True

>  <enamine_searched>  (94) 
False

>  <enamine_id>  (94) 
nan

$$$$

     RDKit          3D

 67 71  0  0  0  0  0  0  0  0999 V2000
    7.0580    3.8242   21.1297 C   0  0  0  0  0  0  0  0  0  0  0  0
    7.3420    3.2509   22.4350 N   0  0  0  0  0  0  0  0  0  0  0  0
    8.5646    3.4974   23.0018 C   0  0  0  0  0  0  0  0  0  0  0  0
    9.2530    4.4438   22.6790 O   0  0  0  0  0  0  0  0  0  0  0  0
    8.9933    2.5181   24.1056 C   0  0  0  0  0  0  0  0  0  0  0  0
    9.2584    1.1748   23.6293 N   0  0  0  0  0  0  0  0  0  0  0  0
    8.1356    0.2307   23.5706 C   0  0  0  0  0  0  0  0  0  0  0  0
    8.2800   -0.7868   22.3621 C   0  0  2  0  0  0  0  0  0  0  0  0
    7.8527    0.0448   21.0963 C   0  0  0  0  0  0  0  0  0  0  0  0
    8.5260    0.8742   20.5130 O   0  0  0  0  0  0  0  0  0  0  0  0
    6.5496   -0.2508   20.7799 N   0  0  0  0  0  0  0  0  0  0  0  0
    5.8858    0.3011   19.6532 C   0  0  0  0  0  0  0  0  0  0  0  0
    6.3165   -0.0112   18.3859 C   0  0  0  0  0  0  0  0  0  0  0  0
    5.7123    0.4124   17.2498 N   0  0  0  0  0  0  0  0  0  0  0  0
    4.6578    1.1820   17.3742 C   0  0  0  0  0  0  0  0  0  0  0  0
    4.0975    1.5786   18.6234 C   0  0  0  0  0  0  0  0  0  0  0  0
    2.9399    2.4018   18.7069 C   0  0  0  0  0  0  0  0  0  0  0  0
    2.4326    2.7710   19.9217 C   0  0  0  0  0  0  0  0  0  0  0  0
    3.0647    2.3478   21.1099 C   0  0  0  0  0  0  0  0  0  0  0  0
    4.1933    1.5627   21.0556 C   0  0  0  0  0  0  0  0  0  0  0  0
    4.7299    1.1346   19.8102 C   0  0  0  0  0  0  0  0  0  0  0  0
    4.6848    1.2760   21.9803 H   0  0  0  0  0  0  0  0  0  0  0  0
    2.6605    2.6471   22.0711 H   0  0  0  0  0  0  0  0  0  0  0  0
    1.5471    3.3979   19.9817 H   0  0  0  0  0  0  0  0  0  0  0  0
    2.4765    2.7335   17.7821 H   0  0  0  0  0  0  0  0  0  0  0  0
    4.1818    1.5266   16.4538 H   0  0  0  0  0  0  0  0  0  0  0  0
    7.1774   -0.6617   18.2468 H   0  0  0  0  0  0  0  0  0  0  0  0
    5.9282   -1.2008   21.6697 C   0  0  0  0  0  0  0  0  0  0  0  0
    7.1212   -1.8385   22.3837 C   0  0  2  0  0  0  0  0  0  0  0  0
    6.7066   -2.4471   23.7220 C   0  0  0  0  0  0  0  0  0  0  0  0
    6.3899   -4.1930   23.4820 S   0  0  0  0  0  0  0  0  0  0  0  0
    5.1130   -4.3078   22.7903 O   0  0  0  0  0  0  0  0  0  0  0  0
    7.5851   -4.7977   22.9085 O   0  0  0  0  0  0  0  0  0  0  0  0
    6.2250   -4.7238   25.0667 N   0  0  0  0  0  0  0  0  0  0  0  0
    7.4911   -5.1089   25.6970 C   0  0  0  0  0  0  0  0  0  0  0  0
    7.9985   -5.9161   25.1557 H   0  0  0  0  0  0  0  0  0  0  0  0
    7.2788   -5.4273   26.7223 H   0  0  0  0  0  0  0  0  0  0  0  0
    8.1653   -4.2492   25.7515 H   0  0  0  0  0  0  0  0  0  0  0  0
    5.1150   -5.6498   25.3006 C   0  0  0  0  0  0  0  0  0  0  0  0
    5.2409   -6.6155   24.7911 H   0  0  0  0  0  0  0  0  0  0  0  0
    5.0435   -5.8190   26.3791 H   0  0  0  0  0  0  0  0  0  0  0  0
    4.1892   -5.1870   24.9573 H   0  0  0  0  0  0  0  0  0  0  0  0
    5.7864   -1.9920   24.1027 H   0  0  0  0  0  0  0  0  0  0  0  0
    7.4537   -2.3669   24.5150 H   0  0  0  0  0  0  0  0  0  0  0  0
    7.5146   -2.6441   21.7580 H   0  0  0  0  0  0  0  0  0  0  0  0
    5.2585   -0.7065   22.3889 H   0  0  0  0  0  0  0  0  0  0  0  0
    5.3333   -1.9267   21.1091 H   0  0  0  0  0  0  0  0  0  0  0  0
    9.7134   -1.3131   22.3340 C   0  0  0  0  0  0  0  0  0  0  0  0
   10.4075   -2.6690   21.9368 C   0  0  0  0  0  0  0  0  0  0  0  0
   11.7913   -2.5624   21.9892 C   0  0  0  0  0  0  0  0  0  0  0  0
   12.6334   -2.6660   19.7715 F   0  0  0  0  0  0  0  0  0  0  0  0
   11.9030   -2.5413   22.3069 C   0  0  0  0  0  0  0  0  0  0  0  0
   12.1872   -1.1850   22.6188 C   0  0  0  0  0  0  0  0  0  0  0  0
   10.7983   -0.5173   22.8285 C   0  0  0  0  0  0  0  0  0  0  0  0
   10.5898    0.8118   23.4168 C   0  0  0  0  0  0  0  0  0  0  0  0
   11.5076    1.5666   23.6994 O   0  0  0  0  0  0  0  0  0  0  0  0
   12.7928   -1.1283   23.5190 H   0  0  0  0  0  0  0  0  0  0  0  0
   12.2102   -3.4930   19.7710 H   0  0  0  0  0  0  0  0  0  0  0  0
    9.9058   -3.3238   21.2285 H   0  0  0  0  0  0  0  0  0  0  0  0
    8.0497   -0.3092   24.5206 H   0  0  0  0  0  0  0  0  0  0  0  0
    7.2123    0.7881   23.4603 H   0  0  0  0  0  0  0  0  0  0  0  0
    9.9171    2.9055   24.5372 H   0  0  0  0  0  0  0  0  0  0  0  0
    8.2269    2.4745   24.8900 H   0  0  0  0  0  0  0  0  0  0  0  0
    6.8983    2.3663   22.6142 H   0  0  0  0  0  0  0  0  0  0  0  0
    7.3644    4.8709   21.1256 H   0  0  0  0  0  0  0  0  0  0  0  0
    7.6172    3.2661   20.3668 H   0  0  0  0  0  0  0  0  0  0  0  0
    5.9836    3.7573   20.9286 H   0  0  0  0  0  0  0  0  0  0  0  0
  1  2  1  0
  2  3  1  0
  3  4  2  0
  3  5  1  0
  5  6  1  0
  6  7  1  0
  8  7  1  1
  8  9  1  0
  9 10  2  0
  9 11  1  0
 11 12  1  0
 12 13  2  0
 13 14  1  0
 14 15  2  0
 15 16  1  0
 16 17  2  0
 17 18  1  0
 18 19  2  0
 19 20  1  0
 20 21  2  0
 20 22  1  0
 19 23  1  0
 18 24  1  0
 17 25  1  0
 15 26  1  0
 13 27  1  0
 11 28  1  0
 28 29  1  0
 29 30  1  0
 30 31  1  0
 31 32  2  0
 31 33  2  0
 31 34  1  0
 34 35  1  0
 35 36  1  0
 35 37  1  0
 35 38  1  0
 34 39  1  0
 39 40  1  0
 39 41  1  0
 39 42  1  0
 30 43  1  0
 30 44  1  0
 29 45  1  6
 28 46  1  0
 28 47  1  0
  8 48  1  0
 48 49  2  0
 49 50  1  0
 50 51  1  0
 50 52  2  0
 52 53  1  0
 53 54  2  0
 54 55  1  0
 55 56  2  0
 53 57  1  0
 52 58  1  0
 49 59  1  0
  7 60  1  0
  7 61  1  0
  5 62  1  0
  5 63  1  0
  2 64  1  0
  1 65  1  0
  1 66  1  0
  1 67  1  0
 55  6  1  0
 29  8  1  0
 54 48  1  0
 21 12  1  0
 21 16  1  0
M  END
>  <cnnaffinities>  (95) 
[6.6355]

>  <score>  (95) 
6.6355

>  <index>  (95) 
95

>  <Smiles>  (95) 
C(N(C(=O)C(N1C([C@@]2(C(=O)N(c3c(nc(c4c(c(c(c(c34)[H])[H])[H])[H])[H])[H])C([C@@]2(C(S(=O)(=O)N(C([H])([H])[H])C([H])([H])[H])([H])[H])[H])([H])[H])c2c(c(F)c(c(c2C1=O)[H])[H])[H])([H])[H])([H])[H])[H])([H])([H])[H]

>  <h>  (95) 
<NA>

>  <Training>  (95) 
True

>  <Success>  (95) 
True

>  <enamine_searched>  (95) 
False

>  <enamine_id>  (95) 
nan

$$$$

     RDKit          3D

 37 39  0  0  0  0  0  0  0  0999 V2000
    8.7091    1.1719   20.6758 O   0  0  0  0  0  0  0  0  0  0  0  0
    7.9125    0.6394   21.4290 C   0  0  0  0  0  0  0  0  0  0  0  0
    6.9411   -0.4360   20.9123 C   0  0  0  0  0  0  0  0  0  0  0  0
    6.1040    0.0862   19.7665 C   0  0  0  0  0  0  0  0  0  0  0  0
    6.4250   -0.2094   18.4662 C   0  0  0  0  0  0  0  0  0  0  0  0
    5.7606    0.2387   17.3667 N   0  0  0  0  0  0  0  0  0  0  0  0
    4.7358    1.0290   17.5755 C   0  0  0  0  0  0  0  0  0  0  0  0
    4.2849    1.4233   18.8639 C   0  0  0  0  0  0  0  0  0  0  0  0
    3.1696    2.2817   19.0411 C   0  0  0  0  0  0  0  0  0  0  0  0
    2.7643    2.6470   20.2961 C   0  0  0  0  0  0  0  0  0  0  0  0
    3.4604    2.1701   21.4293 C   0  0  0  0  0  0  0  0  0  0  0  0
    4.5441    1.3386   21.2855 C   0  0  0  0  0  0  0  0  0  0  0  0
    4.9866    0.9421   19.9961 C   0  0  0  0  0  0  0  0  0  0  0  0
    5.0708    0.9883   22.1686 H   0  0  0  0  0  0  0  0  0  0  0  0
    3.1328    2.4676   22.4212 H   0  0  0  0  0  0  0  0  0  0  0  0
    1.9113    3.3084   20.4316 H   0  0  0  0  0  0  0  0  0  0  0  0
    2.6494    2.6487   18.1591 H   0  0  0  0  0  0  0  0  0  0  0  0
    4.2012    1.3983   16.6975 H   0  0  0  0  0  0  0  0  0  0  0  0
    7.2733   -0.8574   18.2454 H   0  0  0  0  0  0  0  0  0  0  0  0
    7.5576   -1.2623   20.5349 H   0  0  0  0  0  0  0  0  0  0  0  0
    6.3170   -0.8520   21.7150 H   0  0  0  0  0  0  0  0  0  0  0  0
    7.8281    0.9931   22.7466 N   0  0  0  0  0  0  0  0  0  0  0  0
    8.7372    1.9825   23.3140 C   0  0  0  0  0  0  0  0  0  0  0  0
   10.1603    1.4876   23.4611 C   0  0  0  0  0  0  0  0  0  0  0  0
   10.4650    0.5245   24.4189 C   0  0  0  0  0  0  0  0  0  0  0  0
   11.7552    0.0217   24.5194 C   0  0  0  0  0  0  0  0  0  0  0  0
   12.7583    0.4669   23.6671 C   0  0  0  0  0  0  0  0  0  0  0  0
   12.4446    1.4267   22.7140 C   0  0  0  0  0  0  0  0  0  0  0  0
   13.6899    1.9860   21.6354 Cl  0  0  0  0  0  0  0  0  0  0  0  0
   11.1605    1.9447   22.6069 C   0  0  0  0  0  0  0  0  0  0  0  0
   10.9186    2.6718   21.8370 H   0  0  0  0  0  0  0  0  0  0  0  0
   13.7672    0.0705   23.7326 H   0  0  0  0  0  0  0  0  0  0  0  0
   11.9817   -0.7340   25.2637 H   0  0  0  0  0  0  0  0  0  0  0  0
    9.6859    0.1574   25.0826 H   0  0  0  0  0  0  0  0  0  0  0  0
    8.3408    2.2614   24.2930 H   0  0  0  0  0  0  0  0  0  0  0  0
    8.7112    2.8805   22.6941 H   0  0  0  0  0  0  0  0  0  0  0  0
    7.1981    0.5087   23.3623 H   0  0  0  0  0  0  0  0  0  0  0  0
  1  2  2  0
  2  3  1  0
  3  4  1  0
  4  5  2  0
  5  6  1  0
  6  7  2  0
  7  8  1  0
  8  9  2  0
  9 10  1  0
 10 11  2  0
 11 12  1  0
 12 13  2  0
 12 14  1  0
 11 15  1  0
 10 16  1  0
  9 17  1  0
  7 18  1  0
  5 19  1  0
  3 20  1  0
  3 21  1  0
  2 22  1  0
 22 23  1  0
 23 24  1  0
 24 25  2  0
 25 26  1  0
 26 27  2  0
 27 28  1  0
 28 29  1  0
 28 30  2  0
 30 31  1  0
 27 32  1  0
 26 33  1  0
 25 34  1  0
 23 35  1  0
 23 36  1  0
 22 37  1  0
 13  4  1  0
 30 24  1  0
 13  8  1  0
M  END
>  <cnnaffinities>  (96) 
[5.38812]

>  <score>  (96) 
5.38812

>  <index>  (96) 
96

>  <Smiles>  (96) 
O=C(C(c1c(nc(c2c(c(c(c(c12)[H])[H])[H])[H])[H])[H])([H])[H])N(C(c1c(c(c(c(Cl)c1[H])[H])[H])[H])([H])[H])[H]

>  <h>  (96) 
<NA>

>  <Training>  (96) 
True

>  <Success>  (96) 
True

>  <enamine_searched>  (96) 
False

>  <enamine_id>  (96) 
nan

$$$$
