
     RDKit          3D

 63 69  0  0  0  0  0  0  0  0999 V2000
    9.3527   -0.6961   25.7077 O   0  0  0  0  0  0  0  0  0  0  0  0
    9.3529   -0.6961   25.7079 C   0  0  0  0  0  0  0  0  0  0  0  0
   10.1588   -0.2735   24.4438 C   0  0  0  0  0  0  0  0  0  0  0  0
   11.4961    0.0573   24.6504 C   0  0  0  0  0  0  0  0  0  0  0  0
   12.3801    0.1984   23.6161 C   0  0  0  0  0  0  0  0  0  0  0  0
   11.8532    0.2209   22.3362 C   0  0  0  0  0  0  0  0  0  0  0  0
   13.1606    0.4106   21.2475 Cl  0  0  0  0  0  0  0  0  0  0  0  0
   10.5226    0.0429   22.0382 C   0  0  0  0  0  0  0  0  0  0  0  0
    9.6328   -0.1983   23.0973 C   0  0  0  0  0  0  0  0  0  0  0  0
    8.1829   -0.4803   22.8244 C   0  0  1  0  0  0  0  0  0  0  0  0
    7.2916   -0.0678   24.0014 C   0  0  0  0  0  0  0  0  0  0  0  0
    7.9372   -0.8297   25.2608 N   0  0  0  0  0  0  0  0  0  0  0  0
    7.1323   -1.1580   26.4140 C   0  0  0  0  0  0  0  0  0  0  0  0
    6.6446   -0.0361   27.3032 C   0  0  0  0  0  0  0  0  0  0  0  0
    5.6716    0.7845   27.0680 N   0  0  0  0  0  0  0  0  0  0  0  0
    5.6928    1.7254   28.1015 N   0  0  0  0  0  0  0  0  0  0  0  0
    6.6720    1.3810   28.8606 C   0  0  0  0  0  0  0  0  0  0  0  0
    7.3249    0.2805   28.4295 O   0  0  0  0  0  0  0  0  0  0  0  0
    7.0028    1.8487   29.7766 H   0  0  0  0  0  0  0  0  0  0  0  0
    7.5983   -1.9586   27.0121 H   0  0  0  0  0  0  0  0  0  0  0  0
    6.1789   -1.5842   26.0240 H   0  0  0  0  0  0  0  0  0  0  0  0
    6.2929   -0.4898   23.9668 H   0  0  0  0  0  0  0  0  0  0  0  0
    7.2842    1.0074   24.1993 H   0  0  0  0  0  0  0  0  0  0  0  0
    7.6510    0.3887   21.6865 C   0  0  0  0  0  0  0  0  0  0  0  0
    7.7681    1.5918   21.5909 O   0  0  0  0  0  0  0  0  0  0  0  0
    6.9284   -0.4138   20.8398 N   0  0  0  0  0  0  0  0  0  0  0  0
    6.1445    0.1078   19.7764 C   0  0  0  0  0  0  0  0  0  0  0  0
    6.4316   -0.2242   18.4764 C   0  0  0  0  0  0  0  0  0  0  0  0
    5.7614    0.2309   17.3825 N   0  0  0  0  0  0  0  0  0  0  0  0
    4.7391    1.0307   17.5795 C   0  0  0  0  0  0  0  0  0  0  0  0
    4.2900    1.4205   18.8765 C   0  0  0  0  0  0  0  0  0  0  0  0
    3.1627    2.2723   19.0514 C   0  0  0  0  0  0  0  0  0  0  0  0
    2.7440    2.6120   20.3091 C   0  0  0  0  0  0  0  0  0  0  0  0
    3.4224    2.1149   21.4422 C   0  0  0  0  0  0  0  0  0  0  0  0
    4.5096    1.2932   21.2977 C   0  0  0  0  0  0  0  0  0  0  0  0
    4.9925    0.9371   20.0095 C   0  0  0  0  0  0  0  0  0  0  0  0
    5.0275    0.9077   22.1686 H   0  0  0  0  0  0  0  0  0  0  0  0
    3.0850    2.3824   22.4362 H   0  0  0  0  0  0  0  0  0  0  0  0
    1.8876    3.2619   20.4493 H   0  0  0  0  0  0  0  0  0  0  0  0
    2.6412    2.6485   18.1721 H   0  0  0  0  0  0  0  0  0  0  0  0
    4.1999    1.3991   16.6992 H   0  0  0  0  0  0  0  0  0  0  0  0
    7.2814   -0.8677   18.2569 H   0  0  0  0  0  0  0  0  0  0  0  0
    6.8745   -1.8024   21.2590 C   0  0  0  0  0  0  0  0  0  0  0  0
    7.9845   -1.9464   22.2892 C   0  0  2  0  0  0  0  0  0  0  0  0
    7.7274   -3.0708   23.3148 C   0  0  0  0  0  0  0  0  0  0  0  0
    7.6414   -4.3888   22.7181 N   0  0  0  0  0  0  0  0  0  0  0  0
    6.5417   -5.0459   22.3395 C   0  0  0  0  0  0  0  0  0  0  0  0
    5.3595   -4.5174   22.7025 N   0  0  0  0  0  0  0  0  0  0  0  0
    4.3228   -5.2544   22.3403 C   0  0  0  0  0  0  0  0  0  0  0  0
    4.3317   -6.4111   21.6951 N   0  0  0  0  0  0  0  0  0  0  0  0
    5.5634   -6.7895   21.3611 C   0  0  0  0  0  0  0  0  0  0  0  0
    6.7077   -6.1981   21.6502 N   0  0  0  0  0  0  0  0  0  0  0  0
    5.6090   -7.6962   20.7959 H   0  0  0  0  0  0  0  0  0  0  0  0
    3.3478   -4.8892   22.5863 H   0  0  0  0  0  0  0  0  0  0  0  0
    8.5191   -4.7414   22.4100 H   0  0  0  0  0  0  0  0  0  0  0  0
    6.8050   -2.8879   23.8455 H   0  0  0  0  0  0  0  0  0  0  0  0
    8.5187   -3.0278   24.0783 H   0  0  0  0  0  0  0  0  0  0  0  0
    8.9218   -2.1933   21.7716 H   0  0  0  0  0  0  0  0  0  0  0  0
    7.0362   -2.4510   20.4122 H   0  0  0  0  0  0  0  0  0  0  0  0
    5.8997   -2.0749   21.6737 H   0  0  0  0  0  0  0  0  0  0  0  0
   10.1877    0.0778   21.0259 H   0  0  0  0  0  0  0  0  0  0  0  0
   13.4645    0.3940   23.7253 H   0  0  0  0  0  0  0  0  0  0  0  0
   11.8580    0.2507   25.6383 H   0  0  0  0  0  0  0  0  0  0  0  0
  1  2  2  0
  2  3  1  0
  3  4  2  0
  4  5  1  0
  5  6  2  0
  6  7  1  0
  6  8  1  0
  8  9  2  0
  9 10  1  0
 10 11  1  1
 11 12  1  0
 12 13  1  0
 13 14  1  0
 14 15  2  0
 15 16  1  0
 16 17  2  0
 17 18  1  0
 17 19  1  0
 13 20  1  0
 13 21  1  0
 11 22  1  0
 11 23  1  0
 10 24  1  0
 24 25  2  0
 24 26  1  0
 26 27  1  0
 27 28  2  0
 28 29  1  0
 29 30  2  0
 30 31  1  0
 31 32  2  0
 32 33  1  0
 33 34  2  0
 34 35  1  0
 35 36  2  0
 35 37  1  0
 34 38  1  0
 33 39  1  0
 32 40  1  0
 30 41  1  0
 28 42  1  0
 26 43  1  0
 43 44  1  0
 44 45  1  0
 45 46  1  0
 46 47  1  0
 47 48  2  0
 48 49  1  0
 49 50  2  0
 50 51  1  0
 51 52  2  0
 51 53  1  0
 49 54  1  0
 46 55  1  0
 45 56  1  0
 45 57  1  0
 44 58  1  6
 43 59  1  0
 43 60  1  0
  8 61  1  0
  5 62  1  0
  4 63  1  0
 12  2  1  0
 18 14  1  0
 36 27  1  0
 52 47  1  0
  9  3  1  0
 44 10  1  0
 36 31  1  0
M  END
>  <cnnaffinities>  (1) 
[6.39254]

>  <score>  (1) 
6.39254

>  <index>  (1) 
0

>  <Smiles>  (1) 
O=C1c2c(c(c(Cl)c(c2[C@@]2(C(N1C(c1nnc(o1)[H])([H])[H])([H])[H])C(=O)N(c1c(nc(c3c(c(c(c(c13)[H])[H])[H])[H])[H])[H])C([C@@]2(C(N(c1nc(nc(n1)[H])[H])[H])([H])[H])[H])([H])[H])[H])[H])[H]

>  <h>  (1) 
<NA>

>  <Training>  (1) 
True

>  <Success>  (1) 
True

>  <enamine_searched>  (1) 
False

>  <enamine_id>  (1) 
nan

$$$$

     RDKit          3D

 51 54  0  0  0  0  0  0  0  0999 V2000
   13.2450   -2.3855   23.8088 C   0  0  0  0  0  0  0  0  0  0  0  0
   12.0948   -1.7520   24.3226 O   0  0  0  0  0  0  0  0  0  0  0  0
   10.9328   -1.9728   23.6477 C   0  0  0  0  0  0  0  0  0  0  0  0
   10.8048   -2.8750   22.5974 C   0  0  0  0  0  0  0  0  0  0  0  0
    9.5548   -3.1104   22.0246 C   0  0  0  0  0  0  0  0  0  0  0  0
    8.4457   -2.4004   22.4651 C   0  0  0  0  0  0  0  0  0  0  0  0
    7.1509   -2.7171   21.9611 N   0  0  0  0  0  0  0  0  0  0  0  0
    6.5787   -3.9966   22.3623 C   0  0  0  0  0  0  0  0  0  0  0  0
    6.0430   -3.9694   23.7795 C   0  0  0  0  0  0  0  0  0  0  0  0
    4.6807   -3.8025   24.0241 C   0  0  0  0  0  0  0  0  0  0  0  0
    4.2024   -3.8058   25.3291 C   0  0  0  0  0  0  0  0  0  0  0  0
    5.0659   -4.0061   26.3983 C   0  0  0  0  0  0  0  0  0  0  0  0
    6.4244   -4.1627   26.1441 C   0  0  0  0  0  0  0  0  0  0  0  0
    7.5067   -4.4727   27.4719 Cl  0  0  0  0  0  0  0  0  0  0  0  0
    6.9256   -4.0995   24.8516 C   0  0  0  0  0  0  0  0  0  0  0  0
    7.9959   -4.1890   24.6705 H   0  0  0  0  0  0  0  0  0  0  0  0
    4.6958   -4.0404   27.4191 H   0  0  0  0  0  0  0  0  0  0  0  0
    3.1376   -3.7032   25.5125 H   0  0  0  0  0  0  0  0  0  0  0  0
    3.9925   -3.6629   23.1933 H   0  0  0  0  0  0  0  0  0  0  0  0
    5.7863   -4.2149   21.6476 H   0  0  0  0  0  0  0  0  0  0  0  0
    7.3490   -4.7709   22.2669 H   0  0  0  0  0  0  0  0  0  0  0  0
    6.2923   -1.7886   21.4187 C   0  0  0  0  0  0  0  0  0  0  0  0
    5.0931   -1.9954   21.3330 O   0  0  0  0  0  0  0  0  0  0  0  0
    6.9310   -0.5089   20.8713 C   0  0  0  0  0  0  0  0  0  0  0  0
    6.1243    0.0812   19.7538 C   0  0  0  0  0  0  0  0  0  0  0  0
    6.4341   -0.2242   18.4536 C   0  0  0  0  0  0  0  0  0  0  0  0
    5.7687    0.2223   17.3571 N   0  0  0  0  0  0  0  0  0  0  0  0
    4.7490    1.0164   17.5717 C   0  0  0  0  0  0  0  0  0  0  0  0
    4.2972    1.4026   18.8637 C   0  0  0  0  0  0  0  0  0  0  0  0
    3.1826    2.2622   19.0379 C   0  0  0  0  0  0  0  0  0  0  0  0
    2.7643    2.6112   20.2919 C   0  0  0  0  0  0  0  0  0  0  0  0
    3.4435    2.1146   21.4277 C   0  0  0  0  0  0  0  0  0  0  0  0
    4.5260    1.2827   21.2859 C   0  0  0  0  0  0  0  0  0  0  0  0
    4.9903    0.9122   19.9939 C   0  0  0  0  0  0  0  0  0  0  0  0
    5.0266    0.8970   22.1698 H   0  0  0  0  0  0  0  0  0  0  0  0
    3.1077    2.4058   22.4198 H   0  0  0  0  0  0  0  0  0  0  0  0
    1.9109    3.2716   20.4257 H   0  0  0  0  0  0  0  0  0  0  0  0
    2.6770    2.6436   18.1536 H   0  0  0  0  0  0  0  0  0  0  0  0
    4.2110    1.3953   16.7010 H   0  0  0  0  0  0  0  0  0  0  0  0
    7.2801   -0.8778   18.2425 H   0  0  0  0  0  0  0  0  0  0  0  0
    7.9433   -0.7624   20.5318 H   0  0  0  0  0  0  0  0  0  0  0  0
    7.0427    0.2051   21.6987 H   0  0  0  0  0  0  0  0  0  0  0  0
    8.5907   -1.4390   23.4653 C   0  0  0  0  0  0  0  0  0  0  0  0
    9.8280   -1.2254   24.0536 C   0  0  0  0  0  0  0  0  0  0  0  0
   10.0010   -0.4555   24.7932 H   0  0  0  0  0  0  0  0  0  0  0  0
    7.7267   -0.8729   23.8088 H   0  0  0  0  0  0  0  0  0  0  0  0
    9.4464   -3.8350   21.2199 H   0  0  0  0  0  0  0  0  0  0  0  0
   11.6627   -3.3832   22.1846 H   0  0  0  0  0  0  0  0  0  0  0  0
   14.0888   -1.8063   24.1659 H   0  0  0  0  0  0  0  0  0  0  0  0
   13.3276   -3.4351   24.1107 H   0  0  0  0  0  0  0  0  0  0  0  0
   13.2376   -2.3640   22.7264 H   0  0  0  0  0  0  0  0  0  0  0  0
  1  2  1  0
  2  3  1  0
  3  4  2  0
  4  5  1  0
  5  6  2  0
  6  7  1  0
  7  8  1  0
  8  9  1  0
  9 10  2  0
 10 11  1  0
 11 12  2  0
 12 13  1  0
 13 14  1  0
 13 15  2  0
 15 16  1  0
 12 17  1  0
 11 18  1  0
 10 19  1  0
  8 20  1  0
  8 21  1  0
  7 22  1  0
 22 23  2  0
 22 24  1  0
 24 25  1  0
 25 26  2  0
 26 27  1  0
 27 28  2  0
 28 29  1  0
 29 30  2  0
 30 31  1  0
 31 32  2  0
 32 33  1  0
 33 34  2  0
 33 35  1  0
 32 36  1  0
 31 37  1  0
 30 38  1  0
 28 39  1  0
 26 40  1  0
 24 41  1  0
 24 42  1  0
  6 43  1  0
 43 44  2  0
 44 45  1  0
 43 46  1  0
  5 47  1  0
  4 48  1  0
  1 49  1  0
  1 50  1  0
  1 51  1  0
 44  3  1  0
 15  9  1  0
 34 25  1  0
 34 29  1  0
M  END
>  <cnnaffinities>  (2) 
[6.25255]

>  <score>  (2) 
6.25255

>  <index>  (2) 
1

>  <Smiles>  (2) 
C(Oc1c(c(c(N(C(c2c(c(c(c(Cl)c2[H])[H])[H])[H])([H])[H])C(=O)C(c2c(nc(c3c(c(c(c(c23)[H])[H])[H])[H])[H])[H])([H])[H])c(c1[H])[H])[H])[H])([H])([H])[H]

>  <h>  (2) 
<NA>

>  <Training>  (2) 
True

>  <Success>  (2) 
True

>  <enamine_searched>  (2) 
False

>  <enamine_id>  (2) 
nan

$$$$

     RDKit          3D

 56 60  0  0  0  0  0  0  0  0999 V2000
   13.8668   -0.1987   23.9477 C   0  0  0  0  0  0  0  0  0  0  0  0
   12.9796   -1.3038   23.6466 N   0  0  0  0  0  0  0  0  0  0  0  0
   12.3819   -1.2799   22.4258 C   0  0  0  0  0  0  0  0  0  0  0  0
   12.1620   -0.2127   21.8615 O   0  0  0  0  0  0  0  0  0  0  0  0
   11.8754   -2.5936   21.8551 C   0  0  0  0  0  0  0  0  0  0  0  0
   10.5056   -2.8045   22.2967 N   0  0  0  0  0  0  0  0  0  0  0  0
    9.3799   -2.5080   21.4285 C   0  0  0  0  0  0  0  0  0  0  0  0
    8.1904   -1.8793   22.1845 C   0  0  2  0  0  0  0  0  0  0  0  0
    7.0267   -1.7495   21.1883 C   0  0  0  0  0  0  0  0  0  0  0  0
    6.3369   -2.6410   20.7385 O   0  0  0  0  0  0  0  0  0  0  0  0
    6.8649   -0.4163   20.8655 N   0  0  0  0  0  0  0  0  0  0  0  0
    6.0890    0.0174   19.7690 C   0  0  0  0  0  0  0  0  0  0  0  0
    6.4244   -0.3152   18.4798 C   0  0  0  0  0  0  0  0  0  0  0  0
    5.7921    0.1778   17.3849 N   0  0  0  0  0  0  0  0  0  0  0  0
    4.7971    1.0099   17.5842 C   0  0  0  0  0  0  0  0  0  0  0  0
    4.3299    1.4090   18.8708 C   0  0  0  0  0  0  0  0  0  0  0  0
    3.2229    2.2789   19.0423 C   0  0  0  0  0  0  0  0  0  0  0  0
    2.7999    2.6172   20.2996 C   0  0  0  0  0  0  0  0  0  0  0  0
    3.4655    2.1157   21.4400 C   0  0  0  0  0  0  0  0  0  0  0  0
    4.5443    1.2778   21.2995 C   0  0  0  0  0  0  0  0  0  0  0  0
    4.9955    0.9058   20.0037 C   0  0  0  0  0  0  0  0  0  0  0  0
    5.0534    0.8820   22.1716 H   0  0  0  0  0  0  0  0  0  0  0  0
    3.1227    2.3944   22.4317 H   0  0  0  0  0  0  0  0  0  0  0  0
    1.9460    3.2750   20.4279 H   0  0  0  0  0  0  0  0  0  0  0  0
    2.7280    2.6614   18.1557 H   0  0  0  0  0  0  0  0  0  0  0  0
    4.2959    1.4040   16.7017 H   0  0  0  0  0  0  0  0  0  0  0  0
    7.2502   -0.9961   18.2830 H   0  0  0  0  0  0  0  0  0  0  0  0
    7.8414    0.4680   21.4663 C   0  0  0  0  0  0  0  0  0  0  0  0
    8.3702   -0.3848   22.6208 C   0  0  2  0  0  0  0  0  0  0  0  0
    9.7483   -0.0063   23.0212 N   0  0  0  0  0  4  0  0  0  0  0  0
   10.1095   -0.7211   23.6814 H   0  0  0  0  0  0  0  0  0  0  0  0
   10.3924    0.0313   22.1916 H   0  0  0  0  0  0  0  0  0  0  0  0
    9.7792    0.9168   23.5002 H   0  0  0  0  0  0  0  0  0  0  0  0
    7.7047   -0.2411   23.4729 H   0  0  0  0  0  0  0  0  0  0  0  0
    8.6468    0.7255   20.7598 H   0  0  0  0  0  0  0  0  0  0  0  0
    7.3750    1.4088   21.7880 H   0  0  0  0  0  0  0  0  0  0  0  0
    7.8969   -2.7985   23.3523 C   0  0  0  0  0  0  0  0  0  0  0  0
    6.6032   -2.8962   23.8741 C   0  0  0  0  0  0  0  0  0  0  0  0
    6.3737   -3.6698   24.9990 C   0  0  0  0  0  0  0  0  0  0  0  0
    4.7520   -3.7856   25.6300 Cl  0  0  0  0  0  0  0  0  0  0  0  0
    7.3996   -4.3827   25.6175 C   0  0  0  0  0  0  0  0  0  0  0  0
    8.6794   -4.2886   25.1022 C   0  0  0  0  0  0  0  0  0  0  0  0
    8.9304   -3.5067   23.9809 C   0  0  0  0  0  0  0  0  0  0  0  0
   10.3393   -3.4141   23.5030 C   0  0  0  0  0  0  0  0  0  0  0  0
   11.2945   -3.7865   24.1860 O   0  0  0  0  0  0  0  0  0  0  0  0
    9.5098   -4.8117   25.5604 H   0  0  0  0  0  0  0  0  0  0  0  0
    7.1788   -5.0249   26.4629 H   0  0  0  0  0  0  0  0  0  0  0  0
    5.7723   -2.4037   23.3804 H   0  0  0  0  0  0  0  0  0  0  0  0
    9.7114   -1.8487   20.6235 H   0  0  0  0  0  0  0  0  0  0  0  0
    9.0041   -3.4402   21.0007 H   0  0  0  0  0  0  0  0  0  0  0  0
   12.5062   -3.4118   22.2098 H   0  0  0  0  0  0  0  0  0  0  0  0
   11.9291   -2.5285   20.7636 H   0  0  0  0  0  0  0  0  0  0  0  0
   13.1869   -2.2005   24.0536 H   0  0  0  0  0  0  0  0  0  0  0  0
   13.3420    0.7565   23.9400 H   0  0  0  0  0  0  0  0  0  0  0  0
   14.6024   -0.1140   23.1476 H   0  0  0  0  0  0  0  0  0  0  0  0
   14.3367   -0.3556   24.9199 H   0  0  0  0  0  0  0  0  0  0  0  0
  1  2  1  0
  2  3  1  0
  3  4  2  0
  3  5  1  0
  5  6  1  0
  6  7  1  0
  8  7  1  6
  8  9  1  0
  9 10  2  0
  9 11  1  0
 11 12  1  0
 12 13  2  0
 13 14  1  0
 14 15  2  0
 15 16  1  0
 16 17  2  0
 17 18  1  0
 18 19  2  0
 19 20  1  0
 20 21  2  0
 20 22  1  0
 19 23  1  0
 18 24  1  0
 17 25  1  0
 15 26  1  0
 13 27  1  0
 11 28  1  0
 28 29  1  0
 29 30  1  0
 30 31  1  0
 30 32  1  0
 30 33  1  0
 29 34  1  1
 28 35  1  0
 28 36  1  0
  8 37  1  0
 37 38  2  0
 38 39  1  0
 39 40  1  0
 39 41  2  0
 41 42  1  0
 42 43  2  0
 43 44  1  0
 44 45  2  0
 42 46  1  0
 41 47  1  0
 38 48  1  0
  7 49  1  0
  7 50  1  0
  5 51  1  0
  5 52  1  0
  2 53  1  0
  1 54  1  0
  1 55  1  0
  1 56  1  0
 44  6  1  0
 29  8  1  0
 43 37  1  0
 21 12  1  0
 21 16  1  0
M  CHG  1  30   1
M  END
>  <cnnaffinities>  (3) 
[6.49779]

>  <score>  (3) 
6.49779

>  <index>  (3) 
2

>  <Smiles>  (3) 
C(N(C(=O)C(N1C([C@@]2(C(=O)N(c3c(nc(c4c(c(c(c(c34)[H])[H])[H])[H])[H])[H])C([C@@]2([N+]([H])([H])[H])[H])([H])[H])c2c(c(Cl)c(c(c2C1=O)[H])[H])[H])([H])[H])([H])[H])[H])([H])([H])[H]

>  <h>  (3) 
<NA>

>  <Training>  (3) 
True

>  <Success>  (3) 
True

>  <enamine_searched>  (3) 
False

>  <enamine_id>  (3) 
nan

$$$$

     RDKit          3D

 67 73  0  0  0  0  0  0  0  0999 V2000
    9.0564   -1.4143   26.4802 O   0  0  0  0  0  0  0  0  0  0  0  0
    8.7389   -0.8811   25.4205 C   0  0  0  0  0  0  0  0  0  0  0  0
    9.7475   -0.3715   24.4401 C   0  0  0  0  0  0  0  0  0  0  0  0
   11.0060   -0.0448   24.9111 C   0  0  0  0  0  0  0  0  0  0  0  0
   12.0308    0.2788   24.0489 C   0  0  0  0  0  0  0  0  0  0  0  0
   11.7731    0.2135   22.6806 C   0  0  0  0  0  0  0  0  0  0  0  0
   13.0969    0.4709   21.6000 Cl  0  0  0  0  0  0  0  0  0  0  0  0
   10.5074   -0.0595   22.1819 C   0  0  0  0  0  0  0  0  0  0  0  0
    9.4533   -0.2632   23.0789 C   0  0  0  0  0  0  0  0  0  0  0  0
    8.0350   -0.4763   22.6244 C   0  0  1  0  0  0  0  0  0  0  0  0
    7.0754   -0.0867   23.7882 C   0  0  0  0  0  0  0  0  0  0  0  0
    7.4416   -0.7052   25.0531 N   0  0  0  0  0  0  0  0  0  0  0  0
    6.4171   -0.9769   26.0559 C   0  0  0  0  0  0  0  0  0  0  0  0
    6.1798    0.1633   27.0267 C   0  0  0  0  0  0  0  0  0  0  0  0
    6.9379    0.3252   28.1671 C   0  0  0  0  0  0  0  0  0  0  0  0
    6.6715    1.4325   28.9694 C   0  0  0  0  0  0  0  0  0  0  0  0
    5.7202    2.3202   28.7063 N   0  0  0  0  0  0  0  0  0  0  0  0
    4.9772    2.1662   27.6189 N   0  0  0  0  0  0  0  0  0  0  0  0
    5.1891    1.1312   26.8155 C   0  0  0  0  0  0  0  0  0  0  0  0
    4.5174    1.0815   25.9581 H   0  0  0  0  0  0  0  0  0  0  0  0
    7.2366    1.6157   29.8809 H   0  0  0  0  0  0  0  0  0  0  0  0
    7.7188   -0.3801   28.4384 H   0  0  0  0  0  0  0  0  0  0  0  0
    6.7556   -1.8595   26.6036 H   0  0  0  0  0  0  0  0  0  0  0  0
    5.4905   -1.2233   25.5292 H   0  0  0  0  0  0  0  0  0  0  0  0
    7.0525    1.0092   23.8862 H   0  0  0  0  0  0  0  0  0  0  0  0
    6.0590   -0.4146   23.5353 H   0  0  0  0  0  0  0  0  0  0  0  0
    7.6134    0.3227   21.3767 C   0  0  0  0  0  0  0  0  0  0  0  0
    7.8873    1.4666   21.0817 O   0  0  0  0  0  0  0  0  0  0  0  0
    6.7821   -0.4858   20.6174 N   0  0  0  0  0  0  0  0  0  0  0  0
    5.9966    0.0522   19.5599 C   0  0  0  0  0  0  0  0  0  0  0  0
    6.2789   -0.2569   18.2528 C   0  0  0  0  0  0  0  0  0  0  0  0
    5.6189    0.2516   17.1780 N   0  0  0  0  0  0  0  0  0  0  0  0
    4.6335    1.0891   17.4032 C   0  0  0  0  0  0  0  0  0  0  0  0
    4.1980    1.4618   18.7096 C   0  0  0  0  0  0  0  0  0  0  0  0
    3.0983    2.3422   18.9202 C   0  0  0  0  0  0  0  0  0  0  0  0
    2.7025    2.6651   20.1905 C   0  0  0  0  0  0  0  0  0  0  0  0
    3.3817    2.1254   21.3065 C   0  0  0  0  0  0  0  0  0  0  0  0
    4.4464    1.2781   21.1310 C   0  0  0  0  0  0  0  0  0  0  0  0
    4.8906    0.9287   19.8236 C   0  0  0  0  0  0  0  0  0  0  0  0
    4.9638    0.8683   21.9936 H   0  0  0  0  0  0  0  0  0  0  0  0
    3.0673    2.3914   22.3102 H   0  0  0  0  0  0  0  0  0  0  0  0
    1.8610    3.3351   20.3525 H   0  0  0  0  0  0  0  0  0  0  0  0
    2.5857    2.7580   18.0544 H   0  0  0  0  0  0  0  0  0  0  0  0
    4.1202    1.5128   16.5345 H   0  0  0  0  0  0  0  0  0  0  0  0
    7.0962   -0.9380   18.0162 H   0  0  0  0  0  0  0  0  0  0  0  0
    6.6168   -1.8267   21.1673 C   0  0  0  0  0  0  0  0  0  0  0  0
    7.8331   -1.9276   22.0957 C   0  0  2  0  0  0  0  0  0  0  0  0
    7.8451   -3.0225   23.1764 C   0  0  0  0  0  0  0  0  0  0  0  0
    7.9503   -4.3732   22.6688 N   0  0  0  0  0  0  0  0  0  0  0  0
    6.8842   -5.0418   22.1594 C   0  0  0  0  0  0  0  0  0  0  0  0
    5.5616   -4.7864   22.5752 C   0  0  0  0  0  0  0  0  0  0  0  0
    4.5972   -5.5957   22.0120 C   0  0  0  0  0  0  0  0  0  0  0  0
    4.8752   -6.5458   21.1091 N   0  0  0  0  0  0  0  0  0  0  0  0
    6.1461   -6.6780   20.7791 C   0  0  0  0  0  0  0  0  0  0  0  0
    7.1769   -6.0053   21.2702 N   0  0  0  0  0  0  0  0  0  0  0  0
    6.3691   -7.4054   19.9934 H   0  0  0  0  0  0  0  0  0  0  0  0
    3.5436   -5.4808   22.2713 H   0  0  0  0  0  0  0  0  0  0  0  0
    5.2934   -4.0172   23.2993 H   0  0  0  0  0  0  0  0  0  0  0  0
    8.8102   -4.6085   22.1870 H   0  0  0  0  0  0  0  0  0  0  0  0
    6.9549   -2.9600   23.8042 H   0  0  0  0  0  0  0  0  0  0  0  0
    8.7053   -2.8797   23.8398 H   0  0  0  0  0  0  0  0  0  0  0  0
    8.7009   -2.1074   21.4493 H   0  0  0  0  0  0  0  0  0  0  0  0
    5.6761   -1.9300   21.7323 H   0  0  0  0  0  0  0  0  0  0  0  0
    6.5917   -2.5653   20.3654 H   0  0  0  0  0  0  0  0  0  0  0  0
   10.3175   -0.1108   21.1133 H   0  0  0  0  0  0  0  0  0  0  0  0
   13.0104    0.5782   24.4109 H   0  0  0  0  0  0  0  0  0  0  0  0
   11.1279   -0.0454   25.9785 H   0  0  0  0  0  0  0  0  0  0  0  0
  1  2  2  0
  2  3  1  0
  3  4  2  0
  4  5  1  0
  5  6  2  0
  6  7  1  0
  6  8  1  0
  8  9  2  0
  9 10  1  0
 10 11  1  1
 11 12  1  0
 12 13  1  0
 13 14  1  0
 14 15  2  0
 15 16  1  0
 16 17  2  0
 17 18  1  0
 18 19  2  0
 19 20  1  0
 16 21  1  0
 15 22  1  0
 13 23  1  0
 13 24  1  0
 11 25  1  0
 11 26  1  0
 10 27  1  0
 27 28  2  0
 27 29  1  0
 29 30  1  0
 30 31  2  0
 31 32  1  0
 32 33  2  0
 33 34  1  0
 34 35  2  0
 35 36  1  0
 36 37  2  0
 37 38  1  0
 38 39  2  0
 38 40  1  0
 37 41  1  0
 36 42  1  0
 35 43  1  0
 33 44  1  0
 31 45  1  0
 29 46  1  0
 46 47  1  0
 47 48  1  0
 48 49  1  0
 49 50  1  0
 50 51  2  0
 51 52  1  0
 52 53  2  0
 53 54  1  0
 54 55  2  0
 54 56  1  0
 52 57  1  0
 51 58  1  0
 49 59  1  0
 48 60  1  0
 48 61  1  0
 47 62  1  6
 46 63  1  0
 46 64  1  0
  8 65  1  0
  5 66  1  0
  4 67  1  0
 12  2  1  0
 19 14  1  0
 39 30  1  0
 55 50  1  0
  9  3  1  0
 47 10  1  0
 39 34  1  0
M  END
>  <cnnaffinities>  (4) 
[6.28084]

>  <score>  (4) 
6.28084

>  <index>  (4) 
3

>  <Smiles>  (4) 
O=C1c2c(c(c(Cl)c(c2[C@@]2(C(N1C(c1c(c(nnc1[H])[H])[H])([H])[H])([H])[H])C(=O)N(c1c(nc(c3c(c(c(c(c13)[H])[H])[H])[H])[H])[H])C([C@@]2(C(N(c1c(c(nc(n1)[H])[H])[H])[H])([H])[H])[H])([H])[H])[H])[H])[H]

>  <h>  (4) 
<NA>

>  <Training>  (4) 
True

>  <Success>  (4) 
True

>  <enamine_searched>  (4) 
False

>  <enamine_id>  (4) 
nan

$$$$

     RDKit          3D

 41 44  0  0  0  0  0  0  0  0999 V2000
    7.1639   -0.0210   24.5756 C   0  0  0  0  0  0  0  0  0  0  0  0
    7.3846   -1.3201   23.8056 C   0  0  1  0  0  0  0  0  0  0  0  0
    7.7772   -2.4384   24.7412 C   0  0  0  0  0  0  0  0  0  0  0  0
    9.0145   -2.5093   25.4529 C   0  0  0  0  0  0  0  0  0  0  0  0
    9.0741   -3.6212   26.2362 C   0  0  0  0  0  0  0  0  0  0  0  0
    7.6506   -4.5759   26.1545 S   0  0  0  0  0  0  0  0  0  0  0  0
    6.9522   -3.4861   25.0127 C   0  0  0  0  0  0  0  0  0  0  0  0
    5.6280   -3.6978   24.3522 C   0  0  0  0  0  0  0  0  0  0  0  0
    5.1452   -2.3885   23.7352 C   0  0  0  0  0  0  0  0  0  0  0  0
    6.2158   -1.7017   23.0083 N   0  0  0  0  0  0  0  0  0  0  0  0
    6.1552   -1.6293   21.6275 C   0  0  0  0  0  0  0  0  0  0  0  0
    5.4817   -2.4040   20.9742 O   0  0  0  0  0  0  0  0  0  0  0  0
    6.9171   -0.4879   20.9136 C   0  0  0  0  0  0  0  0  0  0  0  0
    6.1180    0.0907   19.7654 C   0  0  0  0  0  0  0  0  0  0  0  0
    6.4219   -0.2147   18.4624 C   0  0  0  0  0  0  0  0  0  0  0  0
    5.7565    0.2355   17.3631 N   0  0  0  0  0  0  0  0  0  0  0  0
    4.7359    1.0312   17.5745 C   0  0  0  0  0  0  0  0  0  0  0  0
    4.2875    1.4231   18.8680 C   0  0  0  0  0  0  0  0  0  0  0  0
    3.1648    2.2751   19.0433 C   0  0  0  0  0  0  0  0  0  0  0  0
    2.7501    2.6278   20.3001 C   0  0  0  0  0  0  0  0  0  0  0  0
    3.4413    2.1403   21.4315 C   0  0  0  0  0  0  0  0  0  0  0  0
    4.5315    1.3160   21.2874 C   0  0  0  0  0  0  0  0  0  0  0  0
    4.9902    0.9378   19.9964 C   0  0  0  0  0  0  0  0  0  0  0  0
    5.0451    0.9501   22.1707 H   0  0  0  0  0  0  0  0  0  0  0  0
    3.1062    2.4266   22.4233 H   0  0  0  0  0  0  0  0  0  0  0  0
    1.8934    3.2826   20.4365 H   0  0  0  0  0  0  0  0  0  0  0  0
    2.6444    2.6461   18.1632 H   0  0  0  0  0  0  0  0  0  0  0  0
    4.1993    1.4000   16.6989 H   0  0  0  0  0  0  0  0  0  0  0  0
    7.2659   -0.8678   18.2456 H   0  0  0  0  0  0  0  0  0  0  0  0
    7.8461   -0.9136   20.5148 H   0  0  0  0  0  0  0  0  0  0  0  0
    7.2072    0.3112   21.6089 H   0  0  0  0  0  0  0  0  0  0  0  0
    4.3132   -2.5665   23.0520 H   0  0  0  0  0  0  0  0  0  0  0  0
    4.7706   -1.7369   24.5353 H   0  0  0  0  0  0  0  0  0  0  0  0
    5.7356   -4.4446   23.5577 H   0  0  0  0  0  0  0  0  0  0  0  0
    4.8872   -4.0990   25.0537 H   0  0  0  0  0  0  0  0  0  0  0  0
    9.8787   -3.9922   26.8382 H   0  0  0  0  0  0  0  0  0  0  0  0
    9.8152   -1.7753   25.3721 H   0  0  0  0  0  0  0  0  0  0  0  0
    8.2269   -1.1763   23.1175 H   0  0  0  0  0  0  0  0  0  0  0  0
    8.0857    0.2854   25.0739 H   0  0  0  0  0  0  0  0  0  0  0  0
    6.4002   -0.1655   25.3434 H   0  0  0  0  0  0  0  0  0  0  0  0
    6.8448    0.7843   23.9104 H   0  0  0  0  0  0  0  0  0  0  0  0
  1  2  1  0
  2  3  1  0
  3  4  1  0
  4  5  2  0
  5  6  1  0
  6  7  1  0
  7  8  1  0
  8  9  1  0
  9 10  1  0
 10 11  1  0
 11 12  2  0
 11 13  1  0
 13 14  1  0
 14 15  2  0
 15 16  1  0
 16 17  2  0
 17 18  1  0
 18 19  2  0
 19 20  1  0
 20 21  2  0
 21 22  1  0
 22 23  2  0
 22 24  1  0
 21 25  1  0
 20 26  1  0
 19 27  1  0
 17 28  1  0
 15 29  1  0
 13 30  1  0
 13 31  1  0
  9 32  1  0
  9 33  1  0
  8 34  1  0
  8 35  1  0
  5 36  1  0
  4 37  1  0
  2 38  1  6
  1 39  1  0
  1 40  1  0
  1 41  1  0
 10  2  1  0
 23 14  1  0
  7  3  2  0
 23 18  1  0
M  END
>  <cnnaffinities>  (5) 
[5.41727, 5.44657, 5.8713]

>  <score>  (5) 
5.41727

>  <index>  (5) 
4

>  <Smiles>  (5) 
C([C@]1(c2c(c(sc2C(C(N1C(=O)C(c1c(nc(c2c(c(c(c(c12)[H])[H])[H])[H])[H])[H])([H])[H])([H])[H])([H])[H])[H])[H])[H])([H])([H])[H]

>  <h>  (5) 
<NA>

>  <Training>  (5) 
True

>  <Success>  (5) 
True

>  <enamine_searched>  (5) 
False

>  <enamine_id>  (5) 
nan

$$$$

     RDKit          3D

 50 54  0  0  0  0  0  0  0  0999 V2000
    9.8177    0.1289   23.0372 C   0  0  0  0  0  0  0  0  0  0  0  0
    8.4295   -0.3301   22.6156 C   0  0  1  0  0  0  0  0  0  0  0  0
    7.8708    0.4905   21.4440 C   0  0  0  0  0  0  0  0  0  0  0  0
    6.9018   -0.4058   20.8462 N   0  0  0  0  0  0  0  0  0  0  0  0
    6.0978    0.0208   19.7561 C   0  0  0  0  0  0  0  0  0  0  0  0
    6.4145   -0.3064   18.4605 C   0  0  0  0  0  0  0  0  0  0  0  0
    5.7674    0.1805   17.3685 N   0  0  0  0  0  0  0  0  0  0  0  0
    4.7727    1.0113   17.5709 C   0  0  0  0  0  0  0  0  0  0  0  0
    4.3157    1.4139   18.8598 C   0  0  0  0  0  0  0  0  0  0  0  0
    3.2085    2.2884   19.0351 C   0  0  0  0  0  0  0  0  0  0  0  0
    2.7883    2.6286   20.2928 C   0  0  0  0  0  0  0  0  0  0  0  0
    3.4597    2.1223   21.4286 C   0  0  0  0  0  0  0  0  0  0  0  0
    4.5399    1.2852   21.2815 C   0  0  0  0  0  0  0  0  0  0  0  0
    4.9960    0.9092   19.9902 C   0  0  0  0  0  0  0  0  0  0  0  0
    5.0505    0.8897   22.1522 H   0  0  0  0  0  0  0  0  0  0  0  0
    3.1154    2.3964   22.4221 H   0  0  0  0  0  0  0  0  0  0  0  0
    1.9303    3.2829   20.4257 H   0  0  0  0  0  0  0  0  0  0  0  0
    2.7016    2.6702   18.1516 H   0  0  0  0  0  0  0  0  0  0  0  0
    4.2671    1.4009   16.6867 H   0  0  0  0  0  0  0  0  0  0  0  0
    7.2390   -0.9849   18.2552 H   0  0  0  0  0  0  0  0  0  0  0  0
    7.1163   -1.7372   21.1581 C   0  0  0  0  0  0  0  0  0  0  0  0
    6.4522   -2.6448   20.7067 O   0  0  0  0  0  0  0  0  0  0  0  0
    8.2854   -1.8333   22.1748 C   0  0  1  0  0  0  0  0  0  0  0  0
    9.5304   -2.3930   21.4397 C   0  0  0  0  0  0  0  0  0  0  0  0
   10.6498   -2.6554   22.3358 N   0  0  0  0  0  0  0  0  0  0  0  0
   12.0247   -2.2874   22.0373 C   0  0  0  0  0  0  0  0  0  0  0  0
   12.6074   -1.3336   23.0124 C   0  0  0  0  0  0  0  0  0  0  0  0
   13.0333   -0.6092   23.8123 N   0  0  0  0  0  0  0  0  0  0  0  0
   12.0826   -1.8588   21.0365 H   0  0  0  0  0  0  0  0  0  0  0  0
   12.6582   -3.1779   22.0666 H   0  0  0  0  0  0  0  0  0  0  0  0
   10.4496   -3.4191   23.4556 C   0  0  0  0  0  0  0  0  0  0  0  0
   11.3710   -3.9293   24.0735 O   0  0  0  0  0  0  0  0  0  0  0  0
    9.0300   -3.5134   23.9315 C   0  0  0  0  0  0  0  0  0  0  0  0
    8.7794   -4.3176   25.0443 C   0  0  0  0  0  0  0  0  0  0  0  0
    7.5005   -4.4433   25.5549 C   0  0  0  0  0  0  0  0  0  0  0  0
    6.4785   -3.7307   24.9409 C   0  0  0  0  0  0  0  0  0  0  0  0
    5.2356   -3.8309   25.4417 F   0  0  0  0  0  0  0  0  0  0  0  0
    6.6930   -2.9266   23.8380 C   0  0  0  0  0  0  0  0  0  0  0  0
    7.9908   -2.7881   23.3250 C   0  0  0  0  0  0  0  0  0  0  0  0
    5.8382   -2.4372   23.3831 H   0  0  0  0  0  0  0  0  0  0  0  0
    7.2754   -5.0958   26.3928 H   0  0  0  0  0  0  0  0  0  0  0  0
    9.6178   -4.8253   25.5107 H   0  0  0  0  0  0  0  0  0  0  0  0
    9.2305   -3.3294   20.9582 H   0  0  0  0  0  0  0  0  0  0  0  0
    9.8324   -1.7004   20.6545 H   0  0  0  0  0  0  0  0  0  0  0  0
    8.6513    0.7756   20.7171 H   0  0  0  0  0  0  0  0  0  0  0  0
    7.3865    1.4200   21.7646 H   0  0  0  0  0  0  0  0  0  0  0  0
    7.7331   -0.2139   23.4573 H   0  0  0  0  0  0  0  0  0  0  0  0
    9.8152    1.1674   23.3805 H   0  0  0  0  0  0  0  0  0  0  0  0
   10.5193    0.0750   22.1968 H   0  0  0  0  0  0  0  0  0  0  0  0
   10.2065   -0.4938   23.8470 H   0  0  0  0  0  0  0  0  0  0  0  0
  1  2  1  0
  2  3  1  0
  3  4  1  0
  4  5  1  0
  5  6  2  0
  6  7  1  0
  7  8  2  0
  8  9  1  0
  9 10  2  0
 10 11  1  0
 11 12  2  0
 12 13  1  0
 13 14  2  0
 13 15  1  0
 12 16  1  0
 11 17  1  0
 10 18  1  0
  8 19  1  0
  6 20  1  0
  4 21  1  0
 21 22  2  0
 21 23  1  0
 23 24  1  6
 24 25  1  0
 25 26  1  0
 26 27  1  0
 27 28  3  0
 26 29  1  0
 26 30  1  0
 25 31  1  0
 31 32  2  0
 31 33  1  0
 33 34  2  0
 34 35  1  0
 35 36  2  0
 36 37  1  0
 36 38  1  0
 38 39  2  0
 38 40  1  0
 35 41  1  0
 34 42  1  0
 24 43  1  0
 24 44  1  0
  3 45  1  0
  3 46  1  0
  2 47  1  1
  1 48  1  0
  1 49  1  0
  1 50  1  0
 23  2  1  0
 39 33  1  0
 14  5  1  0
 39 23  1  0
 14  9  1  0
M  END
>  <cnnaffinities>  (6) 
[6.60682]

>  <score>  (6) 
6.60682

>  <index>  (6) 
5

>  <Smiles>  (6) 
C([C@]1(C(N(c2c(nc(c3c(c(c(c(c23)[H])[H])[H])[H])[H])[H])C(=O)[C@]21C(N(C(C#N)([H])[H])C(=O)c1c(c(c(F)c(c21)[H])[H])[H])([H])[H])([H])[H])[H])([H])([H])[H]

>  <h>  (6) 
<NA>

>  <Training>  (6) 
True

>  <Success>  (6) 
True

>  <enamine_searched>  (6) 
False

>  <enamine_id>  (6) 
nan

$$$$

     RDKit          3D

 65 69  0  0  0  0  0  0  0  0999 V2000
    6.6183   -3.4135   29.7400 C   0  0  0  0  0  0  0  0  0  0  0  0
    7.7430   -3.4340   28.6950 C   0  0  0  0  0  0  0  0  0  0  0  0
    7.4534   -2.3126   27.7272 C   0  0  0  0  0  0  0  0  0  0  0  0
    7.5680   -1.1482   28.0064 O   0  0  0  0  0  0  0  0  0  0  0  0
    6.9206   -2.7073   26.3479 N   0  0  1  0  0  4  0  0  0  0  0  0
    5.3951   -2.4261   26.1667 C   0  0  0  0  0  0  0  0  0  0  0  0
    5.1852   -0.9515   25.8644 C   0  0  0  0  0  0  0  0  0  0  0  0
    5.8794   -0.5760   24.5509 C   0  0  0  0  0  0  0  0  0  0  0  0
    7.3309   -1.0243   24.4756 C   0  0  0  0  0  0  0  0  0  0  0  0
    8.2702   -0.4257   23.6081 C   0  0  0  0  0  0  0  0  0  0  0  0
    7.9179    0.7694   22.8801 N   0  0  0  0  0  0  0  0  0  0  0  0
    8.2530    2.0679   23.4868 C   0  0  0  0  0  0  0  0  0  0  0  0
    7.0850    3.0476   23.4727 C   0  0  0  0  0  0  0  0  0  0  0  0
    6.8415    3.8385   22.3476 C   0  0  0  0  0  0  0  0  0  0  0  0
    5.7467    4.6976   22.3089 C   0  0  0  0  0  0  0  0  0  0  0  0
    4.8768    4.7877   23.3933 C   0  0  0  0  0  0  0  0  0  0  0  0
    5.1363    4.0182   24.5178 C   0  0  0  0  0  0  0  0  0  0  0  0
    4.0411    4.0838   25.8732 Cl  0  0  0  0  0  0  0  0  0  0  0  0
    6.2352    3.1656   24.5752 C   0  0  0  0  0  0  0  0  0  0  0  0
    6.3953    2.5842   25.4776 H   0  0  0  0  0  0  0  0  0  0  0  0
    3.9944    5.4218   23.3700 H   0  0  0  0  0  0  0  0  0  0  0  0
    5.5555    5.2942   21.4172 H   0  0  0  0  0  0  0  0  0  0  0  0
    7.5096    3.7612   21.4938 H   0  0  0  0  0  0  0  0  0  0  0  0
    8.5422    1.8474   24.5218 H   0  0  0  0  0  0  0  0  0  0  0  0
    9.1006    2.5120   22.9436 H   0  0  0  0  0  0  0  0  0  0  0  0
    7.8134    0.7555   21.4927 C   0  0  0  0  0  0  0  0  0  0  0  0
    8.3100    1.6118   20.7864 O   0  0  0  0  0  0  0  0  0  0  0  0
    6.9913   -0.3929   20.8956 C   0  0  0  0  0  0  0  0  0  0  0  0
    6.1253    0.0972   19.7649 C   0  0  0  0  0  0  0  0  0  0  0  0
    6.4387   -0.2043   18.4683 C   0  0  0  0  0  0  0  0  0  0  0  0
    5.7637    0.2353   17.3689 N   0  0  0  0  0  0  0  0  0  0  0  0
    4.7428    1.0278   17.5829 C   0  0  0  0  0  0  0  0  0  0  0  0
    4.3006    1.4254   18.8704 C   0  0  0  0  0  0  0  0  0  0  0  0
    3.1888    2.2868   19.0466 C   0  0  0  0  0  0  0  0  0  0  0  0
    2.7775    2.6467   20.2974 C   0  0  0  0  0  0  0  0  0  0  0  0
    3.4625    2.1587   21.4358 C   0  0  0  0  0  0  0  0  0  0  0  0
    4.5527    1.3353   21.2932 C   0  0  0  0  0  0  0  0  0  0  0  0
    5.0062    0.9496   20.0030 C   0  0  0  0  0  0  0  0  0  0  0  0
    5.0787    0.9853   22.1766 H   0  0  0  0  0  0  0  0  0  0  0  0
    3.1182    2.4394   22.4275 H   0  0  0  0  0  0  0  0  0  0  0  0
    1.9255    3.3103   20.4177 H   0  0  0  0  0  0  0  0  0  0  0  0
    2.6805    2.6543   18.1579 H   0  0  0  0  0  0  0  0  0  0  0  0
    4.2076    1.3911   16.7027 H   0  0  0  0  0  0  0  0  0  0  0  0
    7.2839   -0.8521   18.2396 H   0  0  0  0  0  0  0  0  0  0  0  0
    7.6889   -1.1542   20.5228 H   0  0  0  0  0  0  0  0  0  0  0  0
    6.4170   -0.8612   21.7024 H   0  0  0  0  0  0  0  0  0  0  0  0
    9.5627   -0.9364   23.4668 C   0  0  0  0  0  0  0  0  0  0  0  0
    9.9513   -2.0699   24.1768 C   0  0  0  0  0  0  0  0  0  0  0  0
    9.0474   -2.6573   25.0555 C   0  0  0  0  0  0  0  0  0  0  0  0
    7.7699   -2.1184   25.2193 C   0  0  0  0  0  0  0  0  0  0  0  0
    9.3233   -3.5187   25.6563 H   0  0  0  0  0  0  0  0  0  0  0  0
   10.9561   -2.4738   24.0580 H   0  0  0  0  0  0  0  0  0  0  0  0
   10.2666   -0.4464   22.7915 H   0  0  0  0  0  0  0  0  0  0  0  0
    5.3210   -1.0574   23.7311 H   0  0  0  0  0  0  0  0  0  0  0  0
    5.8228    0.5014   24.3782 H   0  0  0  0  0  0  0  0  0  0  0  0
    4.1125   -0.7465   25.7995 H   0  0  0  0  0  0  0  0  0  0  0  0
    5.5899   -0.3697   26.7000 H   0  0  0  0  0  0  0  0  0  0  0  0
    4.8587   -2.7322   27.0701 H   0  0  0  0  0  0  0  0  0  0  0  0
    5.0416   -3.0477   25.3409 H   0  0  0  0  0  0  0  0  0  0  0  0
    7.0565   -3.7290   26.2781 H   0  0  0  0  0  0  0  0  0  0  0  0
    7.8174   -4.3747   28.1392 H   0  0  0  0  0  0  0  0  0  0  0  0
    8.7246   -3.2261   29.1338 H   0  0  0  0  0  0  0  0  0  0  0  0
    6.7540   -4.1189   30.5596 H   0  0  0  0  0  0  0  0  0  0  0  0
    5.6547   -3.6367   29.2730 H   0  0  0  0  0  0  0  0  0  0  0  0
    6.5662   -2.4097   30.1675 H   0  0  0  0  0  0  0  0  0  0  0  0
  1  2  1  0
  2  3  1  0
  3  4  2  0
  3  5  1  0
  5  6  1  0
  6  7  1  0
  7  8  1  0
  8  9  1  0
  9 10  2  0
 10 11  1  0
 11 12  1  0
 12 13  1  0
 13 14  2  0
 14 15  1  0
 15 16  2  0
 16 17  1  0
 17 18  1  0
 17 19  2  0
 19 20  1  0
 16 21  1  0
 15 22  1  0
 14 23  1  0
 12 24  1  0
 12 25  1  0
 11 26  1  0
 26 27  2  0
 26 28  1  0
 28 29  1  0
 29 30  2  0
 30 31  1  0
 31 32  2  0
 32 33  1  0
 33 34  2  0
 34 35  1  0
 35 36  2  0
 36 37  1  0
 37 38  2  0
 37 39  1  0
 36 40  1  0
 35 41  1  0
 34 42  1  0
 32 43  1  0
 30 44  1  0
 28 45  1  0
 28 46  1  0
 10 47  1  0
 47 48  2  0
 48 49  1  0
 49 50  2  0
 49 51  1  0
 48 52  1  0
 47 53  1  0
  8 54  1  0
  8 55  1  0
  7 56  1  0
  7 57  1  0
  6 58  1  0
  6 59  1  0
  5 60  1  1
  2 61  1  0
  2 62  1  0
  1 63  1  0
  1 64  1  0
  1 65  1  0
 50  5  1  0
 50  9  1  0
 19 13  1  0
 38 29  1  0
 38 33  1  0
M  CHG  1   5   1
M  END
>  <cnnaffinities>  (7) 
[6.40992]

>  <score>  (7) 
6.40992

>  <index>  (7) 
6

>  <Smiles>  (7) 
C(C(C(=O)[N@+]1(C(C(C(c2c(N(C(c3c(c(c(c(Cl)c3[H])[H])[H])[H])([H])[H])C(=O)C(c3c(nc(c4c(c(c(c(c34)[H])[H])[H])[H])[H])[H])([H])[H])c(c(c(c12)[H])[H])[H])([H])[H])([H])[H])([H])[H])[H])([H])[H])([H])([H])[H]

>  <h>  (7) 
<NA>

>  <Training>  (7) 
True

>  <Success>  (7) 
True

>  <enamine_searched>  (7) 
False

>  <enamine_id>  (7) 
nan

$$$$

     RDKit          3D

 37 39  0  0  0  0  0  0  0  0999 V2000
    5.6393   -2.5314   20.8814 O   0  0  0  0  0  0  0  0  0  0  0  0
    6.1306   -1.6643   21.5761 C   0  0  0  0  0  0  0  0  0  0  0  0
    6.9053   -0.4974   20.9174 C   0  0  0  0  0  0  0  0  0  0  0  0
    6.1172    0.0937   19.7653 C   0  0  0  0  0  0  0  0  0  0  0  0
    6.4230   -0.2143   18.4648 C   0  0  0  0  0  0  0  0  0  0  0  0
    5.7563    0.2351   17.3653 N   0  0  0  0  0  0  0  0  0  0  0  0
    4.7360    1.0307   17.5760 C   0  0  0  0  0  0  0  0  0  0  0  0
    4.2879    1.4234   18.8662 C   0  0  0  0  0  0  0  0  0  0  0  0
    3.1653    2.2718   19.0439 C   0  0  0  0  0  0  0  0  0  0  0  0
    2.7476    2.6247   20.2988 C   0  0  0  0  0  0  0  0  0  0  0  0
    3.4400    2.1391   21.4318 C   0  0  0  0  0  0  0  0  0  0  0  0
    4.5323    1.3193   21.2875 C   0  0  0  0  0  0  0  0  0  0  0  0
    4.9915    0.9414   19.9969 C   0  0  0  0  0  0  0  0  0  0  0  0
    5.0518    0.9599   22.1728 H   0  0  0  0  0  0  0  0  0  0  0  0
    3.1068    2.4275   22.4245 H   0  0  0  0  0  0  0  0  0  0  0  0
    1.8901    3.2806   20.4335 H   0  0  0  0  0  0  0  0  0  0  0  0
    2.6494    2.6418   18.1611 H   0  0  0  0  0  0  0  0  0  0  0  0
    4.2024    1.3985   16.6972 H   0  0  0  0  0  0  0  0  0  0  0  0
    7.2657   -0.8672   18.2400 H   0  0  0  0  0  0  0  0  0  0  0  0
    7.8415   -0.9102   20.5207 H   0  0  0  0  0  0  0  0  0  0  0  0
    7.1734    0.2818   21.6444 H   0  0  0  0  0  0  0  0  0  0  0  0
    5.9720   -1.6697   22.9559 N   0  0  0  0  0  0  0  0  0  0  0  0
    4.6545   -2.0072   23.4884 C   0  0  0  0  0  0  0  0  0  0  0  0
    4.7524   -2.8259   24.7654 C   0  0  0  0  0  0  0  0  0  0  0  0
    5.6500   -2.1400   25.7874 C   0  0  0  0  0  0  0  0  0  0  0  0
    7.0158   -1.8678   25.1730 C   0  0  0  0  0  0  0  0  0  0  0  0
    6.9000   -1.0504   23.8869 C   0  0  0  0  0  0  0  0  0  0  0  0
    7.8746   -0.9920   23.4042 H   0  0  0  0  0  0  0  0  0  0  0  0
    6.5994   -0.0208   24.1431 H   0  0  0  0  0  0  0  0  0  0  0  0
    7.5159   -2.8163   24.9561 H   0  0  0  0  0  0  0  0  0  0  0  0
    7.6593   -1.3395   25.8815 H   0  0  0  0  0  0  0  0  0  0  0  0
    5.7462   -2.7552   26.6889 H   0  0  0  0  0  0  0  0  0  0  0  0
    5.1934   -1.1946   26.1081 H   0  0  0  0  0  0  0  0  0  0  0  0
    3.7514   -2.9874   25.1790 H   0  0  0  0  0  0  0  0  0  0  0  0
    5.1498   -3.8170   24.5285 H   0  0  0  0  0  0  0  0  0  0  0  0
    4.0755   -1.0893   23.6914 H   0  0  0  0  0  0  0  0  0  0  0  0
    4.1256   -2.5532   22.7087 H   0  0  0  0  0  0  0  0  0  0  0  0
  1  2  2  0
  2  3  1  0
  3  4  1  0
  4  5  2  0
  5  6  1  0
  6  7  2  0
  7  8  1  0
  8  9  2  0
  9 10  1  0
 10 11  2  0
 11 12  1  0
 12 13  2  0
 12 14  1  0
 11 15  1  0
 10 16  1  0
  9 17  1  0
  7 18  1  0
  5 19  1  0
  3 20  1  0
  3 21  1  0
  2 22  1  0
 22 23  1  0
 23 24  1  0
 24 25  1  0
 25 26  1  0
 26 27  1  0
 27 28  1  0
 27 29  1  0
 26 30  1  0
 26 31  1  0
 25 32  1  0
 25 33  1  0
 24 34  1  0
 24 35  1  0
 23 36  1  0
 23 37  1  0
 13  4  1  0
 27 22  1  0
 13  8  1  0
M  END
>  <cnnaffinities>  (8) 
[5.01148, 5.31625, 5.31625, 4.68828, 4.68837, 4.42378, 4.98266]

>  <score>  (8) 
5.01148

>  <index>  (8) 
7

>  <Smiles>  (8) 
O=C(C(c1c(nc(c2c(c(c(c(c12)[H])[H])[H])[H])[H])[H])([H])[H])N1C(C(C(C(C1([H])[H])([H])[H])([H])[H])([H])[H])([H])[H]

>  <h>  (8) 
<NA>

>  <Training>  (8) 
True

>  <Success>  (8) 
True

>  <enamine_searched>  (8) 
False

>  <enamine_id>  (8) 
nan

$$$$

     RDKit          3D

 66 71  0  0  0  0  0  0  0  0999 V2000
    8.3504   -2.9237   23.0384 C   0  0  0  0  0  0  0  0  0  0  0  0
    8.3331   -1.7720   22.0377 C   0  0  1  0  0  0  0  0  0  0  0  0
    7.0874   -1.7458   21.1426 C   0  0  0  0  0  0  0  0  0  0  0  0
    6.9234   -0.3492   20.8144 N   0  0  0  0  0  0  0  0  0  0  0  0
    6.1282    0.1197   19.7549 C   0  0  0  0  0  0  0  0  0  0  0  0
    6.4380   -0.2254   18.4649 C   0  0  0  0  0  0  0  0  0  0  0  0
    5.7703    0.2187   17.3744 N   0  0  0  0  0  0  0  0  0  0  0  0
    4.7539    1.0215   17.5850 C   0  0  0  0  0  0  0  0  0  0  0  0
    4.3098    1.4225   18.8765 C   0  0  0  0  0  0  0  0  0  0  0  0
    3.1878    2.2737   19.0442 C   0  0  0  0  0  0  0  0  0  0  0  0
    2.7546    2.6164   20.2945 C   0  0  0  0  0  0  0  0  0  0  0  0
    3.4192    2.1241   21.4411 C   0  0  0  0  0  0  0  0  0  0  0  0
    4.5122    1.3083   21.3057 C   0  0  0  0  0  0  0  0  0  0  0  0
    4.9993    0.9518   20.0135 C   0  0  0  0  0  0  0  0  0  0  0  0
    5.0124    0.9399   22.1962 H   0  0  0  0  0  0  0  0  0  0  0  0
    3.0617    2.3954   22.4309 H   0  0  0  0  0  0  0  0  0  0  0  0
    1.8952    3.2682   20.4174 H   0  0  0  0  0  0  0  0  0  0  0  0
    2.6867    2.6428   18.1529 H   0  0  0  0  0  0  0  0  0  0  0  0
    4.2048    1.3819   16.7126 H   0  0  0  0  0  0  0  0  0  0  0  0
    7.2959   -0.8687   18.2717 H   0  0  0  0  0  0  0  0  0  0  0  0
    7.6432    0.5055   21.6043 C   0  0  0  0  0  0  0  0  0  0  0  0
    7.6319    1.7151   21.5083 O   0  0  0  0  0  0  0  0  0  0  0  0
    8.4158   -0.3185   22.6303 C   0  0  1  0  0  0  0  0  0  0  0  0
    7.6820   -0.0966   23.9849 C   0  0  0  0  0  0  0  0  0  0  0  0
    8.4615   -0.5251   25.1337 N   0  0  0  0  0  0  0  0  0  0  0  0
    7.8440   -1.1951   26.2772 C   0  0  0  0  0  0  0  0  0  0  0  0
    7.1213   -0.2638   27.2678 C   0  0  0  0  0  0  0  0  0  0  0  0
    7.7062    0.2211   28.2245 O   0  0  0  0  0  0  0  0  0  0  0  0
    5.8035    0.0011   27.0145 N   0  0  0  0  0  0  0  0  0  0  0  0
    5.1538    1.1109   27.7133 C   0  0  0  0  0  0  0  0  0  0  0  0
    3.6573    1.0594   27.6463 C   0  0  0  0  0  0  0  0  0  0  0  0
    2.7465    1.7113   26.8371 C   0  0  0  0  0  0  0  0  0  0  0  0
    1.4916    1.2065   27.2255 C   0  0  0  0  0  0  0  0  0  0  0  0
    1.6050    0.3294   28.2115 N   0  0  0  0  0  0  0  0  0  0  0  0
    2.9222    0.2510   28.4571 N   0  0  0  0  0  0  0  0  0  0  0  0
    3.3722   -0.5936   29.5401 C   0  0  0  0  0  0  0  0  0  0  0  0
    4.2506   -1.1646   29.2304 H   0  0  0  0  0  0  0  0  0  0  0  0
    3.6119   -0.0103   30.4350 H   0  0  0  0  0  0  0  0  0  0  0  0
    2.5550   -1.2756   29.7709 H   0  0  0  0  0  0  0  0  0  0  0  0
    0.5067    1.4334   26.8371 H   0  0  0  0  0  0  0  0  0  0  0  0
    2.9736    2.4303   26.0620 H   0  0  0  0  0  0  0  0  0  0  0  0
    5.5035    2.0600   27.2875 H   0  0  0  0  0  0  0  0  0  0  0  0
    5.5019    1.0857   28.7541 H   0  0  0  0  0  0  0  0  0  0  0  0
    5.2917   -0.5072   26.3061 H   0  0  0  0  0  0  0  0  0  0  0  0
    8.6507   -1.6672   26.8493 H   0  0  0  0  0  0  0  0  0  0  0  0
    7.1297   -1.9501   25.9119 H   0  0  0  0  0  0  0  0  0  0  0  0
    9.8019   -0.2812   25.1486 C   0  0  0  0  0  0  0  0  0  0  0  0
   10.5150   -0.4263   26.1112 O   0  0  0  0  0  0  0  0  0  0  0  0
   10.4862    0.1833   23.9496 C   0  0  0  0  0  0  0  0  0  0  0  0
   11.8223    0.5358   24.1098 C   0  0  0  0  0  0  0  0  0  0  0  0
   12.5522    0.9206   23.0173 C   0  0  0  0  0  0  0  0  0  0  0  0
   11.9118    0.9210   21.7854 C   0  0  0  0  0  0  0  0  0  0  0  0
   10.5885    0.5320   21.6334 C   0  0  0  0  0  0  0  0  0  0  0  0
    9.8387    0.1645   22.7392 C   0  0  0  0  0  0  0  0  0  0  0  0
   10.0915    0.4921   20.6700 H   0  0  0  0  0  0  0  0  0  0  0  0
   12.4939    1.2153   20.9398 H   0  0  0  0  0  0  0  0  0  0  0  0
   13.5968    1.2035   23.1010 H   0  0  0  0  0  0  0  0  0  0  0  0
   12.2457    0.4985   25.1013 H   0  0  0  0  0  0  0  0  0  0  0  0
    7.4661    0.9810   24.0617 H   0  0  0  0  0  0  0  0  0  0  0  0
    6.7310   -0.6399   23.9803 H   0  0  0  0  0  0  0  0  0  0  0  0
    7.1991   -2.3014   20.2182 H   0  0  0  0  0  0  0  0  0  0  0  0
    6.1992   -2.1302   21.6585 H   0  0  0  0  0  0  0  0  0  0  0  0
    9.2103   -1.8786   21.3803 H   0  0  0  0  0  0  0  0  0  0  0  0
    7.4645   -2.9049   23.6838 H   0  0  0  0  0  0  0  0  0  0  0  0
    9.2356   -2.8764   23.6798 H   0  0  0  0  0  0  0  0  0  0  0  0
    8.3580   -3.8868   22.5186 H   0  0  0  0  0  0  0  0  0  0  0  0
  1  2  1  0
  2  3  1  0
  3  4  1  0
  4  5  1  0
  5  6  2  0
  6  7  1  0
  7  8  2  0
  8  9  1  0
  9 10  2  0
 10 11  1  0
 11 12  2  0
 12 13  1  0
 13 14  2  0
 13 15  1  0
 12 16  1  0
 11 17  1  0
 10 18  1  0
  8 19  1  0
  6 20  1  0
  4 21  1  0
 21 22  2  0
 21 23  1  0
 23 24  1  1
 24 25  1  0
 25 26  1  0
 26 27  1  0
 27 28  2  0
 27 29  1  0
 29 30  1  0
 30 31  1  0
 31 32  2  0
 32 33  1  0
 33 34  2  0
 34 35  1  0
 35 36  1  0
 36 37  1  0
 36 38  1  0
 36 39  1  0
 33 40  1  0
 32 41  1  0
 30 42  1  0
 30 43  1  0
 29 44  1  0
 26 45  1  0
 26 46  1  0
 25 47  1  0
 47 48  2  0
 47 49  1  0
 49 50  2  0
 50 51  1  0
 51 52  2  0
 52 53  1  0
 53 54  2  0
 53 55  1  0
 52 56  1  0
 51 57  1  0
 50 58  1  0
 24 59  1  0
 24 60  1  0
  3 61  1  0
  3 62  1  0
  2 63  1  6
  1 64  1  0
  1 65  1  0
  1 66  1  0
 23  2  1  0
 35 31  1  0
 54 49  1  0
 14  5  1  0
 54 23  1  0
 14  9  1  0
M  END
>  <cnnaffinities>  (9) 
[6.4216]

>  <score>  (9) 
6.4216

>  <index>  (9) 
8

>  <Smiles>  (9) 
C([C@]1(C(N(c2c(nc(c3c(c(c(c(c23)[H])[H])[H])[H])[H])[H])C(=O)[C@]21C(N(C(C(=O)N(C(c1c(c(nn1C([H])([H])[H])[H])[H])([H])[H])[H])([H])[H])C(=O)c1c(c(c(c(c21)[H])[H])[H])[H])([H])[H])([H])[H])[H])([H])([H])[H]

>  <h>  (9) 
<NA>

>  <Training>  (9) 
True

>  <Success>  (9) 
True

>  <enamine_searched>  (9) 
False

>  <enamine_id>  (9) 
nan

$$$$

     RDKit          3D

 58 63  0  0  0  0  0  0  0  0999 V2000
    4.9590    2.9750   28.4375 C   0  0  0  0  0  0  0  0  0  0  0  0
    5.8111    1.7907   28.1804 C   0  0  0  0  0  0  0  0  0  0  0  0
    5.7096    0.9243   27.0541 C   0  0  0  0  0  0  0  0  0  0  0  0
    6.6489   -0.0176   27.2953 C   0  0  0  0  0  0  0  0  0  0  0  0
    7.1723   -1.1486   26.4092 C   0  0  0  0  0  0  0  0  0  0  0  0
    7.9651   -0.8499   25.2523 N   0  0  0  0  0  0  0  0  0  0  0  0
    7.3245   -0.0680   24.0132 C   0  0  0  0  0  0  0  0  0  0  0  0
    8.1837   -0.4623   22.8032 C   0  0  2  0  0  0  0  0  0  0  0  0
    7.6477    0.3965   21.6799 C   0  0  0  0  0  0  0  0  0  0  0  0
    7.7532    1.6004   21.5863 O   0  0  0  0  0  0  0  0  0  0  0  0
    6.9317   -0.4082   20.8358 N   0  0  0  0  0  0  0  0  0  0  0  0
    6.1456    0.1123   19.7746 C   0  0  0  0  0  0  0  0  0  0  0  0
    6.4325   -0.2236   18.4764 C   0  0  0  0  0  0  0  0  0  0  0  0
    5.7612    0.2294   17.3848 N   0  0  0  0  0  0  0  0  0  0  0  0
    4.7405    1.0296   17.5817 C   0  0  0  0  0  0  0  0  0  0  0  0
    4.2908    1.4198   18.8773 C   0  0  0  0  0  0  0  0  0  0  0  0
    3.1640    2.2716   19.0520 C   0  0  0  0  0  0  0  0  0  0  0  0
    2.7439    2.6124   20.3082 C   0  0  0  0  0  0  0  0  0  0  0  0
    3.4213    2.1148   21.4421 C   0  0  0  0  0  0  0  0  0  0  0  0
    4.5081    1.2930   21.2983 C   0  0  0  0  0  0  0  0  0  0  0  0
    4.9931    0.9382   20.0109 C   0  0  0  0  0  0  0  0  0  0  0  0
    5.0257    0.9097   22.1707 H   0  0  0  0  0  0  0  0  0  0  0  0
    3.0838    2.3842   22.4370 H   0  0  0  0  0  0  0  0  0  0  0  0
    1.8871    3.2644   20.4478 H   0  0  0  0  0  0  0  0  0  0  0  0
    2.6445    2.6481   18.1715 H   0  0  0  0  0  0  0  0  0  0  0  0
    4.2026    1.3975   16.7000 H   0  0  0  0  0  0  0  0  0  0  0  0
    7.2816   -0.8689   18.2562 H   0  0  0  0  0  0  0  0  0  0  0  0
    6.8954   -1.7995   21.2470 C   0  0  0  0  0  0  0  0  0  0  0  0
    7.9899   -1.9338   22.3001 C   0  0  2  0  0  0  0  0  0  0  0  0
    7.7159   -3.0141   23.3393 C   0  0  0  0  0  0  0  0  0  0  0  0
    7.6513   -3.9924   22.8626 H   0  0  0  0  0  0  0  0  0  0  0  0
    8.4922   -3.0468   24.1016 H   0  0  0  0  0  0  0  0  0  0  0  0
    6.7776   -2.8323   23.8615 H   0  0  0  0  0  0  0  0  0  0  0  0
    8.9301   -2.1919   21.7927 H   0  0  0  0  0  0  0  0  0  0  0  0
    7.0815   -2.4337   20.3947 H   0  0  0  0  0  0  0  0  0  0  0  0
    5.9173   -2.0957   21.6391 H   0  0  0  0  0  0  0  0  0  0  0  0
    9.6621   -0.1825   23.0869 C   0  0  0  0  0  0  0  0  0  0  0  0
   10.5516    0.0653   22.0099 C   0  0  0  0  0  0  0  0  0  0  0  0
   11.9068    0.2600   22.2472 C   0  0  0  0  0  0  0  0  0  0  0  0
   12.7980    0.5397   21.2792 F   0  0  0  0  0  0  0  0  0  0  0  0
   12.4028    0.2237   23.5485 C   0  0  0  0  0  0  0  0  0  0  0  0
   11.5182    0.0820   24.5730 C   0  0  0  0  0  0  0  0  0  0  0  0
   10.1747   -0.2644   24.4306 C   0  0  0  0  0  0  0  0  0  0  0  0
    9.3750   -0.7138   25.6847 C   0  0  0  0  0  0  0  0  0  0  0  0
    9.3749   -0.7138   25.6846 O   0  0  0  0  0  0  0  0  0  0  0  0
   11.8334    0.2783   25.5949 H   0  0  0  0  0  0  0  0  0  0  0  0
   13.4767    0.4107   23.6973 H   0  0  0  0  0  0  0  0  0  0  0  0
   10.1780    0.0994   21.0071 H   0  0  0  0  0  0  0  0  0  0  0  0
    6.2879   -0.4820   23.9592 H   0  0  0  0  0  0  0  0  0  0  0  0
    7.2948    1.0253   24.2062 H   0  0  0  0  0  0  0  0  0  0  0  0
    7.6330   -1.9415   27.0227 H   0  0  0  0  0  0  0  0  0  0  0  0
    6.1982   -1.5796   26.0380 H   0  0  0  0  0  0  0  0  0  0  0  0
    7.2753    0.2487   28.4478 O   0  0  0  0  0  0  0  0  0  0  0  0
    6.7486    1.4052   29.0087 N   0  0  0  0  0  0  0  0  0  0  0  0
    5.0491    1.0010   26.1990 H   0  0  0  0  0  0  0  0  0  0  0  0
    4.6983    3.4603   27.5002 H   0  0  0  0  0  0  0  0  0  0  0  0
    4.0254    2.6582   28.8987 H   0  0  0  0  0  0  0  0  0  0  0  0
    5.4531    3.6896   29.0885 H   0  0  0  0  0  0  0  0  0  0  0  0
  1  2  1  0
  2  3  1  0
  3  4  2  0
  4  5  1  0
  5  6  1  0
  6  7  1  0
  8  7  1  1
  8  9  1  0
  9 10  2  0
  9 11  1  0
 11 12  1  0
 12 13  2  0
 13 14  1  0
 14 15  2  0
 15 16  1  0
 16 17  2  0
 17 18  1  0
 18 19  2  0
 19 20  1  0
 20 21  2  0
 20 22  1  0
 19 23  1  0
 18 24  1  0
 17 25  1  0
 15 26  1  0
 13 27  1  0
 11 28  1  0
 28 29  1  0
 29 30  1  0
 30 31  1  0
 30 32  1  0
 30 33  1  0
 29 34  1  6
 28 35  1  0
 28 36  1  0
  8 37  1  0
 37 38  2  0
 38 39  1  0
 39 40  1  0
 39 41  2  0
 41 42  1  0
 42 43  2  0
 43 44  1  0
 44 45  2  0
 42 46  1  0
 41 47  1  0
 38 48  1  0
  7 49  1  0
  7 50  1  0
  5 51  1  0
  5 52  1  0
  4 53  1  0
 53 54  1  0
  3 55  1  0
  1 56  1  0
  1 57  1  0
  1 58  1  0
 54  2  2  0
 44  6  1  0
 29  8  1  0
 43 37  1  0
 21 12  1  0
 21 16  1  0
M  END
>  <cnnaffinities>  (10) 
[6.26747]

>  <score>  (10) 
6.26747

>  <index>  (10) 
9

>  <Smiles>  (10) 
C(c1c(c(C(N2C([C@@]3(C(=O)N(c4c(nc(c5c(c(c(c(c45)[H])[H])[H])[H])[H])[H])C([C@@]3(C([H])([H])[H])[H])([H])[H])c3c(c(F)c(c(c3C2=O)[H])[H])[H])([H])[H])([H])[H])on1)[H])([H])([H])[H]

>  <h>  (10) 
<NA>

>  <Training>  (10) 
True

>  <Success>  (10) 
True

>  <enamine_searched>  (10) 
False

>  <enamine_id>  (10) 
nan

$$$$

     RDKit          3D

 72 77  0  0  0  0  0  0  0  0999 V2000
    8.7640    0.8947   31.2051 C   0  0  0  0  0  0  0  0  0  0  0  0
    8.0557    1.4289   29.9762 C   0  0  1  0  0  0  0  0  0  0  0  0
    7.7218    0.3252   28.9732 C   0  0  0  0  0  0  0  0  0  0  0  0
    6.9951    0.8666   27.7602 N   0  0  0  0  0  4  0  0  0  0  0  0
    6.0192   -0.1047   27.1757 C   0  0  0  0  0  0  0  0  0  0  0  0
    6.7613   -1.2201   26.4630 C   0  0  0  0  0  0  0  0  0  0  0  0
    7.7058   -0.6111   25.4261 N   0  0  0  0  0  0  0  0  0  0  0  0
    7.2252   -0.1149   24.0650 C   0  0  0  0  0  0  0  0  0  0  0  0
    8.2437   -0.4578   22.9147 C   0  0  2  0  0  0  0  0  0  0  0  0
    7.7896    0.4162   21.7170 C   0  0  0  0  0  0  0  0  0  0  0  0
    7.9994    1.5993   21.5370 O   0  0  0  0  0  0  0  0  0  0  0  0
    7.0144   -0.3608   20.8763 N   0  0  0  0  0  0  0  0  0  0  0  0
    6.2161    0.1546   19.8198 C   0  0  0  0  0  0  0  0  0  0  0  0
    6.4980   -0.2240   18.5311 C   0  0  0  0  0  0  0  0  0  0  0  0
    5.8238    0.1940   17.4318 N   0  0  0  0  0  0  0  0  0  0  0  0
    4.8090    1.0022   17.6203 C   0  0  0  0  0  0  0  0  0  0  0  0
    4.3597    1.4237   18.9035 C   0  0  0  0  0  0  0  0  0  0  0  0
    3.2220    2.2616   19.0466 C   0  0  0  0  0  0  0  0  0  0  0  0
    2.7634    2.6025   20.2882 C   0  0  0  0  0  0  0  0  0  0  0  0
    3.4227    2.1213   21.4411 C   0  0  0  0  0  0  0  0  0  0  0  0
    4.5391    1.3290   21.3296 C   0  0  0  0  0  0  0  0  0  0  0  0
    5.0552    0.9719   20.0505 C   0  0  0  0  0  0  0  0  0  0  0  0
    5.0310    0.9686   22.2286 H   0  0  0  0  0  0  0  0  0  0  0  0
    3.0428    2.3851   22.4230 H   0  0  0  0  0  0  0  0  0  0  0  0
    1.8926    3.2429   20.3969 H   0  0  0  0  0  0  0  0  0  0  0  0
    2.7298    2.6231   18.1475 H   0  0  0  0  0  0  0  0  0  0  0  0
    4.2709    1.3454   16.7350 H   0  0  0  0  0  0  0  0  0  0  0  0
    7.3330   -0.8975   18.3429 H   0  0  0  0  0  0  0  0  0  0  0  0
    6.8901   -1.7379   21.3101 C   0  0  0  0  0  0  0  0  0  0  0  0
    8.0200   -1.8994   22.3335 C   0  0  2  0  0  0  0  0  0  0  0  0
    7.7409   -2.9976   23.3550 C   0  0  0  0  0  0  0  0  0  0  0  0
    8.4436   -2.9560   24.1960 H   0  0  0  0  0  0  0  0  0  0  0  0
    6.7361   -2.8812   23.7767 H   0  0  0  0  0  0  0  0  0  0  0  0
    7.7866   -3.9867   22.8861 H   0  0  0  0  0  0  0  0  0  0  0  0
    8.9419   -2.1448   21.7875 H   0  0  0  0  0  0  0  0  0  0  0  0
    6.9746   -2.4098   20.4554 H   0  0  0  0  0  0  0  0  0  0  0  0
    5.9103   -1.9269   21.7757 H   0  0  0  0  0  0  0  0  0  0  0  0
    9.7342   -0.2416   23.2986 C   0  0  0  0  0  0  0  0  0  0  0  0
   10.6553   -0.1361   22.2410 C   0  0  0  0  0  0  0  0  0  0  0  0
   11.9764    0.2002   22.4913 C   0  0  0  0  0  0  0  0  0  0  0  0
   13.2459    0.2001   21.3346 Cl  0  0  0  0  0  0  0  0  0  0  0  0
   12.3996    0.5116   23.7717 C   0  0  0  0  0  0  0  0  0  0  0  0
   11.5376    0.3322   24.8129 C   0  0  0  0  0  0  0  0  0  0  0  0
   10.2272   -0.2323   24.6220 C   0  0  0  0  0  0  0  0  0  0  0  0
    9.1883   -0.6966   25.5526 C   0  0  0  0  0  0  0  0  0  0  0  0
    9.3145   -0.6905   25.5408 O   0  0  0  0  0  0  0  0  0  0  0  0
   12.0039    0.6149   25.7464 H   0  0  0  0  0  0  0  0  0  0  0  0
   13.4203    0.8266   23.9664 H   0  0  0  0  0  0  0  0  0  0  0  0
   10.3349   -0.3063   21.2194 H   0  0  0  0  0  0  0  0  0  0  0  0
    7.1285    0.9735   24.1397 H   0  0  0  0  0  0  0  0  0  0  0  0
    6.2470   -0.5595   23.8539 H   0  0  0  0  0  0  0  0  0  0  0  0
    6.0839   -1.9232   25.9733 H   0  0  0  0  0  0  0  0  0  0  0  0
    7.4052   -1.7970   27.1320 H   0  0  0  0  0  0  0  0  0  0  0  0
    5.3725   -0.5060   27.9611 H   0  0  0  0  0  0  0  0  0  0  0  0
    5.3813    0.4428   26.4719 H   0  0  0  0  0  0  0  0  0  0  0  0
    6.3851    2.2017   28.0693 C   0  0  0  0  0  0  0  0  0  0  0  0
    5.8360    2.2297   29.4912 C   0  0  2  0  0  0  0  0  0  0  0  0
    5.0907    3.5110   29.8112 C   0  0  0  0  0  0  0  0  0  0  0  0
    4.2389    3.6415   29.1347 H   0  0  0  0  0  0  0  0  0  0  0  0
    5.7561    4.3753   29.7110 H   0  0  0  0  0  0  0  0  0  0  0  0
    4.7168    3.4790   30.8383 H   0  0  0  0  0  0  0  0  0  0  0  0
    6.8872    2.0946   30.4380 O   0  0  0  0  0  0  0  0  0  0  0  0
    5.1476    1.3771   29.6134 H   0  0  0  0  0  0  0  0  0  0  0  0
    5.5926    2.4046   27.3455 H   0  0  0  0  0  0  0  0  0  0  0  0
    7.1431    2.9841   27.9536 H   0  0  0  0  0  0  0  0  0  0  0  0
    7.7010    0.9959   27.0250 H   0  0  0  0  0  0  0  0  0  0  0  0
    8.6464   -0.1556   28.6352 H   0  0  0  0  0  0  0  0  0  0  0  0
    7.0983   -0.4329   29.4595 H   0  0  0  0  0  0  0  0  0  0  0  0
    8.7051    2.1660   29.4796 H   0  0  0  0  0  0  0  0  0  0  0  0
    8.9750    1.7108   31.9016 H   0  0  0  0  0  0  0  0  0  0  0  0
    9.7104    0.4139   30.9388 H   0  0  0  0  0  0  0  0  0  0  0  0
    8.1303    0.1627   31.7175 H   0  0  0  0  0  0  0  0  0  0  0  0
  1  2  1  0
  2  3  1  0
  3  4  1  0
  4  5  1  0
  5  6  1  0
  6  7  1  0
  7  8  1  0
  9  8  1  1
  9 10  1  0
 10 11  2  0
 10 12  1  0
 12 13  1  0
 13 14  2  0
 14 15  1  0
 15 16  2  0
 16 17  1  0
 17 18  2  0
 18 19  1  0
 19 20  2  0
 20 21  1  0
 21 22  2  0
 21 23  1  0
 20 24  1  0
 19 25  1  0
 18 26  1  0
 16 27  1  0
 14 28  1  0
 12 29  1  0
 29 30  1  0
 30 31  1  0
 31 32  1  0
 31 33  1  0
 31 34  1  0
 30 35  1  6
 29 36  1  0
 29 37  1  0
  9 38  1  0
 38 39  2  0
 39 40  1  0
 40 41  1  0
 40 42  2  0
 42 43  1  0
 43 44  2  0
 44 45  1  0
 45 46  2  0
 43 47  1  0
 42 48  1  0
 39 49  1  0
  8 50  1  0
  8 51  1  0
  6 52  1  0
  6 53  1  0
  5 54  1  0
  5 55  1  0
  4 56  1  0
 56 57  1  0
 57 58  1  0
 58 59  1  0
 58 60  1  0
 58 61  1  0
 57 62  1  0
 57 63  1  6
 56 64  1  0
 56 65  1  0
  4 66  1  0
  3 67  1  0
  3 68  1  0
  2 69  1  6
  1 70  1  0
  1 71  1  0
  1 72  1  0
 62  2  1  0
 45  7  1  0
 30  9  1  0
 44 38  1  0
 22 13  1  0
 22 17  1  0
M  CHG  1   4   1
M  END
>  <cnnaffinities>  (11) 
[6.11827]

>  <score>  (11) 
6.11827

>  <index>  (11) 
10

>  <Smiles>  (11) 
C([C@]1(C([N+](C(C(N2C([C@@]3(C(=O)N(c4c(nc(c5c(c(c(c(c45)[H])[H])[H])[H])[H])[H])C([C@@]3(C([H])([H])[H])[H])([H])[H])c3c(c(Cl)c(c(c3C2=O)[H])[H])[H])([H])[H])([H])[H])([H])[H])(C([C@](C([H])([H])[H])(O1)[H])([H])[H])[H])([H])[H])[H])([H])([H])[H]

>  <h>  (11) 
<NA>

>  <Training>  (11) 
True

>  <Success>  (11) 
True

>  <enamine_searched>  (11) 
False

>  <enamine_id>  (11) 
nan

$$$$

     RDKit          3D

 54 57  0  0  0  0  0  0  0  0999 V2000
    4.8802    1.9201   25.3049 C   0  0  0  0  0  0  0  0  0  0  0  0
    6.1347    1.9634   24.6604 O   0  0  0  0  0  0  0  0  0  0  0  0
    6.4404    2.9879   23.8107 C   0  0  0  0  0  0  0  0  0  0  0  0
    5.5512    4.0265   23.5130 C   0  0  0  0  0  0  0  0  0  0  0  0
    5.9377    5.0308   22.6250 C   0  0  0  0  0  0  0  0  0  0  0  0
    7.1964    5.0146   22.0447 C   0  0  0  0  0  0  0  0  0  0  0  0
    8.0715    3.9819   22.3657 C   0  0  0  0  0  0  0  0  0  0  0  0
    7.7269    2.9602   23.2366 C   0  0  0  0  0  0  0  0  0  0  0  0
    8.6567    1.7845   23.5077 C   0  0  2  0  0  0  0  0  0  0  0  0
   10.1647    2.0531   23.3438 C   0  0  0  0  0  0  0  0  0  0  0  0
   10.9928    0.8544   23.8293 C   0  0  2  0  0  0  0  0  0  0  0  0
   12.4889    1.0787   23.6102 C   0  0  0  0  0  0  0  0  0  0  0  0
   12.8385    1.9806   24.1223 H   0  0  0  0  0  0  0  0  0  0  0  0
   13.0860    0.2309   23.9681 H   0  0  0  0  0  0  0  0  0  0  0  0
   12.7097    1.2054   22.5437 H   0  0  0  0  0  0  0  0  0  0  0  0
   10.5197   -0.4272   23.1388 C   0  0  0  0  0  0  0  0  0  0  0  0
    8.9991   -0.6098   23.2631 C   0  0  0  0  0  0  0  0  0  0  0  0
    8.2609    0.5604   22.7863 N   0  0  0  0  0  0  0  0  0  0  0  0
    7.9300    0.6537   21.4232 C   0  0  0  0  0  0  0  0  0  0  0  0
    8.3434    1.5289   20.6936 O   0  0  0  0  0  0  0  0  0  0  0  0
    6.9757   -0.4305   20.8952 C   0  0  0  0  0  0  0  0  0  0  0  0
    6.1116    0.0831   19.7657 C   0  0  0  0  0  0  0  0  0  0  0  0
    6.4260   -0.2101   18.4646 C   0  0  0  0  0  0  0  0  0  0  0  0
    5.7594    0.2379   17.3655 N   0  0  0  0  0  0  0  0  0  0  0  0
    4.7354    1.0289   17.5761 C   0  0  0  0  0  0  0  0  0  0  0  0
    4.2891    1.4229   18.8657 C   0  0  0  0  0  0  0  0  0  0  0  0
    3.1740    2.2807   19.0431 C   0  0  0  0  0  0  0  0  0  0  0  0
    2.7658    2.6459   20.2972 C   0  0  0  0  0  0  0  0  0  0  0  0
    3.4645    2.1645   21.4309 C   0  0  0  0  0  0  0  0  0  0  0  0
    4.5480    1.3318   21.2895 C   0  0  0  0  0  0  0  0  0  0  0  0
    4.9931    0.9379   19.9995 C   0  0  0  0  0  0  0  0  0  0  0  0
    5.0730    0.9787   22.1736 H   0  0  0  0  0  0  0  0  0  0  0  0
    3.1369    2.4672   22.4233 H   0  0  0  0  0  0  0  0  0  0  0  0
    1.9125    3.3086   20.4264 H   0  0  0  0  0  0  0  0  0  0  0  0
    2.6572    2.6508   18.1601 H   0  0  0  0  0  0  0  0  0  0  0  0
    4.2023    1.3972   16.6966 H   0  0  0  0  0  0  0  0  0  0  0  0
    7.2746   -0.8537   18.2395 H   0  0  0  0  0  0  0  0  0  0  0  0
    6.3700   -0.8303   21.7205 H   0  0  0  0  0  0  0  0  0  0  0  0
    7.5891   -1.2640   20.5238 H   0  0  0  0  0  0  0  0  0  0  0  0
    8.6694   -1.4845   22.6983 H   0  0  0  0  0  0  0  0  0  0  0  0
    8.7407   -0.7784   24.3178 H   0  0  0  0  0  0  0  0  0  0  0  0
   10.7971   -0.3852   22.0783 H   0  0  0  0  0  0  0  0  0  0  0  0
   11.0500   -1.2956   23.5532 H   0  0  0  0  0  0  0  0  0  0  0  0
   10.8237    0.7378   24.9101 H   0  0  0  0  0  0  0  0  0  0  0  0
   10.4530    2.9452   23.9155 H   0  0  0  0  0  0  0  0  0  0  0  0
   10.3992    2.2600   22.2928 H   0  0  0  0  0  0  0  0  0  0  0  0
    8.5159    1.5222   24.5607 H   0  0  0  0  0  0  0  0  0  0  0  0
    9.0407    3.9594   21.8796 H   0  0  0  0  0  0  0  0  0  0  0  0
    7.5024    5.7840   21.3398 H   0  0  0  0  0  0  0  0  0  0  0  0
    5.2506    5.8353   22.3817 H   0  0  0  0  0  0  0  0  0  0  0  0
    4.5625    4.0698   23.9636 H   0  0  0  0  0  0  0  0  0  0  0  0
    4.6979    2.7764   25.9654 H   0  0  0  0  0  0  0  0  0  0  0  0
    4.9060    1.0235   25.9191 H   0  0  0  0  0  0  0  0  0  0  0  0
    4.0302    1.8270   24.6161 H   0  0  0  0  0  0  0  0  0  0  0  0
  1  2  1  0
  2  3  1  0
  3  4  2  0
  4  5  1  0
  5  6  2  0
  6  7  1  0
  7  8  2  0
  8  9  1  0
  9 10  1  0
 10 11  1  0
 11 12  1  0
 12 13  1  0
 12 14  1  0
 12 15  1  0
 11 16  1  0
 16 17  1  0
 17 18  1  0
 18 19  1  0
 19 20  2  0
 19 21  1  0
 21 22  1  0
 22 23  2  0
 23 24  1  0
 24 25  2  0
 25 26  1  0
 26 27  2  0
 27 28  1  0
 28 29  2  0
 29 30  1  0
 30 31  2  0
 30 32  1  0
 29 33  1  0
 28 34  1  0
 27 35  1  0
 25 36  1  0
 23 37  1  0
 21 38  1  0
 21 39  1  0
 17 40  1  0
 17 41  1  0
 16 42  1  0
 16 43  1  0
 11 44  1  1
 10 45  1  0
 10 46  1  0
  9 47  1  1
  7 48  1  0
  6 49  1  0
  5 50  1  0
  4 51  1  0
  1 52  1  0
  1 53  1  0
  1 54  1  0
  8  3  1  0
 18  9  1  0
 31 22  1  0
 31 26  1  0
M  END
>  <cnnaffinities>  (12) 
[5.92251, 5.80443, 5.86853]

>  <score>  (12) 
5.92251

>  <index>  (12) 
11

>  <Smiles>  (12) 
C(Oc1c(c(c(c(c1[C@@]1(C([C@](C([H])([H])[H])(C(C(N1C(=O)C(c1c(nc(c2c(c(c(c(c12)[H])[H])[H])[H])[H])[H])([H])[H])([H])[H])([H])[H])[H])([H])[H])[H])[H])[H])[H])[H])([H])([H])[H]

>  <h>  (12) 
<NA>

>  <Training>  (12) 
True

>  <Success>  (12) 
True

>  <enamine_searched>  (12) 
False

>  <enamine_id>  (12) 
nan

$$$$

     RDKit          3D

 47 50  0  0  0  0  0  0  0  0999 V2000
    5.5816   -2.4847   20.9644 O   0  0  0  0  0  0  0  0  0  0  0  0
    6.1373   -1.6236   21.6271 C   0  0  0  0  0  0  0  0  0  0  0  0
    6.9077   -0.4870   20.9188 C   0  0  0  0  0  0  0  0  0  0  0  0
    6.1152    0.0908   19.7664 C   0  0  0  0  0  0  0  0  0  0  0  0
    6.4213   -0.2152   18.4634 C   0  0  0  0  0  0  0  0  0  0  0  0
    5.7571    0.2359   17.3635 N   0  0  0  0  0  0  0  0  0  0  0  0
    4.7357    1.0313   17.5741 C   0  0  0  0  0  0  0  0  0  0  0  0
    4.2868    1.4239   18.8676 C   0  0  0  0  0  0  0  0  0  0  0  0
    3.1628    2.2740   19.0429 C   0  0  0  0  0  0  0  0  0  0  0  0
    2.7474    2.6255   20.2997 C   0  0  0  0  0  0  0  0  0  0  0  0
    3.4391    2.1407   21.4317 C   0  0  0  0  0  0  0  0  0  0  0  0
    4.5317    1.3196   21.2877 C   0  0  0  0  0  0  0  0  0  0  0  0
    4.9895    0.9409   19.9956 C   0  0  0  0  0  0  0  0  0  0  0  0
    5.0493    0.9588   22.1722 H   0  0  0  0  0  0  0  0  0  0  0  0
    3.1038    2.4271   22.4231 H   0  0  0  0  0  0  0  0  0  0  0  0
    1.8897    3.2781   20.4358 H   0  0  0  0  0  0  0  0  0  0  0  0
    2.6418    2.6441   18.1632 H   0  0  0  0  0  0  0  0  0  0  0  0
    4.1988    1.4000   16.6988 H   0  0  0  0  0  0  0  0  0  0  0  0
    7.2662   -0.8680   18.2475 H   0  0  0  0  0  0  0  0  0  0  0  0
    7.2146    0.3093   21.6072 H   0  0  0  0  0  0  0  0  0  0  0  0
    7.8304   -0.9243   20.5172 H   0  0  0  0  0  0  0  0  0  0  0  0
    6.0653   -1.6146   22.9913 N   0  0  0  0  0  0  0  0  0  0  0  0
    6.9011   -0.8566   23.9160 C   0  0  0  0  0  0  0  0  0  0  0  0
    6.6184   -1.4538   25.3068 C   0  0  2  0  0  0  0  0  0  0  0  0
    7.6577   -2.4964   25.7095 C   0  0  0  0  0  0  0  0  0  0  0  0
    8.9152   -1.9105   25.7579 F   0  0  0  0  0  0  0  0  0  0  0  0
    7.6951   -3.3149   24.9837 H   0  0  0  0  0  0  0  0  0  0  0  0
    7.4633   -2.9228   26.6999 H   0  0  0  0  0  0  0  0  0  0  0  0
    5.1948   -2.0375   25.1774 C   0  0  0  0  0  0  0  0  0  0  0  0
    4.0999   -0.9799   25.4624 C   0  0  0  0  0  0  0  0  0  0  0  0
    2.8228   -1.7523   25.8425 C   0  0  0  0  0  0  0  0  0  0  0  0
    3.2770   -3.1714   26.2309 C   0  0  0  0  0  0  0  0  0  0  0  0
    4.8109   -3.1499   26.1710 C   0  0  0  0  0  0  0  0  0  0  0  0
    5.2221   -4.1234   25.8857 H   0  0  0  0  0  0  0  0  0  0  0  0
    5.2102   -2.9197   27.1667 H   0  0  0  0  0  0  0  0  0  0  0  0
    2.8769   -3.9063   25.5258 H   0  0  0  0  0  0  0  0  0  0  0  0
    2.9230   -3.4584   27.2258 H   0  0  0  0  0  0  0  0  0  0  0  0
    2.1251   -1.7873   25.0028 H   0  0  0  0  0  0  0  0  0  0  0  0
    2.3028   -1.2531   26.6646 H   0  0  0  0  0  0  0  0  0  0  0  0
    3.9448   -0.3160   24.6064 H   0  0  0  0  0  0  0  0  0  0  0  0
    4.4121   -0.3452   26.2994 H   0  0  0  0  0  0  0  0  0  0  0  0
    5.1438   -2.4993   23.6997 C   0  0  0  0  0  0  0  0  0  0  0  0
    5.4370   -3.5512   23.5949 H   0  0  0  0  0  0  0  0  0  0  0  0
    4.1349   -2.4182   23.2873 H   0  0  0  0  0  0  0  0  0  0  0  0
    6.6545   -0.6761   26.0741 H   0  0  0  0  0  0  0  0  0  0  0  0
    6.6313    0.2060   23.9011 H   0  0  0  0  0  0  0  0  0  0  0  0
    7.9611   -0.9491   23.6687 H   0  0  0  0  0  0  0  0  0  0  0  0
  1  2  2  0
  2  3  1  0
  3  4  1  0
  4  5  2  0
  5  6  1  0
  6  7  2  0
  7  8  1  0
  8  9  2  0
  9 10  1  0
 10 11  2  0
 11 12  1  0
 12 13  2  0
 12 14  1  0
 11 15  1  0
 10 16  1  0
  9 17  1  0
  7 18  1  0
  5 19  1  0
  3 20  1  0
  3 21  1  0
  2 22  1  0
 22 23  1  0
 23 24  1  0
 24 25  1  0
 25 26  1  0
 25 27  1  0
 25 28  1  0
 24 29  1  0
 29 30  1  0
 30 31  1  0
 31 32  1  0
 32 33  1  0
 33 34  1  0
 33 35  1  0
 32 36  1  0
 32 37  1  0
 31 38  1  0
 31 39  1  0
 30 40  1  0
 30 41  1  0
 29 42  1  0
 42 43  1  0
 42 44  1  0
 24 45  1  1
 23 46  1  0
 23 47  1  0
 13  4  1  0
 42 22  1  0
 13  8  1  0
 33 29  1  0
M  END
>  <cnnaffinities>  (13) 
[5.61179, 5.59218, 5.58436, 5.58417, 5.59946, 5.57465, 5.53381, 5.57421, 5.59842, 5.47972]

>  <score>  (13) 
5.61179

>  <index>  (13) 
12

>  <Smiles>  (13) 
O=C(C(c1c(nc(c2c(c(c(c(c12)[H])[H])[H])[H])[H])[H])([H])[H])N1C([C@](C(F)([H])[H])(C2(C(C(C(C2([H])[H])([H])[H])([H])[H])([H])[H])C1([H])[H])[H])([H])[H]

>  <h>  (13) 
<NA>

>  <Training>  (13) 
True

>  <Success>  (13) 
True

>  <enamine_searched>  (13) 
False

>  <enamine_id>  (13) 
nan

$$$$

     RDKit          3D

 67 72  0  0  0  0  0  0  0  0999 V2000
    6.3862    4.3553   21.2595 C   0  0  0  0  0  0  0  0  0  0  0  0
    7.3650    3.9014   22.2230 N   0  0  0  0  0  0  0  0  0  0  0  0
    6.9400    3.2706   23.3430 C   0  0  0  0  0  0  0  0  0  0  0  0
    5.7576    3.0511   23.5850 O   0  0  0  0  0  0  0  0  0  0  0  0
    8.0335    2.8812   24.3257 C   0  0  0  0  0  0  0  0  0  0  0  0
    8.6898    1.6472   23.9634 N   0  0  0  0  0  0  0  0  0  0  0  0
    7.8720    0.4547   23.8206 C   0  0  0  0  0  0  0  0  0  0  0  0
    8.2681   -0.3636   22.5735 C   0  0  2  0  0  0  0  0  0  0  0  0
    7.8749    0.3564   21.2617 C   0  0  0  0  0  0  0  0  0  0  0  0
    8.3811    1.3560   20.7930 O   0  0  0  0  0  0  0  0  0  0  0  0
    6.8700   -0.3597   20.6502 N   0  0  0  0  0  0  0  0  0  0  0  0
    6.1045    0.1778   19.5933 C   0  0  0  0  0  0  0  0  0  0  0  0
    6.4187   -0.1276   18.2987 C   0  0  0  0  0  0  0  0  0  0  0  0
    5.7107    0.3040   17.2290 N   0  0  0  0  0  0  0  0  0  0  0  0
    4.6738    1.0745   17.4683 C   0  0  0  0  0  0  0  0  0  0  0  0
    4.2386    1.4623   18.7700 C   0  0  0  0  0  0  0  0  0  0  0  0
    3.1196    2.3112   18.9888 C   0  0  0  0  0  0  0  0  0  0  0  0
    2.7384    2.6533   20.2592 C   0  0  0  0  0  0  0  0  0  0  0  0
    3.4511    2.1622   21.3763 C   0  0  0  0  0  0  0  0  0  0  0  0
    4.5380    1.3432   21.1902 C   0  0  0  0  0  0  0  0  0  0  0  0
    4.9640    0.9803   19.8802 C   0  0  0  0  0  0  0  0  0  0  0  0
    5.1140    1.0271   22.0549 H   0  0  0  0  0  0  0  0  0  0  0  0
    3.1730    2.4605   22.3839 H   0  0  0  0  0  0  0  0  0  0  0  0
    1.8920    3.3167   20.4163 H   0  0  0  0  0  0  0  0  0  0  0  0
    2.5859    2.6953   18.1239 H   0  0  0  0  0  0  0  0  0  0  0  0
    4.1184    1.4321   16.6022 H   0  0  0  0  0  0  0  0  0  0  0  0
    7.2802   -0.7616   18.0971 H   0  0  0  0  0  0  0  0  0  0  0  0
    6.3625   -1.4567   21.4335 C   0  0  0  0  0  0  0  0  0  0  0  0
    7.4779   -1.7032   22.4430 C   0  0  2  0  0  0  0  0  0  0  0  0
    6.8813   -2.3558   23.6896 C   0  0  0  0  0  0  0  0  0  0  0  0
    7.8115   -2.5689   24.7105 O   0  0  0  0  0  0  0  0  0  0  0  0
    8.7997   -3.5142   24.3746 C   0  0  0  0  0  0  0  0  0  0  0  0
    9.9725   -3.2672   25.2766 C   0  0  0  0  0  0  0  0  0  0  0  0
   11.2860   -2.8030   24.6809 C   0  0  0  0  0  0  0  0  0  0  0  0
   11.1149   -4.2277   25.1492 C   0  0  0  0  0  0  0  0  0  0  0  0
   11.6286   -4.6105   26.0288 H   0  0  0  0  0  0  0  0  0  0  0  0
   11.0083   -4.9928   24.4222 H   0  0  0  0  0  0  0  0  0  0  0  0
   11.9358   -2.1584   25.2664 H   0  0  0  0  0  0  0  0  0  0  0  0
   11.2999   -2.6226   23.6145 H   0  0  0  0  0  0  0  0  0  0  0  0
    9.6975   -2.8616   26.2490 H   0  0  0  0  0  0  0  0  0  0  0  0
    8.3816   -4.5316   24.4879 H   0  0  0  0  0  0  0  0  0  0  0  0
    9.1273   -3.4176   23.3241 H   0  0  0  0  0  0  0  0  0  0  0  0
    6.4092   -3.3123   23.4123 H   0  0  0  0  0  0  0  0  0  0  0  0
    6.0874   -1.7244   24.1062 H   0  0  0  0  0  0  0  0  0  0  0  0
    8.1714   -2.4136   21.9862 H   0  0  0  0  0  0  0  0  0  0  0  0
    5.4099   -1.2033   21.9260 H   0  0  0  0  0  0  0  0  0  0  0  0
    6.1729   -2.3323   20.8033 H   0  0  0  0  0  0  0  0  0  0  0  0
    9.7817   -0.4705   22.5510 C   0  0  0  0  0  0  0  0  0  0  0  0
   10.3735   -1.3686   21.6627 C   0  0  0  0  0  0  0  0  0  0  0  0
   11.7488   -1.4776   21.5763 C   0  0  0  0  0  0  0  0  0  0  0  0
   12.3052   -2.8082   20.6006 Cl  0  0  0  0  0  0  0  0  0  0  0  0
   12.5872   -0.6106   22.2979 C   0  0  0  0  0  0  0  0  0  0  0  0
   12.0041    0.3479   23.1018 C   0  0  0  0  0  0  0  0  0  0  0  0
   10.6184    0.4254   23.2248 C   0  0  0  0  0  0  0  0  0  0  0  0
   10.0590    1.5841   23.9812 C   0  0  0  0  0  0  0  0  0  0  0  0
   10.7721    2.4173   24.5187 O   0  0  0  0  0  0  0  0  0  0  0  0
   12.6237    1.0513   23.6470 H   0  0  0  0  0  0  0  0  0  0  0  0
   13.6696   -0.6276   22.2747 H   0  0  0  0  0  0  0  0  0  0  0  0
    9.7763   -1.9946   21.0054 H   0  0  0  0  0  0  0  0  0  0  0  0
    7.9714   -0.1830   24.7073 H   0  0  0  0  0  0  0  0  0  0  0  0
    6.8343    0.7845   23.7392 H   0  0  0  0  0  0  0  0  0  0  0  0
    8.8115    3.6491   24.3570 H   0  0  0  0  0  0  0  0  0  0  0  0
    7.5533    2.8048   25.3074 H   0  0  0  0  0  0  0  0  0  0  0  0
    8.3146    3.7352   21.9099 H   0  0  0  0  0  0  0  0  0  0  0  0
    5.9296    3.5050   20.7335 H   0  0  0  0  0  0  0  0  0  0  0  0
    6.8483    5.0461   20.5504 H   0  0  0  0  0  0  0  0  0  0  0  0
    5.5992    4.8873   21.7990 H   0  0  0  0  0  0  0  0  0  0  0  0
  1  2  1  0
  2  3  1  0
  3  4  2  0
  3  5  1  0
  5  6  1  0
  6  7  1  0
  8  7  1  1
  8  9  1  0
  9 10  2  0
  9 11  1  0
 11 12  1  0
 12 13  2  0
 13 14  1  0
 14 15  2  0
 15 16  1  0
 16 17  2  0
 17 18  1  0
 18 19  2  0
 19 20  1  0
 20 21  2  0
 20 22  1  0
 19 23  1  0
 18 24  1  0
 17 25  1  0
 15 26  1  0
 13 27  1  0
 11 28  1  0
 28 29  1  0
 29 30  1  0
 30 31  1  0
 31 32  1  0
 32 33  1  0
 33 34  1  0
 34 35  1  0
 35 36  1  0
 35 37  1  0
 34 38  1  0
 34 39  1  0
 33 40  1  0
 32 41  1  0
 32 42  1  0
 30 43  1  0
 30 44  1  0
 29 45  1  6
 28 46  1  0
 28 47  1  0
  8 48  1  0
 48 49  2  0
 49 50  1  0
 50 51  1  0
 50 52  2  0
 52 53  1  0
 53 54  2  0
 54 55  1  0
 55 56  2  0
 53 57  1  0
 52 58  1  0
 49 59  1  0
  7 60  1  0
  7 61  1  0
  5 62  1  0
  5 63  1  0
  2 64  1  0
  1 65  1  0
  1 66  1  0
  1 67  1  0
 55  6  1  0
 29  8  1  0
 35 33  1  0
 54 48  1  0
 21 12  1  0
 21 16  1  0
M  END
>  <cnnaffinities>  (14) 
[6.33015]

>  <score>  (14) 
6.33015

>  <index>  (14) 
13

>  <Smiles>  (14) 
C(N(C(=O)C(N1C([C@@]2(C(=O)N(c3c(nc(c4c(c(c(c(c34)[H])[H])[H])[H])[H])[H])C([C@@]2(C(OC(C2(C(C2([H])[H])([H])[H])[H])([H])[H])([H])[H])[H])([H])[H])c2c(c(Cl)c(c(c2C1=O)[H])[H])[H])([H])[H])([H])[H])[H])([H])([H])[H]

>  <h>  (14) 
<NA>

>  <Training>  (14) 
True

>  <Success>  (14) 
True

>  <enamine_searched>  (14) 
False

>  <enamine_id>  (14) 
nan

$$$$

     RDKit          3D

 67 73  0  0  0  0  0  0  0  0999 V2000
    7.1612   -2.2863   23.9845 C   0  0  0  0  0  0  0  0  0  0  0  0
    7.6070   -1.7533   22.6269 C   0  0  1  0  0  0  0  0  0  0  0  0
    6.4376   -1.5425   21.6547 C   0  0  0  0  0  0  0  0  0  0  0  0
    6.8859   -0.4574   20.8111 N   0  0  0  0  0  0  0  0  0  0  0  0
    6.1173    0.0751   19.7506 C   0  0  0  0  0  0  0  0  0  0  0  0
    6.4513   -0.2252   18.4572 C   0  0  0  0  0  0  0  0  0  0  0  0
    5.7766    0.2239   17.3687 N   0  0  0  0  0  0  0  0  0  0  0  0
    4.7520    1.0147   17.5827 C   0  0  0  0  0  0  0  0  0  0  0  0
    4.3096    1.4158   18.8782 C   0  0  0  0  0  0  0  0  0  0  0  0
    3.2051    2.2914   19.0539 C   0  0  0  0  0  0  0  0  0  0  0  0
    2.8109    2.6732   20.3067 C   0  0  0  0  0  0  0  0  0  0  0  0
    3.4980    2.1986   21.4473 C   0  0  0  0  0  0  0  0  0  0  0  0
    4.5606    1.3369   21.3054 C   0  0  0  0  0  0  0  0  0  0  0  0
    4.9998    0.9292   20.0092 C   0  0  0  0  0  0  0  0  0  0  0  0
    5.0789    0.9900   22.1960 H   0  0  0  0  0  0  0  0  0  0  0  0
    3.1832    2.5167   22.4392 H   0  0  0  0  0  0  0  0  0  0  0  0
    1.9668    3.3447   20.4330 H   0  0  0  0  0  0  0  0  0  0  0  0
    2.6925    2.6557   18.1682 H   0  0  0  0  0  0  0  0  0  0  0  0
    4.2058    1.3794   16.7112 H   0  0  0  0  0  0  0  0  0  0  0  0
    7.3148   -0.8598   18.2665 H   0  0  0  0  0  0  0  0  0  0  0  0
    7.9973    0.2074   21.2704 C   0  0  0  0  0  0  0  0  0  0  0  0
    8.5212    1.1389   20.6938 O   0  0  0  0  0  0  0  0  0  0  0  0
    8.4041   -0.4132   22.6191 C   0  0  1  0  0  0  0  0  0  0  0  0
    8.0373    0.5130   23.7916 C   0  0  0  0  0  0  0  0  0  0  0  0
    8.8706    1.6964   23.8269 N   0  0  0  0  0  0  0  0  0  0  0  0
    8.4179    3.0558   23.6571 C   0  0  0  0  0  0  0  0  0  0  0  0
    6.9342    3.1887   23.4090 C   0  0  0  0  0  0  0  0  0  0  0  0
    6.4749    4.6001   23.3317 N   0  0  2  0  0  4  0  0  0  0  0  0
    7.0086    5.4003   22.1451 C   0  0  0  0  0  0  0  0  0  0  0  0
    7.4150    6.7224   22.8056 C   0  0  2  0  0  0  0  0  0  0  0  0
    8.0355    6.2596   24.1260 C   0  0  0  0  0  0  0  0  0  0  0  0
    6.7523    5.5269   24.5291 C   0  0  1  0  0  0  0  0  0  0  0  0
    5.7520    6.6694   24.3896 C   0  0  0  0  0  0  0  0  0  0  0  0
    6.2158    7.3888   23.2308 O   0  0  0  0  0  0  0  0  0  0  0  0
    4.7315    6.3031   24.2111 H   0  0  0  0  0  0  0  0  0  0  0  0
    5.7633    7.3324   25.2641 H   0  0  0  0  0  0  0  0  0  0  0  0
    6.7440    4.9763   25.4672 H   0  0  0  0  0  0  0  0  0  0  0  0
    8.2669    7.0970   24.7882 H   0  0  0  0  0  0  0  0  0  0  0  0
    8.9184    5.6229   24.0226 H   0  0  0  0  0  0  0  0  0  0  0  0
    7.9790    7.3988   22.1635 H   0  0  0  0  0  0  0  0  0  0  0  0
    7.8656    4.8908   21.7013 H   0  0  0  0  0  0  0  0  0  0  0  0
    6.2229    5.5127   21.3986 H   0  0  0  0  0  0  0  0  0  0  0  0
    5.4525    4.5114   23.2293 H   0  0  0  0  0  0  0  0  0  0  0  0
    6.3819    2.6817   24.2101 H   0  0  0  0  0  0  0  0  0  0  0  0
    6.6939    2.7082   22.4579 H   0  0  0  0  0  0  0  0  0  0  0  0
    8.9906    3.5279   22.8505 H   0  0  0  0  0  0  0  0  0  0  0  0
    8.6782    3.6122   24.5440 H   0  0  0  0  0  0  0  0  0  0  0  0
   10.2277    1.5583   23.9328 C   0  0  0  0  0  0  0  0  0  0  0  0
   10.9507    2.4413   24.3735 O   0  0  0  0  0  0  0  0  0  0  0  0
   10.7494    0.2895   23.3452 C   0  0  0  0  0  0  0  0  0  0  0  0
   12.1166    0.0618   23.3814 C   0  0  0  0  0  0  0  0  0  0  0  0
   12.6699   -0.9879   22.6763 C   0  0  0  0  0  0  0  0  0  0  0  0
   11.8298   -1.7339   21.8369 C   0  0  0  0  0  0  0  0  0  0  0  0
   12.3638   -2.8782   20.6440 Cl  0  0  0  0  0  0  0  0  0  0  0  0
   10.4641   -1.5596   21.8545 C   0  0  0  0  0  0  0  0  0  0  0  0
    9.8986   -0.5810   22.6579 C   0  0  0  0  0  0  0  0  0  0  0  0
    9.8475   -2.1891   21.2217 H   0  0  0  0  0  0  0  0  0  0  0  0
   13.7236   -1.1975   22.8054 H   0  0  0  0  0  0  0  0  0  0  0  0
   12.7179    0.7628   23.9491 H   0  0  0  0  0  0  0  0  0  0  0  0
    6.9767    0.7682   23.7858 H   0  0  0  0  0  0  0  0  0  0  0  0
    8.2321   -0.0405   24.7121 H   0  0  0  0  0  0  0  0  0  0  0  0
    5.5146   -1.2838   22.1915 H   0  0  0  0  0  0  0  0  0  0  0  0
    6.2231   -2.4299   21.0484 H   0  0  0  0  0  0  0  0  0  0  0  0
    8.2608   -2.5059   22.1855 H   0  0  0  0  0  0  0  0  0  0  0  0
    6.4646   -1.5912   24.4633 H   0  0  0  0  0  0  0  0  0  0  0  0
    6.6430   -3.2456   23.8812 H   0  0  0  0  0  0  0  0  0  0  0  0
    8.0039   -2.4442   24.6660 H   0  0  0  0  0  0  0  0  0  0  0  0
  1  2  1  0
  2  3  1  0
  3  4  1  0
  4  5  1  0
  5  6  2  0
  6  7  1  0
  7  8  2  0
  8  9  1  0
  9 10  2  0
 10 11  1  0
 11 12  2  0
 12 13  1  0
 13 14  2  0
 13 15  1  0
 12 16  1  0
 11 17  1  0
 10 18  1  0
  8 19  1  0
  6 20  1  0
  4 21  1  0
 21 22  2  0
 21 23  1  0
 23 24  1  1
 24 25  1  0
 25 26  1  0
 26 27  1  0
 27 28  1  0
 28 29  1  0
 29 30  1  0
 30 31  1  0
 31 32  1  0
 32 33  1  0
 33 34  1  0
 33 35  1  0
 33 36  1  0
 32 37  1  1
 31 38  1  0
 31 39  1  0
 30 40  1  6
 29 41  1  0
 29 42  1  0
 28 43  1  6
 27 44  1  0
 27 45  1  0
 26 46  1  0
 26 47  1  0
 25 48  1  0
 48 49  2  0
 48 50  1  0
 50 51  2  0
 51 52  1  0
 52 53  2  0
 53 54  1  0
 53 55  1  0
 55 56  2  0
 55 57  1  0
 52 58  1  0
 51 59  1  0
 24 60  1  0
 24 61  1  0
  3 62  1  0
  3 63  1  0
  2 64  1  6
  1 65  1  0
  1 66  1  0
  1 67  1  0
 23  2  1  0
 32 28  1  0
 56 50  1  0
 14  5  1  0
 56 23  1  0
 14  9  1  0
 34 30  1  0
M  CHG  1  28   1
M  END
>  <cnnaffinities>  (15) 
[6.60167]

>  <score>  (15) 
6.60167

>  <index>  (15) 
14

>  <Smiles>  (15) 
C([C@]1(C(N(c2c(nc(c3c(c(c(c(c23)[H])[H])[H])[H])[H])[H])C(=O)[C@]21C(N(C(C([N@@+]1(C([C@@]3(C([C@]1(C(O3)([H])[H])[H])([H])[H])[H])([H])[H])[H])([H])[H])([H])[H])C(=O)c1c(c(c(Cl)c(c21)[H])[H])[H])([H])[H])([H])[H])[H])([H])([H])[H]

>  <h>  (15) 
<NA>

>  <Training>  (15) 
True

>  <Success>  (15) 
True

>  <enamine_searched>  (15) 
False

>  <enamine_id>  (15) 
nan

$$$$

     RDKit          3D

 72 77  0  0  0  0  0  0  0  0999 V2000
    6.9588    7.7591   21.5492 C   0  0  0  0  0  0  0  0  0  0  0  0
    5.9770    6.6087   21.4663 C   0  0  1  0  0  0  0  0  0  0  0  0
    6.7082    5.2659   21.3846 C   0  0  0  0  0  0  0  0  0  0  0  0
    6.9325    4.6790   22.7309 N   0  0  2  0  0  4  0  0  0  0  0  0
    7.6367    3.3872   22.6078 C   0  0  0  0  0  0  0  0  0  0  0  0
    8.1136    2.9060   23.9677 C   0  0  0  0  0  0  0  0  0  0  0  0
    8.8068    1.6515   23.8372 N   0  0  0  0  0  0  0  0  0  0  0  0
    8.0861    0.3942   23.7744 C   0  0  0  0  0  0  0  0  0  0  0  0
    8.4663   -0.4326   22.5203 C   0  0  2  0  0  0  0  0  0  0  0  0
    8.0256    0.2001   21.1827 C   0  0  0  0  0  0  0  0  0  0  0  0
    8.5875    1.0726   20.5512 O   0  0  0  0  0  0  0  0  0  0  0  0
    6.8792   -0.4435   20.7799 N   0  0  0  0  0  0  0  0  0  0  0  0
    6.1119    0.0849   19.7227 C   0  0  0  0  0  0  0  0  0  0  0  0
    6.4543   -0.2086   18.4295 C   0  0  0  0  0  0  0  0  0  0  0  0
    5.7686    0.2313   17.3477 N   0  0  0  0  0  0  0  0  0  0  0  0
    4.7450    1.0189   17.5761 C   0  0  0  0  0  0  0  0  0  0  0  0
    4.3121    1.4263   18.8720 C   0  0  0  0  0  0  0  0  0  0  0  0
    3.2128    2.3007   19.0552 C   0  0  0  0  0  0  0  0  0  0  0  0
    2.8184    2.6641   20.3117 C   0  0  0  0  0  0  0  0  0  0  0  0
    3.5021    2.1768   21.4459 C   0  0  0  0  0  0  0  0  0  0  0  0
    4.5799    1.3371   21.3017 C   0  0  0  0  0  0  0  0  0  0  0  0
    5.0070    0.9401   19.9989 C   0  0  0  0  0  0  0  0  0  0  0  0
    5.1103    1.0007   22.1877 H   0  0  0  0  0  0  0  0  0  0  0  0
    3.1699    2.4732   22.4359 H   0  0  0  0  0  0  0  0  0  0  0  0
    1.9726    3.3309   20.4431 H   0  0  0  0  0  0  0  0  0  0  0  0
    2.7055    2.6688   18.1702 H   0  0  0  0  0  0  0  0  0  0  0  0
    4.1922    1.3775   16.7085 H   0  0  0  0  0  0  0  0  0  0  0  0
    7.3190   -0.8406   18.2385 H   0  0  0  0  0  0  0  0  0  0  0  0
    6.4542   -1.5148   21.6619 C   0  0  0  0  0  0  0  0  0  0  0  0
    7.7352   -1.8018   22.4448 C   0  0  2  0  0  0  0  0  0  0  0  0
    7.5600   -2.5549   23.7516 C   0  0  0  0  0  0  0  0  0  0  0  0
    7.0975   -3.5295   23.5671 H   0  0  0  0  0  0  0  0  0  0  0  0
    8.5298   -2.7205   24.2367 H   0  0  0  0  0  0  0  0  0  0  0  0
    6.9209   -1.9960   24.4446 H   0  0  0  0  0  0  0  0  0  0  0  0
    8.3244   -2.4267   21.7700 H   0  0  0  0  0  0  0  0  0  0  0  0
    5.6280   -1.2230   22.3289 H   0  0  0  0  0  0  0  0  0  0  0  0
    6.1313   -2.3804   21.0764 H   0  0  0  0  0  0  0  0  0  0  0  0
    9.9598   -0.5044   22.5176 C   0  0  0  0  0  0  0  0  0  0  0  0
   10.5699   -1.5135   21.8027 C   0  0  0  0  0  0  0  0  0  0  0  0
   11.9301   -1.5530   21.6586 C   0  0  0  0  0  0  0  0  0  0  0  0
   12.4093   -2.8762   20.6440 Cl  0  0  0  0  0  0  0  0  0  0  0  0
   12.7445   -0.5995   22.2823 C   0  0  0  0  0  0  0  0  0  0  0  0
   12.1405    0.4382   22.9557 C   0  0  0  0  0  0  0  0  0  0  0  0
   10.7594    0.5074   23.0447 C   0  0  0  0  0  0  0  0  0  0  0  0
   10.1489    1.7261   23.6284 C   0  0  0  0  0  0  0  0  0  0  0  0
   10.8128    2.7265   23.8770 O   0  0  0  0  0  0  0  0  0  0  0  0
   12.7353    1.2210   23.4130 H   0  0  0  0  0  0  0  0  0  0  0  0
   13.8230   -0.5998   22.2917 H   0  0  0  0  0  0  0  0  0  0  0  0
   10.0062   -2.3042   21.3375 H   0  0  0  0  0  0  0  0  0  0  0  0
    8.3624   -0.2088   24.6531 H   0  0  0  0  0  0  0  0  0  0  0  0
    7.0100    0.5963   23.8166 H   0  0  0  0  0  0  0  0  0  0  0  0
    8.8349    3.6281   24.3573 H   0  0  0  0  0  0  0  0  0  0  0  0
    7.2937    2.7932   24.6846 H   0  0  0  0  0  0  0  0  0  0  0  0
    8.5024    3.5068   21.9426 H   0  0  0  0  0  0  0  0  0  0  0  0
    6.9726    2.6478   22.1417 H   0  0  0  0  0  0  0  0  0  0  0  0
    5.6805    4.5950   23.6114 C   0  0  1  0  0  0  0  0  0  0  0  0
    6.0042    5.1253   25.0099 C   0  0  0  0  0  0  0  0  0  0  0  0
    5.1493    5.0023   25.6785 H   0  0  0  0  0  0  0  0  0  0  0  0
    6.2546    6.1871   24.9364 H   0  0  0  0  0  0  0  0  0  0  0  0
    6.8598    4.6115   25.4558 H   0  0  0  0  0  0  0  0  0  0  0  0
    4.5882    5.4114   22.9348 C   0  0  0  0  0  0  0  0  0  0  0  0
    5.1086    6.6752   22.5889 O   0  0  0  0  0  0  0  0  0  0  0  0
    3.7522    5.5707   23.6224 H   0  0  0  0  0  0  0  0  0  0  0  0
    4.1967    4.8866   22.0503 H   0  0  0  0  0  0  0  0  0  0  0  0
    5.3717    3.5436   23.6499 H   0  0  0  0  0  0  0  0  0  0  0  0
    7.5906    5.3076   23.2355 H   0  0  0  0  0  0  0  0  0  0  0  0
    7.6833    5.4212   20.9197 H   0  0  0  0  0  0  0  0  0  0  0  0
    6.1647    4.5392   20.7639 H   0  0  0  0  0  0  0  0  0  0  0  0
    5.3771    6.7006   20.5485 H   0  0  0  0  0  0  0  0  0  0  0  0
    6.4550    8.7264   21.5475 H   0  0  0  0  0  0  0  0  0  0  0  0
    7.5769    7.6732   22.4493 H   0  0  0  0  0  0  0  0  0  0  0  0
    7.6136    7.6971   20.6809 H   0  0  0  0  0  0  0  0  0  0  0  0
  1  2  1  0
  2  3  1  0
  3  4  1  0
  4  5  1  0
  5  6  1  0
  6  7  1  0
  7  8  1  0
  9  8  1  1
  9 10  1  0
 10 11  2  0
 10 12  1  0
 12 13  1  0
 13 14  2  0
 14 15  1  0
 15 16  2  0
 16 17  1  0
 17 18  2  0
 18 19  1  0
 19 20  2  0
 20 21  1  0
 21 22  2  0
 21 23  1  0
 20 24  1  0
 19 25  1  0
 18 26  1  0
 16 27  1  0
 14 28  1  0
 12 29  1  0
 29 30  1  0
 30 31  1  0
 31 32  1  0
 31 33  1  0
 31 34  1  0
 30 35  1  6
 29 36  1  0
 29 37  1  0
  9 38  1  0
 38 39  2  0
 39 40  1  0
 40 41  1  0
 40 42  2  0
 42 43  1  0
 43 44  2  0
 44 45  1  0
 45 46  2  0
 43 47  1  0
 42 48  1  0
 39 49  1  0
  8 50  1  0
  8 51  1  0
  6 52  1  0
  6 53  1  0
  5 54  1  0
  5 55  1  0
  4 56  1  0
 56 57  1  0
 57 58  1  0
 57 59  1  0
 57 60  1  0
 56 61  1  0
 61 62  1  0
 61 63  1  0
 61 64  1  0
 56 65  1  1
  4 66  1  1
  3 67  1  0
  3 68  1  0
  2 69  1  6
  1 70  1  0
  1 71  1  0
  1 72  1  0
 62  2  1  0
 45  7  1  0
 30  9  1  0
 44 38  1  0
 22 13  1  0
 22 17  1  0
M  CHG  1   4   1
M  END
>  <cnnaffinities>  (16) 
[6.5757]

>  <score>  (16) 
6.5757

>  <index>  (16) 
15

>  <Smiles>  (16) 
C([C@]1(C([N@+](C(C(N2C([C@@]3(C(=O)N(c4c(nc(c5c(c(c(c(c45)[H])[H])[H])[H])[H])[H])C([C@@]3(C([H])([H])[H])[H])([H])[H])c3c(c(Cl)c(c(c3C2=O)[H])[H])[H])([H])[H])([H])[H])([H])[H])([C@@](C([H])([H])[H])(C(O1)([H])[H])[H])[H])([H])[H])[H])([H])([H])[H]

>  <h>  (16) 
<NA>

>  <Training>  (16) 
True

>  <Success>  (16) 
True

>  <enamine_searched>  (16) 
False

>  <enamine_id>  (16) 
nan

$$$$

     RDKit          3D

 47 50  0  0  0  0  0  0  0  0999 V2000
    8.6668   -4.4499   23.9662 C   0  0  0  0  0  0  0  0  0  0  0  0
    7.3789   -3.7546   24.4084 C   0  0  1  0  0  0  0  0  0  0  0  0
    7.6841   -2.3507   24.9412 C   0  0  0  0  0  0  0  0  0  0  0  0
    7.4161   -1.3734   23.7821 C   0  0  2  0  0  0  0  0  0  0  0  0
    6.6545   -0.1513   24.2638 C   0  0  0  0  0  0  0  0  0  0  0  0
    5.3234   -0.2560   24.6720 C   0  0  0  0  0  0  0  0  0  0  0  0
    4.6288    0.8581   25.1246 C   0  0  0  0  0  0  0  0  0  0  0  0
    5.2631    2.0963   25.1906 C   0  0  0  0  0  0  0  0  0  0  0  0
    6.5999    2.2048   24.8165 C   0  0  0  0  0  0  0  0  0  0  0  0
    7.2905    1.0845   24.3628 C   0  0  0  0  0  0  0  0  0  0  0  0
    8.3357    1.1750   24.0702 H   0  0  0  0  0  0  0  0  0  0  0  0
    7.1039    3.1655   24.8591 H   0  0  0  0  0  0  0  0  0  0  0  0
    4.7178    2.9706   25.5305 H   0  0  0  0  0  0  0  0  0  0  0  0
    3.5898    0.7601   25.4281 H   0  0  0  0  0  0  0  0  0  0  0  0
    4.8200   -1.2187   24.6466 H   0  0  0  0  0  0  0  0  0  0  0  0
    6.6961   -2.1639   22.7888 N   0  0  0  0  0  0  0  0  0  0  0  0
    6.2496   -1.7386   21.5619 C   0  0  0  0  0  0  0  0  0  0  0  0
    5.3915   -2.3617   20.9574 O   0  0  0  0  0  0  0  0  0  0  0  0
    6.9139   -0.4915   20.9198 C   0  0  0  0  0  0  0  0  0  0  0  0
    6.1122    0.0833   19.7728 C   0  0  0  0  0  0  0  0  0  0  0  0
    6.4198   -0.2161   18.4703 C   0  0  0  0  0  0  0  0  0  0  0  0
    5.7565    0.2355   17.3680 N   0  0  0  0  0  0  0  0  0  0  0  0
    4.7367    1.0306   17.5773 C   0  0  0  0  0  0  0  0  0  0  0  0
    4.2863    1.4222   18.8687 C   0  0  0  0  0  0  0  0  0  0  0  0
    3.1668    2.2746   19.0452 C   0  0  0  0  0  0  0  0  0  0  0  0
    2.7523    2.6274   20.2976 C   0  0  0  0  0  0  0  0  0  0  0  0
    3.4458    2.1355   21.4301 C   0  0  0  0  0  0  0  0  0  0  0  0
    4.5330    1.3100   21.2967 C   0  0  0  0  0  0  0  0  0  0  0  0
    4.9880    0.9343   20.0034 C   0  0  0  0  0  0  0  0  0  0  0  0
    5.0486    0.9471   22.1889 H   0  0  0  0  0  0  0  0  0  0  0  0
    3.1088    2.4265   22.4194 H   0  0  0  0  0  0  0  0  0  0  0  0
    1.8961    3.2853   20.4373 H   0  0  0  0  0  0  0  0  0  0  0  0
    2.6487    2.6467   18.1617 H   0  0  0  0  0  0  0  0  0  0  0  0
    4.2018    1.3993   16.6975 H   0  0  0  0  0  0  0  0  0  0  0  0
    7.2648   -0.8673   18.2449 H   0  0  0  0  0  0  0  0  0  0  0  0
    7.1492    0.2842   21.6595 H   0  0  0  0  0  0  0  0  0  0  0  0
    7.8820   -0.8255   20.5202 H   0  0  0  0  0  0  0  0  0  0  0  0
    6.4159   -3.5229   23.2381 C   0  0  0  0  0  0  0  0  0  0  0  0
    5.3651   -3.6581   23.5273 H   0  0  0  0  0  0  0  0  0  0  0  0
    6.5959   -4.2144   22.4123 H   0  0  0  0  0  0  0  0  0  0  0  0
    8.3624   -1.0438   23.3426 H   0  0  0  0  0  0  0  0  0  0  0  0
    7.0617   -2.1204   25.8083 H   0  0  0  0  0  0  0  0  0  0  0  0
    8.7153   -2.2757   25.2911 H   0  0  0  0  0  0  0  0  0  0  0  0
    6.8968   -4.3530   25.1853 H   0  0  0  0  0  0  0  0  0  0  0  0
    9.2163   -3.8634   23.2258 H   0  0  0  0  0  0  0  0  0  0  0  0
    8.4708   -5.3654   23.4114 H   0  0  0  0  0  0  0  0  0  0  0  0
    9.3269   -4.6499   24.8229 H   0  0  0  0  0  0  0  0  0  0  0  0
  1  2  1  0
  2  3  1  0
  3  4  1  0
  4  5  1  0
  5  6  2  0
  6  7  1  0
  7  8  2  0
  8  9  1  0
  9 10  2  0
 10 11  1  0
  9 12  1  0
  8 13  1  0
  7 14  1  0
  6 15  1  0
  4 16  1  0
 16 17  1  0
 17 18  2  0
 17 19  1  0
 19 20  1  0
 20 21  2  0
 21 22  1  0
 22 23  2  0
 23 24  1  0
 24 25  2  0
 25 26  1  0
 26 27  2  0
 27 28  1  0
 28 29  2  0
 28 30  1  0
 27 31  1  0
 26 32  1  0
 25 33  1  0
 23 34  1  0
 21 35  1  0
 19 36  1  0
 19 37  1  0
 16 38  1  0
 38 39  1  0
 38 40  1  0
  4 41  1  6
  3 42  1  0
  3 43  1  0
  2 44  1  1
  1 45  1  0
  1 46  1  0
  1 47  1  0
 38  2  1  0
 10  5  1  0
 29 20  1  0
 29 24  1  0
M  END
>  <cnnaffinities>  (17) 
[5.27471, 5.46484]

>  <score>  (17) 
5.27471

>  <index>  (17) 
16

>  <Smiles>  (17) 
C([C@]1(C([C@](c2c(c(c(c(c2[H])[H])[H])[H])[H])(N(C(=O)C(c2c(nc(c3c(c(c(c(c23)[H])[H])[H])[H])[H])[H])([H])[H])C1([H])[H])[H])([H])[H])[H])([H])([H])[H]

>  <h>  (17) 
<NA>

>  <Training>  (17) 
True

>  <Success>  (17) 
True

>  <enamine_searched>  (17) 
False

>  <enamine_id>  (17) 
nan

$$$$

     RDKit          3D

 58 63  0  0  0  0  0  0  0  0999 V2000
    7.5566   -2.9818   23.3434 C   0  0  0  0  0  0  0  0  0  0  0  0
    7.8428   -1.9321   22.2694 C   0  0  1  0  0  0  0  0  0  0  0  0
    6.7459   -1.8218   21.2044 C   0  0  0  0  0  0  0  0  0  0  0  0
    6.8712   -0.4563   20.7394 N   0  0  0  0  0  0  0  0  0  0  0  0
    6.0927    0.0829   19.7078 C   0  0  0  0  0  0  0  0  0  0  0  0
    6.4158   -0.2365   18.4179 C   0  0  0  0  0  0  0  0  0  0  0  0
    5.7523    0.2279   17.3376 N   0  0  0  0  0  0  0  0  0  0  0  0
    4.7401    1.0320   17.5679 C   0  0  0  0  0  0  0  0  0  0  0  0
    4.2985    1.4212   18.8653 C   0  0  0  0  0  0  0  0  0  0  0  0
    3.1793    2.2724   19.0458 C   0  0  0  0  0  0  0  0  0  0  0  0
    2.7494    2.6105   20.2987 C   0  0  0  0  0  0  0  0  0  0  0  0
    3.4219    2.1143   21.4385 C   0  0  0  0  0  0  0  0  0  0  0  0
    4.5139    1.2972   21.2946 C   0  0  0  0  0  0  0  0  0  0  0  0
    4.9870    0.9376   19.9932 C   0  0  0  0  0  0  0  0  0  0  0  0
    5.0167    0.9356   22.1878 H   0  0  0  0  0  0  0  0  0  0  0  0
    3.0728    2.3825   22.4329 H   0  0  0  0  0  0  0  0  0  0  0  0
    1.8880    3.2596   20.4249 H   0  0  0  0  0  0  0  0  0  0  0  0
    2.6773    2.6456   18.1596 H   0  0  0  0  0  0  0  0  0  0  0  0
    4.1976    1.4047   16.7007 H   0  0  0  0  0  0  0  0  0  0  0  0
    7.2705   -0.8889   18.2379 H   0  0  0  0  0  0  0  0  0  0  0  0
    7.5902    0.3665   21.5608 C   0  0  0  0  0  0  0  0  0  0  0  0
    7.7624    1.5541   21.3598 O   0  0  0  0  0  0  0  0  0  0  0  0
    8.0498   -0.4518   22.7529 C   0  0  1  0  0  0  0  0  0  0  0  0
    7.1418   -0.0129   23.9405 C   0  0  0  0  0  0  0  0  0  0  0  0
    7.6038   -0.5754   25.1965 N   0  0  0  0  0  0  0  0  0  0  0  0
    6.7115   -0.9571   26.2869 C   0  0  0  0  0  0  0  0  0  0  0  0
    6.4221    0.2072   27.1830 C   0  0  0  0  0  0  0  0  0  0  0  0
    7.1044    0.5454   28.2423 N   0  0  0  0  0  0  0  0  0  0  0  0
    6.5418    1.6904   28.7562 N   0  0  0  0  0  0  0  0  0  0  0  0
    5.5332    1.9947   27.9872 C   0  0  0  0  0  0  0  0  0  0  0  0
    5.4066    1.0968   26.9683 N   0  0  0  0  0  0  0  0  0  0  0  0
    4.4061    1.0501   25.9215 C   0  0  0  0  0  0  0  0  0  0  0  0
    4.1136    0.0100   25.7546 H   0  0  0  0  0  0  0  0  0  0  0  0
    3.5262    1.6080   26.2475 H   0  0  0  0  0  0  0  0  0  0  0  0
    4.7783    1.4769   24.9808 H   0  0  0  0  0  0  0  0  0  0  0  0
    4.8461    2.8193   28.1296 H   0  0  0  0  0  0  0  0  0  0  0  0
    7.2416   -1.7084   26.8790 H   0  0  0  0  0  0  0  0  0  0  0  0
    5.7837   -1.4075   25.9109 H   0  0  0  0  0  0  0  0  0  0  0  0
    8.9334   -0.7967   25.4122 C   0  0  0  0  0  0  0  0  0  0  0  0
    9.3206   -1.4467   26.3681 O   0  0  0  0  0  0  0  0  0  0  0  0
    9.8678   -0.2124   24.4043 C   0  0  0  0  0  0  0  0  0  0  0  0
   11.1715    0.1041   24.7498 C   0  0  0  0  0  0  0  0  0  0  0  0
   12.1512    0.2731   23.7957 C   0  0  0  0  0  0  0  0  0  0  0  0
   11.7663    0.1737   22.4639 C   0  0  0  0  0  0  0  0  0  0  0  0
   12.7226    0.2669   21.5315 F   0  0  0  0  0  0  0  0  0  0  0  0
   10.4513   -0.0016   22.0790 C   0  0  0  0  0  0  0  0  0  0  0  0
    9.4870   -0.1781   23.0742 C   0  0  0  0  0  0  0  0  0  0  0  0
   10.1680   -0.0413   21.0285 H   0  0  0  0  0  0  0  0  0  0  0  0
   13.1934    0.4316   24.0538 H   0  0  0  0  0  0  0  0  0  0  0  0
   11.3856    0.2064   25.7892 H   0  0  0  0  0  0  0  0  0  0  0  0
    6.1038   -0.3229   23.7305 H   0  0  0  0  0  0  0  0  0  0  0  0
    7.1754    1.0909   23.9725 H   0  0  0  0  0  0  0  0  0  0  0  0
    6.8765   -2.5043   20.3650 H   0  0  0  0  0  0  0  0  0  0  0  0
    5.7540   -2.0064   21.6436 H   0  0  0  0  0  0  0  0  0  0  0  0
    8.7831   -2.2128   21.7693 H   0  0  0  0  0  0  0  0  0  0  0  0
    6.6090   -2.7673   23.8512 H   0  0  0  0  0  0  0  0  0  0  0  0
    7.4774   -3.9822   22.9019 H   0  0  0  0  0  0  0  0  0  0  0  0
    8.3522   -3.0002   24.0977 H   0  0  0  0  0  0  0  0  0  0  0  0
  1  2  1  0
  2  3  1  0
  3  4  1  0
  4  5  1  0
  5  6  2  0
  6  7  1  0
  7  8  2  0
  8  9  1  0
  9 10  2  0
 10 11  1  0
 11 12  2  0
 12 13  1  0
 13 14  2  0
 13 15  1  0
 12 16  1  0
 11 17  1  0
 10 18  1  0
  8 19  1  0
  6 20  1  0
  4 21  1  0
 21 22  2  0
 21 23  1  0
 23 24  1  1
 24 25  1  0
 25 26  1  0
 26 27  1  0
 27 28  2  0
 28 29  1  0
 29 30  2  0
 30 31  1  0
 31 32  1  0
 32 33  1  0
 32 34  1  0
 32 35  1  0
 30 36  1  0
 26 37  1  0
 26 38  1  0
 25 39  1  0
 39 40  2  0
 39 41  1  0
 41 42  2  0
 42 43  1  0
 43 44  2  0
 44 45  1  0
 44 46  1  0
 46 47  2  0
 46 48  1  0
 43 49  1  0
 42 50  1  0
 24 51  1  0
 24 52  1  0
  3 53  1  0
  3 54  1  0
  2 55  1  6
  1 56  1  0
  1 57  1  0
  1 58  1  0
 23  2  1  0
 31 27  1  0
 47 41  1  0
 14  5  1  0
 47 23  1  0
 14  9  1  0
M  END
>  <cnnaffinities>  (18) 
[6.26885]

>  <score>  (18) 
6.26885

>  <index>  (18) 
17

>  <Smiles>  (18) 
C([C@]1(C(N(c2c(nc(c3c(c(c(c(c23)[H])[H])[H])[H])[H])[H])C(=O)[C@]21C(N(C(c1nnc(n1C([H])([H])[H])[H])([H])[H])C(=O)c1c(c(c(F)c(c21)[H])[H])[H])([H])[H])([H])[H])[H])([H])([H])[H]

>  <h>  (18) 
<NA>

>  <Training>  (18) 
True

>  <Success>  (18) 
True

>  <enamine_searched>  (18) 
False

>  <enamine_id>  (18) 
nan

$$$$

     RDKit          3D

 50 53  0  0  0  0  0  0  0  0999 V2000
    6.0167   -1.0392   29.7333 C   0  0  0  0  0  0  0  0  0  0  0  0
    6.3583   -0.7189   28.2854 C   0  0  1  0  0  0  0  0  0  0  0  0
    7.4404   -1.6526   27.7430 C   0  0  0  0  0  0  0  0  0  0  0  0
    7.7839   -1.3354   26.2897 C   0  0  0  0  0  0  0  0  0  0  0  0
    6.5725   -1.3717   25.3443 C   0  0  2  0  0  0  0  0  0  0  0  0
    6.0790   -2.8119   25.1046 C   0  0  0  0  0  0  0  0  0  0  0  0
    5.5578   -2.8604   23.6671 C   0  0  0  0  0  0  0  0  0  0  0  0
    6.2191   -1.7443   22.9888 N   0  0  0  0  0  0  0  0  0  0  0  0
    6.1680   -1.6425   21.6258 C   0  0  0  0  0  0  0  0  0  0  0  0
    5.5421   -2.4515   20.9591 O   0  0  0  0  0  0  0  0  0  0  0  0
    6.9124   -0.4841   20.9192 C   0  0  0  0  0  0  0  0  0  0  0  0
    6.1146    0.0895   19.7680 C   0  0  0  0  0  0  0  0  0  0  0  0
    6.4211   -0.2149   18.4643 C   0  0  0  0  0  0  0  0  0  0  0  0
    5.7571    0.2357   17.3644 N   0  0  0  0  0  0  0  0  0  0  0  0
    4.7356    1.0313   17.5744 C   0  0  0  0  0  0  0  0  0  0  0  0
    4.2868    1.4240   18.8676 C   0  0  0  0  0  0  0  0  0  0  0  0
    3.1644    2.2755   19.0427 C   0  0  0  0  0  0  0  0  0  0  0  0
    2.7502    2.6277   20.2999 C   0  0  0  0  0  0  0  0  0  0  0  0
    3.4411    2.1403   21.4317 C   0  0  0  0  0  0  0  0  0  0  0  0
    4.5314    1.3164   21.2892 C   0  0  0  0  0  0  0  0  0  0  0  0
    4.9888    0.9395   19.9965 C   0  0  0  0  0  0  0  0  0  0  0  0
    5.0475    0.9542   22.1738 H   0  0  0  0  0  0  0  0  0  0  0  0
    3.1062    2.4275   22.4231 H   0  0  0  0  0  0  0  0  0  0  0  0
    1.8935    3.2821   20.4362 H   0  0  0  0  0  0  0  0  0  0  0  0
    2.6432    2.6463   18.1632 H   0  0  0  0  0  0  0  0  0  0  0  0
    4.1989    1.4002   16.6989 H   0  0  0  0  0  0  0  0  0  0  0  0
    7.2664   -0.8672   18.2480 H   0  0  0  0  0  0  0  0  0  0  0  0
    7.2130    0.3137   21.6084 H   0  0  0  0  0  0  0  0  0  0  0  0
    7.8429   -0.9046   20.5145 H   0  0  0  0  0  0  0  0  0  0  0  0
    6.9605   -0.9054   23.9187 C   0  0  0  0  0  0  0  0  0  0  0  0
    8.0402   -1.0080   23.7520 H   0  0  0  0  0  0  0  0  0  0  0  0
    6.7117    0.1514   23.7759 H   0  0  0  0  0  0  0  0  0  0  0  0
    4.4693   -2.7504   23.6304 H   0  0  0  0  0  0  0  0  0  0  0  0
    5.8062   -3.8075   23.1858 H   0  0  0  0  0  0  0  0  0  0  0  0
    5.3121   -3.1147   25.8229 H   0  0  0  0  0  0  0  0  0  0  0  0
    6.9076   -3.5160   25.2374 H   0  0  0  0  0  0  0  0  0  0  0  0
    5.4490   -0.4785   25.9218 C   0  0  0  0  0  0  0  0  0  0  0  0
    5.1189   -0.7580   27.3904 C   0  0  0  0  0  0  0  0  0  0  0  0
    4.3807   -0.0282   27.7489 H   0  0  0  0  0  0  0  0  0  0  0  0
    4.6339   -1.7374   27.4880 H   0  0  0  0  0  0  0  0  0  0  0  0
    4.5478   -0.5798   25.3057 H   0  0  0  0  0  0  0  0  0  0  0  0
    5.7566    0.5726   25.8418 H   0  0  0  0  0  0  0  0  0  0  0  0
    8.5678   -2.0124   25.9294 H   0  0  0  0  0  0  0  0  0  0  0  0
    8.2201   -0.3381   26.2414 H   0  0  0  0  0  0  0  0  0  0  0  0
    8.3390   -1.5886   28.3707 H   0  0  0  0  0  0  0  0  0  0  0  0
    7.0960   -2.6912   27.8147 H   0  0  0  0  0  0  0  0  0  0  0  0
    6.7574    0.3029   28.2471 H   0  0  0  0  0  0  0  0  0  0  0  0
    5.2605   -0.3536   30.1270 H   0  0  0  0  0  0  0  0  0  0  0  0
    5.6194   -2.0556   29.8166 H   0  0  0  0  0  0  0  0  0  0  0  0
    6.9012   -0.9773   30.3745 H   0  0  0  0  0  0  0  0  0  0  0  0
  1  2  1  0
  2  3  1  0
  3  4  1  0
  5  4  1  1
  5  6  1  0
  6  7  1  0
  7  8  1  0
  8  9  1  0
  9 10  2  0
  9 11  1  0
 11 12  1  0
 12 13  2  0
 13 14  1  0
 14 15  2  0
 15 16  1  0
 16 17  2  0
 17 18  1  0
 18 19  2  0
 19 20  1  0
 20 21  2  0
 20 22  1  0
 19 23  1  0
 18 24  1  0
 17 25  1  0
 15 26  1  0
 13 27  1  0
 11 28  1  0
 11 29  1  0
  8 30  1  0
 30 31  1  0
 30 32  1  0
  7 33  1  0
  7 34  1  0
  6 35  1  0
  6 36  1  0
  5 37  1  0
 37 38  1  0
 38 39  1  0
 38 40  1  0
 37 41  1  0
 37 42  1  0
  4 43  1  0
  4 44  1  0
  3 45  1  0
  3 46  1  0
  2 47  1  1
  1 48  1  0
  1 49  1  0
  1 50  1  0
 38  2  1  0
 30  5  1  0
 21 12  1  0
 21 16  1  0
M  END
>  <cnnaffinities>  (19) 
[5.59293, 5.48588]

>  <score>  (19) 
5.59293

>  <index>  (19) 
18

>  <Smiles>  (19) 
C([C@]1(C(C([C@@]2(C(C(N(C(=O)C(c3c(nc(c4c(c(c(c(c34)[H])[H])[H])[H])[H])[H])([H])[H])C2([H])[H])([H])[H])([H])[H])C(C1([H])[H])([H])[H])([H])[H])([H])[H])[H])([H])([H])[H]

>  <h>  (19) 
<NA>

>  <Training>  (19) 
True

>  <Success>  (19) 
True

>  <enamine_searched>  (19) 
False

>  <enamine_id>  (19) 
nan

$$$$

     RDKit          3D

 67 71  0  0  0  0  0  0  0  0999 V2000
    3.3226   -5.2166   21.8371 O   0  0  0  0  0  0  0  0  0  0  0  0
    4.0285   -5.7817   22.6549 C   0  0  0  0  0  0  0  0  0  0  0  0
    5.5144   -5.5517   22.4792 C   0  0  0  0  0  0  0  0  0  0  0  0
    5.7988   -4.1105   22.6382 N   0  0  1  0  0  4  0  0  0  0  0  0
    5.1577   -3.5971   23.8865 C   0  0  0  0  0  0  0  0  0  0  0  0
    5.5038   -2.1685   24.2213 C   0  0  0  0  0  0  0  0  0  0  0  0
    4.7184   -1.4634   25.1350 C   0  0  0  0  0  0  0  0  0  0  0  0
    5.0718   -0.1854   25.5487 C   0  0  0  0  0  0  0  0  0  0  0  0
    6.2426    0.3805   25.0481 C   0  0  0  0  0  0  0  0  0  0  0  0
    6.7109    1.9789   25.5656 Cl  0  0  0  0  0  0  0  0  0  0  0  0
    7.0227   -0.2958   24.1210 C   0  0  0  0  0  0  0  0  0  0  0  0
    6.6334   -1.5633   23.6775 C   0  0  0  0  0  0  0  0  0  0  0  0
    7.3393   -2.2408   22.5215 C   0  0  2  0  0  0  0  0  0  0  0  0
    6.6436   -1.8060   21.2179 C   0  0  0  0  0  0  0  0  0  0  0  0
    5.9088   -2.5469   20.5772 O   0  0  0  0  0  0  0  0  0  0  0  0
    6.8374   -0.5047   20.8321 N   0  0  0  0  0  0  0  0  0  0  0  0
    6.1042    0.0535   19.7553 C   0  0  0  0  0  0  0  0  0  0  0  0
    6.4338   -0.2574   18.4641 C   0  0  0  0  0  0  0  0  0  0  0  0
    5.7866    0.2243   17.3726 N   0  0  0  0  0  0  0  0  0  0  0  0
    4.7706    1.0255   17.5822 C   0  0  0  0  0  0  0  0  0  0  0  0
    4.3147    1.4219   18.8728 C   0  0  0  0  0  0  0  0  0  0  0  0
    3.1951    2.2743   19.0482 C   0  0  0  0  0  0  0  0  0  0  0  0
    2.7760    2.6151   20.3051 C   0  0  0  0  0  0  0  0  0  0  0  0
    3.4579    2.1233   21.4416 C   0  0  0  0  0  0  0  0  0  0  0  0
    4.5442    1.2981   21.3004 C   0  0  0  0  0  0  0  0  0  0  0  0
    4.9996    0.9292   20.0041 C   0  0  0  0  0  0  0  0  0  0  0  0
    5.0449    0.9094   22.1839 H   0  0  0  0  0  0  0  0  0  0  0  0
    3.1127    2.4062   22.4325 H   0  0  0  0  0  0  0  0  0  0  0  0
    1.9184    3.2675   20.4389 H   0  0  0  0  0  0  0  0  0  0  0  0
    2.6842    2.6444   18.1641 H   0  0  0  0  0  0  0  0  0  0  0  0
    4.2389    1.3969   16.7051 H   0  0  0  0  0  0  0  0  0  0  0  0
    7.2778   -0.9170   18.2784 H   0  0  0  0  0  0  0  0  0  0  0  0
    7.2342    0.1446   21.4969 H   0  0  0  0  0  0  0  0  0  0  0  0
    7.2464   -3.7616   22.6345 C   0  0  0  0  0  0  0  0  0  0  0  0
    7.7499   -4.2399   21.7906 H   0  0  0  0  0  0  0  0  0  0  0  0
    7.7109   -4.1269   23.5592 H   0  0  0  0  0  0  0  0  0  0  0  0
    8.3835   -1.9127   22.4883 H   0  0  0  0  0  0  0  0  0  0  0  0
    7.9266    0.1736   23.7400 H   0  0  0  0  0  0  0  0  0  0  0  0
    4.4581    0.3644   26.2561 H   0  0  0  0  0  0  0  0  0  0  0  0
    3.8163   -1.9213   25.5385 H   0  0  0  0  0  0  0  0  0  0  0  0
    5.4631   -4.2584   24.7099 H   0  0  0  0  0  0  0  0  0  0  0  0
    4.0749   -3.6861   23.7790 H   0  0  0  0  0  0  0  0  0  0  0  0
    5.3982   -3.6359   21.7971 H   0  0  0  0  0  0  0  0  0  0  0  0
    6.1135   -6.1384   23.1518 H   0  0  0  0  0  0  0  0  0  0  0  0
    5.7247   -5.8703   21.4549 H   0  0  0  0  0  0  0  0  0  0  0  0
    3.5461   -6.5475   23.6684 N   0  0  0  0  0  0  0  0  0  0  0  0
    2.1261   -6.9102   23.7264 C   0  0  0  0  0  0  0  0  0  0  0  0
    1.2690   -5.6428   23.5957 C   0  0  0  0  0  0  0  0  0  0  0  0
   -0.2234   -5.7446   23.6022 C   0  0  0  0  0  0  0  0  0  0  0  0
   -0.9543   -5.6878   24.7859 C   0  0  0  0  0  0  0  0  0  0  0  0
   -2.3361   -5.8419   24.7654 C   0  0  0  0  0  0  0  0  0  0  0  0
   -3.0056   -6.0202   23.5588 C   0  0  0  0  0  0  0  0  0  0  0  0
   -4.4836   -6.2449   23.5396 C   0  0  0  0  0  0  0  0  0  0  0  0
   -5.0989   -5.3283   22.7371 F   0  0  0  0  0  0  0  0  0  0  0  0
   -4.7587   -7.4744   23.0120 F   0  0  0  0  0  0  0  0  0  0  0  0
   -4.9331   -6.1875   24.5380 H   0  0  0  0  0  0  0  0  0  0  0  0
   -2.2906   -5.9916   22.3621 C   0  0  0  0  0  0  0  0  0  0  0  0
   -0.9116   -5.8368   22.3883 C   0  0  0  0  0  0  0  0  0  0  0  0
   -0.3608   -5.7662   21.4495 H   0  0  0  0  0  0  0  0  0  0  0  0
   -2.8166   -6.0842   21.4150 H   0  0  0  0  0  0  0  0  0  0  0  0
   -2.8916   -5.8116   25.7021 H   0  0  0  0  0  0  0  0  0  0  0  0
   -0.4350   -5.5056   25.7247 H   0  0  0  0  0  0  0  0  0  0  0  0
    1.6104   -4.9363   24.3669 H   0  0  0  0  0  0  0  0  0  0  0  0
    1.5348   -5.2492   22.6211 H   0  0  0  0  0  0  0  0  0  0  0  0
    1.9533   -7.4315   24.6679 H   0  0  0  0  0  0  0  0  0  0  0  0
    1.8887   -7.6167   22.9201 H   0  0  0  0  0  0  0  0  0  0  0  0
    4.1412   -6.7342   24.4572 H   0  0  0  0  0  0  0  0  0  0  0  0
  1  2  2  0
  2  3  1  0
  3  4  1  0
  4  5  1  0
  5  6  1  0
  6  7  2  0
  7  8  1  0
  8  9  2  0
  9 10  1  0
  9 11  1  0
 11 12  2  0
 12 13  1  0
 13 14  1  0
 14 15  2  0
 14 16  1  0
 16 17  1  0
 17 18  2  0
 18 19  1  0
 19 20  2  0
 20 21  1  0
 21 22  2  0
 22 23  1  0
 23 24  2  0
 24 25  1  0
 25 26  2  0
 25 27  1  0
 24 28  1  0
 23 29  1  0
 22 30  1  0
 20 31  1  0
 18 32  1  0
 16 33  1  0
 13 34  1  0
 34 35  1  0
 34 36  1  0
 13 37  1  6
 11 38  1  0
  8 39  1  0
  7 40  1  0
  5 41  1  0
  5 42  1  0
  4 43  1  6
  3 44  1  0
  3 45  1  0
  2 46  1  0
 46 47  1  0
 47 48  1  0
 48 49  1  0
 49 50  2  0
 50 51  1  0
 51 52  2  0
 52 53  1  0
 53 54  1  0
 53 55  1  0
 53 56  1  0
 52 57  1  0
 57 58  2  0
 58 59  1  0
 57 60  1  0
 51 61  1  0
 50 62  1  0
 48 63  1  0
 48 64  1  0
 47 65  1  0
 47 66  1  0
 46 67  1  0
 34  4  1  0
 58 49  1  0
 12  6  1  0
 26 17  1  0
 26 21  1  0
M  CHG  1   4   1
M  END
>  <cnnaffinities>  (20) 
[5.96571, 5.82899]

>  <score>  (20) 
5.96571

>  <index>  (20) 
19

>  <Smiles>  (20) 
O=C(C([N@+]1(C(c2c(c(c(Cl)c(c2[C@](C(=O)N(c2c(nc(c3c(c(c(c(c23)[H])[H])[H])[H])[H])[H])[H])(C1([H])[H])[H])[H])[H])[H])([H])[H])[H])([H])[H])N(C(C(c1c(c(c(C(F)(F)[H])c(c1[H])[H])[H])[H])([H])[H])([H])[H])[H]

>  <h>  (20) 
<NA>

>  <Training>  (20) 
True

>  <Success>  (20) 
True

>  <enamine_searched>  (20) 
False

>  <enamine_id>  (20) 
nan

$$$$

     RDKit          3D

 66 70  0  0  0  0  0  0  0  0999 V2000
    4.1626    7.1891   21.3971 C   0  0  0  0  0  0  0  0  0  0  0  0
    5.3554    6.2816   21.1088 C   0  0  0  0  0  0  0  0  0  0  0  0
    5.7877    5.4319   22.2881 C   0  0  0  0  0  0  0  0  0  0  0  0
    5.0608    4.5597   22.7125 O   0  0  0  0  0  0  0  0  0  0  0  0
    7.0639    5.6759   22.8062 N   0  0  0  0  0  0  0  0  0  0  0  0
    7.5683    7.0361   22.9887 C   0  0  0  0  0  0  0  0  0  0  0  0
    8.1316    7.1921   24.3942 C   0  0  0  0  0  0  0  0  0  0  0  0
    9.2985    6.2207   24.5647 C   0  0  0  0  0  0  0  0  0  0  0  0
    9.0126    4.8472   23.9865 C   0  0  0  0  0  0  0  0  0  0  0  0
    9.8587    3.7757   24.2785 C   0  0  0  0  0  0  0  0  0  0  0  0
    9.5052    2.4598   23.9882 C   0  0  0  0  0  0  0  0  0  0  0  0
    8.3912    2.2361   23.1780 C   0  0  0  0  0  0  0  0  0  0  0  0
    8.0093    0.9137   22.7874 N   0  0  0  0  0  0  0  0  0  0  0  0
    7.8912    0.7115   21.3971 C   0  0  0  0  0  0  0  0  0  0  0  0
    8.4723    1.4376   20.6247 O   0  0  0  0  0  0  0  0  0  0  0  0
    6.9792   -0.4098   20.9131 C   0  0  0  0  0  0  0  0  0  0  0  0
    6.1141    0.0719   19.7738 C   0  0  0  0  0  0  0  0  0  0  0  0
    6.4322   -0.2206   18.4715 C   0  0  0  0  0  0  0  0  0  0  0  0
    5.7658    0.2248   17.3729 N   0  0  0  0  0  0  0  0  0  0  0  0
    4.7453    1.0191   17.5828 C   0  0  0  0  0  0  0  0  0  0  0  0
    4.2978    1.4175   18.8725 C   0  0  0  0  0  0  0  0  0  0  0  0
    3.1887    2.2847   19.0481 C   0  0  0  0  0  0  0  0  0  0  0  0
    2.7848    2.6540   20.3032 C   0  0  0  0  0  0  0  0  0  0  0  0
    3.4748    2.1709   21.4386 C   0  0  0  0  0  0  0  0  0  0  0  0
    4.5593    1.3403   21.2906 C   0  0  0  0  0  0  0  0  0  0  0  0
    5.0020    0.9336   20.0031 C   0  0  0  0  0  0  0  0  0  0  0  0
    5.0844    1.0018   22.1814 H   0  0  0  0  0  0  0  0  0  0  0  0
    3.1772    2.4864   22.4348 H   0  0  0  0  0  0  0  0  0  0  0  0
    1.9402    3.3261   20.4304 H   0  0  0  0  0  0  0  0  0  0  0  0
    2.6813    2.6567   18.1605 H   0  0  0  0  0  0  0  0  0  0  0  0
    4.2132    1.3863   16.7036 H   0  0  0  0  0  0  0  0  0  0  0  0
    7.2801   -0.8661   18.2466 H   0  0  0  0  0  0  0  0  0  0  0  0
    6.4179   -0.7825   21.7726 H   0  0  0  0  0  0  0  0  0  0  0  0
    7.6242   -1.2210   20.5545 H   0  0  0  0  0  0  0  0  0  0  0  0
    8.1720   -0.1478   23.6691 N   0  0  0  0  0  0  0  0  0  0  0  0
    9.0813   -1.2347   23.3603 C   0  0  0  0  0  0  0  0  0  0  0  0
    8.5811   -2.1929   23.5473 H   0  0  0  0  0  0  0  0  0  0  0  0
    9.9882   -1.2054   23.9808 H   0  0  0  0  0  0  0  0  0  0  0  0
    9.3824   -1.1957   22.3129 H   0  0  0  0  0  0  0  0  0  0  0  0
    7.4746   -0.1400   24.8716 C   0  0  0  0  0  0  0  0  0  0  0  0
    7.8858   -0.9354   25.9509 C   0  0  0  0  0  0  0  0  0  0  0  0
    7.2072   -0.8665   27.1627 C   0  0  0  0  0  0  0  0  0  0  0  0
    6.1010   -0.0364   27.3130 C   0  0  0  0  0  0  0  0  0  0  0  0
    5.6890    0.7259   26.2247 C   0  0  0  0  0  0  0  0  0  0  0  0
    4.2987    1.7711   26.3738 Cl  0  0  0  0  0  0  0  0  0  0  0  0
    6.3572    0.6930   25.0151 C   0  0  0  0  0  0  0  0  0  0  0  0
    6.0322    1.3201   24.1889 H   0  0  0  0  0  0  0  0  0  0  0  0
    5.5615    0.0261   28.2514 H   0  0  0  0  0  0  0  0  0  0  0  0
    7.5532   -1.4748   27.9989 H   0  0  0  0  0  0  0  0  0  0  0  0
    8.7489   -1.5892   25.8578 H   0  0  0  0  0  0  0  0  0  0  0  0
    7.6200    3.2993   22.7295 C   0  0  0  0  0  0  0  0  0  0  0  0
    7.8844    4.5972   23.1897 C   0  0  0  0  0  0  0  0  0  0  0  0
    6.7859    3.1106   22.0515 H   0  0  0  0  0  0  0  0  0  0  0  0
   10.0713    1.6261   24.3929 H   0  0  0  0  0  0  0  0  0  0  0  0
   10.7550    3.9666   24.8695 H   0  0  0  0  0  0  0  0  0  0  0  0
   10.1987    6.6403   24.0920 H   0  0  0  0  0  0  0  0  0  0  0  0
    9.5478    6.0992   25.6258 H   0  0  0  0  0  0  0  0  0  0  0  0
    7.3426    6.9941   25.1273 H   0  0  0  0  0  0  0  0  0  0  0  0
    8.4684    8.2215   24.5563 H   0  0  0  0  0  0  0  0  0  0  0  0
    8.3585    7.2525   22.2556 H   0  0  0  0  0  0  0  0  0  0  0  0
    6.7351    7.7197   22.8106 H   0  0  0  0  0  0  0  0  0  0  0  0
    6.2094    6.8275   20.6999 H   0  0  0  0  0  0  0  0  0  0  0  0
    5.0642    5.5404   20.3574 H   0  0  0  0  0  0  0  0  0  0  0  0
    3.8536    7.7052   20.4828 H   0  0  0  0  0  0  0  0  0  0  0  0
    4.3741    7.9487   22.1564 H   0  0  0  0  0  0  0  0  0  0  0  0
    3.3190    6.5898   21.7446 H   0  0  0  0  0  0  0  0  0  0  0  0
  1  2  1  0
  2  3  1  0
  3  4  2  0
  3  5  1  0
  5  6  1  0
  6  7  1  0
  7  8  1  0
  8  9  1  0
  9 10  2  0
 10 11  1  0
 11 12  2  0
 12 13  1  0
 13 14  1  0
 14 15  2  0
 14 16  1  0
 16 17  1  0
 17 18  2  0
 18 19  1  0
 19 20  2  0
 20 21  1  0
 21 22  2  0
 22 23  1  0
 23 24  2  0
 24 25  1  0
 25 26  2  0
 25 27  1  0
 24 28  1  0
 23 29  1  0
 22 30  1  0
 20 31  1  0
 18 32  1  0
 16 33  1  0
 16 34  1  0
 13 35  1  0
 35 36  1  0
 36 37  1  0
 36 38  1  0
 36 39  1  0
 35 40  1  0
 40 41  2  0
 41 42  1  0
 42 43  2  0
 43 44  1  0
 44 45  1  0
 44 46  2  0
 46 47  1  0
 43 48  1  0
 42 49  1  0
 41 50  1  0
 12 51  1  0
 51 52  2  0
 51 53  1  0
 11 54  1  0
 10 55  1  0
  8 56  1  0
  8 57  1  0
  7 58  1  0
  7 59  1  0
  6 60  1  0
  6 61  1  0
  2 62  1  0
  2 63  1  0
  1 64  1  0
  1 65  1  0
  1 66  1  0
 52  5  1  0
 52  9  1  0
 26 17  1  0
 46 40  1  0
 26 21  1  0
M  END
>  <cnnaffinities>  (21) 
[6.44867, 6.62231]

>  <score>  (21) 
6.44867

>  <index>  (21) 
20

>  <Smiles>  (21) 
C(C(C(=O)N1C(C(C(c2c(c(c(N(C(=O)C(c3c(nc(c4c(c(c(c(c34)[H])[H])[H])[H])[H])[H])([H])[H])N(C([H])([H])[H])c3c(c(c(c(Cl)c3[H])[H])[H])[H])c(c12)[H])[H])[H])([H])[H])([H])[H])([H])[H])([H])[H])([H])([H])[H]

>  <h>  (21) 
<NA>

>  <Training>  (21) 
True

>  <Success>  (21) 
True

>  <enamine_searched>  (21) 
False

>  <enamine_id>  (21) 
nan

$$$$

     RDKit          3D

 59 64  0  0  0  0  0  0  0  0999 V2000
    7.6783   -2.9963   23.3730 C   0  0  0  0  0  0  0  0  0  0  0  0
    7.9769   -1.9293   22.3238 C   0  0  1  0  0  0  0  0  0  0  0  0
    6.8841   -1.8031   21.2559 C   0  0  0  0  0  0  0  0  0  0  0  0
    6.9218   -0.4103   20.8416 N   0  0  0  0  0  0  0  0  0  0  0  0
    6.1335    0.1027   19.7700 C   0  0  0  0  0  0  0  0  0  0  0  0
    6.4287   -0.2205   18.4692 C   0  0  0  0  0  0  0  0  0  0  0  0
    5.7588    0.2350   17.3750 N   0  0  0  0  0  0  0  0  0  0  0  0
    4.7359    1.0321   17.5762 C   0  0  0  0  0  0  0  0  0  0  0  0
    4.2876    1.4239   18.8711 C   0  0  0  0  0  0  0  0  0  0  0  0
    3.1609    2.2758   19.0497 C   0  0  0  0  0  0  0  0  0  0  0  0
    2.7477    2.6132   20.3086 C   0  0  0  0  0  0  0  0  0  0  0  0
    3.4288    2.1156   21.4415 C   0  0  0  0  0  0  0  0  0  0  0  0
    4.5145    1.2948   21.2947 C   0  0  0  0  0  0  0  0  0  0  0  0
    4.9882    0.9393   20.0017 C   0  0  0  0  0  0  0  0  0  0  0  0
    5.0283    0.9069   22.1675 H   0  0  0  0  0  0  0  0  0  0  0  0
    3.0878    2.3842   22.4345 H   0  0  0  0  0  0  0  0  0  0  0  0
    1.8903    3.2624   20.4511 H   0  0  0  0  0  0  0  0  0  0  0  0
    2.6355    2.6509   18.1734 H   0  0  0  0  0  0  0  0  0  0  0  0
    4.1950    1.4018   16.7009 H   0  0  0  0  0  0  0  0  0  0  0  0
    7.2813   -0.8653   18.2630 H   0  0  0  0  0  0  0  0  0  0  0  0
    7.6473    0.3880   21.6976 C   0  0  0  0  0  0  0  0  0  0  0  0
    7.7850    1.5893   21.5976 O   0  0  0  0  0  0  0  0  0  0  0  0
    8.1953   -0.4637   22.8361 C   0  0  1  0  0  0  0  0  0  0  0  0
    7.2832   -0.0455   24.0207 C   0  0  0  0  0  0  0  0  0  0  0  0
    7.9423   -0.7586   25.2822 N   0  0  0  0  0  0  0  0  0  0  0  0
    7.0723   -1.0804   26.4454 C   0  0  0  0  0  0  0  0  0  0  0  0
    6.5939    0.0870   27.2653 C   0  0  0  0  0  0  0  0  0  0  0  0
    7.1835    0.6170   28.4237 C   0  0  0  0  0  0  0  0  0  0  0  0
    6.5960    1.7437   28.8091 N   0  0  0  0  0  0  0  0  0  0  0  0
    5.6353    1.9529   27.8918 N   0  0  0  0  0  0  0  0  0  0  0  0
    4.6991    3.0580   27.9950 C   0  0  0  0  0  0  0  0  0  0  0  0
    5.1314    3.8517   28.6041 H   0  0  0  0  0  0  0  0  0  0  0  0
    4.4875    3.4548   26.9985 H   0  0  0  0  0  0  0  0  0  0  0  0
    3.7568    2.7319   28.4465 H   0  0  0  0  0  0  0  0  0  0  0  0
    5.6007    0.9766   26.9458 C   0  0  0  0  0  0  0  0  0  0  0  0
    4.9006    0.9723   26.1096 H   0  0  0  0  0  0  0  0  0  0  0  0
    8.0399    0.1820   28.9315 H   0  0  0  0  0  0  0  0  0  0  0  0
    7.5542   -1.8378   27.0859 H   0  0  0  0  0  0  0  0  0  0  0  0
    6.1677   -1.5735   26.0322 H   0  0  0  0  0  0  0  0  0  0  0  0
    9.3598   -0.6304   25.6994 C   0  0  0  0  0  0  0  0  0  0  0  0
    9.3596   -0.6304   25.6991 O   0  0  0  0  0  0  0  0  0  0  0  0
   10.1334   -0.2711   24.4572 C   0  0  0  0  0  0  0  0  0  0  0  0
   11.5432    0.0024   24.5824 C   0  0  0  0  0  0  0  0  0  0  0  0
   12.4372    0.1963   23.5138 C   0  0  0  0  0  0  0  0  0  0  0  0
   11.9225    0.2381   22.2399 C   0  0  0  0  0  0  0  0  0  0  0  0
   12.7843    0.4853   21.2576 F   0  0  0  0  0  0  0  0  0  0  0  0
   10.5675    0.0467   22.0234 C   0  0  0  0  0  0  0  0  0  0  0  0
    9.6758   -0.1875   23.0928 C   0  0  0  0  0  0  0  0  0  0  0  0
   10.1919    0.0676   21.0147 H   0  0  0  0  0  0  0  0  0  0  0  0
   13.5033    0.3701   23.7097 H   0  0  0  0  0  0  0  0  0  0  0  0
   11.8785    0.2246   25.5492 H   0  0  0  0  0  0  0  0  0  0  0  0
    6.3013   -0.4423   23.9771 H   0  0  0  0  0  0  0  0  0  0  0  0
    7.3011    1.0312   24.2110 H   0  0  0  0  0  0  0  0  0  0  0  0
    7.0853   -2.4565   20.4117 H   0  0  0  0  0  0  0  0  0  0  0  0
    5.8981   -2.0701   21.6586 H   0  0  0  0  0  0  0  0  0  0  0  0
    8.9092   -2.2163   21.8170 H   0  0  0  0  0  0  0  0  0  0  0  0
    7.6115   -3.9744   22.8942 H   0  0  0  0  0  0  0  0  0  0  0  0
    8.4668   -3.0352   24.1312 H   0  0  0  0  0  0  0  0  0  0  0  0
    6.7302   -2.8021   23.8821 H   0  0  0  0  0  0  0  0  0  0  0  0
  1  2  1  0
  2  3  1  0
  3  4  1  0
  4  5  1  0
  5  6  2  0
  6  7  1  0
  7  8  2  0
  8  9  1  0
  9 10  2  0
 10 11  1  0
 11 12  2  0
 12 13  1  0
 13 14  2  0
 13 15  1  0
 12 16  1  0
 11 17  1  0
 10 18  1  0
  8 19  1  0
  6 20  1  0
  4 21  1  0
 21 22  2  0
 21 23  1  0
 23 24  1  1
 24 25  1  0
 25 26  1  0
 26 27  1  0
 27 28  1  0
 28 29  2  0
 29 30  1  0
 30 31  1  0
 31 32  1  0
 31 33  1  0
 31 34  1  0
 30 35  1  0
 35 36  1  0
 28 37  1  0
 26 38  1  0
 26 39  1  0
 25 40  1  0
 40 41  2  0
 40 42  1  0
 42 43  2  0
 43 44  1  0
 44 45  2  0
 45 46  1  0
 45 47  1  0
 47 48  2  0
 47 49  1  0
 44 50  1  0
 43 51  1  0
 24 52  1  0
 24 53  1  0
  3 54  1  0
  3 55  1  0
  2 56  1  6
  1 57  1  0
  1 58  1  0
  1 59  1  0
 23  2  1  0
 35 27  2  0
 48 42  1  0
 14  5  1  0
 48 23  1  0
 14  9  1  0
M  END
>  <cnnaffinities>  (22) 
[6.22383]

>  <score>  (22) 
6.22383

>  <index>  (22) 
21

>  <Smiles>  (22) 
C([C@]1(C(N(c2c(nc(c3c(c(c(c(c23)[H])[H])[H])[H])[H])[H])C(=O)[C@]21C(N(C(c1c(nn(C([H])([H])[H])c1[H])[H])([H])[H])C(=O)c1c(c(c(F)c(c21)[H])[H])[H])([H])[H])([H])[H])[H])([H])([H])[H]

>  <h>  (22) 
<NA>

>  <Training>  (22) 
True

>  <Success>  (22) 
True

>  <enamine_searched>  (22) 
False

>  <enamine_id>  (22) 
nan

$$$$

     RDKit          3D

 41 44  0  0  0  0  0  0  0  0999 V2000
    7.9691    1.7329   21.0585 O   0  0  0  0  0  0  0  0  0  0  0  0
    8.0396    0.5533   21.3713 C   0  0  0  0  0  0  0  0  0  0  0  0
    6.9866   -0.4473   20.9030 C   0  0  0  0  0  0  0  0  0  0  0  0
    6.1483    0.0898   19.7756 C   0  0  0  0  0  0  0  0  0  0  0  0
    6.4584   -0.2181   18.4756 C   0  0  0  0  0  0  0  0  0  0  0  0
    5.7880    0.2207   17.3758 N   0  0  0  0  0  0  0  0  0  0  0  0
    4.7636    1.0149   17.5875 C   0  0  0  0  0  0  0  0  0  0  0  0
    4.3214    1.4153   18.8756 C   0  0  0  0  0  0  0  0  0  0  0  0
    3.2014    2.2663   19.0433 C   0  0  0  0  0  0  0  0  0  0  0  0
    2.7893    2.6341   20.2957 C   0  0  0  0  0  0  0  0  0  0  0  0
    3.4880    2.1686   21.4355 C   0  0  0  0  0  0  0  0  0  0  0  0
    4.5853    1.3510   21.2954 C   0  0  0  0  0  0  0  0  0  0  0  0
    5.0319    0.9486   20.0085 C   0  0  0  0  0  0  0  0  0  0  0  0
    5.1267    1.0238   22.1778 H   0  0  0  0  0  0  0  0  0  0  0  0
    3.1524    2.4675   22.4232 H   0  0  0  0  0  0  0  0  0  0  0  0
    1.9349    3.2913   20.4222 H   0  0  0  0  0  0  0  0  0  0  0  0
    2.6892    2.6277   18.1531 H   0  0  0  0  0  0  0  0  0  0  0  0
    4.2204    1.3852   16.7163 H   0  0  0  0  0  0  0  0  0  0  0  0
    7.2963   -0.8816   18.2537 H   0  0  0  0  0  0  0  0  0  0  0  0
    6.3762   -0.7549   21.7645 H   0  0  0  0  0  0  0  0  0  0  0  0
    7.5192   -1.3434   20.5637 H   0  0  0  0  0  0  0  0  0  0  0  0
    9.0698    0.0627   22.1180 N   0  0  0  0  0  0  0  0  0  0  0  0
    9.1843   -1.3279   22.5868 C   0  0  0  0  0  0  0  0  0  0  0  0
   10.0938   -1.4097   23.8107 C   0  0  0  0  0  0  0  0  0  0  0  0
   11.4293   -0.8003   23.4868 C   0  0  0  0  0  0  0  0  0  0  0  0
   12.6377   -1.3257   23.9316 C   0  0  0  0  0  0  0  0  0  0  0  0
   12.6613   -2.7719   24.9118 Cl  0  0  0  0  0  0  0  0  0  0  0  0
   13.8457   -0.7232   23.6165 C   0  0  0  0  0  0  0  0  0  0  0  0
   13.8570    0.4030   22.8011 C   0  0  0  0  0  0  0  0  0  0  0  0
   12.6629    0.9565   22.3595 C   0  0  0  0  0  0  0  0  0  0  0  0
   11.4509    0.3729   22.7180 C   0  0  0  0  0  0  0  0  0  0  0  0
   10.1396    1.0244   22.3740 C   0  0  0  0  0  0  0  0  0  0  0  0
    9.8242    1.6925   23.1873 H   0  0  0  0  0  0  0  0  0  0  0  0
   10.2125    1.6653   21.4848 H   0  0  0  0  0  0  0  0  0  0  0  0
   12.6737    1.8518   21.7393 H   0  0  0  0  0  0  0  0  0  0  0  0
   14.7884    0.8647   22.4907 H   0  0  0  0  0  0  0  0  0  0  0  0
   14.7441   -1.1497   24.0335 H   0  0  0  0  0  0  0  0  0  0  0  0
   10.2162   -2.4443   24.1512 H   0  0  0  0  0  0  0  0  0  0  0  0
    9.6329   -0.8462   24.6316 H   0  0  0  0  0  0  0  0  0  0  0  0
    9.5910   -1.9557   21.7848 H   0  0  0  0  0  0  0  0  0  0  0  0
    8.2000   -1.7444   22.8380 H   0  0  0  0  0  0  0  0  0  0  0  0
  1  2  2  0
  2  3  1  0
  3  4  1  0
  4  5  2  0
  5  6  1  0
  6  7  2  0
  7  8  1  0
  8  9  2  0
  9 10  1  0
 10 11  2  0
 11 12  1  0
 12 13  2  0
 12 14  1  0
 11 15  1  0
 10 16  1  0
  9 17  1  0
  7 18  1  0
  5 19  1  0
  3 20  1  0
  3 21  1  0
  2 22  1  0
 22 23  1  0
 23 24  1  0
 24 25  1  0
 25 26  2  0
 26 27  1  0
 26 28  1  0
 28 29  2  0
 29 30  1  0
 30 31  2  0
 31 32  1  0
 32 33  1  0
 32 34  1  0
 30 35  1  0
 29 36  1  0
 28 37  1  0
 24 38  1  0
 24 39  1  0
 23 40  1  0
 23 41  1  0
 13  4  1  0
 32 22  1  0
 13  8  1  0
 31 25  1  0
M  END
>  <cnnaffinities>  (23) 
[5.84288]

>  <score>  (23) 
5.84288

>  <index>  (23) 
22

>  <Smiles>  (23) 
O=C(C(c1c(nc(c2c(c(c(c(c12)[H])[H])[H])[H])[H])[H])([H])[H])N1C(C(c2c(Cl)c(c(c(c2C1([H])[H])[H])[H])[H])([H])[H])([H])[H]

>  <h>  (23) 
<NA>

>  <Training>  (23) 
True

>  <Success>  (23) 
True

>  <enamine_searched>  (23) 
False

>  <enamine_id>  (23) 
nan

$$$$

     RDKit          3D

 69 74  0  0  0  0  0  0  0  0999 V2000
    4.2851    6.7089   20.9269 C   0  0  0  0  0  0  0  0  0  0  0  0
    5.1247    6.2010   22.0740 C   0  0  1  0  0  0  0  0  0  0  0  0
    6.0866    5.0940   21.6613 C   0  0  0  0  0  0  0  0  0  0  0  0
    6.8121    4.6443   22.8812 N   0  0  1  0  0  4  0  0  0  0  0  0
    7.6739    3.4699   22.6721 C   0  0  0  0  0  0  0  0  0  0  0  0
    8.0865    2.9205   24.0349 C   0  0  0  0  0  0  0  0  0  0  0  0
    8.7812    1.6628   23.9214 N   0  0  0  0  0  0  0  0  0  0  0  0
    8.0005    0.4465   23.7992 C   0  0  0  0  0  0  0  0  0  0  0  0
    8.4028   -0.3948   22.5642 C   0  0  2  0  0  0  0  0  0  0  0  0
    7.9471    0.2535   21.2350 C   0  0  0  0  0  0  0  0  0  0  0  0
    8.4793    1.1839   20.6579 O   0  0  0  0  0  0  0  0  0  0  0  0
    6.8340   -0.4231   20.7770 N   0  0  0  0  0  0  0  0  0  0  0  0
    6.0819    0.0954   19.6916 C   0  0  0  0  0  0  0  0  0  0  0  0
    6.4298   -0.1943   18.3980 C   0  0  0  0  0  0  0  0  0  0  0  0
    5.7406    0.2465   17.3151 N   0  0  0  0  0  0  0  0  0  0  0  0
    4.7109    1.0282   17.5329 C   0  0  0  0  0  0  0  0  0  0  0  0
    4.2672    1.4410   18.8225 C   0  0  0  0  0  0  0  0  0  0  0  0
    3.1705    2.3200   19.0250 C   0  0  0  0  0  0  0  0  0  0  0  0
    2.7948    2.6850   20.2884 C   0  0  0  0  0  0  0  0  0  0  0  0
    3.4922    2.1976   21.4152 C   0  0  0  0  0  0  0  0  0  0  0  0
    4.5714    1.3718   21.2437 C   0  0  0  0  0  0  0  0  0  0  0  0
    4.9748    0.9565   19.9450 C   0  0  0  0  0  0  0  0  0  0  0  0
    5.1324    1.0427   22.1118 H   0  0  0  0  0  0  0  0  0  0  0  0
    3.1974    2.4929   22.4178 H   0  0  0  0  0  0  0  0  0  0  0  0
    1.9671    3.3704   20.4391 H   0  0  0  0  0  0  0  0  0  0  0  0
    2.6566    2.7111   18.1530 H   0  0  0  0  0  0  0  0  0  0  0  0
    4.1735    1.3802   16.6529 H   0  0  0  0  0  0  0  0  0  0  0  0
    7.2975   -0.8204   18.1990 H   0  0  0  0  0  0  0  0  0  0  0  0
    6.3600   -1.4423   21.7062 C   0  0  0  0  0  0  0  0  0  0  0  0
    7.6536   -1.7476   22.4742 C   0  0  2  0  0  0  0  0  0  0  0  0
    7.5565   -2.5759   23.7511 C   0  0  0  0  0  0  0  0  0  0  0  0
    7.1337   -3.5674   23.5475 H   0  0  0  0  0  0  0  0  0  0  0  0
    6.9352   -2.0942   24.5164 H   0  0  0  0  0  0  0  0  0  0  0  0
    8.5595   -2.7262   24.1745 H   0  0  0  0  0  0  0  0  0  0  0  0
    8.2342   -2.3222   21.7540 H   0  0  0  0  0  0  0  0  0  0  0  0
    5.9880   -2.3104   21.1499 H   0  0  0  0  0  0  0  0  0  0  0  0
    5.5495   -1.0905   22.3691 H   0  0  0  0  0  0  0  0  0  0  0  0
    9.9041   -0.4962   22.5507 C   0  0  0  0  0  0  0  0  0  0  0  0
   10.5138   -1.5273   21.8476 C   0  0  0  0  0  0  0  0  0  0  0  0
   11.8585   -1.4933   21.5746 C   0  0  0  0  0  0  0  0  0  0  0  0
   12.3707   -2.8500   20.6091 Cl  0  0  0  0  0  0  0  0  0  0  0  0
   12.6599   -0.4311   22.0129 C   0  0  0  0  0  0  0  0  0  0  0  0
   12.0756    0.5624   22.7668 C   0  0  0  0  0  0  0  0  0  0  0  0
   10.7105    0.5444   23.0080 C   0  0  0  0  0  0  0  0  0  0  0  0
   10.1103    1.7474   23.6350 C   0  0  0  0  0  0  0  0  0  0  0  0
   10.7680    2.7632   23.8383 O   0  0  0  0  0  0  0  0  0  0  0  0
   12.6550    1.3936   23.1589 H   0  0  0  0  0  0  0  0  0  0  0  0
   13.6974   -0.3104   21.7391 H   0  0  0  0  0  0  0  0  0  0  0  0
    9.9527   -2.3434   21.4201 H   0  0  0  0  0  0  0  0  0  0  0  0
    8.1429   -0.1707   24.6995 H   0  0  0  0  0  0  0  0  0  0  0  0
    6.9469    0.7479   23.7346 H   0  0  0  0  0  0  0  0  0  0  0  0
    7.2013    2.7991   24.6758 H   0  0  0  0  0  0  0  0  0  0  0  0
    8.7767    3.6156   24.5063 H   0  0  0  0  0  0  0  0  0  0  0  0
    8.5655    3.7523   22.0944 H   0  0  0  0  0  0  0  0  0  0  0  0
    7.1271    2.7144   22.0971 H   0  0  0  0  0  0  0  0  0  0  0  0
    7.5725    5.8086   23.4606 C   0  0  0  0  0  0  0  0  0  0  0  0
    6.6022    6.9419   23.7471 C   0  0  0  0  0  0  0  0  0  0  0  0
    5.8402    7.3036   22.6153 O   0  0  0  0  0  0  0  0  0  0  0  0
    5.9447    6.6177   24.5750 H   0  0  0  0  0  0  0  0  0  0  0  0
    7.1419    7.8353   24.0709 H   0  0  0  0  0  0  0  0  0  0  0  0
    8.0363    5.5009   24.3972 H   0  0  0  0  0  0  0  0  0  0  0  0
    8.3669    6.0989   22.7603 H   0  0  0  0  0  0  0  0  0  0  0  0
    6.0821    4.3482   23.5645 H   0  0  0  0  0  0  0  0  0  0  0  0
    5.5521    4.2416   21.2263 H   0  0  0  0  0  0  0  0  0  0  0  0
    6.8091    5.4650   20.9245 H   0  0  0  0  0  0  0  0  0  0  0  0
    4.4835    5.7751   22.8653 H   0  0  0  0  0  0  0  0  0  0  0  0
    3.6502    5.9047   20.5345 H   0  0  0  0  0  0  0  0  0  0  0  0
    3.6418    7.5258   21.2586 H   0  0  0  0  0  0  0  0  0  0  0  0
    4.9351    7.0994   20.1353 H   0  0  0  0  0  0  0  0  0  0  0  0
  1  2  1  0
  2  3  1  0
  3  4  1  0
  4  5  1  0
  5  6  1  0
  6  7  1  0
  7  8  1  0
  9  8  1  1
  9 10  1  0
 10 11  2  0
 10 12  1  0
 12 13  1  0
 13 14  2  0
 14 15  1  0
 15 16  2  0
 16 17  1  0
 17 18  2  0
 18 19  1  0
 19 20  2  0
 20 21  1  0
 21 22  2  0
 21 23  1  0
 20 24  1  0
 19 25  1  0
 18 26  1  0
 16 27  1  0
 14 28  1  0
 12 29  1  0
 29 30  1  0
 30 31  1  0
 31 32  1  0
 31 33  1  0
 31 34  1  0
 30 35  1  6
 29 36  1  0
 29 37  1  0
  9 38  1  0
 38 39  2  0
 39 40  1  0
 40 41  1  0
 40 42  2  0
 42 43  1  0
 43 44  2  0
 44 45  1  0
 45 46  2  0
 43 47  1  0
 42 48  1  0
 39 49  1  0
  8 50  1  0
  8 51  1  0
  6 52  1  0
  6 53  1  0
  5 54  1  0
  5 55  1  0
  4 56  1  0
 56 57  1  0
 57 58  1  0
 57 59  1  0
 57 60  1  0
 56 61  1  0
 56 62  1  0
  4 63  1  1
  3 64  1  0
  3 65  1  0
  2 66  1  1
  1 67  1  0
  1 68  1  0
  1 69  1  0
 58  2  1  0
 45  7  1  0
 30  9  1  0
 44 38  1  0
 22 13  1  0
 22 17  1  0
M  CHG  1   4   1
M  END
>  <cnnaffinities>  (24) 
[6.49505, 6.25098]

>  <score>  (24) 
6.49505

>  <index>  (24) 
23

>  <Smiles>  (24) 
C([C@]1(C([N@@+](C(C(N2C([C@@]3(C(=O)N(c4c(nc(c5c(c(c(c(c45)[H])[H])[H])[H])[H])[H])C([C@@]3(C([H])([H])[H])[H])([H])[H])c3c(c(Cl)c(c(c3C2=O)[H])[H])[H])([H])[H])([H])[H])([H])[H])(C(C(O1)([H])[H])([H])[H])[H])([H])[H])[H])([H])([H])[H]

>  <h>  (24) 
<NA>

>  <Training>  (24) 
True

>  <Success>  (24) 
True

>  <enamine_searched>  (24) 
False

>  <enamine_id>  (24) 
nan

$$$$

     RDKit          3D

 70 75  0  0  0  0  0  0  0  0999 V2000
    6.4026    1.5455   28.4589 C   0  0  0  0  0  0  0  0  0  0  0  0
    6.6225    0.7521   27.2477 N   0  0  0  0  0  4  0  0  0  0  0  0
    5.4031    0.1570   26.6361 C   0  0  0  0  0  0  0  0  0  0  0  0
    5.8164   -0.9806   25.6830 C   0  0  0  0  0  0  0  0  0  0  0  0
    6.9366   -0.6482   24.8034 N   0  0  0  0  0  0  0  0  0  0  0  0
    6.6737   -0.0912   23.4902 C   0  0  0  0  0  0  0  0  0  0  0  0
    7.7551   -0.4761   22.4450 C   0  0  2  0  0  0  0  0  0  0  0  0
    7.4668    0.3491   21.1765 C   0  0  0  0  0  0  0  0  0  0  0  0
    7.7656    1.5044   20.9451 O   0  0  0  0  0  0  0  0  0  0  0  0
    6.7321   -0.4343   20.3064 N   0  0  0  0  0  0  0  0  0  0  0  0
    5.9526    0.1516   19.2822 C   0  0  0  0  0  0  0  0  0  0  0  0
    6.2042   -0.1650   17.9731 C   0  0  0  0  0  0  0  0  0  0  0  0
    5.5272    0.3535   16.9207 N   0  0  0  0  0  0  0  0  0  0  0  0
    4.5547    1.1956   17.1837 C   0  0  0  0  0  0  0  0  0  0  0  0
    4.1531    1.5649   18.4994 C   0  0  0  0  0  0  0  0  0  0  0  0
    3.0535    2.4304   18.7421 C   0  0  0  0  0  0  0  0  0  0  0  0
    2.6782    2.7369   20.0208 C   0  0  0  0  0  0  0  0  0  0  0  0
    3.3931    2.2098   21.1197 C   0  0  0  0  0  0  0  0  0  0  0  0
    4.4713    1.3908   20.9115 C   0  0  0  0  0  0  0  0  0  0  0  0
    4.8717    1.0364   19.5908 C   0  0  0  0  0  0  0  0  0  0  0  0
    5.0413    1.0222   21.7570 H   0  0  0  0  0  0  0  0  0  0  0  0
    3.0970    2.4599   22.1326 H   0  0  0  0  0  0  0  0  0  0  0  0
    1.8328    3.3935   20.2042 H   0  0  0  0  0  0  0  0  0  0  0  0
    2.5266    2.8474   17.8891 H   0  0  0  0  0  0  0  0  0  0  0  0
    4.0297    1.6294   16.3324 H   0  0  0  0  0  0  0  0  0  0  0  0
    7.0138   -0.8535   17.7311 H   0  0  0  0  0  0  0  0  0  0  0  0
    6.4627   -1.7614   20.8346 C   0  0  0  0  0  0  0  0  0  0  0  0
    7.5844   -1.9252   21.8601 C   0  0  2  0  0  0  0  0  0  0  0  0
    7.3621   -3.1126   22.7913 C   0  0  0  0  0  0  0  0  0  0  0  0
    8.3117   -3.2395   23.8130 O   0  0  0  0  0  0  0  0  0  0  0  0
    9.6399   -3.4920   23.3853 C   0  0  0  0  0  0  0  0  0  0  0  0
   10.4235   -4.0355   24.4978 C   0  0  0  0  0  0  0  0  0  0  0  0
   10.6379   -3.7634   24.6759 C   0  0  0  0  0  0  0  0  0  0  0  0
   10.0417   -4.7730   26.8017 O   0  0  0  0  0  0  0  0  0  0  0  0
    9.6694   -4.8273   25.6023 C   0  0  0  0  0  0  0  0  0  0  0  0
    8.5518   -4.6339   25.4537 H   0  0  0  0  0  0  0  0  0  0  0  0
    9.7673   -5.8965   25.1478 H   0  0  0  0  0  0  0  0  0  0  0  0
   10.5448   -2.7155   25.2288 H   0  0  0  0  0  0  0  0  0  0  0  0
   11.9420   -3.5569   25.2155 H   0  0  0  0  0  0  0  0  0  0  0  0
   11.1915   -4.7614   24.1494 H   0  0  0  0  0  0  0  0  0  0  0  0
    9.5905   -4.2352   22.5656 H   0  0  0  0  0  0  0  0  0  0  0  0
   10.0491   -2.5860   22.8983 H   0  0  0  0  0  0  0  0  0  0  0  0
    6.3889   -3.0317   23.2896 H   0  0  0  0  0  0  0  0  0  0  0  0
    7.3373   -4.0335   22.1766 H   0  0  0  0  0  0  0  0  0  0  0  0
    8.5109   -2.0968   21.2931 H   0  0  0  0  0  0  0  0  0  0  0  0
    6.4804   -2.5077   20.0383 H   0  0  0  0  0  0  0  0  0  0  0  0
    5.4710   -1.8208   21.3148 H   0  0  0  0  0  0  0  0  0  0  0  0
    9.1233   -0.2067   23.0337 C   0  0  0  0  0  0  0  0  0  0  0  0
   10.2411    0.0396   22.2193 C   0  0  0  0  0  0  0  0  0  0  0  0
   11.4951    0.1806   22.7906 C   0  0  0  0  0  0  0  0  0  0  0  0
   12.8974    0.3962   21.7851 Cl  0  0  0  0  0  0  0  0  0  0  0  0
   11.6826    0.1299   24.1722 C   0  0  0  0  0  0  0  0  0  0  0  0
   10.5814   -0.1126   24.9756 C   0  0  0  0  0  0  0  0  0  0  0  0
    9.3145   -0.2950   24.4198 C   0  0  0  0  0  0  0  0  0  0  0  0
    8.1926   -0.7146   25.3184 C   0  0  0  0  0  0  0  0  0  0  0  0
    8.4033   -1.0259   26.4987 O   0  0  0  0  0  0  0  0  0  0  0  0
   10.6884   -0.2146   26.0488 H   0  0  0  0  0  0  0  0  0  0  0  0
   12.6774    0.2735   24.5857 H   0  0  0  0  0  0  0  0  0  0  0  0
   10.1346    0.1197   21.1429 H   0  0  0  0  0  0  0  0  0  0  0  0
    6.6218    1.0077   23.5380 H   0  0  0  0  0  0  0  0  0  0  0  0
    5.6939   -0.4617   23.1591 H   0  0  0  0  0  0  0  0  0  0  0  0
    4.9668   -1.2913   25.0650 H   0  0  0  0  0  0  0  0  0  0  0  0
    6.1350   -1.8526   26.2652 H   0  0  0  0  0  0  0  0  0  0  0  0
    4.7606   -0.2555   27.4217 H   0  0  0  0  0  0  0  0  0  0  0  0
    4.8253    0.9263   26.1086 H   0  0  0  0  0  0  0  0  0  0  0  0
    7.2977   -0.0208   27.4275 H   0  0  0  0  0  0  0  0  0  0  0  0
    7.0435    1.3793   26.5417 H   0  0  0  0  0  0  0  0  0  0  0  0
    5.9051    0.9434   29.2262 H   0  0  0  0  0  0  0  0  0  0  0  0
    7.3546    1.9043   28.8555 H   0  0  0  0  0  0  0  0  0  0  0  0
    5.7742    2.4158   28.2460 H   0  0  0  0  0  0  0  0  0  0  0  0
  1  2  1  0
  2  3  1  0
  3  4  1  0
  4  5  1  0
  5  6  1  0
  7  6  1  1
  7  8  1  0
  8  9  2  0
  8 10  1  0
 10 11  1  0
 11 12  2  0
 12 13  1  0
 13 14  2  0
 14 15  1  0
 15 16  2  0
 16 17  1  0
 17 18  2  0
 18 19  1  0
 19 20  2  0
 19 21  1  0
 18 22  1  0
 17 23  1  0
 16 24  1  0
 14 25  1  0
 12 26  1  0
 10 27  1  0
 27 28  1  0
 28 29  1  0
 29 30  1  0
 30 31  1  0
 31 32  1  0
 32 33  1  0
 33 34  1  0
 34 35  1  0
 35 36  1  0
 35 37  1  0
 33 38  1  0
 33 39  1  0
 32 40  1  0
 31 41  1  0
 31 42  1  0
 29 43  1  0
 29 44  1  0
 28 45  1  6
 27 46  1  0
 27 47  1  0
  7 48  1  0
 48 49  2  0
 49 50  1  0
 50 51  1  0
 50 52  2  0
 52 53  1  0
 53 54  2  0
 54 55  1  0
 55 56  2  0
 53 57  1  0
 52 58  1  0
 49 59  1  0
  6 60  1  0
  6 61  1  0
  4 62  1  0
  4 63  1  0
  3 64  1  0
  3 65  1  0
  2 66  1  0
  2 67  1  0
  1 68  1  0
  1 69  1  0
  1 70  1  0
 55  5  1  0
 28  7  1  0
 35 32  1  0
 54 48  1  0
 20 11  1  0
 20 15  1  0
M  CHG  1   2   1
M  END
>  <cnnaffinities>  (25) 
[6.11303]

>  <score>  (25) 
6.11303

>  <index>  (25) 
24

>  <Smiles>  (25) 
C([N+](C(C(N1C([C@@]2(C(=O)N(c3c(nc(c4c(c(c(c(c34)[H])[H])[H])[H])[H])[H])C([C@@]2(C(OC(C2(C(OC2([H])[H])([H])[H])[H])([H])[H])([H])[H])[H])([H])[H])c2c(c(Cl)c(c(c2C1=O)[H])[H])[H])([H])[H])([H])[H])([H])[H])([H])[H])([H])([H])[H]

>  <h>  (25) 
<NA>

>  <Training>  (25) 
True

>  <Success>  (25) 
True

>  <enamine_searched>  (25) 
False

>  <enamine_id>  (25) 
nan

$$$$

     RDKit          3D

 68 73  0  0  0  0  0  0  0  0999 V2000
    6.4074    4.3872   21.2488 C   0  0  0  0  0  0  0  0  0  0  0  0
    7.3788    3.9214   22.2179 N   0  0  0  0  0  0  0  0  0  0  0  0
    6.9481    3.2712   23.3285 C   0  0  0  0  0  0  0  0  0  0  0  0
    5.7675    3.0443   23.5606 O   0  0  0  0  0  0  0  0  0  0  0  0
    8.0416    2.8763   24.3135 C   0  0  0  0  0  0  0  0  0  0  0  0
    8.7048    1.6306   23.9862 N   0  0  0  0  0  0  0  0  0  0  0  0
    7.8905    0.4334   23.8755 C   0  0  0  0  0  0  0  0  0  0  0  0
    8.3151   -0.4378   22.6741 C   0  0  2  0  0  0  0  0  0  0  0  0
    7.8978    0.2339   21.3467 C   0  0  0  0  0  0  0  0  0  0  0  0
    8.3866    1.2256   20.8459 O   0  0  0  0  0  0  0  0  0  0  0  0
    6.8477   -0.4730   20.8028 N   0  0  0  0  0  0  0  0  0  0  0  0
    6.1054    0.0683   19.7218 C   0  0  0  0  0  0  0  0  0  0  0  0
    6.4616   -0.2084   18.4274 C   0  0  0  0  0  0  0  0  0  0  0  0
    5.7893    0.2420   17.3387 N   0  0  0  0  0  0  0  0  0  0  0  0
    4.7521    1.0198   17.5483 C   0  0  0  0  0  0  0  0  0  0  0  0
    4.2905    1.4105   18.8391 C   0  0  0  0  0  0  0  0  0  0  0  0
    3.1772    2.2740   19.0265 C   0  0  0  0  0  0  0  0  0  0  0  0
    2.7806    2.6377   20.2870 C   0  0  0  0  0  0  0  0  0  0  0  0
    3.4773    2.1607   21.4190 C   0  0  0  0  0  0  0  0  0  0  0  0
    4.5550    1.3240   21.2616 C   0  0  0  0  0  0  0  0  0  0  0  0
    4.9861    0.9199   19.9680 C   0  0  0  0  0  0  0  0  0  0  0  0
    5.1228    1.0199   22.1346 H   0  0  0  0  0  0  0  0  0  0  0  0
    3.1962    2.4842   22.4179 H   0  0  0  0  0  0  0  0  0  0  0  0
    1.9374    3.3091   20.4215 H   0  0  0  0  0  0  0  0  0  0  0  0
    2.6645    2.6537   18.1467 H   0  0  0  0  0  0  0  0  0  0  0  0
    4.2183    1.3862   16.6703 H   0  0  0  0  0  0  0  0  0  0  0  0
    7.3305   -0.8339   18.2322 H   0  0  0  0  0  0  0  0  0  0  0  0
    6.3659   -1.5500   21.6444 C   0  0  0  0  0  0  0  0  0  0  0  0
    7.5557   -1.8015   22.5761 C   0  0  2  0  0  0  0  0  0  0  0  0
    7.1761   -2.5418   23.8577 C   0  0  0  0  0  0  0  0  0  0  0  0
    8.3562   -3.1512   24.4462 N   0  0  0  0  0  0  0  0  0  0  0  0
    8.2574   -3.6902   25.7375 C   0  0  0  0  0  0  0  0  0  0  0  0
    7.1642   -3.6828   26.6478 C   0  0  0  0  0  0  0  0  0  0  0  0
    7.4617   -4.3099   27.7802 N   0  0  0  0  0  0  0  0  0  0  0  0
    8.7266   -4.7157   27.6287 N   0  0  0  0  0  0  0  0  0  0  0  0
    9.4197   -5.3117   28.7476 C   0  0  0  0  0  0  0  0  0  0  0  0
    9.3681   -4.6331   29.6070 H   0  0  0  0  0  0  0  0  0  0  0  0
    8.9833   -6.2834   28.9960 H   0  0  0  0  0  0  0  0  0  0  0  0
   10.4732   -5.4648   28.4980 H   0  0  0  0  0  0  0  0  0  0  0  0
    9.2524   -4.3560   26.4299 C   0  0  0  0  0  0  0  0  0  0  0  0
   10.2776   -4.5935   26.1648 H   0  0  0  0  0  0  0  0  0  0  0  0
    6.1969   -3.1988   26.5529 H   0  0  0  0  0  0  0  0  0  0  0  0
    9.1978   -2.5863   24.3354 H   0  0  0  0  0  0  0  0  0  0  0  0
    6.4589   -3.3425   23.6268 H   0  0  0  0  0  0  0  0  0  0  0  0
    6.6688   -1.8736   24.5764 H   0  0  0  0  0  0  0  0  0  0  0  0
    8.2315   -2.4718   22.0381 H   0  0  0  0  0  0  0  0  0  0  0  0
    5.4501   -1.2705   22.1925 H   0  0  0  0  0  0  0  0  0  0  0  0
    6.1279   -2.4302   21.0371 H   0  0  0  0  0  0  0  0  0  0  0  0
    9.8220   -0.5458   22.6708 C   0  0  0  0  0  0  0  0  0  0  0  0
   10.4125   -1.4827   21.8255 C   0  0  0  0  0  0  0  0  0  0  0  0
   11.7846   -1.5985   21.7681 C   0  0  0  0  0  0  0  0  0  0  0  0
   12.3418   -2.8490   20.6933 Cl  0  0  0  0  0  0  0  0  0  0  0  0
   12.6157   -0.7490   22.5137 C   0  0  0  0  0  0  0  0  0  0  0  0
   12.0355    0.2481   23.2716 C   0  0  0  0  0  0  0  0  0  0  0  0
   10.6493    0.3707   23.3293 C   0  0  0  0  0  0  0  0  0  0  0  0
   10.0758    1.5709   24.0130 C   0  0  0  0  0  0  0  0  0  0  0  0
   10.7831    2.4340   24.5083 O   0  0  0  0  0  0  0  0  0  0  0  0
   12.6449    0.9689   23.8102 H   0  0  0  0  0  0  0  0  0  0  0  0
   13.6963   -0.8052   22.5122 H   0  0  0  0  0  0  0  0  0  0  0  0
    9.8191   -2.1065   21.1630 H   0  0  0  0  0  0  0  0  0  0  0  0
    7.9622   -0.1521   24.8028 H   0  0  0  0  0  0  0  0  0  0  0  0
    6.8587    0.7722   23.7711 H   0  0  0  0  0  0  0  0  0  0  0  0
    8.8228    3.6402   24.3351 H   0  0  0  0  0  0  0  0  0  0  0  0
    7.5472    2.8303   25.2912 H   0  0  0  0  0  0  0  0  0  0  0  0
    8.3277    3.7439   21.9110 H   0  0  0  0  0  0  0  0  0  0  0  0
    5.9560    3.5524   20.6931 H   0  0  0  0  0  0  0  0  0  0  0  0
    6.8824    5.0880   20.5596 H   0  0  0  0  0  0  0  0  0  0  0  0
    5.6095    4.9123   21.7787 H   0  0  0  0  0  0  0  0  0  0  0  0
  1  2  1  0
  2  3  1  0
  3  4  2  0
  3  5  1  0
  5  6  1  0
  6  7  1  0
  8  7  1  1
  8  9  1  0
  9 10  2  0
  9 11  1  0
 11 12  1  0
 12 13  2  0
 13 14  1  0
 14 15  2  0
 15 16  1  0
 16 17  2  0
 17 18  1  0
 18 19  2  0
 19 20  1  0
 20 21  2  0
 20 22  1  0
 19 23  1  0
 18 24  1  0
 17 25  1  0
 15 26  1  0
 13 27  1  0
 11 28  1  0
 28 29  1  0
 29 30  1  0
 30 31  1  0
 31 32  1  0
 32 33  1  0
 33 34  2  0
 34 35  1  0
 35 36  1  0
 36 37  1  0
 36 38  1  0
 36 39  1  0
 35 40  1  0
 40 41  1  0
 33 42  1  0
 31 43  1  0
 30 44  1  0
 30 45  1  0
 29 46  1  6
 28 47  1  0
 28 48  1  0
  8 49  1  0
 49 50  2  0
 50 51  1  0
 51 52  1  0
 51 53  2  0
 53 54  1  0
 54 55  2  0
 55 56  1  0
 56 57  2  0
 54 58  1  0
 53 59  1  0
 50 60  1  0
  7 61  1  0
  7 62  1  0
  5 63  1  0
  5 64  1  0
  2 65  1  0
  1 66  1  0
  1 67  1  0
  1 68  1  0
 56  6  1  0
 29  8  1  0
 40 32  2  0
 55 49  1  0
 21 12  1  0
 21 16  1  0
M  END
>  <cnnaffinities>  (26) 
[6.36488]

>  <score>  (26) 
6.36488

>  <index>  (26) 
25

>  <Smiles>  (26) 
C(N(C(=O)C(N1C([C@@]2(C(=O)N(c3c(nc(c4c(c(c(c(c34)[H])[H])[H])[H])[H])[H])C([C@@]2(C(N(c2c(nn(C([H])([H])[H])c2[H])[H])[H])([H])[H])[H])([H])[H])c2c(c(Cl)c(c(c2C1=O)[H])[H])[H])([H])[H])([H])[H])[H])([H])([H])[H]

>  <h>  (26) 
<NA>

>  <Training>  (26) 
True

>  <Success>  (26) 
True

>  <enamine_searched>  (26) 
False

>  <enamine_id>  (26) 
nan

$$$$

     RDKit          3D

 43 47  0  0  0  0  0  0  0  0999 V2000
    8.8390    0.6066   20.6654 O   0  0  0  0  0  0  0  0  0  0  0  0
    8.2010   -0.3451   21.0539 C   0  0  0  0  0  0  0  0  0  0  0  0
    8.6317   -1.4612   21.7377 N   0  0  0  0  0  0  0  0  0  0  0  0
    7.5330   -2.0963   22.4612 C   0  0  1  0  0  0  0  0  0  0  0  0
    7.5573   -3.6281   22.6556 C   0  0  0  0  0  0  0  0  0  0  0  0
    7.6954   -3.4501   24.2053 C   0  0  2  0  0  0  0  0  0  0  0  0
    6.6254   -4.0648   25.0552 C   0  0  0  0  0  0  0  0  0  0  0  0
    5.2882   -3.9473   24.6607 C   0  0  0  0  0  0  0  0  0  0  0  0
    4.2786   -4.6818   25.2660 C   0  0  0  0  0  0  0  0  0  0  0  0
    4.5670   -5.4486   26.3885 C   0  0  0  0  0  0  0  0  0  0  0  0
    5.8644   -5.4814   26.8788 C   0  0  0  0  0  0  0  0  0  0  0  0
    6.8871   -4.8248   26.2010 C   0  0  0  0  0  0  0  0  0  0  0  0
    8.5205   -5.1076   26.7614 Cl  0  0  0  0  0  0  0  0  0  0  0  0
    6.1234   -6.0552   27.7611 H   0  0  0  0  0  0  0  0  0  0  0  0
    3.7755   -6.0195   26.8633 H   0  0  0  0  0  0  0  0  0  0  0  0
    3.2647   -4.6190   24.8809 H   0  0  0  0  0  0  0  0  0  0  0  0
    5.0308   -3.2915   23.8312 H   0  0  0  0  0  0  0  0  0  0  0  0
    7.5320   -1.9159   24.0020 C   0  0  0  0  0  0  0  0  0  0  0  0
    8.3233   -1.2690   24.3881 H   0  0  0  0  0  0  0  0  0  0  0  0
    6.5697   -1.5532   24.3703 H   0  0  0  0  0  0  0  0  0  0  0  0
    8.6886   -3.7491   24.5436 H   0  0  0  0  0  0  0  0  0  0  0  0
    8.3894   -4.1179   22.1439 H   0  0  0  0  0  0  0  0  0  0  0  0
    6.6227   -4.1092   22.3524 H   0  0  0  0  0  0  0  0  0  0  0  0
    6.3283   -1.5228   21.7321 C   0  0  0  0  0  0  0  0  0  0  0  0
    5.1627   -1.8305   21.8549 O   0  0  0  0  0  0  0  0  0  0  0  0
    6.8201   -0.5187   20.8937 N   0  0  0  0  0  0  0  0  0  0  0  0
    6.1151    0.0540   19.8077 C   0  0  0  0  0  0  0  0  0  0  0  0
    6.4805   -0.2336   18.5146 C   0  0  0  0  0  0  0  0  0  0  0  0
    5.8208    0.2168   17.4185 N   0  0  0  0  0  0  0  0  0  0  0  0
    4.7895    0.9987   17.6195 C   0  0  0  0  0  0  0  0  0  0  0  0
    4.3347    1.3920   18.9076 C   0  0  0  0  0  0  0  0  0  0  0  0
    3.2234    2.2537   19.0602 C   0  0  0  0  0  0  0  0  0  0  0  0
    2.8139    2.6360   20.3058 C   0  0  0  0  0  0  0  0  0  0  0  0
    3.4979    2.1851   21.4565 C   0  0  0  0  0  0  0  0  0  0  0  0
    4.5783    1.3484   21.3367 C   0  0  0  0  0  0  0  0  0  0  0  0
    5.0120    0.9210   20.0493 C   0  0  0  0  0  0  0  0  0  0  0  0
    5.1060    1.0119   22.2248 H   0  0  0  0  0  0  0  0  0  0  0  0
    3.1680    2.5110   22.4395 H   0  0  0  0  0  0  0  0  0  0  0  0
    1.9601    3.2957   20.4187 H   0  0  0  0  0  0  0  0  0  0  0  0
    2.7263    2.6028   18.1606 H   0  0  0  0  0  0  0  0  0  0  0  0
    4.2513    1.3692   16.7442 H   0  0  0  0  0  0  0  0  0  0  0  0
    7.3305   -0.8812   18.3089 H   0  0  0  0  0  0  0  0  0  0  0  0
    9.5631   -1.4246   22.1210 H   0  0  0  0  0  0  0  0  0  0  0  0
  1  2  2  0
  2  3  1  0
  4  3  1  6
  4  5  1  0
  5  6  1  0
  6  7  1  0
  7  8  2  0
  8  9  1  0
  9 10  2  0
 10 11  1  0
 11 12  2  0
 12 13  1  0
 11 14  1  0
 10 15  1  0
  9 16  1  0
  8 17  1  0
  6 18  1  0
 18 19  1  0
 18 20  1  0
  6 21  1  1
  5 22  1  0
  5 23  1  0
  4 24  1  0
 24 25  2  0
 24 26  1  0
 26 27  1  0
 27 28  2  0
 28 29  1  0
 29 30  2  0
 30 31  1  0
 31 32  2  0
 32 33  1  0
 33 34  2  0
 34 35  1  0
 35 36  2  0
 35 37  1  0
 34 38  1  0
 33 39  1  0
 32 40  1  0
 30 41  1  0
 28 42  1  0
  3 43  1  0
 26  2  1  0
 36 27  1  0
 18  4  1  0
 36 31  1  0
 12  7  1  0
M  END
>  <cnnaffinities>  (27) 
[5.86229]

>  <score>  (27) 
5.86229

>  <index>  (27) 
26

>  <Smiles>  (27) 
O=C1N([C@]2(C([C@](c3c(c(c(c(c3Cl)[H])[H])[H])[H])(C2([H])[H])[H])([H])[H])C(=O)N1c1c(nc(c2c(c(c(c(c12)[H])[H])[H])[H])[H])[H])[H]

>  <h>  (27) 
<NA>

>  <Training>  (27) 
True

>  <Success>  (27) 
True

>  <enamine_searched>  (27) 
False

>  <enamine_id>  (27) 
nan

$$$$

     RDKit          3D

 46 48  0  0  0  0  0  0  0  0999 V2000
    5.0753   -4.5804   23.2289 C   0  0  0  0  0  0  0  0  0  0  0  0
    4.9701   -3.4981   24.2921 C   0  0  0  0  0  0  0  0  0  0  0  0
    4.8843   -2.0868   23.6972 C   0  0  1  0  0  0  0  0  0  0  0  0
    4.4647   -1.0057   24.7113 C   0  0  0  0  0  0  0  0  0  0  0  0
    5.5786   -0.3583   25.5446 C   0  0  1  0  0  0  0  0  0  0  0  0
    5.8700   -1.0642   26.8645 C   0  0  0  0  0  0  0  0  0  0  0  0
    6.6136   -0.2801   27.6756 F   0  0  0  0  0  0  0  0  0  0  0  0
    4.7515   -1.3630   27.5511 F   0  0  0  0  0  0  0  0  0  0  0  0
    6.5581   -2.2156   26.7221 F   0  0  0  0  0  0  0  0  0  0  0  0
    6.8494   -0.1120   24.7327 C   0  0  0  0  0  0  0  0  0  0  0  0
    7.2253   -1.2863   23.8422 C   0  0  0  0  0  0  0  0  0  0  0  0
    6.1058   -1.6622   22.9950 N   0  0  0  0  0  0  0  0  0  0  0  0
    6.1267   -1.6276   21.6091 C   0  0  0  0  0  0  0  0  0  0  0  0
    5.4997   -2.4223   20.9329 O   0  0  0  0  0  0  0  0  0  0  0  0
    6.9104   -0.4954   20.9106 C   0  0  0  0  0  0  0  0  0  0  0  0
    6.1182    0.0915   19.7622 C   0  0  0  0  0  0  0  0  0  0  0  0
    6.4223   -0.2152   18.4590 C   0  0  0  0  0  0  0  0  0  0  0  0
    5.7569    0.2360   17.3618 N   0  0  0  0  0  0  0  0  0  0  0  0
    4.7352    1.0317   17.5745 C   0  0  0  0  0  0  0  0  0  0  0  0
    4.2869    1.4224   18.8674 C   0  0  0  0  0  0  0  0  0  0  0  0
    3.1641    2.2717   19.0445 C   0  0  0  0  0  0  0  0  0  0  0  0
    2.7473    2.6241   20.3022 C   0  0  0  0  0  0  0  0  0  0  0  0
    3.4406    2.1384   21.4330 C   0  0  0  0  0  0  0  0  0  0  0  0
    4.5335    1.3173   21.2852 C   0  0  0  0  0  0  0  0  0  0  0  0
    4.9916    0.9377   19.9954 C   0  0  0  0  0  0  0  0  0  0  0  0
    5.0553    0.9627   22.1682 H   0  0  0  0  0  0  0  0  0  0  0  0
    3.1065    2.4238   22.4257 H   0  0  0  0  0  0  0  0  0  0  0  0
    1.8892    3.2770   20.4372 H   0  0  0  0  0  0  0  0  0  0  0  0
    2.6429    2.6429   18.1650 H   0  0  0  0  0  0  0  0  0  0  0  0
    4.1992    1.3999   16.6986 H   0  0  0  0  0  0  0  0  0  0  0  0
    7.2659   -0.8685   18.2436 H   0  0  0  0  0  0  0  0  0  0  0  0
    7.8431   -0.9204   20.5187 H   0  0  0  0  0  0  0  0  0  0  0  0
    7.1881    0.2957   21.6208 H   0  0  0  0  0  0  0  0  0  0  0  0
    7.5309   -2.1343   24.4643 H   0  0  0  0  0  0  0  0  0  0  0  0
    8.0887   -1.0437   23.2180 H   0  0  0  0  0  0  0  0  0  0  0  0
    6.6685    0.7496   24.0847 H   0  0  0  0  0  0  0  0  0  0  0  0
    7.6812    0.1587   25.3865 H   0  0  0  0  0  0  0  0  0  0  0  0
    5.2068    0.6116   25.8979 H   0  0  0  0  0  0  0  0  0  0  0  0
    3.6795   -1.3898   25.3688 H   0  0  0  0  0  0  0  0  0  0  0  0
    3.9980   -0.1942   24.1397 H   0  0  0  0  0  0  0  0  0  0  0  0
    4.0974   -2.1251   22.9379 H   0  0  0  0  0  0  0  0  0  0  0  0
    5.8037   -3.5600   24.9943 H   0  0  0  0  0  0  0  0  0  0  0  0
    4.0642   -3.6795   24.8885 H   0  0  0  0  0  0  0  0  0  0  0  0
    5.0267   -5.5769   23.6689 H   0  0  0  0  0  0  0  0  0  0  0  0
    4.2488   -4.5281   22.5153 H   0  0  0  0  0  0  0  0  0  0  0  0
    6.0042   -4.4814   22.6626 H   0  0  0  0  0  0  0  0  0  0  0  0
  1  2  1  0
  2  3  1  0
  3  4  1  0
  4  5  1  0
  5  6  1  0
  6  7  1  0
  6  8  1  0
  6  9  1  0
  5 10  1  0
 10 11  1  0
 11 12  1  0
 12 13  1  0
 13 14  2  0
 13 15  1  0
 15 16  1  0
 16 17  2  0
 17 18  1  0
 18 19  2  0
 19 20  1  0
 20 21  2  0
 21 22  1  0
 22 23  2  0
 23 24  1  0
 24 25  2  0
 24 26  1  0
 23 27  1  0
 22 28  1  0
 21 29  1  0
 19 30  1  0
 17 31  1  0
 15 32  1  0
 15 33  1  0
 11 34  1  0
 11 35  1  0
 10 36  1  0
 10 37  1  0
  5 38  1  1
  4 39  1  0
  4 40  1  0
  3 41  1  6
  2 42  1  0
  2 43  1  0
  1 44  1  0
  1 45  1  0
  1 46  1  0
 12  3  1  0
 25 16  1  0
 25 20  1  0
M  END
>  <cnnaffinities>  (28) 
[5.63217, 5.63195, 5.63196, 5.63218, 5.63218, 5.15736, 5.15696, 5.38598, 5.38551, 5.38537, 5.38533, 5.38505]

>  <score>  (28) 
5.63217

>  <index>  (28) 
27

>  <Smiles>  (28) 
C(C([C@]1(C([C@@](C(F)(F)F)(C(C(N1C(=O)C(c1c(nc(c2c(c(c(c(c12)[H])[H])[H])[H])[H])[H])([H])[H])([H])[H])([H])[H])[H])([H])[H])[H])([H])[H])([H])([H])[H]

>  <h>  (28) 
<NA>

>  <Training>  (28) 
True

>  <Success>  (28) 
True

>  <enamine_searched>  (28) 
False

>  <enamine_id>  (28) 
nan

$$$$

     RDKit          3D

 70 75  0  0  0  0  0  0  0  0999 V2000
   12.0714    4.8781   24.5609 C   0  0  0  0  0  0  0  0  0  0  0  0
   11.0147    4.0609   25.1898 N   0  0  0  0  0  4  0  0  0  0  0  0
   10.9095    2.6777   24.6364 C   0  0  0  0  0  0  0  0  0  0  0  0
    9.9457    2.5047   23.4561 C   0  0  0  0  0  0  0  0  0  0  0  0
    9.9120    1.1041   23.0774 N   0  0  0  0  0  0  0  0  0  0  0  0
    8.8390    0.2249   23.4985 C   0  0  0  0  0  0  0  0  0  0  0  0
    8.4582   -0.7841   22.3806 C   0  0  2  0  0  0  0  0  0  0  0  0
    7.9113   -0.0337   21.1487 C   0  0  0  0  0  0  0  0  0  0  0  0
    8.4443    0.8748   20.5439 O   0  0  0  0  0  0  0  0  0  0  0  0
    6.6814   -0.5564   20.8259 N   0  0  0  0  0  0  0  0  0  0  0  0
    5.9616   -0.0047   19.7343 C   0  0  0  0  0  0  0  0  0  0  0  0
    6.3613   -0.2533   18.4449 C   0  0  0  0  0  0  0  0  0  0  0  0
    5.7283    0.2221   17.3418 N   0  0  0  0  0  0  0  0  0  0  0  0
    4.6955    1.0076   17.5308 C   0  0  0  0  0  0  0  0  0  0  0  0
    4.2021    1.3821   18.8137 C   0  0  0  0  0  0  0  0  0  0  0  0
    3.1074    2.2717   18.9673 C   0  0  0  0  0  0  0  0  0  0  0  0
    2.6973    2.6531   20.2149 C   0  0  0  0  0  0  0  0  0  0  0  0
    3.3608    2.1692   21.3637 C   0  0  0  0  0  0  0  0  0  0  0  0
    4.4163    1.2990   21.2431 C   0  0  0  0  0  0  0  0  0  0  0  0
    4.8555    0.8761   19.9581 C   0  0  0  0  0  0  0  0  0  0  0  0
    4.9376    0.9461   22.1280 H   0  0  0  0  0  0  0  0  0  0  0  0
    3.0401    2.4976   22.3474 H   0  0  0  0  0  0  0  0  0  0  0  0
    1.8668    3.3439   20.3313 H   0  0  0  0  0  0  0  0  0  0  0  0
    2.6241    2.6539   18.0732 H   0  0  0  0  0  0  0  0  0  0  0  0
    4.1925    1.3990   16.6458 H   0  0  0  0  0  0  0  0  0  0  0  0
    7.2414   -0.8639   18.2526 H   0  0  0  0  0  0  0  0  0  0  0  0
    6.3033   -1.7237   21.6009 C   0  0  0  0  0  0  0  0  0  0  0  0
    7.3260   -1.7668   22.7641 C   0  0  2  0  0  0  0  0  0  0  0  0
    6.6428   -1.4805   24.1111 C   0  0  0  0  0  0  0  0  0  0  0  0
    5.6175   -2.4115   24.3761 O   0  0  0  0  0  0  0  0  0  0  0  0
    6.0573   -3.5732   25.0408 C   0  0  0  0  0  0  0  0  0  0  0  0
    4.8627   -4.4897   25.1547 C   0  0  0  0  0  0  0  0  0  0  0  0
    4.5437   -4.9968   23.9133 F   0  0  0  0  0  0  0  0  0  0  0  0
    3.7087   -3.8830   25.9514 C   0  0  0  0  0  0  0  0  0  0  0  0
    3.9960   -4.7448   27.0642 O   0  0  0  0  0  0  0  0  0  0  0  0
    4.9129   -5.5194   26.2798 C   0  0  0  0  0  0  0  0  0  0  0  0
    5.8750   -5.6505   26.7877 H   0  0  0  0  0  0  0  0  0  0  0  0
    4.4915   -6.4890   25.9857 H   0  0  0  0  0  0  0  0  0  0  0  0
    3.8223   -2.8247   26.2067 H   0  0  0  0  0  0  0  0  0  0  0  0
    2.7297   -4.0804   25.4985 H   0  0  0  0  0  0  0  0  0  0  0  0
    6.4294   -3.3224   26.0489 H   0  0  0  0  0  0  0  0  0  0  0  0
    6.8718   -4.0810   24.4982 H   0  0  0  0  0  0  0  0  0  0  0  0
    6.1666   -0.4940   24.0866 H   0  0  0  0  0  0  0  0  0  0  0  0
    7.3679   -1.4894   24.9390 H   0  0  0  0  0  0  0  0  0  0  0  0
    7.7660   -2.7672   22.8698 H   0  0  0  0  0  0  0  0  0  0  0  0
    5.2780   -1.6315   21.9748 H   0  0  0  0  0  0  0  0  0  0  0  0
    6.3432   -2.6335   20.9877 H   0  0  0  0  0  0  0  0  0  0  0  0
    9.7225   -1.4959   21.9457 C   0  0  0  0  0  0  0  0  0  0  0  0
    9.6724   -2.7254   21.2711 C   0  0  0  0  0  0  0  0  0  0  0  0
   10.8085   -3.1878   20.6334 C   0  0  0  0  0  0  0  0  0  0  0  0
   10.6813   -4.2537   19.2063 Cl  0  0  0  0  0  0  0  0  0  0  0  0
   12.0383   -2.5660   20.8274 C   0  0  0  0  0  0  0  0  0  0  0  0
   12.0832   -1.3518   21.4770 C   0  0  0  0  0  0  0  0  0  0  0  0
   10.9228   -0.7896   21.9775 C   0  0  0  0  0  0  0  0  0  0  0  0
   11.0086    0.6247   22.4415 C   0  0  0  0  0  0  0  0  0  0  0  0
   11.9989    1.3153   22.2160 O   0  0  0  0  0  0  0  0  0  0  0  0
   12.9723   -0.7341   21.5287 H   0  0  0  0  0  0  0  0  0  0  0  0
   12.9137   -3.0222   20.3867 H   0  0  0  0  0  0  0  0  0  0  0  0
    8.7566   -3.2968   21.1854 H   0  0  0  0  0  0  0  0  0  0  0  0
    7.9841    0.8507   23.7603 H   0  0  0  0  0  0  0  0  0  0  0  0
    9.1403   -0.3470   24.3910 H   0  0  0  0  0  0  0  0  0  0  0  0
    8.9158    2.8066   23.6858 H   0  0  0  0  0  0  0  0  0  0  0  0
   10.2835    3.0712   22.5791 H   0  0  0  0  0  0  0  0  0  0  0  0
   10.5982    2.0164   25.4384 H   0  0  0  0  0  0  0  0  0  0  0  0
   11.8983    2.3623   24.3163 H   0  0  0  0  0  0  0  0  0  0  0  0
   10.0805    4.5145   25.0446 H   0  0  0  0  0  0  0  0  0  0  0  0
   11.1950    4.0114   26.2117 H   0  0  0  0  0  0  0  0  0  0  0  0
   11.7895    5.1784   23.5514 H   0  0  0  0  0  0  0  0  0  0  0  0
   12.2533    5.7676   25.1574 H   0  0  0  0  0  0  0  0  0  0  0  0
   13.0000    4.3065   24.4884 H   0  0  0  0  0  0  0  0  0  0  0  0
  1  2  1  0
  2  3  1  0
  3  4  1  0
  4  5  1  0
  5  6  1  0
  7  6  1  1
  7  8  1  0
  8  9  2  0
  8 10  1  0
 10 11  1  0
 11 12  2  0
 12 13  1  0
 13 14  2  0
 14 15  1  0
 15 16  2  0
 16 17  1  0
 17 18  2  0
 18 19  1  0
 19 20  2  0
 19 21  1  0
 18 22  1  0
 17 23  1  0
 16 24  1  0
 14 25  1  0
 12 26  1  0
 10 27  1  0
 27 28  1  0
 28 29  1  0
 29 30  1  0
 30 31  1  0
 31 32  1  0
 32 33  1  0
 32 34  1  0
 34 35  1  0
 35 36  1  0
 36 37  1  0
 36 38  1  0
 34 39  1  0
 34 40  1  0
 31 41  1  0
 31 42  1  0
 29 43  1  0
 29 44  1  0
 28 45  1  1
 27 46  1  0
 27 47  1  0
  7 48  1  0
 48 49  2  0
 49 50  1  0
 50 51  1  0
 50 52  2  0
 52 53  1  0
 53 54  2  0
 54 55  1  0
 55 56  2  0
 53 57  1  0
 52 58  1  0
 49 59  1  0
  6 60  1  0
  6 61  1  0
  4 62  1  0
  4 63  1  0
  3 64  1  0
  3 65  1  0
  2 66  1  0
  2 67  1  0
  1 68  1  0
  1 69  1  0
  1 70  1  0
 55  5  1  0
 28  7  1  0
 36 32  1  0
 54 48  1  0
 20 11  1  0
 20 15  1  0
M  CHG  1   2   1
M  END
>  <cnnaffinities>  (29) 
[6.08412]

>  <score>  (29) 
6.08412

>  <index>  (29) 
28

>  <Smiles>  (29) 
C([N+](C(C(N1C([C@@]2(C(=O)N(c3c(nc(c4c(c(c(c(c34)[H])[H])[H])[H])[H])[H])C([C@@]2(C(OC(C2(F)C(OC2([H])[H])([H])[H])([H])[H])([H])[H])[H])([H])[H])c2c(c(Cl)c(c(c2C1=O)[H])[H])[H])([H])[H])([H])[H])([H])[H])([H])[H])([H])([H])[H]

>  <h>  (29) 
<NA>

>  <Training>  (29) 
True

>  <Success>  (29) 
True

>  <enamine_searched>  (29) 
False

>  <enamine_id>  (29) 
nan

$$$$

     RDKit          3D

 67 72  0  0  0  0  0  0  0  0999 V2000
    6.4000    4.3913   21.1333 C   0  0  0  0  0  0  0  0  0  0  0  0
    6.8357    3.4166   22.1258 N   0  0  0  0  0  4  0  0  0  0  0  0
    7.9137    3.9471   22.9622 C   0  0  0  0  0  0  0  0  0  0  0  0
    8.2694    3.0736   24.1521 C   0  0  0  0  0  0  0  0  0  0  0  0
    8.8041    1.7585   23.8367 N   0  0  0  0  0  0  0  0  0  0  0  0
    8.0152    0.5276   23.7957 C   0  0  0  0  0  0  0  0  0  0  0  0
    8.3553   -0.3516   22.5562 C   0  0  2  0  0  0  0  0  0  0  0  0
    7.7948    0.3254   21.2986 C   0  0  0  0  0  0  0  0  0  0  0  0
    8.0710    1.4474   20.8858 O   0  0  0  0  0  0  0  0  0  0  0  0
    6.8157   -0.4570   20.7555 N   0  0  0  0  0  0  0  0  0  0  0  0
    6.0604    0.0690   19.6802 C   0  0  0  0  0  0  0  0  0  0  0  0
    6.4214   -0.2039   18.3865 C   0  0  0  0  0  0  0  0  0  0  0  0
    5.7476    0.2578   17.3080 N   0  0  0  0  0  0  0  0  0  0  0  0
    4.7262    1.0523   17.5362 C   0  0  0  0  0  0  0  0  0  0  0  0
    4.2892    1.4522   18.8338 C   0  0  0  0  0  0  0  0  0  0  0  0
    3.1961    2.3379   19.0351 C   0  0  0  0  0  0  0  0  0  0  0  0
    2.8124    2.7073   20.2972 C   0  0  0  0  0  0  0  0  0  0  0  0
    3.5108    2.2228   21.4225 C   0  0  0  0  0  0  0  0  0  0  0  0
    4.5727    1.3641   21.2521 C   0  0  0  0  0  0  0  0  0  0  0  0
    4.9829    0.9527   19.9510 C   0  0  0  0  0  0  0  0  0  0  0  0
    5.1021    0.9969   22.1262 H   0  0  0  0  0  0  0  0  0  0  0  0
    3.2254    2.5470   22.4200 H   0  0  0  0  0  0  0  0  0  0  0  0
    1.9831    3.3938   20.4363 H   0  0  0  0  0  0  0  0  0  0  0  0
    2.6866    2.7247   18.1589 H   0  0  0  0  0  0  0  0  0  0  0  0
    4.1871    1.4279   16.6669 H   0  0  0  0  0  0  0  0  0  0  0  0
    7.2905   -0.8293   18.1893 H   0  0  0  0  0  0  0  0  0  0  0  0
    6.3595   -1.4999   21.6579 C   0  0  0  0  0  0  0  0  0  0  0  0
    7.6311   -1.7222   22.4709 C   0  0  2  0  0  0  0  0  0  0  0  0
    7.4864   -2.5394   23.7459 C   0  0  0  0  0  0  0  0  0  0  0  0
    6.9337   -3.8552   23.4735 N   0  0  0  0  0  0  0  0  0  0  0  0
    5.6230   -4.1212   23.5735 C   0  0  0  0  0  0  0  0  0  0  0  0
    4.8358   -3.1795   24.1320 N   0  0  0  0  0  0  0  0  0  0  0  0
    3.6076   -3.5975   24.3977 C   0  0  0  0  0  0  0  0  0  0  0  0
    3.0893   -4.7877   24.0913 N   0  0  0  0  0  0  0  0  0  0  0  0
    3.9335   -5.5842   23.4274 C   0  0  0  0  0  0  0  0  0  0  0  0
    5.1914   -5.3201   23.1178 N   0  0  0  0  0  0  0  0  0  0  0  0
    3.5510   -6.5589   23.1196 H   0  0  0  0  0  0  0  0  0  0  0  0
    2.9728   -2.8883   24.9282 H   0  0  0  0  0  0  0  0  0  0  0  0
    7.5090   -4.5738   23.0615 H   0  0  0  0  0  0  0  0  0  0  0  0
    6.8154   -2.0379   24.4473 H   0  0  0  0  0  0  0  0  0  0  0  0
    8.4693   -2.6634   24.2123 H   0  0  0  0  0  0  0  0  0  0  0  0
    8.2565   -2.3080   21.7999 H   0  0  0  0  0  0  0  0  0  0  0  0
    5.5075   -1.1857   22.2803 H   0  0  0  0  0  0  0  0  0  0  0  0
    6.0560   -2.3830   21.0927 H   0  0  0  0  0  0  0  0  0  0  0  0
    9.8563   -0.4912   22.4880 C   0  0  0  0  0  0  0  0  0  0  0  0
   10.4618   -1.5317   21.7846 C   0  0  0  0  0  0  0  0  0  0  0  0
   11.8315   -1.6245   21.7103 C   0  0  0  0  0  0  0  0  0  0  0  0
   12.3721   -2.8969   20.6569 Cl  0  0  0  0  0  0  0  0  0  0  0  0
   12.6615   -0.7195   22.3829 C   0  0  0  0  0  0  0  0  0  0  0  0
   12.0686    0.3273   23.0507 C   0  0  0  0  0  0  0  0  0  0  0  0
   10.6896    0.4697   23.0598 C   0  0  0  0  0  0  0  0  0  0  0  0
   10.1562    1.7254   23.6490 C   0  0  0  0  0  0  0  0  0  0  0  0
   10.8972    2.6632   23.9316 O   0  0  0  0  0  0  0  0  0  0  0  0
   12.6633    1.0797   23.5558 H   0  0  0  0  0  0  0  0  0  0  0  0
   13.7377   -0.7551   22.4011 H   0  0  0  0  0  0  0  0  0  0  0  0
    9.9043   -2.2942   21.2556 H   0  0  0  0  0  0  0  0  0  0  0  0
    6.9525    0.7823   23.7818 H   0  0  0  0  0  0  0  0  0  0  0  0
    8.2132   -0.0697   24.6974 H   0  0  0  0  0  0  0  0  0  0  0  0
    9.1249    3.5974   24.5712 H   0  0  0  0  0  0  0  0  0  0  0  0
    7.4524    2.9873   24.8820 H   0  0  0  0  0  0  0  0  0  0  0  0
    8.8134    4.1012   22.3515 H   0  0  0  0  0  0  0  0  0  0  0  0
    7.6179    4.9236   23.3599 H   0  0  0  0  0  0  0  0  0  0  0  0
    7.1941    2.5826   21.6263 H   0  0  0  0  0  0  0  0  0  0  0  0
    6.0338    3.1258   22.7062 H   0  0  0  0  0  0  0  0  0  0  0  0
    7.1852    4.5017   20.3840 H   0  0  0  0  0  0  0  0  0  0  0  0
    6.2340    5.3707   21.5882 H   0  0  0  0  0  0  0  0  0  0  0  0
    5.4807    4.0582   20.6537 H   0  0  0  0  0  0  0  0  0  0  0  0
  1  2  1  0
  2  3  1  0
  3  4  1  0
  4  5  1  0
  5  6  1  0
  7  6  1  1
  7  8  1  0
  8  9  2  0
  8 10  1  0
 10 11  1  0
 11 12  2  0
 12 13  1  0
 13 14  2  0
 14 15  1  0
 15 16  2  0
 16 17  1  0
 17 18  2  0
 18 19  1  0
 19 20  2  0
 19 21  1  0
 18 22  1  0
 17 23  1  0
 16 24  1  0
 14 25  1  0
 12 26  1  0
 10 27  1  0
 27 28  1  0
 28 29  1  0
 29 30  1  0
 30 31  1  0
 31 32  2  0
 32 33  1  0
 33 34  2  0
 34 35  1  0
 35 36  2  0
 35 37  1  0
 33 38  1  0
 30 39  1  0
 29 40  1  0
 29 41  1  0
 28 42  1  6
 27 43  1  0
 27 44  1  0
  7 45  1  0
 45 46  2  0
 46 47  1  0
 47 48  1  0
 47 49  2  0
 49 50  1  0
 50 51  2  0
 51 52  1  0
 52 53  2  0
 50 54  1  0
 49 55  1  0
 46 56  1  0
  6 57  1  0
  6 58  1  0
  4 59  1  0
  4 60  1  0
  3 61  1  0
  3 62  1  0
  2 63  1  0
  2 64  1  0
  1 65  1  0
  1 66  1  0
  1 67  1  0
 52  5  1  0
 28  7  1  0
 36 31  1  0
 51 45  1  0
 20 11  1  0
 20 15  1  0
M  CHG  1   2   1
M  END
>  <cnnaffinities>  (30) 
[6.32177]

>  <score>  (30) 
6.32177

>  <index>  (30) 
29

>  <Smiles>  (30) 
C([N+](C(C(N1C([C@@]2(C(=O)N(c3c(nc(c4c(c(c(c(c34)[H])[H])[H])[H])[H])[H])C([C@@]2(C(N(c2nc(nc(n2)[H])[H])[H])([H])[H])[H])([H])[H])c2c(c(Cl)c(c(c2C1=O)[H])[H])[H])([H])[H])([H])[H])([H])[H])([H])[H])([H])([H])[H]

>  <h>  (30) 
<NA>

>  <Training>  (30) 
True

>  <Success>  (30) 
True

>  <enamine_searched>  (30) 
False

>  <enamine_id>  (30) 
nan

$$$$

     RDKit          3D

 66 71  0  0  0  0  0  0  0  0999 V2000
    6.5499    4.3909   21.2283 C   0  0  0  0  0  0  0  0  0  0  0  0
    7.5266    3.9624   22.2098 N   0  0  0  0  0  0  0  0  0  0  0  0
    7.0819    3.3174   23.3178 C   0  0  0  0  0  0  0  0  0  0  0  0
    5.8984    3.0788   23.5186 O   0  0  0  0  0  0  0  0  0  0  0  0
    8.1516    2.9224   24.3201 C   0  0  0  0  0  0  0  0  0  0  0  0
    8.8153    1.6952   23.9444 N   0  0  0  0  0  0  0  0  0  0  0  0
    8.0339    0.4735   23.8436 C   0  0  0  0  0  0  0  0  0  0  0  0
    8.4167   -0.3490   22.5949 C   0  0  2  0  0  0  0  0  0  0  0  0
    7.9465    0.3111   21.2760 C   0  0  0  0  0  0  0  0  0  0  0  0
    8.4360    1.2718   20.7162 O   0  0  0  0  0  0  0  0  0  0  0  0
    6.8715   -0.4017   20.7946 N   0  0  0  0  0  0  0  0  0  0  0  0
    6.1040    0.1007   19.7220 C   0  0  0  0  0  0  0  0  0  0  0  0
    6.4492   -0.2053   18.4318 C   0  0  0  0  0  0  0  0  0  0  0  0
    5.7698    0.2305   17.3456 N   0  0  0  0  0  0  0  0  0  0  0  0
    4.7383    1.0152   17.5572 C   0  0  0  0  0  0  0  0  0  0  0  0
    4.2819    1.4151   18.8477 C   0  0  0  0  0  0  0  0  0  0  0  0
    3.1713    2.2796   19.0341 C   0  0  0  0  0  0  0  0  0  0  0  0
    2.7743    2.6440   20.2935 C   0  0  0  0  0  0  0  0  0  0  0  0
    3.4702    2.1704   21.4287 C   0  0  0  0  0  0  0  0  0  0  0  0
    4.5501    1.3354   21.2750 C   0  0  0  0  0  0  0  0  0  0  0  0
    4.9798    0.9372   19.9771 C   0  0  0  0  0  0  0  0  0  0  0  0
    5.1111    1.0207   22.1501 H   0  0  0  0  0  0  0  0  0  0  0  0
    3.1804    2.4929   22.4246 H   0  0  0  0  0  0  0  0  0  0  0  0
    1.9278    3.3114   20.4264 H   0  0  0  0  0  0  0  0  0  0  0  0
    2.6630    2.6576   18.1525 H   0  0  0  0  0  0  0  0  0  0  0  0
    4.2055    1.3791   16.6791 H   0  0  0  0  0  0  0  0  0  0  0  0
    7.3146   -0.8383   18.2457 H   0  0  0  0  0  0  0  0  0  0  0  0
    6.4544   -1.4971   21.6408 C   0  0  0  0  0  0  0  0  0  0  0  0
    7.6938   -1.7232   22.5124 C   0  0  2  0  0  0  0  0  0  0  0  0
    7.4329   -2.5317   23.7983 C   0  0  0  0  0  0  0  0  0  0  0  0
    6.7581   -3.8317   23.4147 C   0  0  0  0  0  0  0  0  0  0  0  0
    7.4685   -4.7987   22.6893 C   0  0  0  0  0  0  0  0  0  0  0  0
    6.8149   -5.9016   22.1367 C   0  0  0  0  0  0  0  0  0  0  0  0
    5.4382   -6.0454   22.2850 C   0  0  0  0  0  0  0  0  0  0  0  0
    4.7215   -5.0752   22.9794 C   0  0  0  0  0  0  0  0  0  0  0  0
    5.3818   -4.0056   23.5872 C   0  0  0  0  0  0  0  0  0  0  0  0
    4.8050   -3.3063   24.2057 H   0  0  0  0  0  0  0  0  0  0  0  0
    3.6406   -5.1424   22.9968 H   0  0  0  0  0  0  0  0  0  0  0  0
    4.9272   -6.9269   21.9101 H   0  0  0  0  0  0  0  0  0  0  0  0
    7.3906   -6.6194   21.5611 H   0  0  0  0  0  0  0  0  0  0  0  0
    8.5397   -4.6701   22.5232 H   0  0  0  0  0  0  0  0  0  0  0  0
    8.3918   -2.7138   24.3084 H   0  0  0  0  0  0  0  0  0  0  0  0
    6.7786   -1.9607   24.4752 H   0  0  0  0  0  0  0  0  0  0  0  0
    8.3409   -2.3416   21.8883 H   0  0  0  0  0  0  0  0  0  0  0  0
    6.2010   -2.3825   21.0450 H   0  0  0  0  0  0  0  0  0  0  0  0
    5.5709   -1.2453   22.2460 H   0  0  0  0  0  0  0  0  0  0  0  0
    9.9174   -0.4375   22.5583 C   0  0  0  0  0  0  0  0  0  0  0  0
   10.5009   -1.4022   21.7472 C   0  0  0  0  0  0  0  0  0  0  0  0
   11.8660   -1.5076   21.6583 C   0  0  0  0  0  0  0  0  0  0  0  0
   12.3570   -2.8326   20.6405 Cl  0  0  0  0  0  0  0  0  0  0  0  0
   12.7035   -0.6128   22.3378 C   0  0  0  0  0  0  0  0  0  0  0  0
   12.1276    0.3906   23.0847 C   0  0  0  0  0  0  0  0  0  0  0  0
   10.7473    0.4933   23.1846 C   0  0  0  0  0  0  0  0  0  0  0  0
   10.1812    1.6712   23.9000 C   0  0  0  0  0  0  0  0  0  0  0  0
   10.8889    2.5507   24.3716 O   0  0  0  0  0  0  0  0  0  0  0  0
   12.7416    1.1257   23.5912 H   0  0  0  0  0  0  0  0  0  0  0  0
   13.7823   -0.6177   22.3125 H   0  0  0  0  0  0  0  0  0  0  0  0
    9.9210   -2.0817   21.1353 H   0  0  0  0  0  0  0  0  0  0  0  0
    6.9802    0.7582   23.8174 H   0  0  0  0  0  0  0  0  0  0  0  0
    8.2069   -0.1513   24.7330 H   0  0  0  0  0  0  0  0  0  0  0  0
    7.6477    2.8155   25.2869 H   0  0  0  0  0  0  0  0  0  0  0  0
    8.9334    3.6865   24.3913 H   0  0  0  0  0  0  0  0  0  0  0  0
    8.4701    3.7710   21.8951 H   0  0  0  0  0  0  0  0  0  0  0  0
    7.0419    5.0246   20.4878 H   0  0  0  0  0  0  0  0  0  0  0  0
    5.7752    4.9776   21.7310 H   0  0  0  0  0  0  0  0  0  0  0  0
    6.0658    3.5282   20.7444 H   0  0  0  0  0  0  0  0  0  0  0  0
  1  2  1  0
  2  3  1  0
  3  4  2  0
  3  5  1  0
  5  6  1  0
  6  7  1  0
  8  7  1  1
  8  9  1  0
  9 10  2  0
  9 11  1  0
 11 12  1  0
 12 13  2  0
 13 14  1  0
 14 15  2  0
 15 16  1  0
 16 17  2  0
 17 18  1  0
 18 19  2  0
 19 20  1  0
 20 21  2  0
 20 22  1  0
 19 23  1  0
 18 24  1  0
 17 25  1  0
 15 26  1  0
 13 27  1  0
 11 28  1  0
 28 29  1  0
 29 30  1  0
 30 31  1  0
 31 32  2  0
 32 33  1  0
 33 34  2  0
 34 35  1  0
 35 36  2  0
 36 37  1  0
 35 38  1  0
 34 39  1  0
 33 40  1  0
 32 41  1  0
 30 42  1  0
 30 43  1  0
 29 44  1  6
 28 45  1  0
 28 46  1  0
  8 47  1  0
 47 48  2  0
 48 49  1  0
 49 50  1  0
 49 51  2  0
 51 52  1  0
 52 53  2  0
 53 54  1  0
 54 55  2  0
 52 56  1  0
 51 57  1  0
 48 58  1  0
  7 59  1  0
  7 60  1  0
  5 61  1  0
  5 62  1  0
  2 63  1  0
  1 64  1  0
  1 65  1  0
  1 66  1  0
 54  6  1  0
 29  8  1  0
 36 31  1  0
 53 47  1  0
 21 12  1  0
 21 16  1  0
M  END
>  <cnnaffinities>  (31) 
[6.59723]

>  <score>  (31) 
6.59723

>  <index>  (31) 
30

>  <Smiles>  (31) 
C(N(C(=O)C(N1C([C@@]2(C(=O)N(c3c(nc(c4c(c(c(c(c34)[H])[H])[H])[H])[H])[H])C([C@@]2(C(c2c(c(c(c(c2[H])[H])[H])[H])[H])([H])[H])[H])([H])[H])c2c(c(Cl)c(c(c2C1=O)[H])[H])[H])([H])[H])([H])[H])[H])([H])([H])[H]

>  <h>  (31) 
<NA>

>  <Training>  (31) 
True

>  <Success>  (31) 
True

>  <enamine_searched>  (31) 
False

>  <enamine_id>  (31) 
nan

$$$$

     RDKit          3D

 64 70  0  0  0  0  0  0  0  0999 V2000
    9.3352   -0.7847   25.4891 O   0  0  0  0  0  0  0  0  0  0  0  0
    9.2221   -0.7974   25.4999 C   0  0  0  0  0  0  0  0  0  0  0  0
   10.2472   -0.3167   24.5644 C   0  0  0  0  0  0  0  0  0  0  0  0
   11.5564    0.2269   24.7740 C   0  0  0  0  0  0  0  0  0  0  0  0
   12.4364    0.3609   23.7487 C   0  0  0  0  0  0  0  0  0  0  0  0
   12.0054    0.0909   22.4639 C   0  0  0  0  0  0  0  0  0  0  0  0
   13.2658    0.1444   21.3026 Cl  0  0  0  0  0  0  0  0  0  0  0  0
   10.6713   -0.1852   22.2020 C   0  0  0  0  0  0  0  0  0  0  0  0
    9.7438   -0.3264   23.2543 C   0  0  0  0  0  0  0  0  0  0  0  0
    8.2351   -0.5076   22.8664 C   0  0  1  0  0  0  0  0  0  0  0  0
    7.2807   -0.1148   24.0460 C   0  0  0  0  0  0  0  0  0  0  0  0
    7.7246   -0.8045   25.3576 N   0  0  0  0  0  0  0  0  0  0  0  0
    6.8392   -0.7575   26.6534 C   0  0  0  0  0  0  0  0  0  0  0  0
    6.8464   -2.1516   27.1520 C   0  0  0  0  0  0  0  0  0  0  0  0
    5.9040   -2.9122   27.5880 N   0  0  0  0  0  0  0  0  0  0  0  0
    6.5056   -4.1449   27.8525 N   0  0  0  0  0  0  0  0  0  0  0  0
    7.7509   -4.0072   27.5649 C   0  0  0  0  0  0  0  0  0  0  0  0
    8.0556   -2.7633   27.1160 O   0  0  0  0  0  0  0  0  0  0  0  0
    8.5419   -4.7441   27.6109 H   0  0  0  0  0  0  0  0  0  0  0  0
    5.8438   -0.3978   26.4070 H   0  0  0  0  0  0  0  0  0  0  0  0
    7.3376   -0.0883   27.3604 H   0  0  0  0  0  0  0  0  0  0  0  0
    6.2523   -0.4133   23.8398 H   0  0  0  0  0  0  0  0  0  0  0  0
    7.3344    0.9687   24.1839 H   0  0  0  0  0  0  0  0  0  0  0  0
    7.7856    0.3735   21.6657 C   0  0  0  0  0  0  0  0  0  0  0  0
    8.0233    1.5476   21.4799 O   0  0  0  0  0  0  0  0  0  0  0  0
    6.9970   -0.3908   20.8232 N   0  0  0  0  0  0  0  0  0  0  0  0
    6.1977    0.1432   19.7760 C   0  0  0  0  0  0  0  0  0  0  0  0
    6.4685   -0.2218   18.4809 C   0  0  0  0  0  0  0  0  0  0  0  0
    5.7869    0.2073   17.3912 N   0  0  0  0  0  0  0  0  0  0  0  0
    4.7732    1.0123   17.5971 C   0  0  0  0  0  0  0  0  0  0  0  0
    4.3340    1.4197   18.8881 C   0  0  0  0  0  0  0  0  0  0  0  0
    3.2017    2.2642   19.0432 C   0  0  0  0  0  0  0  0  0  0  0  0
    2.7583    2.6034   20.2911 C   0  0  0  0  0  0  0  0  0  0  0  0
    3.4282    2.1140   21.4356 C   0  0  0  0  0  0  0  0  0  0  0  0
    4.5384    1.3140   21.3103 C   0  0  0  0  0  0  0  0  0  0  0  0
    5.0387    0.9577   20.0246 C   0  0  0  0  0  0  0  0  0  0  0  0
    5.0383    0.9471   22.2015 H   0  0  0  0  0  0  0  0  0  0  0  0
    3.0627    2.3847   22.4216 H   0  0  0  0  0  0  0  0  0  0  0  0
    1.8934    3.2517   20.4090 H   0  0  0  0  0  0  0  0  0  0  0  0
    2.7050    2.6315   18.1469 H   0  0  0  0  0  0  0  0  0  0  0  0
    4.2315    1.3737   16.7208 H   0  0  0  0  0  0  0  0  0  0  0  0
    7.3014   -0.8919   18.2787 H   0  0  0  0  0  0  0  0  0  0  0  0
    6.8207   -1.7606   21.2628 C   0  0  0  0  0  0  0  0  0  0  0  0
    7.9367   -1.9442   22.2897 C   0  0  2  0  0  0  0  0  0  0  0  0
    7.6715   -3.0478   23.3225 C   0  0  0  0  0  0  0  0  0  0  0  0
    6.2938   -3.2002   23.7504 N   0  0  0  0  0  0  0  0  0  0  0  0
    5.4459   -4.1592   23.2919 C   0  0  0  0  0  0  0  0  0  0  0  0
    5.7239   -4.9112   22.1338 C   0  0  0  0  0  0  0  0  0  0  0  0
    4.7787   -5.8458   21.7731 C   0  0  0  0  0  0  0  0  0  0  0  0
    3.6382   -6.0367   22.4493 N   0  0  0  0  0  0  0  0  0  0  0  0
    3.4809   -5.2649   23.5154 C   0  0  0  0  0  0  0  0  0  0  0  0
    4.3125   -4.3375   23.9833 N   0  0  0  0  0  0  0  0  0  0  0  0
    2.5588   -5.4044   24.0805 H   0  0  0  0  0  0  0  0  0  0  0  0
    4.9287   -6.4790   20.8982 H   0  0  0  0  0  0  0  0  0  0  0  0
    6.6306   -4.7586   21.5524 H   0  0  0  0  0  0  0  0  0  0  0  0
    6.0319   -2.8382   24.6571 H   0  0  0  0  0  0  0  0  0  0  0  0
    8.2671   -2.8415   24.2129 H   0  0  0  0  0  0  0  0  0  0  0  0
    8.0188   -4.0045   22.9269 H   0  0  0  0  0  0  0  0  0  0  0  0
    8.8537   -2.2189   21.7470 H   0  0  0  0  0  0  0  0  0  0  0  0
    5.8221   -1.9064   21.6872 H   0  0  0  0  0  0  0  0  0  0  0  0
    6.9054   -2.4401   20.4150 H   0  0  0  0  0  0  0  0  0  0  0  0
   10.3554   -0.2683   21.1669 H   0  0  0  0  0  0  0  0  0  0  0  0
   13.4686    0.6277   23.9501 H   0  0  0  0  0  0  0  0  0  0  0  0
   11.9594    0.5683   25.7133 H   0  0  0  0  0  0  0  0  0  0  0  0
  1  2  2  0
  2  3  1  0
  3  4  2  0
  4  5  1  0
  5  6  2  0
  6  7  1  0
  6  8  1  0
  8  9  2  0
  9 10  1  0
 10 11  1  1
 11 12  1  0
 12 13  1  0
 13 14  1  0
 14 15  2  0
 15 16  1  0
 16 17  2  0
 17 18  1  0
 17 19  1  0
 13 20  1  0
 13 21  1  0
 11 22  1  0
 11 23  1  0
 10 24  1  0
 24 25  2  0
 24 26  1  0
 26 27  1  0
 27 28  2  0
 28 29  1  0
 29 30  2  0
 30 31  1  0
 31 32  2  0
 32 33  1  0
 33 34  2  0
 34 35  1  0
 35 36  2  0
 35 37  1  0
 34 38  1  0
 33 39  1  0
 32 40  1  0
 30 41  1  0
 28 42  1  0
 26 43  1  0
 43 44  1  0
 44 45  1  0
 45 46  1  0
 46 47  1  0
 47 48  2  0
 48 49  1  0
 49 50  2  0
 50 51  1  0
 51 52  2  0
 51 53  1  0
 49 54  1  0
 48 55  1  0
 46 56  1  0
 45 57  1  0
 45 58  1  0
 44 59  1  6
 43 60  1  0
 43 61  1  0
  8 62  1  0
  5 63  1  0
  4 64  1  0
 12  2  1  0
 18 14  1  0
 36 27  1  0
 52 47  1  0
  9  3  1  0
 44 10  1  0
 36 31  1  0
M  END
>  <cnnaffinities>  (32) 
[6.38354]

>  <score>  (32) 
6.38354

>  <index>  (32) 
31

>  <Smiles>  (32) 
O=C1c2c(c(c(Cl)c(c2[C@@]2(C(N1C(c1nnc(o1)[H])([H])[H])([H])[H])C(=O)N(c1c(nc(c3c(c(c(c(c13)[H])[H])[H])[H])[H])[H])C([C@@]2(C(N(c1c(c(nc(n1)[H])[H])[H])[H])([H])[H])[H])([H])[H])[H])[H])[H]

>  <h>  (32) 
<NA>

>  <Training>  (32) 
True

>  <Success>  (32) 
True

>  <enamine_searched>  (32) 
False

>  <enamine_id>  (32) 
nan

$$$$

     RDKit          3D

 72 77  0  0  0  0  0  0  0  0999 V2000
    7.8719   -3.0340   23.2299 C   0  0  0  0  0  0  0  0  0  0  0  0
    8.1134   -1.9029   22.2297 C   0  0  1  0  0  0  0  0  0  0  0  0
    6.9368   -1.7327   21.2638 C   0  0  0  0  0  0  0  0  0  0  0  0
    7.0187   -0.3458   20.8649 N   0  0  0  0  0  0  0  0  0  0  0  0
    6.2129    0.1615   19.8105 C   0  0  0  0  0  0  0  0  0  0  0  0
    6.4877   -0.2203   18.5195 C   0  0  0  0  0  0  0  0  0  0  0  0
    5.8083    0.1959   17.4222 N   0  0  0  0  0  0  0  0  0  0  0  0
    4.7941    1.0043   17.6150 C   0  0  0  0  0  0  0  0  0  0  0  0
    4.3476    1.4239   18.8999 C   0  0  0  0  0  0  0  0  0  0  0  0
    3.2127    2.2643   19.0476 C   0  0  0  0  0  0  0  0  0  0  0  0
    2.7594    2.6044   20.2920 C   0  0  0  0  0  0  0  0  0  0  0  0
    3.4190    2.1185   21.4426 C   0  0  0  0  0  0  0  0  0  0  0  0
    4.5339    1.3234   21.3260 C   0  0  0  0  0  0  0  0  0  0  0  0
    5.0472    0.9720   20.0444 C   0  0  0  0  0  0  0  0  0  0  0  0
    5.0288    0.9560   22.2210 H   0  0  0  0  0  0  0  0  0  0  0  0
    3.0457    2.3867   22.4266 H   0  0  0  0  0  0  0  0  0  0  0  0
    1.8934    3.2523   20.4030 H   0  0  0  0  0  0  0  0  0  0  0  0
    2.7231    2.6297   18.1489 H   0  0  0  0  0  0  0  0  0  0  0  0
    4.2570    1.3551   16.7324 H   0  0  0  0  0  0  0  0  0  0  0  0
    7.3209   -0.8960   18.3262 H   0  0  0  0  0  0  0  0  0  0  0  0
    7.8097    0.4257   21.6986 C   0  0  0  0  0  0  0  0  0  0  0  0
    8.0012    1.6109   21.5240 O   0  0  0  0  0  0  0  0  0  0  0  0
    8.3138   -0.4711   22.8577 C   0  0  1  0  0  0  0  0  0  0  0  0
    7.3203   -0.2472   24.0438 C   0  0  0  0  0  0  0  0  0  0  0  0
    7.8482   -1.0274   25.2517 N   0  0  0  0  0  0  0  0  0  0  0  0
    6.9485   -1.3760   26.4153 C   0  0  0  0  0  0  0  0  0  0  0  0
    6.7814   -0.1741   27.3236 C   0  0  0  0  0  0  0  0  0  0  0  0
    6.1631   -0.5660   28.6139 N   0  0  1  0  0  4  0  0  0  0  0  0
    6.0832    0.5606   29.5990 C   0  0  0  0  0  0  0  0  0  0  0  0
    5.3842    0.0866   30.8615 C   0  0  0  0  0  0  0  0  0  0  0  0
    4.0902   -0.4114   30.5857 O   0  0  0  0  0  0  0  0  0  0  0  0
    4.0802   -1.5174   29.6778 C   0  0  0  0  0  0  0  0  0  0  0  0
    4.7298   -2.7544   30.3034 C   0  0  0  0  0  0  0  0  0  0  0  0
    4.2788   -2.9717   31.2765 H   0  0  0  0  0  0  0  0  0  0  0  0
    5.8112   -2.6324   30.4374 H   0  0  0  0  0  0  0  0  0  0  0  0
    4.5843   -3.6185   29.6453 H   0  0  0  0  0  0  0  0  0  0  0  0
    2.6142   -1.7698   29.3595 C   0  0  0  0  0  0  0  0  0  0  0  0
    2.1635   -0.8634   28.9420 H   0  0  0  0  0  0  0  0  0  0  0  0
    2.0690   -2.0409   30.2672 H   0  0  0  0  0  0  0  0  0  0  0  0
    2.5116   -2.5796   28.6276 H   0  0  0  0  0  0  0  0  0  0  0  0
    4.7944   -1.1444   28.3792 C   0  0  0  0  0  0  0  0  0  0  0  0
    4.2088   -0.4024   27.8261 H   0  0  0  0  0  0  0  0  0  0  0  0
    4.8851   -2.0392   27.7610 H   0  0  0  0  0  0  0  0  0  0  0  0
    5.2488    0.9162   31.5598 H   0  0  0  0  0  0  0  0  0  0  0  0
    6.0076   -0.6730   31.3542 H   0  0  0  0  0  0  0  0  0  0  0  0
    7.0930    0.9207   29.8217 H   0  0  0  0  0  0  0  0  0  0  0  0
    5.5176    1.3788   29.1421 H   0  0  0  0  0  0  0  0  0  0  0  0
    6.7906   -1.2877   29.0275 H   0  0  0  0  0  0  0  0  0  0  0  0
    6.1600    0.5868   26.8355 H   0  0  0  0  0  0  0  0  0  0  0  0
    7.7668    0.2586   27.5001 H   0  0  0  0  0  0  0  0  0  0  0  0
    6.0127   -1.7605   26.0072 H   0  0  0  0  0  0  0  0  0  0  0  0
    7.4721   -2.1802   26.9353 H   0  0  0  0  0  0  0  0  0  0  0  0
    9.3077   -0.7728   25.5012 C   0  0  0  0  0  0  0  0  0  0  0  0
    9.4300   -0.7393   25.4946 O   0  0  0  0  0  0  0  0  0  0  0  0
   10.2943   -0.1830   24.5831 C   0  0  0  0  0  0  0  0  0  0  0  0
   11.5906    0.4068   24.7896 C   0  0  0  0  0  0  0  0  0  0  0  0
   12.4640    0.5810   23.7561 C   0  0  0  0  0  0  0  0  0  0  0  0
   12.0560    0.2525   22.4758 C   0  0  0  0  0  0  0  0  0  0  0  0
   13.3293    0.1995   21.3242 Cl  0  0  0  0  0  0  0  0  0  0  0  0
   10.7348   -0.0722   22.2140 C   0  0  0  0  0  0  0  0  0  0  0  0
    9.8037   -0.2149   23.2633 C   0  0  0  0  0  0  0  0  0  0  0  0
   10.4247   -0.2234   21.1849 H   0  0  0  0  0  0  0  0  0  0  0  0
   13.4836    0.8804   23.9698 H   0  0  0  0  0  0  0  0  0  0  0  0
   12.0478    0.7030   25.7281 H   0  0  0  0  0  0  0  0  0  0  0  0
    7.2724    0.8147   24.3044 H   0  0  0  0  0  0  0  0  0  0  0  0
    6.3119   -0.5836   23.8002 H   0  0  0  0  0  0  0  0  0  0  0  0
    6.9941   -2.3804   20.3887 H   0  0  0  0  0  0  0  0  0  0  0  0
    5.9802   -1.9495   21.7665 H   0  0  0  0  0  0  0  0  0  0  0  0
    9.0230   -2.1096   21.6439 H   0  0  0  0  0  0  0  0  0  0  0  0
    8.5907   -2.9943   24.0565 H   0  0  0  0  0  0  0  0  0  0  0  0
    6.8766   -2.9355   23.6813 H   0  0  0  0  0  0  0  0  0  0  0  0
    7.9213   -4.0119   22.7447 H   0  0  0  0  0  0  0  0  0  0  0  0
  1  2  1  0
  2  3  1  0
  3  4  1  0
  4  5  1  0
  5  6  2  0
  6  7  1  0
  7  8  2  0
  8  9  1  0
  9 10  2  0
 10 11  1  0
 11 12  2  0
 12 13  1  0
 13 14  2  0
 13 15  1  0
 12 16  1  0
 11 17  1  0
 10 18  1  0
  8 19  1  0
  6 20  1  0
  4 21  1  0
 21 22  2  0
 21 23  1  0
 23 24  1  1
 24 25  1  0
 25 26  1  0
 26 27  1  0
 27 28  1  0
 28 29  1  0
 29 30  1  0
 30 31  1  0
 31 32  1  0
 32 33  1  0
 33 34  1  0
 33 35  1  0
 33 36  1  0
 32 37  1  0
 37 38  1  0
 37 39  1  0
 37 40  1  0
 32 41  1  0
 41 42  1  0
 41 43  1  0
 30 44  1  0
 30 45  1  0
 29 46  1  0
 29 47  1  0
 28 48  1  1
 27 49  1  0
 27 50  1  0
 26 51  1  0
 26 52  1  0
 25 53  1  0
 53 54  2  0
 53 55  1  0
 55 56  2  0
 56 57  1  0
 57 58  2  0
 58 59  1  0
 58 60  1  0
 60 61  2  0
 60 62  1  0
 57 63  1  0
 56 64  1  0
 24 65  1  0
 24 66  1  0
  3 67  1  0
  3 68  1  0
  2 69  1  6
  1 70  1  0
  1 71  1  0
  1 72  1  0
 23  2  1  0
 41 28  1  0
 61 55  1  0
 14  5  1  0
 61 23  1  0
 14  9  1  0
M  CHG  1  28   1
M  END
>  <cnnaffinities>  (33) 
[6.05395, 6.0913]

>  <score>  (33) 
6.05395

>  <index>  (33) 
32

>  <Smiles>  (33) 
C([C@]1(C(N(c2c(nc(c3c(c(c(c(c23)[H])[H])[H])[H])[H])[H])C(=O)[C@]21C(N(C(C([N@+]1(C(C(OC(C([H])([H])[H])(C([H])([H])[H])C1([H])[H])([H])[H])([H])[H])[H])([H])[H])([H])[H])C(=O)c1c(c(c(Cl)c(c21)[H])[H])[H])([H])[H])([H])[H])[H])([H])([H])[H]

>  <h>  (33) 
<NA>

>  <Training>  (33) 
True

>  <Success>  (33) 
True

>  <enamine_searched>  (33) 
False

>  <enamine_id>  (33) 
nan

$$$$

     RDKit          3D

 44 47  0  0  0  0  0  0  0  0999 V2000
    5.4434   -2.3967   20.9439 O   0  0  0  0  0  0  0  0  0  0  0  0
    6.2327   -1.7173   21.5852 C   0  0  0  0  0  0  0  0  0  0  0  0
    6.9131   -0.4906   20.9241 C   0  0  0  0  0  0  0  0  0  0  0  0
    6.1133    0.0836   19.7722 C   0  0  0  0  0  0  0  0  0  0  0  0
    6.4205   -0.2161   18.4683 C   0  0  0  0  0  0  0  0  0  0  0  0
    5.7565    0.2358   17.3666 N   0  0  0  0  0  0  0  0  0  0  0  0
    4.7364    1.0310   17.5759 C   0  0  0  0  0  0  0  0  0  0  0  0
    4.2862    1.4232   18.8683 C   0  0  0  0  0  0  0  0  0  0  0  0
    3.1664    2.2757   19.0445 C   0  0  0  0  0  0  0  0  0  0  0  0
    2.7517    2.6293   20.2977 C   0  0  0  0  0  0  0  0  0  0  0  0
    3.4459    2.1372   21.4288 C   0  0  0  0  0  0  0  0  0  0  0  0
    4.5330    1.3113   21.2930 C   0  0  0  0  0  0  0  0  0  0  0  0
    4.9885    0.9357   20.0008 C   0  0  0  0  0  0  0  0  0  0  0  0
    5.0500    0.9474   22.1809 H   0  0  0  0  0  0  0  0  0  0  0  0
    3.1101    2.4302   22.4170 H   0  0  0  0  0  0  0  0  0  0  0  0
    1.8962    3.2867   20.4371 H   0  0  0  0  0  0  0  0  0  0  0  0
    2.6474    2.6475   18.1625 H   0  0  0  0  0  0  0  0  0  0  0  0
    4.2007    1.3998   16.6975 H   0  0  0  0  0  0  0  0  0  0  0  0
    7.2653   -0.8667   18.2447 H   0  0  0  0  0  0  0  0  0  0  0  0
    7.8738   -0.8395   20.5197 H   0  0  0  0  0  0  0  0  0  0  0  0
    7.1577    0.2945   21.6509 H   0  0  0  0  0  0  0  0  0  0  0  0
    6.5550   -2.0573   22.8730 N   0  0  0  0  0  0  0  0  0  0  0  0
    6.0864   -3.3292   23.4231 C   0  0  0  0  0  0  0  0  0  0  0  0
    6.6000   -3.3619   24.8648 C   0  0  0  0  0  0  0  0  0  0  0  0
    7.6638   -2.2657   24.9542 C   0  0  0  0  0  0  0  0  0  0  0  0
    7.3552   -1.2850   23.8123 C   0  0  2  0  0  0  0  0  0  0  0  0
    6.6489   -0.0322   24.2992 C   0  0  0  0  0  0  0  0  0  0  0  0
    7.3319    1.1826   24.3552 C   0  0  0  0  0  0  0  0  0  0  0  0
    6.6939    2.3319   24.8073 C   0  0  0  0  0  0  0  0  0  0  0  0
    5.3707    2.2928   25.2263 C   0  0  0  0  0  0  0  0  0  0  0  0
    4.7244    1.0677   25.1925 C   0  0  0  0  0  0  0  0  0  0  0  0
    3.4441    1.0105   25.5950 F   0  0  0  0  0  0  0  0  0  0  0  0
    5.3327   -0.0928   24.7466 C   0  0  0  0  0  0  0  0  0  0  0  0
    4.7629   -1.0179   24.7460 H   0  0  0  0  0  0  0  0  0  0  0  0
    4.8457    3.1794   25.5660 H   0  0  0  0  0  0  0  0  0  0  0  0
    7.2287    3.2728   24.8186 H   0  0  0  0  0  0  0  0  0  0  0  0
    8.3682    1.2329   24.0276 H   0  0  0  0  0  0  0  0  0  0  0  0
    8.2877   -0.9861   23.3312 H   0  0  0  0  0  0  0  0  0  0  0  0
    7.6548   -1.7675   25.9251 H   0  0  0  0  0  0  0  0  0  0  0  0
    8.6667   -2.6862   24.8393 H   0  0  0  0  0  0  0  0  0  0  0  0
    7.0197   -4.3336   25.1263 H   0  0  0  0  0  0  0  0  0  0  0  0
    5.7935   -3.1835   25.5806 H   0  0  0  0  0  0  0  0  0  0  0  0
    6.4901   -4.1492   22.8251 H   0  0  0  0  0  0  0  0  0  0  0  0
    4.9961   -3.4130   23.3738 H   0  0  0  0  0  0  0  0  0  0  0  0
  1  2  2  0
  2  3  1  0
  3  4  1  0
  4  5  2  0
  5  6  1  0
  6  7  2  0
  7  8  1  0
  8  9  2  0
  9 10  1  0
 10 11  2  0
 11 12  1  0
 12 13  2  0
 12 14  1  0
 11 15  1  0
 10 16  1  0
  9 17  1  0
  7 18  1  0
  5 19  1  0
  3 20  1  0
  3 21  1  0
  2 22  1  0
 22 23  1  0
 23 24  1  0
 24 25  1  0
 25 26  1  0
 26 27  1  0
 27 28  2  0
 28 29  1  0
 29 30  2  0
 30 31  1  0
 31 32  1  0
 31 33  2  0
 33 34  1  0
 30 35  1  0
 29 36  1  0
 28 37  1  0
 26 38  1  6
 25 39  1  0
 25 40  1  0
 24 41  1  0
 24 42  1  0
 23 43  1  0
 23 44  1  0
 13  4  1  0
 26 22  1  0
 33 27  1  0
 13  8  1  0
M  END
>  <cnnaffinities>  (34) 
[5.62824, 5.52527]

>  <score>  (34) 
5.62824

>  <index>  (34) 
33

>  <Smiles>  (34) 
O=C(C(c1c(nc(c2c(c(c(c(c12)[H])[H])[H])[H])[H])[H])([H])[H])N1C(C(C([C@@]1(c1c(c(c(c(F)c1[H])[H])[H])[H])[H])([H])[H])([H])[H])([H])[H]

>  <h>  (34) 
<NA>

>  <Training>  (34) 
True

>  <Success>  (34) 
True

>  <enamine_searched>  (34) 
False

>  <enamine_id>  (34) 
nan

$$$$

     RDKit          3D

 58 63  0  0  0  0  0  0  0  0999 V2000
    7.7180   -3.0068   23.3430 C   0  0  0  0  0  0  0  0  0  0  0  0
    7.9996   -1.9332   22.2990 C   0  0  1  0  0  0  0  0  0  0  0  0
    6.8995   -1.8045   21.2425 C   0  0  0  0  0  0  0  0  0  0  0  0
    6.9233   -0.4100   20.8392 N   0  0  0  0  0  0  0  0  0  0  0  0
    6.1364    0.1069   19.7713 C   0  0  0  0  0  0  0  0  0  0  0  0
    6.4304   -0.2214   18.4710 C   0  0  0  0  0  0  0  0  0  0  0  0
    5.7602    0.2326   17.3792 N   0  0  0  0  0  0  0  0  0  0  0  0
    4.7373    1.0314   17.5787 C   0  0  0  0  0  0  0  0  0  0  0  0
    4.2886    1.4225   18.8732 C   0  0  0  0  0  0  0  0  0  0  0  0
    3.1625    2.2733   19.0498 C   0  0  0  0  0  0  0  0  0  0  0  0
    2.7454    2.6119   20.3091 C   0  0  0  0  0  0  0  0  0  0  0  0
    3.4244    2.1140   21.4417 C   0  0  0  0  0  0  0  0  0  0  0  0
    4.5120    1.2925   21.2953 C   0  0  0  0  0  0  0  0  0  0  0  0
    4.9900    0.9389   20.0052 C   0  0  0  0  0  0  0  0  0  0  0  0
    5.0262    0.9062   22.1685 H   0  0  0  0  0  0  0  0  0  0  0  0
    3.0843    2.3819   22.4358 H   0  0  0  0  0  0  0  0  0  0  0  0
    1.8878    3.2619   20.4498 H   0  0  0  0  0  0  0  0  0  0  0  0
    2.6388    2.6495   18.1726 H   0  0  0  0  0  0  0  0  0  0  0  0
    4.1982    1.4000   16.7010 H   0  0  0  0  0  0  0  0  0  0  0  0
    7.2815   -0.8665   18.2605 H   0  0  0  0  0  0  0  0  0  0  0  0
    7.6477    0.3884   21.6959 C   0  0  0  0  0  0  0  0  0  0  0  0
    7.7634    1.5946   21.6024 O   0  0  0  0  0  0  0  0  0  0  0  0
    8.2146   -0.4750   22.8182 C   0  0  1  0  0  0  0  0  0  0  0  0
    7.3486   -0.0682   24.0333 C   0  0  0  0  0  0  0  0  0  0  0  0
    7.9798   -0.5924   25.3475 N   0  0  0  0  0  0  0  0  0  0  0  0
    7.1303   -0.9898   26.5381 C   0  0  0  0  0  0  0  0  0  0  0  0
    7.0546   -2.4730   26.7615 C   0  0  0  0  0  0  0  0  0  0  0  0
    5.9675   -3.3248   26.5737 C   0  0  0  0  0  0  0  0  0  0  0  0
    6.3507   -4.5747   26.8327 N   0  0  0  0  0  0  0  0  0  0  0  0
    7.6297   -4.4435   27.1455 N   0  0  0  0  0  0  0  0  0  0  0  0
    8.4327   -5.5660   27.5927 C   0  0  0  0  0  0  0  0  0  0  0  0
    8.0811   -6.4738   27.1150 H   0  0  0  0  0  0  0  0  0  0  0  0
    9.4730   -5.4068   27.3189 H   0  0  0  0  0  0  0  0  0  0  0  0
    8.3675   -5.6996   28.6718 H   0  0  0  0  0  0  0  0  0  0  0  0
    8.1093   -3.2049   27.1116 N   0  0  0  0  0  0  0  0  0  0  0  0
    4.9774   -3.0475   26.2413 H   0  0  0  0  0  0  0  0  0  0  0  0
    7.4726   -0.4720   27.4446 H   0  0  0  0  0  0  0  0  0  0  0  0
    6.1021   -0.6154   26.3348 H   0  0  0  0  0  0  0  0  0  0  0  0
    9.4658   -0.7048   25.5908 C   0  0  0  0  0  0  0  0  0  0  0  0
    9.4657   -0.7047   25.5907 O   0  0  0  0  0  0  0  0  0  0  0  0
   10.1892   -0.2406   24.3733 C   0  0  0  0  0  0  0  0  0  0  0  0
   11.5802   -0.0024   24.4942 C   0  0  0  0  0  0  0  0  0  0  0  0
   12.4461    0.1804   23.4567 C   0  0  0  0  0  0  0  0  0  0  0  0
   11.9200    0.2458   22.1784 C   0  0  0  0  0  0  0  0  0  0  0  0
   12.8054    0.5200   21.2140 F   0  0  0  0  0  0  0  0  0  0  0  0
   10.5636    0.0613   21.9766 C   0  0  0  0  0  0  0  0  0  0  0  0
    9.6964   -0.2023   23.0629 C   0  0  0  0  0  0  0  0  0  0  0  0
   10.1665    0.1022   20.9733 H   0  0  0  0  0  0  0  0  0  0  0  0
   13.5128    0.3465   23.6142 H   0  0  0  0  0  0  0  0  0  0  0  0
   11.9532    0.2010   25.4608 H   0  0  0  0  0  0  0  0  0  0  0  0
    6.3576   -0.5007   23.9995 H   0  0  0  0  0  0  0  0  0  0  0  0
    7.2953    1.0160   24.1749 H   0  0  0  0  0  0  0  0  0  0  0  0
    7.0973   -2.4425   20.3888 H   0  0  0  0  0  0  0  0  0  0  0  0
    5.9199   -2.0923   21.6438 H   0  0  0  0  0  0  0  0  0  0  0  0
    8.9329   -2.2065   21.7854 H   0  0  0  0  0  0  0  0  0  0  0  0
    7.6651   -3.9871   22.8608 H   0  0  0  0  0  0  0  0  0  0  0  0
    6.7665   -2.8265   23.8502 H   0  0  0  0  0  0  0  0  0  0  0  0
    8.5017   -3.0284   24.1118 H   0  0  0  0  0  0  0  0  0  0  0  0
  1  2  1  0
  2  3  1  0
  3  4  1  0
  4  5  1  0
  5  6  2  0
  6  7  1  0
  7  8  2  0
  8  9  1  0
  9 10  2  0
 10 11  1  0
 11 12  2  0
 12 13  1  0
 13 14  2  0
 13 15  1  0
 12 16  1  0
 11 17  1  0
 10 18  1  0
  8 19  1  0
  6 20  1  0
  4 21  1  0
 21 22  2  0
 21 23  1  0
 23 24  1  1
 24 25  1  0
 25 26  1  0
 26 27  1  0
 27 28  1  0
 28 29  2  0
 29 30  1  0
 30 31  1  0
 31 32  1  0
 31 33  1  0
 31 34  1  0
 30 35  1  0
 28 36  1  0
 26 37  1  0
 26 38  1  0
 25 39  1  0
 39 40  2  0
 39 41  1  0
 41 42  2  0
 42 43  1  0
 43 44  2  0
 44 45  1  0
 44 46  1  0
 46 47  2  0
 46 48  1  0
 43 49  1  0
 42 50  1  0
 24 51  1  0
 24 52  1  0
  3 53  1  0
  3 54  1  0
  2 55  1  6
  1 56  1  0
  1 57  1  0
  1 58  1  0
 23  2  1  0
 35 27  2  0
 47 41  1  0
 14  5  1  0
 47 23  1  0
 14  9  1  0
M  END
>  <cnnaffinities>  (35) 
[6.42393]

>  <score>  (35) 
6.42393

>  <index>  (35) 
34

>  <Smiles>  (35) 
C([C@]1(C(N(c2c(nc(c3c(c(c(c(c23)[H])[H])[H])[H])[H])[H])C(=O)[C@]21C(N(C(c1c(nn(C([H])([H])[H])n1)[H])([H])[H])C(=O)c1c(c(c(F)c(c21)[H])[H])[H])([H])[H])([H])[H])[H])([H])([H])[H]

>  <h>  (35) 
<NA>

>  <Training>  (35) 
True

>  <Success>  (35) 
True

>  <enamine_searched>  (35) 
False

>  <enamine_id>  (35) 
nan

$$$$

     RDKit          3D

 51 54  0  0  0  0  0  0  0  0999 V2000
   13.5086   -3.1640   25.8442 N   0  0  0  0  0  0  0  0  0  0  0  0
   12.9706   -2.5085   25.0576 C   0  0  0  0  0  0  0  0  0  0  0  0
   12.4234   -1.6200   24.0118 C   0  0  0  0  0  0  0  0  0  0  0  0
   11.0001   -1.8877   23.5364 C   0  0  0  0  0  0  0  0  0  0  0  0
    9.8991   -1.1539   23.9852 C   0  0  0  0  0  0  0  0  0  0  0  0
    8.6144   -1.4165   23.5076 C   0  0  0  0  0  0  0  0  0  0  0  0
    8.4224   -2.4045   22.5376 C   0  0  0  0  0  0  0  0  0  0  0  0
    7.1224   -2.7088   22.0299 N   0  0  0  0  0  0  0  0  0  0  0  0
    6.5371   -3.9850   22.4426 C   0  0  0  0  0  0  0  0  0  0  0  0
    5.9911   -3.9452   23.8618 C   0  0  0  0  0  0  0  0  0  0  0  0
    6.8431   -4.1200   24.9554 C   0  0  0  0  0  0  0  0  0  0  0  0
    6.3378   -4.1040   26.2530 C   0  0  0  0  0  0  0  0  0  0  0  0
    4.9849   -3.8656   26.4761 C   0  0  0  0  0  0  0  0  0  0  0  0
    4.1470   -3.6748   25.3857 C   0  0  0  0  0  0  0  0  0  0  0  0
    2.4590   -3.3361   25.6525 Cl  0  0  0  0  0  0  0  0  0  0  0  0
    4.6318   -3.7161   24.0838 C   0  0  0  0  0  0  0  0  0  0  0  0
    3.9506   -3.5686   23.2497 H   0  0  0  0  0  0  0  0  0  0  0  0
    4.5777   -3.8284   27.4822 H   0  0  0  0  0  0  0  0  0  0  0  0
    7.0013   -4.2921   27.0951 H   0  0  0  0  0  0  0  0  0  0  0  0
    7.8964   -4.3351   24.7835 H   0  0  0  0  0  0  0  0  0  0  0  0
    5.7414   -4.2174   21.7303 H   0  0  0  0  0  0  0  0  0  0  0  0
    7.3233   -4.7472   22.3643 H   0  0  0  0  0  0  0  0  0  0  0  0
    6.2726   -1.7820   21.4593 C   0  0  0  0  0  0  0  0  0  0  0  0
    5.0715   -1.9867   21.3811 O   0  0  0  0  0  0  0  0  0  0  0  0
    6.9207   -0.5178   20.8820 C   0  0  0  0  0  0  0  0  0  0  0  0
    6.1162    0.0830   19.7593 C   0  0  0  0  0  0  0  0  0  0  0  0
    6.4256   -0.2204   18.4598 C   0  0  0  0  0  0  0  0  0  0  0  0
    5.7590    0.2318   17.3646 N   0  0  0  0  0  0  0  0  0  0  0  0
    4.7375    1.0252   17.5799 C   0  0  0  0  0  0  0  0  0  0  0  0
    4.2888    1.4147   18.8704 C   0  0  0  0  0  0  0  0  0  0  0  0
    3.1700    2.2690   19.0426 C   0  0  0  0  0  0  0  0  0  0  0  0
    2.7509    2.6180   20.2999 C   0  0  0  0  0  0  0  0  0  0  0  0
    3.4369    2.1250   21.4320 C   0  0  0  0  0  0  0  0  0  0  0  0
    4.5228    1.2990   21.2899 C   0  0  0  0  0  0  0  0  0  0  0  0
    4.9858    0.9237   19.9981 C   0  0  0  0  0  0  0  0  0  0  0  0
    5.0305    0.9139   22.1676 H   0  0  0  0  0  0  0  0  0  0  0  0
    3.0987    2.4142   22.4244 H   0  0  0  0  0  0  0  0  0  0  0  0
    1.8960    3.2745   20.4260 H   0  0  0  0  0  0  0  0  0  0  0  0
    2.6669    2.6410   18.1536 H   0  0  0  0  0  0  0  0  0  0  0  0
    4.2081    1.3969   16.7005 H   0  0  0  0  0  0  0  0  0  0  0  0
    7.2739   -0.8679   18.2353 H   0  0  0  0  0  0  0  0  0  0  0  0
    7.9282   -0.7890   20.5429 H   0  0  0  0  0  0  0  0  0  0  0  0
    7.0700    0.2065   21.6956 H   0  0  0  0  0  0  0  0  0  0  0  0
    9.5126   -3.1433   22.0850 C   0  0  0  0  0  0  0  0  0  0  0  0
   10.7879   -2.8630   22.5654 C   0  0  0  0  0  0  0  0  0  0  0  0
   11.6493   -3.4118   22.1980 H   0  0  0  0  0  0  0  0  0  0  0  0
    9.3400   -3.9313   21.3526 H   0  0  0  0  0  0  0  0  0  0  0  0
    7.7468   -0.8843   23.9039 H   0  0  0  0  0  0  0  0  0  0  0  0
   10.0303   -0.3696   24.7266 H   0  0  0  0  0  0  0  0  0  0  0  0
   12.5059   -0.5884   24.3706 H   0  0  0  0  0  0  0  0  0  0  0  0
   13.1202   -1.7174   23.1663 H   0  0  0  0  0  0  0  0  0  0  0  0
  1  2  3  0
  2  3  1  0
  3  4  1  0
  4  5  2  0
  5  6  1  0
  6  7  2  0
  7  8  1  0
  8  9  1  0
  9 10  1  0
 10 11  2  0
 11 12  1  0
 12 13  2  0
 13 14  1  0
 14 15  1  0
 14 16  2  0
 16 17  1  0
 13 18  1  0
 12 19  1  0
 11 20  1  0
  9 21  1  0
  9 22  1  0
  8 23  1  0
 23 24  2  0
 23 25  1  0
 25 26  1  0
 26 27  2  0
 27 28  1  0
 28 29  2  0
 29 30  1  0
 30 31  2  0
 31 32  1  0
 32 33  2  0
 33 34  1  0
 34 35  2  0
 34 36  1  0
 33 37  1  0
 32 38  1  0
 31 39  1  0
 29 40  1  0
 27 41  1  0
 25 42  1  0
 25 43  1  0
  7 44  1  0
 44 45  2  0
 45 46  1  0
 44 47  1  0
  6 48  1  0
  5 49  1  0
  3 50  1  0
  3 51  1  0
 45  4  1  0
 16 10  1  0
 35 26  1  0
 35 30  1  0
M  END
>  <cnnaffinities>  (36) 
[6.2045]

>  <score>  (36) 
6.2045

>  <index>  (36) 
35

>  <Smiles>  (36) 
N#CC(c1c(c(c(N(C(c2c(c(c(c(Cl)c2[H])[H])[H])[H])([H])[H])C(=O)C(c2c(nc(c3c(c(c(c(c23)[H])[H])[H])[H])[H])[H])([H])[H])c(c1[H])[H])[H])[H])([H])[H]

>  <h>  (36) 
<NA>

>  <Training>  (36) 
True

>  <Success>  (36) 
True

>  <enamine_searched>  (36) 
False

>  <enamine_id>  (36) 
nan

$$$$

     RDKit          3D

 59 64  0  0  0  0  0  0  0  0999 V2000
    7.7239   -3.0096   23.3474 C   0  0  0  0  0  0  0  0  0  0  0  0
    8.0096   -1.9240   22.3078 C   0  0  1  0  0  0  0  0  0  0  0  0
    6.9078   -1.8116   21.2388 C   0  0  0  0  0  0  0  0  0  0  0  0
    6.9160   -0.4112   20.8444 N   0  0  0  0  0  0  0  0  0  0  0  0
    6.1236    0.0979   19.7653 C   0  0  0  0  0  0  0  0  0  0  0  0
    6.4270   -0.2175   18.4633 C   0  0  0  0  0  0  0  0  0  0  0  0
    5.7575    0.2378   17.3707 N   0  0  0  0  0  0  0  0  0  0  0  0
    4.7337    1.0332   17.5751 C   0  0  0  0  0  0  0  0  0  0  0  0
    4.2856    1.4263   18.8665 C   0  0  0  0  0  0  0  0  0  0  0  0
    3.1601    2.2764   19.0481 C   0  0  0  0  0  0  0  0  0  0  0  0
    2.7489    2.6116   20.3087 C   0  0  0  0  0  0  0  0  0  0  0  0
    3.4309    2.1129   21.4407 C   0  0  0  0  0  0  0  0  0  0  0  0
    4.5174    1.2928   21.2913 C   0  0  0  0  0  0  0  0  0  0  0  0
    4.9857    0.9402   19.9971 C   0  0  0  0  0  0  0  0  0  0  0  0
    5.0267    0.9022   22.1673 H   0  0  0  0  0  0  0  0  0  0  0  0
    3.0858    2.3808   22.4343 H   0  0  0  0  0  0  0  0  0  0  0  0
    1.8891    3.2602   20.4523 H   0  0  0  0  0  0  0  0  0  0  0  0
    2.6313    2.6517   18.1741 H   0  0  0  0  0  0  0  0  0  0  0  0
    4.1919    1.4034   16.7026 H   0  0  0  0  0  0  0  0  0  0  0  0
    7.2817   -0.8634   18.2668 H   0  0  0  0  0  0  0  0  0  0  0  0
    7.6421    0.3847   21.7169 C   0  0  0  0  0  0  0  0  0  0  0  0
    7.7769    1.5864   21.6252 O   0  0  0  0  0  0  0  0  0  0  0  0
    8.2175   -0.4672   22.8480 C   0  0  1  0  0  0  0  0  0  0  0  0
    7.3642   -0.1069   24.1132 C   0  0  0  0  0  0  0  0  0  0  0  0
    7.9056   -0.7585   25.3224 N   0  0  0  0  0  0  0  0  0  0  0  0
    7.0315   -1.1433   26.4532 C   0  0  0  0  0  0  0  0  0  0  0  0
    6.5956    0.0443   27.2450 C   0  0  0  0  0  0  0  0  0  0  0  0
    7.2404    0.5415   28.3819 C   0  0  0  0  0  0  0  0  0  0  0  0
    6.5188    1.6559   28.7150 C   0  0  0  0  0  0  0  0  0  0  0  0
    5.5326    1.7993   27.8004 N   0  0  0  0  0  0  0  0  0  0  0  0
    4.4894    2.8227   27.8097 C   0  0  0  0  0  0  0  0  0  0  0  0
    4.0608    2.9344   26.8078 H   0  0  0  0  0  0  0  0  0  0  0  0
    4.9248    3.7831   28.1186 H   0  0  0  0  0  0  0  0  0  0  0  0
    3.6961    2.5458   28.5173 H   0  0  0  0  0  0  0  0  0  0  0  0
    5.5650    0.8090   26.8873 N   0  0  0  0  0  0  0  0  0  0  0  0
    6.6672    2.3258   29.5465 H   0  0  0  0  0  0  0  0  0  0  0  0
    8.1119    0.1393   28.8777 H   0  0  0  0  0  0  0  0  0  0  0  0
    7.5799   -1.8701   27.0747 H   0  0  0  0  0  0  0  0  0  0  0  0
    6.1692   -1.6586   26.0200 H   0  0  0  0  0  0  0  0  0  0  0  0
    9.4002   -0.5718   25.6292 C   0  0  0  0  0  0  0  0  0  0  0  0
    9.4002   -0.5717   25.6290 O   0  0  0  0  0  0  0  0  0  0  0  0
   10.1753   -0.2519   24.4277 C   0  0  0  0  0  0  0  0  0  0  0  0
   11.5324   -0.0268   24.5508 C   0  0  0  0  0  0  0  0  0  0  0  0
   12.4421    0.2490   23.5145 C   0  0  0  0  0  0  0  0  0  0  0  0
   11.9271    0.2987   22.2379 C   0  0  0  0  0  0  0  0  0  0  0  0
   12.7608    0.5546   21.2293 F   0  0  0  0  0  0  0  0  0  0  0  0
   10.5703    0.0859   22.0199 C   0  0  0  0  0  0  0  0  0  0  0  0
    9.6995   -0.1613   23.0716 C   0  0  0  0  0  0  0  0  0  0  0  0
   10.1915    0.1071   21.0089 H   0  0  0  0  0  0  0  0  0  0  0  0
   13.5099    0.4230   23.6922 H   0  0  0  0  0  0  0  0  0  0  0  0
   11.9439    0.2022   25.5113 H   0  0  0  0  0  0  0  0  0  0  0  0
    6.3340   -0.4685   23.9851 H   0  0  0  0  0  0  0  0  0  0  0  0
    7.3098    0.9877   24.2459 H   0  0  0  0  0  0  0  0  0  0  0  0
    5.9229   -2.0866   21.6489 H   0  0  0  0  0  0  0  0  0  0  0  0
    7.1262   -2.4563   20.3846 H   0  0  0  0  0  0  0  0  0  0  0  0
    8.9402   -2.2063   21.7909 H   0  0  0  0  0  0  0  0  0  0  0  0
    8.5225   -3.0436   24.1012 H   0  0  0  0  0  0  0  0  0  0  0  0
    7.6699   -3.9851   22.8518 H   0  0  0  0  0  0  0  0  0  0  0  0
    6.7671   -2.8299   23.8601 H   0  0  0  0  0  0  0  0  0  0  0  0
  1  2  1  0
  2  3  1  0
  3  4  1  0
  4  5  1  0
  5  6  2  0
  6  7  1  0
  7  8  2  0
  8  9  1  0
  9 10  2  0
 10 11  1  0
 11 12  2  0
 12 13  1  0
 13 14  2  0
 13 15  1  0
 12 16  1  0
 11 17  1  0
 10 18  1  0
  8 19  1  0
  6 20  1  0
  4 21  1  0
 21 22  2  0
 21 23  1  0
 23 24  1  1
 24 25  1  0
 25 26  1  0
 26 27  1  0
 27 28  1  0
 28 29  2  0
 29 30  1  0
 30 31  1  0
 31 32  1  0
 31 33  1  0
 31 34  1  0
 30 35  1  0
 29 36  1  0
 28 37  1  0
 26 38  1  0
 26 39  1  0
 25 40  1  0
 40 41  2  0
 40 42  1  0
 42 43  2  0
 43 44  1  0
 44 45  2  0
 45 46  1  0
 45 47  1  0
 47 48  2  0
 47 49  1  0
 44 50  1  0
 43 51  1  0
 24 52  1  0
 24 53  1  0
  3 54  1  0
  3 55  1  0
  2 56  1  6
  1 57  1  0
  1 58  1  0
  1 59  1  0
 23  2  1  0
 35 27  2  0
 48 42  1  0
 14  5  1  0
 48 23  1  0
 14  9  1  0
M  END
>  <cnnaffinities>  (37) 
[6.21413]

>  <score>  (37) 
6.21413

>  <index>  (37) 
36

>  <Smiles>  (37) 
C([C@]1(C(N(c2c(nc(c3c(c(c(c(c23)[H])[H])[H])[H])[H])[H])C(=O)[C@]21C(N(C(c1c(c(n(C([H])([H])[H])n1)[H])[H])([H])[H])C(=O)c1c(c(c(F)c(c21)[H])[H])[H])([H])[H])([H])[H])[H])([H])([H])[H]

>  <h>  (37) 
<NA>

>  <Training>  (37) 
True

>  <Success>  (37) 
True

>  <enamine_searched>  (37) 
False

>  <enamine_id>  (37) 
nan

$$$$

     RDKit          3D

 48 51  0  0  0  0  0  0  0  0999 V2000
   13.4260   -1.3709   24.3282 N   0  0  0  0  0  0  0  0  0  0  0  0
   12.3618   -1.6082   23.9383 C   0  0  0  0  0  0  0  0  0  0  0  0
   11.0236   -1.8934   23.4698 C   0  0  0  0  0  0  0  0  0  0  0  0
    9.9265   -1.1787   23.9585 C   0  0  0  0  0  0  0  0  0  0  0  0
    8.6467   -1.4548   23.4947 C   0  0  0  0  0  0  0  0  0  0  0  0
    8.4334   -2.4444   22.5305 C   0  0  0  0  0  0  0  0  0  0  0  0
    7.1254   -2.7416   22.0356 N   0  0  0  0  0  0  0  0  0  0  0  0
    6.5279   -4.0314   22.4248 C   0  0  0  0  0  0  0  0  0  0  0  0
    5.9725   -4.0190   23.8378 C   0  0  0  0  0  0  0  0  0  0  0  0
    6.8289   -4.1652   24.9325 C   0  0  0  0  0  0  0  0  0  0  0  0
    6.3181   -4.1444   26.2237 C   0  0  0  0  0  0  0  0  0  0  0  0
    4.9692   -3.8994   26.4465 C   0  0  0  0  0  0  0  0  0  0  0  0
    4.1362   -3.7075   25.3544 C   0  0  0  0  0  0  0  0  0  0  0  0
    2.4526   -3.3748   25.6183 Cl  0  0  0  0  0  0  0  0  0  0  0  0
    4.6169   -3.7772   24.0542 C   0  0  0  0  0  0  0  0  0  0  0  0
    3.9477   -3.6082   23.2148 H   0  0  0  0  0  0  0  0  0  0  0  0
    4.5753   -3.8459   27.4555 H   0  0  0  0  0  0  0  0  0  0  0  0
    6.9802   -4.3073   27.0669 H   0  0  0  0  0  0  0  0  0  0  0  0
    7.8790   -4.4078   24.7684 H   0  0  0  0  0  0  0  0  0  0  0  0
    7.3037   -4.8005   22.3446 H   0  0  0  0  0  0  0  0  0  0  0  0
    5.7507   -4.2949   21.7034 H   0  0  0  0  0  0  0  0  0  0  0  0
    6.2922   -1.7739   21.4874 C   0  0  0  0  0  0  0  0  0  0  0  0
    5.0898   -1.9391   21.4140 O   0  0  0  0  0  0  0  0  0  0  0  0
    6.9391   -0.5080   20.8859 C   0  0  0  0  0  0  0  0  0  0  0  0
    6.1186    0.0923   19.7666 C   0  0  0  0  0  0  0  0  0  0  0  0
    6.4204   -0.2108   18.4649 C   0  0  0  0  0  0  0  0  0  0  0  0
    5.7564    0.2347   17.3640 N   0  0  0  0  0  0  0  0  0  0  0  0
    4.7359    1.0317   17.5757 C   0  0  0  0  0  0  0  0  0  0  0  0
    4.2853    1.4232   18.8673 C   0  0  0  0  0  0  0  0  0  0  0  0
    3.1623    2.2757   19.0425 C   0  0  0  0  0  0  0  0  0  0  0  0
    2.7452    2.6237   20.2982 C   0  0  0  0  0  0  0  0  0  0  0  0
    3.4315    2.1334   21.4297 C   0  0  0  0  0  0  0  0  0  0  0  0
    4.5227    1.3122   21.2878 C   0  0  0  0  0  0  0  0  0  0  0  0
    4.9862    0.9347   19.9997 C   0  0  0  0  0  0  0  0  0  0  0  0
    5.0271    0.9274   22.1684 H   0  0  0  0  0  0  0  0  0  0  0  0
    3.0916    2.4123   22.4220 H   0  0  0  0  0  0  0  0  0  0  0  0
    1.8874    3.2768   20.4332 H   0  0  0  0  0  0  0  0  0  0  0  0
    2.6430    2.6472   18.1607 H   0  0  0  0  0  0  0  0  0  0  0  0
    4.1983    1.4004   16.6991 H   0  0  0  0  0  0  0  0  0  0  0  0
    7.2633   -0.8652   18.2473 H   0  0  0  0  0  0  0  0  0  0  0  0
    7.9427   -0.7525   20.5196 H   0  0  0  0  0  0  0  0  0  0  0  0
    7.0819    0.2317   21.6821 H   0  0  0  0  0  0  0  0  0  0  0  0
    9.5250   -3.1752   22.0693 C   0  0  0  0  0  0  0  0  0  0  0  0
   10.8077   -2.8936   22.5190 C   0  0  0  0  0  0  0  0  0  0  0  0
   11.6635   -3.4394   22.1434 H   0  0  0  0  0  0  0  0  0  0  0  0
    9.3729   -3.9478   21.3234 H   0  0  0  0  0  0  0  0  0  0  0  0
    7.8041   -0.9017   23.8959 H   0  0  0  0  0  0  0  0  0  0  0  0
   10.0852   -0.3989   24.6957 H   0  0  0  0  0  0  0  0  0  0  0  0
  1  2  3  0
  2  3  1  0
  3  4  2  0
  4  5  1  0
  5  6  2  0
  6  7  1  0
  7  8  1  0
  8  9  1  0
  9 10  2  0
 10 11  1  0
 11 12  2  0
 12 13  1  0
 13 14  1  0
 13 15  2  0
 15 16  1  0
 12 17  1  0
 11 18  1  0
 10 19  1  0
  8 20  1  0
  8 21  1  0
  7 22  1  0
 22 23  2  0
 22 24  1  0
 24 25  1  0
 25 26  2  0
 26 27  1  0
 27 28  2  0
 28 29  1  0
 29 30  2  0
 30 31  1  0
 31 32  2  0
 32 33  1  0
 33 34  2  0
 33 35  1  0
 32 36  1  0
 31 37  1  0
 30 38  1  0
 28 39  1  0
 26 40  1  0
 24 41  1  0
 24 42  1  0
  6 43  1  0
 43 44  2  0
 44 45  1  0
 43 46  1  0
  5 47  1  0
  4 48  1  0
 44  3  1  0
 15  9  1  0
 34 25  1  0
 34 29  1  0
M  END
>  <cnnaffinities>  (38) 
[6.24032]

>  <score>  (38) 
6.24032

>  <index>  (38) 
37

>  <Smiles>  (38) 
N#Cc1c(c(c(N(C(c2c(c(c(c(Cl)c2[H])[H])[H])[H])([H])[H])C(=O)C(c2c(nc(c3c(c(c(c(c23)[H])[H])[H])[H])[H])[H])([H])[H])c(c1[H])[H])[H])[H]

>  <h>  (38) 
<NA>

>  <Training>  (38) 
True

>  <Success>  (38) 
True

>  <enamine_searched>  (38) 
False

>  <enamine_id>  (38) 
nan

$$$$

     RDKit          3D

 72 77  0  0  0  0  0  0  0  0999 V2000
    6.3003    5.0576   26.5100 C   0  0  0  0  0  0  0  0  0  0  0  0
    5.6957    3.7179   26.3405 N   0  0  0  0  0  4  0  0  0  0  0  0
    6.7031    2.6418   26.0395 C   0  0  0  0  0  0  0  0  0  0  0  0
    7.3668    2.7710   24.6520 C   0  0  0  0  0  0  0  0  0  0  0  0
    8.2331    1.6361   24.3537 N   0  0  0  0  0  0  0  0  0  0  0  0
    7.5740    0.3572   24.1227 C   0  0  0  0  0  0  0  0  0  0  0  0
    8.0188   -0.3436   22.8144 C   0  0  2  0  0  0  0  0  0  0  0  0
    7.5002    0.3928   21.5695 C   0  0  0  0  0  0  0  0  0  0  0  0
    7.7226    1.5439   21.2591 O   0  0  0  0  0  0  0  0  0  0  0  0
    6.7321   -0.4809   20.8292 N   0  0  0  0  0  0  0  0  0  0  0  0
    6.0102    0.0462   19.7311 C   0  0  0  0  0  0  0  0  0  0  0  0
    6.3823   -0.2515   18.4458 C   0  0  0  0  0  0  0  0  0  0  0  0
    5.7487    0.2230   17.3439 N   0  0  0  0  0  0  0  0  0  0  0  0
    4.7320    1.0303   17.5376 C   0  0  0  0  0  0  0  0  0  0  0  0
    4.2579    1.4339   18.8203 C   0  0  0  0  0  0  0  0  0  0  0  0
    3.1543    2.3138   18.9835 C   0  0  0  0  0  0  0  0  0  0  0  0
    2.7302    2.6756   20.2325 C   0  0  0  0  0  0  0  0  0  0  0  0
    3.3901    2.1848   21.3812 C   0  0  0  0  0  0  0  0  0  0  0  0
    4.4578    1.3371   21.2509 C   0  0  0  0  0  0  0  0  0  0  0  0
    4.9177    0.9360   19.9600 C   0  0  0  0  0  0  0  0  0  0  0  0
    4.9725    0.9914   22.1425 H   0  0  0  0  0  0  0  0  0  0  0  0
    3.0541    2.4852   22.3687 H   0  0  0  0  0  0  0  0  0  0  0  0
    1.8830    3.3438   20.3510 H   0  0  0  0  0  0  0  0  0  0  0  0
    2.6623    2.6963   18.0936 H   0  0  0  0  0  0  0  0  0  0  0  0
    4.2300    1.4054   16.6467 H   0  0  0  0  0  0  0  0  0  0  0  0
    7.2397   -0.8990   18.2663 H   0  0  0  0  0  0  0  0  0  0  0  0
    6.3275   -1.6580   21.5899 C   0  0  0  0  0  0  0  0  0  0  0  0
    7.4503   -1.7731   22.6283 C   0  0  2  0  0  0  0  0  0  0  0  0
    7.1129   -2.5587   23.8915 C   0  0  0  0  0  0  0  0  0  0  0  0
    6.7588   -3.8762   23.5570 O   0  0  0  0  0  0  0  0  0  0  0  0
    7.8323   -4.7901   23.4799 C   0  0  0  0  0  0  0  0  0  0  0  0
    7.2446   -5.8868   22.4828 C   0  0  0  0  0  0  0  0  0  0  0  0
    7.5822   -5.2531   21.1199 C   0  0  0  0  0  0  0  0  0  0  0  0
    8.8387   -6.8769   20.2178 S   0  0  0  0  0  0  0  0  0  0  0  0
   10.1055   -6.7120   19.4767 O   0  0  0  0  0  0  0  0  0  0  0  0
    8.4007   -7.4352   20.1707 O   0  0  0  0  0  0  0  0  0  0  0  0
    7.6003   -7.2918   22.3999 C   0  0  0  0  0  0  0  0  0  0  0  0
    8.5615   -7.7337   22.6465 H   0  0  0  0  0  0  0  0  0  0  0  0
    6.8693   -8.0210   22.0522 H   0  0  0  0  0  0  0  0  0  0  0  0
    8.1461   -4.3279   21.1780 H   0  0  0  0  0  0  0  0  0  0  0  0
    6.7575   -5.2628   20.4036 H   0  0  0  0  0  0  0  0  0  0  0  0
    6.1479   -5.7831   22.6301 H   0  0  0  0  0  0  0  0  0  0  0  0
    8.7363   -4.3429   23.0367 H   0  0  0  0  0  0  0  0  0  0  0  0
    8.1347   -5.0620   24.5029 H   0  0  0  0  0  0  0  0  0  0  0  0
    6.2435   -2.1146   24.3965 H   0  0  0  0  0  0  0  0  0  0  0  0
    7.9722   -2.5523   24.5905 H   0  0  0  0  0  0  0  0  0  0  0  0
    8.2365   -2.3470   22.1381 H   0  0  0  0  0  0  0  0  0  0  0  0
    6.2530   -2.5344   20.9372 H   0  0  0  0  0  0  0  0  0  0  0  0
    5.3537   -1.5107   22.0806 H   0  0  0  0  0  0  0  0  0  0  0  0
    9.5176   -0.3106   22.7518 C   0  0  0  0  0  0  0  0  0  0  0  0
   10.1797   -1.2074   21.9226 C   0  0  0  0  0  0  0  0  0  0  0  0
   11.5483   -1.2874   21.9472 C   0  0  0  0  0  0  0  0  0  0  0  0
   12.1933   -2.6352   21.0550 Cl  0  0  0  0  0  0  0  0  0  0  0  0
   12.3079   -0.3564   22.6586 C   0  0  0  0  0  0  0  0  0  0  0  0
   11.6448    0.6478   23.3492 C   0  0  0  0  0  0  0  0  0  0  0  0
   10.2531    0.6756   23.4016 C   0  0  0  0  0  0  0  0  0  0  0  0
    9.5609    1.8314   24.0729 C   0  0  0  0  0  0  0  0  0  0  0  0
   10.1658    2.8646   24.3197 O   0  0  0  0  0  0  0  0  0  0  0  0
   12.1754    1.4478   23.8534 H   0  0  0  0  0  0  0  0  0  0  0  0
   13.3886   -0.4123   22.6445 H   0  0  0  0  0  0  0  0  0  0  0  0
    9.6492   -1.8242   21.2093 H   0  0  0  0  0  0  0  0  0  0  0  0
    6.4982    0.5501   24.0813 H   0  0  0  0  0  0  0  0  0  0  0  0
    7.7709   -0.3170   24.9673 H   0  0  0  0  0  0  0  0  0  0  0  0
    7.9853    3.6703   24.5737 H   0  0  0  0  0  0  0  0  0  0  0  0
    6.5997    2.8134   23.8606 H   0  0  0  0  0  0  0  0  0  0  0  0
    6.1805    1.6939   26.1375 H   0  0  0  0  0  0  0  0  0  0  0  0
    7.4679    2.6765   26.8150 H   0  0  0  0  0  0  0  0  0  0  0  0
    5.1735    3.4967   27.2152 H   0  0  0  0  0  0  0  0  0  0  0  0
    5.0304    3.7447   25.5312 H   0  0  0  0  0  0  0  0  0  0  0  0
    5.5695    5.7511   26.9219 H   0  0  0  0  0  0  0  0  0  0  0  0
    6.6596    5.4509   25.5592 H   0  0  0  0  0  0  0  0  0  0  0  0
    7.1552    4.9990   27.1876 H   0  0  0  0  0  0  0  0  0  0  0  0
  1  2  1  0
  2  3  1  0
  3  4  1  0
  4  5  1  0
  5  6  1  0
  7  6  1  1
  7  8  1  0
  8  9  2  0
  8 10  1  0
 10 11  1  0
 11 12  2  0
 12 13  1  0
 13 14  2  0
 14 15  1  0
 15 16  2  0
 16 17  1  0
 17 18  2  0
 18 19  1  0
 19 20  2  0
 19 21  1  0
 18 22  1  0
 17 23  1  0
 16 24  1  0
 14 25  1  0
 12 26  1  0
 10 27  1  0
 27 28  1  0
 28 29  1  0
 29 30  1  0
 30 31  1  0
 31 32  1  0
 32 33  1  0
 33 34  1  0
 34 35  2  0
 34 36  2  0
 34 37  1  0
 37 38  1  0
 37 39  1  0
 33 40  1  0
 33 41  1  0
 32 42  1  0
 31 43  1  0
 31 44  1  0
 29 45  1  0
 29 46  1  0
 28 47  1  6
 27 48  1  0
 27 49  1  0
  7 50  1  0
 50 51  2  0
 51 52  1  0
 52 53  1  0
 52 54  2  0
 54 55  1  0
 55 56  2  0
 56 57  1  0
 57 58  2  0
 55 59  1  0
 54 60  1  0
 51 61  1  0
  6 62  1  0
  6 63  1  0
  4 64  1  0
  4 65  1  0
  3 66  1  0
  3 67  1  0
  2 68  1  0
  2 69  1  0
  1 70  1  0
  1 71  1  0
  1 72  1  0
 57  5  1  0
 28  7  1  0
 37 32  1  0
 56 50  1  0
 20 11  1  0
 20 15  1  0
M  CHG  1   2   1
M  END
>  <cnnaffinities>  (39) 
[6.59286]

>  <score>  (39) 
6.59286

>  <index>  (39) 
38

>  <Smiles>  (39) 
C([N+](C(C(N1C([C@@]2(C(=O)N(c3c(nc(c4c(c(c(c(c34)[H])[H])[H])[H])[H])[H])C([C@@]2(C(OC(C2(C(S(=O)(=O)C2([H])[H])([H])[H])[H])([H])[H])([H])[H])[H])([H])[H])c2c(c(Cl)c(c(c2C1=O)[H])[H])[H])([H])[H])([H])[H])([H])[H])([H])[H])([H])([H])[H]

>  <h>  (39) 
<NA>

>  <Training>  (39) 
True

>  <Success>  (39) 
True

>  <enamine_searched>  (39) 
False

>  <enamine_id>  (39) 
nan

$$$$

     RDKit          3D

 60 64  0  0  0  0  0  0  0  0999 V2000
   10.4197   -0.3108   25.0161 C   0  0  0  0  0  0  0  0  0  0  0  0
   10.1462    0.6440   23.8651 C   0  0  0  0  0  0  0  0  0  0  0  0
    9.7905   -0.0340   22.6753 O   0  0  0  0  0  0  0  0  0  0  0  0
    8.4332   -0.3911   22.5529 C   0  0  1  0  0  0  0  0  0  0  0  0
    7.8170    0.4385   21.4279 C   0  0  0  0  0  0  0  0  0  0  0  0
    6.8319   -0.4454   20.8524 N   0  0  0  0  0  0  0  0  0  0  0  0
    6.0555   -0.0075   19.7509 C   0  0  0  0  0  0  0  0  0  0  0  0
    6.3950   -0.3200   18.4581 C   0  0  0  0  0  0  0  0  0  0  0  0
    5.7636    0.1809   17.3641 N   0  0  0  0  0  0  0  0  0  0  0  0
    4.7690    1.0120   17.5669 C   0  0  0  0  0  0  0  0  0  0  0  0
    4.3021    1.4034   18.8550 C   0  0  0  0  0  0  0  0  0  0  0  0
    3.1995    2.2829   19.0302 C   0  0  0  0  0  0  0  0  0  0  0  0
    2.7835    2.6243   20.2892 C   0  0  0  0  0  0  0  0  0  0  0  0
    3.4500    2.1170   21.4259 C   0  0  0  0  0  0  0  0  0  0  0  0
    4.5222    1.2694   21.2819 C   0  0  0  0  0  0  0  0  0  0  0  0
    4.9683    0.8907   19.9863 C   0  0  0  0  0  0  0  0  0  0  0  0
    5.0331    0.8734   22.1523 H   0  0  0  0  0  0  0  0  0  0  0  0
    3.1139    2.4011   22.4199 H   0  0  0  0  0  0  0  0  0  0  0  0
    1.9341    3.2902   20.4219 H   0  0  0  0  0  0  0  0  0  0  0  0
    2.7026    2.6749   18.1473 H   0  0  0  0  0  0  0  0  0  0  0  0
    4.2722    1.4133   16.6831 H   0  0  0  0  0  0  0  0  0  0  0  0
    7.2226   -0.9963   18.2558 H   0  0  0  0  0  0  0  0  0  0  0  0
    7.0427   -1.7772   21.1476 C   0  0  0  0  0  0  0  0  0  0  0  0
    6.3640   -2.6752   20.6923 O   0  0  0  0  0  0  0  0  0  0  0  0
    8.2083   -1.8925   22.1541 C   0  0  1  0  0  0  0  0  0  0  0  0
    9.4670   -2.4841   21.4620 C   0  0  0  0  0  0  0  0  0  0  0  0
   10.5568   -2.7573   22.4008 N   0  0  0  0  0  0  0  0  0  0  0  0
   11.9559   -2.5393   22.0585 C   0  0  0  0  0  0  0  0  0  0  0  0
   12.6258   -1.3611   22.7842 C   0  0  0  0  0  0  0  0  0  0  0  0
   13.0265   -1.4783   23.9390 O   0  0  0  0  0  0  0  0  0  0  0  0
   12.7917   -0.2015   22.0877 N   0  0  0  0  0  0  0  0  0  0  0  0
   13.6165    0.8600   22.6496 C   0  0  0  0  0  0  0  0  0  0  0  0
   13.5165    1.7976   22.0943 H   0  0  0  0  0  0  0  0  0  0  0  0
   14.6683    0.5687   22.6589 H   0  0  0  0  0  0  0  0  0  0  0  0
   13.3270    1.0411   23.6899 H   0  0  0  0  0  0  0  0  0  0  0  0
   12.4811   -0.1953   21.1326 H   0  0  0  0  0  0  0  0  0  0  0  0
   12.0323   -2.4362   20.9720 H   0  0  0  0  0  0  0  0  0  0  0  0
   12.5069   -3.4229   22.3985 H   0  0  0  0  0  0  0  0  0  0  0  0
   10.3049   -3.4631   23.5452 C   0  0  0  0  0  0  0  0  0  0  0  0
   11.1791   -3.9815   24.2253 O   0  0  0  0  0  0  0  0  0  0  0  0
    8.8709   -3.5388   23.9688 C   0  0  0  0  0  0  0  0  0  0  0  0
    8.5942   -4.3197   25.0898 C   0  0  0  0  0  0  0  0  0  0  0  0
    7.3139   -4.3878   25.6033 C   0  0  0  0  0  0  0  0  0  0  0  0
    6.3049   -3.6747   24.9557 C   0  0  0  0  0  0  0  0  0  0  0  0
    4.6804   -3.7745   25.5751 Cl  0  0  0  0  0  0  0  0  0  0  0  0
    6.5579   -2.9024   23.8313 C   0  0  0  0  0  0  0  0  0  0  0  0
    7.8651   -2.8010   23.3287 C   0  0  0  0  0  0  0  0  0  0  0  0
    5.7303   -2.4066   23.3330 H   0  0  0  0  0  0  0  0  0  0  0  0
    7.0767   -5.0017   26.4706 H   0  0  0  0  0  0  0  0  0  0  0  0
    9.4100   -4.8737   25.5492 H   0  0  0  0  0  0  0  0  0  0  0  0
    9.8032   -1.7703   20.7124 H   0  0  0  0  0  0  0  0  0  0  0  0
    9.1637   -3.4099   20.9629 H   0  0  0  0  0  0  0  0  0  0  0  0
    7.3537    1.3598   21.7943 H   0  0  0  0  0  0  0  0  0  0  0  0
    8.5945    0.7162   20.7001 H   0  0  0  0  0  0  0  0  0  0  0  0
    7.9000   -0.2118   23.4991 H   0  0  0  0  0  0  0  0  0  0  0  0
    9.3584    1.3642   24.1356 H   0  0  0  0  0  0  0  0  0  0  0  0
   11.0349    1.2323   23.6179 H   0  0  0  0  0  0  0  0  0  0  0  0
   11.2523   -0.9776   24.7976 H   0  0  0  0  0  0  0  0  0  0  0  0
    9.5413   -0.9225   25.2511 H   0  0  0  0  0  0  0  0  0  0  0  0
   10.7086    0.2556   25.8986 H   0  0  0  0  0  0  0  0  0  0  0  0
  1  2  1  0
  2  3  1  0
  3  4  1  0
  4  5  1  0
  5  6  1  0
  6  7  1  0
  7  8  2  0
  8  9  1  0
  9 10  2  0
 10 11  1  0
 11 12  2  0
 12 13  1  0
 13 14  2  0
 14 15  1  0
 15 16  2  0
 15 17  1  0
 14 18  1  0
 13 19  1  0
 12 20  1  0
 10 21  1  0
  8 22  1  0
  6 23  1  0
 23 24  2  0
 23 25  1  0
 25 26  1  6
 26 27  1  0
 27 28  1  0
 28 29  1  0
 29 30  2  0
 29 31  1  0
 31 32  1  0
 32 33  1  0
 32 34  1  0
 32 35  1  0
 31 36  1  0
 28 37  1  0
 28 38  1  0
 27 39  1  0
 39 40  2  0
 39 41  1  0
 41 42  2  0
 42 43  1  0
 43 44  2  0
 44 45  1  0
 44 46  1  0
 46 47  2  0
 46 48  1  0
 43 49  1  0
 42 50  1  0
 26 51  1  0
 26 52  1  0
  5 53  1  0
  5 54  1  0
  4 55  1  1
  2 56  1  0
  2 57  1  0
  1 58  1  0
  1 59  1  0
  1 60  1  0
 25  4  1  0
 47 41  1  0
 16  7  1  0
 47 25  1  0
 16 11  1  0
M  END
>  <cnnaffinities>  (40) 
[6.55033]

>  <score>  (40) 
6.55033

>  <index>  (40) 
39

>  <Smiles>  (40) 
C(C(O[C@]1(C(N(c2c(nc(c3c(c(c(c(c23)[H])[H])[H])[H])[H])[H])C(=O)[C@]21C(N(C(C(=O)N(C([H])([H])[H])[H])([H])[H])C(=O)c1c(c(c(Cl)c(c21)[H])[H])[H])([H])[H])([H])[H])[H])([H])[H])([H])([H])[H]

>  <h>  (40) 
<NA>

>  <Training>  (40) 
True

>  <Success>  (40) 
True

>  <enamine_searched>  (40) 
False

>  <enamine_id>  (40) 
nan

$$$$

     RDKit          3D

 57 61  0  0  0  0  0  0  0  0999 V2000
    6.9840    1.2119   29.0464 C   0  0  0  0  0  0  0  0  0  0  0  0
    7.0973    0.2015   28.0114 N   0  0  0  0  0  0  0  0  0  0  0  0
    6.2367    0.1808   26.9620 C   0  0  0  0  0  0  0  0  0  0  0  0
    5.3587    1.0152   26.8169 O   0  0  0  0  0  0  0  0  0  0  0  0
    6.4016   -0.9911   25.9745 C   0  0  0  0  0  0  0  0  0  0  0  0
    7.4304   -0.7842   24.9593 N   0  0  0  0  0  0  0  0  0  0  0  0
    7.0971   -0.1628   23.6782 C   0  0  0  0  0  0  0  0  0  0  0  0
    8.0764   -0.5628   22.5292 C   0  0  2  0  0  0  0  0  0  0  0  0
    7.6790    0.2928   21.3121 C   0  0  0  0  0  0  0  0  0  0  0  0
    7.9957    1.4375   21.0599 O   0  0  0  0  0  0  0  0  0  0  0  0
    6.8210   -0.4702   20.5404 N   0  0  0  0  0  0  0  0  0  0  0  0
    6.0205    0.0850   19.5122 C   0  0  0  0  0  0  0  0  0  0  0  0
    6.2664   -0.2545   18.2093 C   0  0  0  0  0  0  0  0  0  0  0  0
    5.5887    0.2383   17.1447 N   0  0  0  0  0  0  0  0  0  0  0  0
    4.6168    1.0845   17.3866 C   0  0  0  0  0  0  0  0  0  0  0  0
    4.2049    1.4661   18.6932 C   0  0  0  0  0  0  0  0  0  0  0  0
    3.1092    2.3459   18.9052 C   0  0  0  0  0  0  0  0  0  0  0  0
    2.7069    2.6632   20.1727 C   0  0  0  0  0  0  0  0  0  0  0  0
    3.3817    2.1166   21.2877 C   0  0  0  0  0  0  0  0  0  0  0  0
    4.4486    1.2728   21.1058 C   0  0  0  0  0  0  0  0  0  0  0  0
    4.9085    0.9414   19.8004 C   0  0  0  0  0  0  0  0  0  0  0  0
    4.9435    0.8477   21.9713 H   0  0  0  0  0  0  0  0  0  0  0  0
    3.0516    2.3677   22.2925 H   0  0  0  0  0  0  0  0  0  0  0  0
    1.8703    3.3388   20.3361 H   0  0  0  0  0  0  0  0  0  0  0  0
    2.5931    2.7555   18.0400 H   0  0  0  0  0  0  0  0  0  0  0  0
    4.0916    1.4973   16.5248 H   0  0  0  0  0  0  0  0  0  0  0  0
    7.0680   -0.9560   17.9860 H   0  0  0  0  0  0  0  0  0  0  0  0
    6.6117   -1.8013   21.0874 C   0  0  0  0  0  0  0  0  0  0  0  0
    7.8447   -1.9994   21.9645 C   0  0  2  0  0  0  0  0  0  0  0  0
    7.6941   -3.1727   22.9475 C   0  0  0  0  0  0  0  0  0  0  0  0
    8.9488   -3.6306   23.5512 C   0  0  0  0  0  0  0  0  0  0  0  0
    9.9156   -4.0459   24.0296 N   0  0  0  0  0  0  0  0  0  0  0  0
    7.2488   -4.0225   22.4205 H   0  0  0  0  0  0  0  0  0  0  0  0
    7.0214   -2.9130   23.7664 H   0  0  0  0  0  0  0  0  0  0  0  0
    8.7127   -2.2086   21.3244 H   0  0  0  0  0  0  0  0  0  0  0  0
    5.6976   -1.8550   21.7049 H   0  0  0  0  0  0  0  0  0  0  0  0
    6.5143   -2.5389   20.2921 H   0  0  0  0  0  0  0  0  0  0  0  0
    9.4783   -0.3247   23.0252 C   0  0  0  0  0  0  0  0  0  0  0  0
   10.5483   -0.0829   22.1553 C   0  0  0  0  0  0  0  0  0  0  0  0
   11.8004    0.2164   22.6664 C   0  0  0  0  0  0  0  0  0  0  0  0
   13.1661    0.4332   21.6199 Cl  0  0  0  0  0  0  0  0  0  0  0  0
   12.0078    0.3596   24.0365 C   0  0  0  0  0  0  0  0  0  0  0  0
   10.9779    0.0164   24.8852 C   0  0  0  0  0  0  0  0  0  0  0  0
    9.7421   -0.3683   24.3933 C   0  0  0  0  0  0  0  0  0  0  0  0
    8.7191   -0.8206   25.3785 C   0  0  0  0  0  0  0  0  0  0  0  0
    9.0165   -1.1504   26.5294 O   0  0  0  0  0  0  0  0  0  0  0  0
   11.0704    0.0152   25.9562 H   0  0  0  0  0  0  0  0  0  0  0  0
   12.9575    0.7211   24.4145 H   0  0  0  0  0  0  0  0  0  0  0  0
   10.3866   -0.0919   21.0862 H   0  0  0  0  0  0  0  0  0  0  0  0
    6.0680   -0.4441   23.4182 H   0  0  0  0  0  0  0  0  0  0  0  0
    7.1467    0.9354   23.7562 H   0  0  0  0  0  0  0  0  0  0  0  0
    5.4486   -1.1183   25.4608 H   0  0  0  0  0  0  0  0  0  0  0  0
    6.6395   -1.9007   26.5352 H   0  0  0  0  0  0  0  0  0  0  0  0
    7.8966   -0.4147   27.9863 H   0  0  0  0  0  0  0  0  0  0  0  0
    7.1637    2.2243   28.6615 H   0  0  0  0  0  0  0  0  0  0  0  0
    5.9778    1.2015   29.4798 H   0  0  0  0  0  0  0  0  0  0  0  0
    7.7110    0.9982   29.8397 H   0  0  0  0  0  0  0  0  0  0  0  0
  1  2  1  0
  2  3  1  0
  3  4  2  0
  3  5  1  0
  5  6  1  0
  6  7  1  0
  8  7  1  1
  8  9  1  0
  9 10  2  0
  9 11  1  0
 11 12  1  0
 12 13  2  0
 13 14  1  0
 14 15  2  0
 15 16  1  0
 16 17  2  0
 17 18  1  0
 18 19  2  0
 19 20  1  0
 20 21  2  0
 20 22  1  0
 19 23  1  0
 18 24  1  0
 17 25  1  0
 15 26  1  0
 13 27  1  0
 11 28  1  0
 28 29  1  0
 29 30  1  0
 30 31  1  0
 31 32  3  0
 30 33  1  0
 30 34  1  0
 29 35  1  6
 28 36  1  0
 28 37  1  0
  8 38  1  0
 38 39  2  0
 39 40  1  0
 40 41  1  0
 40 42  2  0
 42 43  1  0
 43 44  2  0
 44 45  1  0
 45 46  2  0
 43 47  1  0
 42 48  1  0
 39 49  1  0
  7 50  1  0
  7 51  1  0
  5 52  1  0
  5 53  1  0
  2 54  1  0
  1 55  1  0
  1 56  1  0
  1 57  1  0
 45  6  1  0
 29  8  1  0
 44 38  1  0
 21 12  1  0
 21 16  1  0
M  END
>  <cnnaffinities>  (41) 
[5.92908, 6.23802]

>  <score>  (41) 
5.92908

>  <index>  (41) 
40

>  <Smiles>  (41) 
C(N(C(=O)C(N1C([C@@]2(C(=O)N(c3c(nc(c4c(c(c(c(c34)[H])[H])[H])[H])[H])[H])C([C@@]2(C(C#N)([H])[H])[H])([H])[H])c2c(c(Cl)c(c(c2C1=O)[H])[H])[H])([H])[H])([H])[H])[H])([H])([H])[H]

>  <h>  (41) 
<NA>

>  <Training>  (41) 
True

>  <Success>  (41) 
True

>  <enamine_searched>  (41) 
False

>  <enamine_id>  (41) 
nan

$$$$

     RDKit          3D

 68 73  0  0  0  0  0  0  0  0999 V2000
    7.3812   -2.5692   23.8218 C   0  0  0  0  0  0  0  0  0  0  0  0
    7.7061   -1.8625   22.5074 C   0  0  1  0  0  0  0  0  0  0  0  0
    6.4770   -1.5766   21.6327 C   0  0  0  0  0  0  0  0  0  0  0  0
    6.8893   -0.4427   20.8266 N   0  0  0  0  0  0  0  0  0  0  0  0
    6.1276    0.0944   19.7582 C   0  0  0  0  0  0  0  0  0  0  0  0
    6.4516   -0.2164   18.4623 C   0  0  0  0  0  0  0  0  0  0  0  0
    5.7715    0.2276   17.3747 N   0  0  0  0  0  0  0  0  0  0  0  0
    4.7472    1.0184   17.5882 C   0  0  0  0  0  0  0  0  0  0  0  0
    4.2983    1.4194   18.8804 C   0  0  0  0  0  0  0  0  0  0  0  0
    3.1757    2.2728   19.0573 C   0  0  0  0  0  0  0  0  0  0  0  0
    2.7679    2.6327   20.3122 C   0  0  0  0  0  0  0  0  0  0  0  0
    3.4664    2.1633   21.4466 C   0  0  0  0  0  0  0  0  0  0  0  0
    4.5633    1.3478   21.3040 C   0  0  0  0  0  0  0  0  0  0  0  0
    5.0046    0.9467   20.0102 C   0  0  0  0  0  0  0  0  0  0  0  0
    5.0979    1.0081   22.1846 H   0  0  0  0  0  0  0  0  0  0  0  0
    3.1498    2.4729   22.4392 H   0  0  0  0  0  0  0  0  0  0  0  0
    1.9149    3.2922   20.4446 H   0  0  0  0  0  0  0  0  0  0  0  0
    2.6618    2.6366   18.1722 H   0  0  0  0  0  0  0  0  0  0  0  0
    4.2112    1.3821   16.7112 H   0  0  0  0  0  0  0  0  0  0  0  0
    7.3027   -0.8641   18.2610 H   0  0  0  0  0  0  0  0  0  0  0  0
    8.0182    0.1925   21.2862 C   0  0  0  0  0  0  0  0  0  0  0  0
    8.5533    1.1298   20.7285 O   0  0  0  0  0  0  0  0  0  0  0  0
    8.4408   -0.4922   22.6057 C   0  0  1  0  0  0  0  0  0  0  0  0
    8.0017    0.3195   23.8306 C   0  0  0  0  0  0  0  0  0  0  0  0
    8.6867    1.5875   23.9093 N   0  0  0  0  0  0  0  0  0  0  0  0
    7.9170    2.8014   24.0502 C   0  0  0  0  0  0  0  0  0  0  0  0
    7.8189    3.6470   22.7886 C   0  0  0  0  0  0  0  0  0  0  0  0
    7.0556    4.9292   23.0331 N   0  0  0  0  0  4  0  0  0  0  0  0
    5.5659    4.6844   23.1444 C   0  0  0  0  0  0  0  0  0  0  0  0
    4.8120    5.9728   23.4256 C   0  0  0  0  0  0  0  0  0  0  0  0
    5.1948    6.6094   25.0601 S   0  0  0  0  0  0  0  0  0  0  0  0
    5.3363    8.0607   24.9557 O   0  0  0  0  0  0  0  0  0  0  0  0
    4.2556    6.0180   26.0105 O   0  0  0  0  0  0  0  0  0  0  0  0
    6.8203    5.9185   25.3794 C   0  0  0  0  0  0  0  0  0  0  0  0
    7.6435    5.8585   24.0967 C   0  0  0  0  0  0  0  0  0  0  0  0
    8.6597    5.5294   24.3287 H   0  0  0  0  0  0  0  0  0  0  0  0
    7.7128    6.8557   23.6592 H   0  0  0  0  0  0  0  0  0  0  0  0
    7.2595    6.5864   26.1241 H   0  0  0  0  0  0  0  0  0  0  0  0
    6.6711    4.9310   25.8248 H   0  0  0  0  0  0  0  0  0  0  0  0
    5.0730    6.7619   22.7139 H   0  0  0  0  0  0  0  0  0  0  0  0
    3.7306    5.8276   23.4273 H   0  0  0  0  0  0  0  0  0  0  0  0
    5.3645    3.9561   23.9338 H   0  0  0  0  0  0  0  0  0  0  0  0
    5.2315    4.2563   22.1952 H   0  0  0  0  0  0  0  0  0  0  0  0
    7.1698    5.4507   22.1486 H   0  0  0  0  0  0  0  0  0  0  0  0
    7.3400    3.1110   21.9645 H   0  0  0  0  0  0  0  0  0  0  0  0
    8.8328    3.9067   22.4715 H   0  0  0  0  0  0  0  0  0  0  0  0
    8.4163    3.4435   24.7486 H   0  0  0  0  0  0  0  0  0  0  0  0
    6.9372    2.5107   24.4378 H   0  0  0  0  0  0  0  0  0  0  0  0
   10.0513    1.6629   23.8536 C   0  0  0  0  0  0  0  0  0  0  0  0
   10.6793    2.6447   24.2177 O   0  0  0  0  0  0  0  0  0  0  0  0
   10.7172    0.4513   23.2611 C   0  0  0  0  0  0  0  0  0  0  0  0
   12.1130    0.3763   23.2200 C   0  0  0  0  0  0  0  0  0  0  0  0
   12.7218   -0.6647   22.5286 C   0  0  0  0  0  0  0  0  0  0  0  0
   11.9170   -1.5959   21.8504 C   0  0  0  0  0  0  0  0  0  0  0  0
   12.4226   -2.8894   20.7829 Cl  0  0  0  0  0  0  0  0  0  0  0  0
   10.5531   -1.5480   21.9322 C   0  0  0  0  0  0  0  0  0  0  0  0
    9.9349   -0.5502   22.6671 C   0  0  0  0  0  0  0  0  0  0  0  0
   10.0325   -2.3051   21.3609 H   0  0  0  0  0  0  0  0  0  0  0  0
   13.8009   -0.7165   22.5347 H   0  0  0  0  0  0  0  0  0  0  0  0
   12.7155    1.1564   23.6913 H   0  0  0  0  0  0  0  0  0  0  0  0
    6.9298    0.5135   23.7788 H   0  0  0  0  0  0  0  0  0  0  0  0
    8.2097   -0.2776   24.7289 H   0  0  0  0  0  0  0  0  0  0  0  0
    5.6056   -1.3359   22.2585 H   0  0  0  0  0  0  0  0  0  0  0  0
    6.2110   -2.4243   20.9924 H   0  0  0  0  0  0  0  0  0  0  0  0
    8.3524   -2.5241   21.9285 H   0  0  0  0  0  0  0  0  0  0  0  0
    6.6620   -1.9885   24.4101 H   0  0  0  0  0  0  0  0  0  0  0  0
    8.2746   -2.7229   24.4387 H   0  0  0  0  0  0  0  0  0  0  0  0
    6.9357   -3.5527   23.6379 H   0  0  0  0  0  0  0  0  0  0  0  0
  1  2  1  0
  2  3  1  0
  3  4  1  0
  4  5  1  0
  5  6  2  0
  6  7  1  0
  7  8  2  0
  8  9  1  0
  9 10  2  0
 10 11  1  0
 11 12  2  0
 12 13  1  0
 13 14  2  0
 13 15  1  0
 12 16  1  0
 11 17  1  0
 10 18  1  0
  8 19  1  0
  6 20  1  0
  4 21  1  0
 21 22  2  0
 21 23  1  0
 23 24  1  1
 24 25  1  0
 25 26  1  0
 26 27  1  0
 27 28  1  0
 28 29  1  0
 29 30  1  0
 30 31  1  0
 31 32  2  0
 31 33  2  0
 31 34  1  0
 34 35  1  0
 35 36  1  0
 35 37  1  0
 34 38  1  0
 34 39  1  0
 30 40  1  0
 30 41  1  0
 29 42  1  0
 29 43  1  0
 28 44  1  0
 27 45  1  0
 27 46  1  0
 26 47  1  0
 26 48  1  0
 25 49  1  0
 49 50  2  0
 49 51  1  0
 51 52  2  0
 52 53  1  0
 53 54  2  0
 54 55  1  0
 54 56  1  0
 56 57  2  0
 56 58  1  0
 53 59  1  0
 52 60  1  0
 24 61  1  0
 24 62  1  0
  3 63  1  0
  3 64  1  0
  2 65  1  6
  1 66  1  0
  1 67  1  0
  1 68  1  0
 23  2  1  0
 35 28  1  0
 57 51  1  0
 14  5  1  0
 57 23  1  0
 14  9  1  0
M  CHG  1  28   1
M  END
>  <cnnaffinities>  (42) 
[6.65902]

>  <score>  (42) 
6.65902

>  <index>  (42) 
41

>  <Smiles>  (42) 
C([C@]1(C(N(c2c(nc(c3c(c(c(c(c23)[H])[H])[H])[H])[H])[H])C(=O)[C@]21C(N(C(C([N+]1(C(C(S(=O)(=O)C(C1([H])[H])([H])[H])([H])[H])([H])[H])[H])([H])[H])([H])[H])C(=O)c1c(c(c(Cl)c(c21)[H])[H])[H])([H])[H])([H])[H])[H])([H])([H])[H]

>  <h>  (42) 
<NA>

>  <Training>  (42) 
True

>  <Success>  (42) 
True

>  <enamine_searched>  (42) 
False

>  <enamine_id>  (42) 
nan

$$$$

     RDKit          3D

 60 65  0  0  0  0  0  0  0  0999 V2000
   13.7869   -0.2134   23.9049 C   0  0  0  0  0  0  0  0  0  0  0  0
   12.9560   -1.3445   23.5531 N   0  0  0  0  0  0  0  0  0  0  0  0
   12.4780   -1.3348   22.2854 C   0  0  0  0  0  0  0  0  0  0  0  0
   12.5276   -0.3125   21.6068 O   0  0  0  0  0  0  0  0  0  0  0  0
   11.8977   -2.6408   21.7622 C   0  0  0  0  0  0  0  0  0  0  0  0
   10.5308   -2.8524   22.2063 N   0  0  0  0  0  0  0  0  0  0  0  0
    9.3908   -2.5354   21.3556 C   0  0  0  0  0  0  0  0  0  0  0  0
    8.1768   -1.9290   22.1213 C   0  0  2  0  0  0  0  0  0  0  0  0
    6.9951   -1.8071   21.1335 C   0  0  0  0  0  0  0  0  0  0  0  0
    6.3152   -2.7061   20.6832 O   0  0  0  0  0  0  0  0  0  0  0  0
    6.8084   -0.4698   20.8346 N   0  0  0  0  0  0  0  0  0  0  0  0
    6.0454   -0.0074   19.7394 C   0  0  0  0  0  0  0  0  0  0  0  0
    6.3979   -0.3026   18.4470 C   0  0  0  0  0  0  0  0  0  0  0  0
    5.7645    0.2029   17.3580 N   0  0  0  0  0  0  0  0  0  0  0  0
    4.7602    1.0216   17.5605 C   0  0  0  0  0  0  0  0  0  0  0  0
    4.2969    1.4104   18.8509 C   0  0  0  0  0  0  0  0  0  0  0  0
    3.1899    2.2796   19.0338 C   0  0  0  0  0  0  0  0  0  0  0  0
    2.7769    2.6177   20.2939 C   0  0  0  0  0  0  0  0  0  0  0  0
    3.4543    2.1159   21.4285 C   0  0  0  0  0  0  0  0  0  0  0  0
    4.5293    1.2768   21.2767 C   0  0  0  0  0  0  0  0  0  0  0  0
    4.9668    0.8969   19.9797 C   0  0  0  0  0  0  0  0  0  0  0  0
    5.0495    0.8841   22.1445 H   0  0  0  0  0  0  0  0  0  0  0  0
    3.1258    2.3932   22.4258 H   0  0  0  0  0  0  0  0  0  0  0  0
    1.9222    3.2736   20.4350 H   0  0  0  0  0  0  0  0  0  0  0  0
    2.6822    2.6662   18.1545 H   0  0  0  0  0  0  0  0  0  0  0  0
    4.2512    1.4175   16.6796 H   0  0  0  0  0  0  0  0  0  0  0  0
    7.2389   -0.9614   18.2397 H   0  0  0  0  0  0  0  0  0  0  0  0
    7.7455    0.4211   21.4808 C   0  0  0  0  0  0  0  0  0  0  0  0
    8.3472   -0.4311   22.5979 C   0  0  2  0  0  0  0  0  0  0  0  0
    9.8048   -0.0629   22.8775 C   0  0  0  0  0  0  0  0  0  0  0  0
   10.2009    1.3060   23.3210 C   0  0  0  0  0  0  0  0  0  0  0  0
   10.1263    2.3675   22.5267 N   0  0  0  0  0  0  0  0  0  0  0  0
   10.7039    3.3541   23.2032 N   0  0  0  0  0  0  0  0  0  0  0  0
   11.1083    2.9129   24.3592 N   0  0  0  0  0  2  0  0  0  0  0  0
   10.8160    1.6158   24.4593 N   0  0  0  0  0  0  0  0  0  0  0  0
   10.3242   -0.1738   21.9209 H   0  0  0  0  0  0  0  0  0  0  0  0
   10.2203   -0.7763   23.5796 H   0  0  0  0  0  0  0  0  0  0  0  0
    7.7265   -0.3246   23.4965 H   0  0  0  0  0  0  0  0  0  0  0  0
    8.5347    0.7573   20.7941 H   0  0  0  0  0  0  0  0  0  0  0  0
    7.2583    1.3319   21.8452 H   0  0  0  0  0  0  0  0  0  0  0  0
    7.8986   -2.8738   23.2741 C   0  0  0  0  0  0  0  0  0  0  0  0
    6.6142   -2.9640   23.8217 C   0  0  0  0  0  0  0  0  0  0  0  0
    6.3976   -3.7375   24.9496 C   0  0  0  0  0  0  0  0  0  0  0  0
    4.7961   -3.8381   25.6246 Cl  0  0  0  0  0  0  0  0  0  0  0  0
    7.4351   -4.4532   25.5490 C   0  0  0  0  0  0  0  0  0  0  0  0
    8.7054   -4.3711   25.0061 C   0  0  0  0  0  0  0  0  0  0  0  0
    8.9454   -3.5799   23.8854 C   0  0  0  0  0  0  0  0  0  0  0  0
   10.3602   -3.4413   23.4197 C   0  0  0  0  0  0  0  0  0  0  0  0
   11.3117   -3.7857   24.1202 O   0  0  0  0  0  0  0  0  0  0  0  0
    9.5441   -4.9037   25.4452 H   0  0  0  0  0  0  0  0  0  0  0  0
    7.2368   -5.0927   26.4039 H   0  0  0  0  0  0  0  0  0  0  0  0
    5.7794   -2.4470   23.3606 H   0  0  0  0  0  0  0  0  0  0  0  0
    9.6993   -1.8490   20.5636 H   0  0  0  0  0  0  0  0  0  0  0  0
    9.0528   -3.4685   20.9029 H   0  0  0  0  0  0  0  0  0  0  0  0
   11.9397   -2.6319   20.6719 H   0  0  0  0  0  0  0  0  0  0  0  0
   12.5047   -3.4721   22.1319 H   0  0  0  0  0  0  0  0  0  0  0  0
   13.0300   -2.2185   24.0589 H   0  0  0  0  0  0  0  0  0  0  0  0
   13.2182    0.7135   23.8790 H   0  0  0  0  0  0  0  0  0  0  0  0
   14.2276   -0.3560   24.8874 H   0  0  0  0  0  0  0  0  0  0  0  0
   14.5630   -0.0835   23.1526 H   0  0  0  0  0  0  0  0  0  0  0  0
  1  2  1  0
  2  3  1  0
  3  4  2  0
  3  5  1  0
  5  6  1  0
  6  7  1  0
  8  7  1  6
  8  9  1  0
  9 10  2  0
  9 11  1  0
 11 12  1  0
 12 13  2  0
 13 14  1  0
 14 15  2  0
 15 16  1  0
 16 17  2  0
 17 18  1  0
 18 19  2  0
 19 20  1  0
 20 21  2  0
 20 22  1  0
 19 23  1  0
 18 24  1  0
 17 25  1  0
 15 26  1  0
 13 27  1  0
 11 28  1  0
 28 29  1  0
 29 30  1  0
 30 31  1  0
 31 32  1  0
 32 33  2  0
 33 34  1  0
 34 35  1  0
 30 36  1  0
 30 37  1  0
 29 38  1  1
 28 39  1  0
 28 40  1  0
  8 41  1  0
 41 42  2  0
 42 43  1  0
 43 44  1  0
 43 45  2  0
 45 46  1  0
 46 47  2  0
 47 48  1  0
 48 49  2  0
 46 50  1  0
 45 51  1  0
 42 52  1  0
  7 53  1  0
  7 54  1  0
  5 55  1  0
  5 56  1  0
  2 57  1  0
  1 58  1  0
  1 59  1  0
  1 60  1  0
 48  6  1  0
 29  8  1  0
 35 31  2  0
 47 41  1  0
 21 12  1  0
 21 16  1  0
M  CHG  1  34  -1
M  END
>  <cnnaffinities>  (43) 
[6.73272]

>  <score>  (43) 
6.73272

>  <index>  (43) 
42

>  <Smiles>  (43) 
C(N(C(=O)C(N1C([C@@]2(C(=O)N(c3c(nc(c4c(c(c(c(c34)[H])[H])[H])[H])[H])[H])C([C@@]2(C(c2nn[n-]n2)([H])[H])[H])([H])[H])c2c(c(Cl)c(c(c2C1=O)[H])[H])[H])([H])[H])([H])[H])[H])([H])([H])[H]

>  <h>  (43) 
<NA>

>  <Training>  (43) 
True

>  <Success>  (43) 
True

>  <enamine_searched>  (43) 
False

>  <enamine_id>  (43) 
nan

$$$$

     RDKit          3D

 62 67  0  0  0  0  0  0  0  0999 V2000
    3.8080   -2.4079   25.2403 C   0  0  0  0  0  0  0  0  0  0  0  0
    4.2751   -2.4816   26.6858 C   0  0  0  0  0  0  0  0  0  0  0  0
    5.6258   -2.9962   26.8089 N   0  0  0  0  0  0  0  0  0  0  0  0
    5.7693   -4.3084   27.0537 N   0  0  0  0  0  0  0  0  0  0  0  0
    7.0787   -4.5056   27.0917 C   0  0  0  0  0  0  0  0  0  0  0  0
    7.7840   -3.3162   26.8619 C   0  0  0  0  0  0  0  0  0  0  0  0
    6.8139   -2.3516   26.6322 C   0  0  0  0  0  0  0  0  0  0  0  0
    6.9151   -0.8631   26.3104 C   0  0  0  0  0  0  0  0  0  0  0  0
    7.7395   -0.4989   25.1531 N   0  0  0  0  0  0  0  0  0  0  0  0
    7.2286   -0.0092   23.8918 C   0  0  0  0  0  0  0  0  0  0  0  0
    8.1216   -0.4446   22.6876 C   0  0  2  0  0  0  0  0  0  0  0  0
    7.6164    0.3666   21.5093 C   0  0  0  0  0  0  0  0  0  0  0  0
    7.7697    1.5540   21.2986 O   0  0  0  0  0  0  0  0  0  0  0  0
    6.8644   -0.4610   20.7275 N   0  0  0  0  0  0  0  0  0  0  0  0
    6.0819    0.0757   19.6992 C   0  0  0  0  0  0  0  0  0  0  0  0
    6.4068   -0.2355   18.4086 C   0  0  0  0  0  0  0  0  0  0  0  0
    5.7458    0.2343   17.3277 N   0  0  0  0  0  0  0  0  0  0  0  0
    4.7329    1.0372   17.5588 C   0  0  0  0  0  0  0  0  0  0  0  0
    4.2923    1.4213   18.8592 C   0  0  0  0  0  0  0  0  0  0  0  0
    3.1748    2.2746   19.0400 C   0  0  0  0  0  0  0  0  0  0  0  0
    2.7469    2.6119   20.2935 C   0  0  0  0  0  0  0  0  0  0  0  0
    3.4194    2.1153   21.4338 C   0  0  0  0  0  0  0  0  0  0  0  0
    4.5087    1.2950   21.2902 C   0  0  0  0  0  0  0  0  0  0  0  0
    4.9787    0.9328   19.9869 C   0  0  0  0  0  0  0  0  0  0  0  0
    5.0098    0.9335   22.1839 H   0  0  0  0  0  0  0  0  0  0  0  0
    3.0659    2.3852   22.4253 H   0  0  0  0  0  0  0  0  0  0  0  0
    1.8863    3.2600   20.4244 H   0  0  0  0  0  0  0  0  0  0  0  0
    2.6704    2.6487   18.1554 H   0  0  0  0  0  0  0  0  0  0  0  0
    4.1872    1.4131   16.6935 H   0  0  0  0  0  0  0  0  0  0  0  0
    7.2655   -0.8816   18.2271 H   0  0  0  0  0  0  0  0  0  0  0  0
    6.7543   -1.8229   21.2057 C   0  0  0  0  0  0  0  0  0  0  0  0
    7.8945   -1.9291   22.2239 C   0  0  2  0  0  0  0  0  0  0  0  0
    7.6447   -2.9671   23.3175 C   0  0  0  0  0  0  0  0  0  0  0  0
    8.4673   -2.9721   24.0426 H   0  0  0  0  0  0  0  0  0  0  0  0
    7.5552   -3.9694   22.8840 H   0  0  0  0  0  0  0  0  0  0  0  0
    6.7129   -2.7535   23.8517 H   0  0  0  0  0  0  0  0  0  0  0  0
    8.8108   -2.2172   21.6866 H   0  0  0  0  0  0  0  0  0  0  0  0
    5.7794   -2.0017   21.6815 H   0  0  0  0  0  0  0  0  0  0  0  0
    6.8487   -2.5104   20.3675 H   0  0  0  0  0  0  0  0  0  0  0  0
    9.5652   -0.1485   22.9655 C   0  0  0  0  0  0  0  0  0  0  0  0
   10.5177   -0.0081   21.9556 C   0  0  0  0  0  0  0  0  0  0  0  0
   11.8415    0.1688   22.3198 C   0  0  0  0  0  0  0  0  0  0  0  0
   12.7906    0.2056   21.3800 F   0  0  0  0  0  0  0  0  0  0  0  0
   12.2574    0.2853   23.6402 C   0  0  0  0  0  0  0  0  0  0  0  0
   11.2992    0.1506   24.6173 C   0  0  0  0  0  0  0  0  0  0  0  0
    9.9827   -0.1417   24.2812 C   0  0  0  0  0  0  0  0  0  0  0  0
    9.0721   -0.6834   25.3118 C   0  0  0  0  0  0  0  0  0  0  0  0
    9.5058   -1.2863   26.2755 O   0  0  0  0  0  0  0  0  0  0  0  0
   11.5511    0.2430   25.6573 H   0  0  0  0  0  0  0  0  0  0  0  0
   13.3137    0.4094   23.8670 H   0  0  0  0  0  0  0  0  0  0  0  0
   10.2160   -0.0722   20.9166 H   0  0  0  0  0  0  0  0  0  0  0  0
    6.2085   -0.3814   23.7248 H   0  0  0  0  0  0  0  0  0  0  0  0
    7.1979    1.0918   23.8889 H   0  0  0  0  0  0  0  0  0  0  0  0
    5.9246   -0.4203   26.1726 H   0  0  0  0  0  0  0  0  0  0  0  0
    7.3739   -0.3609   27.1691 H   0  0  0  0  0  0  0  0  0  0  0  0
    8.8515   -3.1770   26.8814 H   0  0  0  0  0  0  0  0  0  0  0  0
    7.4733   -5.5005   27.2637 H   0  0  0  0  0  0  0  0  0  0  0  0
    3.6526   -3.1685   27.2606 H   0  0  0  0  0  0  0  0  0  0  0  0
    4.2118   -1.5047   27.1735 H   0  0  0  0  0  0  0  0  0  0  0  0
    3.8620   -3.3980   24.7820 H   0  0  0  0  0  0  0  0  0  0  0  0
    4.4359   -1.7258   24.6554 H   0  0  0  0  0  0  0  0  0  0  0  0
    2.7747   -2.0538   25.2052 H   0  0  0  0  0  0  0  0  0  0  0  0
  1  2  1  0
  2  3  1  0
  3  4  1  0
  4  5  2  0
  5  6  1  0
  6  7  2  0
  7  8  1  0
  8  9  1  0
  9 10  1  0
 11 10  1  1
 11 12  1  0
 12 13  2  0
 12 14  1  0
 14 15  1  0
 15 16  2  0
 16 17  1  0
 17 18  2  0
 18 19  1  0
 19 20  2  0
 20 21  1  0
 21 22  2  0
 22 23  1  0
 23 24  2  0
 23 25  1  0
 22 26  1  0
 21 27  1  0
 20 28  1  0
 18 29  1  0
 16 30  1  0
 14 31  1  0
 31 32  1  0
 32 33  1  0
 33 34  1  0
 33 35  1  0
 33 36  1  0
 32 37  1  6
 31 38  1  0
 31 39  1  0
 11 40  1  0
 40 41  2  0
 41 42  1  0
 42 43  1  0
 42 44  2  0
 44 45  1  0
 45 46  2  0
 46 47  1  0
 47 48  2  0
 45 49  1  0
 44 50  1  0
 41 51  1  0
 10 52  1  0
 10 53  1  0
  8 54  1  0
  8 55  1  0
  6 56  1  0
  5 57  1  0
  2 58  1  0
  2 59  1  0
  1 60  1  0
  1 61  1  0
  1 62  1  0
  7  3  1  0
 47  9  1  0
 32 11  1  0
 46 40  1  0
 24 15  1  0
 24 19  1  0
M  END
>  <cnnaffinities>  (44) 
[6.43651]

>  <score>  (44) 
6.43651

>  <index>  (44) 
43

>  <Smiles>  (44) 
C(C(n1nc(c(c1C(N1C([C@@]2(C(=O)N(c3c(nc(c4c(c(c(c(c34)[H])[H])[H])[H])[H])[H])C([C@@]2(C([H])([H])[H])[H])([H])[H])c2c(c(F)c(c(c2C1=O)[H])[H])[H])([H])[H])([H])[H])[H])[H])([H])[H])([H])([H])[H]

>  <h>  (44) 
<NA>

>  <Training>  (44) 
True

>  <Success>  (44) 
True

>  <enamine_searched>  (44) 
False

>  <enamine_id>  (44) 
nan

$$$$

     RDKit          3D

 56 60  0  0  0  0  0  0  0  0999 V2000
    6.5831    4.4666   21.2869 C   0  0  0  0  0  0  0  0  0  0  0  0
    7.5020    4.0642   22.3332 N   0  0  0  0  0  0  0  0  0  0  0  0
    7.0024    3.3475   23.3747 C   0  0  0  0  0  0  0  0  0  0  0  0
    5.8156    3.0704   23.4838 O   0  0  0  0  0  0  0  0  0  0  0  0
    8.0238    2.9178   24.4120 C   0  0  0  0  0  0  0  0  0  0  0  0
    8.7020    1.7027   24.0262 N   0  0  0  0  0  0  0  0  0  0  0  0
    7.9339    0.4719   23.9163 C   0  0  0  0  0  0  0  0  0  0  0  0
    8.3495   -0.3239   22.6666 C   0  0  2  0  0  0  0  0  0  0  0  0
    7.8778    0.3511   21.3700 C   0  0  0  0  0  0  0  0  0  0  0  0
    8.2998    1.3708   20.8677 O   0  0  0  0  0  0  0  0  0  0  0  0
    6.8885   -0.4228   20.8125 N   0  0  0  0  0  0  0  0  0  0  0  0
    6.1171    0.0911   19.7456 C   0  0  0  0  0  0  0  0  0  0  0  0
    6.4587   -0.2146   18.4551 C   0  0  0  0  0  0  0  0  0  0  0  0
    5.7867    0.2280   17.3648 N   0  0  0  0  0  0  0  0  0  0  0  0
    4.7589    1.0161   17.5797 C   0  0  0  0  0  0  0  0  0  0  0  0
    4.3088    1.4193   18.8709 C   0  0  0  0  0  0  0  0  0  0  0  0
    3.1907    2.2748   19.0514 C   0  0  0  0  0  0  0  0  0  0  0  0
    2.7818    2.6323   20.3080 C   0  0  0  0  0  0  0  0  0  0  0  0
    3.4741    2.1643   21.4474 C   0  0  0  0  0  0  0  0  0  0  0  0
    4.5621    1.3372   21.3014 C   0  0  0  0  0  0  0  0  0  0  0  0
    5.0046    0.9436   20.0039 C   0  0  0  0  0  0  0  0  0  0  0  0
    5.0989    1.0079   22.1875 H   0  0  0  0  0  0  0  0  0  0  0  0
    3.1655    2.4755   22.4419 H   0  0  0  0  0  0  0  0  0  0  0  0
    1.9211    3.2827   20.4351 H   0  0  0  0  0  0  0  0  0  0  0  0
    2.6781    2.6399   18.1666 H   0  0  0  0  0  0  0  0  0  0  0  0
    4.2117    1.3720   16.7073 H   0  0  0  0  0  0  0  0  0  0  0  0
    7.3260   -0.8478   18.2746 H   0  0  0  0  0  0  0  0  0  0  0  0
    6.5281   -1.5995   21.5740 C   0  0  0  0  0  0  0  0  0  0  0  0
    7.6839   -1.7320   22.5743 C   0  0  2  0  0  0  0  0  0  0  0  0
    7.3637   -2.5071   23.8509 C   0  0  0  0  0  0  0  0  0  0  0  0
    5.8968   -1.9669   24.7310 Cl  0  0  0  0  0  0  0  0  0  0  0  0
    8.1988   -2.4576   24.5549 H   0  0  0  0  0  0  0  0  0  0  0  0
    7.1964   -3.5588   23.6047 H   0  0  0  0  0  0  0  0  0  0  0  0
    8.4309   -2.3757   22.1087 H   0  0  0  0  0  0  0  0  0  0  0  0
    6.4587   -2.4742   20.9153 H   0  0  0  0  0  0  0  0  0  0  0  0
    5.5648   -1.4701   22.0848 H   0  0  0  0  0  0  0  0  0  0  0  0
    9.8521   -0.3604   22.6132 C   0  0  0  0  0  0  0  0  0  0  0  0
   10.4306   -1.2623   21.7330 C   0  0  0  0  0  0  0  0  0  0  0  0
   11.7921   -1.4232   21.7006 C   0  0  0  0  0  0  0  0  0  0  0  0
   12.2896   -2.7945   20.7541 Cl  0  0  0  0  0  0  0  0  0  0  0  0
   12.6353   -0.5661   22.4186 C   0  0  0  0  0  0  0  0  0  0  0  0
   12.0598    0.4190   23.2004 C   0  0  0  0  0  0  0  0  0  0  0  0
   10.6754    0.5345   23.2940 C   0  0  0  0  0  0  0  0  0  0  0  0
   10.0766    1.6858   24.0395 C   0  0  0  0  0  0  0  0  0  0  0  0
   10.7505    2.5571   24.5714 O   0  0  0  0  0  0  0  0  0  0  0  0
   12.6816    1.1231   23.7406 H   0  0  0  0  0  0  0  0  0  0  0  0
   13.7143   -0.6112   22.3448 H   0  0  0  0  0  0  0  0  0  0  0  0
    9.8101   -1.8366   21.0559 H   0  0  0  0  0  0  0  0  0  0  0  0
    8.1224   -0.1612   24.7948 H   0  0  0  0  0  0  0  0  0  0  0  0
    6.8637    0.7157   23.8961 H   0  0  0  0  0  0  0  0  0  0  0  0
    7.5020    2.7965   25.3715 H   0  0  0  0  0  0  0  0  0  0  0  0
    8.8082    3.6729   24.5060 H   0  0  0  0  0  0  0  0  0  0  0  0
    8.4816    3.9589   22.1001 H   0  0  0  0  0  0  0  0  0  0  0  0
    5.8229    5.1264   21.7101 H   0  0  0  0  0  0  0  0  0  0  0  0
    6.0697    3.5962   20.8597 H   0  0  0  0  0  0  0  0  0  0  0  0
    7.1143    5.0034   20.5012 H   0  0  0  0  0  0  0  0  0  0  0  0
  1  2  1  0
  2  3  1  0
  3  4  2  0
  3  5  1  0
  5  6  1  0
  6  7  1  0
  8  7  1  1
  8  9  1  0
  9 10  2  0
  9 11  1  0
 11 12  1  0
 12 13  2  0
 13 14  1  0
 14 15  2  0
 15 16  1  0
 16 17  2  0
 17 18  1  0
 18 19  2  0
 19 20  1  0
 20 21  2  0
 20 22  1  0
 19 23  1  0
 18 24  1  0
 17 25  1  0
 15 26  1  0
 13 27  1  0
 11 28  1  0
 28 29  1  0
 29 30  1  0
 30 31  1  0
 30 32  1  0
 30 33  1  0
 29 34  1  6
 28 35  1  0
 28 36  1  0
  8 37  1  0
 37 38  2  0
 38 39  1  0
 39 40  1  0
 39 41  2  0
 41 42  1  0
 42 43  2  0
 43 44  1  0
 44 45  2  0
 42 46  1  0
 41 47  1  0
 38 48  1  0
  7 49  1  0
  7 50  1  0
  5 51  1  0
  5 52  1  0
  2 53  1  0
  1 54  1  0
  1 55  1  0
  1 56  1  0
 44  6  1  0
 29  8  1  0
 43 37  1  0
 21 12  1  0
 21 16  1  0
M  END
>  <cnnaffinities>  (45) 
[6.26705, 6.36322]

>  <score>  (45) 
6.26705

>  <index>  (45) 
44

>  <Smiles>  (45) 
C(N(C(=O)C(N1C([C@@]2(C(=O)N(c3c(nc(c4c(c(c(c(c34)[H])[H])[H])[H])[H])[H])C([C@@]2(C(Cl)([H])[H])[H])([H])[H])c2c(c(Cl)c(c(c2C1=O)[H])[H])[H])([H])[H])([H])[H])[H])([H])([H])[H]

>  <h>  (45) 
<NA>

>  <Training>  (45) 
True

>  <Success>  (45) 
True

>  <enamine_searched>  (45) 
False

>  <enamine_id>  (45) 
nan

$$$$

     RDKit          3D

 60 64  0  0  0  0  0  0  0  0999 V2000
    6.5743    4.4770   21.2904 C   0  0  0  0  0  0  0  0  0  0  0  0
    7.4903    4.0753   22.3414 N   0  0  0  0  0  0  0  0  0  0  0  0
    6.9908    3.3528   23.3803 C   0  0  0  0  0  0  0  0  0  0  0  0
    5.8045    3.0731   23.4874 O   0  0  0  0  0  0  0  0  0  0  0  0
    8.0118    2.9219   24.4190 C   0  0  0  0  0  0  0  0  0  0  0  0
    8.6895    1.7035   24.0383 N   0  0  0  0  0  0  0  0  0  0  0  0
    7.9281    0.4682   23.9324 C   0  0  0  0  0  0  0  0  0  0  0  0
    8.3384   -0.3296   22.6790 C   0  0  2  0  0  0  0  0  0  0  0  0
    7.8623    0.3516   21.3835 C   0  0  0  0  0  0  0  0  0  0  0  0
    8.2739    1.3831   20.8946 O   0  0  0  0  0  0  0  0  0  0  0  0
    6.8797   -0.4251   20.8212 N   0  0  0  0  0  0  0  0  0  0  0  0
    6.1132    0.0878   19.7504 C   0  0  0  0  0  0  0  0  0  0  0  0
    6.4565   -0.2164   18.4595 C   0  0  0  0  0  0  0  0  0  0  0  0
    5.7860    0.2276   17.3684 N   0  0  0  0  0  0  0  0  0  0  0  0
    4.7582    1.0160   17.5797 C   0  0  0  0  0  0  0  0  0  0  0  0
    4.3066    1.4195   18.8702 C   0  0  0  0  0  0  0  0  0  0  0  0
    3.1890    2.2760   19.0494 C   0  0  0  0  0  0  0  0  0  0  0  0
    2.7794    2.6346   20.3057 C   0  0  0  0  0  0  0  0  0  0  0  0
    3.4710    2.1663   21.4454 C   0  0  0  0  0  0  0  0  0  0  0  0
    4.5578    1.3381   21.2998 C   0  0  0  0  0  0  0  0  0  0  0  0
    5.0014    0.9426   20.0037 C   0  0  0  0  0  0  0  0  0  0  0  0
    5.0939    1.0063   22.1855 H   0  0  0  0  0  0  0  0  0  0  0  0
    3.1630    2.4779   22.4399 H   0  0  0  0  0  0  0  0  0  0  0  0
    1.9182    3.2840   20.4325 H   0  0  0  0  0  0  0  0  0  0  0  0
    2.6773    2.6418   18.1642 H   0  0  0  0  0  0  0  0  0  0  0  0
    4.2136    1.3737   16.7058 H   0  0  0  0  0  0  0  0  0  0  0  0
    7.3227   -0.8492   18.2753 H   0  0  0  0  0  0  0  0  0  0  0  0
    6.5300   -1.6083   21.5787 C   0  0  0  0  0  0  0  0  0  0  0  0
    7.6857   -1.7455   22.5743 C   0  0  2  0  0  0  0  0  0  0  0  0
    7.3104   -2.4751   23.8554 C   0  0  0  0  0  0  0  0  0  0  0  0
    6.1960   -1.8595   24.4574 O   0  0  0  0  0  0  0  0  0  0  0  0
    5.8690   -2.4313   25.6976 C   0  0  0  0  0  0  0  0  0  0  0  0
    4.9949   -1.8977   26.0758 H   0  0  0  0  0  0  0  0  0  0  0  0
    6.6924   -2.3249   26.4218 H   0  0  0  0  0  0  0  0  0  0  0  0
    5.6203   -3.4999   25.6002 H   0  0  0  0  0  0  0  0  0  0  0  0
    7.0780   -3.5287   23.6191 H   0  0  0  0  0  0  0  0  0  0  0  0
    8.1728   -2.4846   24.5462 H   0  0  0  0  0  0  0  0  0  0  0  0
    8.4368   -2.3940   22.1218 H   0  0  0  0  0  0  0  0  0  0  0  0
    5.5752   -1.4852   22.1042 H   0  0  0  0  0  0  0  0  0  0  0  0
    6.4549   -2.4753   20.9127 H   0  0  0  0  0  0  0  0  0  0  0  0
    9.8400   -0.3581   22.6205 C   0  0  0  0  0  0  0  0  0  0  0  0
   10.4182   -1.2595   21.7388 C   0  0  0  0  0  0  0  0  0  0  0  0
   11.7812   -1.4139   21.6965 C   0  0  0  0  0  0  0  0  0  0  0  0
   12.2892   -2.7837   20.7503 Cl  0  0  0  0  0  0  0  0  0  0  0  0
   12.6274   -0.5528   22.4059 C   0  0  0  0  0  0  0  0  0  0  0  0
   12.0503    0.4328   23.1866 C   0  0  0  0  0  0  0  0  0  0  0  0
   10.6642    0.5450   23.2885 C   0  0  0  0  0  0  0  0  0  0  0  0
   10.0638    1.6949   24.0345 C   0  0  0  0  0  0  0  0  0  0  0  0
   10.7390    2.5705   24.5551 O   0  0  0  0  0  0  0  0  0  0  0  0
   12.6724    1.1425   23.7196 H   0  0  0  0  0  0  0  0  0  0  0  0
   13.7085   -0.5948   22.3299 H   0  0  0  0  0  0  0  0  0  0  0  0
    9.8054   -1.8434   21.0630 H   0  0  0  0  0  0  0  0  0  0  0  0
    8.1203   -0.1559   24.8124 H   0  0  0  0  0  0  0  0  0  0  0  0
    6.8624    0.7049   23.9158 H   0  0  0  0  0  0  0  0  0  0  0  0
    8.7944    3.6806   24.5109 H   0  0  0  0  0  0  0  0  0  0  0  0
    7.4896    2.8076   25.3797 H   0  0  0  0  0  0  0  0  0  0  0  0
    8.4700    3.9709   22.1089 H   0  0  0  0  0  0  0  0  0  0  0  0
    7.1098    5.0210   20.5129 H   0  0  0  0  0  0  0  0  0  0  0  0
    5.8128    5.1396   21.7077 H   0  0  0  0  0  0  0  0  0  0  0  0
    6.0663    3.6076   20.8512 H   0  0  0  0  0  0  0  0  0  0  0  0
  1  2  1  0
  2  3  1  0
  3  4  2  0
  3  5  1  0
  5  6  1  0
  6  7  1  0
  8  7  1  1
  8  9  1  0
  9 10  2  0
  9 11  1  0
 11 12  1  0
 12 13  2  0
 13 14  1  0
 14 15  2  0
 15 16  1  0
 16 17  2  0
 17 18  1  0
 18 19  2  0
 19 20  1  0
 20 21  2  0
 20 22  1  0
 19 23  1  0
 18 24  1  0
 17 25  1  0
 15 26  1  0
 13 27  1  0
 11 28  1  0
 28 29  1  0
 29 30  1  0
 30 31  1  0
 31 32  1  0
 32 33  1  0
 32 34  1  0
 32 35  1  0
 30 36  1  0
 30 37  1  0
 29 38  1  6
 28 39  1  0
 28 40  1  0
  8 41  1  0
 41 42  2  0
 42 43  1  0
 43 44  1  0
 43 45  2  0
 45 46  1  0
 46 47  2  0
 47 48  1  0
 48 49  2  0
 46 50  1  0
 45 51  1  0
 42 52  1  0
  7 53  1  0
  7 54  1  0
  5 55  1  0
  5 56  1  0
  2 57  1  0
  1 58  1  0
  1 59  1  0
  1 60  1  0
 48  6  1  0
 29  8  1  0
 47 41  1  0
 21 12  1  0
 21 16  1  0
M  END
>  <cnnaffinities>  (46) 
[6.18961]

>  <score>  (46) 
6.18961

>  <index>  (46) 
45

>  <Smiles>  (46) 
C(N(C(=O)C(N1C([C@@]2(C(=O)N(c3c(nc(c4c(c(c(c(c34)[H])[H])[H])[H])[H])[H])C([C@@]2(C(OC([H])([H])[H])([H])[H])[H])([H])[H])c2c(c(Cl)c(c(c2C1=O)[H])[H])[H])([H])[H])([H])[H])[H])([H])([H])[H]

>  <h>  (46) 
<NA>

>  <Training>  (46) 
True

>  <Success>  (46) 
True

>  <enamine_searched>  (46) 
False

>  <enamine_id>  (46) 
nan

$$$$

     RDKit          3D

 64 68  0  0  0  0  0  0  0  0999 V2000
   10.7818    3.8494   23.4835 C   0  0  0  0  0  0  0  0  0  0  0  0
   10.3823    2.5805   22.7391 C   0  0  0  0  0  0  0  0  0  0  0  0
    9.8731    1.3758   23.9564 S   0  0  0  0  0  0  0  0  0  0  0  0
    8.5714    1.7737   24.4678 O   0  0  0  0  0  0  0  0  0  0  0  0
   10.9930    1.1648   24.8582 O   0  0  0  0  0  0  0  0  0  0  0  0
    9.6397   -0.0149   23.0787 N   0  0  0  0  0  0  0  0  0  0  0  0
    8.3136   -0.3786   22.6148 C   0  0  1  0  0  0  0  0  0  0  0  0
    7.7853    0.4506   21.4395 C   0  0  0  0  0  0  0  0  0  0  0  0
    6.8276   -0.4514   20.8397 N   0  0  0  0  0  0  0  0  0  0  0  0
    6.0423   -0.0174   19.7453 C   0  0  0  0  0  0  0  0  0  0  0  0
    6.3793   -0.3352   18.4536 C   0  0  0  0  0  0  0  0  0  0  0  0
    5.7533    0.1717   17.3597 N   0  0  0  0  0  0  0  0  0  0  0  0
    4.7640    1.0106   17.5584 C   0  0  0  0  0  0  0  0  0  0  0  0
    4.2937    1.4023   18.8462 C   0  0  0  0  0  0  0  0  0  0  0  0
    3.1975    2.2887   19.0231 C   0  0  0  0  0  0  0  0  0  0  0  0
    2.7794    2.6321   20.2806 C   0  0  0  0  0  0  0  0  0  0  0  0
    3.4408    2.1186   21.4188 C   0  0  0  0  0  0  0  0  0  0  0  0
    4.5057    1.2641   21.2717 C   0  0  0  0  0  0  0  0  0  0  0  0
    4.9548    0.8832   19.9786 C   0  0  0  0  0  0  0  0  0  0  0  0
    5.0114    0.8671   22.1451 H   0  0  0  0  0  0  0  0  0  0  0  0
    3.1095    2.4068   22.4128 H   0  0  0  0  0  0  0  0  0  0  0  0
    1.9337    3.3018   20.4142 H   0  0  0  0  0  0  0  0  0  0  0  0
    2.7021    2.6866   18.1416 H   0  0  0  0  0  0  0  0  0  0  0  0
    4.2795    1.4233   16.6729 H   0  0  0  0  0  0  0  0  0  0  0  0
    7.2023   -1.0191   18.2555 H   0  0  0  0  0  0  0  0  0  0  0  0
    7.0241   -1.7815   21.1662 C   0  0  0  0  0  0  0  0  0  0  0  0
    6.3600   -2.6930   20.7169 O   0  0  0  0  0  0  0  0  0  0  0  0
    8.1734   -1.8715   22.1897 C   0  0  1  0  0  0  0  0  0  0  0  0
    9.4540   -2.4328   21.4963 C   0  0  0  0  0  0  0  0  0  0  0  0
   10.5504   -2.7075   22.4365 N   0  0  0  0  0  0  0  0  0  0  0  0
   11.9667   -2.5060   22.1267 C   0  0  0  0  0  0  0  0  0  0  0  0
   12.5612   -1.3073   22.8892 C   0  0  0  0  0  0  0  0  0  0  0  0
   12.6815   -1.3383   24.0941 O   0  0  0  0  0  0  0  0  0  0  0  0
   12.8431   -0.1815   22.1390 N   0  0  0  0  0  0  0  0  0  0  0  0
   13.5856    0.9124   22.7722 C   0  0  0  0  0  0  0  0  0  0  0  0
   13.2112    0.9950   23.7976 H   0  0  0  0  0  0  0  0  0  0  0  0
   13.3979    1.8495   22.2336 H   0  0  0  0  0  0  0  0  0  0  0  0
   14.6681    0.7356   22.7730 H   0  0  0  0  0  0  0  0  0  0  0  0
   13.0749   -0.3880   21.1736 H   0  0  0  0  0  0  0  0  0  0  0  0
   12.1191   -2.4210   21.0507 H   0  0  0  0  0  0  0  0  0  0  0  0
   12.5013   -3.3855   22.4996 H   0  0  0  0  0  0  0  0  0  0  0  0
   10.3037   -3.4563   23.5577 C   0  0  0  0  0  0  0  0  0  0  0  0
   11.1820   -4.0285   24.1866 O   0  0  0  0  0  0  0  0  0  0  0  0
    8.8802   -3.5157   23.9997 C   0  0  0  0  0  0  0  0  0  0  0  0
    8.6186   -4.2988   25.1216 C   0  0  0  0  0  0  0  0  0  0  0  0
    7.3405   -4.3930   25.6306 C   0  0  0  0  0  0  0  0  0  0  0  0
    6.3176   -3.7073   24.9747 C   0  0  0  0  0  0  0  0  0  0  0  0
    4.6952   -3.8667   25.5856 Cl  0  0  0  0  0  0  0  0  0  0  0  0
    6.5583   -2.9229   23.8564 C   0  0  0  0  0  0  0  0  0  0  0  0
    7.8635   -2.7943   23.3588 C   0  0  0  0  0  0  0  0  0  0  0  0
    5.7187   -2.4501   23.3554 H   0  0  0  0  0  0  0  0  0  0  0  0
    7.1246   -5.0167   26.4945 H   0  0  0  0  0  0  0  0  0  0  0  0
    9.4525   -4.8267   25.5724 H   0  0  0  0  0  0  0  0  0  0  0  0
    9.7971   -1.7358   20.7260 H   0  0  0  0  0  0  0  0  0  0  0  0
    9.1493   -3.3648   21.0057 H   0  0  0  0  0  0  0  0  0  0  0  0
    7.2936    1.3717   21.7716 H   0  0  0  0  0  0  0  0  0  0  0  0
    8.5749    0.7286   20.7196 H   0  0  0  0  0  0  0  0  0  0  0  0
    7.6353   -0.2304   23.4581 H   0  0  0  0  0  0  0  0  0  0  0  0
   10.3989   -0.2095   22.4311 H   0  0  0  0  0  0  0  0  0  0  0  0
   11.2223    2.1385   22.1910 H   0  0  0  0  0  0  0  0  0  0  0  0
    9.5460    2.7215   22.0481 H   0  0  0  0  0  0  0  0  0  0  0  0
   11.6795    3.6589   24.0812 H   0  0  0  0  0  0  0  0  0  0  0  0
   10.9834    4.6652   22.7834 H   0  0  0  0  0  0  0  0  0  0  0  0
    9.9762    4.1442   24.1637 H   0  0  0  0  0  0  0  0  0  0  0  0
  1  2  1  0
  2  3  1  0
  3  4  2  0
  3  5  2  0
  3  6  1  0
  6  7  1  0
  7  8  1  0
  8  9  1  0
  9 10  1  0
 10 11  2  0
 11 12  1  0
 12 13  2  0
 13 14  1  0
 14 15  2  0
 15 16  1  0
 16 17  2  0
 17 18  1  0
 18 19  2  0
 18 20  1  0
 17 21  1  0
 16 22  1  0
 15 23  1  0
 13 24  1  0
 11 25  1  0
  9 26  1  0
 26 27  2  0
 26 28  1  0
 28 29  1  6
 29 30  1  0
 30 31  1  0
 31 32  1  0
 32 33  2  0
 32 34  1  0
 34 35  1  0
 35 36  1  0
 35 37  1  0
 35 38  1  0
 34 39  1  0
 31 40  1  0
 31 41  1  0
 30 42  1  0
 42 43  2  0
 42 44  1  0
 44 45  2  0
 45 46  1  0
 46 47  2  0
 47 48  1  0
 47 49  1  0
 49 50  2  0
 49 51  1  0
 46 52  1  0
 45 53  1  0
 29 54  1  0
 29 55  1  0
  8 56  1  0
  8 57  1  0
  7 58  1  1
  6 59  1  0
  2 60  1  0
  2 61  1  0
  1 62  1  0
  1 63  1  0
  1 64  1  0
 28  7  1  0
 50 44  1  0
 19 10  1  0
 50 28  1  0
 19 14  1  0
M  END
>  <cnnaffinities>  (47) 
[6.88491]

>  <score>  (47) 
6.88491

>  <index>  (47) 
46

>  <Smiles>  (47) 
C(C(S(=O)(=O)N([C@]1(C(N(c2c(nc(c3c(c(c(c(c23)[H])[H])[H])[H])[H])[H])C(=O)[C@]21C(N(C(C(=O)N(C([H])([H])[H])[H])([H])[H])C(=O)c1c(c(c(Cl)c(c21)[H])[H])[H])([H])[H])([H])[H])[H])[H])([H])[H])([H])([H])[H]

>  <h>  (47) 
<NA>

>  <Training>  (47) 
True

>  <Success>  (47) 
True

>  <enamine_searched>  (47) 
False

>  <enamine_id>  (47) 
nan

$$$$

     RDKit          3D

 56 60  0  0  0  0  0  0  0  0999 V2000
    6.5604    4.4492   21.2894 C   0  0  0  0  0  0  0  0  0  0  0  0
    7.4937    4.0406   22.3264 N   0  0  0  0  0  0  0  0  0  0  0  0
    7.0012    3.3072   23.3640 C   0  0  0  0  0  0  0  0  0  0  0  0
    5.8156    3.0289   23.4800 O   0  0  0  0  0  0  0  0  0  0  0  0
    8.0226    2.8699   24.4023 C   0  0  0  0  0  0  0  0  0  0  0  0
    8.7041    1.6603   24.0015 N   0  0  0  0  0  0  0  0  0  0  0  0
    7.9621    0.4164   23.8981 C   0  0  0  0  0  0  0  0  0  0  0  0
    8.3769   -0.3589   22.6353 C   0  0  2  0  0  0  0  0  0  0  0  0
    7.8889    0.3412   21.3492 C   0  0  0  0  0  0  0  0  0  0  0  0
    8.3047    1.3704   20.8578 O   0  0  0  0  0  0  0  0  0  0  0  0
    6.8867   -0.4215   20.8072 N   0  0  0  0  0  0  0  0  0  0  0  0
    6.1151    0.0929   19.7432 C   0  0  0  0  0  0  0  0  0  0  0  0
    6.4600   -0.2110   18.4547 C   0  0  0  0  0  0  0  0  0  0  0  0
    5.7859    0.2277   17.3665 N   0  0  0  0  0  0  0  0  0  0  0  0
    4.7578    1.0146   17.5802 C   0  0  0  0  0  0  0  0  0  0  0  0
    4.3062    1.4179   18.8698 C   0  0  0  0  0  0  0  0  0  0  0  0
    3.1892    2.2738   19.0504 C   0  0  0  0  0  0  0  0  0  0  0  0
    2.7827    2.6333   20.3061 C   0  0  0  0  0  0  0  0  0  0  0  0
    3.4750    2.1649   21.4449 C   0  0  0  0  0  0  0  0  0  0  0  0
    4.5591    1.3350   21.2990 C   0  0  0  0  0  0  0  0  0  0  0  0
    5.0012    0.9407   20.0031 C   0  0  0  0  0  0  0  0  0  0  0  0
    5.0995    1.0114   22.1844 H   0  0  0  0  0  0  0  0  0  0  0  0
    3.1692    2.4811   22.4393 H   0  0  0  0  0  0  0  0  0  0  0  0
    1.9220    3.2842   20.4324 H   0  0  0  0  0  0  0  0  0  0  0  0
    2.6788    2.6397   18.1642 H   0  0  0  0  0  0  0  0  0  0  0  0
    4.2131    1.3708   16.7057 H   0  0  0  0  0  0  0  0  0  0  0  0
    7.3263   -0.8444   18.2710 H   0  0  0  0  0  0  0  0  0  0  0  0
    6.5291   -1.5951   21.5743 C   0  0  0  0  0  0  0  0  0  0  0  0
    7.7117   -1.7675   22.5376 C   0  0  2  0  0  0  0  0  0  0  0  0
    7.3351   -2.4554   23.8456 C   0  0  0  0  0  0  0  0  0  0  0  0
    6.9356   -3.4553   23.6443 H   0  0  0  0  0  0  0  0  0  0  0  0
    6.5701   -1.8874   24.3863 H   0  0  0  0  0  0  0  0  0  0  0  0
    8.2056   -2.5706   24.5015 H   0  0  0  0  0  0  0  0  0  0  0  0
    8.4287   -2.4266   22.0440 H   0  0  0  0  0  0  0  0  0  0  0  0
    5.5831   -1.4567   22.1204 H   0  0  0  0  0  0  0  0  0  0  0  0
    6.4097   -2.4559   20.9097 H   0  0  0  0  0  0  0  0  0  0  0  0
    9.8789   -0.3931   22.5910 C   0  0  0  0  0  0  0  0  0  0  0  0
   10.4741   -1.2947   21.7217 C   0  0  0  0  0  0  0  0  0  0  0  0
   11.8383   -1.3486   21.6307 C   0  0  0  0  0  0  0  0  0  0  0  0
   12.3060   -2.2997   20.8109 F   0  0  0  0  0  0  0  0  0  0  0  0
   12.6733   -0.4821   22.3365 C   0  0  0  0  0  0  0  0  0  0  0  0
   12.0783    0.4607   23.1485 C   0  0  0  0  0  0  0  0  0  0  0  0
   10.6942    0.5278   23.2514 C   0  0  0  0  0  0  0  0  0  0  0  0
   10.0764    1.6683   23.9877 C   0  0  0  0  0  0  0  0  0  0  0  0
   10.7368    2.5603   24.4994 O   0  0  0  0  0  0  0  0  0  0  0  0
   12.6618    1.1848   23.7044 H   0  0  0  0  0  0  0  0  0  0  0  0
   13.7476   -0.4886   22.2412 H   0  0  0  0  0  0  0  0  0  0  0  0
    9.9115   -1.9654   21.0845 H   0  0  0  0  0  0  0  0  0  0  0  0
    6.8886    0.6343   23.8892 H   0  0  0  0  0  0  0  0  0  0  0  0
    8.1855   -0.2147   24.7695 H   0  0  0  0  0  0  0  0  0  0  0  0
    7.4989    2.7483   25.3645 H   0  0  0  0  0  0  0  0  0  0  0  0
    8.8047    3.6284   24.4992 H   0  0  0  0  0  0  0  0  0  0  0  0
    8.4748    3.9287   22.0761 H   0  0  0  0  0  0  0  0  0  0  0  0
    7.0944    5.0009   20.5140 H   0  0  0  0  0  0  0  0  0  0  0  0
    6.0502    3.5746   20.8514 H   0  0  0  0  0  0  0  0  0  0  0  0
    5.8048    5.1105   21.7307 H   0  0  0  0  0  0  0  0  0  0  0  0
  1  2  1  0
  2  3  1  0
  3  4  2  0
  3  5  1  0
  5  6  1  0
  6  7  1  0
  8  7  1  1
  8  9  1  0
  9 10  2  0
  9 11  1  0
 11 12  1  0
 12 13  2  0
 13 14  1  0
 14 15  2  0
 15 16  1  0
 16 17  2  0
 17 18  1  0
 18 19  2  0
 19 20  1  0
 20 21  2  0
 20 22  1  0
 19 23  1  0
 18 24  1  0
 17 25  1  0
 15 26  1  0
 13 27  1  0
 11 28  1  0
 28 29  1  0
 29 30  1  0
 30 31  1  0
 30 32  1  0
 30 33  1  0
 29 34  1  6
 28 35  1  0
 28 36  1  0
  8 37  1  0
 37 38  2  0
 38 39  1  0
 39 40  1  0
 39 41  2  0
 41 42  1  0
 42 43  2  0
 43 44  1  0
 44 45  2  0
 42 46  1  0
 41 47  1  0
 38 48  1  0
  7 49  1  0
  7 50  1  0
  5 51  1  0
  5 52  1  0
  2 53  1  0
  1 54  1  0
  1 55  1  0
  1 56  1  0
 44  6  1  0
 29  8  1  0
 43 37  1  0
 21 12  1  0
 21 16  1  0
M  END
>  <cnnaffinities>  (48) 
[6.22384]

>  <score>  (48) 
6.22384

>  <index>  (48) 
47

>  <Smiles>  (48) 
C(N(C(=O)C(N1C([C@@]2(C(=O)N(c3c(nc(c4c(c(c(c(c34)[H])[H])[H])[H])[H])[H])C([C@@]2(C([H])([H])[H])[H])([H])[H])c2c(c(F)c(c(c2C1=O)[H])[H])[H])([H])[H])([H])[H])[H])([H])([H])[H]

>  <h>  (48) 
<NA>

>  <Training>  (48) 
True

>  <Success>  (48) 
True

>  <enamine_searched>  (48) 
False

>  <enamine_id>  (48) 
nan

$$$$

     RDKit          3D

 41 43  0  0  0  0  0  0  0  0999 V2000
   10.9104   -2.4509   23.7817 C   0  0  0  0  0  0  0  0  0  0  0  0
   10.0169   -1.2723   23.4539 C   0  0  1  0  0  0  0  0  0  0  0  0
    8.5428   -1.5712   23.7522 C   0  0  0  0  0  0  0  0  0  0  0  0
    7.6635   -0.3153   23.8322 C   0  0  0  0  0  0  0  0  0  0  0  0
    8.0159    0.7493   22.8950 N   0  0  0  0  0  0  0  0  0  0  0  0
    7.8627    0.6365   21.5251 C   0  0  0  0  0  0  0  0  0  0  0  0
    8.4369    1.3983   20.7660 O   0  0  0  0  0  0  0  0  0  0  0  0
    6.9378   -0.4475   20.9201 C   0  0  0  0  0  0  0  0  0  0  0  0
    6.1114    0.0853   19.7676 C   0  0  0  0  0  0  0  0  0  0  0  0
    6.4264   -0.2076   18.4631 C   0  0  0  0  0  0  0  0  0  0  0  0
    5.7597    0.2399   17.3634 N   0  0  0  0  0  0  0  0  0  0  0  0
    4.7346    1.0302   17.5744 C   0  0  0  0  0  0  0  0  0  0  0  0
    4.2868    1.4240   18.8671 C   0  0  0  0  0  0  0  0  0  0  0  0
    3.1691    2.2810   19.0429 C   0  0  0  0  0  0  0  0  0  0  0  0
    2.7639    2.6455   20.2994 C   0  0  0  0  0  0  0  0  0  0  0  0
    3.4626    2.1677   21.4304 C   0  0  0  0  0  0  0  0  0  0  0  0
    4.5479    1.3381   21.2864 C   0  0  0  0  0  0  0  0  0  0  0  0
    4.9917    0.9422   19.9959 C   0  0  0  0  0  0  0  0  0  0  0  0
    5.0729    0.9906   22.1706 H   0  0  0  0  0  0  0  0  0  0  0  0
    3.1371    2.4644   22.4223 H   0  0  0  0  0  0  0  0  0  0  0  0
    1.9111    3.3052   20.4361 H   0  0  0  0  0  0  0  0  0  0  0  0
    2.6460    2.6494   18.1634 H   0  0  0  0  0  0  0  0  0  0  0  0
    4.1987    1.3999   16.6989 H   0  0  0  0  0  0  0  0  0  0  0  0
    7.2734   -0.8569   18.2450 H   0  0  0  0  0  0  0  0  0  0  0  0
    7.5902   -1.2395   20.5270 H   0  0  0  0  0  0  0  0  0  0  0  0
    6.2860   -0.9123   21.6670 H   0  0  0  0  0  0  0  0  0  0  0  0
    9.0465    1.6766   23.3767 C   0  0  0  0  0  0  0  0  0  0  0  0
   10.4538    1.0769   23.4669 C   0  0  0  0  0  0  0  0  0  0  0  0
   10.4942   -0.1436   24.1786 O   0  0  0  0  0  0  0  0  0  0  0  0
   10.8640    0.9352   22.4566 H   0  0  0  0  0  0  0  0  0  0  0  0
   11.1268    1.7683   23.9981 H   0  0  0  0  0  0  0  0  0  0  0  0
    8.7545    1.9998   24.3795 H   0  0  0  0  0  0  0  0  0  0  0  0
    9.0633    2.5594   22.7337 H   0  0  0  0  0  0  0  0  0  0  0  0
    6.6073   -0.5753   23.7194 H   0  0  0  0  0  0  0  0  0  0  0  0
    7.7550    0.1105   24.8317 H   0  0  0  0  0  0  0  0  0  0  0  0
    8.4668   -2.1275   24.6966 H   0  0  0  0  0  0  0  0  0  0  0  0
    8.1656   -2.2443   22.9721 H   0  0  0  0  0  0  0  0  0  0  0  0
   10.1181   -1.0532   22.3863 H   0  0  0  0  0  0  0  0  0  0  0  0
   10.5947   -3.3350   23.2193 H   0  0  0  0  0  0  0  0  0  0  0  0
   11.9464   -2.2260   23.5142 H   0  0  0  0  0  0  0  0  0  0  0  0
   10.8690   -2.6761   24.8496 H   0  0  0  0  0  0  0  0  0  0  0  0
  1  2  1  0
  2  3  1  0
  3  4  1  0
  4  5  1  0
  5  6  1  0
  6  7  2  0
  6  8  1  0
  8  9  1  0
  9 10  2  0
 10 11  1  0
 11 12  2  0
 12 13  1  0
 13 14  2  0
 14 15  1  0
 15 16  2  0
 16 17  1  0
 17 18  2  0
 17 19  1  0
 16 20  1  0
 15 21  1  0
 14 22  1  0
 12 23  1  0
 10 24  1  0
  8 25  1  0
  8 26  1  0
  5 27  1  0
 27 28  1  0
 28 29  1  0
 28 30  1  0
 28 31  1  0
 27 32  1  0
 27 33  1  0
  4 34  1  0
  4 35  1  0
  3 36  1  0
  3 37  1  0
  2 38  1  6
  1 39  1  0
  1 40  1  0
  1 41  1  0
 29  2  1  0
 18  9  1  0
 18 13  1  0
M  END
>  <cnnaffinities>  (49) 
[5.44983, 5.03741]

>  <score>  (49) 
5.44983

>  <index>  (49) 
48

>  <Smiles>  (49) 
C([C@]1(C(C(N(C(=O)C(c2c(nc(c3c(c(c(c(c23)[H])[H])[H])[H])[H])[H])([H])[H])C(C(O1)([H])[H])([H])[H])([H])[H])([H])[H])[H])([H])([H])[H]

>  <h>  (49) 
<NA>

>  <Training>  (49) 
True

>  <Success>  (49) 
True

>  <enamine_searched>  (49) 
False

>  <enamine_id>  (49) 
nan

$$$$

     RDKit          3D

 42 45  0  0  0  0  0  0  0  0999 V2000
   10.4625   -3.7117   23.5818 C   0  0  0  0  0  0  0  0  0  0  0  0
    9.5163   -2.6181   23.5220 N   0  0  0  0  0  0  0  0  0  0  0  0
    8.8666   -2.2023   22.2942 C   0  0  0  0  0  0  0  0  0  0  0  0
    8.8403   -0.6617   22.2645 C   0  0  1  0  0  0  0  0  0  0  0  0
    8.1305   -0.0839   21.0538 C   0  0  0  0  0  0  0  0  0  0  0  0
    8.6198    0.8050   20.3797 O   0  0  0  0  0  0  0  0  0  0  0  0
    6.8649   -0.5637   20.7995 N   0  0  0  0  0  0  0  0  0  0  0  0
    6.0941    0.0008   19.7515 C   0  0  0  0  0  0  0  0  0  0  0  0
    6.4537   -0.2410   18.4544 C   0  0  0  0  0  0  0  0  0  0  0  0
    5.7891    0.2269   17.3699 N   0  0  0  0  0  0  0  0  0  0  0  0
    4.7536    0.9984   17.5926 C   0  0  0  0  0  0  0  0  0  0  0  0
    4.2990    1.3705   18.8889 C   0  0  0  0  0  0  0  0  0  0  0  0
    3.2010    2.2476   19.0706 C   0  0  0  0  0  0  0  0  0  0  0  0
    2.8199    2.6238   20.3259 C   0  0  0  0  0  0  0  0  0  0  0  0
    3.5303    2.1635   21.4569 C   0  0  0  0  0  0  0  0  0  0  0  0
    4.6027    1.3167   21.3135 C   0  0  0  0  0  0  0  0  0  0  0  0
    4.9927    0.8769   20.0179 C   0  0  0  0  0  0  0  0  0  0  0  0
    5.1640    1.0053   22.1927 H   0  0  0  0  0  0  0  0  0  0  0  0
    3.2269    2.4958   22.4442 H   0  0  0  0  0  0  0  0  0  0  0  0
    1.9829    3.3011   20.4621 H   0  0  0  0  0  0  0  0  0  0  0  0
    2.6964    2.6285   18.1880 H   0  0  0  0  0  0  0  0  0  0  0  0
    4.2279    1.3808   16.7179 H   0  0  0  0  0  0  0  0  0  0  0  0
    7.3366   -0.8431   18.2530 H   0  0  0  0  0  0  0  0  0  0  0  0
    6.3910   -1.1177   21.4972 H   0  0  0  0  0  0  0  0  0  0  0  0
    8.2135   -0.1234   23.5416 C   0  0  0  0  0  0  0  0  0  0  0  0
    7.6124    1.1409   23.6102 C   0  0  0  0  0  0  0  0  0  0  0  0
    6.9202    1.5108   24.7569 C   0  0  0  0  0  0  0  0  0  0  0  0
    6.1347    3.0706   24.8082 Cl  0  0  0  0  0  0  0  0  0  0  0  0
    6.8080    0.6501   25.8504 C   0  0  0  0  0  0  0  0  0  0  0  0
    7.4785   -0.5620   25.8067 C   0  0  0  0  0  0  0  0  0  0  0  0
    8.2129   -0.9274   24.6783 C   0  0  0  0  0  0  0  0  0  0  0  0
    9.0407   -2.1726   24.7227 C   0  0  0  0  0  0  0  0  0  0  0  0
    9.2985   -2.7523   25.7681 O   0  0  0  0  0  0  0  0  0  0  0  0
    7.4460   -1.2429   26.6522 H   0  0  0  0  0  0  0  0  0  0  0  0
    6.2051    0.9225   26.7120 H   0  0  0  0  0  0  0  0  0  0  0  0
    7.6356    1.8209   22.7627 H   0  0  0  0  0  0  0  0  0  0  0  0
    9.8646   -0.2823   22.1789 H   0  0  0  0  0  0  0  0  0  0  0  0
    7.8405   -2.5971   22.2221 H   0  0  0  0  0  0  0  0  0  0  0  0
    9.4003   -2.5980   21.4250 H   0  0  0  0  0  0  0  0  0  0  0  0
   11.3476   -3.4231   24.1521 H   0  0  0  0  0  0  0  0  0  0  0  0
   10.0265   -4.5680   24.1010 H   0  0  0  0  0  0  0  0  0  0  0  0
   10.7652   -3.9857   22.5732 H   0  0  0  0  0  0  0  0  0  0  0  0
  1  2  1  0
  2  3  1  0
  3  4  1  0
  4  5  1  0
  5  6  2  0
  5  7  1  0
  7  8  1  0
  8  9  2  0
  9 10  1  0
 10 11  2  0
 11 12  1  0
 12 13  2  0
 13 14  1  0
 14 15  2  0
 15 16  1  0
 16 17  2  0
 16 18  1  0
 15 19  1  0
 14 20  1  0
 13 21  1  0
 11 22  1  0
  9 23  1  0
  7 24  1  0
  4 25  1  0
 25 26  2  0
 26 27  1  0
 27 28  1  0
 27 29  2  0
 29 30  1  0
 30 31  2  0
 31 32  1  0
 32 33  2  0
 30 34  1  0
 29 35  1  0
 26 36  1  0
  4 37  1  6
  3 38  1  0
  3 39  1  0
  1 40  1  0
  1 41  1  0
  1 42  1  0
 32  2  1  0
 17  8  1  0
 31 25  1  0
 17 12  1  0
M  END
>  <cnnaffinities>  (50) 
[5.40552, 5.89382]

>  <score>  (50) 
5.40552

>  <index>  (50) 
49

>  <Smiles>  (50) 
C(N1C([C@@](C(=O)N(c2c(nc(c3c(c(c(c(c23)[H])[H])[H])[H])[H])[H])[H])(c2c(c(Cl)c(c(c2C1=O)[H])[H])[H])[H])([H])[H])([H])([H])[H]

>  <h>  (50) 
<NA>

>  <Training>  (50) 
True

>  <Success>  (50) 
True

>  <enamine_searched>  (50) 
False

>  <enamine_id>  (50) 
nan

$$$$

     RDKit          3D

 38 41  0  0  0  0  0  0  0  0999 V2000
    5.6399   -2.5173   20.9016 O   0  0  0  0  0  0  0  0  0  0  0  0
    6.1437   -1.6528   21.5940 C   0  0  0  0  0  0  0  0  0  0  0  0
    6.9113   -0.4912   20.9168 C   0  0  0  0  0  0  0  0  0  0  0  0
    6.1177    0.0930   19.7644 C   0  0  0  0  0  0  0  0  0  0  0  0
    6.4219   -0.2142   18.4622 C   0  0  0  0  0  0  0  0  0  0  0  0
    5.7561    0.2363   17.3626 N   0  0  0  0  0  0  0  0  0  0  0  0
    4.7356    1.0316   17.5745 C   0  0  0  0  0  0  0  0  0  0  0  0
    4.2867    1.4246   18.8670 C   0  0  0  0  0  0  0  0  0  0  0  0
    3.1636    2.2748   19.0434 C   0  0  0  0  0  0  0  0  0  0  0  0
    2.7488    2.6269   20.2996 C   0  0  0  0  0  0  0  0  0  0  0  0
    3.4405    2.1406   21.4316 C   0  0  0  0  0  0  0  0  0  0  0  0
    4.5320    1.3194   21.2868 C   0  0  0  0  0  0  0  0  0  0  0  0
    4.9905    0.9412   19.9957 C   0  0  0  0  0  0  0  0  0  0  0  0
    5.0504    0.9598   22.1709 H   0  0  0  0  0  0  0  0  0  0  0  0
    3.1065    2.4280   22.4234 H   0  0  0  0  0  0  0  0  0  0  0  0
    1.8916    3.2808   20.4360 H   0  0  0  0  0  0  0  0  0  0  0  0
    2.6426    2.6451   18.1632 H   0  0  0  0  0  0  0  0  0  0  0  0
    4.1986    1.4002   16.6989 H   0  0  0  0  0  0  0  0  0  0  0  0
    7.2664   -0.8675   18.2460 H   0  0  0  0  0  0  0  0  0  0  0  0
    7.8445   -0.9081   20.5181 H   0  0  0  0  0  0  0  0  0  0  0  0
    7.1887    0.3029   21.6211 H   0  0  0  0  0  0  0  0  0  0  0  0
    6.0051   -1.6581   22.9712 N   0  0  0  0  0  0  0  0  0  0  0  0
    4.7760   -2.1821   23.5721 C   0  0  0  0  0  0  0  0  0  0  0  0
    5.0735   -3.1829   24.6834 C   0  0  0  0  0  0  0  0  0  0  0  0
    6.1265   -2.6302   25.5931 C   0  0  0  0  0  0  0  0  0  0  0  0
    6.4272   -3.1790   27.2086 S   0  0  0  0  0  0  0  0  0  0  0  0
    7.7553   -2.0881   27.3739 C   0  0  0  0  0  0  0  0  0  0  0  0
    7.9446   -1.3462   26.2461 C   0  0  0  0  0  0  0  0  0  0  0  0
    6.9998   -1.6577   25.2225 C   0  0  0  0  0  0  0  0  0  0  0  0
    6.9450   -1.0040   23.8655 C   0  0  0  0  0  0  0  0  0  0  0  0
    6.7224    0.0675   23.9991 H   0  0  0  0  0  0  0  0  0  0  0  0
    7.9489   -1.0428   23.4324 H   0  0  0  0  0  0  0  0  0  0  0  0
    8.7365   -0.6136   26.1397 H   0  0  0  0  0  0  0  0  0  0  0  0
    8.3259   -2.0614   28.2943 H   0  0  0  0  0  0  0  0  0  0  0  0
    4.1595   -3.4306   25.2331 H   0  0  0  0  0  0  0  0  0  0  0  0
    5.4311   -4.1210   24.2433 H   0  0  0  0  0  0  0  0  0  0  0  0
    4.1803   -1.3544   23.9845 H   0  0  0  0  0  0  0  0  0  0  0  0
    4.1809   -2.6469   22.7849 H   0  0  0  0  0  0  0  0  0  0  0  0
  1  2  2  0
  2  3  1  0
  3  4  1  0
  4  5  2  0
  5  6  1  0
  6  7  2  0
  7  8  1  0
  8  9  2  0
  9 10  1  0
 10 11  2  0
 11 12  1  0
 12 13  2  0
 12 14  1  0
 11 15  1  0
 10 16  1  0
  9 17  1  0
  7 18  1  0
  5 19  1  0
  3 20  1  0
  3 21  1  0
  2 22  1  0
 22 23  1  0
 23 24  1  0
 24 25  1  0
 25 26  1  0
 26 27  1  0
 27 28  2  0
 28 29  1  0
 29 30  1  0
 30 31  1  0
 30 32  1  0
 28 33  1  0
 27 34  1  0
 24 35  1  0
 24 36  1  0
 23 37  1  0
 23 38  1  0
 13  4  1  0
 30 22  1  0
 13  8  1  0
 29 25  2  0
M  END
>  <cnnaffinities>  (51) 
[5.27213, 5.22891, 5.21876]

>  <score>  (51) 
5.27213

>  <index>  (51) 
50

>  <Smiles>  (51) 
O=C(C(c1c(nc(c2c(c(c(c(c12)[H])[H])[H])[H])[H])[H])([H])[H])N1C(C(c2sc(c(c2C1([H])[H])[H])[H])([H])[H])([H])[H]

>  <h>  (51) 
<NA>

>  <Training>  (51) 
True

>  <Success>  (51) 
True

>  <enamine_searched>  (51) 
False

>  <enamine_id>  (51) 
nan

$$$$

     RDKit          3D

 67 73  0  0  0  0  0  0  0  0999 V2000
    7.1665    1.9266   30.0592 C   0  0  0  0  0  0  0  0  0  0  0  0
    6.6381    1.3866   28.7798 C   0  0  0  0  0  0  0  0  0  0  0  0
    5.6393    1.8114   28.0812 N   0  0  0  0  0  0  0  0  0  0  0  0
    5.5241    0.9538   26.9939 N   0  0  0  0  0  0  0  0  0  0  0  0
    6.4638    0.0839   27.1144 C   0  0  0  0  0  0  0  0  0  0  0  0
    6.6966   -1.2170   26.3682 C   0  0  0  0  0  0  0  0  0  0  0  0
    6.8034   -1.3562   24.9814 N   0  0  0  0  0  0  0  0  0  0  0  0
    7.1663   -0.2636   24.1657 C   0  0  0  0  0  0  0  0  0  0  0  0
    8.2380   -0.5310   22.9856 C   0  0  2  0  0  0  0  0  0  0  0  0
    7.7716    0.3943   21.8188 C   0  0  0  0  0  0  0  0  0  0  0  0
    7.9888    1.5792   21.6805 O   0  0  0  0  0  0  0  0  0  0  0  0
    7.0017   -0.3567   20.9450 N   0  0  0  0  0  0  0  0  0  0  0  0
    6.2282    0.1601   19.8715 C   0  0  0  0  0  0  0  0  0  0  0  0
    6.5228   -0.2266   18.5860 C   0  0  0  0  0  0  0  0  0  0  0  0
    5.8543    0.1816   17.4797 N   0  0  0  0  0  0  0  0  0  0  0  0
    4.8335    0.9856   17.6497 C   0  0  0  0  0  0  0  0  0  0  0  0
    4.3721    1.4154   18.9242 C   0  0  0  0  0  0  0  0  0  0  0  0
    3.2286    2.2497   19.0517 C   0  0  0  0  0  0  0  0  0  0  0  0
    2.7569    2.5985   20.2869 C   0  0  0  0  0  0  0  0  0  0  0  0
    3.4106    2.1281   21.4482 C   0  0  0  0  0  0  0  0  0  0  0  0
    4.5336    1.3431   21.3485 C   0  0  0  0  0  0  0  0  0  0  0  0
    5.0631    0.9782   20.0793 C   0  0  0  0  0  0  0  0  0  0  0  0
    5.0175    0.9962   22.2536 H   0  0  0  0  0  0  0  0  0  0  0  0
    3.0276    2.3933   22.4295 H   0  0  0  0  0  0  0  0  0  0  0  0
    1.8839    3.2399   20.3866 H   0  0  0  0  0  0  0  0  0  0  0  0
    2.7414    2.6040   18.1462 H   0  0  0  0  0  0  0  0  0  0  0  0
    4.3000    1.3196   16.7573 H   0  0  0  0  0  0  0  0  0  0  0  0
    7.3578   -0.9023   18.4022 H   0  0  0  0  0  0  0  0  0  0  0  0
    6.9137   -1.7519   21.3240 C   0  0  0  0  0  0  0  0  0  0  0  0
    8.0897   -1.9203   22.2888 C   0  0  2  0  0  0  0  0  0  0  0  0
    7.9553   -3.1149   23.2338 C   0  0  0  0  0  0  0  0  0  0  0  0
    8.0362   -4.4124   22.6001 N   0  0  0  0  0  0  0  0  0  0  0  0
    6.9606   -5.0545   22.0748 C   0  0  0  0  0  0  0  0  0  0  0  0
    5.6271   -4.7728   22.4434 C   0  0  0  0  0  0  0  0  0  0  0  0
    4.6615   -5.5535   21.8456 C   0  0  0  0  0  0  0  0  0  0  0  0
    4.9374   -6.5053   20.9475 N   0  0  0  0  0  0  0  0  0  0  0  0
    6.2176   -6.6567   20.6622 C   0  0  0  0  0  0  0  0  0  0  0  0
    7.2496   -6.0214   21.1915 N   0  0  0  0  0  0  0  0  0  0  0  0
    6.4478   -7.3796   19.8844 H   0  0  0  0  0  0  0  0  0  0  0  0
    3.6064   -5.4020   22.0743 H   0  0  0  0  0  0  0  0  0  0  0  0
    5.3644   -3.9898   23.1520 H   0  0  0  0  0  0  0  0  0  0  0  0
    8.9018   -4.6399   22.1242 H   0  0  0  0  0  0  0  0  0  0  0  0
    8.7273   -3.0427   24.0079 H   0  0  0  0  0  0  0  0  0  0  0  0
    7.0054   -3.0240   23.7409 H   0  0  0  0  0  0  0  0  0  0  0  0
    9.0072   -2.0537   21.6905 H   0  0  0  0  0  0  0  0  0  0  0  0
    6.9781   -2.3870   20.4394 H   0  0  0  0  0  0  0  0  0  0  0  0
    5.9556   -1.9725   21.8242 H   0  0  0  0  0  0  0  0  0  0  0  0
    9.7254   -0.2774   23.3022 C   0  0  0  0  0  0  0  0  0  0  0  0
   10.6349   -0.1226   22.2288 C   0  0  0  0  0  0  0  0  0  0  0  0
   11.9485    0.2472   22.4670 C   0  0  0  0  0  0  0  0  0  0  0  0
   13.2297    0.2297   21.3206 Cl  0  0  0  0  0  0  0  0  0  0  0  0
   12.3519    0.5897   23.7436 C   0  0  0  0  0  0  0  0  0  0  0  0
   11.4939    0.3321   24.7791 C   0  0  0  0  0  0  0  0  0  0  0  0
   10.2275   -0.2495   24.6122 C   0  0  0  0  0  0  0  0  0  0  0  0
    9.2855   -0.8989   25.5752 C   0  0  0  0  0  0  0  0  0  0  0  0
    9.5134   -0.8044   25.6428 O   0  0  0  0  0  0  0  0  0  0  0  0
   11.9286    0.5922   25.7278 H   0  0  0  0  0  0  0  0  0  0  0  0
   13.3501    0.9691   23.9320 H   0  0  0  0  0  0  0  0  0  0  0  0
   10.3219   -0.2561   21.1966 H   0  0  0  0  0  0  0  0  0  0  0  0
    6.2671    0.1347   23.6662 H   0  0  0  0  0  0  0  0  0  0  0  0
    7.5727    0.5927   24.7323 H   0  0  0  0  0  0  0  0  0  0  0  0
    7.5257   -1.7054   26.9188 H   0  0  0  0  0  0  0  0  0  0  0  0
    5.8426   -1.8335   26.7372 H   0  0  0  0  0  0  0  0  0  0  0  0
    7.2182    0.2928   28.2279 O   0  0  0  0  0  0  0  0  0  0  0  0
    6.3403    2.3714   30.6158 H   0  0  0  0  0  0  0  0  0  0  0  0
    7.9068    2.7117   29.8723 H   0  0  0  0  0  0  0  0  0  0  0  0
    7.6314    1.1403   30.6583 H   0  0  0  0  0  0  0  0  0  0  0  0
  1  2  1  0
  2  3  2  0
  3  4  1  0
  4  5  2  0
  5  6  1  0
  6  7  1  0
  7  8  1  0
  9  8  1  1
  9 10  1  0
 10 11  2  0
 10 12  1  0
 12 13  1  0
 13 14  2  0
 14 15  1  0
 15 16  2  0
 16 17  1  0
 17 18  2  0
 18 19  1  0
 19 20  2  0
 20 21  1  0
 21 22  2  0
 21 23  1  0
 20 24  1  0
 19 25  1  0
 18 26  1  0
 16 27  1  0
 14 28  1  0
 12 29  1  0
 29 30  1  0
 30 31  1  0
 31 32  1  0
 32 33  1  0
 33 34  2  0
 34 35  1  0
 35 36  2  0
 36 37  1  0
 37 38  2  0
 37 39  1  0
 35 40  1  0
 34 41  1  0
 32 42  1  0
 31 43  1  0
 31 44  1  0
 30 45  1  6
 29 46  1  0
 29 47  1  0
  9 48  1  0
 48 49  2  0
 49 50  1  0
 50 51  1  0
 50 52  2  0
 52 53  1  0
 53 54  2  0
 54 55  1  0
 55 56  2  0
 53 57  1  0
 52 58  1  0
 49 59  1  0
  8 60  1  0
  8 61  1  0
  6 62  1  0
  6 63  1  0
  5 64  1  0
  1 65  1  0
  1 66  1  0
  1 67  1  0
 64  2  1  0
 55  7  1  0
 30  9  1  0
 38 33  1  0
 54 48  1  0
 22 13  1  0
 22 17  1  0
M  END
>  <cnnaffinities>  (52) 
[6.44658]

>  <score>  (52) 
6.44658

>  <index>  (52) 
51

>  <Smiles>  (52) 
C(c1nnc(C(N2C([C@@]3(C(=O)N(c4c(nc(c5c(c(c(c(c45)[H])[H])[H])[H])[H])[H])C([C@@]3(C(N(c3c(c(nc(n3)[H])[H])[H])[H])([H])[H])[H])([H])[H])c3c(c(Cl)c(c(c3C2=O)[H])[H])[H])([H])[H])([H])[H])o1)([H])([H])[H]

>  <h>  (52) 
<NA>

>  <Training>  (52) 
True

>  <Success>  (52) 
True

>  <enamine_searched>  (52) 
False

>  <enamine_id>  (52) 
nan

$$$$

     RDKit          3D

 66 71  0  0  0  0  0  0  0  0999 V2000
    6.5210    4.3757   21.2439 C   0  0  0  0  0  0  0  0  0  0  0  0
    7.4858    3.9421   22.2335 N   0  0  0  0  0  0  0  0  0  0  0  0
    7.0388    3.2785   23.3318 C   0  0  0  0  0  0  0  0  0  0  0  0
    5.8570    3.0124   23.5066 O   0  0  0  0  0  0  0  0  0  0  0  0
    8.0957    2.8736   24.3520 C   0  0  0  0  0  0  0  0  0  0  0  0
    8.7535    1.6325   23.9944 N   0  0  0  0  0  0  0  0  0  0  0  0
    7.9852    0.3990   23.8789 C   0  0  0  0  0  0  0  0  0  0  0  0
    8.3778   -0.4003   22.6127 C   0  0  2  0  0  0  0  0  0  0  0  0
    7.9012    0.2830   21.3120 C   0  0  0  0  0  0  0  0  0  0  0  0
    8.3670    1.2664   20.7713 O   0  0  0  0  0  0  0  0  0  0  0  0
    6.8376   -0.4384   20.8174 N   0  0  0  0  0  0  0  0  0  0  0  0
    6.0892    0.0771   19.7388 C   0  0  0  0  0  0  0  0  0  0  0  0
    6.4518   -0.2106   18.4493 C   0  0  0  0  0  0  0  0  0  0  0  0
    5.7842    0.2360   17.3604 N   0  0  0  0  0  0  0  0  0  0  0  0
    4.7491    1.0158   17.5701 C   0  0  0  0  0  0  0  0  0  0  0  0
    4.2852    1.4101   18.8585 C   0  0  0  0  0  0  0  0  0  0  0  0
    3.1771    2.2773   19.0393 C   0  0  0  0  0  0  0  0  0  0  0  0
    2.7766    2.6399   20.2971 C   0  0  0  0  0  0  0  0  0  0  0  0
    3.4682    2.1645   21.4332 C   0  0  0  0  0  0  0  0  0  0  0  0
    4.5463    1.3260   21.2852 C   0  0  0  0  0  0  0  0  0  0  0  0
    4.9744    0.9244   19.9897 C   0  0  0  0  0  0  0  0  0  0  0  0
    5.1110    1.0145   22.1592 H   0  0  0  0  0  0  0  0  0  0  0  0
    3.1724    2.4870   22.4264 H   0  0  0  0  0  0  0  0  0  0  0  0
    1.9242    3.3001   20.4279 H   0  0  0  0  0  0  0  0  0  0  0  0
    2.6698    2.6521   18.1558 H   0  0  0  0  0  0  0  0  0  0  0  0
    4.2220    1.3804   16.6896 H   0  0  0  0  0  0  0  0  0  0  0  0
    7.3217   -0.8372   18.2651 H   0  0  0  0  0  0  0  0  0  0  0  0
    6.4414   -1.5733   21.6250 C   0  0  0  0  0  0  0  0  0  0  0  0
    7.6791   -1.7820   22.4953 C   0  0  2  0  0  0  0  0  0  0  0  0
    7.4320   -2.5640   23.7823 C   0  0  0  0  0  0  0  0  0  0  0  0
    6.9820   -3.9081   23.4826 N   0  0  0  0  0  0  0  0  0  0  0  0
    5.6710   -4.2374   23.4734 C   0  0  0  0  0  0  0  0  0  0  0  0
    5.2077   -5.4467   22.9098 C   0  0  0  0  0  0  0  0  0  0  0  0
    3.8834   -5.7389   23.1346 C   0  0  0  0  0  0  0  0  0  0  0  0
    3.0488   -4.9108   23.7780 N   0  0  0  0  0  0  0  0  0  0  0  0
    3.5777   -3.7621   24.1711 C   0  0  0  0  0  0  0  0  0  0  0  0
    4.8346   -3.3586   24.0395 N   0  0  0  0  0  0  0  0  0  0  0  0
    2.9094   -3.0564   24.6612 H   0  0  0  0  0  0  0  0  0  0  0  0
    3.4641   -6.6882   22.8000 H   0  0  0  0  0  0  0  0  0  0  0  0
    5.8689   -6.1141   22.3616 H   0  0  0  0  0  0  0  0  0  0  0  0
    7.6538   -4.5772   23.1516 H   0  0  0  0  0  0  0  0  0  0  0  0
    6.6493   -2.0836   24.3761 H   0  0  0  0  0  0  0  0  0  0  0  0
    8.3552   -2.6117   24.3723 H   0  0  0  0  0  0  0  0  0  0  0  0
    8.3434   -2.4011   21.8911 H   0  0  0  0  0  0  0  0  0  0  0  0
    5.5442   -1.3766   22.2288 H   0  0  0  0  0  0  0  0  0  0  0  0
    6.2226   -2.4497   21.0062 H   0  0  0  0  0  0  0  0  0  0  0  0
    9.8757   -0.4739   22.5731 C   0  0  0  0  0  0  0  0  0  0  0  0
   10.4795   -1.4051   21.7361 C   0  0  0  0  0  0  0  0  0  0  0  0
   11.8451   -1.5276   21.6784 C   0  0  0  0  0  0  0  0  0  0  0  0
   12.3734   -2.8357   20.6600 Cl  0  0  0  0  0  0  0  0  0  0  0  0
   12.6709   -0.6532   22.3927 C   0  0  0  0  0  0  0  0  0  0  0  0
   12.0731    0.3328   23.1419 C   0  0  0  0  0  0  0  0  0  0  0  0
   10.6940    0.4430   23.2294 C   0  0  0  0  0  0  0  0  0  0  0  0
   10.1210    1.6109   23.9592 C   0  0  0  0  0  0  0  0  0  0  0  0
   10.8220    2.4822   24.4491 O   0  0  0  0  0  0  0  0  0  0  0  0
   12.6848    1.0553   23.6604 H   0  0  0  0  0  0  0  0  0  0  0  0
   13.7503   -0.6567   22.3898 H   0  0  0  0  0  0  0  0  0  0  0  0
    9.9205   -2.0450   21.0677 H   0  0  0  0  0  0  0  0  0  0  0  0
    8.1565   -0.2222   24.7733 H   0  0  0  0  0  0  0  0  0  0  0  0
    6.9269    0.6567   23.8380 H   0  0  0  0  0  0  0  0  0  0  0  0
    7.6043    2.7749   25.3262 H   0  0  0  0  0  0  0  0  0  0  0  0
    8.8779    3.6354   24.4444 H   0  0  0  0  0  0  0  0  0  0  0  0
    8.4398    3.8113   21.9319 H   0  0  0  0  0  0  0  0  0  0  0  0
    7.0334    4.9577   20.4751 H   0  0  0  0  0  0  0  0  0  0  0  0
    5.7759    5.0158   21.7220 H   0  0  0  0  0  0  0  0  0  0  0  0
    6.0068    3.5073   20.8099 H   0  0  0  0  0  0  0  0  0  0  0  0
  1  2  1  0
  2  3  1  0
  3  4  2  0
  3  5  1  0
  5  6  1  0
  6  7  1  0
  8  7  1  1
  8  9  1  0
  9 10  2  0
  9 11  1  0
 11 12  1  0
 12 13  2  0
 13 14  1  0
 14 15  2  0
 15 16  1  0
 16 17  2  0
 17 18  1  0
 18 19  2  0
 19 20  1  0
 20 21  2  0
 20 22  1  0
 19 23  1  0
 18 24  1  0
 17 25  1  0
 15 26  1  0
 13 27  1  0
 11 28  1  0
 28 29  1  0
 29 30  1  0
 30 31  1  0
 31 32  1  0
 32 33  2  0
 33 34  1  0
 34 35  2  0
 35 36  1  0
 36 37  2  0
 36 38  1  0
 34 39  1  0
 33 40  1  0
 31 41  1  0
 30 42  1  0
 30 43  1  0
 29 44  1  6
 28 45  1  0
 28 46  1  0
  8 47  1  0
 47 48  2  0
 48 49  1  0
 49 50  1  0
 49 51  2  0
 51 52  1  0
 52 53  2  0
 53 54  1  0
 54 55  2  0
 52 56  1  0
 51 57  1  0
 48 58  1  0
  7 59  1  0
  7 60  1  0
  5 61  1  0
  5 62  1  0
  2 63  1  0
  1 64  1  0
  1 65  1  0
  1 66  1  0
 54  6  1  0
 29  8  1  0
 37 32  1  0
 53 47  1  0
 21 12  1  0
 21 16  1  0
M  END
>  <cnnaffinities>  (53) 
[6.34451]

>  <score>  (53) 
6.34451

>  <index>  (53) 
52

>  <Smiles>  (53) 
C(N(C(=O)C(N1C([C@@]2(C(=O)N(c3c(nc(c4c(c(c(c(c34)[H])[H])[H])[H])[H])[H])C([C@@]2(C(N(c2c(c(nc(n2)[H])[H])[H])[H])([H])[H])[H])([H])[H])c2c(c(Cl)c(c(c2C1=O)[H])[H])[H])([H])[H])([H])[H])[H])([H])([H])[H]

>  <h>  (53) 
<NA>

>  <Training>  (53) 
True

>  <Success>  (53) 
True

>  <enamine_searched>  (53) 
False

>  <enamine_id>  (53) 
nan

$$$$

     RDKit          3D

 77 84  0  0  0  0  0  0  0  0999 V2000
    9.3651   -1.6741   26.2178 O   0  0  0  0  0  0  0  0  0  0  0  0
    9.0667   -0.8865   25.3321 C   0  0  0  0  0  0  0  0  0  0  0  0
   10.0334   -0.3782   24.3199 C   0  0  0  0  0  0  0  0  0  0  0  0
   11.2801    0.0470   24.7311 C   0  0  0  0  0  0  0  0  0  0  0  0
   12.2822    0.2919   23.8224 C   0  0  0  0  0  0  0  0  0  0  0  0
   11.9769    0.1035   22.4773 C   0  0  0  0  0  0  0  0  0  0  0  0
   13.3144    0.2161   21.3872 Cl  0  0  0  0  0  0  0  0  0  0  0  0
   10.6802   -0.1579   22.0426 C   0  0  0  0  0  0  0  0  0  0  0  0
    9.6542   -0.3214   22.9820 C   0  0  0  0  0  0  0  0  0  0  0  0
    8.1793   -0.4613   22.6462 C   0  0  1  0  0  0  0  0  0  0  0  0
    7.3768    0.1252   23.8647 C   0  0  0  0  0  0  0  0  0  0  0  0
    7.8127   -0.3891   25.1578 N   0  0  0  0  0  0  0  0  0  0  0  0
    6.8569   -0.6432   26.2153 C   0  0  0  0  0  0  0  0  0  0  0  0
    6.7201    0.5570   27.1644 C   0  0  0  0  0  0  0  0  0  0  0  0
    5.4264    0.5236   27.9320 N   0  0  0  0  0  4  0  0  0  0  0  0
    4.9739   -0.8029   28.5840 C   0  0  0  0  0  0  0  0  0  0  0  0
    3.7401   -0.8629   27.6641 C   0  0  0  0  0  0  0  0  0  0  0  0
    3.4960   -2.0684   26.7726 C   0  0  0  0  0  0  0  0  0  0  0  0
    2.1610   -2.2155   27.2654 O   0  0  0  0  0  0  0  0  0  0  0  0
    2.3247   -1.1119   28.1651 C   0  0  0  0  0  0  0  0  0  0  0  0
    2.2472   -1.4093   29.2190 H   0  0  0  0  0  0  0  0  0  0  0  0
    1.6181   -0.2977   27.9567 H   0  0  0  0  0  0  0  0  0  0  0  0
    3.5263   -1.8679   25.6926 H   0  0  0  0  0  0  0  0  0  0  0  0
    4.1253   -2.9402   27.0099 H   0  0  0  0  0  0  0  0  0  0  0  0
    4.1452    0.5079   27.0921 C   0  0  0  0  0  0  0  0  0  0  0  0
    3.5099    1.3390   27.3794 H   0  0  0  0  0  0  0  0  0  0  0  0
    4.3682    0.5548   26.0298 H   0  0  0  0  0  0  0  0  0  0  0  0
    4.7732   -0.6423   29.6378 H   0  0  0  0  0  0  0  0  0  0  0  0
    5.7181   -1.5842   28.4576 H   0  0  0  0  0  0  0  0  0  0  0  0
    5.4492    1.2934   28.6112 H   0  0  0  0  0  0  0  0  0  0  0  0
    7.5288    0.5697   27.8971 H   0  0  0  0  0  0  0  0  0  0  0  0
    6.7380    1.4964   26.6052 H   0  0  0  0  0  0  0  0  0  0  0  0
    5.9003   -0.9197   25.7479 H   0  0  0  0  0  0  0  0  0  0  0  0
    7.2267   -1.5195   26.7541 H   0  0  0  0  0  0  0  0  0  0  0  0
    6.3066   -0.1087   23.7580 H   0  0  0  0  0  0  0  0  0  0  0  0
    7.4998    1.2175   23.8416 H   0  0  0  0  0  0  0  0  0  0  0  0
    7.7362    0.3014   21.3799 C   0  0  0  0  0  0  0  0  0  0  0  0
    8.0492    1.4217   21.0279 O   0  0  0  0  0  0  0  0  0  0  0  0
    6.8239   -0.4796   20.6921 N   0  0  0  0  0  0  0  0  0  0  0  0
    6.0443    0.0560   19.6304 C   0  0  0  0  0  0  0  0  0  0  0  0
    6.3410   -0.2482   18.3263 C   0  0  0  0  0  0  0  0  0  0  0  0
    5.6725    0.2416   17.2490 N   0  0  0  0  0  0  0  0  0  0  0  0
    4.6749    1.0593   17.4831 C   0  0  0  0  0  0  0  0  0  0  0  0
    4.2387    1.4351   18.7852 C   0  0  0  0  0  0  0  0  0  0  0  0
    3.1375    2.3086   18.9841 C   0  0  0  0  0  0  0  0  0  0  0  0
    2.7382    2.6431   20.2477 C   0  0  0  0  0  0  0  0  0  0  0  0
    3.4213    2.1275   21.3704 C   0  0  0  0  0  0  0  0  0  0  0  0
    4.4922    1.2871   21.2036 C   0  0  0  0  0  0  0  0  0  0  0  0
    4.9337    0.9202   19.9006 C   0  0  0  0  0  0  0  0  0  0  0  0
    5.0128    0.8975   22.0722 H   0  0  0  0  0  0  0  0  0  0  0  0
    3.1029    2.4110   22.3683 H   0  0  0  0  0  0  0  0  0  0  0  0
    1.8995    3.3166   20.3963 H   0  0  0  0  0  0  0  0  0  0  0  0
    2.6398    2.7163   18.1086 H   0  0  0  0  0  0  0  0  0  0  0  0
    4.1568    1.4726   16.6176 H   0  0  0  0  0  0  0  0  0  0  0  0
    7.1764   -0.9101   18.1006 H   0  0  0  0  0  0  0  0  0  0  0  0
    6.5966   -1.7847   21.2794 C   0  0  0  0  0  0  0  0  0  0  0  0
    7.7828   -1.9204   22.2414 C   0  0  2  0  0  0  0  0  0  0  0  0
    7.4944   -2.8803   23.3977 C   0  0  0  0  0  0  0  0  0  0  0  0
    7.2115   -4.2300   22.9586 N   0  0  0  0  0  0  0  0  0  0  0  0
    5.9535   -4.7364   22.8601 C   0  0  0  0  0  0  0  0  0  0  0  0
    5.8491   -5.9233   22.2160 N   0  0  0  0  0  0  0  0  0  0  0  0
    4.6399   -6.4594   22.1840 C   0  0  0  0  0  0  0  0  0  0  0  0
    3.5231   -5.8720   22.7794 C   0  0  0  0  0  0  0  0  0  0  0  0
    3.7489   -4.6553   23.3951 C   0  0  0  0  0  0  0  0  0  0  0  0
    4.9400   -4.0497   23.4120 N   0  0  0  0  0  0  0  0  0  0  0  0
    2.9512   -4.1246   23.9209 H   0  0  0  0  0  0  0  0  0  0  0  0
    2.5423   -6.3393   22.7671 H   0  0  0  0  0  0  0  0  0  0  0  0
    4.5562   -7.4134   21.6575 H   0  0  0  0  0  0  0  0  0  0  0  0
    7.9291   -4.7528   22.4807 H   0  0  0  0  0  0  0  0  0  0  0  0
    8.3567   -2.9010   24.0729 H   0  0  0  0  0  0  0  0  0  0  0  0
    6.6185   -2.5397   23.9529 H   0  0  0  0  0  0  0  0  0  0  0  0
    8.6481   -2.3007   21.6735 H   0  0  0  0  0  0  0  0  0  0  0  0
    6.5842   -2.5629   20.5085 H   0  0  0  0  0  0  0  0  0  0  0  0
    5.6348   -1.8315   21.8216 H   0  0  0  0  0  0  0  0  0  0  0  0
   10.4547   -0.2085   20.9865 H   0  0  0  0  0  0  0  0  0  0  0  0
   13.2820    0.5990   24.1209 H   0  0  0  0  0  0  0  0  0  0  0  0
   11.3894    0.1722   25.7897 H   0  0  0  0  0  0  0  0  0  0  0  0
  1  2  2  0
  2  3  1  0
  3  4  2  0
  4  5  1  0
  5  6  2  0
  6  7  1  0
  6  8  1  0
  8  9  2  0
  9 10  1  0
 10 11  1  1
 11 12  1  0
 12 13  1  0
 13 14  1  0
 14 15  1  0
 15 16  1  0
 16 17  1  0
 17 18  1  0
 18 19  1  0
 19 20  1  0
 20 21  1  0
 20 22  1  0
 18 23  1  0
 18 24  1  0
 17 25  1  0
 25 26  1  0
 25 27  1  0
 16 28  1  0
 16 29  1  0
 15 30  1  0
 14 31  1  0
 14 32  1  0
 13 33  1  0
 13 34  1  0
 11 35  1  0
 11 36  1  0
 10 37  1  0
 37 38  2  0
 37 39  1  0
 39 40  1  0
 40 41  2  0
 41 42  1  0
 42 43  2  0
 43 44  1  0
 44 45  2  0
 45 46  1  0
 46 47  2  0
 47 48  1  0
 48 49  2  0
 48 50  1  0
 47 51  1  0
 46 52  1  0
 45 53  1  0
 43 54  1  0
 41 55  1  0
 39 56  1  0
 56 57  1  0
 57 58  1  0
 58 59  1  0
 59 60  1  0
 60 61  2  0
 61 62  1  0
 62 63  2  0
 63 64  1  0
 64 65  2  0
 64 66  1  0
 63 67  1  0
 62 68  1  0
 59 69  1  0
 58 70  1  0
 58 71  1  0
 57 72  1  6
 56 73  1  0
 56 74  1  0
  8 75  1  0
  5 76  1  0
  4 77  1  0
 12  2  1  0
 25 15  1  0
 49 40  1  0
 65 60  1  0
  9  3  1  0
 57 10  1  0
 20 17  1  0
 49 44  1  0
M  CHG  1  15   1
M  END
>  <cnnaffinities>  (54) 
[6.37065]

>  <score>  (54) 
6.37065

>  <index>  (54) 
53

>  <Smiles>  (54) 
O=C1c2c(c(c(Cl)c(c2[C@@]2(C(N1C(C([N+]1(C(C3(C(OC3([H])[H])([H])[H])C1([H])[H])([H])[H])[H])([H])[H])([H])[H])([H])[H])C(=O)N(c1c(nc(c3c(c(c(c(c13)[H])[H])[H])[H])[H])[H])C([C@@]2(C(N(c1nc(c(c(n1)[H])[H])[H])[H])([H])[H])[H])([H])[H])[H])[H])[H]

>  <h>  (54) 
<NA>

>  <Training>  (54) 
True

>  <Success>  (54) 
True

>  <enamine_searched>  (54) 
False

>  <enamine_id>  (54) 
nan

$$$$

     RDKit          3D

 66 71  0  0  0  0  0  0  0  0999 V2000
    6.9662    2.0523   28.6975 C   0  0  0  0  0  0  0  0  0  0  0  0
    7.0626    0.8380   27.9061 N   0  0  0  0  0  0  0  0  0  0  0  0
    6.2305    0.6334   26.8497 C   0  0  0  0  0  0  0  0  0  0  0  0
    5.3961    1.4583   26.5050 O   0  0  0  0  0  0  0  0  0  0  0  0
    6.3891   -0.7054   26.1014 C   0  0  0  0  0  0  0  0  0  0  0  0
    7.3977   -0.6474   25.0482 N   0  0  0  0  0  0  0  0  0  0  0  0
    7.1153   -0.0122   23.7624 C   0  0  0  0  0  0  0  0  0  0  0  0
    8.0137   -0.5665   22.6170 C   0  0  2  0  0  0  0  0  0  0  0  0
    7.6974    0.2691   21.3557 C   0  0  0  0  0  0  0  0  0  0  0  0
    8.0568    1.4037   21.1104 O   0  0  0  0  0  0  0  0  0  0  0  0
    6.8651   -0.4727   20.5365 N   0  0  0  0  0  0  0  0  0  0  0  0
    6.0748    0.1068   19.5037 C   0  0  0  0  0  0  0  0  0  0  0  0
    6.3058   -0.2471   18.2006 C   0  0  0  0  0  0  0  0  0  0  0  0
    5.6162    0.2387   17.1383 N   0  0  0  0  0  0  0  0  0  0  0  0
    4.6434    1.0850   17.3781 C   0  0  0  0  0  0  0  0  0  0  0  0
    4.2431    1.4816   18.6860 C   0  0  0  0  0  0  0  0  0  0  0  0
    3.1401    2.3522   18.9081 C   0  0  0  0  0  0  0  0  0  0  0  0
    2.7470    2.6656   20.1798 C   0  0  0  0  0  0  0  0  0  0  0  0
    3.4330    2.1211   21.2895 C   0  0  0  0  0  0  0  0  0  0  0  0
    4.5078    1.2887   21.0998 C   0  0  0  0  0  0  0  0  0  0  0  0
    4.9582    0.9625   19.7893 C   0  0  0  0  0  0  0  0  0  0  0  0
    5.0155    0.8687   21.9623 H   0  0  0  0  0  0  0  0  0  0  0  0
    3.1095    2.3606   22.2985 H   0  0  0  0  0  0  0  0  0  0  0  0
    1.9039    3.3313   20.3500 H   0  0  0  0  0  0  0  0  0  0  0  0
    2.6119    2.7550   18.0470 H   0  0  0  0  0  0  0  0  0  0  0  0
    4.1049    1.4860   16.5179 H   0  0  0  0  0  0  0  0  0  0  0  0
    7.0967   -0.9587   17.9681 H   0  0  0  0  0  0  0  0  0  0  0  0
    6.5013   -1.7497   21.1248 C   0  0  0  0  0  0  0  0  0  0  0  0
    7.6007   -2.0044   22.1601 C   0  0  2  0  0  0  0  0  0  0  0  0
    7.1326   -2.9900   23.2310 C   0  0  0  0  0  0  0  0  0  0  0  0
    8.2490   -3.4806   24.0130 N   0  0  0  0  0  0  0  0  0  0  0  0
    8.0577   -4.0945   25.2145 C   0  0  0  0  0  0  0  0  0  0  0  0
    9.1740   -4.6354   25.9061 C   0  0  0  0  0  0  0  0  0  0  0  0
    9.0397   -5.3123   27.0289 N   0  0  0  0  0  0  0  0  0  0  0  0
    7.7959   -5.4539   27.5050 C   0  0  0  0  0  0  0  0  0  0  0  0
    6.7051   -4.9189   26.8457 C   0  0  0  0  0  0  0  0  0  0  0  0
    6.8265   -4.2275   25.7020 N   0  0  0  0  0  0  0  0  0  0  0  0
    5.6964   -5.0716   27.2225 H   0  0  0  0  0  0  0  0  0  0  0  0
    7.6778   -6.0187   28.4243 H   0  0  0  0  0  0  0  0  0  0  0  0
   10.1785   -4.5487   25.4930 H   0  0  0  0  0  0  0  0  0  0  0  0
    9.1535   -3.0492   23.8653 H   0  0  0  0  0  0  0  0  0  0  0  0
    6.6287   -3.8337   22.7465 H   0  0  0  0  0  0  0  0  0  0  0  0
    6.3838   -2.5429   23.8966 H   0  0  0  0  0  0  0  0  0  0  0  0
    8.4730   -2.4484   21.6543 H   0  0  0  0  0  0  0  0  0  0  0  0
    6.4401   -2.5253   20.3589 H   0  0  0  0  0  0  0  0  0  0  0  0
    5.5158   -1.6932   21.6190 H   0  0  0  0  0  0  0  0  0  0  0  0
    9.4446   -0.4080   23.0794 C   0  0  0  0  0  0  0  0  0  0  0  0
   10.5062   -0.1691   22.1945 C   0  0  0  0  0  0  0  0  0  0  0  0
   11.7494    0.1900   22.6951 C   0  0  0  0  0  0  0  0  0  0  0  0
   13.0973    0.4399   21.6328 Cl  0  0  0  0  0  0  0  0  0  0  0  0
   11.9662    0.3738   24.0584 C   0  0  0  0  0  0  0  0  0  0  0  0
   10.9502    0.0176   24.9202 C   0  0  0  0  0  0  0  0  0  0  0  0
    9.7220   -0.4117   24.4479 C   0  0  0  0  0  0  0  0  0  0  0  0
    8.6892   -0.8204   25.4400 C   0  0  0  0  0  0  0  0  0  0  0  0
    8.9799   -1.2178   26.5645 O   0  0  0  0  0  0  0  0  0  0  0  0
   11.0677    0.0413   25.9857 H   0  0  0  0  0  0  0  0  0  0  0  0
   12.9049    0.7719   24.4325 H   0  0  0  0  0  0  0  0  0  0  0  0
   10.3539   -0.2197   21.1228 H   0  0  0  0  0  0  0  0  0  0  0  0
    6.0565   -0.1545   23.5173 H   0  0  0  0  0  0  0  0  0  0  0  0
    7.3109    1.0678   23.8127 H   0  0  0  0  0  0  0  0  0  0  0  0
    6.6862   -1.4976   26.7997 H   0  0  0  0  0  0  0  0  0  0  0  0
    5.4230   -0.9511   25.6482 H   0  0  0  0  0  0  0  0  0  0  0  0
    7.8694    0.2412   28.0235 H   0  0  0  0  0  0  0  0  0  0  0  0
    5.9527    2.1714   29.0936 H   0  0  0  0  0  0  0  0  0  0  0  0
    7.6666    1.9862   29.5349 H   0  0  0  0  0  0  0  0  0  0  0  0
    7.1942    2.9502   28.1121 H   0  0  0  0  0  0  0  0  0  0  0  0
  1  2  1  0
  2  3  1  0
  3  4  2  0
  3  5  1  0
  5  6  1  0
  6  7  1  0
  8  7  1  1
  8  9  1  0
  9 10  2  0
  9 11  1  0
 11 12  1  0
 12 13  2  0
 13 14  1  0
 14 15  2  0
 15 16  1  0
 16 17  2  0
 17 18  1  0
 18 19  2  0
 19 20  1  0
 20 21  2  0
 20 22  1  0
 19 23  1  0
 18 24  1  0
 17 25  1  0
 15 26  1  0
 13 27  1  0
 11 28  1  0
 28 29  1  0
 29 30  1  0
 30 31  1  0
 31 32  1  0
 32 33  2  0
 33 34  1  0
 34 35  2  0
 35 36  1  0
 36 37  2  0
 36 38  1  0
 35 39  1  0
 33 40  1  0
 31 41  1  0
 30 42  1  0
 30 43  1  0
 29 44  1  6
 28 45  1  0
 28 46  1  0
  8 47  1  0
 47 48  2  0
 48 49  1  0
 49 50  1  0
 49 51  2  0
 51 52  1  0
 52 53  2  0
 53 54  1  0
 54 55  2  0
 52 56  1  0
 51 57  1  0
 48 58  1  0
  7 59  1  0
  7 60  1  0
  5 61  1  0
  5 62  1  0
  2 63  1  0
  1 64  1  0
  1 65  1  0
  1 66  1  0
 54  6  1  0
 29  8  1  0
 37 32  1  0
 53 47  1  0
 21 12  1  0
 21 16  1  0
M  END
>  <cnnaffinities>  (55) 
[5.91789]

>  <score>  (55) 
5.91789

>  <index>  (55) 
54

>  <Smiles>  (55) 
C(N(C(=O)C(N1C([C@@]2(C(=O)N(c3c(nc(c4c(c(c(c(c34)[H])[H])[H])[H])[H])[H])C([C@@]2(C(N(c2c(nc(c(n2)[H])[H])[H])[H])([H])[H])[H])([H])[H])c2c(c(Cl)c(c(c2C1=O)[H])[H])[H])([H])[H])([H])[H])[H])([H])([H])[H]

>  <h>  (55) 
<NA>

>  <Training>  (55) 
True

>  <Success>  (55) 
True

>  <enamine_searched>  (55) 
False

>  <enamine_id>  (55) 
nan

$$$$

     RDKit          3D

 56 61  0  0  0  0  0  0  0  0999 V2000
   12.6312    2.2671   22.2894 C   0  0  0  0  0  0  0  0  0  0  0  0
   12.6476    0.8772   22.6857 N   0  0  0  0  0  0  0  0  0  0  0  0
   13.0181    0.3750   23.8814 C   0  0  0  0  0  0  0  0  0  0  0  0
   12.8266   -0.9844   23.8266 C   0  0  0  0  0  0  0  0  0  0  0  0
   12.3178   -1.2088   22.5295 C   0  0  0  0  0  0  0  0  0  0  0  0
   11.8876   -2.5039   21.9156 C   0  0  0  0  0  0  0  0  0  0  0  0
   10.5167   -2.8351   22.2721 N   0  0  0  0  0  0  0  0  0  0  0  0
    9.4251   -2.5669   21.3552 C   0  0  0  0  0  0  0  0  0  0  0  0
    8.2205   -1.9310   22.0884 C   0  0  1  0  0  0  0  0  0  0  0  0
    8.5350   -0.4777   22.5320 C   0  0  0  0  0  0  0  0  0  0  0  0
    7.9066    0.4389   21.4809 C   0  0  0  0  0  0  0  0  0  0  0  0
    6.9112   -0.4113   20.8472 N   0  0  0  0  0  0  0  0  0  0  0  0
    6.1154    0.0438   19.7712 C   0  0  0  0  0  0  0  0  0  0  0  0
    6.4393   -0.2816   18.4793 C   0  0  0  0  0  0  0  0  0  0  0  0
    5.7892    0.1941   17.3851 N   0  0  0  0  0  0  0  0  0  0  0  0
    4.7811    1.0052   17.5933 C   0  0  0  0  0  0  0  0  0  0  0  0
    4.3236    1.3989   18.8847 C   0  0  0  0  0  0  0  0  0  0  0  0
    3.2083    2.2558   19.0581 C   0  0  0  0  0  0  0  0  0  0  0  0
    2.7875    2.5952   20.3120 C   0  0  0  0  0  0  0  0  0  0  0  0
    3.4634    2.1066   21.4529 C   0  0  0  0  0  0  0  0  0  0  0  0
    4.5543    1.2842   21.3150 C   0  0  0  0  0  0  0  0  0  0  0  0
    5.0093    0.9123   20.0203 C   0  0  0  0  0  0  0  0  0  0  0  0
    5.0670    0.9070   22.1958 H   0  0  0  0  0  0  0  0  0  0  0  0
    3.1204    2.3952   22.4414 H   0  0  0  0  0  0  0  0  0  0  0  0
    1.9349    3.2553   20.4391 H   0  0  0  0  0  0  0  0  0  0  0  0
    2.7124    2.6351   18.1681 H   0  0  0  0  0  0  0  0  0  0  0  0
    4.2606    1.3967   16.7169 H   0  0  0  0  0  0  0  0  0  0  0  0
    7.2740   -0.9504   18.2817 H   0  0  0  0  0  0  0  0  0  0  0  0
    7.0448   -1.7535   21.1206 C   0  0  0  0  0  0  0  0  0  0  0  0
    6.3168   -2.6194   20.6780 O   0  0  0  0  0  0  0  0  0  0  0  0
    8.6443    0.7900   20.7450 H   0  0  0  0  0  0  0  0  0  0  0  0
    7.4358    1.3235   21.9234 H   0  0  0  0  0  0  0  0  0  0  0  0
    9.6120   -0.3256   22.6001 H   0  0  0  0  0  0  0  0  0  0  0  0
    8.0942   -0.3092   23.5174 H   0  0  0  0  0  0  0  0  0  0  0  0
    7.8876   -2.8349   23.2496 C   0  0  0  0  0  0  0  0  0  0  0  0
    6.5928   -2.9104   23.7520 C   0  0  0  0  0  0  0  0  0  0  0  0
    6.3438   -3.6696   24.8808 C   0  0  0  0  0  0  0  0  0  0  0  0
    4.7391   -3.6933   25.5308 Cl  0  0  0  0  0  0  0  0  0  0  0  0
    7.3461   -4.3932   25.5253 C   0  0  0  0  0  0  0  0  0  0  0  0
    8.6222   -4.3350   25.0078 C   0  0  0  0  0  0  0  0  0  0  0  0
    8.9004   -3.5368   23.9062 C   0  0  0  0  0  0  0  0  0  0  0  0
   10.3226   -3.3939   23.5009 C   0  0  0  0  0  0  0  0  0  0  0  0
   11.2449   -3.7219   24.2394 O   0  0  0  0  0  0  0  0  0  0  0  0
    9.4426   -4.9001   25.4311 H   0  0  0  0  0  0  0  0  0  0  0  0
    7.1239   -4.9897   26.4045 H   0  0  0  0  0  0  0  0  0  0  0  0
    5.7889   -2.3748   23.2613 H   0  0  0  0  0  0  0  0  0  0  0  0
    9.7869   -1.8836   20.5854 H   0  0  0  0  0  0  0  0  0  0  0  0
    9.1210   -3.5094   20.8990 H   0  0  0  0  0  0  0  0  0  0  0  0
   11.9659   -2.4385   20.8247 H   0  0  0  0  0  0  0  0  0  0  0  0
   12.5225   -3.3098   22.2937 H   0  0  0  0  0  0  0  0  0  0  0  0
   12.1963   -0.0721   21.8558 N   0  0  0  0  0  0  0  0  0  0  0  0
   12.9806   -1.7274   24.5967 H   0  0  0  0  0  0  0  0  0  0  0  0
   13.3398    1.0270   24.6766 H   0  0  0  0  0  0  0  0  0  0  0  0
   13.6460    2.6770   22.3420 H   0  0  0  0  0  0  0  0  0  0  0  0
   12.2294    2.2967   21.2735 H   0  0  0  0  0  0  0  0  0  0  0  0
   11.9886    2.8330   22.9685 H   0  0  0  0  0  0  0  0  0  0  0  0
  1  2  1  0
  2  3  1  0
  3  4  2  0
  4  5  1  0
  5  6  1  0
  6  7  1  0
  7  8  1  0
  9  8  1  6
  9 10  1  0
 10 11  1  0
 11 12  1  0
 12 13  1  0
 13 14  2  0
 14 15  1  0
 15 16  2  0
 16 17  1  0
 17 18  2  0
 18 19  1  0
 19 20  2  0
 20 21  1  0
 21 22  2  0
 21 23  1  0
 20 24  1  0
 19 25  1  0
 18 26  1  0
 16 27  1  0
 14 28  1  0
 12 29  1  0
 29 30  2  0
 11 31  1  0
 11 32  1  0
 10 33  1  0
 10 34  1  0
  9 35  1  0
 35 36  2  0
 36 37  1  0
 37 38  1  0
 37 39  2  0
 39 40  1  0
 40 41  2  0
 41 42  1  0
 42 43  2  0
 40 44  1  0
 39 45  1  0
 36 46  1  0
  8 47  1  0
  8 48  1  0
  6 49  1  0
  6 50  1  0
  5 51  2  0
  4 52  1  0
  3 53  1  0
  1 54  1  0
  1 55  1  0
  1 56  1  0
 51  2  1  0
 42  7  1  0
 29  9  1  0
 41 35  1  0
 22 13  1  0
 22 17  1  0
M  END
>  <cnnaffinities>  (56) 
[6.81666]

>  <score>  (56) 
6.81666

>  <index>  (56) 
55

>  <Smiles>  (56) 
C(n1c(c(c(C(N2C([C@]3(C(C(N(c4c(nc(c5c(c(c(c(c45)[H])[H])[H])[H])[H])[H])C3=O)([H])[H])([H])[H])c3c(c(Cl)c(c(c3C2=O)[H])[H])[H])([H])[H])([H])[H])n1)[H])[H])([H])([H])[H]

>  <h>  (56) 
<NA>

>  <Training>  (56) 
True

>  <Success>  (56) 
True

>  <enamine_searched>  (56) 
False

>  <enamine_id>  (56) 
nan

$$$$

     RDKit          3D

 41 43  0  0  0  0  0  0  0  0999 V2000
    8.0633    1.6453   20.9626 O   0  0  0  0  0  0  0  0  0  0  0  0
    7.8809    0.5924   21.5441 C   0  0  0  0  0  0  0  0  0  0  0  0
    6.9436   -0.4657   20.9161 C   0  0  0  0  0  0  0  0  0  0  0  0
    6.1159    0.0851   19.7735 C   0  0  0  0  0  0  0  0  0  0  0  0
    6.4275   -0.2077   18.4677 C   0  0  0  0  0  0  0  0  0  0  0  0
    5.7621    0.2389   17.3684 N   0  0  0  0  0  0  0  0  0  0  0  0
    4.7352    1.0300   17.5758 C   0  0  0  0  0  0  0  0  0  0  0  0
    4.2904    1.4243   18.8690 C   0  0  0  0  0  0  0  0  0  0  0  0
    3.1711    2.2806   19.0424 C   0  0  0  0  0  0  0  0  0  0  0  0
    2.7667    2.6474   20.3004 C   0  0  0  0  0  0  0  0  0  0  0  0
    3.4665    2.1723   21.4306 C   0  0  0  0  0  0  0  0  0  0  0  0
    4.5545    1.3413   21.2889 C   0  0  0  0  0  0  0  0  0  0  0  0
    4.9978    0.9453   19.9983 C   0  0  0  0  0  0  0  0  0  0  0  0
    5.0821    0.9911   22.1723 H   0  0  0  0  0  0  0  0  0  0  0  0
    3.1430    2.4720   22.4219 H   0  0  0  0  0  0  0  0  0  0  0  0
    1.9133    3.3076   20.4349 H   0  0  0  0  0  0  0  0  0  0  0  0
    2.6463    2.6482   18.1636 H   0  0  0  0  0  0  0  0  0  0  0  0
    4.1991    1.3993   16.6997 H   0  0  0  0  0  0  0  0  0  0  0  0
    7.2735   -0.8560   18.2482 H   0  0  0  0  0  0  0  0  0  0  0  0
    6.2886   -0.8985   21.6805 H   0  0  0  0  0  0  0  0  0  0  0  0
    7.5728   -1.2819   20.5319 H   0  0  0  0  0  0  0  0  0  0  0  0
    8.5067    0.3439   22.7627 N   0  0  0  0  0  0  0  0  0  0  0  0
    9.4038    1.3978   23.2699 C   0  0  0  0  0  0  0  0  0  0  0  0
   10.7750    1.4394   22.6001 C   0  0  0  0  0  0  0  0  0  0  0  0
   11.7195    0.3329   23.0419 C   0  0  0  0  0  0  0  0  0  0  0  0
   11.1397   -1.3487   22.7006 S   0  0  0  0  0  0  0  0  0  0  0  0
    9.8346   -1.4435   23.9478 C   0  0  0  0  0  0  0  0  0  0  0  0
    8.4744   -0.9395   23.4431 C   0  0  1  0  0  0  0  0  0  0  0  0
    7.4596   -0.8863   24.5833 C   0  0  0  0  0  0  0  0  0  0  0  0
    6.2698   -0.4390   24.1459 F   0  0  0  0  0  0  0  0  0  0  0  0
    7.2751   -2.0971   25.1417 F   0  0  0  0  0  0  0  0  0  0  0  0
    7.8544   -0.0687   25.5724 F   0  0  0  0  0  0  0  0  0  0  0  0
    8.0982   -1.7027   22.7577 H   0  0  0  0  0  0  0  0  0  0  0  0
   10.1705   -0.9048   24.8363 H   0  0  0  0  0  0  0  0  0  0  0  0
    9.7523   -2.4948   24.2404 H   0  0  0  0  0  0  0  0  0  0  0  0
   11.9054    0.3985   24.1181 H   0  0  0  0  0  0  0  0  0  0  0  0
   12.6900    0.4340   22.5439 H   0  0  0  0  0  0  0  0  0  0  0  0
   11.2589    2.4085   22.7968 H   0  0  0  0  0  0  0  0  0  0  0  0
   10.6187    1.3692   21.5288 H   0  0  0  0  0  0  0  0  0  0  0  0
    9.5266    1.2725   24.3441 H   0  0  0  0  0  0  0  0  0  0  0  0
    8.8999    2.3539   23.1241 H   0  0  0  0  0  0  0  0  0  0  0  0
  1  2  2  0
  2  3  1  0
  3  4  1  0
  4  5  2  0
  5  6  1  0
  6  7  2  0
  7  8  1  0
  8  9  2  0
  9 10  1  0
 10 11  2  0
 11 12  1  0
 12 13  2  0
 12 14  1  0
 11 15  1  0
 10 16  1  0
  9 17  1  0
  7 18  1  0
  5 19  1  0
  3 20  1  0
  3 21  1  0
  2 22  1  0
 22 23  1  0
 23 24  1  0
 24 25  1  0
 25 26  1  0
 26 27  1  0
 27 28  1  0
 28 29  1  0
 29 30  1  0
 29 31  1  0
 29 32  1  0
 28 33  1  6
 27 34  1  0
 27 35  1  0
 25 36  1  0
 25 37  1  0
 24 38  1  0
 24 39  1  0
 23 40  1  0
 23 41  1  0
 13  4  1  0
 28 22  1  0
 13  8  1  0
M  END
>  <cnnaffinities>  (57) 
[5.98079, 5.98074, 5.98072, 5.57396, 5.57328]

>  <score>  (57) 
5.98079

>  <index>  (57) 
56

>  <Smiles>  (57) 
O=C(C(c1c(nc(c2c(c(c(c(c12)[H])[H])[H])[H])[H])[H])([H])[H])N1C(C(C(SC([C@]1(C(F)(F)F)[H])([H])[H])([H])[H])([H])[H])([H])[H]

>  <h>  (57) 
<NA>

>  <Training>  (57) 
True

>  <Success>  (57) 
True

>  <enamine_searched>  (57) 
False

>  <enamine_id>  (57) 
nan

$$$$

     RDKit          3D

 67 72  0  0  0  0  0  0  0  0999 V2000
   13.8167   -0.1434   24.0534 C   0  0  0  0  0  0  0  0  0  0  0  0
   13.0319   -1.2823   23.6573 N   0  0  0  0  0  0  0  0  0  0  0  0
   12.4736   -1.2961   22.4300 C   0  0  0  0  0  0  0  0  0  0  0  0
   12.4502   -0.2945   21.7230 O   0  0  0  0  0  0  0  0  0  0  0  0
   11.8395   -2.6204   22.0146 C   0  0  0  0  0  0  0  0  0  0  0  0
   10.4657   -2.7551   22.4802 N   0  0  0  0  0  0  0  0  0  0  0  0
    9.3780   -2.3968   21.5844 C   0  0  0  0  0  0  0  0  0  0  0  0
    8.1501   -1.7934   22.3146 C   0  0  2  0  0  0  0  0  0  0  0  0
    7.0255   -1.6918   21.2673 C   0  0  0  0  0  0  0  0  0  0  0  0
    6.3508   -2.5996   20.8225 O   0  0  0  0  0  0  0  0  0  0  0  0
    6.8816   -0.3698   20.8966 N   0  0  0  0  0  0  0  0  0  0  0  0
    6.0961    0.0345   19.7872 C   0  0  0  0  0  0  0  0  0  0  0  0
    6.4114   -0.3421   18.5053 C   0  0  0  0  0  0  0  0  0  0  0  0
    5.7790    0.1303   17.3976 N   0  0  0  0  0  0  0  0  0  0  0  0
    4.7956    0.9815   17.5727 C   0  0  0  0  0  0  0  0  0  0  0  0
    4.3263    1.4092   18.8507 C   0  0  0  0  0  0  0  0  0  0  0  0
    3.2257    2.2933   19.0130 C   0  0  0  0  0  0  0  0  0  0  0  0
    2.8019    2.6477   20.2653 C   0  0  0  0  0  0  0  0  0  0  0  0
    3.4538    2.1449   21.4126 C   0  0  0  0  0  0  0  0  0  0  0  0
    4.5239    1.2962   21.2830 C   0  0  0  0  0  0  0  0  0  0  0  0
    4.9899    0.9182   19.9960 C   0  0  0  0  0  0  0  0  0  0  0  0
    5.0177    0.8964   22.1621 H   0  0  0  0  0  0  0  0  0  0  0  0
    3.1110    2.4365   22.4004 H   0  0  0  0  0  0  0  0  0  0  0  0
    1.9606    3.3237   20.3880 H   0  0  0  0  0  0  0  0  0  0  0  0
    2.7343    2.6860   18.1269 H   0  0  0  0  0  0  0  0  0  0  0  0
    4.3067    1.3695   16.6773 H   0  0  0  0  0  0  0  0  0  0  0  0
    7.2199   -1.0468   18.3198 H   0  0  0  0  0  0  0  0  0  0  0  0
    7.8426    0.5178   21.5262 C   0  0  0  0  0  0  0  0  0  0  0  0
    8.3211   -0.2944   22.7391 C   0  0  2  0  0  0  0  0  0  0  0  0
    9.7192    0.0976   23.2200 C   0  0  0  0  0  0  0  0  0  0  0  0
    9.7727    1.4091   23.8238 N   0  0  0  0  0  0  0  0  0  0  0  0
   10.4105    2.5075   23.2916 C   0  0  0  0  0  0  0  0  0  0  0  0
   10.2220    3.8300   23.5863 C   0  0  0  0  0  0  0  0  0  0  0  0
   10.8537    4.7319   22.7577 N   0  0  0  0  0  0  0  0  0  0  0  0
   11.5275    4.1114   21.8392 C   0  0  0  0  0  0  0  0  0  0  0  0
   12.1741    4.7767   20.6706 C   0  0  0  0  0  0  0  0  0  0  0  0
   12.4969    5.7772   20.9586 H   0  0  0  0  0  0  0  0  0  0  0  0
   13.0244    4.2069   20.2880 H   0  0  0  0  0  0  0  0  0  0  0  0
   11.4355    4.8851   19.8653 H   0  0  0  0  0  0  0  0  0  0  0  0
   11.5711    2.3726   21.9835 S   0  0  0  0  0  0  0  0  0  0  0  0
    9.6024    4.2094   24.3916 H   0  0  0  0  0  0  0  0  0  0  0  0
    9.3730    1.5137   24.7427 H   0  0  0  0  0  0  0  0  0  0  0  0
   10.0506   -0.6362   23.9609 H   0  0  0  0  0  0  0  0  0  0  0  0
   10.3954    0.0661   22.3626 H   0  0  0  0  0  0  0  0  0  0  0  0
    7.6297   -0.1153   23.5724 H   0  0  0  0  0  0  0  0  0  0  0  0
    7.3781    1.4682   21.8116 H   0  0  0  0  0  0  0  0  0  0  0  0
    8.6689    0.7510   20.8341 H   0  0  0  0  0  0  0  0  0  0  0  0
    7.8124   -2.7068   23.4782 C   0  0  0  0  0  0  0  0  0  0  0  0
    6.5004   -2.8152   23.9610 C   0  0  0  0  0  0  0  0  0  0  0  0
    6.2350   -3.6178   25.0596 C   0  0  0  0  0  0  0  0  0  0  0  0
    4.5973   -3.7758   25.6364 Cl  0  0  0  0  0  0  0  0  0  0  0  0
    7.2475   -4.3092   25.7236 C   0  0  0  0  0  0  0  0  0  0  0  0
    8.5452   -4.1856   25.2641 C   0  0  0  0  0  0  0  0  0  0  0  0
    8.8284   -3.4101   24.1416 C   0  0  0  0  0  0  0  0  0  0  0  0
   10.2558   -3.3599   23.6848 C   0  0  0  0  0  0  0  0  0  0  0  0
   11.1711   -3.8172   24.3559 O   0  0  0  0  0  0  0  0  0  0  0  0
    9.3666   -4.6877   25.7642 H   0  0  0  0  0  0  0  0  0  0  0  0
    7.0024   -4.9197   26.5880 H   0  0  0  0  0  0  0  0  0  0  0  0
    5.6868   -2.2778   23.4812 H   0  0  0  0  0  0  0  0  0  0  0  0
    9.7848   -1.6761   20.8674 H   0  0  0  0  0  0  0  0  0  0  0  0
    9.0294   -3.2778   21.0323 H   0  0  0  0  0  0  0  0  0  0  0  0
   12.4215   -3.4415   22.4356 H   0  0  0  0  0  0  0  0  0  0  0  0
   11.8616   -2.6701   20.9247 H   0  0  0  0  0  0  0  0  0  0  0  0
   13.0385   -2.1293   24.1980 H   0  0  0  0  0  0  0  0  0  0  0  0
   14.5475    0.0596   23.2739 H   0  0  0  0  0  0  0  0  0  0  0  0
   13.1850    0.7399   24.1557 H   0  0  0  0  0  0  0  0  0  0  0  0
   14.3243   -0.3562   24.9922 H   0  0  0  0  0  0  0  0  0  0  0  0
  1  2  1  0
  2  3  1  0
  3  4  2  0
  3  5  1  0
  5  6  1  0
  6  7  1  0
  8  7  1  6
  8  9  1  0
  9 10  2  0
  9 11  1  0
 11 12  1  0
 12 13  2  0
 13 14  1  0
 14 15  2  0
 15 16  1  0
 16 17  2  0
 17 18  1  0
 18 19  2  0
 19 20  1  0
 20 21  2  0
 20 22  1  0
 19 23  1  0
 18 24  1  0
 17 25  1  0
 15 26  1  0
 13 27  1  0
 11 28  1  0
 28 29  1  0
 29 30  1  0
 30 31  1  0
 31 32  1  0
 32 33  2  0
 33 34  1  0
 34 35  2  0
 35 36  1  0
 36 37  1  0
 36 38  1  0
 36 39  1  0
 35 40  1  0
 33 41  1  0
 31 42  1  0
 30 43  1  0
 30 44  1  0
 29 45  1  1
 28 46  1  0
 28 47  1  0
  8 48  1  0
 48 49  2  0
 49 50  1  0
 50 51  1  0
 50 52  2  0
 52 53  1  0
 53 54  2  0
 54 55  1  0
 55 56  2  0
 53 57  1  0
 52 58  1  0
 49 59  1  0
  7 60  1  0
  7 61  1  0
  5 62  1  0
  5 63  1  0
  2 64  1  0
  1 65  1  0
  1 66  1  0
  1 67  1  0
 55  6  1  0
 29  8  1  0
 40 32  1  0
 54 48  1  0
 21 12  1  0
 21 16  1  0
M  END
>  <cnnaffinities>  (58) 
[7.36089]

>  <score>  (58) 
7.36089

>  <index>  (58) 
57

>  <Smiles>  (58) 
C(N(C(=O)C(N1C([C@@]2(C(=O)N(c3c(nc(c4c(c(c(c(c34)[H])[H])[H])[H])[H])[H])C([C@@]2(C(N(c2c(nc(C([H])([H])[H])s2)[H])[H])([H])[H])[H])([H])[H])c2c(c(Cl)c(c(c2C1=O)[H])[H])[H])([H])[H])([H])[H])[H])([H])([H])[H]

>  <h>  (58) 
<NA>

>  <Training>  (58) 
True

>  <Success>  (58) 
True

>  <enamine_searched>  (58) 
False

>  <enamine_id>  (58) 
nan

$$$$

     RDKit          3D

 57 62  0  0  0  0  0  0  0  0999 V2000
    7.7283   -3.0047   23.3363 C   0  0  0  0  0  0  0  0  0  0  0  0
    8.0114   -1.9302   22.2968 C   0  0  1  0  0  0  0  0  0  0  0  0
    6.9044   -1.8079   21.2404 C   0  0  0  0  0  0  0  0  0  0  0  0
    6.9181   -0.4103   20.8417 N   0  0  0  0  0  0  0  0  0  0  0  0
    6.1294    0.1005   19.7681 C   0  0  0  0  0  0  0  0  0  0  0  0
    6.4280   -0.2195   18.4668 C   0  0  0  0  0  0  0  0  0  0  0  0
    5.7584    0.2363   17.3728 N   0  0  0  0  0  0  0  0  0  0  0  0
    4.7349    1.0327   17.5753 C   0  0  0  0  0  0  0  0  0  0  0  0
    4.2869    1.4247   18.8697 C   0  0  0  0  0  0  0  0  0  0  0  0
    3.1601    2.2761   19.0490 C   0  0  0  0  0  0  0  0  0  0  0  0
    2.7477    2.6119   20.3090 C   0  0  0  0  0  0  0  0  0  0  0  0
    3.4293    2.1137   21.4415 C   0  0  0  0  0  0  0  0  0  0  0  0
    4.5153    1.2935   21.2934 C   0  0  0  0  0  0  0  0  0  0  0  0
    4.9870    0.9394   19.9995 C   0  0  0  0  0  0  0  0  0  0  0  0
    5.0279    0.9041   22.1664 H   0  0  0  0  0  0  0  0  0  0  0  0
    3.0867    2.3811   22.4346 H   0  0  0  0  0  0  0  0  0  0  0  0
    1.8895    3.2602   20.4520 H   0  0  0  0  0  0  0  0  0  0  0  0
    2.6334    2.6510   18.1738 H   0  0  0  0  0  0  0  0  0  0  0  0
    4.1935    1.4025   16.7015 H   0  0  0  0  0  0  0  0  0  0  0  0
    7.2815   -0.8642   18.2643 H   0  0  0  0  0  0  0  0  0  0  0  0
    7.6465    0.3859   21.6993 C   0  0  0  0  0  0  0  0  0  0  0  0
    7.7794    1.5909   21.6098 O   0  0  0  0  0  0  0  0  0  0  0  0
    8.2331   -0.4709   22.8280 C   0  0  1  0  0  0  0  0  0  0  0  0
    7.3686   -0.0814   24.0690 C   0  0  0  0  0  0  0  0  0  0  0  0
    8.0178   -0.6508   25.3619 N   0  0  0  0  0  0  0  0  0  0  0  0
    7.1454   -0.8689   26.5571 C   0  0  0  0  0  0  0  0  0  0  0  0
    6.6448   -2.3122   26.6042 C   0  0  0  0  0  0  0  0  0  0  0  0
    7.5327   -3.3040   27.0058 C   0  0  0  0  0  0  0  0  0  0  0  0
    7.0493   -4.5976   26.9992 C   0  0  0  0  0  0  0  0  0  0  0  0
    5.8027   -4.9007   26.6193 N   0  0  0  0  0  0  0  0  0  0  0  0
    5.0475   -3.8722   26.2263 C   0  0  0  0  0  0  0  0  0  0  0  0
    5.4041   -2.5873   26.1810 N   0  0  0  0  0  0  0  0  0  0  0  0
    4.0265   -4.1069   25.8997 H   0  0  0  0  0  0  0  0  0  0  0  0
    7.7009   -5.4124   27.3162 H   0  0  0  0  0  0  0  0  0  0  0  0
    8.5567   -3.0625   27.3184 H   0  0  0  0  0  0  0  0  0  0  0  0
    7.6354   -0.5792   27.4999 H   0  0  0  0  0  0  0  0  0  0  0  0
    6.2493   -0.1995   26.4650 H   0  0  0  0  0  0  0  0  0  0  0  0
    9.4877   -0.7291   25.6484 C   0  0  0  0  0  0  0  0  0  0  0  0
    9.4876   -0.7290   25.6483 O   0  0  0  0  0  0  0  0  0  0  0  0
   10.2268   -0.3204   24.3460 C   0  0  0  0  0  0  0  0  0  0  0  0
   11.6216   -0.0950   24.4278 C   0  0  0  0  0  0  0  0  0  0  0  0
   12.4923    0.1584   23.3795 C   0  0  0  0  0  0  0  0  0  0  0  0
   11.9321    0.2479   22.1394 C   0  0  0  0  0  0  0  0  0  0  0  0
   12.7906    0.5203   21.1670 F   0  0  0  0  0  0  0  0  0  0  0  0
   10.5722    0.0730   21.9643 C   0  0  0  0  0  0  0  0  0  0  0  0
    9.7141   -0.1916   23.0566 C   0  0  0  0  0  0  0  0  0  0  0  0
   10.1704    0.1220   20.9667 H   0  0  0  0  0  0  0  0  0  0  0  0
   13.5552    0.3068   23.5733 H   0  0  0  0  0  0  0  0  0  0  0  0
   12.0540    0.1082   25.4076 H   0  0  0  0  0  0  0  0  0  0  0  0
    6.3888   -0.5025   24.0305 H   0  0  0  0  0  0  0  0  0  0  0  0
    7.3121    1.0081   24.1981 H   0  0  0  0  0  0  0  0  0  0  0  0
    5.9240   -2.0868   21.6525 H   0  0  0  0  0  0  0  0  0  0  0  0
    7.1091   -2.4514   20.3874 H   0  0  0  0  0  0  0  0  0  0  0  0
    8.9377   -2.2108   21.7750 H   0  0  0  0  0  0  0  0  0  0  0  0
    6.7651   -2.8327   23.8237 H   0  0  0  0  0  0  0  0  0  0  0  0
    8.5149   -3.0306   24.1081 H   0  0  0  0  0  0  0  0  0  0  0  0
    7.6992   -3.9843   22.8539 H   0  0  0  0  0  0  0  0  0  0  0  0
  1  2  1  0
  2  3  1  0
  3  4  1  0
  4  5  1  0
  5  6  2  0
  6  7  1  0
  7  8  2  0
  8  9  1  0
  9 10  2  0
 10 11  1  0
 11 12  2  0
 12 13  1  0
 13 14  2  0
 13 15  1  0
 12 16  1  0
 11 17  1  0
 10 18  1  0
  8 19  1  0
  6 20  1  0
  4 21  1  0
 21 22  2  0
 21 23  1  0
 23 24  1  1
 24 25  1  0
 25 26  1  0
 26 27  1  0
 27 28  2  0
 28 29  1  0
 29 30  2  0
 30 31  1  0
 31 32  2  0
 31 33  1  0
 29 34  1  0
 28 35  1  0
 26 36  1  0
 26 37  1  0
 25 38  1  0
 38 39  2  0
 38 40  1  0
 40 41  2  0
 41 42  1  0
 42 43  2  0
 43 44  1  0
 43 45  1  0
 45 46  2  0
 45 47  1  0
 42 48  1  0
 41 49  1  0
 24 50  1  0
 24 51  1  0
  3 52  1  0
  3 53  1  0
  2 54  1  6
  1 55  1  0
  1 56  1  0
  1 57  1  0
 23  2  1  0
 32 27  1  0
 46 40  1  0
 14  5  1  0
 46 23  1  0
 14  9  1  0
M  END
>  <cnnaffinities>  (59) 
[6.31463, 6.21647]

>  <score>  (59) 
6.31463

>  <index>  (59) 
58

>  <Smiles>  (59) 
C([C@]1(C(N(c2c(nc(c3c(c(c(c(c23)[H])[H])[H])[H])[H])[H])C(=O)[C@]21C(N(C(c1c(c(nc(n1)[H])[H])[H])([H])[H])C(=O)c1c(c(c(F)c(c21)[H])[H])[H])([H])[H])([H])[H])[H])([H])([H])[H]

>  <h>  (59) 
<NA>

>  <Training>  (59) 
True

>  <Success>  (59) 
True

>  <enamine_searched>  (59) 
False

>  <enamine_id>  (59) 
nan

$$$$

     RDKit          3D

 60 65  0  0  0  0  0  0  0  0999 V2000
    9.7108   -3.9588   23.7625 C   0  0  0  0  0  0  0  0  0  0  0  0
    8.6921   -3.0301   23.9784 O   0  0  0  0  0  0  0  0  0  0  0  0
    7.6414   -3.0550   23.0406 C   0  0  0  0  0  0  0  0  0  0  0  0
    7.8087   -1.9719   21.9880 C   0  0  1  0  0  0  0  0  0  0  0  0
    6.6076   -1.8446   21.0523 C   0  0  0  0  0  0  0  0  0  0  0  0
    6.7840   -0.5097   20.5185 N   0  0  0  0  0  0  0  0  0  0  0  0
    5.9933    0.0556   19.4928 C   0  0  0  0  0  0  0  0  0  0  0  0
    6.2624   -0.2370   18.1816 C   0  0  0  0  0  0  0  0  0  0  0  0
    5.5937    0.2808   17.1224 N   0  0  0  0  0  0  0  0  0  0  0  0
    4.6102    1.1084   17.3861 C   0  0  0  0  0  0  0  0  0  0  0  0
    4.1948    1.4631   18.7024 C   0  0  0  0  0  0  0  0  0  0  0  0
    3.0996    2.3397   18.9287 C   0  0  0  0  0  0  0  0  0  0  0  0
    2.7054    2.6462   20.2022 C   0  0  0  0  0  0  0  0  0  0  0  0
    3.4050    2.1120   21.3088 C   0  0  0  0  0  0  0  0  0  0  0  0
    4.4816    1.2812   21.1180 C   0  0  0  0  0  0  0  0  0  0  0  0
    4.9020    0.9272   19.8010 C   0  0  0  0  0  0  0  0  0  0  0  0
    5.0183    0.8941   21.9797 H   0  0  0  0  0  0  0  0  0  0  0  0
    3.0913    2.3684   22.3176 H   0  0  0  0  0  0  0  0  0  0  0  0
    1.8618    3.3128   20.3737 H   0  0  0  0  0  0  0  0  0  0  0  0
    2.5883    2.7612   18.0658 H   0  0  0  0  0  0  0  0  0  0  0  0
    4.0805    1.5365   16.5361 H   0  0  0  0  0  0  0  0  0  0  0  0
    7.0908   -0.9020   17.9487 H   0  0  0  0  0  0  0  0  0  0  0  0
    7.6590    0.2706   21.2511 C   0  0  0  0  0  0  0  0  0  0  0  0
    7.9750    1.3947   20.9190 O   0  0  0  0  0  0  0  0  0  0  0  0
    8.0373   -0.5160   22.5159 C   0  0  1  0  0  0  0  0  0  0  0  0
    7.0269   -0.0996   23.6278 C   0  0  0  0  0  0  0  0  0  0  0  0
    7.3609   -0.6420   24.9295 N   0  0  0  0  0  0  0  0  0  0  0  0
    6.3277   -1.0213   25.8858 C   0  0  0  0  0  0  0  0  0  0  0  0
    6.0850    0.0541   26.9104 C   0  0  0  0  0  0  0  0  0  0  0  0
    5.0931    0.9145   26.9069 N   0  0  0  0  0  0  0  0  0  0  0  0
    5.3554    1.7645   27.9589 C   0  0  0  0  0  0  0  0  0  0  0  0
    6.5074    1.3985   28.5974 C   0  0  0  0  0  0  0  0  0  0  0  0
    6.9652    0.2993   27.9205 N   0  0  0  0  0  0  0  0  0  0  0  0
    7.8759   -0.1463   27.9699 H   0  0  0  0  0  0  0  0  0  0  0  0
    7.0456    1.8050   29.4433 H   0  0  0  0  0  0  0  0  0  0  0  0
    4.7161    2.6107   28.1762 H   0  0  0  0  0  0  0  0  0  0  0  0
    5.3971   -1.2227   25.3433 H   0  0  0  0  0  0  0  0  0  0  0  0
    6.6650   -1.9393   26.3858 H   0  0  0  0  0  0  0  0  0  0  0  0
    8.6350   -0.6860   25.3763 C   0  0  0  0  0  0  0  0  0  0  0  0
    8.9045   -1.0092   26.5354 O   0  0  0  0  0  0  0  0  0  0  0  0
    9.6877   -0.2974   24.4067 C   0  0  0  0  0  0  0  0  0  0  0  0
   10.9339    0.0107   24.9186 C   0  0  0  0  0  0  0  0  0  0  0  0
   11.9778    0.3289   24.0816 C   0  0  0  0  0  0  0  0  0  0  0  0
   11.7699    0.2023   22.7091 C   0  0  0  0  0  0  0  0  0  0  0  0
   13.1551    0.4283   21.6879 Cl  0  0  0  0  0  0  0  0  0  0  0  0
   10.5311   -0.1167   22.1738 C   0  0  0  0  0  0  0  0  0  0  0  0
    9.4339   -0.2757   23.0335 C   0  0  0  0  0  0  0  0  0  0  0  0
   10.4121   -0.2337   21.1044 H   0  0  0  0  0  0  0  0  0  0  0  0
   12.9507    0.6219   24.4613 H   0  0  0  0  0  0  0  0  0  0  0  0
   11.0387   -0.0272   25.9928 H   0  0  0  0  0  0  0  0  0  0  0  0
    6.9904    0.9963   23.6835 H   0  0  0  0  0  0  0  0  0  0  0  0
    6.0214   -0.4566   23.3793 H   0  0  0  0  0  0  0  0  0  0  0  0
    6.5696   -2.5829   20.2489 H   0  0  0  0  0  0  0  0  0  0  0  0
    5.6705   -1.9376   21.6225 H   0  0  0  0  0  0  0  0  0  0  0  0
    8.6964   -2.1914   21.3822 H   0  0  0  0  0  0  0  0  0  0  0  0
    6.7168   -2.8624   23.5953 H   0  0  0  0  0  0  0  0  0  0  0  0
    7.5519   -4.0477   22.5719 H   0  0  0  0  0  0  0  0  0  0  0  0
    9.3208   -4.9834   23.8419 H   0  0  0  0  0  0  0  0  0  0  0  0
   10.4530   -3.8026   24.5515 H   0  0  0  0  0  0  0  0  0  0  0  0
   10.2035   -3.8252   22.7866 H   0  0  0  0  0  0  0  0  0  0  0  0
  1  2  1  0
  2  3  1  0
  3  4  1  0
  4  5  1  0
  5  6  1  0
  6  7  1  0
  7  8  2  0
  8  9  1  0
  9 10  2  0
 10 11  1  0
 11 12  2  0
 12 13  1  0
 13 14  2  0
 14 15  1  0
 15 16  2  0
 15 17  1  0
 14 18  1  0
 13 19  1  0
 12 20  1  0
 10 21  1  0
  8 22  1  0
  6 23  1  0
 23 24  2  0
 23 25  1  0
 25 26  1  1
 26 27  1  0
 27 28  1  0
 28 29  1  0
 29 30  2  0
 30 31  1  0
 31 32  2  0
 32 33  1  0
 33 34  1  0
 32 35  1  0
 31 36  1  0
 28 37  1  0
 28 38  1  0
 27 39  1  0
 39 40  2  0
 39 41  1  0
 41 42  2  0
 42 43  1  0
 43 44  2  0
 44 45  1  0
 44 46  1  0
 46 47  2  0
 46 48  1  0
 43 49  1  0
 42 50  1  0
 26 51  1  0
 26 52  1  0
  5 53  1  0
  5 54  1  0
  4 55  1  6
  3 56  1  0
  3 57  1  0
  1 58  1  0
  1 59  1  0
  1 60  1  0
 25  4  1  0
 33 29  1  0
 47 41  1  0
 16  7  1  0
 47 25  1  0
 16 11  1  0
M  END
>  <cnnaffinities>  (60) 
[5.88456]

>  <score>  (60) 
5.88456

>  <index>  (60) 
59

>  <Smiles>  (60) 
C(OC([C@]1(C(N(c2c(nc(c3c(c(c(c(c23)[H])[H])[H])[H])[H])[H])C(=O)[C@]21C(N(C(c1nc(c(n1[H])[H])[H])([H])[H])C(=O)c1c(c(c(Cl)c(c21)[H])[H])[H])([H])[H])([H])[H])[H])([H])[H])([H])([H])[H]

>  <h>  (60) 
<NA>

>  <Training>  (60) 
True

>  <Success>  (60) 
True

>  <enamine_searched>  (60) 
False

>  <enamine_id>  (60) 
nan

$$$$

     RDKit          3D

 38 41  0  0  0  0  0  0  0  0999 V2000
    5.6399   -2.5173   20.9016 O   0  0  0  0  0  0  0  0  0  0  0  0
    6.1437   -1.6528   21.5940 C   0  0  0  0  0  0  0  0  0  0  0  0
    6.9113   -0.4912   20.9168 C   0  0  0  0  0  0  0  0  0  0  0  0
    6.1177    0.0930   19.7644 C   0  0  0  0  0  0  0  0  0  0  0  0
    6.4219   -0.2142   18.4622 C   0  0  0  0  0  0  0  0  0  0  0  0
    5.7561    0.2363   17.3626 N   0  0  0  0  0  0  0  0  0  0  0  0
    4.7356    1.0316   17.5745 C   0  0  0  0  0  0  0  0  0  0  0  0
    4.2867    1.4246   18.8670 C   0  0  0  0  0  0  0  0  0  0  0  0
    3.1636    2.2748   19.0434 C   0  0  0  0  0  0  0  0  0  0  0  0
    2.7488    2.6269   20.2996 C   0  0  0  0  0  0  0  0  0  0  0  0
    3.4405    2.1406   21.4316 C   0  0  0  0  0  0  0  0  0  0  0  0
    4.5320    1.3194   21.2868 C   0  0  0  0  0  0  0  0  0  0  0  0
    4.9905    0.9412   19.9957 C   0  0  0  0  0  0  0  0  0  0  0  0
    5.0504    0.9598   22.1709 H   0  0  0  0  0  0  0  0  0  0  0  0
    3.1065    2.4280   22.4234 H   0  0  0  0  0  0  0  0  0  0  0  0
    1.8916    3.2808   20.4360 H   0  0  0  0  0  0  0  0  0  0  0  0
    2.6426    2.6451   18.1632 H   0  0  0  0  0  0  0  0  0  0  0  0
    4.1986    1.4002   16.6989 H   0  0  0  0  0  0  0  0  0  0  0  0
    7.2664   -0.8675   18.2460 H   0  0  0  0  0  0  0  0  0  0  0  0
    7.8445   -0.9081   20.5181 H   0  0  0  0  0  0  0  0  0  0  0  0
    7.1887    0.3029   21.6211 H   0  0  0  0  0  0  0  0  0  0  0  0
    6.0051   -1.6581   22.9712 N   0  0  0  0  0  0  0  0  0  0  0  0
    4.7760   -2.1821   23.5721 C   0  0  0  0  0  0  0  0  0  0  0  0
    5.0735   -3.1829   24.6834 C   0  0  0  0  0  0  0  0  0  0  0  0
    6.1265   -2.6302   25.5931 C   0  0  0  0  0  0  0  0  0  0  0  0
    6.4272   -3.1790   27.2086 S   0  0  0  0  0  0  0  0  0  0  0  0
    7.7553   -2.0881   27.3739 C   0  0  0  0  0  0  0  0  0  0  0  0
    7.9446   -1.3462   26.2461 C   0  0  0  0  0  0  0  0  0  0  0  0
    6.9998   -1.6577   25.2225 C   0  0  0  0  0  0  0  0  0  0  0  0
    6.9450   -1.0040   23.8655 C   0  0  0  0  0  0  0  0  0  0  0  0
    6.7224    0.0675   23.9991 H   0  0  0  0  0  0  0  0  0  0  0  0
    7.9489   -1.0428   23.4324 H   0  0  0  0  0  0  0  0  0  0  0  0
    8.7365   -0.6136   26.1397 H   0  0  0  0  0  0  0  0  0  0  0  0
    8.3259   -2.0614   28.2943 H   0  0  0  0  0  0  0  0  0  0  0  0
    4.1595   -3.4306   25.2331 H   0  0  0  0  0  0  0  0  0  0  0  0
    5.4311   -4.1210   24.2433 H   0  0  0  0  0  0  0  0  0  0  0  0
    4.1803   -1.3544   23.9845 H   0  0  0  0  0  0  0  0  0  0  0  0
    4.1809   -2.6469   22.7849 H   0  0  0  0  0  0  0  0  0  0  0  0
  1  2  2  0
  2  3  1  0
  3  4  1  0
  4  5  2  0
  5  6  1  0
  6  7  2  0
  7  8  1  0
  8  9  2  0
  9 10  1  0
 10 11  2  0
 11 12  1  0
 12 13  2  0
 12 14  1  0
 11 15  1  0
 10 16  1  0
  9 17  1  0
  7 18  1  0
  5 19  1  0
  3 20  1  0
  3 21  1  0
  2 22  1  0
 22 23  1  0
 23 24  1  0
 24 25  1  0
 25 26  1  0
 26 27  1  0
 27 28  2  0
 28 29  1  0
 29 30  1  0
 30 31  1  0
 30 32  1  0
 28 33  1  0
 27 34  1  0
 24 35  1  0
 24 36  1  0
 23 37  1  0
 23 38  1  0
 13  4  1  0
 30 22  1  0
 13  8  1  0
 29 25  2  0
M  END
>  <cnnaffinities>  (61) 
[5.27213, 5.22891, 5.21876]

>  <score>  (61) 
5.27213

>  <index>  (61) 
60

>  <Smiles>  (61) 
O=C(C(c1c(nc(c2c(c(c(c(c12)[H])[H])[H])[H])[H])[H])([H])[H])N1C(C(c2sc(c(c2C1([H])[H])[H])[H])([H])[H])([H])[H]

>  <h>  (61) 
<NA>

>  <Training>  (61) 
True

>  <Success>  (61) 
True

>  <enamine_searched>  (61) 
False

>  <enamine_id>  (61) 
nan

$$$$

     RDKit          3D

 64 70  0  0  0  0  0  0  0  0999 V2000
    8.9195   -1.1783   26.5822 O   0  0  0  0  0  0  0  0  0  0  0  0
    8.6177   -0.8425   25.4409 C   0  0  0  0  0  0  0  0  0  0  0  0
    9.6611   -0.4405   24.4649 C   0  0  0  0  0  0  0  0  0  0  0  0
   10.8945   -0.0683   24.9665 C   0  0  0  0  0  0  0  0  0  0  0  0
   11.9358    0.2599   24.1215 C   0  0  0  0  0  0  0  0  0  0  0  0
   11.7201    0.1476   22.7505 C   0  0  0  0  0  0  0  0  0  0  0  0
   13.0475    0.4861   21.6831 Cl  0  0  0  0  0  0  0  0  0  0  0  0
   10.4821   -0.1992   22.2294 C   0  0  0  0  0  0  0  0  0  0  0  0
    9.4020   -0.4483   23.0927 C   0  0  0  0  0  0  0  0  0  0  0  0
    7.9922   -0.6655   22.5947 C   0  0  1  0  0  0  0  0  0  0  0  0
    7.0257   -0.1851   23.7198 C   0  0  0  0  0  0  0  0  0  0  0  0
    7.3272   -0.7818   25.0149 N   0  0  0  0  0  0  0  0  0  0  0  0
    6.3034   -0.9412   26.0473 C   0  0  0  0  0  0  0  0  0  0  0  0
    6.1306    0.2626   26.9575 C   0  0  0  0  0  0  0  0  0  0  0  0
    5.2259    1.2735   26.7219 C   0  0  0  0  0  0  0  0  0  0  0  0
    5.1655    2.3108   27.6511 C   0  0  0  0  0  0  0  0  0  0  0  0
    5.9275    2.3765   28.7368 N   0  0  0  0  0  0  0  0  0  0  0  0
    6.8041    1.4073   28.9744 N   0  0  0  0  0  0  0  0  0  0  0  0
    6.9013    0.3917   28.1214 C   0  0  0  0  0  0  0  0  0  0  0  0
    7.6475   -0.3650   28.3648 H   0  0  0  0  0  0  0  0  0  0  0  0
    4.4704    3.1363   27.5075 H   0  0  0  0  0  0  0  0  0  0  0  0
    4.5835    1.2766   25.8390 H   0  0  0  0  0  0  0  0  0  0  0  0
    5.3551   -1.1980   25.5605 H   0  0  0  0  0  0  0  0  0  0  0  0
    6.6119   -1.7730   26.6854 H   0  0  0  0  0  0  0  0  0  0  0  0
    5.9917   -0.4380   23.4520 H   0  0  0  0  0  0  0  0  0  0  0  0
    7.1264    0.9094   23.7765 H   0  0  0  0  0  0  0  0  0  0  0  0
    7.6486    0.1688   21.3379 C   0  0  0  0  0  0  0  0  0  0  0  0
    7.9924    1.3013   21.0717 O   0  0  0  0  0  0  0  0  0  0  0  0
    6.7856   -0.5760   20.5563 N   0  0  0  0  0  0  0  0  0  0  0  0
    6.0142    0.0122   19.5183 C   0  0  0  0  0  0  0  0  0  0  0  0
    6.2713   -0.3159   18.2139 C   0  0  0  0  0  0  0  0  0  0  0  0
    5.6143    0.2024   17.1462 N   0  0  0  0  0  0  0  0  0  0  0  0
    4.6505    1.0577   17.3892 C   0  0  0  0  0  0  0  0  0  0  0  0
    4.2310    1.4360   18.6958 C   0  0  0  0  0  0  0  0  0  0  0  0
    3.1446    2.3265   18.9089 C   0  0  0  0  0  0  0  0  0  0  0  0
    2.7476    2.6482   20.1767 C   0  0  0  0  0  0  0  0  0  0  0  0
    3.4232    2.1033   21.2916 C   0  0  0  0  0  0  0  0  0  0  0  0
    4.4802    1.2468   21.1100 C   0  0  0  0  0  0  0  0  0  0  0  0
    4.9237    0.8973   19.8031 C   0  0  0  0  0  0  0  0  0  0  0  0
    4.9801    0.8256   21.9754 H   0  0  0  0  0  0  0  0  0  0  0  0
    3.1043    2.3639   22.2960 H   0  0  0  0  0  0  0  0  0  0  0  0
    1.9175    3.3309   20.3395 H   0  0  0  0  0  0  0  0  0  0  0  0
    2.6321    2.7393   18.0435 H   0  0  0  0  0  0  0  0  0  0  0  0
    4.1409    1.4867   16.5275 H   0  0  0  0  0  0  0  0  0  0  0  0
    7.0672   -1.0229   17.9880 H   0  0  0  0  0  0  0  0  0  0  0  0
    6.4915   -1.8813   21.1215 C   0  0  0  0  0  0  0  0  0  0  0  0
    7.6682   -2.1105   22.0764 C   0  0  2  0  0  0  0  0  0  0  0  0
    7.3691   -3.1865   23.1160 C   0  0  0  0  0  0  0  0  0  0  0  0
    8.5565   -3.4938   23.8848 N   0  0  0  0  0  0  0  0  0  0  0  0
    8.5496   -4.1335   25.0762 C   0  0  0  0  0  0  0  0  0  0  0  0
    9.6074   -4.5863   25.6923 N   0  0  0  0  0  0  0  0  0  0  0  0
    9.3062   -5.1573   26.9009 N   0  0  0  0  0  0  0  0  0  0  0  0
    8.0480   -5.1299   27.1779 C   0  0  0  0  0  0  0  0  0  0  0  0
    7.0578   -4.4078   25.9440 S   0  0  0  0  0  0  0  0  0  0  0  0
    7.6174   -5.5230   28.0904 H   0  0  0  0  0  0  0  0  0  0  0  0
    9.4193   -3.0139   23.6645 H   0  0  0  0  0  0  0  0  0  0  0  0
    7.0048   -4.0891   22.6087 H   0  0  0  0  0  0  0  0  0  0  0  0
    6.5662   -2.8579   23.7845 H   0  0  0  0  0  0  0  0  0  0  0  0
    8.5415   -2.4388   21.4896 H   0  0  0  0  0  0  0  0  0  0  0  0
    5.5357   -1.8722   21.6754 H   0  0  0  0  0  0  0  0  0  0  0  0
    6.4091   -2.6357   20.3365 H   0  0  0  0  0  0  0  0  0  0  0  0
   10.3466   -0.2295   21.1577 H   0  0  0  0  0  0  0  0  0  0  0  0
   12.8972    0.5844   24.5120 H   0  0  0  0  0  0  0  0  0  0  0  0
   10.9815   -0.0750   26.0432 H   0  0  0  0  0  0  0  0  0  0  0  0
  1  2  2  0
  2  3  1  0
  3  4  2  0
  4  5  1  0
  5  6  2  0
  6  7  1  0
  6  8  1  0
  8  9  2  0
  9 10  1  0
 10 11  1  1
 11 12  1  0
 12 13  1  0
 13 14  1  0
 14 15  2  0
 15 16  1  0
 16 17  2  0
 17 18  1  0
 18 19  2  0
 19 20  1  0
 16 21  1  0
 15 22  1  0
 13 23  1  0
 13 24  1  0
 11 25  1  0
 11 26  1  0
 10 27  1  0
 27 28  2  0
 27 29  1  0
 29 30  1  0
 30 31  2  0
 31 32  1  0
 32 33  2  0
 33 34  1  0
 34 35  2  0
 35 36  1  0
 36 37  2  0
 37 38  1  0
 38 39  2  0
 38 40  1  0
 37 41  1  0
 36 42  1  0
 35 43  1  0
 33 44  1  0
 31 45  1  0
 29 46  1  0
 46 47  1  0
 47 48  1  0
 48 49  1  0
 49 50  1  0
 50 51  2  0
 51 52  1  0
 52 53  2  0
 53 54  1  0
 53 55  1  0
 49 56  1  0
 48 57  1  0
 48 58  1  0
 47 59  1  6
 46 60  1  0
 46 61  1  0
  8 62  1  0
  5 63  1  0
  4 64  1  0
 12  2  1  0
 19 14  1  0
 39 30  1  0
 54 50  1  0
  9  3  1  0
 47 10  1  0
 39 34  1  0
M  END
>  <cnnaffinities>  (62) 
[6.12362]

>  <score>  (62) 
6.12362

>  <index>  (62) 
61

>  <Smiles>  (62) 
O=C1c2c(c(c(Cl)c(c2[C@@]2(C(N1C(c1c(c(nnc1[H])[H])[H])([H])[H])([H])[H])C(=O)N(c1c(nc(c3c(c(c(c(c13)[H])[H])[H])[H])[H])[H])C([C@@]2(C(N(c1nnc(s1)[H])[H])([H])[H])[H])([H])[H])[H])[H])[H]

>  <h>  (62) 
<NA>

>  <Training>  (62) 
True

>  <Success>  (62) 
True

>  <enamine_searched>  (62) 
False

>  <enamine_id>  (62) 
nan

$$$$

     RDKit          3D

 70 76  0  0  0  0  0  0  0  0999 V2000
    7.3893   -2.3908   23.8654 C   0  0  0  0  0  0  0  0  0  0  0  0
    7.6754   -1.7655   22.5026 C   0  0  1  0  0  0  0  0  0  0  0  0
    6.4238   -1.4760   21.6574 C   0  0  0  0  0  0  0  0  0  0  0  0
    6.8810   -0.4297   20.7589 N   0  0  0  0  0  0  0  0  0  0  0  0
    6.0993    0.1042   19.7024 C   0  0  0  0  0  0  0  0  0  0  0  0
    6.4275   -0.1951   18.4054 C   0  0  0  0  0  0  0  0  0  0  0  0
    5.7431    0.2458   17.3217 N   0  0  0  0  0  0  0  0  0  0  0  0
    4.7194    1.0372   17.5372 C   0  0  0  0  0  0  0  0  0  0  0  0
    4.2764    1.4404   18.8310 C   0  0  0  0  0  0  0  0  0  0  0  0
    3.1770    2.3213   19.0164 C   0  0  0  0  0  0  0  0  0  0  0  0
    2.7735    2.6868   20.2720 C   0  0  0  0  0  0  0  0  0  0  0  0
    3.4623    2.2030   21.4047 C   0  0  0  0  0  0  0  0  0  0  0  0
    4.5334    1.3541   21.2516 C   0  0  0  0  0  0  0  0  0  0  0  0
    4.9754    0.9525   19.9593 C   0  0  0  0  0  0  0  0  0  0  0  0
    5.0645    1.0119   22.1321 H   0  0  0  0  0  0  0  0  0  0  0  0
    3.1644    2.5237   22.3987 H   0  0  0  0  0  0  0  0  0  0  0  0
    1.9307    3.3602   20.4001 H   0  0  0  0  0  0  0  0  0  0  0  0
    2.6727    2.7073   18.1371 H   0  0  0  0  0  0  0  0  0  0  0  0
    4.1778    1.3994   16.6620 H   0  0  0  0  0  0  0  0  0  0  0  0
    7.2856   -0.8335   18.2090 H   0  0  0  0  0  0  0  0  0  0  0  0
    8.0303    0.2028   21.1875 C   0  0  0  0  0  0  0  0  0  0  0  0
    8.5778    1.1170   20.5969 O   0  0  0  0  0  0  0  0  0  0  0  0
    8.4342   -0.4052   22.5483 C   0  0  1  0  0  0  0  0  0  0  0  0
    7.9018    0.4954   23.6930 C   0  0  0  0  0  0  0  0  0  0  0  0
    8.5716    1.7751   23.7244 N   0  0  0  0  0  0  0  0  0  0  0  0
    7.7824    2.9725   23.8659 C   0  0  0  0  0  0  0  0  0  0  0  0
    7.2926    3.4963   22.5164 C   0  0  0  0  0  0  0  0  0  0  0  0
    6.2359    4.5549   22.7204 N   0  0  2  0  0  4  0  0  0  0  0  0
    5.5213    4.9473   21.4482 C   0  0  0  0  0  0  0  0  0  0  0  0
    6.3732    6.0663   20.8276 C   0  0  0  0  0  0  0  0  0  0  0  0
    7.1867    6.6368   21.9846 C   0  0  0  0  0  0  0  0  0  0  0  0
    7.6368    8.0727   22.0626 C   0  0  0  0  0  0  0  0  0  0  0  0
    9.5757    6.7636   22.7354 O   0  0  0  0  0  0  0  0  0  0  0  0
    8.6215    7.0038   21.7414 C   0  0  0  0  0  0  0  0  0  0  0  0
    8.9778    6.9137   20.7171 H   0  0  0  0  0  0  0  0  0  0  0  0
   10.1336    6.0493   22.4081 H   0  0  0  0  0  0  0  0  0  0  0  0
    7.2909    8.7619   21.2996 H   0  0  0  0  0  0  0  0  0  0  0  0
    7.7568    8.5006   23.0537 H   0  0  0  0  0  0  0  0  0  0  0  0
    6.8253    5.8620   23.2268 C   0  0  0  0  0  0  0  0  0  0  0  0
    7.7005    5.6624   23.8384 H   0  0  0  0  0  0  0  0  0  0  0  0
    6.0719    6.3627   23.8331 H   0  0  0  0  0  0  0  0  0  0  0  0
    5.7530    6.8161   20.3240 H   0  0  0  0  0  0  0  0  0  0  0  0
    7.0413    5.6389   20.0736 H   0  0  0  0  0  0  0  0  0  0  0  0
    4.5231    5.2948   21.7232 H   0  0  0  0  0  0  0  0  0  0  0  0
    5.4178    4.0748   20.7985 H   0  0  0  0  0  0  0  0  0  0  0  0
    5.5503    4.1652   23.3811 H   0  0  0  0  0  0  0  0  0  0  0  0
    8.1192    3.9229   21.9396 H   0  0  0  0  0  0  0  0  0  0  0  0
    6.8582    2.6838   21.9285 H   0  0  0  0  0  0  0  0  0  0  0  0
    8.4140    3.7001   24.3748 H   0  0  0  0  0  0  0  0  0  0  0  0
    6.9292    2.7504   24.5180 H   0  0  0  0  0  0  0  0  0  0  0  0
    9.9135    1.9218   23.5351 C   0  0  0  0  0  0  0  0  0  0  0  0
   10.4861    2.9967   23.6589 O   0  0  0  0  0  0  0  0  0  0  0  0
   10.6425    0.6648   23.1869 C   0  0  0  0  0  0  0  0  0  0  0  0
   12.0287    0.6435   23.3394 C   0  0  0  0  0  0  0  0  0  0  0  0
   12.7283   -0.5271   23.1197 C   0  0  0  0  0  0  0  0  0  0  0  0
   12.0096   -1.6659   22.7558 C   0  0  0  0  0  0  0  0  0  0  0  0
   12.8141   -3.1997   22.6428 Cl  0  0  0  0  0  0  0  0  0  0  0  0
   10.6486   -1.6414   22.5312 C   0  0  0  0  0  0  0  0  0  0  0  0
    9.9319   -0.4669   22.7506 C   0  0  0  0  0  0  0  0  0  0  0  0
   10.1752   -2.5493   22.1742 H   0  0  0  0  0  0  0  0  0  0  0  0
   13.8015   -0.5859   23.2678 H   0  0  0  0  0  0  0  0  0  0  0  0
   12.5307    1.5495   23.6680 H   0  0  0  0  0  0  0  0  0  0  0  0
    6.8285    0.6761   23.5712 H   0  0  0  0  0  0  0  0  0  0  0  0
    8.0539   -0.0315   24.6444 H   0  0  0  0  0  0  0  0  0  0  0  0
    6.0849   -2.3452   21.0844 H   0  0  0  0  0  0  0  0  0  0  0  0
    5.5856   -1.1485   22.2922 H   0  0  0  0  0  0  0  0  0  0  0  0
    8.2710   -2.4608   21.9001 H   0  0  0  0  0  0  0  0  0  0  0  0
    8.3060   -2.4551   24.4652 H   0  0  0  0  0  0  0  0  0  0  0  0
    6.9635   -3.3968   23.7800 H   0  0  0  0  0  0  0  0  0  0  0  0
    6.6747   -1.7742   24.4245 H   0  0  0  0  0  0  0  0  0  0  0  0
  1  2  1  0
  2  3  1  0
  3  4  1  0
  4  5  1  0
  5  6  2  0
  6  7  1  0
  7  8  2  0
  8  9  1  0
  9 10  2  0
 10 11  1  0
 11 12  2  0
 12 13  1  0
 13 14  2  0
 13 15  1  0
 12 16  1  0
 11 17  1  0
 10 18  1  0
  8 19  1  0
  6 20  1  0
  4 21  1  0
 21 22  2  0
 21 23  1  0
 23 24  1  1
 24 25  1  0
 25 26  1  0
 26 27  1  0
 27 28  1  0
 28 29  1  0
 29 30  1  0
 30 31  1  0
 31 32  1  0
 32 33  1  0
 33 34  1  0
 34 35  1  0
 34 36  1  0
 32 37  1  0
 32 38  1  0
 31 39  1  0
 39 40  1  0
 39 41  1  0
 30 42  1  0
 30 43  1  0
 29 44  1  0
 29 45  1  0
 28 46  1  1
 27 47  1  0
 27 48  1  0
 26 49  1  0
 26 50  1  0
 25 51  1  0
 51 52  2  0
 51 53  1  0
 53 54  2  0
 54 55  1  0
 55 56  2  0
 56 57  1  0
 56 58  1  0
 58 59  2  0
 58 60  1  0
 55 61  1  0
 54 62  1  0
 24 63  1  0
 24 64  1  0
  3 65  1  0
  3 66  1  0
  2 67  1  6
  1 68  1  0
  1 69  1  0
  1 70  1  0
 23  2  1  0
 39 28  1  0
 59 53  1  0
 14  5  1  0
 59 23  1  0
 14  9  1  0
 34 31  1  0
M  CHG  1  28   1
M  END
>  <cnnaffinities>  (63) 
[6.4812]

>  <score>  (63) 
6.4812

>  <index>  (63) 
62

>  <Smiles>  (63) 
C([C@]1(C(N(c2c(nc(c3c(c(c(c(c23)[H])[H])[H])[H])[H])[H])C(=O)[C@]21C(N(C(C([N@@+]1(C(C(C3(C(OC3([H])[H])([H])[H])C1([H])[H])([H])[H])([H])[H])[H])([H])[H])([H])[H])C(=O)c1c(c(c(Cl)c(c21)[H])[H])[H])([H])[H])([H])[H])[H])([H])([H])[H]

>  <h>  (63) 
<NA>

>  <Training>  (63) 
True

>  <Success>  (63) 
True

>  <enamine_searched>  (63) 
False

>  <enamine_id>  (63) 
nan

$$$$

     RDKit          3D

 56 61  0  0  0  0  0  0  0  0999 V2000
   12.6312    2.2671   22.2895 C   0  0  0  0  0  0  0  0  0  0  0  0
   12.6477    0.8772   22.6857 N   0  0  0  0  0  0  0  0  0  0  0  0
   13.0181    0.3750   23.8814 C   0  0  0  0  0  0  0  0  0  0  0  0
   12.8266   -0.9844   23.8267 C   0  0  0  0  0  0  0  0  0  0  0  0
   12.3178   -1.2088   22.5296 C   0  0  0  0  0  0  0  0  0  0  0  0
   11.8876   -2.5039   21.9156 C   0  0  0  0  0  0  0  0  0  0  0  0
   10.5167   -2.8351   22.2721 N   0  0  0  0  0  0  0  0  0  0  0  0
    9.4251   -2.5668   21.3552 C   0  0  0  0  0  0  0  0  0  0  0  0
    8.2205   -1.9310   22.0884 C   0  0  1  0  0  0  0  0  0  0  0  0
    8.5350   -0.4776   22.5320 C   0  0  0  0  0  0  0  0  0  0  0  0
    7.9066    0.4389   21.4809 C   0  0  0  0  0  0  0  0  0  0  0  0
    6.9112   -0.4113   20.8472 N   0  0  0  0  0  0  0  0  0  0  0  0
    6.1154    0.0438   19.7712 C   0  0  0  0  0  0  0  0  0  0  0  0
    6.4393   -0.2816   18.4792 C   0  0  0  0  0  0  0  0  0  0  0  0
    5.7892    0.1941   17.3851 N   0  0  0  0  0  0  0  0  0  0  0  0
    4.7811    1.0052   17.5933 C   0  0  0  0  0  0  0  0  0  0  0  0
    4.3236    1.3989   18.8847 C   0  0  0  0  0  0  0  0  0  0  0  0
    3.2083    2.2558   19.0581 C   0  0  0  0  0  0  0  0  0  0  0  0
    2.7875    2.5952   20.3120 C   0  0  0  0  0  0  0  0  0  0  0  0
    3.4634    2.1066   21.4529 C   0  0  0  0  0  0  0  0  0  0  0  0
    4.5543    1.2842   21.3150 C   0  0  0  0  0  0  0  0  0  0  0  0
    5.0093    0.9123   20.0203 C   0  0  0  0  0  0  0  0  0  0  0  0
    5.0670    0.9070   22.1958 H   0  0  0  0  0  0  0  0  0  0  0  0
    3.1204    2.3952   22.4414 H   0  0  0  0  0  0  0  0  0  0  0  0
    1.9349    3.2553   20.4391 H   0  0  0  0  0  0  0  0  0  0  0  0
    2.7124    2.6351   18.1681 H   0  0  0  0  0  0  0  0  0  0  0  0
    4.2606    1.3967   16.7169 H   0  0  0  0  0  0  0  0  0  0  0  0
    7.2740   -0.9504   18.2817 H   0  0  0  0  0  0  0  0  0  0  0  0
    7.0448   -1.7535   21.1206 C   0  0  0  0  0  0  0  0  0  0  0  0
    6.3168   -2.6194   20.6780 O   0  0  0  0  0  0  0  0  0  0  0  0
    8.6443    0.7900   20.7450 H   0  0  0  0  0  0  0  0  0  0  0  0
    7.4358    1.3235   21.9234 H   0  0  0  0  0  0  0  0  0  0  0  0
    9.6119   -0.3256   22.6001 H   0  0  0  0  0  0  0  0  0  0  0  0
    8.0942   -0.3091   23.5174 H   0  0  0  0  0  0  0  0  0  0  0  0
    7.8876   -2.8349   23.2496 C   0  0  0  0  0  0  0  0  0  0  0  0
    6.5928   -2.9104   23.7520 C   0  0  0  0  0  0  0  0  0  0  0  0
    6.3438   -3.6696   24.8808 C   0  0  0  0  0  0  0  0  0  0  0  0
    4.7391   -3.6933   25.5308 Cl  0  0  0  0  0  0  0  0  0  0  0  0
    7.3461   -4.3932   25.5253 C   0  0  0  0  0  0  0  0  0  0  0  0
    8.6222   -4.3350   25.0078 C   0  0  0  0  0  0  0  0  0  0  0  0
    8.9004   -3.5368   23.9062 C   0  0  0  0  0  0  0  0  0  0  0  0
   10.3226   -3.3939   23.5009 C   0  0  0  0  0  0  0  0  0  0  0  0
   11.2449   -3.7219   24.2394 O   0  0  0  0  0  0  0  0  0  0  0  0
    9.4426   -4.9001   25.4311 H   0  0  0  0  0  0  0  0  0  0  0  0
    7.1239   -4.9897   26.4045 H   0  0  0  0  0  0  0  0  0  0  0  0
    5.7889   -2.3748   23.2613 H   0  0  0  0  0  0  0  0  0  0  0  0
    9.7868   -1.8836   20.5854 H   0  0  0  0  0  0  0  0  0  0  0  0
    9.1210   -3.5094   20.8990 H   0  0  0  0  0  0  0  0  0  0  0  0
   11.9659   -2.4385   20.8247 H   0  0  0  0  0  0  0  0  0  0  0  0
   12.5225   -3.3098   22.2937 H   0  0  0  0  0  0  0  0  0  0  0  0
   12.1963   -0.0721   21.8559 N   0  0  0  0  0  0  0  0  0  0  0  0
   12.9806   -1.7274   24.5968 H   0  0  0  0  0  0  0  0  0  0  0  0
   13.3399    1.0270   24.6766 H   0  0  0  0  0  0  0  0  0  0  0  0
   13.6460    2.6770   22.3420 H   0  0  0  0  0  0  0  0  0  0  0  0
   12.2294    2.2967   21.2736 H   0  0  0  0  0  0  0  0  0  0  0  0
   11.9886    2.8331   22.9686 H   0  0  0  0  0  0  0  0  0  0  0  0
  1  2  1  0
  2  3  1  0
  3  4  2  0
  4  5  1  0
  5  6  1  0
  6  7  1  0
  7  8  1  0
  9  8  1  6
  9 10  1  0
 10 11  1  0
 11 12  1  0
 12 13  1  0
 13 14  2  0
 14 15  1  0
 15 16  2  0
 16 17  1  0
 17 18  2  0
 18 19  1  0
 19 20  2  0
 20 21  1  0
 21 22  2  0
 21 23  1  0
 20 24  1  0
 19 25  1  0
 18 26  1  0
 16 27  1  0
 14 28  1  0
 12 29  1  0
 29 30  2  0
 11 31  1  0
 11 32  1  0
 10 33  1  0
 10 34  1  0
  9 35  1  0
 35 36  2  0
 36 37  1  0
 37 38  1  0
 37 39  2  0
 39 40  1  0
 40 41  2  0
 41 42  1  0
 42 43  2  0
 40 44  1  0
 39 45  1  0
 36 46  1  0
  8 47  1  0
  8 48  1  0
  6 49  1  0
  6 50  1  0
  5 51  2  0
  4 52  1  0
  3 53  1  0
  1 54  1  0
  1 55  1  0
  1 56  1  0
 51  2  1  0
 42  7  1  0
 29  9  1  0
 41 35  1  0
 22 13  1  0
 22 17  1  0
M  END
>  <cnnaffinities>  (64) 
[6.81667]

>  <score>  (64) 
6.81667

>  <index>  (64) 
63

>  <Smiles>  (64) 
C(n1c(c(c(C(N2C([C@]3(C(C(N(c4c(nc(c5c(c(c(c(c45)[H])[H])[H])[H])[H])[H])C3=O)([H])[H])([H])[H])c3c(c(Cl)c(c(c3C2=O)[H])[H])[H])([H])[H])([H])[H])n1)[H])[H])([H])([H])[H]

>  <h>  (64) 
<NA>

>  <Training>  (64) 
True

>  <Success>  (64) 
True

>  <enamine_searched>  (64) 
False

>  <enamine_id>  (64) 
nan

$$$$

     RDKit          3D

 66 71  0  0  0  0  0  0  0  0999 V2000
    7.2633   -2.2153   24.0096 C   0  0  0  0  0  0  0  0  0  0  0  0
    7.6234   -1.6454   22.6457 C   0  0  1  0  0  0  0  0  0  0  0  0
    6.4327   -1.4612   21.6980 C   0  0  0  0  0  0  0  0  0  0  0  0
    6.8888   -0.4150   20.8018 N   0  0  0  0  0  0  0  0  0  0  0  0
    6.1171    0.0942   19.7341 C   0  0  0  0  0  0  0  0  0  0  0  0
    6.4556   -0.2107   18.4429 C   0  0  0  0  0  0  0  0  0  0  0  0
    5.7713    0.2214   17.3557 N   0  0  0  0  0  0  0  0  0  0  0  0
    4.7415    1.0053   17.5727 C   0  0  0  0  0  0  0  0  0  0  0  0
    4.2954    1.4125   18.8637 C   0  0  0  0  0  0  0  0  0  0  0  0
    3.1752    2.2642   19.0403 C   0  0  0  0  0  0  0  0  0  0  0  0
    2.7781    2.6259   20.2975 C   0  0  0  0  0  0  0  0  0  0  0  0
    3.4792    2.1632   21.4326 C   0  0  0  0  0  0  0  0  0  0  0  0
    4.5722    1.3449   21.2918 C   0  0  0  0  0  0  0  0  0  0  0  0
    4.9988    0.9407   19.9931 C   0  0  0  0  0  0  0  0  0  0  0  0
    5.1132    1.0283   22.1774 H   0  0  0  0  0  0  0  0  0  0  0  0
    3.1558    2.4656   22.4244 H   0  0  0  0  0  0  0  0  0  0  0  0
    1.9260    3.2856   20.4317 H   0  0  0  0  0  0  0  0  0  0  0  0
    2.6546    2.6203   18.1574 H   0  0  0  0  0  0  0  0  0  0  0  0
    4.1966    1.3618   16.6994 H   0  0  0  0  0  0  0  0  0  0  0  0
    7.3199   -0.8455   18.2610 H   0  0  0  0  0  0  0  0  0  0  0  0
    8.0010    0.2683   21.2396 C   0  0  0  0  0  0  0  0  0  0  0  0
    8.5671    1.1402   20.6061 O   0  0  0  0  0  0  0  0  0  0  0  0
    8.3884   -0.2872   22.6264 C   0  0  1  0  0  0  0  0  0  0  0  0
    7.9553    0.6651   23.7679 C   0  0  0  0  0  0  0  0  0  0  0  0
    8.7152    1.9013   23.7391 N   0  0  0  0  0  0  0  0  0  0  0  0
    8.0464    3.1782   23.8374 C   0  0  0  0  0  0  0  0  0  0  0  0
    7.7522    3.7988   22.4738 C   0  0  0  0  0  0  0  0  0  0  0  0
    7.2198    5.1792   22.7151 N   0  0  0  0  0  4  0  0  0  0  0  0
    5.7493    5.2098   23.0761 C   0  0  0  0  0  0  0  0  0  0  0  0
    4.9001    5.4573   21.8247 C   0  0  0  0  0  0  0  0  0  0  0  0
    5.5768    5.0299   20.6634 O   0  0  0  0  0  0  0  0  0  0  0  0
    6.6357    5.9260   20.3869 C   0  0  0  0  0  0  0  0  0  0  0  0
    7.5164    6.1675   21.6315 C   0  0  0  0  0  0  0  0  0  0  0  0
    7.3022    7.1557   22.0400 H   0  0  0  0  0  0  0  0  0  0  0  0
    8.5858    6.1394   21.3807 H   0  0  0  0  0  0  0  0  0  0  0  0
    7.2096    5.4776   19.5827 H   0  0  0  0  0  0  0  0  0  0  0  0
    6.2263    6.8925   20.0382 H   0  0  0  0  0  0  0  0  0  0  0  0
    3.9692    4.8934   21.8735 H   0  0  0  0  0  0  0  0  0  0  0  0
    4.6857    6.5337   21.7371 H   0  0  0  0  0  0  0  0  0  0  0  0
    5.6004    6.0113   23.8038 H   0  0  0  0  0  0  0  0  0  0  0  0
    5.4765    4.2602   23.5420 H   0  0  0  0  0  0  0  0  0  0  0  0
    7.7308    5.5134   23.5438 H   0  0  0  0  0  0  0  0  0  0  0  0
    8.6743    3.8832   21.8897 H   0  0  0  0  0  0  0  0  0  0  0  0
    7.0247    3.2196   21.8979 H   0  0  0  0  0  0  0  0  0  0  0  0
    7.1173    3.0684   24.4127 H   0  0  0  0  0  0  0  0  0  0  0  0
    8.6935    3.8568   24.3948 H   0  0  0  0  0  0  0  0  0  0  0  0
   10.0863    1.8900   23.7087 C   0  0  0  0  0  0  0  0  0  0  0  0
   10.7694    2.8531   24.0292 O   0  0  0  0  0  0  0  0  0  0  0  0
   10.7060    0.6115   23.2140 C   0  0  0  0  0  0  0  0  0  0  0  0
   12.0965    0.4679   23.2036 C   0  0  0  0  0  0  0  0  0  0  0  0
   12.6916   -0.6445   22.6257 C   0  0  0  0  0  0  0  0  0  0  0  0
   11.8586   -1.5742   21.9966 C   0  0  0  0  0  0  0  0  0  0  0  0
   12.3579   -2.9419   21.0592 Cl  0  0  0  0  0  0  0  0  0  0  0  0
   10.4946   -1.4507   22.0279 C   0  0  0  0  0  0  0  0  0  0  0  0
    9.8886   -0.3935   22.6853 C   0  0  0  0  0  0  0  0  0  0  0  0
    9.9389   -2.1995   21.4826 H   0  0  0  0  0  0  0  0  0  0  0  0
   13.7694   -0.7550   22.6466 H   0  0  0  0  0  0  0  0  0  0  0  0
   12.7073    1.2587   23.6296 H   0  0  0  0  0  0  0  0  0  0  0  0
    8.1356    0.1543   24.7276 H   0  0  0  0  0  0  0  0  0  0  0  0
    6.8869    0.9024   23.6916 H   0  0  0  0  0  0  0  0  0  0  0  0
    5.5140   -1.1849   22.2368 H   0  0  0  0  0  0  0  0  0  0  0  0
    6.2254   -2.3825   21.1422 H   0  0  0  0  0  0  0  0  0  0  0  0
    8.2645   -2.3839   22.1581 H   0  0  0  0  0  0  0  0  0  0  0  0
    6.8164   -3.2065   23.8809 H   0  0  0  0  0  0  0  0  0  0  0  0
    8.1600   -2.3188   24.6323 H   0  0  0  0  0  0  0  0  0  0  0  0
    6.5427   -1.5791   24.5377 H   0  0  0  0  0  0  0  0  0  0  0  0
  1  2  1  0
  2  3  1  0
  3  4  1  0
  4  5  1  0
  5  6  2  0
  6  7  1  0
  7  8  2  0
  8  9  1  0
  9 10  2  0
 10 11  1  0
 11 12  2  0
 12 13  1  0
 13 14  2  0
 13 15  1  0
 12 16  1  0
 11 17  1  0
 10 18  1  0
  8 19  1  0
  6 20  1  0
  4 21  1  0
 21 22  2  0
 21 23  1  0
 23 24  1  1
 24 25  1  0
 25 26  1  0
 26 27  1  0
 27 28  1  0
 28 29  1  0
 29 30  1  0
 30 31  1  0
 31 32  1  0
 32 33  1  0
 33 34  1  0
 33 35  1  0
 32 36  1  0
 32 37  1  0
 30 38  1  0
 30 39  1  0
 29 40  1  0
 29 41  1  0
 28 42  1  0
 27 43  1  0
 27 44  1  0
 26 45  1  0
 26 46  1  0
 25 47  1  0
 47 48  2  0
 47 49  1  0
 49 50  2  0
 50 51  1  0
 51 52  2  0
 52 53  1  0
 52 54  1  0
 54 55  2  0
 54 56  1  0
 51 57  1  0
 50 58  1  0
 24 59  1  0
 24 60  1  0
  3 61  1  0
  3 62  1  0
  2 63  1  6
  1 64  1  0
  1 65  1  0
  1 66  1  0
 23  2  1  0
 33 28  1  0
 55 49  1  0
 14  5  1  0
 55 23  1  0
 14  9  1  0
M  CHG  1  28   1
M  END
>  <cnnaffinities>  (65) 
[6.23829]

>  <score>  (65) 
6.23829

>  <index>  (65) 
64

>  <Smiles>  (65) 
C([C@]1(C(N(c2c(nc(c3c(c(c(c(c23)[H])[H])[H])[H])[H])[H])C(=O)[C@]21C(N(C(C([N+]1(C(C(OC(C1([H])[H])([H])[H])([H])[H])([H])[H])[H])([H])[H])([H])[H])C(=O)c1c(c(c(Cl)c(c21)[H])[H])[H])([H])[H])([H])[H])[H])([H])([H])[H]

>  <h>  (65) 
<NA>

>  <Training>  (65) 
True

>  <Success>  (65) 
True

>  <enamine_searched>  (65) 
False

>  <enamine_id>  (65) 
nan

$$$$

     RDKit          3D

 54 59  0  0  0  0  0  0  0  0999 V2000
   12.2200   -2.9785   21.2871 C   0  0  0  0  0  0  0  0  0  0  0  0
   11.6152   -1.9639   21.9781 N   0  0  0  0  0  0  0  0  0  0  0  0
   12.0948   -1.8464   23.4015 C   0  0  0  0  0  0  0  0  0  0  0  0
   12.7928   -2.6538   23.9379 O   0  0  0  0  0  0  0  0  0  0  0  0
   11.5959   -0.5463   23.9965 C   0  0  0  0  0  0  0  0  0  0  0  0
   10.1823   -0.5339   24.2727 N   0  0  0  0  0  0  0  0  0  0  0  0
    9.5277   -1.3940   25.1358 C   0  0  0  0  0  0  0  0  0  0  0  0
    9.9783   -2.4144   25.6115 O   0  0  0  0  0  0  0  0  0  0  0  0
    8.1515   -0.8336   25.2682 C   0  0  0  0  0  0  0  0  0  0  0  0
    7.1739   -1.1906   26.1557 C   0  0  0  0  0  0  0  0  0  0  0  0
    5.9670   -0.4562   26.1443 C   0  0  0  0  0  0  0  0  0  0  0  0
    5.8347    0.6508   25.3425 C   0  0  0  0  0  0  0  0  0  0  0  0
    4.3423    1.5307   25.3564 Cl  0  0  0  0  0  0  0  0  0  0  0  0
    6.9319    1.2231   24.5191 C   0  0  0  0  0  0  0  0  0  0  0  0
    7.9526    0.1507   24.2201 C   0  0  1  0  0  0  0  0  0  0  0  0
    9.2835    0.3158   23.5643 C   0  0  2  0  0  0  0  0  0  0  0  0
    8.1926   -0.3285   22.7603 C   0  0  2  0  0  0  0  0  0  0  0  0
    7.6709    0.5051   21.6187 C   0  0  0  0  0  0  0  0  0  0  0  0
    7.8244    1.6923   21.4221 O   0  0  0  0  0  0  0  0  0  0  0  0
    6.9263   -0.3358   20.8211 N   0  0  0  0  0  0  0  0  0  0  0  0
    6.1453    0.1386   19.7493 C   0  0  0  0  0  0  0  0  0  0  0  0
    6.4506   -0.2136   18.4603 C   0  0  0  0  0  0  0  0  0  0  0  0
    5.7726    0.2208   17.3727 N   0  0  0  0  0  0  0  0  0  0  0  0
    4.7557    1.0236   17.5856 C   0  0  0  0  0  0  0  0  0  0  0  0
    4.3109    1.4298   18.8759 C   0  0  0  0  0  0  0  0  0  0  0  0
    3.1886    2.2793   19.0551 C   0  0  0  0  0  0  0  0  0  0  0  0
    2.7613    2.6101   20.3114 C   0  0  0  0  0  0  0  0  0  0  0  0
    3.4280    2.1027   21.4521 C   0  0  0  0  0  0  0  0  0  0  0  0
    4.5186    1.2841   21.3047 C   0  0  0  0  0  0  0  0  0  0  0  0
    5.0052    0.9566   20.0063 C   0  0  0  0  0  0  0  0  0  0  0  0
    5.0123    0.8812   22.1858 H   0  0  0  0  0  0  0  0  0  0  0  0
    3.0825    2.3599   22.4513 H   0  0  0  0  0  0  0  0  0  0  0  0
    1.9006    3.2594   20.4412 H   0  0  0  0  0  0  0  0  0  0  0  0
    2.6824    2.6544   18.1705 H   0  0  0  0  0  0  0  0  0  0  0  0
    4.2182    1.3817   16.7094 H   0  0  0  0  0  0  0  0  0  0  0  0
    7.3034   -0.8660   18.2749 H   0  0  0  0  0  0  0  0  0  0  0  0
    7.0652   -1.7410   21.1521 C   0  0  0  0  0  0  0  0  0  0  0  0
    8.0229   -1.7332   22.3226 C   0  0  0  0  0  0  0  0  0  0  0  0
    8.5667   -2.8818   22.7489 C   0  0  0  0  0  0  0  0  0  0  0  0
    8.3349   -4.0263   22.0703 F   0  0  0  0  0  0  0  0  0  0  0  0
    9.1916   -3.0651   23.6146 H   0  0  0  0  0  0  0  0  0  0  0  0
    7.4682   -2.2848   20.3019 H   0  0  0  0  0  0  0  0  0  0  0  0
    6.0963   -2.1874   21.4133 H   0  0  0  0  0  0  0  0  0  0  0  0
    9.6627    1.2684   23.2040 H   0  0  0  0  0  0  0  0  0  0  0  0
    6.5346    1.6933   23.6091 H   0  0  0  0  0  0  0  0  0  0  0  0
    7.4313    2.0566   25.0504 H   0  0  0  0  0  0  0  0  0  0  0  0
    5.1496   -0.7419   26.8028 H   0  0  0  0  0  0  0  0  0  0  0  0
    7.3361   -2.0230   26.8341 H   0  0  0  0  0  0  0  0  0  0  0  0
   11.7559    0.2410   23.2612 H   0  0  0  0  0  0  0  0  0  0  0  0
   12.2040   -0.2691   24.8536 H   0  0  0  0  0  0  0  0  0  0  0  0
   11.8357   -1.0394   21.5373 H   0  0  0  0  0  0  0  0  0  0  0  0
   10.5605   -2.0277   21.9832 H   0  0  0  0  0  0  0  0  0  0  0  0
   12.9883   -3.4760   21.8373 H   0  0  0  0  0  0  0  0  0  0  0  0
   11.9680   -3.1577   20.2613 H   0  0  0  0  0  0  0  0  0  0  0  0
  1  2  1  0
  2  3  1  0
  3  4  2  0
  3  5  1  0
  5  6  1  0
  6  7  1  0
  7  8  2  0
  7  9  1  0
  9 10  2  0
 10 11  1  0
 11 12  2  0
 12 13  1  0
 12 14  1  0
 15 14  1  6
 15 16  1  0
 16 17  1  0
 17 18  1  6
 18 19  2  0
 18 20  1  0
 20 21  1  0
 21 22  2  0
 22 23  1  0
 23 24  2  0
 24 25  1  0
 25 26  2  0
 26 27  1  0
 27 28  2  0
 28 29  1  0
 29 30  2  0
 29 31  1  0
 28 32  1  0
 27 33  1  0
 26 34  1  0
 24 35  1  0
 22 36  1  0
 20 37  1  0
 37 38  1  0
 38 39  2  0
 39 40  1  0
 39 41  1  0
 37 42  1  0
 37 43  1  0
 16 44  1  6
 14 45  1  0
 14 46  1  0
 11 47  1  0
 10 48  1  0
  5 49  1  0
  5 50  1  0
  2 51  1  0
  1 52  1  0
  1 53  1  0
  1 54  1  0
 16  6  1  0
 38 17  1  0
 15  9  1  0
 30 21  1  0
 17 15  1  0
 30 25  1  0
M  END
>  <cnnaffinities>  (66) 
[6.49157]

>  <score>  (66) 
6.49157

>  <index>  (66) 
65

>  <Smiles>  (66) 
C(N(C(=O)C(N1C(=O)C2=C(C(=C(Cl)C([C@]32[C@@]1([C@@]13C(=O)N(c2c(nc(c3c(c(c(c(c23)[H])[H])[H])[H])[H])[H])C(/C/1=C(\F)/[H])([H])[H])[H])([H])[H])[H])[H])([H])[H])[H])([H])([H])[H]

>  <h>  (66) 
<NA>

>  <Training>  (66) 
True

>  <Success>  (66) 
True

>  <enamine_searched>  (66) 
False

>  <enamine_id>  (66) 
nan

$$$$

     RDKit          3D

 47 50  0  0  0  0  0  0  0  0999 V2000
    8.0159    1.6738   20.8308 O   0  0  0  0  0  0  0  0  0  0  0  0
    8.0183    0.5501   21.3106 C   0  0  0  0  0  0  0  0  0  0  0  0
    6.9531   -0.4784   20.9096 C   0  0  0  0  0  0  0  0  0  0  0  0
    6.1100    0.0418   19.7830 C   0  0  0  0  0  0  0  0  0  0  0  0
    6.4469   -0.2536   18.4894 C   0  0  0  0  0  0  0  0  0  0  0  0
    5.7994    0.1998   17.3822 N   0  0  0  0  0  0  0  0  0  0  0  0
    4.7810    1.0008   17.5849 C   0  0  0  0  0  0  0  0  0  0  0  0
    4.3244    1.4033   18.8677 C   0  0  0  0  0  0  0  0  0  0  0  0
    3.2125    2.2645   19.0378 C   0  0  0  0  0  0  0  0  0  0  0  0
    2.7990    2.6331   20.2880 C   0  0  0  0  0  0  0  0  0  0  0  0
    3.4930    2.1679   21.4292 C   0  0  0  0  0  0  0  0  0  0  0  0
    4.5811    1.3433   21.2930 C   0  0  0  0  0  0  0  0  0  0  0  0
    5.0154    0.9246   20.0083 C   0  0  0  0  0  0  0  0  0  0  0  0
    5.1278    1.0187   22.1744 H   0  0  0  0  0  0  0  0  0  0  0  0
    3.1594    2.4708   22.4173 H   0  0  0  0  0  0  0  0  0  0  0  0
    1.9409    3.2864   20.4143 H   0  0  0  0  0  0  0  0  0  0  0  0
    2.7033    2.6301   18.1490 H   0  0  0  0  0  0  0  0  0  0  0  0
    4.2560    1.3726   16.7019 H   0  0  0  0  0  0  0  0  0  0  0  0
    7.2985   -0.9026   18.2829 H   0  0  0  0  0  0  0  0  0  0  0  0
    6.3548   -0.7642   21.7852 H   0  0  0  0  0  0  0  0  0  0  0  0
    7.4869   -1.3792   20.5766 H   0  0  0  0  0  0  0  0  0  0  0  0
    8.9957    0.1614   22.2107 N   0  0  0  0  0  0  0  0  0  0  0  0
    9.2200   -1.2238   22.6085 C   0  0  0  0  0  0  0  0  0  0  0  0
    9.9352   -1.2940   23.9638 C   0  0  0  0  0  0  0  0  0  0  0  0
   11.2510   -0.4887   24.0054 C   0  0  1  0  0  0  0  0  0  0  0  0
   12.4250   -1.2573   23.3786 C   0  0  0  0  0  0  0  0  0  0  0  0
   13.7312   -0.4612   23.4402 C   0  0  0  0  0  0  0  0  0  0  0  0
   13.5224    0.7860   22.6162 C   0  0  0  0  0  0  0  0  0  0  0  0
   14.6623    1.5418   22.5412 F   0  0  0  0  0  0  0  0  0  0  0  0
   13.2534    0.3653   21.3296 F   0  0  0  0  0  0  0  0  0  0  0  0
   12.3810    1.6574   23.1027 C   0  0  0  0  0  0  0  0  0  0  0  0
   11.0586    0.9056   23.3631 C   0  0  1  0  0  0  0  0  0  0  0  0
   10.2622    0.8573   22.0678 C   0  0  0  0  0  0  0  0  0  0  0  0
   10.8493    0.3609   21.2894 H   0  0  0  0  0  0  0  0  0  0  0  0
   10.0679    1.8771   21.7290 H   0  0  0  0  0  0  0  0  0  0  0  0
   10.4568    1.4969   24.0627 H   0  0  0  0  0  0  0  0  0  0  0  0
   12.2046    2.4234   22.3370 H   0  0  0  0  0  0  0  0  0  0  0  0
   12.7267    2.1669   24.0052 H   0  0  0  0  0  0  0  0  0  0  0  0
   14.5566   -1.0166   22.9970 H   0  0  0  0  0  0  0  0  0  0  0  0
   14.0207   -0.1795   24.4589 H   0  0  0  0  0  0  0  0  0  0  0  0
   12.2105   -1.4220   22.3171 H   0  0  0  0  0  0  0  0  0  0  0  0
   12.5426   -2.2447   23.8432 H   0  0  0  0  0  0  0  0  0  0  0  0
   11.4989   -0.3092   25.0587 H   0  0  0  0  0  0  0  0  0  0  0  0
    9.2504   -0.9229   24.7382 H   0  0  0  0  0  0  0  0  0  0  0  0
   10.1383   -2.3539   24.1852 H   0  0  0  0  0  0  0  0  0  0  0  0
    8.2601   -1.7449   22.6659 H   0  0  0  0  0  0  0  0  0  0  0  0
    9.8283   -1.7296   21.8351 H   0  0  0  0  0  0  0  0  0  0  0  0
  1  2  2  0
  2  3  1  0
  3  4  1  0
  4  5  2  0
  5  6  1  0
  6  7  2  0
  7  8  1  0
  8  9  2  0
  9 10  1  0
 10 11  2  0
 11 12  1  0
 12 13  2  0
 12 14  1  0
 11 15  1  0
 10 16  1  0
  9 17  1  0
  7 18  1  0
  5 19  1  0
  3 20  1  0
  3 21  1  0
  2 22  1  0
 22 23  1  0
 23 24  1  0
 24 25  1  0
 25 26  1  0
 26 27  1  0
 27 28  1  0
 28 29  1  0
 28 30  1  0
 28 31  1  0
 31 32  1  0
 32 33  1  0
 33 34  1  0
 33 35  1  0
 32 36  1  1
 31 37  1  0
 31 38  1  0
 27 39  1  0
 27 40  1  0
 26 41  1  0
 26 42  1  0
 25 43  1  1
 24 44  1  0
 24 45  1  0
 23 46  1  0
 23 47  1  0
 13  4  1  0
 33 22  1  0
 13  8  1  0
 32 25  1  0
M  END
>  <cnnaffinities>  (67) 
[5.82974]

>  <score>  (67) 
5.82974

>  <index>  (67) 
66

>  <Smiles>  (67) 
O=C(C(c1c(nc(c2c(c(c(c(c12)[H])[H])[H])[H])[H])[H])([H])[H])N1C(C([C@]2(C(C(C(F)(F)C([C@]2(C1([H])[H])[H])([H])[H])([H])[H])([H])[H])[H])([H])[H])([H])[H]

>  <h>  (67) 
<NA>

>  <Training>  (67) 
True

>  <Success>  (67) 
True

>  <enamine_searched>  (67) 
False

>  <enamine_id>  (67) 
nan

$$$$

     RDKit          3D

 69 74  0  0  0  0  0  0  0  0999 V2000
    5.6712    4.8240   22.8934 C   0  0  0  0  0  0  0  0  0  0  0  0
    7.1408    4.9678   22.7911 N   0  0  0  0  0  4  0  0  0  0  0  0
    7.8524    3.6667   22.5719 C   0  0  0  0  0  0  0  0  0  0  0  0
    8.0662    2.9228   23.8996 C   0  0  0  0  0  0  0  0  0  0  0  0
    8.8061    1.7021   23.7316 N   0  0  0  0  0  0  0  0  0  0  0  0
    8.1164    0.4250   23.7533 C   0  0  0  0  0  0  0  0  0  0  0  0
    8.5149   -0.4374   22.5454 C   0  0  2  0  0  0  0  0  0  0  0  0
    8.0605    0.1917   21.2109 C   0  0  0  0  0  0  0  0  0  0  0  0
    8.6147    1.0752   20.5832 O   0  0  0  0  0  0  0  0  0  0  0  0
    6.8935   -0.4251   20.8222 N   0  0  0  0  0  0  0  0  0  0  0  0
    6.1263    0.0974   19.7525 C   0  0  0  0  0  0  0  0  0  0  0  0
    6.4527   -0.2173   18.4575 C   0  0  0  0  0  0  0  0  0  0  0  0
    5.7682    0.2215   17.3715 N   0  0  0  0  0  0  0  0  0  0  0  0
    4.7476    1.0161   17.5888 C   0  0  0  0  0  0  0  0  0  0  0  0
    4.3063    1.4293   18.8796 C   0  0  0  0  0  0  0  0  0  0  0  0
    3.1916    2.2916   19.0580 C   0  0  0  0  0  0  0  0  0  0  0  0
    2.7979    2.6675   20.3126 C   0  0  0  0  0  0  0  0  0  0  0  0
    3.4991    2.2031   21.4476 C   0  0  0  0  0  0  0  0  0  0  0  0
    4.5859    1.3742   21.3036 C   0  0  0  0  0  0  0  0  0  0  0  0
    5.0132    0.9594   20.0089 C   0  0  0  0  0  0  0  0  0  0  0  0
    5.1158    1.0276   22.1853 H   0  0  0  0  0  0  0  0  0  0  0  0
    3.1888    2.5223   22.4389 H   0  0  0  0  0  0  0  0  0  0  0  0
    1.9509    3.3347   20.4436 H   0  0  0  0  0  0  0  0  0  0  0  0
    2.6731    2.6484   18.1728 H   0  0  0  0  0  0  0  0  0  0  0  0
    4.2082    1.3763   16.7135 H   0  0  0  0  0  0  0  0  0  0  0  0
    7.3058   -0.8636   18.2600 H   0  0  0  0  0  0  0  0  0  0  0  0
    6.4948   -1.5332   21.6744 C   0  0  0  0  0  0  0  0  0  0  0  0
    7.7658   -1.8118   22.4876 C   0  0  2  0  0  0  0  0  0  0  0  0
    7.5314   -2.5733   23.7888 C   0  0  0  0  0  0  0  0  0  0  0  0
    6.5644   -1.8999   24.5803 O   0  0  0  0  0  0  0  0  0  0  0  0
    6.1792   -2.5967   25.7450 C   0  0  0  0  0  0  0  0  0  0  0  0
    4.8247   -3.2177   25.5685 C   0  0  0  0  0  0  0  0  0  0  0  0
    4.8516   -4.1870   24.5867 F   0  0  0  0  0  0  0  0  0  0  0  0
    3.9247   -3.4365   26.7302 C   0  0  0  0  0  0  0  0  0  0  0  0
    3.6009   -2.3813   25.6849 C   0  0  0  0  0  0  0  0  0  0  0  0
    3.7287   -1.3271   25.9141 H   0  0  0  0  0  0  0  0  0  0  0  0
    2.7838   -2.5965   25.0044 H   0  0  0  0  0  0  0  0  0  0  0  0
    4.2713   -3.1459   27.7192 H   0  0  0  0  0  0  0  0  0  0  0  0
    3.3167   -4.3348   26.7224 H   0  0  0  0  0  0  0  0  0  0  0  0
    6.1403   -1.8798   26.5765 H   0  0  0  0  0  0  0  0  0  0  0  0
    6.9054   -3.3816   25.9935 H   0  0  0  0  0  0  0  0  0  0  0  0
    7.1935   -3.5999   23.5769 H   0  0  0  0  0  0  0  0  0  0  0  0
    8.4766   -2.6564   24.3511 H   0  0  0  0  0  0  0  0  0  0  0  0
    8.3817   -2.4706   21.8711 H   0  0  0  0  0  0  0  0  0  0  0  0
    6.1795   -2.3936   21.0693 H   0  0  0  0  0  0  0  0  0  0  0  0
    5.6727   -1.2527   22.3434 H   0  0  0  0  0  0  0  0  0  0  0  0
   10.0141   -0.4815   22.5905 C   0  0  0  0  0  0  0  0  0  0  0  0
   10.6503   -1.5779   22.0553 C   0  0  0  0  0  0  0  0  0  0  0  0
   12.0152   -1.6477   22.0970 C   0  0  0  0  0  0  0  0  0  0  0  0
   12.6071   -3.1581   21.5598 Cl  0  0  0  0  0  0  0  0  0  0  0  0
   12.8128   -0.6069   22.5686 C   0  0  0  0  0  0  0  0  0  0  0  0
   12.1891    0.5292   23.0347 C   0  0  0  0  0  0  0  0  0  0  0  0
   10.8022    0.5815   23.0593 C   0  0  0  0  0  0  0  0  0  0  0  0
   10.1522    1.8159   23.5614 C   0  0  0  0  0  0  0  0  0  0  0  0
   10.7712    2.8524   23.7811 O   0  0  0  0  0  0  0  0  0  0  0  0
   12.7442    1.3914   23.3847 H   0  0  0  0  0  0  0  0  0  0  0  0
   13.8894   -0.6624   22.5685 H   0  0  0  0  0  0  0  0  0  0  0  0
   10.1170   -2.3996   21.6001 H   0  0  0  0  0  0  0  0  0  0  0  0
    7.0386    0.6081   23.7447 H   0  0  0  0  0  0  0  0  0  0  0  0
    8.3873   -0.1442   24.6524 H   0  0  0  0  0  0  0  0  0  0  0  0
    7.1263    2.6360   24.3877 H   0  0  0  0  0  0  0  0  0  0  0  0
    8.6760    3.5516   24.5470 H   0  0  0  0  0  0  0  0  0  0  0  0
    8.8206    3.8857   22.1258 H   0  0  0  0  0  0  0  0  0  0  0  0
    7.2832    3.0589   21.8661 H   0  0  0  0  0  0  0  0  0  0  0  0
    7.5000    5.3634   23.6955 H   0  0  0  0  0  0  0  0  0  0  0  0
    7.3673    5.6197   22.0129 H   0  0  0  0  0  0  0  0  0  0  0  0
    5.3992    4.1707   23.7263 H   0  0  0  0  0  0  0  0  0  0  0  0
    5.2095    5.7959   23.0505 H   0  0  0  0  0  0  0  0  0  0  0  0
    5.2622    4.3788   21.9819 H   0  0  0  0  0  0  0  0  0  0  0  0
  1  2  1  0
  2  3  1  0
  3  4  1  0
  4  5  1  0
  5  6  1  0
  7  6  1  1
  7  8  1  0
  8  9  2  0
  8 10  1  0
 10 11  1  0
 11 12  2  0
 12 13  1  0
 13 14  2  0
 14 15  1  0
 15 16  2  0
 16 17  1  0
 17 18  2  0
 18 19  1  0
 19 20  2  0
 19 21  1  0
 18 22  1  0
 17 23  1  0
 16 24  1  0
 14 25  1  0
 12 26  1  0
 10 27  1  0
 27 28  1  0
 28 29  1  0
 29 30  1  0
 30 31  1  0
 31 32  1  0
 32 33  1  0
 32 34  1  0
 34 35  1  0
 35 36  1  0
 35 37  1  0
 34 38  1  0
 34 39  1  0
 31 40  1  0
 31 41  1  0
 29 42  1  0
 29 43  1  0
 28 44  1  6
 27 45  1  0
 27 46  1  0
  7 47  1  0
 47 48  2  0
 48 49  1  0
 49 50  1  0
 49 51  2  0
 51 52  1  0
 52 53  2  0
 53 54  1  0
 54 55  2  0
 52 56  1  0
 51 57  1  0
 48 58  1  0
  6 59  1  0
  6 60  1  0
  4 61  1  0
  4 62  1  0
  3 63  1  0
  3 64  1  0
  2 65  1  0
  2 66  1  0
  1 67  1  0
  1 68  1  0
  1 69  1  0
 54  5  1  0
 28  7  1  0
 35 32  1  0
 53 47  1  0
 20 11  1  0
 20 15  1  0
M  CHG  1   2   1
M  END
>  <cnnaffinities>  (68) 
[6.57169]

>  <score>  (68) 
6.57169

>  <index>  (68) 
67

>  <Smiles>  (68) 
C([N+](C(C(N1C([C@@]2(C(=O)N(c3c(nc(c4c(c(c(c(c34)[H])[H])[H])[H])[H])[H])C([C@@]2(C(OC(C2(F)C(C2([H])[H])([H])[H])([H])[H])([H])[H])[H])([H])[H])c2c(c(Cl)c(c(c2C1=O)[H])[H])[H])([H])[H])([H])[H])([H])[H])([H])[H])([H])([H])[H]

>  <h>  (68) 
<NA>

>  <Training>  (68) 
True

>  <Success>  (68) 
True

>  <enamine_searched>  (68) 
False

>  <enamine_id>  (68) 
nan

$$$$

     RDKit          3D

 57 62  0  0  0  0  0  0  0  0999 V2000
   14.2551    1.2776   22.3718 C   0  0  0  0  0  0  0  0  0  0  0  0
   13.5642    0.0550   22.7882 C   0  0  0  0  0  0  0  0  0  0  0  0
   12.7120   -0.5844   21.9962 N   0  0  0  0  0  0  0  0  0  0  0  0
   12.3639   -1.7640   22.6884 C   0  0  0  0  0  0  0  0  0  0  0  0
   11.5467   -2.6751   22.0228 C   0  0  0  0  0  0  0  0  0  0  0  0
   10.2636   -2.9031   22.5172 N   0  0  0  0  0  0  0  0  0  0  0  0
    9.1413   -2.6251   21.6334 C   0  0  0  0  0  0  0  0  0  0  0  0
    7.9715   -1.9325   22.3553 C   0  0  2  0  0  0  0  0  0  0  0  0
    6.8166   -1.8220   21.3243 C   0  0  0  0  0  0  0  0  0  0  0  0
    6.1003   -2.7118   20.9124 O   0  0  0  0  0  0  0  0  0  0  0  0
    6.7337   -0.5094   20.9034 N   0  0  0  0  0  0  0  0  0  0  0  0
    5.9699   -0.0757   19.7933 C   0  0  0  0  0  0  0  0  0  0  0  0
    6.3169   -0.4178   18.5105 C   0  0  0  0  0  0  0  0  0  0  0  0
    5.7303    0.1001   17.3989 N   0  0  0  0  0  0  0  0  0  0  0  0
    4.7637    0.9690   17.5698 C   0  0  0  0  0  0  0  0  0  0  0  0
    4.2783    1.3758   18.8447 C   0  0  0  0  0  0  0  0  0  0  0  0
    3.2133    2.3030   18.9771 C   0  0  0  0  0  0  0  0  0  0  0  0
    2.7766    2.6831   20.2165 C   0  0  0  0  0  0  0  0  0  0  0  0
    3.3865    2.1544   21.3784 C   0  0  0  0  0  0  0  0  0  0  0  0
    4.4182    1.2521   21.2753 C   0  0  0  0  0  0  0  0  0  0  0  0
    4.8925    0.8437   19.9986 C   0  0  0  0  0  0  0  0  0  0  0  0
    4.8813    0.8411   22.1676 H   0  0  0  0  0  0  0  0  0  0  0  0
    3.0405    2.4731   22.3583 H   0  0  0  0  0  0  0  0  0  0  0  0
    1.9637    3.3989   20.3162 H   0  0  0  0  0  0  0  0  0  0  0  0
    2.7689    2.7047   18.0698 H   0  0  0  0  0  0  0  0  0  0  0  0
    4.3069    1.4055   16.6782 H   0  0  0  0  0  0  0  0  0  0  0  0
    7.1215   -1.1265   18.3264 H   0  0  0  0  0  0  0  0  0  0  0  0
    7.7439    0.3444   21.4835 C   0  0  0  0  0  0  0  0  0  0  0  0
    8.1856   -0.4266   22.7279 C   0  0  2  0  0  0  0  0  0  0  0  0
    9.5729    0.0178   23.1621 C   0  0  0  0  0  0  0  0  0  0  0  0
    9.5559    1.0815   23.4306 H   0  0  0  0  0  0  0  0  0  0  0  0
   10.2727   -0.1073   22.3300 H   0  0  0  0  0  0  0  0  0  0  0  0
    9.9531   -0.5565   24.0137 H   0  0  0  0  0  0  0  0  0  0  0  0
    7.4713   -0.2405   23.5411 H   0  0  0  0  0  0  0  0  0  0  0  0
    7.3503    1.3399   21.7151 H   0  0  0  0  0  0  0  0  0  0  0  0
    8.6009    0.4908   20.8041 H   0  0  0  0  0  0  0  0  0  0  0  0
    7.6734   -2.8086   23.5579 C   0  0  0  0  0  0  0  0  0  0  0  0
    6.3705   -2.8966   24.0495 C   0  0  0  0  0  0  0  0  0  0  0  0
    6.1300   -3.6561   25.1773 C   0  0  0  0  0  0  0  0  0  0  0  0
    4.8646   -3.7850   25.6069 F   0  0  0  0  0  0  0  0  0  0  0  0
    7.1341   -4.2981   25.8943 C   0  0  0  0  0  0  0  0  0  0  0  0
    8.4252   -4.2156   25.4086 C   0  0  0  0  0  0  0  0  0  0  0  0
    8.6878   -3.5054   24.2364 C   0  0  0  0  0  0  0  0  0  0  0  0
   10.0930   -3.4863   23.7515 C   0  0  0  0  0  0  0  0  0  0  0  0
   11.0282   -3.9493   24.3818 O   0  0  0  0  0  0  0  0  0  0  0  0
    9.2548   -4.7057   25.9102 H   0  0  0  0  0  0  0  0  0  0  0  0
    6.8978   -4.8489   26.7985 H   0  0  0  0  0  0  0  0  0  0  0  0
    5.5446   -2.4042   23.5469 H   0  0  0  0  0  0  0  0  0  0  0  0
    8.7378   -3.5605   21.2332 H   0  0  0  0  0  0  0  0  0  0  0  0
    9.5343   -2.0137   20.8215 H   0  0  0  0  0  0  0  0  0  0  0  0
   12.7741   -0.5929   20.9897 H   0  0  0  0  0  0  0  0  0  0  0  0
   11.8185   -3.0495   21.0413 H   0  0  0  0  0  0  0  0  0  0  0  0
   12.8446   -1.7214   23.9130 N   0  0  0  0  0  0  0  0  0  0  0  0
   13.6310   -0.5470   23.9480 O   0  0  0  0  0  0  0  0  0  0  0  0
   14.7966    1.0425   21.4584 H   0  0  0  0  0  0  0  0  0  0  0  0
   14.9591    1.6733   23.0815 H   0  0  0  0  0  0  0  0  0  0  0  0
   13.5114    2.0420   22.1374 H   0  0  0  0  0  0  0  0  0  0  0  0
  1  2  1  0
  2  3  2  0
  3  4  1  0
  4  5  1  0
  5  6  1  0
  6  7  1  0
  8  7  1  6
  8  9  1  0
  9 10  2  0
  9 11  1  0
 11 12  1  0
 12 13  2  0
 13 14  1  0
 14 15  2  0
 15 16  1  0
 16 17  2  0
 17 18  1  0
 18 19  2  0
 19 20  1  0
 20 21  2  0
 20 22  1  0
 19 23  1  0
 18 24  1  0
 17 25  1  0
 15 26  1  0
 13 27  1  0
 11 28  1  0
 28 29  1  0
 29 30  1  0
 30 31  1  0
 30 32  1  0
 30 33  1  0
 29 34  1  1
 28 35  1  0
 28 36  1  0
  8 37  1  0
 37 38  2  0
 38 39  1  0
 39 40  1  0
 39 41  2  0
 41 42  1  0
 42 43  2  0
 43 44  1  0
 44 45  2  0
 42 46  1  0
 41 47  1  0
 38 48  1  0
  7 49  1  0
  7 50  1  0
  5 51  1  0
  5 52  1  0
  4 53  2  0
 53 54  1  0
  1 55  1  0
  1 56  1  0
  1 57  1  0
 54  2  1  0
 44  6  1  0
 29  8  1  0
 43 37  1  0
 21 12  1  0
 21 16  1  0
M  END
>  <cnnaffinities>  (69) 
[6.70552]

>  <score>  (69) 
6.70552

>  <index>  (69) 
68

>  <Smiles>  (69) 
C(c1nc(C(N2C([C@@]3(C(=O)N(c4c(nc(c5c(c(c(c(c45)[H])[H])[H])[H])[H])[H])C([C@@]3(C([H])([H])[H])[H])([H])[H])c3c(c(F)c(c(c3C2=O)[H])[H])[H])([H])[H])([H])[H])no1)([H])([H])[H]

>  <h>  (69) 
<NA>

>  <Training>  (69) 
True

>  <Success>  (69) 
True

>  <enamine_searched>  (69) 
False

>  <enamine_id>  (69) 
nan

$$$$

     RDKit          3D

 64 68  0  0  0  0  0  0  0  0999 V2000
    2.5744   -3.6845   29.0528 C   0  0  0  0  0  0  0  0  0  0  0  0
    3.9046   -3.7112   28.3053 C   0  0  0  0  0  0  0  0  0  0  0  0
    3.7040   -3.6135   26.8088 C   0  0  0  0  0  0  0  0  0  0  0  0
    3.3438   -2.5665   26.3003 O   0  0  0  0  0  0  0  0  0  0  0  0
    3.9490   -4.7614   26.0608 N   0  0  0  0  0  0  0  0  0  0  0  0
    3.8963   -6.1114   26.6285 C   0  0  0  0  0  0  0  0  0  0  0  0
    3.1417   -7.0380   25.6892 C   0  0  0  0  0  0  0  0  0  0  0  0
    3.8205   -7.0768   24.3180 C   0  0  0  0  0  0  0  0  0  0  0  0
    4.4591   -5.7622   23.9104 C   0  0  0  0  0  0  0  0  0  0  0  0
    5.1215   -5.6554   22.6850 C   0  0  0  0  0  0  0  0  0  0  0  0
    5.8209   -4.5196   22.3196 C   0  0  0  0  0  0  0  0  0  0  0  0
    5.8315   -3.4116   23.1653 C   0  0  0  0  0  0  0  0  0  0  0  0
    6.4070   -2.1767   22.7367 N   0  0  0  0  0  0  0  0  0  0  0  0
    7.3247   -1.4396   23.6004 C   0  0  0  0  0  0  0  0  0  0  0  0
    8.7756   -1.5423   23.1633 C   0  0  0  0  0  0  0  0  0  0  0  0
    9.2670   -2.8394   23.0539 C   0  0  0  0  0  0  0  0  0  0  0  0
   10.5682   -3.0792   22.6575 C   0  0  0  0  0  0  0  0  0  0  0  0
   11.4206   -2.0307   22.3424 C   0  0  0  0  0  0  0  0  0  0  0  0
   10.9322   -0.7325   22.4382 C   0  0  0  0  0  0  0  0  0  0  0  0
   12.0159    0.5866   22.0520 Cl  0  0  0  0  0  0  0  0  0  0  0  0
    9.6254   -0.4695   22.8602 C   0  0  0  0  0  0  0  0  0  0  0  0
    9.3171    0.5750   22.9406 H   0  0  0  0  0  0  0  0  0  0  0  0
   12.4399   -2.2209   22.0264 H   0  0  0  0  0  0  0  0  0  0  0  0
   10.9156   -4.0955   22.6237 H   0  0  0  0  0  0  0  0  0  0  0  0
    8.6174   -3.6737   23.3002 H   0  0  0  0  0  0  0  0  0  0  0  0
    7.2276   -1.9021   24.5837 H   0  0  0  0  0  0  0  0  0  0  0  0
    7.0039   -0.3996   23.7057 H   0  0  0  0  0  0  0  0  0  0  0  0
    6.0482   -1.7472   21.4734 C   0  0  0  0  0  0  0  0  0  0  0  0
    5.1683   -2.2969   20.8372 O   0  0  0  0  0  0  0  0  0  0  0  0
    6.8183   -0.5660   20.8928 C   0  0  0  0  0  0  0  0  0  0  0  0
    6.0835    0.0703   19.7638 C   0  0  0  0  0  0  0  0  0  0  0  0
    6.4147   -0.2265   18.4674 C   0  0  0  0  0  0  0  0  0  0  0  0
    5.7733    0.2360   17.3667 N   0  0  0  0  0  0  0  0  0  0  0  0
    4.7434    1.0244   17.5765 C   0  0  0  0  0  0  0  0  0  0  0  0
    4.2776    1.3928   18.8696 C   0  0  0  0  0  0  0  0  0  0  0  0
    3.1513    2.2211   19.0699 C   0  0  0  0  0  0  0  0  0  0  0  0
    2.4845    2.6281   17.9752 F   0  0  0  0  0  0  0  0  0  0  0  0
    2.7282    2.6046   20.3097 C   0  0  0  0  0  0  0  0  0  0  0  0
    3.4293    2.1375   21.4416 C   0  0  0  0  0  0  0  0  0  0  0  0
    4.5132    1.3074   21.3032 C   0  0  0  0  0  0  0  0  0  0  0  0
    4.9659    0.9183   20.0101 C   0  0  0  0  0  0  0  0  0  0  0  0
    5.0267    0.9459   22.1904 H   0  0  0  0  0  0  0  0  0  0  0  0
    3.1032    2.4458   22.4322 H   0  0  0  0  0  0  0  0  0  0  0  0
    1.8740    3.2636   20.4111 H   0  0  0  0  0  0  0  0  0  0  0  0
    4.2192    1.4000   16.7038 H   0  0  0  0  0  0  0  0  0  0  0  0
    7.2576   -0.8885   18.2650 H   0  0  0  0  0  0  0  0  0  0  0  0
    7.0313    0.1625   21.6753 H   0  0  0  0  0  0  0  0  0  0  0  0
    7.7867   -0.9500   20.5494 H   0  0  0  0  0  0  0  0  0  0  0  0
    5.1650   -3.4741   24.3780 C   0  0  0  0  0  0  0  0  0  0  0  0
    4.5027   -4.6476   24.7650 C   0  0  0  0  0  0  0  0  0  0  0  0
    5.1531   -2.5970   25.0130 H   0  0  0  0  0  0  0  0  0  0  0  0
    6.3549   -4.4936   21.3771 H   0  0  0  0  0  0  0  0  0  0  0  0
    5.0735   -6.4814   21.9805 H   0  0  0  0  0  0  0  0  0  0  0  0
    4.5995   -7.8552   24.3326 H   0  0  0  0  0  0  0  0  0  0  0  0
    3.1068   -7.4049   23.5492 H   0  0  0  0  0  0  0  0  0  0  0  0
    3.1154   -8.0428   26.1260 H   0  0  0  0  0  0  0  0  0  0  0  0
    2.1084   -6.6964   25.5932 H   0  0  0  0  0  0  0  0  0  0  0  0
    4.9219   -6.4763   26.7760 H   0  0  0  0  0  0  0  0  0  0  0  0
    3.4102   -6.0823   27.6058 H   0  0  0  0  0  0  0  0  0  0  0  0
    4.4902   -4.6000   28.5494 H   0  0  0  0  0  0  0  0  0  0  0  0
    4.5072   -2.8439   28.5905 H   0  0  0  0  0  0  0  0  0  0  0  0
    2.7492   -3.5500   30.1239 H   0  0  0  0  0  0  0  0  0  0  0  0
    2.0128   -4.6128   28.9018 H   0  0  0  0  0  0  0  0  0  0  0  0
    1.9614   -2.8524   28.6963 H   0  0  0  0  0  0  0  0  0  0  0  0
  1  2  1  0
  2  3  1  0
  3  4  2  0
  3  5  1  0
  5  6  1  0
  6  7  1  0
  7  8  1  0
  8  9  1  0
  9 10  2  0
 10 11  1  0
 11 12  2  0
 12 13  1  0
 13 14  1  0
 14 15  1  0
 15 16  2  0
 16 17  1  0
 17 18  2  0
 18 19  1  0
 19 20  1  0
 19 21  2  0
 21 22  1  0
 18 23  1  0
 17 24  1  0
 16 25  1  0
 14 26  1  0
 14 27  1  0
 13 28  1  0
 28 29  2  0
 28 30  1  0
 30 31  1  0
 31 32  2  0
 32 33  1  0
 33 34  2  0
 34 35  1  0
 35 36  2  0
 36 37  1  0
 36 38  1  0
 38 39  2  0
 39 40  1  0
 40 41  2  0
 40 42  1  0
 39 43  1  0
 38 44  1  0
 34 45  1  0
 32 46  1  0
 30 47  1  0
 30 48  1  0
 12 49  1  0
 49 50  2  0
 49 51  1  0
 11 52  1  0
 10 53  1  0
  8 54  1  0
  8 55  1  0
  7 56  1  0
  7 57  1  0
  6 58  1  0
  6 59  1  0
  2 60  1  0
  2 61  1  0
  1 62  1  0
  1 63  1  0
  1 64  1  0
 50  5  1  0
 50  9  1  0
 21 15  1  0
 41 31  1  0
 41 35  1  0
M  END
>  <cnnaffinities>  (70) 
[6.15175, 6.12953]

>  <score>  (70) 
6.15175

>  <index>  (70) 
69

>  <Smiles>  (70) 
C(C(C(=O)N1C(C(C(c2c(c(c(N(C(c3c(c(c(c(Cl)c3[H])[H])[H])[H])([H])[H])C(=O)C(c3c(nc(c4c(F)c(c(c(c34)[H])[H])[H])[H])[H])([H])[H])c(c12)[H])[H])[H])([H])[H])([H])[H])([H])[H])([H])[H])([H])([H])[H]

>  <h>  (70) 
<NA>

>  <Training>  (70) 
True

>  <Success>  (70) 
True

>  <enamine_searched>  (70) 
False

>  <enamine_id>  (70) 
nan

$$$$

     RDKit          3D

 57 62  0  0  0  0  0  0  0  0999 V2000
    9.6402    0.0383   23.1114 C   0  0  0  0  0  0  0  0  0  0  0  0
    8.2423   -0.3826   22.6858 C   0  0  1  0  0  0  0  0  0  0  0  0
    7.7592    0.4110   21.4657 C   0  0  0  0  0  0  0  0  0  0  0  0
    6.7697   -0.4611   20.8692 N   0  0  0  0  0  0  0  0  0  0  0  0
    6.0142   -0.0210   19.7527 C   0  0  0  0  0  0  0  0  0  0  0  0
    6.3563   -0.3471   18.4637 C   0  0  0  0  0  0  0  0  0  0  0  0
    5.7428    0.1642   17.3633 N   0  0  0  0  0  0  0  0  0  0  0  0
    4.7604    1.0138   17.5481 C   0  0  0  0  0  0  0  0  0  0  0  0
    4.2868    1.4142   18.8312 C   0  0  0  0  0  0  0  0  0  0  0  0
    3.1971    2.3090   18.9993 C   0  0  0  0  0  0  0  0  0  0  0  0
    2.7733    2.6551   20.2540 C   0  0  0  0  0  0  0  0  0  0  0  0
    3.4235    2.1381   21.3967 C   0  0  0  0  0  0  0  0  0  0  0  0
    4.4828    1.2771   21.2590 C   0  0  0  0  0  0  0  0  0  0  0  0
    4.9352    0.8916   19.9693 C   0  0  0  0  0  0  0  0  0  0  0  0
    4.9780    0.8723   22.1343 H   0  0  0  0  0  0  0  0  0  0  0  0
    3.0867    2.4269   22.3881 H   0  0  0  0  0  0  0  0  0  0  0  0
    1.9344    3.3340   20.3822 H   0  0  0  0  0  0  0  0  0  0  0  0
    2.7114    2.7111   18.1144 H   0  0  0  0  0  0  0  0  0  0  0  0
    4.2801    1.4273   16.6592 H   0  0  0  0  0  0  0  0  0  0  0  0
    7.1722   -1.0388   18.2643 H   0  0  0  0  0  0  0  0  0  0  0  0
    6.8861   -1.7811   21.2629 C   0  0  0  0  0  0  0  0  0  0  0  0
    6.1965   -2.6841   20.8305 O   0  0  0  0  0  0  0  0  0  0  0  0
    8.0383   -1.8925   22.2922 C   0  0  1  0  0  0  0  0  0  0  0  0
    9.2251   -2.5656   21.5532 C   0  0  0  0  0  0  0  0  0  0  0  0
   10.3618   -2.8298   22.4267 N   0  0  0  0  0  0  0  0  0  0  0  0
   11.6587   -2.5717   21.9771 C   0  0  0  0  0  0  0  0  0  0  0  0
   12.4911   -1.6585   22.6226 C   0  0  0  0  0  0  0  0  0  0  0  0
   13.3045   -1.6934   23.7149 N   0  0  0  0  0  0  0  0  0  0  0  0
   13.9189   -0.5496   23.8377 N   0  0  0  0  0  0  0  0  0  0  0  0
   13.5597    0.2374   22.8510 N   0  0  0  0  0  0  0  0  0  0  0  0
   13.8037    1.6518   22.6921 C   0  0  0  0  0  0  0  0  0  0  0  0
   14.8722    1.8381   22.6205 H   0  0  0  0  0  0  0  0  0  0  0  0
   13.3021    1.9519   21.7801 H   0  0  0  0  0  0  0  0  0  0  0  0
   13.3499    2.2371   23.4907 H   0  0  0  0  0  0  0  0  0  0  0  0
   12.6676   -0.4182   22.0907 N   0  0  0  0  0  0  0  0  0  0  0  0
   11.8953   -2.8408   20.9540 H   0  0  0  0  0  0  0  0  0  0  0  0
   12.1535    0.0535   21.3778 H   0  0  0  0  0  0  0  0  0  0  0  0
   10.1919   -3.4439   23.6424 C   0  0  0  0  0  0  0  0  0  0  0  0
   11.1220   -3.9095   24.2757 O   0  0  0  0  0  0  0  0  0  0  0  0
    8.7806   -3.4925   24.1229 C   0  0  0  0  0  0  0  0  0  0  0  0
    8.5478   -4.2444   25.2741 C   0  0  0  0  0  0  0  0  0  0  0  0
    7.2719   -4.3692   25.7888 C   0  0  0  0  0  0  0  0  0  0  0  0
    6.2443   -3.7057   25.1273 C   0  0  0  0  0  0  0  0  0  0  0  0
    4.9984   -3.8315   25.6120 F   0  0  0  0  0  0  0  0  0  0  0  0
    6.4435   -2.9356   23.9945 C   0  0  0  0  0  0  0  0  0  0  0  0
    7.7395   -2.8010   23.4786 C   0  0  0  0  0  0  0  0  0  0  0  0
    5.5889   -2.4649   23.5168 H   0  0  0  0  0  0  0  0  0  0  0  0
    7.0619   -4.9763   26.6650 H   0  0  0  0  0  0  0  0  0  0  0  0
    9.3999   -4.7257   25.7446 H   0  0  0  0  0  0  0  0  0  0  0  0
    9.5915   -1.9441   20.7374 H   0  0  0  0  0  0  0  0  0  0  0  0
    8.8294   -3.5076   21.1553 H   0  0  0  0  0  0  0  0  0  0  0  0
    7.3196    1.3797   21.7320 H   0  0  0  0  0  0  0  0  0  0  0  0
    8.5895    0.6205   20.7681 H   0  0  0  0  0  0  0  0  0  0  0  0
    7.5431   -0.1949   23.5148 H   0  0  0  0  0  0  0  0  0  0  0  0
   10.3273   -0.0442   22.2659 H   0  0  0  0  0  0  0  0  0  0  0  0
   10.0145   -0.5875   23.9269 H   0  0  0  0  0  0  0  0  0  0  0  0
    9.6534    1.0833   23.4392 H   0  0  0  0  0  0  0  0  0  0  0  0
  1  2  1  0
  2  3  1  0
  3  4  1  0
  4  5  1  0
  5  6  2  0
  6  7  1  0
  7  8  2  0
  8  9  1  0
  9 10  2  0
 10 11  1  0
 11 12  2  0
 12 13  1  0
 13 14  2  0
 13 15  1  0
 12 16  1  0
 11 17  1  0
 10 18  1  0
  8 19  1  0
  6 20  1  0
  4 21  1  0
 21 22  2  0
 21 23  1  0
 23 24  1  6
 24 25  1  0
 25 26  1  0
 26 27  1  0
 27 28  1  0
 28 29  2  0
 29 30  1  0
 30 31  1  0
 31 32  1  0
 31 33  1  0
 31 34  1  0
 30 35  1  0
 26 36  1  0
 26 37  1  0
 25 38  1  0
 38 39  2  0
 38 40  1  0
 40 41  2  0
 41 42  1  0
 42 43  2  0
 43 44  1  0
 43 45  1  0
 45 46  2  0
 45 47  1  0
 42 48  1  0
 41 49  1  0
 24 50  1  0
 24 51  1  0
  3 52  1  0
  3 53  1  0
  2 54  1  1
  1 55  1  0
  1 56  1  0
  1 57  1  0
 23  2  1  0
 35 27  2  0
 46 40  1  0
 14  5  1  0
 46 23  1  0
 14  9  1  0
M  END
>  <cnnaffinities>  (71) 
[6.75708]

>  <score>  (71) 
6.75708

>  <index>  (71) 
70

>  <Smiles>  (71) 
C([C@]1(C(N(c2c(nc(c3c(c(c(c(c23)[H])[H])[H])[H])[H])[H])C(=O)[C@]21C(N(C(c1nnn(C([H])([H])[H])n1)([H])[H])C(=O)c1c(c(c(F)c(c21)[H])[H])[H])([H])[H])([H])[H])[H])([H])([H])[H]

>  <h>  (71) 
<NA>

>  <Training>  (71) 
True

>  <Success>  (71) 
True

>  <enamine_searched>  (71) 
False

>  <enamine_id>  (71) 
nan

$$$$

     RDKit          3D

 59 64  0  0  0  0  0  0  0  0999 V2000
    7.5729   -2.9868   23.3243 C   0  0  0  0  0  0  0  0  0  0  0  0
    7.8440   -1.9317   22.2563 C   0  0  1  0  0  0  0  0  0  0  0  0
    6.7397   -1.8270   21.1970 C   0  0  0  0  0  0  0  0  0  0  0  0
    6.8650   -0.4602   20.7333 N   0  0  0  0  0  0  0  0  0  0  0  0
    6.0857    0.0782   19.6979 C   0  0  0  0  0  0  0  0  0  0  0  0
    6.4068   -0.2364   18.4060 C   0  0  0  0  0  0  0  0  0  0  0  0
    5.7452    0.2320   17.3245 N   0  0  0  0  0  0  0  0  0  0  0  0
    4.7336    1.0352   17.5598 C   0  0  0  0  0  0  0  0  0  0  0  0
    4.2919    1.4240   18.8573 C   0  0  0  0  0  0  0  0  0  0  0  0
    3.1749    2.2771   19.0396 C   0  0  0  0  0  0  0  0  0  0  0  0
    2.7487    2.6124   20.2935 C   0  0  0  0  0  0  0  0  0  0  0  0
    3.4214    2.1132   21.4310 C   0  0  0  0  0  0  0  0  0  0  0  0
    4.5108    1.2948   21.2852 C   0  0  0  0  0  0  0  0  0  0  0  0
    4.9796    0.9338   19.9842 C   0  0  0  0  0  0  0  0  0  0  0  0
    5.0178    0.9319   22.1755 H   0  0  0  0  0  0  0  0  0  0  0  0
    3.0719    2.3798   22.4244 H   0  0  0  0  0  0  0  0  0  0  0  0
    1.8871    3.2590   20.4210 H   0  0  0  0  0  0  0  0  0  0  0  0
    2.6732    2.6517   18.1534 H   0  0  0  0  0  0  0  0  0  0  0  0
    4.1934    1.4109   16.6936 H   0  0  0  0  0  0  0  0  0  0  0  0
    7.2622   -0.8880   18.2247 H   0  0  0  0  0  0  0  0  0  0  0  0
    7.5874    0.3642   21.5543 C   0  0  0  0  0  0  0  0  0  0  0  0
    7.7583    1.5514   21.3546 O   0  0  0  0  0  0  0  0  0  0  0  0
    8.0460   -0.4518   22.7480 C   0  0  1  0  0  0  0  0  0  0  0  0
    7.1375   -0.0180   23.9396 C   0  0  0  0  0  0  0  0  0  0  0  0
    7.6038   -0.5742   25.1938 N   0  0  0  0  0  0  0  0  0  0  0  0
    6.7148   -0.9632   26.2876 C   0  0  0  0  0  0  0  0  0  0  0  0
    6.4343    0.1850   27.2076 C   0  0  0  0  0  0  0  0  0  0  0  0
    7.1674    0.5174   28.2444 N   0  0  0  0  0  0  0  0  0  0  0  0
    6.5832    1.6531   28.7523 C   0  0  0  0  0  0  0  0  0  0  0  0
    5.4899    1.9974   28.0108 C   0  0  0  0  0  0  0  0  0  0  0  0
    5.3950    1.0485   27.0182 N   0  0  0  0  0  0  0  0  0  0  0  0
    4.3985    0.9836   25.9687 C   0  0  0  0  0  0  0  0  0  0  0  0
    4.7733    1.3882   25.0196 H   0  0  0  0  0  0  0  0  0  0  0  0
    4.0876   -0.0539   25.8196 H   0  0  0  0  0  0  0  0  0  0  0  0
    3.5219    1.5603   26.2690 H   0  0  0  0  0  0  0  0  0  0  0  0
    4.7607    2.7897   28.1078 H   0  0  0  0  0  0  0  0  0  0  0  0
    6.9745    2.1349   29.6375 H   0  0  0  0  0  0  0  0  0  0  0  0
    7.2318   -1.7360   26.8663 H   0  0  0  0  0  0  0  0  0  0  0  0
    5.7876   -1.3916   25.8946 H   0  0  0  0  0  0  0  0  0  0  0  0
    8.9318   -0.7907   25.4061 C   0  0  0  0  0  0  0  0  0  0  0  0
    9.3148   -1.4524   26.3571 O   0  0  0  0  0  0  0  0  0  0  0  0
    9.8713   -0.2098   24.3947 C   0  0  0  0  0  0  0  0  0  0  0  0
   11.1748    0.1067   24.7439 C   0  0  0  0  0  0  0  0  0  0  0  0
   12.1508    0.2939   23.7923 C   0  0  0  0  0  0  0  0  0  0  0  0
   11.7644    0.1981   22.4568 C   0  0  0  0  0  0  0  0  0  0  0  0
   12.7197    0.2995   21.5266 F   0  0  0  0  0  0  0  0  0  0  0  0
   10.4469    0.0125   22.0736 C   0  0  0  0  0  0  0  0  0  0  0  0
    9.4799   -0.1612   23.0666 C   0  0  0  0  0  0  0  0  0  0  0  0
   10.1660   -0.0263   21.0286 H   0  0  0  0  0  0  0  0  0  0  0  0
   13.1908    0.4696   24.0614 H   0  0  0  0  0  0  0  0  0  0  0  0
   11.3734    0.1721   25.7970 H   0  0  0  0  0  0  0  0  0  0  0  0
    6.1043   -0.3475   23.7488 H   0  0  0  0  0  0  0  0  0  0  0  0
    7.1547    1.0865   23.9585 H   0  0  0  0  0  0  0  0  0  0  0  0
    6.8670   -2.5113   20.3575 H   0  0  0  0  0  0  0  0  0  0  0  0
    5.7481   -2.0191   21.6377 H   0  0  0  0  0  0  0  0  0  0  0  0
    8.7800   -2.2034   21.7443 H   0  0  0  0  0  0  0  0  0  0  0  0
    6.6284   -2.7783   23.8380 H   0  0  0  0  0  0  0  0  0  0  0  0
    7.4973   -3.9833   22.8753 H   0  0  0  0  0  0  0  0  0  0  0  0
    8.3725   -2.9999   24.0736 H   0  0  0  0  0  0  0  0  0  0  0  0
  1  2  1  0
  2  3  1  0
  3  4  1  0
  4  5  1  0
  5  6  2  0
  6  7  1  0
  7  8  2  0
  8  9  1  0
  9 10  2  0
 10 11  1  0
 11 12  2  0
 12 13  1  0
 13 14  2  0
 13 15  1  0
 12 16  1  0
 11 17  1  0
 10 18  1  0
  8 19  1  0
  6 20  1  0
  4 21  1  0
 21 22  2  0
 21 23  1  0
 23 24  1  1
 24 25  1  0
 25 26  1  0
 26 27  1  0
 27 28  2  0
 28 29  1  0
 29 30  2  0
 30 31  1  0
 31 32  1  0
 32 33  1  0
 32 34  1  0
 32 35  1  0
 30 36  1  0
 29 37  1  0
 26 38  1  0
 26 39  1  0
 25 40  1  0
 40 41  2  0
 40 42  1  0
 42 43  2  0
 43 44  1  0
 44 45  2  0
 45 46  1  0
 45 47  1  0
 47 48  2  0
 47 49  1  0
 44 50  1  0
 43 51  1  0
 24 52  1  0
 24 53  1  0
  3 54  1  0
  3 55  1  0
  2 56  1  6
  1 57  1  0
  1 58  1  0
  1 59  1  0
 23  2  1  0
 31 27  1  0
 48 42  1  0
 14  5  1  0
 48 23  1  0
 14  9  1  0
M  END
>  <cnnaffinities>  (72) 
[6.31846]

>  <score>  (72) 
6.31846

>  <index>  (72) 
71

>  <Smiles>  (72) 
C([C@]1(C(N(c2c(nc(c3c(c(c(c(c23)[H])[H])[H])[H])[H])[H])C(=O)[C@]21C(N(C(c1nc(c(n1C([H])([H])[H])[H])[H])([H])[H])C(=O)c1c(c(c(F)c(c21)[H])[H])[H])([H])[H])([H])[H])[H])([H])([H])[H]

>  <h>  (72) 
<NA>

>  <Training>  (72) 
True

>  <Success>  (72) 
True

>  <enamine_searched>  (72) 
False

>  <enamine_id>  (72) 
nan

$$$$

     RDKit          3D

 60 64  0  0  0  0  0  0  0  0999 V2000
    7.0406    1.1794   29.1303 C   0  0  0  0  0  0  0  0  0  0  0  0
    7.1613    0.1758   28.0915 N   0  0  0  0  0  0  0  0  0  0  0  0
    6.2596    0.1137   27.0814 C   0  0  0  0  0  0  0  0  0  0  0  0
    5.3042    0.8682   27.0051 O   0  0  0  0  0  0  0  0  0  0  0  0
    6.4973   -0.9916   26.0294 C   0  0  0  0  0  0  0  0  0  0  0  0
    7.4972   -0.6734   25.0109 N   0  0  0  0  0  0  0  0  0  0  0  0
    7.1332   -0.0777   23.7302 C   0  0  0  0  0  0  0  0  0  0  0  0
    8.0941   -0.4914   22.5700 C   0  0  2  0  0  0  0  0  0  0  0  0
    7.6828    0.3165   21.3321 C   0  0  0  0  0  0  0  0  0  0  0  0
    7.9572    1.4626   21.0506 O   0  0  0  0  0  0  0  0  0  0  0  0
    6.8493   -0.4877   20.5763 N   0  0  0  0  0  0  0  0  0  0  0  0
    6.0365    0.0507   19.5436 C   0  0  0  0  0  0  0  0  0  0  0  0
    6.2841   -0.2866   18.2396 C   0  0  0  0  0  0  0  0  0  0  0  0
    5.6081    0.2088   17.1739 N   0  0  0  0  0  0  0  0  0  0  0  0
    4.6339    1.0534   17.4153 C   0  0  0  0  0  0  0  0  0  0  0  0
    4.2260    1.4410   18.7217 C   0  0  0  0  0  0  0  0  0  0  0  0
    3.1276    2.3200   18.9292 C   0  0  0  0  0  0  0  0  0  0  0  0
    2.7278    2.6445   20.1970 C   0  0  0  0  0  0  0  0  0  0  0  0
    3.4002    2.0994   21.3149 C   0  0  0  0  0  0  0  0  0  0  0  0
    4.4668    1.2532   21.1348 C   0  0  0  0  0  0  0  0  0  0  0  0
    4.9266    0.9134   19.8296 C   0  0  0  0  0  0  0  0  0  0  0  0
    4.9587    0.8286   22.0023 H   0  0  0  0  0  0  0  0  0  0  0  0
    3.0683    2.3572   22.3189 H   0  0  0  0  0  0  0  0  0  0  0  0
    1.8915    3.3215   20.3551 H   0  0  0  0  0  0  0  0  0  0  0  0
    2.6137    2.7259   18.0594 H   0  0  0  0  0  0  0  0  0  0  0  0
    4.1081    1.4687   16.5545 H   0  0  0  0  0  0  0  0  0  0  0  0
    7.0871   -0.9861   18.0137 H   0  0  0  0  0  0  0  0  0  0  0  0
    6.6570   -1.8129   21.1451 C   0  0  0  0  0  0  0  0  0  0  0  0
    7.8671   -1.9594   22.0672 C   0  0  2  0  0  0  0  0  0  0  0  0
    7.7120   -2.9811   23.0850 N   0  0  0  0  0  0  0  0  0  0  0  0
    8.8163   -3.3640   23.8206 C   0  0  0  0  0  0  0  0  0  0  0  0
    9.9470   -3.1587   23.4293 O   0  0  0  0  0  0  0  0  0  0  0  0
    8.5340   -4.0560   25.1396 C   0  0  0  0  0  0  0  0  0  0  0  0
    9.1368   -3.5631   25.9051 H   0  0  0  0  0  0  0  0  0  0  0  0
    7.4840   -3.9603   25.4131 H   0  0  0  0  0  0  0  0  0  0  0  0
    8.7957   -5.1191   25.1209 H   0  0  0  0  0  0  0  0  0  0  0  0
    6.8414   -2.9378   23.5904 H   0  0  0  0  0  0  0  0  0  0  0  0
    8.7567   -2.2264   21.4840 H   0  0  0  0  0  0  0  0  0  0  0  0
    6.6139   -2.5728   20.3683 H   0  0  0  0  0  0  0  0  0  0  0  0
    5.7241   -1.8686   21.7310 H   0  0  0  0  0  0  0  0  0  0  0  0
    9.5040   -0.2544   23.0277 C   0  0  0  0  0  0  0  0  0  0  0  0
   10.5468   -0.0662   22.1111 C   0  0  0  0  0  0  0  0  0  0  0  0
   11.8227    0.1957   22.5777 C   0  0  0  0  0  0  0  0  0  0  0  0
   13.1782    0.3245   21.5089 Cl  0  0  0  0  0  0  0  0  0  0  0  0
   12.0803    0.3580   23.9367 C   0  0  0  0  0  0  0  0  0  0  0  0
   11.0693    0.0690   24.8236 C   0  0  0  0  0  0  0  0  0  0  0  0
    9.8063   -0.2957   24.3879 C   0  0  0  0  0  0  0  0  0  0  0  0
    8.7940   -0.7331   25.3901 C   0  0  0  0  0  0  0  0  0  0  0  0
    9.1043   -1.1079   26.5210 O   0  0  0  0  0  0  0  0  0  0  0  0
   11.2044    0.1142   25.8868 H   0  0  0  0  0  0  0  0  0  0  0  0
   13.0485    0.7271   24.2644 H   0  0  0  0  0  0  0  0  0  0  0  0
   10.3612   -0.0979   21.0423 H   0  0  0  0  0  0  0  0  0  0  0  0
    7.1660    1.0201   23.7851 H   0  0  0  0  0  0  0  0  0  0  0  0
    6.1052   -0.3731   23.4961 H   0  0  0  0  0  0  0  0  0  0  0  0
    5.5504   -1.1646   25.5211 H   0  0  0  0  0  0  0  0  0  0  0  0
    6.7920   -1.9203   26.5353 H   0  0  0  0  0  0  0  0  0  0  0  0
    7.9891   -0.3976   28.0255 H   0  0  0  0  0  0  0  0  0  0  0  0
    6.0564    1.1198   29.6059 H   0  0  0  0  0  0  0  0  0  0  0  0
    7.1489    2.1987   28.7399 H   0  0  0  0  0  0  0  0  0  0  0  0
    7.8166    1.0050   29.8824 H   0  0  0  0  0  0  0  0  0  0  0  0
  1  2  1  0
  2  3  1  0
  3  4  2  0
  3  5  1  0
  5  6  1  0
  6  7  1  0
  8  7  1  1
  8  9  1  0
  9 10  2  0
  9 11  1  0
 11 12  1  0
 12 13  2  0
 13 14  1  0
 14 15  2  0
 15 16  1  0
 16 17  2  0
 17 18  1  0
 18 19  2  0
 19 20  1  0
 20 21  2  0
 20 22  1  0
 19 23  1  0
 18 24  1  0
 17 25  1  0
 15 26  1  0
 13 27  1  0
 11 28  1  0
 28 29  1  0
 29 30  1  0
 30 31  1  0
 31 32  2  0
 31 33  1  0
 33 34  1  0
 33 35  1  0
 33 36  1  0
 30 37  1  0
 29 38  1  6
 28 39  1  0
 28 40  1  0
  8 41  1  0
 41 42  2  0
 42 43  1  0
 43 44  1  0
 43 45  2  0
 45 46  1  0
 46 47  2  0
 47 48  1  0
 48 49  2  0
 46 50  1  0
 45 51  1  0
 42 52  1  0
  7 53  1  0
  7 54  1  0
  5 55  1  0
  5 56  1  0
  2 57  1  0
  1 58  1  0
  1 59  1  0
  1 60  1  0
 48  6  1  0
 29  8  1  0
 47 41  1  0
 21 12  1  0
 21 16  1  0
M  END
>  <cnnaffinities>  (73) 
[5.73992, 6.0887]

>  <score>  (73) 
5.73992

>  <index>  (73) 
72

>  <Smiles>  (73) 
C(N(C(=O)C(N1C([C@@]2(C(=O)N(c3c(nc(c4c(c(c(c(c34)[H])[H])[H])[H])[H])[H])C([C@@]2(N(C(=O)C([H])([H])[H])[H])[H])([H])[H])c2c(c(Cl)c(c(c2C1=O)[H])[H])[H])([H])[H])([H])[H])[H])([H])([H])[H]

>  <h>  (73) 
<NA>

>  <Training>  (73) 
True

>  <Success>  (73) 
True

>  <enamine_searched>  (73) 
False

>  <enamine_id>  (73) 
nan

$$$$

     RDKit          3D

 56 61  0  0  0  0  0  0  0  0999 V2000
    7.2416   -2.3564   23.9414 C   0  0  0  0  0  0  0  0  0  0  0  0
    7.6932   -1.7625   22.6048 C   0  0  1  0  0  0  0  0  0  0  0  0
    6.5283   -1.5764   21.6155 C   0  0  0  0  0  0  0  0  0  0  0  0
    6.9151   -0.4278   20.8227 N   0  0  0  0  0  0  0  0  0  0  0  0
    6.1326    0.0956   19.7594 C   0  0  0  0  0  0  0  0  0  0  0  0
    6.4534   -0.2150   18.4645 C   0  0  0  0  0  0  0  0  0  0  0  0
    5.7697    0.2269   17.3789 N   0  0  0  0  0  0  0  0  0  0  0  0
    4.7468    1.0171   17.5940 C   0  0  0  0  0  0  0  0  0  0  0  0
    4.2997    1.4179   18.8872 C   0  0  0  0  0  0  0  0  0  0  0  0
    3.1830    2.2784   19.0656 C   0  0  0  0  0  0  0  0  0  0  0  0
    2.7798    2.6432   20.3207 C   0  0  0  0  0  0  0  0  0  0  0  0
    3.4734    2.1652   21.4547 C   0  0  0  0  0  0  0  0  0  0  0  0
    4.5527    1.3279   21.3103 C   0  0  0  0  0  0  0  0  0  0  0  0
    5.0040    0.9379   20.0161 C   0  0  0  0  0  0  0  0  0  0  0  0
    5.0732    0.9669   22.1944 H   0  0  0  0  0  0  0  0  0  0  0  0
    3.1595    2.4719   22.4500 H   0  0  0  0  0  0  0  0  0  0  0  0
    1.9301    3.3104   20.4479 H   0  0  0  0  0  0  0  0  0  0  0  0
    2.6715    2.6466   18.1794 H   0  0  0  0  0  0  0  0  0  0  0  0
    4.2125    1.3833   16.7164 H   0  0  0  0  0  0  0  0  0  0  0  0
    7.3066   -0.8600   18.2603 H   0  0  0  0  0  0  0  0  0  0  0  0
    7.9708    0.2897   21.3363 C   0  0  0  0  0  0  0  0  0  0  0  0
    8.4318    1.2810   20.8077 O   0  0  0  0  0  0  0  0  0  0  0  0
    8.4328   -0.3824   22.6465 C   0  0  1  0  0  0  0  0  0  0  0  0
    8.0467    0.4521   23.8782 C   0  0  0  0  0  0  0  0  0  0  0  0
    8.8257    1.6722   23.9784 N   0  0  0  0  0  0  0  0  0  0  0  0
    8.1806    2.9372   24.2438 C   0  0  0  0  0  0  0  0  0  0  0  0
    7.1090    2.9605   25.3772 C   0  0  0  0  0  0  0  0  0  0  0  0
    5.9952    3.3151   24.4014 N   0  0  0  0  0  4  0  0  0  0  0  0
    7.0418    3.3688   23.2817 C   0  0  0  0  0  0  0  0  0  0  0  0
    6.8205    2.6724   22.4759 H   0  0  0  0  0  0  0  0  0  0  0  0
    7.1172    4.3699   22.8666 H   0  0  0  0  0  0  0  0  0  0  0  0
    5.2446    2.6052   24.2968 H   0  0  0  0  0  0  0  0  0  0  0  0
    5.5413    4.2220   24.6021 H   0  0  0  0  0  0  0  0  0  0  0  0
    7.2420    3.7402   26.1251 H   0  0  0  0  0  0  0  0  0  0  0  0
    6.9475    2.0190   25.9024 H   0  0  0  0  0  0  0  0  0  0  0  0
    9.0184    3.6373   24.3446 H   0  0  0  0  0  0  0  0  0  0  0  0
   10.1980    1.6126   24.0085 C   0  0  0  0  0  0  0  0  0  0  0  0
   10.9080    2.4641   24.5267 O   0  0  0  0  0  0  0  0  0  0  0  0
   10.7638    0.4276   23.3060 C   0  0  0  0  0  0  0  0  0  0  0  0
   12.1456    0.2793   23.2563 C   0  0  0  0  0  0  0  0  0  0  0  0
   12.7190   -0.7167   22.4926 C   0  0  0  0  0  0  0  0  0  0  0  0
   11.8844   -1.5515   21.7364 C   0  0  0  0  0  0  0  0  0  0  0  0
   12.3863   -2.8355   20.6764 Cl  0  0  0  0  0  0  0  0  0  0  0  0
   10.5193   -1.4070   21.7882 C   0  0  0  0  0  0  0  0  0  0  0  0
    9.9334   -0.4699   22.6270 C   0  0  0  0  0  0  0  0  0  0  0  0
    9.9188   -2.0323   21.1433 H   0  0  0  0  0  0  0  0  0  0  0  0
   13.7985   -0.7718   22.5046 H   0  0  0  0  0  0  0  0  0  0  0  0
   12.7739    0.9737   23.8087 H   0  0  0  0  0  0  0  0  0  0  0  0
    6.9890    0.7116   23.8117 H   0  0  0  0  0  0  0  0  0  0  0  0
    8.2168   -0.1609   24.7759 H   0  0  0  0  0  0  0  0  0  0  0  0
    5.5862   -1.3946   22.1519 H   0  0  0  0  0  0  0  0  0  0  0  0
    6.3791   -2.4505   20.9708 H   0  0  0  0  0  0  0  0  0  0  0  0
    8.3952   -2.4718   22.1604 H   0  0  0  0  0  0  0  0  0  0  0  0
    6.4939   -1.7153   24.4209 H   0  0  0  0  0  0  0  0  0  0  0  0
    8.0734   -2.4853   24.6446 H   0  0  0  0  0  0  0  0  0  0  0  0
    6.7820   -3.3394   23.7922 H   0  0  0  0  0  0  0  0  0  0  0  0
  1  2  1  0
  2  3  1  0
  3  4  1  0
  4  5  1  0
  5  6  2  0
  6  7  1  0
  7  8  2  0
  8  9  1  0
  9 10  2  0
 10 11  1  0
 11 12  2  0
 12 13  1  0
 13 14  2  0
 13 15  1  0
 12 16  1  0
 11 17  1  0
 10 18  1  0
  8 19  1  0
  6 20  1  0
  4 21  1  0
 21 22  2  0
 21 23  1  0
 23 24  1  1
 24 25  1  0
 25 26  1  0
 26 27  1  0
 27 28  1  0
 28 29  1  0
 29 30  1  0
 29 31  1  0
 28 32  1  0
 28 33  1  0
 27 34  1  0
 27 35  1  0
 26 36  1  0
 25 37  1  0
 37 38  2  0
 37 39  1  0
 39 40  2  0
 40 41  1  0
 41 42  2  0
 42 43  1  0
 42 44  1  0
 44 45  2  0
 44 46  1  0
 41 47  1  0
 40 48  1  0
 24 49  1  0
 24 50  1  0
  3 51  1  0
  3 52  1  0
  2 53  1  6
  1 54  1  0
  1 55  1  0
  1 56  1  0
 23  2  1  0
 29 26  1  0
 45 39  1  0
 14  5  1  0
 45 23  1  0
 14  9  1  0
M  CHG  1  28   1
M  END
>  <cnnaffinities>  (74) 
[6.03789, 6.03842]

>  <score>  (74) 
6.03789

>  <index>  (74) 
73

>  <Smiles>  (74) 
C([C@]1(C(N(c2c(nc(c3c(c(c(c(c23)[H])[H])[H])[H])[H])[H])C(=O)[C@]21C(N(C1(C([N+](C1([H])[H])([H])[H])([H])[H])[H])C(=O)c1c(c(c(Cl)c(c21)[H])[H])[H])([H])[H])([H])[H])[H])([H])([H])[H]

>  <h>  (74) 
<NA>

>  <Training>  (74) 
True

>  <Success>  (74) 
True

>  <enamine_searched>  (74) 
False

>  <enamine_id>  (74) 
nan

$$$$

     RDKit          3D

 55 60  0  0  0  0  0  0  0  0999 V2000
    7.3169   -2.5968   23.7792 C   0  0  0  0  0  0  0  0  0  0  0  0
    7.7362   -1.8258   22.5260 C   0  0  1  0  0  0  0  0  0  0  0  0
    6.5957   -1.6641   21.5060 C   0  0  0  0  0  0  0  0  0  0  0  0
    6.9018   -0.4203   20.8302 N   0  0  0  0  0  0  0  0  0  0  0  0
    6.1287    0.0921   19.7560 C   0  0  0  0  0  0  0  0  0  0  0  0
    6.4497   -0.2244   18.4601 C   0  0  0  0  0  0  0  0  0  0  0  0
    5.7712    0.2230   17.3730 N   0  0  0  0  0  0  0  0  0  0  0  0
    4.7495    1.0169   17.5872 C   0  0  0  0  0  0  0  0  0  0  0  0
    4.2993    1.4152   18.8795 C   0  0  0  0  0  0  0  0  0  0  0  0
    3.1801    2.2742   19.0580 C   0  0  0  0  0  0  0  0  0  0  0  0
    2.7580    2.6180   20.3123 C   0  0  0  0  0  0  0  0  0  0  0  0
    3.4346    2.1157   21.4468 C   0  0  0  0  0  0  0  0  0  0  0  0
    4.5203    1.2862   21.2999 C   0  0  0  0  0  0  0  0  0  0  0  0
    4.9931    0.9275   20.0063 C   0  0  0  0  0  0  0  0  0  0  0  0
    5.0491    0.9436   22.1859 H   0  0  0  0  0  0  0  0  0  0  0  0
    3.1271    2.4230   22.4420 H   0  0  0  0  0  0  0  0  0  0  0  0
    1.9177    3.2955   20.4412 H   0  0  0  0  0  0  0  0  0  0  0  0
    2.6791    2.6516   18.1708 H   0  0  0  0  0  0  0  0  0  0  0  0
    4.2164    1.3835   16.7112 H   0  0  0  0  0  0  0  0  0  0  0  0
    7.2996   -0.8729   18.2512 H   0  0  0  0  0  0  0  0  0  0  0  0
    7.8358    0.3608   21.4711 C   0  0  0  0  0  0  0  0  0  0  0  0
    8.2249    1.4322   21.0589 O   0  0  0  0  0  0  0  0  0  0  0  0
    8.3168   -0.3887   22.7383 C   0  0  1  0  0  0  0  0  0  0  0  0
    7.8122    0.2490   24.0430 C   0  0  0  0  0  0  0  0  0  0  0  0
    8.4309    1.5295   24.3483 N   0  0  0  0  0  0  0  0  0  0  0  0
    7.5022    2.6432   24.4399 C   0  0  0  0  0  0  0  0  0  0  0  0
    7.3802    3.4912   23.2129 C   0  0  0  0  0  0  0  0  0  0  0  0
    8.3104    4.4613   22.7631 C   0  0  0  0  0  0  0  0  0  0  0  0
    7.6199    5.1397   21.8175 C   0  0  0  0  0  0  0  0  0  0  0  0
    6.3914    4.6223   21.6794 O   0  0  0  0  0  0  0  0  0  0  0  0
    6.2504    3.5693   22.5614 N   0  0  0  0  0  0  0  0  0  0  0  0
    7.8619    5.9858   21.1870 H   0  0  0  0  0  0  0  0  0  0  0  0
    9.2959    4.5979   23.1734 H   0  0  0  0  0  0  0  0  0  0  0  0
    6.5266    2.2218   24.6828 H   0  0  0  0  0  0  0  0  0  0  0  0
    7.7255    3.3158   25.2523 H   0  0  0  0  0  0  0  0  0  0  0  0
    9.7968    1.7186   24.2410 C   0  0  0  0  0  0  0  0  0  0  0  0
   10.3896    2.7081   24.6479 O   0  0  0  0  0  0  0  0  0  0  0  0
   10.5336    0.6218   23.5209 C   0  0  0  0  0  0  0  0  0  0  0  0
   11.9328    0.6294   23.4729 C   0  0  0  0  0  0  0  0  0  0  0  0
   12.6140   -0.2372   22.6213 C   0  0  0  0  0  0  0  0  0  0  0  0
   11.8518   -1.0789   21.8056 C   0  0  0  0  0  0  0  0  0  0  0  0
   12.3439   -1.8980   20.8662 F   0  0  0  0  0  0  0  0  0  0  0  0
   10.4890   -1.1178   21.8675 C   0  0  0  0  0  0  0  0  0  0  0  0
    9.8148   -0.3177   22.7718 C   0  0  0  0  0  0  0  0  0  0  0  0
    9.9905   -1.7817   21.1728 H   0  0  0  0  0  0  0  0  0  0  0  0
   13.6959   -0.2543   22.5607 H   0  0  0  0  0  0  0  0  0  0  0  0
   12.4636    1.3495   24.0963 H   0  0  0  0  0  0  0  0  0  0  0  0
    8.0015   -0.4538   24.8638 H   0  0  0  0  0  0  0  0  0  0  0  0
    6.7343    0.4105   23.9413 H   0  0  0  0  0  0  0  0  0  0  0  0
    6.5480   -2.4888   20.7823 H   0  0  0  0  0  0  0  0  0  0  0  0
    5.6257   -1.6011   22.0217 H   0  0  0  0  0  0  0  0  0  0  0  0
    8.5232   -2.4043   22.0433 H   0  0  0  0  0  0  0  0  0  0  0  0
    8.1439   -2.7024   24.4937 H   0  0  0  0  0  0  0  0  0  0  0  0
    6.9744   -3.6049   23.5195 H   0  0  0  0  0  0  0  0  0  0  0  0
    6.4901   -2.0839   24.2843 H   0  0  0  0  0  0  0  0  0  0  0  0
  1  2  1  0
  2  3  1  0
  3  4  1  0
  4  5  1  0
  5  6  2  0
  6  7  1  0
  7  8  2  0
  8  9  1  0
  9 10  2  0
 10 11  1  0
 11 12  2  0
 12 13  1  0
 13 14  2  0
 13 15  1  0
 12 16  1  0
 11 17  1  0
 10 18  1  0
  8 19  1  0
  6 20  1  0
  4 21  1  0
 21 22  2  0
 21 23  1  0
 23 24  1  1
 24 25  1  0
 25 26  1  0
 26 27  1  0
 27 28  1  0
 28 29  2  0
 29 30  1  0
 30 31  1  0
 29 32  1  0
 28 33  1  0
 26 34  1  0
 26 35  1  0
 25 36  1  0
 36 37  2  0
 36 38  1  0
 38 39  2  0
 39 40  1  0
 40 41  2  0
 41 42  1  0
 41 43  1  0
 43 44  2  0
 43 45  1  0
 40 46  1  0
 39 47  1  0
 24 48  1  0
 24 49  1  0
  3 50  1  0
  3 51  1  0
  2 52  1  6
  1 53  1  0
  1 54  1  0
  1 55  1  0
 23  2  1  0
 31 27  2  0
 44 38  1  0
 14  5  1  0
 44 23  1  0
 14  9  1  0
M  END
>  <cnnaffinities>  (75) 
[6.15028]

>  <score>  (75) 
6.15028

>  <index>  (75) 
74

>  <Smiles>  (75) 
C([C@]1(C(N(c2c(nc(c3c(c(c(c(c23)[H])[H])[H])[H])[H])[H])C(=O)[C@]21C(N(C(c1c(c(on1)[H])[H])([H])[H])C(=O)c1c(c(c(F)c(c21)[H])[H])[H])([H])[H])([H])[H])[H])([H])([H])[H]

>  <h>  (75) 
<NA>

>  <Training>  (75) 
True

>  <Success>  (75) 
True

>  <enamine_searched>  (75) 
False

>  <enamine_id>  (75) 
nan

$$$$

     RDKit          3D

 70 75  0  0  0  0  0  0  0  0999 V2000
    5.0141   -3.9930   26.9162 C   0  0  0  0  0  0  0  0  0  0  0  0
    5.1153   -2.6148   27.1712 O   0  0  0  0  0  0  0  0  0  0  0  0
    4.3495   -1.7761   26.4254 C   0  0  0  0  0  0  0  0  0  0  0  0
    3.4406   -2.1799   25.4465 C   0  0  0  0  0  0  0  0  0  0  0  0
    2.7283   -1.1990   24.7620 C   0  0  0  0  0  0  0  0  0  0  0  0
    2.9236    0.1472   25.0269 C   0  0  0  0  0  0  0  0  0  0  0  0
    3.8406    0.5528   26.0020 C   0  0  0  0  0  0  0  0  0  0  0  0
    4.0845    2.0299   26.2512 C   0  0  0  0  0  0  0  0  0  0  0  0
    5.1237    2.6042   25.4018 N   0  0  0  0  0  0  0  0  0  0  0  0
    6.4466    2.4565   25.7438 C   0  0  0  0  0  0  0  0  0  0  0  0
    6.7978    2.1444   26.8680 O   0  0  0  0  0  0  0  0  0  0  0  0
    7.4329    2.6414   24.5918 C   0  0  0  0  0  0  0  0  0  0  0  0
    8.3135    1.4957   24.4879 N   0  0  0  0  0  0  0  0  0  0  0  0
    7.6482    0.2333   24.2319 C   0  0  0  0  0  0  0  0  0  0  0  0
    8.0630   -0.3936   22.8923 C   0  0  2  0  0  0  0  0  0  0  0  0
    7.5516    0.4340   21.7030 C   0  0  0  0  0  0  0  0  0  0  0  0
    7.7027    1.6281   21.5204 O   0  0  0  0  0  0  0  0  0  0  0  0
    6.8609   -0.3918   20.8590 N   0  0  0  0  0  0  0  0  0  0  0  0
    6.1172    0.1050   19.7756 C   0  0  0  0  0  0  0  0  0  0  0  0
    6.4361   -0.2427   18.4872 C   0  0  0  0  0  0  0  0  0  0  0  0
    5.7749    0.2104   17.3945 N   0  0  0  0  0  0  0  0  0  0  0  0
    4.7595    1.0167   17.5985 C   0  0  0  0  0  0  0  0  0  0  0  0
    4.3039    1.4167   18.8881 C   0  0  0  0  0  0  0  0  0  0  0  0
    3.1803    2.2680   19.0567 C   0  0  0  0  0  0  0  0  0  0  0  0
    2.7444    2.6114   20.3073 C   0  0  0  0  0  0  0  0  0  0  0  0
    3.4118    2.1202   21.4542 C   0  0  0  0  0  0  0  0  0  0  0  0
    4.5017    1.2975   21.3204 C   0  0  0  0  0  0  0  0  0  0  0  0
    4.9887    0.9437   20.0245 C   0  0  0  0  0  0  0  0  0  0  0  0
    5.0083    0.9112   22.2025 H   0  0  0  0  0  0  0  0  0  0  0  0
    3.0603    2.4100   22.4424 H   0  0  0  0  0  0  0  0  0  0  0  0
    1.8857    3.2671   20.4257 H   0  0  0  0  0  0  0  0  0  0  0  0
    2.6810    2.6409   18.1673 H   0  0  0  0  0  0  0  0  0  0  0  0
    4.2293    1.3825   16.7190 H   0  0  0  0  0  0  0  0  0  0  0  0
    7.2904   -0.8916   18.2916 H   0  0  0  0  0  0  0  0  0  0  0  0
    6.9832   -1.7923   21.1762 C   0  0  0  0  0  0  0  0  0  0  0  0
    7.4817   -1.8190   22.6381 C   0  0  2  0  0  0  0  0  0  0  0  0
    6.3940   -2.2982   23.5960 C   0  0  0  0  0  0  0  0  0  0  0  0
    6.7567   -2.3635   24.6271 H   0  0  0  0  0  0  0  0  0  0  0  0
    5.5286   -1.6311   23.5730 H   0  0  0  0  0  0  0  0  0  0  0  0
    6.0605   -3.3025   23.3099 H   0  0  0  0  0  0  0  0  0  0  0  0
    8.3000   -2.5402   22.7338 H   0  0  0  0  0  0  0  0  0  0  0  0
    6.0176   -2.2869   21.0425 H   0  0  0  0  0  0  0  0  0  0  0  0
    7.7019   -2.2697   20.5066 H   0  0  0  0  0  0  0  0  0  0  0  0
    9.5690   -0.3874   22.8424 C   0  0  0  0  0  0  0  0  0  0  0  0
   10.1952   -1.2477   21.9515 C   0  0  0  0  0  0  0  0  0  0  0  0
   11.5666   -1.2944   21.8788 C   0  0  0  0  0  0  0  0  0  0  0  0
   12.1741   -2.5096   20.7922 Cl  0  0  0  0  0  0  0  0  0  0  0  0
   12.3590   -0.4399   22.6553 C   0  0  0  0  0  0  0  0  0  0  0  0
   11.7300    0.4705   23.4996 C   0  0  0  0  0  0  0  0  0  0  0  0
   10.3343    0.5270   23.5597 C   0  0  0  0  0  0  0  0  0  0  0  0
    9.6557    1.6653   24.2604 C   0  0  0  0  0  0  0  0  0  0  0  0
   10.2686    2.6796   24.5625 O   0  0  0  0  0  0  0  0  0  0  0  0
   12.3015    1.1682   24.1093 H   0  0  0  0  0  0  0  0  0  0  0  0
   13.4391   -0.4610   22.5521 H   0  0  0  0  0  0  0  0  0  0  0  0
    9.6171   -1.8858   21.2903 H   0  0  0  0  0  0  0  0  0  0  0  0
    6.5785    0.4279   24.2397 H   0  0  0  0  0  0  0  0  0  0  0  0
    7.8767   -0.4533   25.0529 H   0  0  0  0  0  0  0  0  0  0  0  0
    6.8735    2.7344   23.6540 H   0  0  0  0  0  0  0  0  0  0  0  0
    8.0488    3.5344   24.7081 H   0  0  0  0  0  0  0  0  0  0  0  0
    4.8984    2.7535   24.4273 H   0  0  0  0  0  0  0  0  0  0  0  0
    4.4002    2.2025   27.2800 H   0  0  0  0  0  0  0  0  0  0  0  0
    3.1661    2.5996   26.0855 H   0  0  0  0  0  0  0  0  0  0  0  0
    4.5456   -0.4206   26.6976 C   0  0  0  0  0  0  0  0  0  0  0  0
    5.2694   -0.1773   27.4718 H   0  0  0  0  0  0  0  0  0  0  0  0
    2.3494    0.8872   24.4755 H   0  0  0  0  0  0  0  0  0  0  0  0
    2.0061   -1.4862   24.0059 H   0  0  0  0  0  0  0  0  0  0  0  0
    3.2993   -3.2283   25.1983 H   0  0  0  0  0  0  0  0  0  0  0  0
    5.7126   -4.4700   27.6024 H   0  0  0  0  0  0  0  0  0  0  0  0
    5.2896   -4.2401   25.8816 H   0  0  0  0  0  0  0  0  0  0  0  0
    3.9998   -4.3660   27.1060 H   0  0  0  0  0  0  0  0  0  0  0  0
  1  2  1  0
  2  3  1  0
  3  4  2  0
  4  5  1  0
  5  6  2  0
  6  7  1  0
  7  8  1  0
  8  9  1  0
  9 10  1  0
 10 11  2  0
 10 12  1  0
 12 13  1  0
 13 14  1  0
 15 14  1  1
 15 16  1  0
 16 17  2  0
 16 18  1  0
 18 19  1  0
 19 20  2  0
 20 21  1  0
 21 22  2  0
 22 23  1  0
 23 24  2  0
 24 25  1  0
 25 26  2  0
 26 27  1  0
 27 28  2  0
 27 29  1  0
 26 30  1  0
 25 31  1  0
 24 32  1  0
 22 33  1  0
 20 34  1  0
 18 35  1  0
 35 36  1  0
 36 37  1  0
 37 38  1  0
 37 39  1  0
 37 40  1  0
 36 41  1  6
 35 42  1  0
 35 43  1  0
 15 44  1  0
 44 45  2  0
 45 46  1  0
 46 47  1  0
 46 48  2  0
 48 49  1  0
 49 50  2  0
 50 51  1  0
 51 52  2  0
 49 53  1  0
 48 54  1  0
 45 55  1  0
 14 56  1  0
 14 57  1  0
 12 58  1  0
 12 59  1  0
  9 60  1  0
  8 61  1  0
  8 62  1  0
  7 63  2  0
 63 64  1  0
  6 65  1  0
  5 66  1  0
  4 67  1  0
  1 68  1  0
  1 69  1  0
  1 70  1  0
 63  3  1  0
 51 13  1  0
 36 15  1  0
 50 44  1  0
 28 19  1  0
 28 23  1  0
M  END
>  <cnnaffinities>  (76) 
[6.04058]

>  <score>  (76) 
6.04058

>  <index>  (76) 
75

>  <Smiles>  (76) 
C(Oc1c(c(c(c(C(N(C(=O)C(N2C([C@@]3(C(=O)N(c4c(nc(c5c(c(c(c(c45)[H])[H])[H])[H])[H])[H])C([C@@]3(C([H])([H])[H])[H])([H])[H])c3c(c(Cl)c(c(c3C2=O)[H])[H])[H])([H])[H])([H])[H])[H])([H])[H])c1[H])[H])[H])[H])([H])([H])[H]

>  <h>  (76) 
<NA>

>  <Training>  (76) 
True

>  <Success>  (76) 
True

>  <enamine_searched>  (76) 
False

>  <enamine_id>  (76) 
nan

$$$$

     RDKit          3D

 61 65  0  0  0  0  0  0  0  0999 V2000
    7.6939   -2.9904   23.3309 C   0  0  0  0  0  0  0  0  0  0  0  0
    8.0196   -1.9117   22.3022 C   0  0  1  0  0  0  0  0  0  0  0  0
    6.8804   -1.7340   21.2899 C   0  0  0  0  0  0  0  0  0  0  0  0
    7.0164   -0.3640   20.8487 N   0  0  0  0  0  0  0  0  0  0  0  0
    6.2132    0.1527   19.7963 C   0  0  0  0  0  0  0  0  0  0  0  0
    6.4877   -0.2238   18.5059 C   0  0  0  0  0  0  0  0  0  0  0  0
    5.8111    0.1975   17.4099 N   0  0  0  0  0  0  0  0  0  0  0  0
    4.7979    1.0063   17.6055 C   0  0  0  0  0  0  0  0  0  0  0  0
    4.3546    1.4252   18.8920 C   0  0  0  0  0  0  0  0  0  0  0  0
    3.2182    2.2655   19.0405 C   0  0  0  0  0  0  0  0  0  0  0  0
    2.7666    2.6041   20.2858 C   0  0  0  0  0  0  0  0  0  0  0  0
    3.4305    2.1208   21.4354 C   0  0  0  0  0  0  0  0  0  0  0  0
    4.5460    1.3276   21.3167 C   0  0  0  0  0  0  0  0  0  0  0  0
    5.0545    0.9697   20.0348 C   0  0  0  0  0  0  0  0  0  0  0  0
    5.0401    0.9651   22.2123 H   0  0  0  0  0  0  0  0  0  0  0  0
    3.0537    2.3845   22.4193 H   0  0  0  0  0  0  0  0  0  0  0  0
    1.8967    3.2463   20.3990 H   0  0  0  0  0  0  0  0  0  0  0  0
    2.7221    2.6306   18.1433 H   0  0  0  0  0  0  0  0  0  0  0  0
    4.2561    1.3543   16.7242 H   0  0  0  0  0  0  0  0  0  0  0  0
    7.3212   -0.8971   18.3163 H   0  0  0  0  0  0  0  0  0  0  0  0
    7.8285    0.4064   21.6625 C   0  0  0  0  0  0  0  0  0  0  0  0
    8.0588    1.5799   21.4600 O   0  0  0  0  0  0  0  0  0  0  0  0
    8.2927   -0.4638   22.8597 C   0  0  1  0  0  0  0  0  0  0  0  0
    7.3044   -0.1068   24.0259 C   0  0  0  0  0  0  0  0  0  0  0  0
    7.7587   -0.8199   25.2910 N   0  0  0  0  0  0  0  0  0  0  0  0
    6.8618   -0.9343   26.5146 C   0  0  0  0  0  0  0  0  0  0  0  0
    6.9911   -2.3756   26.9699 C   0  0  0  0  0  0  0  0  0  0  0  0
    6.5058   -2.6077   28.3727 N   0  0  0  0  0  4  0  0  0  0  0  0
    5.0551   -2.2922   28.5134 C   0  0  0  0  0  0  0  0  0  0  0  0
    4.8825   -1.2234   28.3872 H   0  0  0  0  0  0  0  0  0  0  0  0
    4.5019   -2.8406   27.7450 H   0  0  0  0  0  0  0  0  0  0  0  0
    4.7018   -2.6039   29.4981 H   0  0  0  0  0  0  0  0  0  0  0  0
    6.7871   -3.9970   28.8041 C   0  0  0  0  0  0  0  0  0  0  0  0
    6.4225   -4.1598   29.8208 H   0  0  0  0  0  0  0  0  0  0  0  0
    6.2774   -4.6879   28.1247 H   0  0  0  0  0  0  0  0  0  0  0  0
    7.8615   -4.1929   28.7621 H   0  0  0  0  0  0  0  0  0  0  0  0
    7.0513   -1.9806   28.9860 H   0  0  0  0  0  0  0  0  0  0  0  0
    6.4242   -3.0412   26.3104 H   0  0  0  0  0  0  0  0  0  0  0  0
    8.0456   -2.6437   26.9045 H   0  0  0  0  0  0  0  0  0  0  0  0
    7.2437   -0.2442   27.2754 H   0  0  0  0  0  0  0  0  0  0  0  0
    5.8523   -0.6387   26.2296 H   0  0  0  0  0  0  0  0  0  0  0  0
    9.2536   -0.7361   25.4906 C   0  0  0  0  0  0  0  0  0  0  0  0
    9.3811   -0.7137   25.4831 O   0  0  0  0  0  0  0  0  0  0  0  0
   10.2806   -0.2225   24.5716 C   0  0  0  0  0  0  0  0  0  0  0  0
   11.5904    0.3428   24.7785 C   0  0  0  0  0  0  0  0  0  0  0  0
   12.4611    0.5120   23.7440 C   0  0  0  0  0  0  0  0  0  0  0  0
   12.0483    0.1868   22.4605 C   0  0  0  0  0  0  0  0  0  0  0  0
   13.3112    0.1933   21.3076 Cl  0  0  0  0  0  0  0  0  0  0  0  0
   10.7282   -0.1430   22.1950 C   0  0  0  0  0  0  0  0  0  0  0  0
    9.7970   -0.2551   23.2490 C   0  0  0  0  0  0  0  0  0  0  0  0
   10.4012   -0.2940   21.1744 H   0  0  0  0  0  0  0  0  0  0  0  0
   13.4822    0.8162   23.9529 H   0  0  0  0  0  0  0  0  0  0  0  0
   12.0341    0.6241   25.7289 H   0  0  0  0  0  0  0  0  0  0  0  0
    6.2872   -0.4403   23.8030 H   0  0  0  0  0  0  0  0  0  0  0  0
    7.3057    0.9806   24.1829 H   0  0  0  0  0  0  0  0  0  0  0  0
    6.9403   -2.4119   20.4364 H   0  0  0  0  0  0  0  0  0  0  0  0
    5.9051   -1.9039   21.7719 H   0  0  0  0  0  0  0  0  0  0  0  0
    8.9316   -2.1927   21.7559 H   0  0  0  0  0  0  0  0  0  0  0  0
    8.3898   -2.9608   24.1756 H   0  0  0  0  0  0  0  0  0  0  0  0
    7.7048   -3.9842   22.8752 H   0  0  0  0  0  0  0  0  0  0  0  0
    6.6935   -2.8270   23.7451 H   0  0  0  0  0  0  0  0  0  0  0  0
  1  2  1  0
  2  3  1  0
  3  4  1  0
  4  5  1  0
  5  6  2  0
  6  7  1  0
  7  8  2  0
  8  9  1  0
  9 10  2  0
 10 11  1  0
 11 12  2  0
 12 13  1  0
 13 14  2  0
 13 15  1  0
 12 16  1  0
 11 17  1  0
 10 18  1  0
  8 19  1  0
  6 20  1  0
  4 21  1  0
 21 22  2  0
 21 23  1  0
 23 24  1  1
 24 25  1  0
 25 26  1  0
 26 27  1  0
 27 28  1  0
 28 29  1  0
 29 30  1  0
 29 31  1  0
 29 32  1  0
 28 33  1  0
 33 34  1  0
 33 35  1  0
 33 36  1  0
 28 37  1  0
 27 38  1  0
 27 39  1  0
 26 40  1  0
 26 41  1  0
 25 42  1  0
 42 43  2  0
 42 44  1  0
 44 45  2  0
 45 46  1  0
 46 47  2  0
 47 48  1  0
 47 49  1  0
 49 50  2  0
 49 51  1  0
 46 52  1  0
 45 53  1  0
 24 54  1  0
 24 55  1  0
  3 56  1  0
  3 57  1  0
  2 58  1  6
  1 59  1  0
  1 60  1  0
  1 61  1  0
 23  2  1  0
 50 44  1  0
 14  5  1  0
 50 23  1  0
 14  9  1  0
M  CHG  1  28   1
M  END
>  <cnnaffinities>  (77) 
[6.12095]

>  <score>  (77) 
6.12095

>  <index>  (77) 
76

>  <Smiles>  (77) 
C([C@]1(C(N(c2c(nc(c3c(c(c(c(c23)[H])[H])[H])[H])[H])[H])C(=O)[C@]21C(N(C(C([N+](C([H])([H])[H])(C([H])([H])[H])[H])([H])[H])([H])[H])C(=O)c1c(c(c(Cl)c(c21)[H])[H])[H])([H])[H])([H])[H])[H])([H])([H])[H]

>  <h>  (77) 
<NA>

>  <Training>  (77) 
True

>  <Success>  (77) 
True

>  <enamine_searched>  (77) 
False

>  <enamine_id>  (77) 
nan

$$$$

     RDKit          3D

 57 60  0  0  0  0  0  0  0  0999 V2000
    3.0181   -6.1260   26.6171 C   0  0  0  0  0  0  0  0  0  0  0  0
    3.3698   -6.3489   25.1372 C   0  0  0  0  0  0  0  0  0  0  0  0
    2.0939   -6.6369   24.3190 C   0  0  0  0  0  0  0  0  0  0  0  0
    2.3333   -6.9081   23.2895 H   0  0  0  0  0  0  0  0  0  0  0  0
    1.5708   -7.4924   24.7526 H   0  0  0  0  0  0  0  0  0  0  0  0
    1.4234   -5.7733   24.3028 H   0  0  0  0  0  0  0  0  0  0  0  0
    4.1378   -7.6219   25.0856 C   0  0  0  0  0  0  0  0  0  0  0  0
    4.6130   -8.6778   25.0974 N   0  0  0  0  0  0  0  0  0  0  0  0
    4.1611   -5.1682   24.5711 C   0  0  0  0  0  0  0  0  0  0  0  0
    4.7820   -5.2911   23.3295 C   0  0  0  0  0  0  0  0  0  0  0  0
    5.5242   -4.2552   22.7948 C   0  0  0  0  0  0  0  0  0  0  0  0
    5.6217   -3.0347   23.4680 C   0  0  0  0  0  0  0  0  0  0  0  0
    6.3492   -1.9613   22.8819 N   0  0  0  0  0  0  0  0  0  0  0  0
    7.3292   -1.2147   23.6748 C   0  0  0  0  0  0  0  0  0  0  0  0
    8.7750   -1.4257   23.2431 C   0  0  0  0  0  0  0  0  0  0  0  0
    9.2571   -2.7348   23.2044 C   0  0  0  0  0  0  0  0  0  0  0  0
   10.5690   -2.9945   22.8376 C   0  0  0  0  0  0  0  0  0  0  0  0
   11.4299   -1.9635   22.4828 C   0  0  0  0  0  0  0  0  0  0  0  0
   10.9598   -0.6589   22.5485 C   0  0  0  0  0  0  0  0  0  0  0  0
   12.0552    0.6458   22.1679 Cl  0  0  0  0  0  0  0  0  0  0  0  0
    9.6492   -0.3779   22.9330 C   0  0  0  0  0  0  0  0  0  0  0  0
    9.3448    0.6654   22.9992 H   0  0  0  0  0  0  0  0  0  0  0  0
   12.4461   -2.1658   22.1597 H   0  0  0  0  0  0  0  0  0  0  0  0
   10.9362   -4.0114   22.8497 H   0  0  0  0  0  0  0  0  0  0  0  0
    8.6032   -3.5575   23.4855 H   0  0  0  0  0  0  0  0  0  0  0  0
    7.2325   -1.5829   24.6973 H   0  0  0  0  0  0  0  0  0  0  0  0
    7.0674   -0.1488   23.6894 H   0  0  0  0  0  0  0  0  0  0  0  0
    6.0931   -1.6927   21.5513 C   0  0  0  0  0  0  0  0  0  0  0  0
    5.2836   -2.3362   20.9000 O   0  0  0  0  0  0  0  0  0  0  0  0
    6.8509   -0.5332   20.9194 C   0  0  0  0  0  0  0  0  0  0  0  0
    6.1071    0.0701   19.7743 C   0  0  0  0  0  0  0  0  0  0  0  0
    6.4382   -0.2480   18.4848 C   0  0  0  0  0  0  0  0  0  0  0  0
    5.7937    0.2015   17.3756 N   0  0  0  0  0  0  0  0  0  0  0  0
    4.7766    1.0027   17.5776 C   0  0  0  0  0  0  0  0  0  0  0  0
    4.3083    1.4044   18.8590 C   0  0  0  0  0  0  0  0  0  0  0  0
    3.1920    2.2651   19.0184 C   0  0  0  0  0  0  0  0  0  0  0  0
    2.7615    2.6241   20.2634 C   0  0  0  0  0  0  0  0  0  0  0  0
    3.4296    2.1436   21.4127 C   0  0  0  0  0  0  0  0  0  0  0  0
    4.5162    1.3128   21.2864 C   0  0  0  0  0  0  0  0  0  0  0  0
    4.9883    0.9228   20.0023 C   0  0  0  0  0  0  0  0  0  0  0  0
    5.0138    0.9562   22.1842 H   0  0  0  0  0  0  0  0  0  0  0  0
    3.0841    2.4425   22.3981 H   0  0  0  0  0  0  0  0  0  0  0  0
    1.9072    3.2860   20.3820 H   0  0  0  0  0  0  0  0  0  0  0  0
    2.6967    2.6388   18.1245 H   0  0  0  0  0  0  0  0  0  0  0  0
    4.2544    1.3690   16.6938 H   0  0  0  0  0  0  0  0  0  0  0  0
    7.2801   -0.9154   18.2969 H   0  0  0  0  0  0  0  0  0  0  0  0
    7.0654    0.2275   21.6706 H   0  0  0  0  0  0  0  0  0  0  0  0
    7.8138   -0.9262   20.5758 H   0  0  0  0  0  0  0  0  0  0  0  0
    4.9928   -2.8901   24.7057 C   0  0  0  0  0  0  0  0  0  0  0  0
    4.2786   -3.9493   25.2443 C   0  0  0  0  0  0  0  0  0  0  0  0
    3.8259   -3.8203   26.2250 H   0  0  0  0  0  0  0  0  0  0  0  0
    5.0154   -1.9355   25.2336 H   0  0  0  0  0  0  0  0  0  0  0  0
    6.0077   -4.3891   21.8348 H   0  0  0  0  0  0  0  0  0  0  0  0
    4.6870   -6.2156   22.7640 H   0  0  0  0  0  0  0  0  0  0  0  0
    2.2940   -5.3149   26.7648 H   0  0  0  0  0  0  0  0  0  0  0  0
    2.6045   -7.0373   27.0515 H   0  0  0  0  0  0  0  0  0  0  0  0
    3.9242   -5.8825   27.1772 H   0  0  0  0  0  0  0  0  0  0  0  0
  1  2  1  0
  2  3  1  0
  3  4  1  0
  3  5  1  0
  3  6  1  0
  2  7  1  0
  7  8  3  0
  2  9  1  0
  9 10  2  0
 10 11  1  0
 11 12  2  0
 12 13  1  0
 13 14  1  0
 14 15  1  0
 15 16  2  0
 16 17  1  0
 17 18  2  0
 18 19  1  0
 19 20  1  0
 19 21  2  0
 21 22  1  0
 18 23  1  0
 17 24  1  0
 16 25  1  0
 14 26  1  0
 14 27  1  0
 13 28  1  0
 28 29  2  0
 28 30  1  0
 30 31  1  0
 31 32  2  0
 32 33  1  0
 33 34  2  0
 34 35  1  0
 35 36  2  0
 36 37  1  0
 37 38  2  0
 38 39  1  0
 39 40  2  0
 39 41  1  0
 38 42  1  0
 37 43  1  0
 36 44  1  0
 34 45  1  0
 32 46  1  0
 30 47  1  0
 30 48  1  0
 12 49  1  0
 49 50  2  0
 50 51  1  0
 49 52  1  0
 11 53  1  0
 10 54  1  0
  1 55  1  0
  1 56  1  0
  1 57  1  0
 50  9  1  0
 21 15  1  0
 40 31  1  0
 40 35  1  0
M  END
>  <cnnaffinities>  (78) 
[6.46955, 6.31372]

>  <score>  (78) 
6.46955

>  <index>  (78) 
77

>  <Smiles>  (78) 
C(C(C([H])([H])[H])(C#N)c1c(c(c(N(C(c2c(c(c(c(Cl)c2[H])[H])[H])[H])([H])[H])C(=O)C(c2c(nc(c3c(c(c(c(c23)[H])[H])[H])[H])[H])[H])([H])[H])c(c1[H])[H])[H])[H])([H])([H])[H]

>  <h>  (78) 
<NA>

>  <Training>  (78) 
True

>  <Success>  (78) 
True

>  <enamine_searched>  (78) 
False

>  <enamine_id>  (78) 
nan

$$$$

     RDKit          3D

 40 42  0  0  0  0  0  0  0  0999 V2000
   12.5733   -1.9557   23.1270 C   0  0  0  0  0  0  0  0  0  0  0  0
   11.5978   -0.8261   23.4864 C   0  0  0  0  0  0  0  0  0  0  0  0
   10.1666   -1.3253   23.8047 C   0  0  0  0  0  0  0  0  0  0  0  0
    9.2219   -1.2878   22.5997 C   0  0  0  0  0  0  0  0  0  0  0  0
    9.1173    0.0691   22.0640 N   0  0  0  0  0  0  0  0  0  0  0  0
    8.0541    0.5647   21.3508 C   0  0  0  0  0  0  0  0  0  0  0  0
    7.9656    1.7457   21.0611 O   0  0  0  0  0  0  0  0  0  0  0  0
    6.9943   -0.4415   20.8936 C   0  0  0  0  0  0  0  0  0  0  0  0
    6.1390    0.0848   19.7724 C   0  0  0  0  0  0  0  0  0  0  0  0
    6.4486   -0.2207   18.4698 C   0  0  0  0  0  0  0  0  0  0  0  0
    5.7824    0.2241   17.3712 N   0  0  0  0  0  0  0  0  0  0  0  0
    4.7595    1.0163   17.5831 C   0  0  0  0  0  0  0  0  0  0  0  0
    4.3156    1.4154   18.8729 C   0  0  0  0  0  0  0  0  0  0  0  0
    3.1969    2.2684   19.0425 C   0  0  0  0  0  0  0  0  0  0  0  0
    2.7862    2.6362   20.2954 C   0  0  0  0  0  0  0  0  0  0  0  0
    3.4852    2.1693   21.4330 C   0  0  0  0  0  0  0  0  0  0  0  0
    4.5795    1.3498   21.2927 C   0  0  0  0  0  0  0  0  0  0  0  0
    5.0233    0.9444   20.0050 C   0  0  0  0  0  0  0  0  0  0  0  0
    5.1232    1.0224   22.1742 H   0  0  0  0  0  0  0  0  0  0  0  0
    3.1522    2.4693   22.4226 H   0  0  0  0  0  0  0  0  0  0  0  0
    1.9315    3.2940   20.4234 H   0  0  0  0  0  0  0  0  0  0  0  0
    2.6830    2.6303   18.1541 H   0  0  0  0  0  0  0  0  0  0  0  0
    4.2176    1.3866   16.7110 H   0  0  0  0  0  0  0  0  0  0  0  0
    7.2914   -0.8758   18.2508 H   0  0  0  0  0  0  0  0  0  0  0  0
    7.5144   -1.3477   20.5590 H   0  0  0  0  0  0  0  0  0  0  0  0
    6.3838   -0.7264   21.7612 H   0  0  0  0  0  0  0  0  0  0  0  0
   10.2387    0.9691   22.3029 C   0  0  0  0  0  0  0  0  0  0  0  0
   11.5385    0.1838   22.3261 C   0  0  0  0  0  0  0  0  0  0  0  0
   11.5819   -0.3951   21.4025 H   0  0  0  0  0  0  0  0  0  0  0  0
   12.4118    0.8497   22.3166 H   0  0  0  0  0  0  0  0  0  0  0  0
   10.2192    1.7198   21.5153 H   0  0  0  0  0  0  0  0  0  0  0  0
   10.0979    1.4933   23.2542 H   0  0  0  0  0  0  0  0  0  0  0  0
    8.2315   -1.6251   22.9166 H   0  0  0  0  0  0  0  0  0  0  0  0
    9.5793   -1.9925   21.8367 H   0  0  0  0  0  0  0  0  0  0  0  0
   10.1984   -2.3399   24.2259 H   0  0  0  0  0  0  0  0  0  0  0  0
    9.7266   -0.6952   24.5847 H   0  0  0  0  0  0  0  0  0  0  0  0
   11.9668   -0.3283   24.3918 H   0  0  0  0  0  0  0  0  0  0  0  0
   12.3527   -2.3345   22.1198 H   0  0  0  0  0  0  0  0  0  0  0  0
   12.5131   -2.7901   23.8281 H   0  0  0  0  0  0  0  0  0  0  0  0
   13.6209   -1.6185   23.1333 H   0  0  0  0  0  0  0  0  0  0  0  0
  1  2  1  0
  2  3  1  0
  3  4  1  0
  4  5  1  0
  5  6  1  0
  6  7  2  0
  6  8  1  0
  8  9  1  0
  9 10  2  0
 10 11  1  0
 11 12  2  0
 12 13  1  0
 13 14  2  0
 14 15  1  0
 15 16  2  0
 16 17  1  0
 17 18  2  0
 17 19  1  0
 16 20  1  0
 15 21  1  0
 14 22  1  0
 12 23  1  0
 10 24  1  0
  8 25  1  0
  8 26  1  0
  5 27  1  0
 27 28  1  0
 28 29  1  0
 28 30  1  0
 27 31  1  0
 27 32  1  0
  4 33  1  0
  4 34  1  0
  3 35  1  0
  3 36  1  0
  2 37  1  0
  1 38  1  0
  1 39  1  0
  1 40  1  0
 28  2  1  0
 18  9  1  0
 18 13  1  0
M  END
>  <cnnaffinities>  (79) 
[4.84843, 4.82336, 5.12175, 5.12173]

>  <score>  (79) 
4.84843

>  <index>  (79) 
79

>  <Smiles>  (79) 
C(C1(C(C(N(C(=O)C(c2c(nc(c3c(c(c(c(c23)[H])[H])[H])[H])[H])[H])([H])[H])C(C1([H])[H])([H])[H])([H])[H])([H])[H])[H])([H])([H])[H]

>  <h>  (79) 
<NA>

>  <Training>  (79) 
True

>  <Success>  (79) 
True

>  <enamine_searched>  (79) 
False

>  <enamine_id>  (79) 
nan

$$$$

     RDKit          3D

 59 64  0  0  0  0  0  0  0  0999 V2000
    7.5547   -2.9841   23.2891 C   0  0  0  0  0  0  0  0  0  0  0  0
    7.8005   -1.9321   22.2151 C   0  0  1  0  0  0  0  0  0  0  0  0
    6.6729   -1.8337   21.1843 C   0  0  0  0  0  0  0  0  0  0  0  0
    6.8236   -0.4831   20.6837 N   0  0  0  0  0  0  0  0  0  0  0  0
    6.0584    0.0659   19.6442 C   0  0  0  0  0  0  0  0  0  0  0  0
    6.3728   -0.2409   18.3496 C   0  0  0  0  0  0  0  0  0  0  0  0
    5.7070    0.2423   17.2780 N   0  0  0  0  0  0  0  0  0  0  0  0
    4.7018    1.0523   17.5186 C   0  0  0  0  0  0  0  0  0  0  0  0
    4.2667    1.4281   18.8208 C   0  0  0  0  0  0  0  0  0  0  0  0
    3.1589    2.2927   19.0146 C   0  0  0  0  0  0  0  0  0  0  0  0
    2.7390    2.6205   20.2758 C   0  0  0  0  0  0  0  0  0  0  0  0
    3.4234    2.1100   21.4059 C   0  0  0  0  0  0  0  0  0  0  0  0
    4.5088    1.2863   21.2465 C   0  0  0  0  0  0  0  0  0  0  0  0
    4.9603    0.9257   19.9386 C   0  0  0  0  0  0  0  0  0  0  0  0
    5.0357    0.9180   22.1249 H   0  0  0  0  0  0  0  0  0  0  0  0
    3.0897    2.3770   22.4065 H   0  0  0  0  0  0  0  0  0  0  0  0
    1.8817    3.2743   20.4159 H   0  0  0  0  0  0  0  0  0  0  0  0
    2.6561    2.6817   18.1333 H   0  0  0  0  0  0  0  0  0  0  0  0
    4.1677    1.4473   16.6552 H   0  0  0  0  0  0  0  0  0  0  0  0
    7.2205   -0.8942   18.1467 H   0  0  0  0  0  0  0  0  0  0  0  0
    7.5661    0.3450   21.4888 C   0  0  0  0  0  0  0  0  0  0  0  0
    7.7874    1.5144   21.2418 O   0  0  0  0  0  0  0  0  0  0  0  0
    8.0195   -0.4573   22.7015 C   0  0  1  0  0  0  0  0  0  0  0  0
    7.1280   -0.0208   23.9000 C   0  0  0  0  0  0  0  0  0  0  0  0
    7.5885   -0.5578   25.1635 N   0  0  0  0  0  0  0  0  0  0  0  0
    6.6632   -0.9062   26.2342 C   0  0  0  0  0  0  0  0  0  0  0  0
    6.4160    0.2294   27.1784 C   0  0  0  0  0  0  0  0  0  0  0  0
    7.1040    0.6867   28.2869 C   0  0  0  0  0  0  0  0  0  0  0  0
    6.4234    1.8578   28.6635 C   0  0  0  0  0  0  0  0  0  0  0  0
    5.3940    2.1070   27.8622 N   0  0  0  0  0  0  0  0  0  0  0  0
    5.3995    1.1053   26.9704 N   0  0  0  0  0  0  0  0  0  0  0  0
    4.3846    1.0497   25.9379 C   0  0  0  0  0  0  0  0  0  0  0  0
    3.5412    1.6563   26.2630 H   0  0  0  0  0  0  0  0  0  0  0  0
    4.0378    0.0246   25.7755 H   0  0  0  0  0  0  0  0  0  0  0  0
    4.7572    1.4491   24.9889 H   0  0  0  0  0  0  0  0  0  0  0  0
    6.6386    2.5318   29.4831 H   0  0  0  0  0  0  0  0  0  0  0  0
    8.0015    0.2720   28.7325 H   0  0  0  0  0  0  0  0  0  0  0  0
    5.7223   -1.2680   25.7996 H   0  0  0  0  0  0  0  0  0  0  0  0
    7.1389   -1.7253   26.7767 H   0  0  0  0  0  0  0  0  0  0  0  0
    8.9073   -0.7985   25.3938 C   0  0  0  0  0  0  0  0  0  0  0  0
    9.2832   -1.4514   26.3566 O   0  0  0  0  0  0  0  0  0  0  0  0
    9.8436   -0.2419   24.3788 C   0  0  0  0  0  0  0  0  0  0  0  0
   11.1359    0.0788   24.7453 C   0  0  0  0  0  0  0  0  0  0  0  0
   12.1140    0.3181   23.8039 C   0  0  0  0  0  0  0  0  0  0  0  0
   11.7642    0.1939   22.4609 C   0  0  0  0  0  0  0  0  0  0  0  0
   12.7384    0.2865   21.5403 F   0  0  0  0  0  0  0  0  0  0  0  0
   10.4552   -0.0276   22.0629 C   0  0  0  0  0  0  0  0  0  0  0  0
    9.4624   -0.1853   23.0414 C   0  0  0  0  0  0  0  0  0  0  0  0
   10.2018   -0.0659   21.0078 H   0  0  0  0  0  0  0  0  0  0  0  0
   13.1463    0.5210   24.0659 H   0  0  0  0  0  0  0  0  0  0  0  0
   11.3091    0.1005   25.8037 H   0  0  0  0  0  0  0  0  0  0  0  0
    7.1457    1.0765   23.9103 H   0  0  0  0  0  0  0  0  0  0  0  0
    6.0841   -0.3281   23.7581 H   0  0  0  0  0  0  0  0  0  0  0  0
    5.6879   -2.0041   21.6441 H   0  0  0  0  0  0  0  0  0  0  0  0
    6.7604   -2.5515   20.3705 H   0  0  0  0  0  0  0  0  0  0  0  0
    8.7222   -2.1905   21.6721 H   0  0  0  0  0  0  0  0  0  0  0  0
    8.3699   -3.0004   24.0200 H   0  0  0  0  0  0  0  0  0  0  0  0
    6.6217   -2.7783   23.8255 H   0  0  0  0  0  0  0  0  0  0  0  0
    7.4710   -3.9792   22.8405 H   0  0  0  0  0  0  0  0  0  0  0  0
  1  2  1  0
  2  3  1  0
  3  4  1  0
  4  5  1  0
  5  6  2  0
  6  7  1  0
  7  8  2  0
  8  9  1  0
  9 10  2  0
 10 11  1  0
 11 12  2  0
 12 13  1  0
 13 14  2  0
 13 15  1  0
 12 16  1  0
 11 17  1  0
 10 18  1  0
  8 19  1  0
  6 20  1  0
  4 21  1  0
 21 22  2  0
 21 23  1  0
 23 24  1  1
 24 25  1  0
 25 26  1  0
 26 27  1  0
 27 28  2  0
 28 29  1  0
 29 30  2  0
 30 31  1  0
 31 32  1  0
 32 33  1  0
 32 34  1  0
 32 35  1  0
 29 36  1  0
 28 37  1  0
 26 38  1  0
 26 39  1  0
 25 40  1  0
 40 41  2  0
 40 42  1  0
 42 43  2  0
 43 44  1  0
 44 45  2  0
 45 46  1  0
 45 47  1  0
 47 48  2  0
 47 49  1  0
 44 50  1  0
 43 51  1  0
 24 52  1  0
 24 53  1  0
  3 54  1  0
  3 55  1  0
  2 56  1  6
  1 57  1  0
  1 58  1  0
  1 59  1  0
 23  2  1  0
 31 27  1  0
 48 42  1  0
 14  5  1  0
 48 23  1  0
 14  9  1  0
M  END
>  <cnnaffinities>  (80) 
[6.1849, 6.13025]

>  <score>  (80) 
6.1849

>  <index>  (80) 
80

>  <Smiles>  (80) 
C([C@]1(C(N(c2c(nc(c3c(c(c(c(c23)[H])[H])[H])[H])[H])[H])C(=O)[C@]21C(N(C(c1c(c(nn1C([H])([H])[H])[H])[H])([H])[H])C(=O)c1c(c(c(F)c(c21)[H])[H])[H])([H])[H])([H])[H])[H])([H])([H])[H]

>  <h>  (80) 
<NA>

>  <Training>  (80) 
True

>  <Success>  (80) 
True

>  <enamine_searched>  (80) 
False

>  <enamine_id>  (80) 
nan

$$$$

     RDKit          3D

 58 63  0  0  0  0  0  0  0  0999 V2000
    7.0941    2.2264   30.0515 C   0  0  0  0  0  0  0  0  0  0  0  0
    6.7717    1.4381   28.8367 C   0  0  0  0  0  0  0  0  0  0  0  0
    7.3700    0.3688   28.4446 N   0  0  0  0  0  0  0  0  0  0  0  0
    6.6757   -0.0218   27.3060 C   0  0  0  0  0  0  0  0  0  0  0  0
    7.1454   -1.1396   26.4126 C   0  0  0  0  0  0  0  0  0  0  0  0
    7.9896   -0.7691   25.2701 N   0  0  0  0  0  0  0  0  0  0  0  0
    7.2856   -0.0609   23.9966 C   0  0  0  0  0  0  0  0  0  0  0  0
    8.2130   -0.4739   22.8325 C   0  0  2  0  0  0  0  0  0  0  0  0
    7.6465    0.3875   21.7010 C   0  0  0  0  0  0  0  0  0  0  0  0
    7.7703    1.5904   21.6121 O   0  0  0  0  0  0  0  0  0  0  0  0
    6.9232   -0.4086   20.8441 N   0  0  0  0  0  0  0  0  0  0  0  0
    6.1350    0.1016   19.7706 C   0  0  0  0  0  0  0  0  0  0  0  0
    6.4283   -0.2205   18.4705 C   0  0  0  0  0  0  0  0  0  0  0  0
    5.7582    0.2359   17.3740 N   0  0  0  0  0  0  0  0  0  0  0  0
    4.7364    1.0318   17.5755 C   0  0  0  0  0  0  0  0  0  0  0  0
    4.2881    1.4234   18.8714 C   0  0  0  0  0  0  0  0  0  0  0  0
    3.1594    2.2763   19.0508 C   0  0  0  0  0  0  0  0  0  0  0  0
    2.7469    2.6118   20.3074 C   0  0  0  0  0  0  0  0  0  0  0  0
    3.4284    2.1131   21.4416 C   0  0  0  0  0  0  0  0  0  0  0  0
    4.5120    1.2943   21.2954 C   0  0  0  0  0  0  0  0  0  0  0  0
    4.9877    0.9389   20.0012 C   0  0  0  0  0  0  0  0  0  0  0  0
    5.0270    0.9044   22.1669 H   0  0  0  0  0  0  0  0  0  0  0  0
    3.0859    2.3811   22.4344 H   0  0  0  0  0  0  0  0  0  0  0  0
    1.8891    3.2603   20.4511 H   0  0  0  0  0  0  0  0  0  0  0  0
    2.6350    2.6507   18.1732 H   0  0  0  0  0  0  0  0  0  0  0  0
    4.1944    1.4020   16.7006 H   0  0  0  0  0  0  0  0  0  0  0  0
    7.2816   -0.8648   18.2627 H   0  0  0  0  0  0  0  0  0  0  0  0
    6.9037   -1.8071   21.2414 C   0  0  0  0  0  0  0  0  0  0  0  0
    8.0053   -1.9335   22.2996 C   0  0  2  0  0  0  0  0  0  0  0  0
    7.7259   -3.0124   23.3438 C   0  0  0  0  0  0  0  0  0  0  0  0
    6.7788   -2.8318   23.8598 H   0  0  0  0  0  0  0  0  0  0  0  0
    7.6643   -3.9849   22.8539 H   0  0  0  0  0  0  0  0  0  0  0  0
    8.5192   -3.0421   24.0980 H   0  0  0  0  0  0  0  0  0  0  0  0
    8.9367   -2.2034   21.7858 H   0  0  0  0  0  0  0  0  0  0  0  0
    7.1084   -2.4470   20.3904 H   0  0  0  0  0  0  0  0  0  0  0  0
    5.9244   -2.0910   21.6459 H   0  0  0  0  0  0  0  0  0  0  0  0
    9.6947   -0.1842   23.1086 C   0  0  0  0  0  0  0  0  0  0  0  0
   10.5667    0.0758   22.0231 C   0  0  0  0  0  0  0  0  0  0  0  0
   11.9144    0.2838   22.2181 C   0  0  0  0  0  0  0  0  0  0  0  0
   12.7759    0.5486   21.2428 F   0  0  0  0  0  0  0  0  0  0  0  0
   12.4465    0.2367   23.4859 C   0  0  0  0  0  0  0  0  0  0  0  0
   11.5718    0.0198   24.5061 C   0  0  0  0  0  0  0  0  0  0  0  0
   10.1555   -0.2503   24.4198 C   0  0  0  0  0  0  0  0  0  0  0  0
    9.4254   -0.6787   25.7131 C   0  0  0  0  0  0  0  0  0  0  0  0
    9.4253   -0.6787   25.7130 O   0  0  0  0  0  0  0  0  0  0  0  0
   11.9213    0.2142   25.5063 H   0  0  0  0  0  0  0  0  0  0  0  0
   13.5117    0.4124   23.6746 H   0  0  0  0  0  0  0  0  0  0  0  0
   10.1864    0.1037   21.0077 H   0  0  0  0  0  0  0  0  0  0  0  0
    6.3257   -0.4801   23.9840 H   0  0  0  0  0  0  0  0  0  0  0  0
    7.2997    1.0090   24.2166 H   0  0  0  0  0  0  0  0  0  0  0  0
    6.1881   -1.6112   26.0184 H   0  0  0  0  0  0  0  0  0  0  0  0
    7.6067   -1.9358   27.0249 H   0  0  0  0  0  0  0  0  0  0  0  0
    5.7084    0.8704   27.0487 C   0  0  0  0  0  0  0  0  0  0  0  0
    5.7341    1.8201   28.0414 O   0  0  0  0  0  0  0  0  0  0  0  0
    4.9848    0.9380   26.2466 H   0  0  0  0  0  0  0  0  0  0  0  0
    6.6744    1.7250   30.9265 H   0  0  0  0  0  0  0  0  0  0  0  0
    8.1747    2.2520   30.1643 H   0  0  0  0  0  0  0  0  0  0  0  0
    6.7012    3.2365   29.9923 H   0  0  0  0  0  0  0  0  0  0  0  0
  1  2  1  0
  2  3  2  0
  3  4  1  0
  4  5  1  0
  5  6  1  0
  6  7  1  0
  8  7  1  1
  8  9  1  0
  9 10  2  0
  9 11  1  0
 11 12  1  0
 12 13  2  0
 13 14  1  0
 14 15  2  0
 15 16  1  0
 16 17  2  0
 17 18  1  0
 18 19  2  0
 19 20  1  0
 20 21  2  0
 20 22  1  0
 19 23  1  0
 18 24  1  0
 17 25  1  0
 15 26  1  0
 13 27  1  0
 11 28  1  0
 28 29  1  0
 29 30  1  0
 30 31  1  0
 30 32  1  0
 30 33  1  0
 29 34  1  6
 28 35  1  0
 28 36  1  0
  8 37  1  0
 37 38  2  0
 38 39  1  0
 39 40  1  0
 39 41  2  0
 41 42  1  0
 42 43  2  0
 43 44  1  0
 44 45  2  0
 42 46  1  0
 41 47  1  0
 38 48  1  0
  7 49  1  0
  7 50  1  0
  5 51  1  0
  5 52  1  0
  4 53  2  0
 53 54  1  0
 53 55  1  0
  1 56  1  0
  1 57  1  0
  1 58  1  0
 54  2  1  0
 44  6  1  0
 29  8  1  0
 43 37  1  0
 21 12  1  0
 21 16  1  0
M  END
>  <cnnaffinities>  (81) 
[6.30867]

>  <score>  (81) 
6.30867

>  <index>  (81) 
81

>  <Smiles>  (81) 
C(c1nc(C(N2C([C@@]3(C(=O)N(c4c(nc(c5c(c(c(c(c45)[H])[H])[H])[H])[H])[H])C([C@@]3(C([H])([H])[H])[H])([H])[H])c3c(c(F)c(c(c3C2=O)[H])[H])[H])([H])[H])([H])[H])c(o1)[H])([H])([H])[H]

>  <h>  (81) 
<NA>

>  <Training>  (81) 
True

>  <Success>  (81) 
True

>  <enamine_searched>  (81) 
False

>  <enamine_id>  (81) 
nan

$$$$

     RDKit          3D

 55 60  0  0  0  0  0  0  0  0999 V2000
    6.7856   -2.8416   23.6535 C   0  0  0  0  0  0  0  0  0  0  0  0
    6.9707   -2.2389   22.2635 C   0  0  1  0  0  0  0  0  0  0  0  0
    5.8135   -1.3560   21.7816 C   0  0  0  0  0  0  0  0  0  0  0  0
    6.4368   -0.4101   20.8631 N   0  0  0  0  0  0  0  0  0  0  0  0
    5.8240    0.1782   19.7327 C   0  0  0  0  0  0  0  0  0  0  0  0
    6.2440   -0.0998   18.4542 C   0  0  0  0  0  0  0  0  0  0  0  0
    5.6200    0.3524   17.3358 N   0  0  0  0  0  0  0  0  0  0  0  0
    4.5783    1.1336   17.4985 C   0  0  0  0  0  0  0  0  0  0  0  0
    4.0722    1.5385   18.7676 C   0  0  0  0  0  0  0  0  0  0  0  0
    2.9580    2.4055   18.9133 C   0  0  0  0  0  0  0  0  0  0  0  0
    2.5469    2.7984   20.1580 C   0  0  0  0  0  0  0  0  0  0  0  0
    3.2334    2.3629   21.3135 C   0  0  0  0  0  0  0  0  0  0  0  0
    4.3120    1.5241   21.1987 C   0  0  0  0  0  0  0  0  0  0  0  0
    4.7301    1.0702   19.9226 C   0  0  0  0  0  0  0  0  0  0  0  0
    4.8714    1.2219   22.0788 H   0  0  0  0  0  0  0  0  0  0  0  0
    2.9142    2.6948   22.2960 H   0  0  0  0  0  0  0  0  0  0  0  0
    1.6966    3.4635   20.2682 H   0  0  0  0  0  0  0  0  0  0  0  0
    2.4553    2.7552   18.0161 H   0  0  0  0  0  0  0  0  0  0  0  0
    4.0840    1.4928   16.5962 H   0  0  0  0  0  0  0  0  0  0  0  0
    7.1183   -0.7254   18.2788 H   0  0  0  0  0  0  0  0  0  0  0  0
    7.7850   -0.2661   21.0624 C   0  0  0  0  0  0  0  0  0  0  0  0
    8.5079    0.5451   20.5140 O   0  0  0  0  0  0  0  0  0  0  0  0
    8.2588   -1.3518   22.0346 C   0  0  1  0  0  0  0  0  0  0  0  0
    8.8188   -0.6755   23.3232 C   0  0  0  0  0  0  0  0  0  0  0  0
    9.6302   -1.5051   24.2323 N   0  0  0  0  0  0  0  0  0  0  0  0
    9.5287   -1.1703   25.6321 C   0  0  0  0  0  0  0  0  0  0  0  0
    8.8431   -2.2375   26.4245 C   0  0  0  0  0  0  0  0  0  0  0  0
    7.8685   -2.0779   27.2592 N   0  0  0  0  0  0  0  0  0  0  0  0
    7.5696   -3.3683   27.6774 C   0  0  0  0  0  0  0  0  0  0  0  0
    8.3946   -4.2399   27.0617 C   0  0  0  0  0  0  0  0  0  0  0  0
    9.2247   -3.5181   26.2466 O   0  0  0  0  0  0  0  0  0  0  0  0
    8.5133   -5.3114   27.0506 H   0  0  0  0  0  0  0  0  0  0  0  0
    6.7787   -3.5670   28.3849 H   0  0  0  0  0  0  0  0  0  0  0  0
   10.5418   -0.9835   26.0023 H   0  0  0  0  0  0  0  0  0  0  0  0
    8.9160   -0.2845   25.7360 H   0  0  0  0  0  0  0  0  0  0  0  0
   10.8203   -2.1757   23.9072 C   0  0  0  0  0  0  0  0  0  0  0  0
   11.8122   -2.1195   24.6207 O   0  0  0  0  0  0  0  0  0  0  0  0
   10.7985   -2.9541   22.6884 C   0  0  0  0  0  0  0  0  0  0  0  0
   12.0424   -2.8579   21.9300 C   0  0  0  0  0  0  0  0  0  0  0  0
   12.0379   -2.7999   20.5805 C   0  0  0  0  0  0  0  0  0  0  0  0
   11.9609   -3.0846   20.4450 C   0  0  0  0  0  0  0  0  0  0  0  0
   11.5424   -3.9416   19.5071 F   0  0  0  0  0  0  0  0  0  0  0  0
    9.6507   -3.1538   22.0355 C   0  0  0  0  0  0  0  0  0  0  0  0
    9.2910   -2.1341   21.2816 C   0  0  0  0  0  0  0  0  0  0  0  0
    9.5181   -1.8560   20.2581 H   0  0  0  0  0  0  0  0  0  0  0  0
   13.1607   -3.1623   20.4402 H   0  0  0  0  0  0  0  0  0  0  0  0
   12.8710   -2.3955   22.4645 H   0  0  0  0  0  0  0  0  0  0  0  0
    7.9442   -0.3351   23.8822 H   0  0  0  0  0  0  0  0  0  0  0  0
    9.3543    0.2387   23.0256 H   0  0  0  0  0  0  0  0  0  0  0  0
    5.0340   -1.9262   21.2724 H   0  0  0  0  0  0  0  0  0  0  0  0
    5.3441   -0.8380   22.6282 H   0  0  0  0  0  0  0  0  0  0  0  0
    7.0955   -3.0743   21.5604 H   0  0  0  0  0  0  0  0  0  0  0  0
    6.6287   -2.0811   24.4266 H   0  0  0  0  0  0  0  0  0  0  0  0
    7.6718   -3.4254   23.9270 H   0  0  0  0  0  0  0  0  0  0  0  0
    5.9197   -3.5123   23.6675 H   0  0  0  0  0  0  0  0  0  0  0  0
  1  2  1  0
  2  3  1  0
  3  4  1  0
  4  5  1  0
  5  6  2  0
  6  7  1  0
  7  8  2  0
  8  9  1  0
  9 10  2  0
 10 11  1  0
 11 12  2  0
 12 13  1  0
 13 14  2  0
 13 15  1  0
 12 16  1  0
 11 17  1  0
 10 18  1  0
  8 19  1  0
  6 20  1  0
  4 21  1  0
 21 22  2  0
 21 23  1  0
 23 24  1  1
 24 25  1  0
 25 26  1  0
 26 27  1  0
 27 28  2  0
 28 29  1  0
 29 30  2  0
 30 31  1  0
 30 32  1  0
 29 33  1  0
 26 34  1  0
 26 35  1  0
 25 36  1  0
 36 37  2  0
 36 38  1  0
 38 39  2  0
 39 40  1  0
 40 41  2  0
 41 42  1  0
 41 43  1  0
 43 44  2  0
 43 45  1  0
 40 46  1  0
 39 47  1  0
 24 48  1  0
 24 49  1  0
  3 50  1  0
  3 51  1  0
  2 52  1  6
  1 53  1  0
  1 54  1  0
  1 55  1  0
 23  2  1  0
 31 27  1  0
 44 38  1  0
 14  5  1  0
 44 23  1  0
 14  9  1  0
M  END
>  <cnnaffinities>  (82) 
[6.09554]

>  <score>  (82) 
6.09554

>  <index>  (82) 
82

>  <Smiles>  (82) 
C([C@]1(C(N(c2c(nc(c3c(c(c(c(c23)[H])[H])[H])[H])[H])[H])C(=O)[C@]21C(N(C(c1nc(c(o1)[H])[H])([H])[H])C(=O)c1c(c(c(F)c(c21)[H])[H])[H])([H])[H])([H])[H])[H])([H])([H])[H]

>  <h>  (82) 
<NA>

>  <Training>  (82) 
True

>  <Success>  (82) 
True

>  <enamine_searched>  (82) 
False

>  <enamine_id>  (82) 
nan

$$$$

     RDKit          3D

 72 77  0  0  0  0  0  0  0  0999 V2000
    9.2056    6.0356   23.5075 C   0  0  0  0  0  0  0  0  0  0  0  0
    7.9877    6.0558   22.5913 C   0  0  2  0  0  0  0  0  0  0  0  0
    7.2551    7.3833   22.7003 C   0  0  0  0  0  0  0  0  0  0  0  0
    6.0853    7.4252   21.9125 O   0  0  0  0  0  0  0  0  0  0  0  0
    5.1558    6.4703   22.3790 C   0  0  0  0  0  0  0  0  0  0  0  0
    5.6782    5.0474   22.2482 C   0  0  1  0  0  0  0  0  0  0  0  0
    5.7888    4.6367   20.7873 C   0  0  0  0  0  0  0  0  0  0  0  0
    6.1241    3.5984   20.7031 H   0  0  0  0  0  0  0  0  0  0  0  0
    6.5122    5.2808   20.2781 H   0  0  0  0  0  0  0  0  0  0  0  0
    4.8295    4.7033   20.2695 H   0  0  0  0  0  0  0  0  0  0  0  0
    7.0211    4.9312   22.9361 N   0  0  0  0  0  4  0  0  0  0  0  0
    7.6286    3.5862   22.7428 C   0  0  0  0  0  0  0  0  0  0  0  0
    8.1017    3.0345   24.0740 C   0  0  0  0  0  0  0  0  0  0  0  0
    8.7439    1.7497   23.9031 N   0  0  0  0  0  0  0  0  0  0  0  0
    7.9664    0.5266   23.8159 C   0  0  0  0  0  0  0  0  0  0  0  0
    8.3824   -0.3537   22.6033 C   0  0  2  0  0  0  0  0  0  0  0  0
    7.9646    0.2499   21.2479 C   0  0  0  0  0  0  0  0  0  0  0  0
    8.5064    1.1558   20.6379 O   0  0  0  0  0  0  0  0  0  0  0  0
    6.8523   -0.4233   20.8006 N   0  0  0  0  0  0  0  0  0  0  0  0
    6.1002    0.0994   19.7265 C   0  0  0  0  0  0  0  0  0  0  0  0
    6.4548   -0.1874   18.4363 C   0  0  0  0  0  0  0  0  0  0  0  0
    5.7836    0.2593   17.3489 N   0  0  0  0  0  0  0  0  0  0  0  0
    4.7544    1.0443   17.5719 C   0  0  0  0  0  0  0  0  0  0  0  0
    4.2998    1.4380   18.8619 C   0  0  0  0  0  0  0  0  0  0  0  0
    3.1875    2.2984   19.0508 C   0  0  0  0  0  0  0  0  0  0  0  0
    2.7706    2.6385   20.3075 C   0  0  0  0  0  0  0  0  0  0  0  0
    3.4716    2.1729   21.4402 C   0  0  0  0  0  0  0  0  0  0  0  0
    4.5642    1.3548   21.2912 C   0  0  0  0  0  0  0  0  0  0  0  0
    4.9913    0.9501   19.9933 C   0  0  0  0  0  0  0  0  0  0  0  0
    5.1184    1.0407   22.1707 H   0  0  0  0  0  0  0  0  0  0  0  0
    3.1446    2.4674   22.4327 H   0  0  0  0  0  0  0  0  0  0  0  0
    1.9055    3.2810   20.4380 H   0  0  0  0  0  0  0  0  0  0  0  0
    2.6881    2.6819   18.1668 H   0  0  0  0  0  0  0  0  0  0  0  0
    4.2177    1.4131   16.6976 H   0  0  0  0  0  0  0  0  0  0  0  0
    7.3190   -0.8227   18.2560 H   0  0  0  0  0  0  0  0  0  0  0  0
    6.3987   -1.4921   21.6691 C   0  0  0  0  0  0  0  0  0  0  0  0
    7.6282   -1.7168   22.5589 C   0  0  2  0  0  0  0  0  0  0  0  0
    7.3533   -2.3977   23.8890 C   0  0  0  0  0  0  0  0  0  0  0  0
    8.2942   -2.5226   24.4369 H   0  0  0  0  0  0  0  0  0  0  0  0
    6.6596   -1.8231   24.5155 H   0  0  0  0  0  0  0  0  0  0  0  0
    6.9195   -3.3878   23.7087 H   0  0  0  0  0  0  0  0  0  0  0  0
    8.2581   -2.3979   21.9802 H   0  0  0  0  0  0  0  0  0  0  0  0
    6.1623   -2.3924   21.0866 H   0  0  0  0  0  0  0  0  0  0  0  0
    5.4938   -1.2208   22.2377 H   0  0  0  0  0  0  0  0  0  0  0  0
    9.8802   -0.4560   22.5980 C   0  0  0  0  0  0  0  0  0  0  0  0
   10.4718   -1.4497   21.8261 C   0  0  0  0  0  0  0  0  0  0  0  0
   11.8378   -1.5487   21.7417 C   0  0  0  0  0  0  0  0  0  0  0  0
   12.3356   -2.8554   20.7016 Cl  0  0  0  0  0  0  0  0  0  0  0  0
   12.6662   -0.6483   22.4240 C   0  0  0  0  0  0  0  0  0  0  0  0
   12.0817    0.3857   23.1206 C   0  0  0  0  0  0  0  0  0  0  0  0
   10.6987    0.5142   23.1770 C   0  0  0  0  0  0  0  0  0  0  0  0
   10.1044    1.7440   23.7807 C   0  0  0  0  0  0  0  0  0  0  0  0
   10.8037    2.6926   24.1139 O   0  0  0  0  0  0  0  0  0  0  0  0
   12.7033    1.1254   23.6110 H   0  0  0  0  0  0  0  0  0  0  0  0
   13.7471   -0.6803   22.4451 H   0  0  0  0  0  0  0  0  0  0  0  0
    9.9112   -2.1687   21.2420 H   0  0  0  0  0  0  0  0  0  0  0  0
    6.9009    0.7789   23.7654 H   0  0  0  0  0  0  0  0  0  0  0  0
    8.1274   -0.0549   24.7367 H   0  0  0  0  0  0  0  0  0  0  0  0
    8.8316    3.7146   24.5084 H   0  0  0  0  0  0  0  0  0  0  0  0
    7.2319    2.9724   24.7437 H   0  0  0  0  0  0  0  0  0  0  0  0
    8.4493    3.6501   22.0160 H   0  0  0  0  0  0  0  0  0  0  0  0
    6.8880    2.8782   22.3550 H   0  0  0  0  0  0  0  0  0  0  0  0
    6.8544    5.0135   23.9577 H   0  0  0  0  0  0  0  0  0  0  0  0
    4.9965    4.3717   22.7823 H   0  0  0  0  0  0  0  0  0  0  0  0
    4.2571    6.5708   21.7644 H   0  0  0  0  0  0  0  0  0  0  0  0
    4.8854    6.6841   23.4250 H   0  0  0  0  0  0  0  0  0  0  0  0
    6.9978    7.5597   23.7588 H   0  0  0  0  0  0  0  0  0  0  0  0
    7.9111    8.1873   22.3562 H   0  0  0  0  0  0  0  0  0  0  0  0
    8.3129    5.9109   21.5554 H   0  0  0  0  0  0  0  0  0  0  0  0
    9.8422    5.1611   23.3411 H   0  0  0  0  0  0  0  0  0  0  0  0
    9.8167    6.9265   23.3485 H   0  0  0  0  0  0  0  0  0  0  0  0
    8.8809    6.0304   24.5567 H   0  0  0  0  0  0  0  0  0  0  0  0
  1  2  1  0
  2  3  1  0
  3  4  1  0
  4  5  1  0
  5  6  1  0
  6  7  1  0
  7  8  1  0
  7  9  1  0
  7 10  1  0
  6 11  1  0
 11 12  1  0
 12 13  1  0
 13 14  1  0
 14 15  1  0
 16 15  1  1
 16 17  1  0
 17 18  2  0
 17 19  1  0
 19 20  1  0
 20 21  2  0
 21 22  1  0
 22 23  2  0
 23 24  1  0
 24 25  2  0
 25 26  1  0
 26 27  2  0
 27 28  1  0
 28 29  2  0
 28 30  1  0
 27 31  1  0
 26 32  1  0
 25 33  1  0
 23 34  1  0
 21 35  1  0
 19 36  1  0
 36 37  1  0
 37 38  1  0
 38 39  1  0
 38 40  1  0
 38 41  1  0
 37 42  1  6
 36 43  1  0
 36 44  1  0
 16 45  1  0
 45 46  2  0
 46 47  1  0
 47 48  1  0
 47 49  2  0
 49 50  1  0
 50 51  2  0
 51 52  1  0
 52 53  2  0
 50 54  1  0
 49 55  1  0
 46 56  1  0
 15 57  1  0
 15 58  1  0
 13 59  1  0
 13 60  1  0
 12 61  1  0
 12 62  1  0
 11 63  1  0
  6 64  1  1
  5 65  1  0
  5 66  1  0
  3 67  1  0
  3 68  1  0
  2 69  1  6
  1 70  1  0
  1 71  1  0
  1 72  1  0
 11  2  1  0
 52 14  1  0
 37 16  1  0
 51 45  1  0
 29 20  1  0
 29 24  1  0
M  CHG  1  11   1
M  END
>  <cnnaffinities>  (83) 
[6.62212]

>  <score>  (83) 
6.62212

>  <index>  (83) 
83

>  <Smiles>  (83) 
C([C@@]1(C(OC([C@@](C([H])([H])[H])([N+]1(C(C(N1C([C@@]2(C(=O)N(c3c(nc(c4c(c(c(c(c34)[H])[H])[H])[H])[H])[H])C([C@@]2(C([H])([H])[H])[H])([H])[H])c2c(c(Cl)c(c(c2C1=O)[H])[H])[H])([H])[H])([H])[H])([H])[H])[H])[H])([H])[H])([H])[H])[H])([H])([H])[H]

>  <h>  (83) 
<NA>

>  <Training>  (83) 
True

>  <Success>  (83) 
True

>  <enamine_searched>  (83) 
False

>  <enamine_id>  (83) 
nan

$$$$

     RDKit          3D

 60 65  0  0  0  0  0  0  0  0999 V2000
    2.8318   -6.6088   25.0604 C   0  0  0  0  0  0  0  0  0  0  0  0
    4.0996   -6.3402   24.4060 N   0  0  0  0  0  0  0  0  0  0  0  0
    4.1871   -5.2467   23.6000 C   0  0  0  0  0  0  0  0  0  0  0  0
    3.1943   -4.6092   23.3099 O   0  0  0  0  0  0  0  0  0  0  0  0
    5.5479   -4.8862   23.0148 C   0  0  0  0  0  0  0  0  0  0  0  0
    6.2787   -3.8099   23.6447 N   0  0  0  0  0  0  0  0  0  0  0  0
    7.4639   -3.2206   23.0269 C   0  0  0  0  0  0  0  0  0  0  0  0
    7.3291   -1.6969   22.8115 C   0  0  2  0  0  0  0  0  0  0  0  0
    6.3095   -1.3835   21.6997 C   0  0  0  0  0  0  0  0  0  0  0  0
    5.1858   -1.8264   21.5760 O   0  0  0  0  0  0  0  0  0  0  0  0
    6.8637   -0.4783   20.8355 N   0  0  0  0  0  0  0  0  0  0  0  0
    6.1104    0.0665   19.7707 C   0  0  0  0  0  0  0  0  0  0  0  0
    6.4550   -0.2251   18.4742 C   0  0  0  0  0  0  0  0  0  0  0  0
    5.7885    0.2299   17.3874 N   0  0  0  0  0  0  0  0  0  0  0  0
    4.7609    1.0154   17.6056 C   0  0  0  0  0  0  0  0  0  0  0  0
    4.3058    1.4030   18.8990 C   0  0  0  0  0  0  0  0  0  0  0  0
    3.1925    2.2683   19.0606 C   0  0  0  0  0  0  0  0  0  0  0  0
    2.7867    2.6536   20.3077 C   0  0  0  0  0  0  0  0  0  0  0  0
    3.4851    2.1980   21.4516 C   0  0  0  0  0  0  0  0  0  0  0  0
    4.5669    1.3626   21.3258 C   0  0  0  0  0  0  0  0  0  0  0  0
    4.9964    0.9274   20.0330 C   0  0  0  0  0  0  0  0  0  0  0  0
    5.0970    1.0357   22.2206 H   0  0  0  0  0  0  0  0  0  0  0  0
    3.1562    2.5156   22.4369 H   0  0  0  0  0  0  0  0  0  0  0  0
    1.9316    3.3146   20.4283 H   0  0  0  0  0  0  0  0  0  0  0  0
    2.6874    2.6253   18.1672 H   0  0  0  0  0  0  0  0  0  0  0  0
    4.2287    1.3827   16.7289 H   0  0  0  0  0  0  0  0  0  0  0  0
    7.3033   -0.8795   18.2712 H   0  0  0  0  0  0  0  0  0  0  0  0
    8.2180   -0.0834   21.1433 C   0  0  0  0  0  0  0  0  0  0  0  0
    8.6483   -1.0082   22.3044 C   0  0  2  0  0  0  0  0  0  0  0  0
    9.7763   -1.9437   21.8431 C   0  0  0  0  0  0  0  0  0  0  0  0
   10.1461   -2.5752   22.6560 H   0  0  0  0  0  0  0  0  0  0  0  0
   10.6271   -1.3533   21.4832 H   0  0  0  0  0  0  0  0  0  0  0  0
    9.4545   -2.5908   21.0194 H   0  0  0  0  0  0  0  0  0  0  0  0
    9.0616   -0.4163   23.1300 H   0  0  0  0  0  0  0  0  0  0  0  0
    8.2528    0.9845   21.3976 H   0  0  0  0  0  0  0  0  0  0  0  0
    8.8656   -0.2329   20.2792 H   0  0  0  0  0  0  0  0  0  0  0  0
    6.8369   -1.0851   24.1192 C   0  0  0  0  0  0  0  0  0  0  0  0
    6.9535    0.2993   24.3288 C   0  0  0  0  0  0  0  0  0  0  0  0
    6.4827    0.8600   25.5036 C   0  0  0  0  0  0  0  0  0  0  0  0
    6.6078    2.5818   25.7513 Cl  0  0  0  0  0  0  0  0  0  0  0  0
    5.8982    0.0733   26.4955 C   0  0  0  0  0  0  0  0  0  0  0  0
    5.7626   -1.2878   26.2858 C   0  0  0  0  0  0  0  0  0  0  0  0
    6.2064   -1.8666   25.0966 C   0  0  0  0  0  0  0  0  0  0  0  0
    5.9017   -3.3210   24.8790 C   0  0  0  0  0  0  0  0  0  0  0  0
    5.3244   -3.9969   25.7168 O   0  0  0  0  0  0  0  0  0  0  0  0
    5.2900   -1.9456   27.0117 H   0  0  0  0  0  0  0  0  0  0  0  0
    5.5403    0.5431   27.4034 H   0  0  0  0  0  0  0  0  0  0  0  0
    7.3992    0.9583   23.5856 H   0  0  0  0  0  0  0  0  0  0  0  0
    7.6389   -3.7107   22.0750 H   0  0  0  0  0  0  0  0  0  0  0  0
    8.3243   -3.3911   23.6872 H   0  0  0  0  0  0  0  0  0  0  0  0
    6.2671   -5.9871   22.2896 C   0  0  0  0  0  0  0  0  0  0  0  0
    5.5525   -4.9423   21.5094 C   0  0  0  0  0  0  0  0  0  0  0  0
    4.6089   -5.2445   21.0838 H   0  0  0  0  0  0  0  0  0  0  0  0
    6.0883   -4.1774   20.9613 H   0  0  0  0  0  0  0  0  0  0  0  0
    5.7702   -6.9512   22.2650 H   0  0  0  0  0  0  0  0  0  0  0  0
    7.3433   -6.0504   22.3770 H   0  0  0  0  0  0  0  0  0  0  0  0
    4.9435   -6.6753   24.8353 H   0  0  0  0  0  0  0  0  0  0  0  0
    2.0742   -6.8760   24.3213 H   0  0  0  0  0  0  0  0  0  0  0  0
    2.4612   -5.7252   25.5856 H   0  0  0  0  0  0  0  0  0  0  0  0
    2.9577   -7.4340   25.7642 H   0  0  0  0  0  0  0  0  0  0  0  0
  1  2  1  0
  2  3  1  0
  3  4  2  0
  3  5  1  0
  5  6  1  0
  6  7  1  0
  8  7  1  1
  8  9  1  0
  9 10  2  0
  9 11  1  0
 11 12  1  0
 12 13  2  0
 13 14  1  0
 14 15  2  0
 15 16  1  0
 16 17  2  0
 17 18  1  0
 18 19  2  0
 19 20  1  0
 20 21  2  0
 20 22  1  0
 19 23  1  0
 18 24  1  0
 17 25  1  0
 15 26  1  0
 13 27  1  0
 11 28  1  0
 28 29  1  0
 29 30  1  0
 30 31  1  0
 30 32  1  0
 30 33  1  0
 29 34  1  1
 28 35  1  0
 28 36  1  0
  8 37  1  0
 37 38  2  0
 38 39  1  0
 39 40  1  0
 39 41  2  0
 41 42  1  0
 42 43  2  0
 43 44  1  0
 44 45  2  0
 42 46  1  0
 41 47  1  0
 38 48  1  0
  7 49  1  0
  7 50  1  0
  5 51  1  0
 51 52  1  0
 52 53  1  0
 52 54  1  0
 51 55  1  0
 51 56  1  0
  2 57  1  0
  1 58  1  0
  1 59  1  0
  1 60  1  0
 52  5  1  0
 44  6  1  0
 29  8  1  0
 43 37  1  0
 21 12  1  0
 21 16  1  0
M  END
>  <cnnaffinities>  (84) 
[5.91096]

>  <score>  (84) 
5.91096

>  <index>  (84) 
84

>  <Smiles>  (84) 
C(N(C(=O)C1(N2C([C@@]3(C(=O)N(c4c(nc(c5c(c(c(c(c45)[H])[H])[H])[H])[H])[H])C([C@@]3(C([H])([H])[H])[H])([H])[H])c3c(c(Cl)c(c(c3C2=O)[H])[H])[H])([H])[H])C(C1([H])[H])([H])[H])[H])([H])([H])[H]

>  <h>  (84) 
<NA>

>  <Training>  (84) 
True

>  <Success>  (84) 
True

>  <enamine_searched>  (84) 
False

>  <enamine_id>  (84) 
nan

$$$$

     RDKit          3D

 55 60  0  0  0  0  0  0  0  0999 V2000
    7.2399   -2.5236   23.8350 C   0  0  0  0  0  0  0  0  0  0  0  0
    7.5274   -1.8121   22.5201 C   0  0  1  0  0  0  0  0  0  0  0  0
    6.3212   -1.6076   21.5892 C   0  0  0  0  0  0  0  0  0  0  0  0
    6.7589   -0.4979   20.7663 N   0  0  0  0  0  0  0  0  0  0  0  0
    6.0252    0.0302   19.6812 C   0  0  0  0  0  0  0  0  0  0  0  0
    6.4321   -0.2070   18.3966 C   0  0  0  0  0  0  0  0  0  0  0  0
    5.7846    0.2621   17.3009 N   0  0  0  0  0  0  0  0  0  0  0  0
    4.7379    1.0284   17.4998 C   0  0  0  0  0  0  0  0  0  0  0  0
    4.2342    1.3843   18.7886 C   0  0  0  0  0  0  0  0  0  0  0  0
    3.1214    2.2501   18.9754 C   0  0  0  0  0  0  0  0  0  0  0  0
    2.6830    2.5602   20.2332 C   0  0  0  0  0  0  0  0  0  0  0  0
    3.3268    2.0210   21.3703 C   0  0  0  0  0  0  0  0  0  0  0  0
    4.4040    1.1853   21.2160 C   0  0  0  0  0  0  0  0  0  0  0  0
    4.8883    0.8561   19.9204 C   0  0  0  0  0  0  0  0  0  0  0  0
    4.9337    0.8419   22.0994 H   0  0  0  0  0  0  0  0  0  0  0  0
    3.0056    2.3038   22.3689 H   0  0  0  0  0  0  0  0  0  0  0  0
    1.8547    3.2486   20.3721 H   0  0  0  0  0  0  0  0  0  0  0  0
    2.6596    2.6922   18.0966 H   0  0  0  0  0  0  0  0  0  0  0  0
    4.2248    1.4039   16.6131 H   0  0  0  0  0  0  0  0  0  0  0  0
    7.3295   -0.7971   18.2174 H   0  0  0  0  0  0  0  0  0  0  0  0
    7.7405    0.2773   21.3409 C   0  0  0  0  0  0  0  0  0  0  0  0
    8.1372    1.3240   20.8825 O   0  0  0  0  0  0  0  0  0  0  0  0
    8.2233   -0.4209   22.6213 C   0  0  1  0  0  0  0  0  0  0  0  0
    7.8112    0.4068   23.8661 C   0  0  0  0  0  0  0  0  0  0  0  0
    8.5260    1.6753   23.9267 N   0  0  0  0  0  0  0  0  0  0  0  0
    7.8576    2.9586   24.1129 C   0  0  0  0  0  0  0  0  0  0  0  0
    7.4052    3.7128   22.8946 C   0  0  0  0  0  0  0  0  0  0  0  0
    7.9836    4.8069   22.3405 C   0  0  0  0  0  0  0  0  0  0  0  0
    7.1497    5.2905   21.3770 O   0  0  0  0  0  0  0  0  0  0  0  0
    6.0847    4.4670   21.4119 C   0  0  0  0  0  0  0  0  0  0  0  0
    6.1703    3.5186   22.2927 N   0  0  0  0  0  0  0  0  0  0  0  0
    5.2684    4.6638   20.7299 H   0  0  0  0  0  0  0  0  0  0  0  0
    8.9162    5.3298   22.5019 H   0  0  0  0  0  0  0  0  0  0  0  0
    8.6000    3.6020   24.5837 H   0  0  0  0  0  0  0  0  0  0  0  0
    6.9900    2.8549   24.7767 H   0  0  0  0  0  0  0  0  0  0  0  0
    9.9035    1.6669   23.8970 C   0  0  0  0  0  0  0  0  0  0  0  0
   10.5905    2.5654   24.3587 O   0  0  0  0  0  0  0  0  0  0  0  0
   10.5143    0.4836   23.2034 C   0  0  0  0  0  0  0  0  0  0  0  0
   11.9033    0.4219   23.1242 C   0  0  0  0  0  0  0  0  0  0  0  0
   12.5286   -0.5399   22.3582 C   0  0  0  0  0  0  0  0  0  0  0  0
   11.7196   -1.4273   21.6485 C   0  0  0  0  0  0  0  0  0  0  0  0
   12.2522   -2.3766   20.8660 F   0  0  0  0  0  0  0  0  0  0  0  0
   10.3467   -1.3805   21.6923 C   0  0  0  0  0  0  0  0  0  0  0  0
    9.7275   -0.4720   22.5530 C   0  0  0  0  0  0  0  0  0  0  0  0
    9.8006   -2.0285   21.0079 H   0  0  0  0  0  0  0  0  0  0  0  0
   13.6100   -0.5566   22.2854 H   0  0  0  0  0  0  0  0  0  0  0  0
   12.4827    1.1626   23.6582 H   0  0  0  0  0  0  0  0  0  0  0  0
    6.7383    0.6087   23.8461 H   0  0  0  0  0  0  0  0  0  0  0  0
    8.0245   -0.1746   24.7749 H   0  0  0  0  0  0  0  0  0  0  0  0
    5.3924   -1.3820   22.1366 H   0  0  0  0  0  0  0  0  0  0  0  0
    6.1168   -2.4730   20.9521 H   0  0  0  0  0  0  0  0  0  0  0  0
    8.2220   -2.4361   21.9571 H   0  0  0  0  0  0  0  0  0  0  0  0
    8.1543   -2.6106   24.4298 H   0  0  0  0  0  0  0  0  0  0  0  0
    6.4996   -1.9891   24.4367 H   0  0  0  0  0  0  0  0  0  0  0  0
    6.8639   -3.5377   23.6753 H   0  0  0  0  0  0  0  0  0  0  0  0
  1  2  1  0
  2  3  1  0
  3  4  1  0
  4  5  1  0
  5  6  2  0
  6  7  1  0
  7  8  2  0
  8  9  1  0
  9 10  2  0
 10 11  1  0
 11 12  2  0
 12 13  1  0
 13 14  2  0
 13 15  1  0
 12 16  1  0
 11 17  1  0
 10 18  1  0
  8 19  1  0
  6 20  1  0
  4 21  1  0
 21 22  2  0
 21 23  1  0
 23 24  1  1
 24 25  1  0
 25 26  1  0
 26 27  1  0
 27 28  2  0
 28 29  1  0
 29 30  1  0
 30 31  2  0
 30 32  1  0
 28 33  1  0
 26 34  1  0
 26 35  1  0
 25 36  1  0
 36 37  2  0
 36 38  1  0
 38 39  2  0
 39 40  1  0
 40 41  2  0
 41 42  1  0
 41 43  1  0
 43 44  2  0
 43 45  1  0
 40 46  1  0
 39 47  1  0
 24 48  1  0
 24 49  1  0
  3 50  1  0
  3 51  1  0
  2 52  1  6
  1 53  1  0
  1 54  1  0
  1 55  1  0
 23  2  1  0
 31 27  1  0
 44 38  1  0
 14  5  1  0
 44 23  1  0
 14  9  1  0
M  END
>  <cnnaffinities>  (85) 
[6.18074]

>  <score>  (85) 
6.18074

>  <index>  (85) 
85

>  <Smiles>  (85) 
C([C@]1(C(N(c2c(nc(c3c(c(c(c(c23)[H])[H])[H])[H])[H])[H])C(=O)[C@]21C(N(C(c1c(oc(n1)[H])[H])([H])[H])C(=O)c1c(c(c(F)c(c21)[H])[H])[H])([H])[H])([H])[H])[H])([H])([H])[H]

>  <h>  (85) 
<NA>

>  <Training>  (85) 
True

>  <Success>  (85) 
True

>  <enamine_searched>  (85) 
False

>  <enamine_id>  (85) 
nan

$$$$

     RDKit          3D

 65 70  0  0  0  0  0  0  0  0999 V2000
    6.3597    4.3591   21.2584 C   0  0  0  0  0  0  0  0  0  0  0  0
    7.3162    3.8706   22.2387 N   0  0  0  0  0  0  0  0  0  0  0  0
    6.8969    3.2384   23.3671 C   0  0  0  0  0  0  0  0  0  0  0  0
    5.7178    3.0083   23.6113 O   0  0  0  0  0  0  0  0  0  0  0  0
    8.0083    2.8639   24.3491 C   0  0  0  0  0  0  0  0  0  0  0  0
    8.6920    1.6378   23.9749 N   0  0  0  0  0  0  0  0  0  0  0  0
    7.9173    0.4076   23.8596 C   0  0  0  0  0  0  0  0  0  0  0  0
    8.3178   -0.4143   22.6055 C   0  0  2  0  0  0  0  0  0  0  0  0
    7.8638    0.2828   21.3096 C   0  0  0  0  0  0  0  0  0  0  0  0
    8.3188    1.2965   20.8168 O   0  0  0  0  0  0  0  0  0  0  0  0
    6.8340   -0.4525   20.7587 N   0  0  0  0  0  0  0  0  0  0  0  0
    6.0926    0.0851   19.6833 C   0  0  0  0  0  0  0  0  0  0  0  0
    6.4520   -0.1883   18.3897 C   0  0  0  0  0  0  0  0  0  0  0  0
    5.7753    0.2636   17.3071 N   0  0  0  0  0  0  0  0  0  0  0  0
    4.7358    1.0367   17.5253 C   0  0  0  0  0  0  0  0  0  0  0  0
    4.2779    1.4193   18.8200 C   0  0  0  0  0  0  0  0  0  0  0  0
    3.1643    2.2767   19.0172 C   0  0  0  0  0  0  0  0  0  0  0  0
    2.7712    2.6306   20.2817 C   0  0  0  0  0  0  0  0  0  0  0  0
    3.4722    2.1521   21.4102 C   0  0  0  0  0  0  0  0  0  0  0  0
    4.5529    1.3210   21.2436 C   0  0  0  0  0  0  0  0  0  0  0  0
    4.9765    0.9290   19.9428 C   0  0  0  0  0  0  0  0  0  0  0  0
    5.1292    1.0152   22.1112 H   0  0  0  0  0  0  0  0  0  0  0  0
    3.1931    2.4718   22.4105 H   0  0  0  0  0  0  0  0  0  0  0  0
    1.9248    3.2948   20.4232 H   0  0  0  0  0  0  0  0  0  0  0  0
    2.6505    2.6584   18.1405 H   0  0  0  0  0  0  0  0  0  0  0  0
    4.1971    1.4060   16.6519 H   0  0  0  0  0  0  0  0  0  0  0  0
    7.3238   -0.8098   18.1938 H   0  0  0  0  0  0  0  0  0  0  0  0
    6.3539   -1.5323   21.6031 C   0  0  0  0  0  0  0  0  0  0  0  0
    7.5870   -1.7786   22.4701 C   0  0  2  0  0  0  0  0  0  0  0  0
    7.3959   -2.6015   23.7367 C   0  0  0  0  0  0  0  0  0  0  0  0
    6.2502   -2.2099   24.5396 N   0  0  0  0  0  0  0  0  0  0  0  0
    5.0888   -2.8950   24.5305 C   0  0  0  0  0  0  0  0  0  0  0  0
    4.1489   -2.5362   25.4277 N   0  0  0  0  0  0  0  0  0  0  0  0
    3.0793   -3.3127   25.4184 C   0  0  0  0  0  0  0  0  0  0  0  0
    2.8609   -4.3729   24.6354 N   0  0  0  0  0  0  0  0  0  0  0  0
    3.8207   -4.5594   23.7292 C   0  0  0  0  0  0  0  0  0  0  0  0
    4.9388   -3.8624   23.6015 N   0  0  0  0  0  0  0  0  0  0  0  0
    3.6905   -5.3863   23.0309 H   0  0  0  0  0  0  0  0  0  0  0  0
    2.2959   -3.0779   26.1408 H   0  0  0  0  0  0  0  0  0  0  0  0
    6.3572   -1.5436   25.2919 H   0  0  0  0  0  0  0  0  0  0  0  0
    7.2538   -3.6483   23.4644 H   0  0  0  0  0  0  0  0  0  0  0  0
    8.3045   -2.5278   24.3437 H   0  0  0  0  0  0  0  0  0  0  0  0
    8.2394   -2.3684   21.8286 H   0  0  0  0  0  0  0  0  0  0  0  0
    5.4599   -1.2473   22.1737 H   0  0  0  0  0  0  0  0  0  0  0  0
    6.0869   -2.4076   21.0017 H   0  0  0  0  0  0  0  0  0  0  0  0
    9.8219   -0.5258   22.5923 C   0  0  0  0  0  0  0  0  0  0  0  0
   10.4343   -1.4868   21.7888 C   0  0  0  0  0  0  0  0  0  0  0  0
   11.8057   -1.5844   21.7403 C   0  0  0  0  0  0  0  0  0  0  0  0
   12.3512   -2.8485   20.6804 Cl  0  0  0  0  0  0  0  0  0  0  0  0
   12.6259   -0.7105   22.4626 C   0  0  0  0  0  0  0  0  0  0  0  0
   12.0211    0.2898   23.1950 C   0  0  0  0  0  0  0  0  0  0  0  0
   10.6356    0.4044   23.2497 C   0  0  0  0  0  0  0  0  0  0  0  0
   10.0623    1.6029   23.9504 C   0  0  0  0  0  0  0  0  0  0  0  0
   10.7717    2.4837   24.4218 O   0  0  0  0  0  0  0  0  0  0  0  0
   12.6237    1.0157   23.7260 H   0  0  0  0  0  0  0  0  0  0  0  0
   13.7083   -0.7463   22.4661 H   0  0  0  0  0  0  0  0  0  0  0  0
    9.8811   -2.1742   21.1548 H   0  0  0  0  0  0  0  0  0  0  0  0
    8.0689   -0.2085   24.7591 H   0  0  0  0  0  0  0  0  0  0  0  0
    6.8641    0.6897   23.8051 H   0  0  0  0  0  0  0  0  0  0  0  0
    8.7682    3.6524   24.3829 H   0  0  0  0  0  0  0  0  0  0  0  0
    7.5492    2.7884   25.3444 H   0  0  0  0  0  0  0  0  0  0  0  0
    8.2492    3.6572   21.9187 H   0  0  0  0  0  0  0  0  0  0  0  0
    5.6102    4.9789   21.7584 H   0  0  0  0  0  0  0  0  0  0  0  0
    5.8372    3.5394   20.7413 H   0  0  0  0  0  0  0  0  0  0  0  0
    6.8886    4.9799   20.5282 H   0  0  0  0  0  0  0  0  0  0  0  0
  1  2  1  0
  2  3  1  0
  3  4  2  0
  3  5  1  0
  5  6  1  0
  6  7  1  0
  8  7  1  1
  8  9  1  0
  9 10  2  0
  9 11  1  0
 11 12  1  0
 12 13  2  0
 13 14  1  0
 14 15  2  0
 15 16  1  0
 16 17  2  0
 17 18  1  0
 18 19  2  0
 19 20  1  0
 20 21  2  0
 20 22  1  0
 19 23  1  0
 18 24  1  0
 17 25  1  0
 15 26  1  0
 13 27  1  0
 11 28  1  0
 28 29  1  0
 29 30  1  0
 30 31  1  0
 31 32  1  0
 32 33  2  0
 33 34  1  0
 34 35  2  0
 35 36  1  0
 36 37  2  0
 36 38  1  0
 34 39  1  0
 31 40  1  0
 30 41  1  0
 30 42  1  0
 29 43  1  6
 28 44  1  0
 28 45  1  0
  8 46  1  0
 46 47  2  0
 47 48  1  0
 48 49  1  0
 48 50  2  0
 50 51  1  0
 51 52  2  0
 52 53  1  0
 53 54  2  0
 51 55  1  0
 50 56  1  0
 47 57  1  0
  7 58  1  0
  7 59  1  0
  5 60  1  0
  5 61  1  0
  2 62  1  0
  1 63  1  0
  1 64  1  0
  1 65  1  0
 53  6  1  0
 29  8  1  0
 37 32  1  0
 52 46  1  0
 21 12  1  0
 21 16  1  0
M  END
>  <cnnaffinities>  (86) 
[6.25199]

>  <score>  (86) 
6.25199

>  <index>  (86) 
86

>  <Smiles>  (86) 
C(N(C(=O)C(N1C([C@@]2(C(=O)N(c3c(nc(c4c(c(c(c(c34)[H])[H])[H])[H])[H])[H])C([C@@]2(C(N(c2nc(nc(n2)[H])[H])[H])([H])[H])[H])([H])[H])c2c(c(Cl)c(c(c2C1=O)[H])[H])[H])([H])[H])([H])[H])[H])([H])([H])[H]

>  <h>  (86) 
<NA>

>  <Training>  (86) 
True

>  <Success>  (86) 
True

>  <enamine_searched>  (86) 
False

>  <enamine_id>  (86) 
nan

$$$$

     RDKit          3D

 63 68  0  0  0  0  0  0  0  0999 V2000
    6.0437    3.0842   27.4786 C   0  0  0  0  0  0  0  0  0  0  0  0
    5.9531    1.8199   26.7766 N   0  0  0  0  0  0  0  0  0  0  0  0
    6.6212    0.7316   27.2537 C   0  0  0  0  0  0  0  0  0  0  0  0
    7.1616    0.7315   28.3482 O   0  0  0  0  0  0  0  0  0  0  0  0
    6.6560   -0.4944   26.3322 C   0  0  0  0  0  0  0  0  0  0  0  0
    7.5960   -0.4002   25.2210 N   0  0  0  0  0  0  0  0  0  0  0  0
    7.1668    0.0669   23.9041 C   0  0  0  0  0  0  0  0  0  0  0  0
    8.0475   -0.4521   22.7133 C   0  0  2  0  0  0  0  0  0  0  0  0
    7.6469    0.3311   21.4520 C   0  0  0  0  0  0  0  0  0  0  0  0
    7.9182    1.4815   21.1753 O   0  0  0  0  0  0  0  0  0  0  0  0
    6.8481   -0.4793   20.6614 N   0  0  0  0  0  0  0  0  0  0  0  0
    6.0670    0.0682   19.6102 C   0  0  0  0  0  0  0  0  0  0  0  0
    6.3484   -0.2455   18.3056 C   0  0  0  0  0  0  0  0  0  0  0  0
    5.6728    0.2420   17.2344 N   0  0  0  0  0  0  0  0  0  0  0  0
    4.6773    1.0625   17.4708 C   0  0  0  0  0  0  0  0  0  0  0  0
    4.2517    1.4404   18.7752 C   0  0  0  0  0  0  0  0  0  0  0  0
    3.1433    2.3019   18.9841 C   0  0  0  0  0  0  0  0  0  0  0  0
    2.7413    2.6227   20.2515 C   0  0  0  0  0  0  0  0  0  0  0  0
    3.4285    2.1015   21.3693 C   0  0  0  0  0  0  0  0  0  0  0  0
    4.5067    1.2737   21.1909 C   0  0  0  0  0  0  0  0  0  0  0  0
    4.9543    0.9275   19.8852 C   0  0  0  0  0  0  0  0  0  0  0  0
    5.0315    0.8771   22.0534 H   0  0  0  0  0  0  0  0  0  0  0  0
    3.1074    2.3691   22.3699 H   0  0  0  0  0  0  0  0  0  0  0  0
    1.8982    3.2867   20.4075 H   0  0  0  0  0  0  0  0  0  0  0  0
    2.6375    2.7108   18.1147 H   0  0  0  0  0  0  0  0  0  0  0  0
    4.1509    1.4685   16.6064 H   0  0  0  0  0  0  0  0  0  0  0  0
    7.1763   -0.9137   18.0756 H   0  0  0  0  0  0  0  0  0  0  0  0
    6.6030   -1.7955   21.2330 C   0  0  0  0  0  0  0  0  0  0  0  0
    7.7584   -1.9133   22.2288 C   0  0  2  0  0  0  0  0  0  0  0  0
    7.6445   -3.0382   23.2699 C   0  0  0  0  0  0  0  0  0  0  0  0
    6.2963   -3.4620   23.6039 N   0  0  0  0  0  0  0  0  0  0  0  0
    5.5815   -4.4331   22.9939 C   0  0  0  0  0  0  0  0  0  0  0  0
    4.3335   -4.4380   23.5766 C   0  0  0  0  0  0  0  0  0  0  0  0
    4.3967   -3.4038   24.5393 C   0  0  0  0  0  0  0  0  0  0  0  0
    5.5842   -2.8146   24.5396 N   0  0  0  0  0  0  0  0  0  0  0  0
    3.6219   -3.0756   25.2226 H   0  0  0  0  0  0  0  0  0  0  0  0
    3.4950   -5.0833   23.3474 H   0  0  0  0  0  0  0  0  0  0  0  0
    6.0279   -5.0231   22.2014 H   0  0  0  0  0  0  0  0  0  0  0  0
    8.1380   -2.7679   24.2009 H   0  0  0  0  0  0  0  0  0  0  0  0
    8.1554   -3.9247   22.8822 H   0  0  0  0  0  0  0  0  0  0  0  0
    8.6580   -2.1366   21.6420 H   0  0  0  0  0  0  0  0  0  0  0  0
    5.6204   -1.8443   21.7243 H   0  0  0  0  0  0  0  0  0  0  0  0
    6.6415   -2.5659   20.4564 H   0  0  0  0  0  0  0  0  0  0  0  0
    9.5050   -0.2873   23.0839 C   0  0  0  0  0  0  0  0  0  0  0  0
   10.5367   -0.1097   22.1469 C   0  0  0  0  0  0  0  0  0  0  0  0
   11.8240    0.1551   22.6071 C   0  0  0  0  0  0  0  0  0  0  0  0
   13.1648    0.3171   21.5231 Cl  0  0  0  0  0  0  0  0  0  0  0  0
   12.1217    0.2806   23.9600 C   0  0  0  0  0  0  0  0  0  0  0  0
   11.1183   -0.0118   24.8603 C   0  0  0  0  0  0  0  0  0  0  0  0
    9.8565   -0.3800   24.4242 C   0  0  0  0  0  0  0  0  0  0  0  0
    8.8697   -0.8295   25.4481 C   0  0  0  0  0  0  0  0  0  0  0  0
    9.1629   -1.5094   26.4200 O   0  0  0  0  0  0  0  0  0  0  0  0
   11.2193    0.0057   25.9261 H   0  0  0  0  0  0  0  0  0  0  0  0
   13.1228    0.5774   24.2631 H   0  0  0  0  0  0  0  0  0  0  0  0
   10.3355   -0.1558   21.0825 H   0  0  0  0  0  0  0  0  0  0  0  0
    6.1337   -0.2728   23.7614 H   0  0  0  0  0  0  0  0  0  0  0  0
    7.1886    1.1668   23.8782 H   0  0  0  0  0  0  0  0  0  0  0  0
    6.9898   -1.3409   26.9422 H   0  0  0  0  0  0  0  0  0  0  0  0
    5.6745   -0.6917   25.8975 H   0  0  0  0  0  0  0  0  0  0  0  0
    5.5842    1.8217   25.8369 H   0  0  0  0  0  0  0  0  0  0  0  0
    5.3702    3.7998   27.0068 H   0  0  0  0  0  0  0  0  0  0  0  0
    7.0629    3.4839   27.4631 H   0  0  0  0  0  0  0  0  0  0  0  0
    5.7489    2.9625   28.5218 H   0  0  0  0  0  0  0  0  0  0  0  0
  1  2  1  0
  2  3  1  0
  3  4  2  0
  3  5  1  0
  5  6  1  0
  6  7  1  0
  8  7  1  1
  8  9  1  0
  9 10  2  0
  9 11  1  0
 11 12  1  0
 12 13  2  0
 13 14  1  0
 14 15  2  0
 15 16  1  0
 16 17  2  0
 17 18  1  0
 18 19  2  0
 19 20  1  0
 20 21  2  0
 20 22  1  0
 19 23  1  0
 18 24  1  0
 17 25  1  0
 15 26  1  0
 13 27  1  0
 11 28  1  0
 28 29  1  0
 29 30  1  0
 30 31  1  0
 31 32  1  0
 32 33  2  0
 33 34  1  0
 34 35  2  0
 34 36  1  0
 33 37  1  0
 32 38  1  0
 30 39  1  0
 30 40  1  0
 29 41  1  6
 28 42  1  0
 28 43  1  0
  8 44  1  0
 44 45  2  0
 45 46  1  0
 46 47  1  0
 46 48  2  0
 48 49  1  0
 49 50  2  0
 50 51  1  0
 51 52  2  0
 49 53  1  0
 48 54  1  0
 45 55  1  0
  7 56  1  0
  7 57  1  0
  5 58  1  0
  5 59  1  0
  2 60  1  0
  1 61  1  0
  1 62  1  0
  1 63  1  0
 51  6  1  0
 29  8  1  0
 35 31  1  0
 50 44  1  0
 21 12  1  0
 21 16  1  0
M  END
>  <cnnaffinities>  (87) 
[6.37022, 6.40497]

>  <score>  (87) 
6.37022

>  <index>  (87) 
87

>  <Smiles>  (87) 
C(N(C(=O)C(N1C([C@@]2(C(=O)N(c3c(nc(c4c(c(c(c(c34)[H])[H])[H])[H])[H])[H])C([C@@]2(C(n2c(c(c(n2)[H])[H])[H])([H])[H])[H])([H])[H])c2c(c(Cl)c(c(c2C1=O)[H])[H])[H])([H])[H])([H])[H])[H])([H])([H])[H]

>  <h>  (87) 
<NA>

>  <Training>  (87) 
True

>  <Success>  (87) 
True

>  <enamine_searched>  (87) 
False

>  <enamine_id>  (87) 
nan

$$$$

     RDKit          3D

 64 68  0  0  0  0  0  0  0  0999 V2000
    2.4196   -2.9407   27.3626 C   0  0  0  0  0  0  0  0  0  0  0  0
    3.5453   -3.7553   28.0213 C   0  0  0  0  0  0  0  0  0  0  0  0
    4.5433   -4.2170   26.9545 C   0  0  0  0  0  0  0  0  0  0  0  0
    5.5928   -3.5868   26.8733 O   0  0  0  0  0  0  0  0  0  0  0  0
    4.1743   -5.1233   25.9546 N   0  0  0  0  0  0  0  0  0  0  0  0
    3.1432   -6.1376   26.1645 C   0  0  0  0  0  0  0  0  0  0  0  0
    3.5501   -7.4389   25.4525 C   0  0  0  0  0  0  0  0  0  0  0  0
    3.7220   -7.2211   23.9397 C   0  0  0  0  0  0  0  0  0  0  0  0
    4.3862   -5.8988   23.6317 C   0  0  0  0  0  0  0  0  0  0  0  0
    4.8112   -5.6561   22.3226 C   0  0  0  0  0  0  0  0  0  0  0  0
    5.4355   -4.4540   22.0140 C   0  0  0  0  0  0  0  0  0  0  0  0
    5.6348   -3.4694   22.9840 C   0  0  0  0  0  0  0  0  0  0  0  0
    6.2629   -2.2721   22.6312 N   0  0  0  0  0  0  0  0  0  0  0  0
    7.0943   -1.5438   23.5947 C   0  0  0  0  0  0  0  0  0  0  0  0
    8.5499   -1.5464   23.1833 C   0  0  0  0  0  0  0  0  0  0  0  0
    9.2628   -2.7477   23.0442 C   0  0  0  0  0  0  0  0  0  0  0  0
   10.6065   -2.7397   22.6455 C   0  0  0  0  0  0  0  0  0  0  0  0
   11.2635   -1.5247   22.4143 C   0  0  0  0  0  0  0  0  0  0  0  0
   10.5718   -0.3165   22.5679 C   0  0  0  0  0  0  0  0  0  0  0  0
   11.4465    1.3556   22.2295 Br  0  0  0  0  0  0  0  0  0  0  0  0
    9.2229   -0.3363   22.9463 C   0  0  0  0  0  0  0  0  0  0  0  0
    8.6998    0.6091   23.0410 H   0  0  0  0  0  0  0  0  0  0  0  0
   12.3090   -1.5167   22.1106 H   0  0  0  0  0  0  0  0  0  0  0  0
   11.1385   -3.6750   22.5011 H   0  0  0  0  0  0  0  0  0  0  0  0
    8.7663   -3.6943   23.2317 H   0  0  0  0  0  0  0  0  0  0  0  0
    6.7386   -0.5130   23.6918 H   0  0  0  0  0  0  0  0  0  0  0  0
    7.0125   -2.0005   24.5854 H   0  0  0  0  0  0  0  0  0  0  0  0
    6.1279   -1.8016   21.3275 C   0  0  0  0  0  0  0  0  0  0  0  0
    5.3859   -2.3739   20.5308 O   0  0  0  0  0  0  0  0  0  0  0  0
    6.8620   -0.5364   20.8721 C   0  0  0  0  0  0  0  0  0  0  0  0
    6.1441    0.0989   19.6925 C   0  0  0  0  0  0  0  0  0  0  0  0
    6.5099   -0.2086   18.3701 C   0  0  0  0  0  0  0  0  0  0  0  0
    5.8631    0.2741   17.2941 N   0  0  0  0  0  0  0  0  0  0  0  0
    4.8133    1.0884   17.5121 C   0  0  0  0  0  0  0  0  0  0  0  0
    4.3496    1.4259   18.7928 C   0  0  0  0  0  0  0  0  0  0  0  0
    3.2375    2.2638   18.9830 C   0  0  0  0  0  0  0  0  0  0  0  0
    2.8131    2.5853   20.2781 C   0  0  0  0  0  0  0  0  0  0  0  0
    3.4796    2.0628   21.3892 C   0  0  0  0  0  0  0  0  0  0  0  0
    4.5743    1.2169   21.2007 C   0  0  0  0  0  0  0  0  0  0  0  0
    5.0273    0.9120   19.9086 C   0  0  0  0  0  0  0  0  0  0  0  0
    5.0843    0.8044   22.0644 H   0  0  0  0  0  0  0  0  0  0  0  0
    3.1578    2.3218   22.3944 H   0  0  0  0  0  0  0  0  0  0  0  0
    1.9682    3.2498   20.4234 H   0  0  0  0  0  0  0  0  0  0  0  0
    2.7109    2.6816   18.1292 H   0  0  0  0  0  0  0  0  0  0  0  0
    4.3030    1.4987   16.6473 H   0  0  0  0  0  0  0  0  0  0  0  0
    7.3414   -0.8924   18.2230 H   0  0  0  0  0  0  0  0  0  0  0  0
    6.8823    0.1675   21.7081 H   0  0  0  0  0  0  0  0  0  0  0  0
    7.8994   -0.7772   20.6175 H   0  0  0  0  0  0  0  0  0  0  0  0
    5.1916   -3.7087   24.2776 C   0  0  0  0  0  0  0  0  0  0  0  0
    4.5902   -4.9174   24.6300 C   0  0  0  0  0  0  0  0  0  0  0  0
    5.3003   -2.9377   25.0243 H   0  0  0  0  0  0  0  0  0  0  0  0
    5.7922   -4.2887   21.0072 H   0  0  0  0  0  0  0  0  0  0  0  0
    4.6745   -6.4123   21.5527 H   0  0  0  0  0  0  0  0  0  0  0  0
    4.2869   -8.0516   23.5002 H   0  0  0  0  0  0  0  0  0  0  0  0
    2.7388   -7.2354   23.4670 H   0  0  0  0  0  0  0  0  0  0  0  0
    4.4883   -7.7995   25.8854 H   0  0  0  0  0  0  0  0  0  0  0  0
    2.7827   -8.2017   25.6231 H   0  0  0  0  0  0  0  0  0  0  0  0
    3.0046   -6.3475   27.2300 H   0  0  0  0  0  0  0  0  0  0  0  0
    2.1928   -5.7705   25.7651 H   0  0  0  0  0  0  0  0  0  0  0  0
    3.1470   -4.6145   28.5666 H   0  0  0  0  0  0  0  0  0  0  0  0
    4.0596   -3.1228   28.7514 H   0  0  0  0  0  0  0  0  0  0  0  0
    1.9372   -3.5296   26.5713 H   0  0  0  0  0  0  0  0  0  0  0  0
    1.6684   -2.6578   28.1119 H   0  0  0  0  0  0  0  0  0  0  0  0
    2.8300   -2.0276   26.9075 H   0  0  0  0  0  0  0  0  0  0  0  0
  1  2  1  0
  2  3  1  0
  3  4  2  0
  3  5  1  0
  5  6  1  0
  6  7  1  0
  7  8  1  0
  8  9  1  0
  9 10  2  0
 10 11  1  0
 11 12  2  0
 12 13  1  0
 13 14  1  0
 14 15  1  0
 15 16  2  0
 16 17  1  0
 17 18  2  0
 18 19  1  0
 19 20  1  0
 19 21  2  0
 21 22  1  0
 18 23  1  0
 17 24  1  0
 16 25  1  0
 14 26  1  0
 14 27  1  0
 13 28  1  0
 28 29  2  0
 28 30  1  0
 30 31  1  0
 31 32  2  0
 32 33  1  0
 33 34  2  0
 34 35  1  0
 35 36  2  0
 36 37  1  0
 37 38  2  0
 38 39  1  0
 39 40  2  0
 39 41  1  0
 38 42  1  0
 37 43  1  0
 36 44  1  0
 34 45  1  0
 32 46  1  0
 30 47  1  0
 30 48  1  0
 12 49  1  0
 49 50  2  0
 49 51  1  0
 11 52  1  0
 10 53  1  0
  8 54  1  0
  8 55  1  0
  7 56  1  0
  7 57  1  0
  6 58  1  0
  6 59  1  0
  2 60  1  0
  2 61  1  0
  1 62  1  0
  1 63  1  0
  1 64  1  0
 50  5  1  0
 50  9  1  0
 21 15  1  0
 40 31  1  0
 40 35  1  0
M  END
>  <cnnaffinities>  (88) 
[6.46568]

>  <score>  (88) 
6.46568

>  <index>  (88) 
88

>  <Smiles>  (88) 
C(C(C(=O)N1C(C(C(c2c(c(c(N(C(c3c(c(c(c(Br)c3[H])[H])[H])[H])([H])[H])C(=O)C(c3c(nc(c4c(c(c(c(c34)[H])[H])[H])[H])[H])[H])([H])[H])c(c12)[H])[H])[H])([H])[H])([H])[H])([H])[H])([H])[H])([H])([H])[H]

>  <h>  (88) 
<NA>

>  <Training>  (88) 
True

>  <Success>  (88) 
True

>  <enamine_searched>  (88) 
False

>  <enamine_id>  (88) 
nan

$$$$

     RDKit          3D

 38 40  0  0  0  0  0  0  0  0999 V2000
    8.0546    1.6757   20.9660 O   0  0  0  0  0  0  0  0  0  0  0  0
    7.8876    0.6105   21.5296 C   0  0  0  0  0  0  0  0  0  0  0  0
    6.9519   -0.4561   20.9115 C   0  0  0  0  0  0  0  0  0  0  0  0
    6.1174    0.0872   19.7715 C   0  0  0  0  0  0  0  0  0  0  0  0
    6.4280   -0.2081   18.4699 C   0  0  0  0  0  0  0  0  0  0  0  0
    5.7617    0.2396   17.3703 N   0  0  0  0  0  0  0  0  0  0  0  0
    4.7365    1.0291   17.5776 C   0  0  0  0  0  0  0  0  0  0  0  0
    4.2907    1.4241   18.8672 C   0  0  0  0  0  0  0  0  0  0  0  0
    3.1722    2.2800   19.0436 C   0  0  0  0  0  0  0  0  0  0  0  0
    2.7671    2.6471   20.2984 C   0  0  0  0  0  0  0  0  0  0  0  0
    3.4669    2.1723   21.4304 C   0  0  0  0  0  0  0  0  0  0  0  0
    4.5536    1.3436   21.2868 C   0  0  0  0  0  0  0  0  0  0  0  0
    4.9982    0.9451   19.9986 C   0  0  0  0  0  0  0  0  0  0  0  0
    5.0852    0.9942   22.1667 H   0  0  0  0  0  0  0  0  0  0  0  0
    3.1420    2.4730   22.4223 H   0  0  0  0  0  0  0  0  0  0  0  0
    1.9134    3.3086   20.4341 H   0  0  0  0  0  0  0  0  0  0  0  0
    2.6492    2.6472   18.1626 H   0  0  0  0  0  0  0  0  0  0  0  0
    4.2008    1.3979   16.6994 H   0  0  0  0  0  0  0  0  0  0  0  0
    7.2742   -0.8561   18.2444 H   0  0  0  0  0  0  0  0  0  0  0  0
    6.3002   -0.8843   21.6862 H   0  0  0  0  0  0  0  0  0  0  0  0
    7.5691   -1.2881   20.5382 H   0  0  0  0  0  0  0  0  0  0  0  0
    8.4968    0.3268   22.7425 N   0  0  0  0  0  0  0  0  0  0  0  0
    8.8167   -1.0452   23.1440 C   0  0  0  0  0  0  0  0  0  0  0  0
    9.9946   -1.6536   22.4086 C   0  0  0  0  0  0  0  0  0  0  0  0
   11.2174   -1.1281   22.4428 C   0  0  0  0  0  0  0  0  0  0  0  0
   11.5862    0.1016   23.2428 C   0  0  0  0  0  0  0  0  0  0  0  0
   10.8024    1.3665   22.8559 C   0  0  0  0  0  0  0  0  0  0  0  0
    9.3458    1.3717   23.3245 C   0  0  0  0  0  0  0  0  0  0  0  0
    9.3365    1.2336   24.4100 H   0  0  0  0  0  0  0  0  0  0  0  0
    8.8849    2.3387   23.1156 H   0  0  0  0  0  0  0  0  0  0  0  0
   10.8167    1.4880   21.7710 H   0  0  0  0  0  0  0  0  0  0  0  0
   11.3142    2.2483   23.2713 H   0  0  0  0  0  0  0  0  0  0  0  0
   12.6585    0.2942   23.1279 H   0  0  0  0  0  0  0  0  0  0  0  0
   11.4270   -0.0901   24.3141 H   0  0  0  0  0  0  0  0  0  0  0  0
   11.9987   -1.5795   21.8294 H   0  0  0  0  0  0  0  0  0  0  0  0
    9.8146   -2.5474   21.8074 H   0  0  0  0  0  0  0  0  0  0  0  0
    9.0351   -1.0189   24.2171 H   0  0  0  0  0  0  0  0  0  0  0  0
    7.9276   -1.6685   23.0334 H   0  0  0  0  0  0  0  0  0  0  0  0
  1  2  2  0
  2  3  1  0
  3  4  1  0
  4  5  2  0
  5  6  1  0
  6  7  2  0
  7  8  1  0
  8  9  2  0
  9 10  1  0
 10 11  2  0
 11 12  1  0
 12 13  2  0
 12 14  1  0
 11 15  1  0
 10 16  1  0
  9 17  1  0
  7 18  1  0
  5 19  1  0
  3 20  1  0
  3 21  1  0
  2 22  1  0
 22 23  1  0
 23 24  1  0
 24 25  2  0
 25 26  1  0
 26 27  1  0
 27 28  1  0
 28 29  1  0
 28 30  1  0
 27 31  1  0
 27 32  1  0
 26 33  1  0
 26 34  1  0
 25 35  1  0
 24 36  1  0
 23 37  1  0
 23 38  1  0
 13  4  1  0
 28 22  1  0
 13  8  1  0
M  END
>  <cnnaffinities>  (89) 
[5.48153, 5.38295]

>  <score>  (89) 
5.48153

>  <index>  (89) 
89

>  <Smiles>  (89) 
O=C(C(c1c(nc(c2c(c(c(c(c12)[H])[H])[H])[H])[H])[H])([H])[H])N1C(C(=C(C(C(C1([H])[H])([H])[H])([H])[H])[H])[H])([H])[H]

>  <h>  (89) 
<NA>

>  <Training>  (89) 
True

>  <Success>  (89) 
True

>  <enamine_searched>  (89) 
False

>  <enamine_id>  (89) 
nan

$$$$

     RDKit          3D

 62 67  0  0  0  0  0  0  0  0999 V2000
    7.8088   -2.9165   23.2980 C   0  0  0  0  0  0  0  0  0  0  0  0
    8.1142   -1.8504   22.2469 C   0  0  1  0  0  0  0  0  0  0  0  0
    6.9430   -1.6766   21.2718 C   0  0  0  0  0  0  0  0  0  0  0  0
    7.0919   -0.3163   20.7962 N   0  0  0  0  0  0  0  0  0  0  0  0
    6.2708    0.1906   19.7536 C   0  0  0  0  0  0  0  0  0  0  0  0
    6.5285   -0.1966   18.4624 C   0  0  0  0  0  0  0  0  0  0  0  0
    5.8282    0.2081   17.3739 N   0  0  0  0  0  0  0  0  0  0  0  0
    4.8113    1.0083   17.5839 C   0  0  0  0  0  0  0  0  0  0  0  0
    4.3825    1.4337   18.8722 C   0  0  0  0  0  0  0  0  0  0  0  0
    3.2413    2.2635   19.0265 C   0  0  0  0  0  0  0  0  0  0  0  0
    2.7933    2.5967   20.2737 C   0  0  0  0  0  0  0  0  0  0  0  0
    3.4708    2.1206   21.4184 C   0  0  0  0  0  0  0  0  0  0  0  0
    4.5985    1.3448   21.2940 C   0  0  0  0  0  0  0  0  0  0  0  0
    5.1013    0.9909   20.0086 C   0  0  0  0  0  0  0  0  0  0  0  0
    5.1064    0.9971   22.1887 H   0  0  0  0  0  0  0  0  0  0  0  0
    3.0950    2.3769   22.4044 H   0  0  0  0  0  0  0  0  0  0  0  0
    1.9130    3.2223   20.3910 H   0  0  0  0  0  0  0  0  0  0  0  0
    2.7377    2.6206   18.1307 H   0  0  0  0  0  0  0  0  0  0  0  0
    4.2562    1.3446   16.7084 H   0  0  0  0  0  0  0  0  0  0  0  0
    7.3619   -0.8713   18.2691 H   0  0  0  0  0  0  0  0  0  0  0  0
    7.9819    0.4433   21.5380 C   0  0  0  0  0  0  0  0  0  0  0  0
    8.2996    1.5804   21.2540 O   0  0  0  0  0  0  0  0  0  0  0  0
    8.3901   -0.3952   22.7745 C   0  0  1  0  0  0  0  0  0  0  0  0
    7.3798    0.0078   23.8890 C   0  0  0  0  0  0  0  0  0  0  0  0
    7.7822   -0.6657   25.1790 N   0  0  0  0  0  0  0  0  0  0  0  0
    6.8057   -0.8107   26.3221 C   0  0  0  0  0  0  0  0  0  0  0  0
    6.8276   -2.2721   26.6855 C   0  0  0  0  0  0  0  0  0  0  0  0
    6.0710   -2.5237   27.9432 N   0  0  0  0  0  4  0  0  0  0  0  0
    5.9607   -3.9762   28.3773 C   0  0  0  0  0  0  0  0  0  0  0  0
    6.9514   -3.7570   29.5498 C   0  0  0  0  0  0  0  0  0  0  0  0
    6.8674   -2.2438   29.2505 C   0  0  0  0  0  0  0  0  0  0  0  0
    7.8031   -1.7383   29.0280 H   0  0  0  0  0  0  0  0  0  0  0  0
    6.2465   -1.6584   29.9207 H   0  0  0  0  0  0  0  0  0  0  0  0
    7.9521   -4.1428   29.3355 H   0  0  0  0  0  0  0  0  0  0  0  0
    6.6259   -4.0646   30.5402 H   0  0  0  0  0  0  0  0  0  0  0  0
    6.2833   -4.6503   27.5866 H   0  0  0  0  0  0  0  0  0  0  0  0
    4.9345   -4.1964   28.6623 H   0  0  0  0  0  0  0  0  0  0  0  0
    5.1561   -2.0487   27.8912 H   0  0  0  0  0  0  0  0  0  0  0  0
    6.3895   -2.8954   25.9053 H   0  0  0  0  0  0  0  0  0  0  0  0
    7.8778   -2.5593   26.8053 H   0  0  0  0  0  0  0  0  0  0  0  0
    5.8307   -0.4576   25.9706 H   0  0  0  0  0  0  0  0  0  0  0  0
    7.1579   -0.1750   27.1418 H   0  0  0  0  0  0  0  0  0  0  0  0
    9.2701   -0.6263   25.4376 C   0  0  0  0  0  0  0  0  0  0  0  0
    9.3934   -0.6069   25.4328 O   0  0  0  0  0  0  0  0  0  0  0  0
   10.3308   -0.1481   24.5377 C   0  0  0  0  0  0  0  0  0  0  0  0
   11.6396    0.4093   24.7570 C   0  0  0  0  0  0  0  0  0  0  0  0
   12.4995    0.6121   23.7137 C   0  0  0  0  0  0  0  0  0  0  0  0
   12.1090    0.2367   22.4386 C   0  0  0  0  0  0  0  0  0  0  0  0
   13.3901    0.1682   21.3055 Cl  0  0  0  0  0  0  0  0  0  0  0  0
   10.8060   -0.1243   22.1673 C   0  0  0  0  0  0  0  0  0  0  0  0
    9.8660   -0.2019   23.2069 C   0  0  0  0  0  0  0  0  0  0  0  0
   10.5187   -0.3542   21.1437 H   0  0  0  0  0  0  0  0  0  0  0  0
   13.4938    1.0137   23.8836 H   0  0  0  0  0  0  0  0  0  0  0  0
   12.0755    0.6765   25.7125 H   0  0  0  0  0  0  0  0  0  0  0  0
    6.3689   -0.3202   23.6364 H   0  0  0  0  0  0  0  0  0  0  0  0
    7.3949    1.0966   24.0178 H   0  0  0  0  0  0  0  0  0  0  0  0
    5.9842   -1.8201   21.7973 H   0  0  0  0  0  0  0  0  0  0  0  0
    6.9565   -2.3825   20.4376 H   0  0  0  0  0  0  0  0  0  0  0  0
    9.0121   -2.1394   21.6757 H   0  0  0  0  0  0  0  0  0  0  0  0
    6.7711   -2.8171   23.6381 H   0  0  0  0  0  0  0  0  0  0  0  0
    8.4494   -2.8169   24.1791 H   0  0  0  0  0  0  0  0  0  0  0  0
    7.9290   -3.9193   22.8783 H   0  0  0  0  0  0  0  0  0  0  0  0
  1  2  1  0
  2  3  1  0
  3  4  1  0
  4  5  1  0
  5  6  2  0
  6  7  1  0
  7  8  2  0
  8  9  1  0
  9 10  2  0
 10 11  1  0
 11 12  2  0
 12 13  1  0
 13 14  2  0
 13 15  1  0
 12 16  1  0
 11 17  1  0
 10 18  1  0
  8 19  1  0
  6 20  1  0
  4 21  1  0
 21 22  2  0
 21 23  1  0
 23 24  1  1
 24 25  1  0
 25 26  1  0
 26 27  1  0
 27 28  1  0
 28 29  1  0
 29 30  1  0
 30 31  1  0
 31 32  1  0
 31 33  1  0
 30 34  1  0
 30 35  1  0
 29 36  1  0
 29 37  1  0
 28 38  1  0
 27 39  1  0
 27 40  1  0
 26 41  1  0
 26 42  1  0
 25 43  1  0
 43 44  2  0
 43 45  1  0
 45 46  2  0
 46 47  1  0
 47 48  2  0
 48 49  1  0
 48 50  1  0
 50 51  2  0
 50 52  1  0
 47 53  1  0
 46 54  1  0
 24 55  1  0
 24 56  1  0
  3 57  1  0
  3 58  1  0
  2 59  1  6
  1 60  1  0
  1 61  1  0
  1 62  1  0
 23  2  1  0
 31 28  1  0
 51 45  1  0
 14  5  1  0
 51 23  1  0
 14  9  1  0
M  CHG  1  28   1
M  END
>  <cnnaffinities>  (90) 
[5.98292]

>  <score>  (90) 
5.98292

>  <index>  (90) 
90

>  <Smiles>  (90) 
C([C@]1(C(N(c2c(nc(c3c(c(c(c(c23)[H])[H])[H])[H])[H])[H])C(=O)[C@]21C(N(C(C([N+]1(C(C(C1([H])[H])([H])[H])([H])[H])[H])([H])[H])([H])[H])C(=O)c1c(c(c(Cl)c(c21)[H])[H])[H])([H])[H])([H])[H])[H])([H])([H])[H]

>  <h>  (90) 
<NA>

>  <Training>  (90) 
True

>  <Success>  (90) 
True

>  <enamine_searched>  (90) 
False

>  <enamine_id>  (90) 
nan

$$$$

     RDKit          3D

 56 61  0  0  0  0  0  0  0  0999 V2000
    7.7766   -2.9175   23.3528 C   0  0  0  0  0  0  0  0  0  0  0  0
    8.0665   -1.8819   22.2650 C   0  0  1  0  0  0  0  0  0  0  0  0
    6.8987   -1.7334   21.2780 C   0  0  0  0  0  0  0  0  0  0  0  0
    7.0019   -0.3627   20.8228 N   0  0  0  0  0  0  0  0  0  0  0  0
    6.1936    0.1448   19.7755 C   0  0  0  0  0  0  0  0  0  0  0  0
    6.4721   -0.2290   18.4861 C   0  0  0  0  0  0  0  0  0  0  0  0
    5.7911    0.1946   17.3949 N   0  0  0  0  0  0  0  0  0  0  0  0
    4.7802    1.0046   17.5974 C   0  0  0  0  0  0  0  0  0  0  0  0
    4.3399    1.4200   18.8868 C   0  0  0  0  0  0  0  0  0  0  0  0
    3.2065    2.2631   19.0408 C   0  0  0  0  0  0  0  0  0  0  0  0
    2.7584    2.6017   20.2875 C   0  0  0  0  0  0  0  0  0  0  0  0
    3.4262    2.1144   21.4353 C   0  0  0  0  0  0  0  0  0  0  0  0
    4.5399    1.3202   21.3117 C   0  0  0  0  0  0  0  0  0  0  0  0
    5.0419    0.9643   20.0254 C   0  0  0  0  0  0  0  0  0  0  0  0
    5.0418    0.9591   22.2034 H   0  0  0  0  0  0  0  0  0  0  0  0
    3.0561    2.3834   22.4202 H   0  0  0  0  0  0  0  0  0  0  0  0
    1.8915    3.2485   20.4023 H   0  0  0  0  0  0  0  0  0  0  0  0
    2.7144    2.6303   18.1424 H   0  0  0  0  0  0  0  0  0  0  0  0
    4.2403    1.3629   16.7182 H   0  0  0  0  0  0  0  0  0  0  0  0
    7.3057   -0.9013   18.2902 H   0  0  0  0  0  0  0  0  0  0  0  0
    7.8106    0.4337   21.6052 C   0  0  0  0  0  0  0  0  0  0  0  0
    8.0160    1.6088   21.3752 O   0  0  0  0  0  0  0  0  0  0  0  0
    8.3292   -0.4171   22.7932 C   0  0  1  0  0  0  0  0  0  0  0  0
    7.3731   -0.0608   23.9781 C   0  0  0  0  0  0  0  0  0  0  0  0
    7.8771   -0.7590   25.2642 N   0  0  0  0  0  0  0  0  0  0  0  0
    6.9956   -0.9763   26.5275 C   0  0  0  0  0  0  0  0  0  0  0  0
    6.7763   -2.4379   26.7679 C   0  0  0  0  0  0  0  0  0  0  0  0
    5.6425   -3.2640   26.6033 C   0  0  0  0  0  0  0  0  0  0  0  0
    5.9242   -4.5463   26.8230 N   0  0  0  0  0  0  0  0  0  0  0  0
    7.2272   -4.5483   27.1450 N   0  0  0  0  0  0  0  0  0  0  0  0
    7.7756   -3.3095   27.1322 C   0  0  0  0  0  0  0  0  0  0  0  0
    8.8166   -3.1107   27.3455 H   0  0  0  0  0  0  0  0  0  0  0  0
    7.6797   -5.4311   27.3369 H   0  0  0  0  0  0  0  0  0  0  0  0
    4.6430   -2.9713   26.2940 H   0  0  0  0  0  0  0  0  0  0  0  0
    6.0796   -0.4104   26.3682 H   0  0  0  0  0  0  0  0  0  0  0  0
    7.5555   -0.5249   27.3519 H   0  0  0  0  0  0  0  0  0  0  0  0
    9.3693   -0.6770   25.3807 C   0  0  0  0  0  0  0  0  0  0  0  0
    9.4916   -0.6572   25.3677 O   0  0  0  0  0  0  0  0  0  0  0  0
   10.3797   -0.1895   24.4284 C   0  0  0  0  0  0  0  0  0  0  0  0
   11.7168    0.3255   24.5985 C   0  0  0  0  0  0  0  0  0  0  0  0
   12.5431    0.4861   23.5175 C   0  0  0  0  0  0  0  0  0  0  0  0
   12.0504    0.2340   22.2469 C   0  0  0  0  0  0  0  0  0  0  0  0
   12.9334    0.2965   21.2485 F   0  0  0  0  0  0  0  0  0  0  0  0
   10.7092   -0.0278   22.0257 C   0  0  0  0  0  0  0  0  0  0  0  0
    9.8376   -0.1864   23.1240 C   0  0  0  0  0  0  0  0  0  0  0  0
   10.3187   -0.0713   21.0077 H   0  0  0  0  0  0  0  0  0  0  0  0
   13.5679    0.7865   23.6816 H   0  0  0  0  0  0  0  0  0  0  0  0
   12.1536    0.6098   25.5593 H   0  0  0  0  0  0  0  0  0  0  0  0
    7.3816    1.0193   24.1560 H   0  0  0  0  0  0  0  0  0  0  0  0
    6.3554   -0.4145   23.7948 H   0  0  0  0  0  0  0  0  0  0  0  0
    5.9387   -1.9178   21.7845 H   0  0  0  0  0  0  0  0  0  0  0  0
    6.9520   -2.4147   20.4288 H   0  0  0  0  0  0  0  0  0  0  0  0
    8.9678   -2.1640   21.6992 H   0  0  0  0  0  0  0  0  0  0  0  0
    7.8351   -3.9364   22.9644 H   0  0  0  0  0  0  0  0  0  0  0  0
    6.7668   -2.7595   23.7437 H   0  0  0  0  0  0  0  0  0  0  0  0
    8.4558   -2.8108   24.2063 H   0  0  0  0  0  0  0  0  0  0  0  0
  1  2  1  0
  2  3  1  0
  3  4  1  0
  4  5  1  0
  5  6  2  0
  6  7  1  0
  7  8  2  0
  8  9  1  0
  9 10  2  0
 10 11  1  0
 11 12  2  0
 12 13  1  0
 13 14  2  0
 13 15  1  0
 12 16  1  0
 11 17  1  0
 10 18  1  0
  8 19  1  0
  6 20  1  0
  4 21  1  0
 21 22  2  0
 21 23  1  0
 23 24  1  1
 24 25  1  0
 25 26  1  0
 26 27  1  0
 27 28  1  0
 28 29  2  0
 29 30  1  0
 30 31  1  0
 31 32  1  0
 30 33  1  0
 28 34  1  0
 26 35  1  0
 26 36  1  0
 25 37  1  0
 37 38  2  0
 37 39  1  0
 39 40  2  0
 40 41  1  0
 41 42  2  0
 42 43  1  0
 42 44  1  0
 44 45  2  0
 44 46  1  0
 41 47  1  0
 40 48  1  0
 24 49  1  0
 24 50  1  0
  3 51  1  0
  3 52  1  0
  2 53  1  6
  1 54  1  0
  1 55  1  0
  1 56  1  0
 23  2  1  0
 31 27  2  0
 45 39  1  0
 14  5  1  0
 45 23  1  0
 14  9  1  0
M  END
>  <cnnaffinities>  (91) 
[6.26882]

>  <score>  (91) 
6.26882

>  <index>  (91) 
91

>  <Smiles>  (91) 
C([C@]1(C(N(c2c(nc(c3c(c(c(c(c23)[H])[H])[H])[H])[H])[H])C(=O)[C@]21C(N(C(c1c(nn(c1[H])[H])[H])([H])[H])C(=O)c1c(c(c(F)c(c21)[H])[H])[H])([H])[H])([H])[H])[H])([H])([H])[H]

>  <h>  (91) 
<NA>

>  <Training>  (91) 
True

>  <Success>  (91) 
True

>  <enamine_searched>  (91) 
False

>  <enamine_id>  (91) 
nan

$$$$

     RDKit          3D

 47 50  0  0  0  0  0  0  0  0999 V2000
    8.2092    1.5831   20.8421 O   0  0  0  0  0  0  0  0  0  0  0  0
    7.8980    0.6060   21.4953 C   0  0  0  0  0  0  0  0  0  0  0  0
    6.9378   -0.4519   20.9123 C   0  0  0  0  0  0  0  0  0  0  0  0
    6.1150    0.0873   19.7689 C   0  0  0  0  0  0  0  0  0  0  0  0
    6.4287   -0.2065   18.4663 C   0  0  0  0  0  0  0  0  0  0  0  0
    5.7608    0.2405   17.3661 N   0  0  0  0  0  0  0  0  0  0  0  0
    4.7350    1.0298   17.5774 C   0  0  0  0  0  0  0  0  0  0  0  0
    4.2882    1.4239   18.8700 C   0  0  0  0  0  0  0  0  0  0  0  0
    3.1696    2.2782   19.0443 C   0  0  0  0  0  0  0  0  0  0  0  0
    2.7632    2.6434   20.2981 C   0  0  0  0  0  0  0  0  0  0  0  0
    3.4674    2.1652   21.4302 C   0  0  0  0  0  0  0  0  0  0  0  0
    4.5565    1.3383   21.2974 C   0  0  0  0  0  0  0  0  0  0  0  0
    4.9957    0.9447   20.0025 C   0  0  0  0  0  0  0  0  0  0  0  0
    5.0831    0.9933   22.1911 H   0  0  0  0  0  0  0  0  0  0  0  0
    3.1396    2.4670   22.4184 H   0  0  0  0  0  0  0  0  0  0  0  0
    1.9099    3.3031   20.4365 H   0  0  0  0  0  0  0  0  0  0  0  0
    2.6486    2.6457   18.1627 H   0  0  0  0  0  0  0  0  0  0  0  0
    4.2006    1.3978   16.6984 H   0  0  0  0  0  0  0  0  0  0  0  0
    7.2738   -0.8558   18.2443 H   0  0  0  0  0  0  0  0  0  0  0  0
    7.5594   -1.2786   20.5431 H   0  0  0  0  0  0  0  0  0  0  0  0
    6.2920   -0.8762   21.6869 H   0  0  0  0  0  0  0  0  0  0  0  0
    8.4579    0.4057   22.7578 N   0  0  0  0  0  0  0  0  0  0  0  0
    9.5514    1.2679   23.0514 C   0  0  0  0  0  0  0  0  0  0  0  0
   10.8240    0.8800   22.9839 C   0  0  0  0  0  0  0  0  0  0  0  0
   11.2456   -0.5150   22.7632 C   0  0  0  0  0  0  0  0  0  0  0  0
   10.8977   -1.5469   23.5384 C   0  0  0  0  0  0  0  0  0  0  0  0
   10.1366   -1.4029   24.7952 C   0  0  0  0  0  0  0  0  0  0  0  0
    8.9189   -0.8683   24.9010 C   0  0  0  0  0  0  0  0  0  0  0  0
    7.9627   -0.5895   23.7501 C   0  0  1  0  0  0  0  0  0  0  0  0
    6.5976   -0.1652   24.2797 C   0  0  0  0  0  0  0  0  0  0  0  0
    5.5378   -1.0690   24.3361 C   0  0  0  0  0  0  0  0  0  0  0  0
    4.2971   -0.6756   24.8277 C   0  0  0  0  0  0  0  0  0  0  0  0
    4.1106    0.6297   25.2763 C   0  0  0  0  0  0  0  0  0  0  0  0
    5.1732    1.5300   25.2446 C   0  0  0  0  0  0  0  0  0  0  0  0
    6.4091    1.1320   24.7514 C   0  0  0  0  0  0  0  0  0  0  0  0
    7.2433    1.8291   24.7334 H   0  0  0  0  0  0  0  0  0  0  0  0
    5.0410    2.5472   25.5993 H   0  0  0  0  0  0  0  0  0  0  0  0
    3.1424    0.9446   25.6496 H   0  0  0  0  0  0  0  0  0  0  0  0
    3.4789   -1.3876   24.8491 H   0  0  0  0  0  0  0  0  0  0  0  0
    5.6880   -2.0901   23.9927 H   0  0  0  0  0  0  0  0  0  0  0  0
    7.8558   -1.5373   23.2071 H   0  0  0  0  0  0  0  0  0  0  0  0
    8.4932   -0.7297   25.8930 H   0  0  0  0  0  0  0  0  0  0  0  0
   10.6663   -1.7357   25.6891 H   0  0  0  0  0  0  0  0  0  0  0  0
   11.2575   -2.5467   23.2940 H   0  0  0  0  0  0  0  0  0  0  0  0
   11.9131   -0.6883   21.9167 H   0  0  0  0  0  0  0  0  0  0  0  0
   11.6173    1.6181   23.0935 H   0  0  0  0  0  0  0  0  0  0  0  0
    9.2893    2.3052   23.2679 H   0  0  0  0  0  0  0  0  0  0  0  0
  1  2  2  0
  2  3  1  0
  3  4  1  0
  4  5  2  0
  5  6  1  0
  6  7  2  0
  7  8  1  0
  8  9  2  0
  9 10  1  0
 10 11  2  0
 11 12  1  0
 12 13  2  0
 12 14  1  0
 11 15  1  0
 10 16  1  0
  9 17  1  0
  7 18  1  0
  5 19  1  0
  3 20  1  0
  3 21  1  0
  2 22  1  0
 22 23  1  0
 23 24  2  3
 24 25  1  0
 25 26  2  3
 26 27  1  0
 27 28  2  3
 28 29  1  0
 29 30  1  0
 30 31  2  0
 31 32  1  0
 32 33  2  0
 33 34  1  0
 34 35  2  0
 35 36  1  0
 34 37  1  0
 33 38  1  0
 32 39  1  0
 31 40  1  0
 29 41  1  6
 28 42  1  0
 27 43  1  0
 26 44  1  0
 25 45  1  0
 24 46  1  0
 23 47  1  0
 13  4  1  0
 29 22  1  0
 35 30  1  0
 13  8  1  0
M  END
>  <cnnaffinities>  (92) 
[6.29012, 6.29011]

>  <score>  (92) 
6.29012

>  <index>  (92) 
92

>  <Smiles>  (92) 
O=C(C(c1c(nc(c2c(c(c(c(c12)[H])[H])[H])[H])[H])[H])([H])[H])N1C(=C(C(=C(C(=C([C@]1(c1c(c(c(c(c1[H])[H])[H])[H])[H])[H])[H])[H])[H])[H])[H])[H]

>  <h>  (92) 
<NA>

>  <Training>  (92) 
True

>  <Success>  (92) 
True

>  <enamine_searched>  (92) 
False

>  <enamine_id>  (92) 
nan

$$$$

     RDKit          3D

 58 62  0  0  0  0  0  0  0  0999 V2000
    8.2502    5.3489   24.0940 C   0  0  0  0  0  0  0  0  0  0  0  0
    7.8621    4.2275   23.2103 N   0  0  0  0  0  4  0  0  0  0  0  0
    6.7420    3.4004   23.7334 C   0  0  0  0  0  0  0  0  0  0  0  0
    7.1630    2.4332   24.8345 C   0  0  0  0  0  0  0  0  0  0  0  0
    8.1838    1.4698   24.4376 N   0  0  0  0  0  0  0  0  0  0  0  0
    7.6778    0.1552   24.0890 C   0  0  0  0  0  0  0  0  0  0  0  0
    8.2568   -0.3750   22.7701 C   0  0  2  0  0  0  0  0  0  0  0  0
    7.7252    0.4143   21.5571 C   0  0  0  0  0  0  0  0  0  0  0  0
    7.9881    1.5692   21.2600 O   0  0  0  0  0  0  0  0  0  0  0  0
    6.9175   -0.4071   20.8186 N   0  0  0  0  0  0  0  0  0  0  0  0
    6.1349    0.0995   19.7573 C   0  0  0  0  0  0  0  0  0  0  0  0
    6.4427   -0.2376   18.4664 C   0  0  0  0  0  0  0  0  0  0  0  0
    5.7707    0.2128   17.3799 N   0  0  0  0  0  0  0  0  0  0  0  0
    4.7570    1.0202   17.5895 C   0  0  0  0  0  0  0  0  0  0  0  0
    4.3172    1.4210   18.8833 C   0  0  0  0  0  0  0  0  0  0  0  0
    3.1985    2.2768   19.0569 C   0  0  0  0  0  0  0  0  0  0  0  0
    2.7780    2.6249   20.3115 C   0  0  0  0  0  0  0  0  0  0  0  0
    3.4534    2.1365   21.4514 C   0  0  0  0  0  0  0  0  0  0  0  0
    4.5397    1.3080   21.3094 C   0  0  0  0  0  0  0  0  0  0  0  0
    5.0117    0.9431   20.0133 C   0  0  0  0  0  0  0  0  0  0  0  0
    5.0404    0.9269   22.1946 H   0  0  0  0  0  0  0  0  0  0  0  0
    3.1080    2.4166   22.4428 H   0  0  0  0  0  0  0  0  0  0  0  0
    1.9195    3.2769   20.4398 H   0  0  0  0  0  0  0  0  0  0  0  0
    2.6887    2.6456   18.1719 H   0  0  0  0  0  0  0  0  0  0  0  0
    4.2099    1.3851   16.7178 H   0  0  0  0  0  0  0  0  0  0  0  0
    7.2926   -0.8889   18.2649 H   0  0  0  0  0  0  0  0  0  0  0  0
    6.6849   -1.7020   21.4189 C   0  0  0  0  0  0  0  0  0  0  0  0
    7.8075   -1.8335   22.4551 C   0  0  2  0  0  0  0  0  0  0  0  0
    7.4442   -2.7145   23.6451 C   0  0  0  0  0  0  0  0  0  0  0  0
    6.5679   -2.3299   24.1762 H   0  0  0  0  0  0  0  0  0  0  0  0
    7.2085   -3.7278   23.3082 H   0  0  0  0  0  0  0  0  0  0  0  0
    8.2720   -2.7907   24.3593 H   0  0  0  0  0  0  0  0  0  0  0  0
    8.6456   -2.3230   21.9583 H   0  0  0  0  0  0  0  0  0  0  0  0
    5.6939   -1.7635   21.8915 H   0  0  0  0  0  0  0  0  0  0  0  0
    6.7352   -2.4787   20.6549 H   0  0  0  0  0  0  0  0  0  0  0  0
    9.7413   -0.1912   22.8336 C   0  0  0  0  0  0  0  0  0  0  0  0
   10.5034   -0.8782   21.9212 C   0  0  0  0  0  0  0  0  0  0  0  0
   11.8557   -0.7179   21.9334 C   0  0  0  0  0  0  0  0  0  0  0  0
   12.4337   -1.4184   20.9648 F   0  0  0  0  0  0  0  0  0  0  0  0
   12.5448    0.0962   22.8269 C   0  0  0  0  0  0  0  0  0  0  0  0
   11.7642    0.8598   23.6827 C   0  0  0  0  0  0  0  0  0  0  0  0
   10.3689    0.7759   23.6204 C   0  0  0  0  0  0  0  0  0  0  0  0
    9.4839    1.8250   24.2094 C   0  0  0  0  0  0  0  0  0  0  0  0
    9.8987    2.9761   24.3487 O   0  0  0  0  0  0  0  0  0  0  0  0
   12.2287    1.5523   24.3750 H   0  0  0  0  0  0  0  0  0  0  0  0
   13.6235    0.1942   22.7741 H   0  0  0  0  0  0  0  0  0  0  0  0
   10.0892   -1.5003   21.1387 H   0  0  0  0  0  0  0  0  0  0  0  0
    7.9166   -0.5403   24.9030 H   0  0  0  0  0  0  0  0  0  0  0  0
    6.5904    0.2344   23.9869 H   0  0  0  0  0  0  0  0  0  0  0  0
    6.2887    1.8527   25.1347 H   0  0  0  0  0  0  0  0  0  0  0  0
    7.4334    2.9658   25.7404 H   0  0  0  0  0  0  0  0  0  0  0  0
    5.9482    4.0476   24.1216 H   0  0  0  0  0  0  0  0  0  0  0  0
    6.3307    2.8358   22.8996 H   0  0  0  0  0  0  0  0  0  0  0  0
    8.7068    3.6530   23.0891 H   0  0  0  0  0  0  0  0  0  0  0  0
    7.6304    4.5801   22.2666 H   0  0  0  0  0  0  0  0  0  0  0  0
    8.7622    4.9670   24.9762 H   0  0  0  0  0  0  0  0  0  0  0  0
    8.9309    6.0136   23.5602 H   0  0  0  0  0  0  0  0  0  0  0  0
    7.3692    5.9115   24.4070 H   0  0  0  0  0  0  0  0  0  0  0  0
  1  2  1  0
  2  3  1  0
  3  4  1  0
  4  5  1  0
  5  6  1  0
  7  6  1  1
  7  8  1  0
  8  9  2  0
  8 10  1  0
 10 11  1  0
 11 12  2  0
 12 13  1  0
 13 14  2  0
 14 15  1  0
 15 16  2  0
 16 17  1  0
 17 18  2  0
 18 19  1  0
 19 20  2  0
 19 21  1  0
 18 22  1  0
 17 23  1  0
 16 24  1  0
 14 25  1  0
 12 26  1  0
 10 27  1  0
 27 28  1  0
 28 29  1  0
 29 30  1  0
 29 31  1  0
 29 32  1  0
 28 33  1  6
 27 34  1  0
 27 35  1  0
  7 36  1  0
 36 37  2  0
 37 38  1  0
 38 39  1  0
 38 40  2  0
 40 41  1  0
 41 42  2  0
 42 43  1  0
 43 44  2  0
 41 45  1  0
 40 46  1  0
 37 47  1  0
  6 48  1  0
  6 49  1  0
  4 50  1  0
  4 51  1  0
  3 52  1  0
  3 53  1  0
  2 54  1  0
  2 55  1  0
  1 56  1  0
  1 57  1  0
  1 58  1  0
 43  5  1  0
 28  7  1  0
 42 36  1  0
 20 11  1  0
 20 15  1  0
M  CHG  1   2   1
M  END
>  <cnnaffinities>  (93) 
[6.16475]

>  <score>  (93) 
6.16475

>  <index>  (93) 
93

>  <Smiles>  (93) 
C([N+](C(C(N1C([C@@]2(C(=O)N(c3c(nc(c4c(c(c(c(c34)[H])[H])[H])[H])[H])[H])C([C@@]2(C([H])([H])[H])[H])([H])[H])c2c(c(F)c(c(c2C1=O)[H])[H])[H])([H])[H])([H])[H])([H])[H])([H])[H])([H])([H])[H]

>  <h>  (93) 
<NA>

>  <Training>  (93) 
True

>  <Success>  (93) 
True

>  <enamine_searched>  (93) 
False

>  <enamine_id>  (93) 
nan

$$$$

     RDKit          3D

 65 69  0  0  0  0  0  0  0  0999 V2000
   11.4327    7.3589   26.7802 C   0  0  0  0  0  0  0  0  0  0  0  0
   10.0273    7.3131   27.2247 C   0  0  0  0  0  0  0  0  0  0  0  0
    9.6393    5.8141   27.3762 C   0  0  0  0  0  0  0  0  0  0  0  0
    9.7020    5.9087   27.5019 O   0  0  0  0  0  0  0  0  0  0  0  0
    8.4232    5.2642   24.8734 N   0  0  2  0  0  4  0  0  0  0  0  0
    7.1469    5.0330   25.5256 C   0  0  0  0  0  0  0  0  0  0  0  0
    6.1391    4.3550   24.5950 C   0  0  0  0  0  0  0  0  0  0  0  0
    6.7452    3.0060   24.2234 C   0  0  0  0  0  0  0  0  0  0  0  0
    8.1932    3.1062   23.7619 C   0  0  0  0  0  0  0  0  0  0  0  0
    8.8006    2.0752   23.0334 C   0  0  0  0  0  0  0  0  0  0  0  0
    7.9653    0.9817   22.6588 N   0  0  0  0  0  0  0  0  0  0  0  0
    7.5439    0.1035   23.7558 C   0  0  0  0  0  0  0  0  0  0  0  0
    8.3477   -1.1715   23.7399 C   0  0  0  0  0  0  0  0  0  0  0  0
    9.7302   -1.1008   23.9143 C   0  0  0  0  0  0  0  0  0  0  0  0
   10.5297   -2.1761   23.5448 C   0  0  0  0  0  0  0  0  0  0  0  0
    9.9496   -3.3207   23.0005 C   0  0  0  0  0  0  0  0  0  0  0  0
    8.5606   -3.4179   22.9412 C   0  0  0  0  0  0  0  0  0  0  0  0
    7.7369   -4.8018   22.2625 Cl  0  0  0  0  0  0  0  0  0  0  0  0
    7.7565   -2.3697   23.3650 C   0  0  0  0  0  0  0  0  0  0  0  0
    6.6726   -2.4782   23.3149 H   0  0  0  0  0  0  0  0  0  0  0  0
   10.5835   -4.1101   22.6265 H   0  0  0  0  0  0  0  0  0  0  0  0
   11.6145   -2.1018   23.6220 H   0  0  0  0  0  0  0  0  0  0  0  0
   10.1679   -0.1758   24.2856 H   0  0  0  0  0  0  0  0  0  0  0  0
    7.7275    0.6428   24.6864 H   0  0  0  0  0  0  0  0  0  0  0  0
    6.4644   -0.0956   23.6928 H   0  0  0  0  0  0  0  0  0  0  0  0
    7.9837    0.6055   21.3240 C   0  0  0  0  0  0  0  0  0  0  0  0
    8.7522    1.1067   20.5266 O   0  0  0  0  0  0  0  0  0  0  0  0
    6.9564   -0.4319   20.8534 C   0  0  0  0  0  0  0  0  0  0  0  0
    6.1102    0.0662   19.7102 C   0  0  0  0  0  0  0  0  0  0  0  0
    6.4188   -0.2479   18.4132 C   0  0  0  0  0  0  0  0  0  0  0  0
    5.7560    0.2025   17.3151 N   0  0  0  0  0  0  0  0  0  0  0  0
    4.7467    1.0099   17.5287 C   0  0  0  0  0  0  0  0  0  0  0  0
    4.2969    1.4116   18.8151 C   0  0  0  0  0  0  0  0  0  0  0  0
    3.1996    2.2928   18.9880 C   0  0  0  0  0  0  0  0  0  0  0  0
    2.7908    2.6542   20.2417 C   0  0  0  0  0  0  0  0  0  0  0  0
    3.4572    2.1436   21.3786 C   0  0  0  0  0  0  0  0  0  0  0  0
    4.5234    1.2906   21.2332 C   0  0  0  0  0  0  0  0  0  0  0  0
    4.9864    0.9136   19.9456 C   0  0  0  0  0  0  0  0  0  0  0  0
    5.0146    0.9021   22.1210 H   0  0  0  0  0  0  0  0  0  0  0  0
    3.1238    2.4351   22.3707 H   0  0  0  0  0  0  0  0  0  0  0  0
    1.9586    3.3397   20.3699 H   0  0  0  0  0  0  0  0  0  0  0  0
    2.7047    2.6823   18.1014 H   0  0  0  0  0  0  0  0  0  0  0  0
    4.2262    1.3861   16.6493 H   0  0  0  0  0  0  0  0  0  0  0  0
    7.2554   -0.9134   18.2021 H   0  0  0  0  0  0  0  0  0  0  0  0
    7.5224   -1.3171   20.5415 H   0  0  0  0  0  0  0  0  0  0  0  0
    6.3309   -0.7521   21.6840 H   0  0  0  0  0  0  0  0  0  0  0  0
   10.1701    2.0596   22.7779 C   0  0  0  0  0  0  0  0  0  0  0  0
   10.9423    3.1459   23.1902 C   0  0  0  0  0  0  0  0  0  0  0  0
   10.3404    4.2274   23.8193 C   0  0  0  0  0  0  0  0  0  0  0  0
    8.9711    4.2143   24.1147 C   0  0  0  0  0  0  0  0  0  0  0  0
   10.9184    5.0917   24.1380 H   0  0  0  0  0  0  0  0  0  0  0  0
   12.0158    3.1544   23.0180 H   0  0  0  0  0  0  0  0  0  0  0  0
   10.6317    1.2169   22.2673 H   0  0  0  0  0  0  0  0  0  0  0  0
    6.1376    2.4929   23.4720 H   0  0  0  0  0  0  0  0  0  0  0  0
    6.7134    2.3836   25.1335 H   0  0  0  0  0  0  0  0  0  0  0  0
    5.9391    4.9554   23.7000 H   0  0  0  0  0  0  0  0  0  0  0  0
    5.1841    4.1940   25.1116 H   0  0  0  0  0  0  0  0  0  0  0  0
    6.7885    5.9821   25.9353 H   0  0  0  0  0  0  0  0  0  0  0  0
    7.2675    4.3428   26.3716 H   0  0  0  0  0  0  0  0  0  0  0  0
    8.5157    6.1684   24.4386 H   0  0  0  0  0  0  0  0  0  0  0  0
    9.7847    8.1522   27.9746 H   0  0  0  0  0  0  0  0  0  0  0  0
    9.4067    7.6499   26.3754 H   0  0  0  0  0  0  0  0  0  0  0  0
   11.7062    8.3806   26.4781 H   0  0  0  0  0  0  0  0  0  0  0  0
   12.1735    7.0515   27.5373 H   0  0  0  0  0  0  0  0  0  0  0  0
   11.5778    6.7217   25.8992 H   0  0  0  0  0  0  0  0  0  0  0  0
  1  2  1  0
  2  3  1  0
  3  4  2  0
  3  5  1  0
  5  6  1  0
  6  7  1  0
  7  8  1  0
  8  9  1  0
  9 10  2  0
 10 11  1  0
 11 12  1  0
 12 13  1  0
 13 14  2  0
 14 15  1  0
 15 16  2  0
 16 17  1  0
 17 18  1  0
 17 19  2  0
 19 20  1  0
 16 21  1  0
 15 22  1  0
 14 23  1  0
 12 24  1  0
 12 25  1  0
 11 26  1  0
 26 27  2  0
 26 28  1  0
 28 29  1  0
 29 30  2  0
 30 31  1  0
 31 32  2  0
 32 33  1  0
 33 34  2  0
 34 35  1  0
 35 36  2  0
 36 37  1  0
 37 38  2  0
 37 39  1  0
 36 40  1  0
 35 41  1  0
 34 42  1  0
 32 43  1  0
 30 44  1  0
 28 45  1  0
 28 46  1  0
 10 47  1  0
 47 48  2  0
 48 49  1  0
 49 50  2  0
 49 51  1  0
 48 52  1  0
 47 53  1  0
  8 54  1  0
  8 55  1  0
  7 56  1  0
  7 57  1  0
  6 58  1  0
  6 59  1  0
  5 60  1  6
  2 61  1  0
  2 62  1  0
  1 63  1  0
  1 64  1  0
  1 65  1  0
 50  5  1  0
 50  9  1  0
 19 13  1  0
 38 29  1  0
 38 33  1  0
M  CHG  1   5   1
M  END
>  <cnnaffinities>  (94) 
[6.57444]

>  <score>  (94) 
6.57444

>  <index>  (94) 
94

>  <Smiles>  (94) 
C(C(C(=O)[N@@+]1(C(C(C(c2c(N(C(c3c(c(c(c(Cl)c3[H])[H])[H])[H])([H])[H])C(=O)C(c3c(nc(c4c(c(c(c(c34)[H])[H])[H])[H])[H])[H])([H])[H])c(c(c(c12)[H])[H])[H])([H])[H])([H])[H])([H])[H])[H])([H])[H])([H])([H])[H]

>  <h>  (94) 
<NA>

>  <Training>  (94) 
True

>  <Success>  (94) 
True

>  <enamine_searched>  (94) 
False

>  <enamine_id>  (94) 
nan

$$$$

     RDKit          3D

 67 71  0  0  0  0  0  0  0  0999 V2000
    4.9009   -3.0923   18.7939 C   0  0  0  0  0  0  0  0  0  0  0  0
    5.2202   -3.8024   20.0202 N   0  0  0  0  0  0  0  0  0  0  0  0
    5.8278   -5.0119   20.0743 C   0  0  0  0  0  0  0  0  0  0  0  0
    5.7543   -5.8761   19.2140 O   0  0  0  0  0  0  0  0  0  0  0  0
    6.7144   -5.2673   21.3123 C   0  0  0  0  0  0  0  0  0  0  0  0
    6.8171   -4.2103   22.2957 N   0  0  0  0  0  0  0  0  0  0  0  0
    7.8635   -3.1916   22.2152 C   0  0  0  0  0  0  0  0  0  0  0  0
    7.3515   -1.8138   22.7106 C   0  0  2  0  0  0  0  0  0  0  0  0
    6.2735   -1.2729   21.7430 C   0  0  0  0  0  0  0  0  0  0  0  0
    5.0979   -1.6047   21.7061 O   0  0  0  0  0  0  0  0  0  0  0  0
    6.8302   -0.3532   20.8993 N   0  0  0  0  0  0  0  0  0  0  0  0
    6.1528    0.2190   19.8101 C   0  0  0  0  0  0  0  0  0  0  0  0
    6.6338    0.0309   18.5392 C   0  0  0  0  0  0  0  0  0  0  0  0
    5.9734    0.4091   17.4245 N   0  0  0  0  0  0  0  0  0  0  0  0
    4.8491    1.0742   17.5832 C   0  0  0  0  0  0  0  0  0  0  0  0
    4.3077    1.4298   18.8528 C   0  0  0  0  0  0  0  0  0  0  0  0
    3.1515    2.2442   18.9831 C   0  0  0  0  0  0  0  0  0  0  0  0
    2.6943    2.6112   20.2208 C   0  0  0  0  0  0  0  0  0  0  0  0
    3.3505    2.1634   21.3882 C   0  0  0  0  0  0  0  0  0  0  0  0
    4.4578    1.3592   21.2921 C   0  0  0  0  0  0  0  0  0  0  0  0
    4.9663    0.9858   20.0146 C   0  0  0  0  0  0  0  0  0  0  0  0
    4.9568    1.0053   22.1877 H   0  0  0  0  0  0  0  0  0  0  0  0
    2.9846    2.4633   22.3662 H   0  0  0  0  0  0  0  0  0  0  0  0
    1.8306    3.2639   20.3154 H   0  0  0  0  0  0  0  0  0  0  0  0
    2.6610    2.5921   18.0791 H   0  0  0  0  0  0  0  0  0  0  0  0
    4.3218    1.3737   16.6791 H   0  0  0  0  0  0  0  0  0  0  0  0
    7.5680   -0.5105   18.3838 H   0  0  0  0  0  0  0  0  0  0  0  0
    8.2301   -0.1313   21.1402 C   0  0  0  0  0  0  0  0  0  0  0  0
    8.4065   -0.6625   22.5707 C   0  0  2  0  0  0  0  0  0  0  0  0
    9.8939   -0.8524   22.8884 C   0  0  0  0  0  0  0  0  0  0  0  0
   10.6149    0.8033   23.0997 S   0  0  0  0  0  0  0  0  0  0  0  0
   10.1893    1.2788   24.4128 O   0  0  0  0  0  0  0  0  0  0  0  0
   10.3192    1.5936   21.9132 O   0  0  0  0  0  0  0  0  0  0  0  0
   12.2774    0.5879   23.0932 N   0  0  0  0  0  0  0  0  0  0  0  0
   12.7935   -0.0097   24.3165 C   0  0  0  0  0  0  0  0  0  0  0  0
   12.4199   -1.0314   24.4152 H   0  0  0  0  0  0  0  0  0  0  0  0
   12.5117    0.5758   25.1993 H   0  0  0  0  0  0  0  0  0  0  0  0
   13.8831   -0.0628   24.2402 H   0  0  0  0  0  0  0  0  0  0  0  0
   13.0145    1.7922   22.6836 C   0  0  0  0  0  0  0  0  0  0  0  0
   12.9334    2.6168   23.4073 H   0  0  0  0  0  0  0  0  0  0  0  0
   14.0656    1.5162   22.5664 H   0  0  0  0  0  0  0  0  0  0  0  0
   12.6370    2.1337   21.7216 H   0  0  0  0  0  0  0  0  0  0  0  0
   10.4242   -1.3493   22.0662 H   0  0  0  0  0  0  0  0  0  0  0  0
   10.0580   -1.4183   23.8115 H   0  0  0  0  0  0  0  0  0  0  0  0
    8.0467    0.1238   23.2336 H   0  0  0  0  0  0  0  0  0  0  0  0
    8.4620    0.9291   21.0647 H   0  0  0  0  0  0  0  0  0  0  0  0
    8.8701   -0.6864   20.4379 H   0  0  0  0  0  0  0  0  0  0  0  0
    6.7379   -2.0277   24.0857 C   0  0  0  0  0  0  0  0  0  0  0  0
    6.7074   -1.0183   25.0571 C   0  0  0  0  0  0  0  0  0  0  0  0
    6.2496   -1.3169   26.3254 C   0  0  0  0  0  0  0  0  0  0  0  0
    6.2422   -0.3406   27.2523 F   0  0  0  0  0  0  0  0  0  0  0  0
    5.7737   -2.5720   26.6786 C   0  0  0  0  0  0  0  0  0  0  0  0
    5.6870   -3.5370   25.6903 C   0  0  0  0  0  0  0  0  0  0  0  0
    6.1301   -3.2523   24.3996 C   0  0  0  0  0  0  0  0  0  0  0  0
    5.9226   -4.2687   23.3314 C   0  0  0  0  0  0  0  0  0  0  0  0
    5.0230   -5.0967   23.3661 O   0  0  0  0  0  0  0  0  0  0  0  0
    5.2901   -4.5230   25.9023 H   0  0  0  0  0  0  0  0  0  0  0  0
    5.4708   -2.7741   27.6990 H   0  0  0  0  0  0  0  0  0  0  0  0
    7.0204   -0.0014   24.8573 H   0  0  0  0  0  0  0  0  0  0  0  0
    8.7243   -3.4767   22.8369 H   0  0  0  0  0  0  0  0  0  0  0  0
    8.1976   -3.1113   21.1802 H   0  0  0  0  0  0  0  0  0  0  0  0
    7.7016   -5.5327   20.9232 H   0  0  0  0  0  0  0  0  0  0  0  0
    6.3129   -6.1590   21.7980 H   0  0  0  0  0  0  0  0  0  0  0  0
    5.1333   -3.2514   20.8672 H   0  0  0  0  0  0  0  0  0  0  0  0
    5.5030   -3.4792   17.9682 H   0  0  0  0  0  0  0  0  0  0  0  0
    3.8458   -3.1339   18.5243 H   0  0  0  0  0  0  0  0  0  0  0  0
    5.1258   -2.0327   18.9383 H   0  0  0  0  0  0  0  0  0  0  0  0
  1  2  1  0
  2  3  1  0
  3  4  2  0
  3  5  1  0
  5  6  1  0
  6  7  1  0
  8  7  1  6
  8  9  1  0
  9 10  2  0
  9 11  1  0
 11 12  1  0
 12 13  2  0
 13 14  1  0
 14 15  2  0
 15 16  1  0
 16 17  2  0
 17 18  1  0
 18 19  2  0
 19 20  1  0
 20 21  2  0
 20 22  1  0
 19 23  1  0
 18 24  1  0
 17 25  1  0
 15 26  1  0
 13 27  1  0
 11 28  1  0
 28 29  1  0
 29 30  1  0
 30 31  1  0
 31 32  2  0
 31 33  2  0
 31 34  1  0
 34 35  1  0
 35 36  1  0
 35 37  1  0
 35 38  1  0
 34 39  1  0
 39 40  1  0
 39 41  1  0
 39 42  1  0
 30 43  1  0
 30 44  1  0
 29 45  1  1
 28 46  1  0
 28 47  1  0
  8 48  1  0
 48 49  2  0
 49 50  1  0
 50 51  1  0
 50 52  2  0
 52 53  1  0
 53 54  2  0
 54 55  1  0
 55 56  2  0
 53 57  1  0
 52 58  1  0
 49 59  1  0
  7 60  1  0
  7 61  1  0
  5 62  1  0
  5 63  1  0
  2 64  1  0
  1 65  1  0
  1 66  1  0
  1 67  1  0
 55  6  1  0
 29  8  1  0
 54 48  1  0
 21 12  1  0
 21 16  1  0
M  END
>  <cnnaffinities>  (95) 
[6.96553]

>  <score>  (95) 
6.96553

>  <index>  (95) 
95

>  <Smiles>  (95) 
C(N(C(=O)C(N1C([C@@]2(C(=O)N(c3c(nc(c4c(c(c(c(c34)[H])[H])[H])[H])[H])[H])C([C@@]2(C(S(=O)(=O)N(C([H])([H])[H])C([H])([H])[H])([H])[H])[H])([H])[H])c2c(c(F)c(c(c2C1=O)[H])[H])[H])([H])[H])([H])[H])[H])([H])([H])[H]

>  <h>  (95) 
<NA>

>  <Training>  (95) 
True

>  <Success>  (95) 
True

>  <enamine_searched>  (95) 
False

>  <enamine_id>  (95) 
nan

$$$$

     RDKit          3D

 37 39  0  0  0  0  0  0  0  0999 V2000
    5.9311   -2.6913   20.8305 O   0  0  0  0  0  0  0  0  0  0  0  0
    6.1762   -1.7090   21.5144 C   0  0  0  0  0  0  0  0  0  0  0  0
    6.9069   -0.4993   20.9074 C   0  0  0  0  0  0  0  0  0  0  0  0
    6.1144    0.0950   19.7621 C   0  0  0  0  0  0  0  0  0  0  0  0
    6.4209   -0.2120   18.4601 C   0  0  0  0  0  0  0  0  0  0  0  0
    5.7570    0.2374   17.3629 N   0  0  0  0  0  0  0  0  0  0  0  0
    4.7349    1.0325   17.5735 C   0  0  0  0  0  0  0  0  0  0  0  0
    4.2856    1.4255   18.8670 C   0  0  0  0  0  0  0  0  0  0  0  0
    3.1605    2.2753   19.0405 C   0  0  0  0  0  0  0  0  0  0  0  0
    2.7471    2.6250   20.2986 C   0  0  0  0  0  0  0  0  0  0  0  0
    3.4373    2.1423   21.4288 C   0  0  0  0  0  0  0  0  0  0  0  0
    4.5307    1.3226   21.2862 C   0  0  0  0  0  0  0  0  0  0  0  0
    4.9870    0.9422   19.9931 C   0  0  0  0  0  0  0  0  0  0  0  0
    5.0469    0.9652   22.1702 H   0  0  0  0  0  0  0  0  0  0  0  0
    3.1014    2.4298   22.4220 H   0  0  0  0  0  0  0  0  0  0  0  0
    1.8873    3.2768   20.4335 H   0  0  0  0  0  0  0  0  0  0  0  0
    2.6372    2.6440   18.1619 H   0  0  0  0  0  0  0  0  0  0  0  0
    4.1965    1.4010   16.7001 H   0  0  0  0  0  0  0  0  0  0  0  0
    7.2667   -0.8691   18.2492 H   0  0  0  0  0  0  0  0  0  0  0  0
    7.8657   -0.8637   20.5159 H   0  0  0  0  0  0  0  0  0  0  0  0
    7.1438    0.2573   21.6633 H   0  0  0  0  0  0  0  0  0  0  0  0
    5.7588   -1.6359   22.8077 N   0  0  0  0  0  0  0  0  0  0  0  0
    4.9164   -2.6757   23.3937 C   0  0  0  0  0  0  0  0  0  0  0  0
    4.4664   -2.3087   24.7940 C   0  0  0  0  0  0  0  0  0  0  0  0
    3.3743   -1.4609   24.9851 C   0  0  0  0  0  0  0  0  0  0  0  0
    2.9842   -1.0881   26.2678 C   0  0  0  0  0  0  0  0  0  0  0  0
    3.6715   -1.5572   27.3812 C   0  0  0  0  0  0  0  0  0  0  0  0
    4.7570   -2.4021   27.1889 C   0  0  0  0  0  0  0  0  0  0  0  0
    5.6355   -2.9920   28.5739 Cl  0  0  0  0  0  0  0  0  0  0  0  0
    5.1564   -2.7829   25.9107 C   0  0  0  0  0  0  0  0  0  0  0  0
    6.0160   -3.4396   25.7918 H   0  0  0  0  0  0  0  0  0  0  0  0
    3.3692   -1.2671   28.3835 H   0  0  0  0  0  0  0  0  0  0  0  0
    2.1381   -0.4200   26.4041 H   0  0  0  0  0  0  0  0  0  0  0  0
    2.8342   -1.0749   24.1227 H   0  0  0  0  0  0  0  0  0  0  0  0
    5.4497   -3.6308   23.4053 H   0  0  0  0  0  0  0  0  0  0  0  0
    4.0412   -2.8169   22.7526 H   0  0  0  0  0  0  0  0  0  0  0  0
    6.0403   -0.8753   23.4063 H   0  0  0  0  0  0  0  0  0  0  0  0
  1  2  2  0
  2  3  1  0
  3  4  1  0
  4  5  2  0
  5  6  1  0
  6  7  2  0
  7  8  1  0
  8  9  2  0
  9 10  1  0
 10 11  2  0
 11 12  1  0
 12 13  2  0
 12 14  1  0
 11 15  1  0
 10 16  1  0
  9 17  1  0
  7 18  1  0
  5 19  1  0
  3 20  1  0
  3 21  1  0
  2 22  1  0
 22 23  1  0
 23 24  1  0
 24 25  2  0
 25 26  1  0
 26 27  2  0
 27 28  1  0
 28 29  1  0
 28 30  2  0
 30 31  1  0
 27 32  1  0
 26 33  1  0
 25 34  1  0
 23 35  1  0
 23 36  1  0
 22 37  1  0
 13  4  1  0
 30 24  1  0
 13  8  1  0
M  END
>  <cnnaffinities>  (96) 
[4.67613, 4.852]

>  <score>  (96) 
4.67613

>  <index>  (96) 
96

>  <Smiles>  (96) 
O=C(C(c1c(nc(c2c(c(c(c(c12)[H])[H])[H])[H])[H])[H])([H])[H])N(C(c1c(c(c(c(Cl)c1[H])[H])[H])[H])([H])[H])[H]

>  <h>  (96) 
<NA>

>  <Training>  (96) 
True

>  <Success>  (96) 
True

>  <enamine_searched>  (96) 
False

>  <enamine_id>  (96) 
nan

$$$$
