
     RDKit          3D

 63 69  0  0  0  0  0  0  0  0999 V2000
    8.8967    3.0982   25.0434 O   0  0  0  0  0  0  0  0  0  0  0  0
    8.7542    2.0337   24.4555 C   0  0  0  0  0  0  0  0  0  0  0  0
    9.8628    1.3719   23.7096 C   0  0  0  0  0  0  0  0  0  0  0  0
   11.1511    1.8554   23.9276 C   0  0  0  0  0  0  0  0  0  0  0  0
   12.2192    1.3143   23.2494 C   0  0  0  0  0  0  0  0  0  0  0  0
   11.9448    0.3483   22.2832 C   0  0  0  0  0  0  0  0  0  0  0  0
   13.2480   -0.1650   21.2849 Cl  0  0  0  0  0  0  0  0  0  0  0  0
   10.6777   -0.1617   22.0573 C   0  0  0  0  0  0  0  0  0  0  0  0
    9.6056    0.3201   22.8099 C   0  0  0  0  0  0  0  0  0  0  0  0
    8.1813   -0.1520   22.5597 C   0  0  1  0  0  0  0  0  0  0  0  0
    7.4515    0.0049   23.9238 C   0  0  0  0  0  0  0  0  0  0  0  0
    7.5676    1.3575   24.4417 N   0  0  0  0  0  0  0  0  0  0  0  0
    6.4428    1.9835   25.0919 C   0  0  0  0  0  0  0  0  0  0  0  0
    6.1836    1.4813   26.4792 C   0  0  0  0  0  0  0  0  0  0  0  0
    6.4772    2.0432   27.5998 N   0  0  0  0  0  0  0  0  0  0  0  0
    5.9422    1.2359   28.6007 N   0  0  0  0  0  0  0  0  0  0  0  0
    5.3751    0.2597   27.9952 C   0  0  0  0  0  0  0  0  0  0  0  0
    5.4895    0.3251   26.6469 O   0  0  0  0  0  0  0  0  0  0  0  0
    4.8004   -0.5580   28.4130 H   0  0  0  0  0  0  0  0  0  0  0  0
    6.6675    3.0510   25.1648 H   0  0  0  0  0  0  0  0  0  0  0  0
    5.5388    1.8379   24.4902 H   0  0  0  0  0  0  0  0  0  0  0  0
    6.3872   -0.2377   23.8288 H   0  0  0  0  0  0  0  0  0  0  0  0
    7.9043   -0.6880   24.6500 H   0  0  0  0  0  0  0  0  0  0  0  0
    7.5215    0.7422   21.4724 C   0  0  0  0  0  0  0  0  0  0  0  0
    7.5954    1.9481   21.3954 O   0  0  0  0  0  0  0  0  0  0  0  0
    6.8372   -0.0763   20.5901 N   0  0  0  0  0  0  0  0  0  0  0  0
    6.0098    0.3966   19.5380 C   0  0  0  0  0  0  0  0  0  0  0  0
    6.2581    0.0224   18.2386 C   0  0  0  0  0  0  0  0  0  0  0  0
    5.5343    0.4371   17.1718 N   0  0  0  0  0  0  0  0  0  0  0  0
    4.5144    1.2267   17.3988 C   0  0  0  0  0  0  0  0  0  0  0  0
    4.1034    1.6432   18.6955 C   0  0  0  0  0  0  0  0  0  0  0  0
    2.9688    2.4762   18.8986 C   0  0  0  0  0  0  0  0  0  0  0  0
    2.5568    2.7809   20.1666 C   0  0  0  0  0  0  0  0  0  0  0  0
    3.2461    2.2605   21.2855 C   0  0  0  0  0  0  0  0  0  0  0  0
    4.3575    1.4775   21.1119 C   0  0  0  0  0  0  0  0  0  0  0  0
    4.8403    1.1814   19.8068 C   0  0  0  0  0  0  0  0  0  0  0  0
    4.8831    1.0736   21.9728 H   0  0  0  0  0  0  0  0  0  0  0  0
    2.8896    2.4818   22.2862 H   0  0  0  0  0  0  0  0  0  0  0  0
    1.6912    3.4185   20.3224 H   0  0  0  0  0  0  0  0  0  0  0  0
    2.4423    2.8585   18.0275 H   0  0  0  0  0  0  0  0  0  0  0  0
    3.9435    1.5494   16.5314 H   0  0  0  0  0  0  0  0  0  0  0  0
    7.0963   -0.6383   18.0170 H   0  0  0  0  0  0  0  0  0  0  0  0
    6.7796   -1.4574   21.0319 C   0  0  0  0  0  0  0  0  0  0  0  0
    7.9992   -1.5792   21.9565 C   0  0  2  0  0  0  0  0  0  0  0  0
    7.9001   -2.7141   22.9805 C   0  0  0  0  0  0  0  0  0  0  0  0
    7.6138   -3.9881   22.3422 N   0  0  0  0  0  0  0  0  0  0  0  0
    7.8628   -5.1475   22.9726 C   0  0  0  0  0  0  0  0  0  0  0  0
    8.0169   -5.0947   24.3063 N   0  0  0  0  0  0  0  0  0  0  0  0
    8.3365   -6.2567   24.8530 C   0  0  0  0  0  0  0  0  0  0  0  0
    8.5935   -7.3874   24.1982 N   0  0  0  0  0  0  0  0  0  0  0  0
    8.3639   -7.3175   22.8889 C   0  0  0  0  0  0  0  0  0  0  0  0
    7.9660   -6.2573   22.2066 N   0  0  0  0  0  0  0  0  0  0  0  0
    8.5347   -8.2347   22.3310 H   0  0  0  0  0  0  0  0  0  0  0  0
    8.4043   -6.3001   25.9391 H   0  0  0  0  0  0  0  0  0  0  0  0
    7.5594   -4.0471   21.3378 H   0  0  0  0  0  0  0  0  0  0  0  0
    7.1170   -2.5353   23.7292 H   0  0  0  0  0  0  0  0  0  0  0  0
    8.8461   -2.7828   23.5312 H   0  0  0  0  0  0  0  0  0  0  0  0
    8.8632   -1.7882   21.3135 H   0  0  0  0  0  0  0  0  0  0  0  0
    5.8405   -1.6644   21.5749 H   0  0  0  0  0  0  0  0  0  0  0  0
    6.8202   -2.1246   20.1670 H   0  0  0  0  0  0  0  0  0  0  0  0
   10.5494   -0.9078   21.2767 H   0  0  0  0  0  0  0  0  0  0  0  0
   13.2421    1.6340   23.4398 H   0  0  0  0  0  0  0  0  0  0  0  0
   11.2805    2.6917   24.6035 H   0  0  0  0  0  0  0  0  0  0  0  0
  1  2  2  0
  2  3  1  0
  3  4  2  0
  4  5  1  0
  5  6  2  0
  6  7  1  0
  6  8  1  0
  8  9  2  0
  9 10  1  0
 10 11  1  1
 11 12  1  0
 12 13  1  0
 13 14  1  0
 14 15  2  0
 15 16  1  0
 16 17  2  0
 17 18  1  0
 17 19  1  0
 13 20  1  0
 13 21  1  0
 11 22  1  0
 11 23  1  0
 10 24  1  0
 24 25  2  0
 24 26  1  0
 26 27  1  0
 27 28  2  0
 28 29  1  0
 29 30  2  0
 30 31  1  0
 31 32  2  0
 32 33  1  0
 33 34  2  0
 34 35  1  0
 35 36  2  0
 35 37  1  0
 34 38  1  0
 33 39  1  0
 32 40  1  0
 30 41  1  0
 28 42  1  0
 26 43  1  0
 43 44  1  0
 44 45  1  0
 45 46  1  0
 46 47  1  0
 47 48  2  0
 48 49  1  0
 49 50  2  0
 50 51  1  0
 51 52  2  0
 51 53  1  0
 49 54  1  0
 46 55  1  0
 45 56  1  0
 45 57  1  0
 44 58  1  6
 43 59  1  0
 43 60  1  0
  8 61  1  0
  5 62  1  0
  4 63  1  0
 12  2  1  0
 18 14  1  0
 36 27  1  0
 52 47  1  0
  9  3  1  0
 44 10  1  0
 36 31  1  0
M  END
>  <cnnaffinities>  (1) 
[6.57351, 6.10045]

>  <score>  (1) 
6.57351

>  <index>  (1) 
0

>  <Smiles>  (1) 
O=C1c2c(c(c(Cl)c(c2[C@@]2(C(N1C(c1nnc(o1)[H])([H])[H])([H])[H])C(=O)N(c1c(nc(c3c(c(c(c(c13)[H])[H])[H])[H])[H])[H])C([C@@]2(C(N(c1nc(nc(n1)[H])[H])[H])([H])[H])[H])([H])[H])[H])[H])[H]

>  <h>  (1) 
<NA>

>  <Training>  (1) 
True

>  <Success>  (1) 
True

>  <enamine_searched>  (1) 
False

>  <enamine_id>  (1) 
nan

$$$$

     RDKit          3D

 51 54  0  0  0  0  0  0  0  0999 V2000
   12.6429   -0.6756   24.8052 C   0  0  0  0  0  0  0  0  0  0  0  0
   12.3168   -1.6877   23.8799 O   0  0  0  0  0  0  0  0  0  0  0  0
   11.0226   -1.8520   23.4943 C   0  0  0  0  0  0  0  0  0  0  0  0
   10.8202   -2.8201   22.5047 C   0  0  0  0  0  0  0  0  0  0  0  0
    9.5425   -3.0587   22.0240 C   0  0  0  0  0  0  0  0  0  0  0  0
    8.4462   -2.3717   22.5449 C   0  0  0  0  0  0  0  0  0  0  0  0
    7.1405   -2.6980   22.0595 N   0  0  0  0  0  0  0  0  0  0  0  0
    6.5542   -3.9932   22.4251 C   0  0  0  0  0  0  0  0  0  0  0  0
    5.9811   -4.0031   23.8354 C   0  0  0  0  0  0  0  0  0  0  0  0
    6.8149   -4.2145   24.9333 C   0  0  0  0  0  0  0  0  0  0  0  0
    6.3144   -4.1582   26.2307 C   0  0  0  0  0  0  0  0  0  0  0  0
    4.9663   -3.8964   26.4514 C   0  0  0  0  0  0  0  0  0  0  0  0
    4.1347   -3.7111   25.3536 C   0  0  0  0  0  0  0  0  0  0  0  0
    2.4446   -3.3688   25.6140 Cl  0  0  0  0  0  0  0  0  0  0  0  0
    4.6227   -3.7636   24.0534 C   0  0  0  0  0  0  0  0  0  0  0  0
    3.9476   -3.5888   23.2199 H   0  0  0  0  0  0  0  0  0  0  0  0
    4.5585   -3.8270   27.4566 H   0  0  0  0  0  0  0  0  0  0  0  0
    6.9837   -4.3004   27.0785 H   0  0  0  0  0  0  0  0  0  0  0  0
    7.8738   -4.4069   24.7700 H   0  0  0  0  0  0  0  0  0  0  0  0
    5.7632   -4.2103   21.7011 H   0  0  0  0  0  0  0  0  0  0  0  0
    7.3412   -4.7532   22.3378 H   0  0  0  0  0  0  0  0  0  0  0  0
    6.2872   -1.7885   21.4675 C   0  0  0  0  0  0  0  0  0  0  0  0
    5.0912   -2.0128   21.3903 O   0  0  0  0  0  0  0  0  0  0  0  0
    6.9239   -0.5191   20.8873 C   0  0  0  0  0  0  0  0  0  0  0  0
    6.1148    0.0801   19.7659 C   0  0  0  0  0  0  0  0  0  0  0  0
    6.4255   -0.2145   18.4668 C   0  0  0  0  0  0  0  0  0  0  0  0
    5.7583    0.2440   17.3766 N   0  0  0  0  0  0  0  0  0  0  0  0
    4.7344    1.0285   17.5868 C   0  0  0  0  0  0  0  0  0  0  0  0
    4.2858    1.4170   18.8742 C   0  0  0  0  0  0  0  0  0  0  0  0
    3.1665    2.2716   19.0471 C   0  0  0  0  0  0  0  0  0  0  0  0
    2.7510    2.6231   20.3000 C   0  0  0  0  0  0  0  0  0  0  0  0
    3.4393    2.1331   21.4325 C   0  0  0  0  0  0  0  0  0  0  0  0
    4.5241    1.3034   21.2911 C   0  0  0  0  0  0  0  0  0  0  0  0
    4.9865    0.9261   20.0024 C   0  0  0  0  0  0  0  0  0  0  0  0
    5.0283    0.9127   22.1698 H   0  0  0  0  0  0  0  0  0  0  0  0
    3.0993    2.4163   22.4259 H   0  0  0  0  0  0  0  0  0  0  0  0
    1.8937    3.2801   20.4293 H   0  0  0  0  0  0  0  0  0  0  0  0
    2.6645    2.6400   18.1549 H   0  0  0  0  0  0  0  0  0  0  0  0
    4.2062    1.3950   16.7039 H   0  0  0  0  0  0  0  0  0  0  0  0
    7.2708   -0.8634   18.2329 H   0  0  0  0  0  0  0  0  0  0  0  0
    7.0693    0.2040   21.7024 H   0  0  0  0  0  0  0  0  0  0  0  0
    7.9328   -0.7886   20.5517 H   0  0  0  0  0  0  0  0  0  0  0  0
    8.6542   -1.4071   23.5287 C   0  0  0  0  0  0  0  0  0  0  0  0
    9.9396   -1.1376   23.9984 C   0  0  0  0  0  0  0  0  0  0  0  0
   10.0904   -0.3639   24.7454 H   0  0  0  0  0  0  0  0  0  0  0  0
    7.7984   -0.8701   23.9369 H   0  0  0  0  0  0  0  0  0  0  0  0
    9.3542   -3.7643   21.2188 H   0  0  0  0  0  0  0  0  0  0  0  0
   11.6955   -3.3613   22.1466 H   0  0  0  0  0  0  0  0  0  0  0  0
   12.3633    0.3204   24.4339 H   0  0  0  0  0  0  0  0  0  0  0  0
   13.7292   -0.7542   24.9156 H   0  0  0  0  0  0  0  0  0  0  0  0
   12.1481   -0.8387   25.7695 H   0  0  0  0  0  0  0  0  0  0  0  0
  1  2  1  0
  2  3  1  0
  3  4  2  0
  4  5  1  0
  5  6  2  0
  6  7  1  0
  7  8  1  0
  8  9  1  0
  9 10  2  0
 10 11  1  0
 11 12  2  0
 12 13  1  0
 13 14  1  0
 13 15  2  0
 15 16  1  0
 12 17  1  0
 11 18  1  0
 10 19  1  0
  8 20  1  0
  8 21  1  0
  7 22  1  0
 22 23  2  0
 22 24  1  0
 24 25  1  0
 25 26  2  0
 26 27  1  0
 27 28  2  0
 28 29  1  0
 29 30  2  0
 30 31  1  0
 31 32  2  0
 32 33  1  0
 33 34  2  0
 33 35  1  0
 32 36  1  0
 31 37  1  0
 30 38  1  0
 28 39  1  0
 26 40  1  0
 24 41  1  0
 24 42  1  0
  6 43  1  0
 43 44  2  0
 44 45  1  0
 43 46  1  0
  5 47  1  0
  4 48  1  0
  1 49  1  0
  1 50  1  0
  1 51  1  0
 44  3  1  0
 15  9  1  0
 34 25  1  0
 34 29  1  0
M  END
>  <cnnaffinities>  (2) 
[6.37885]

>  <score>  (2) 
6.37885

>  <index>  (2) 
1

>  <Smiles>  (2) 
C(Oc1c(c(c(N(C(c2c(c(c(c(Cl)c2[H])[H])[H])[H])([H])[H])C(=O)C(c2c(nc(c3c(c(c(c(c23)[H])[H])[H])[H])[H])[H])([H])[H])c(c1[H])[H])[H])[H])([H])([H])[H]

>  <h>  (2) 
<NA>

>  <Training>  (2) 
True

>  <Success>  (2) 
True

>  <enamine_searched>  (2) 
False

>  <enamine_id>  (2) 
nan

$$$$

     RDKit          3D

 56 60  0  0  0  0  0  0  0  0999 V2000
    7.6749   -8.5466   22.7560 C   0  0  0  0  0  0  0  0  0  0  0  0
    6.8518   -7.3690   22.6023 N   0  0  0  0  0  0  0  0  0  0  0  0
    7.1545   -6.3787   21.7305 C   0  0  0  0  0  0  0  0  0  0  0  0
    8.0731   -6.4302   20.9335 O   0  0  0  0  0  0  0  0  0  0  0  0
    6.2073   -5.1820   21.8598 C   0  0  0  0  0  0  0  0  0  0  0  0
    6.7159   -4.2055   22.8048 N   0  0  0  0  0  0  0  0  0  0  0  0
    7.7957   -3.3170   22.4240 C   0  0  0  0  0  0  0  0  0  0  0  0
    7.4235   -1.8372   22.6939 C   0  0  2  0  0  0  0  0  0  0  0  0
    6.3329   -1.4197   21.6825 C   0  0  0  0  0  0  0  0  0  0  0  0
    5.2115   -1.8808   21.5951 O   0  0  0  0  0  0  0  0  0  0  0  0
    6.8526   -0.4490   20.8556 N   0  0  0  0  0  0  0  0  0  0  0  0
    6.1081    0.0850   19.7852 C   0  0  0  0  0  0  0  0  0  0  0  0
    6.4556   -0.2056   18.4910 C   0  0  0  0  0  0  0  0  0  0  0  0
    5.7944    0.2460   17.4012 N   0  0  0  0  0  0  0  0  0  0  0  0
    4.7582    1.0212   17.6049 C   0  0  0  0  0  0  0  0  0  0  0  0
    4.3016    1.4139   18.8949 C   0  0  0  0  0  0  0  0  0  0  0  0
    3.1871    2.2772   19.0520 C   0  0  0  0  0  0  0  0  0  0  0  0
    2.7837    2.6636   20.3004 C   0  0  0  0  0  0  0  0  0  0  0  0
    3.4785    2.2149   21.4438 C   0  0  0  0  0  0  0  0  0  0  0  0
    4.5595    1.3797   21.3179 C   0  0  0  0  0  0  0  0  0  0  0  0
    4.9918    0.9453   20.0312 C   0  0  0  0  0  0  0  0  0  0  0  0
    5.0855    1.0446   22.2059 H   0  0  0  0  0  0  0  0  0  0  0  0
    3.1533    2.5430   22.4268 H   0  0  0  0  0  0  0  0  0  0  0  0
    1.9373    3.3331   20.4153 H   0  0  0  0  0  0  0  0  0  0  0  0
    2.6795    2.6292   18.1586 H   0  0  0  0  0  0  0  0  0  0  0  0
    4.2242    1.3851   16.7275 H   0  0  0  0  0  0  0  0  0  0  0  0
    7.3028   -0.8615   18.2959 H   0  0  0  0  0  0  0  0  0  0  0  0
    8.2954   -0.3226   20.9474 C   0  0  0  0  0  0  0  0  0  0  0  0
    8.5995   -0.8880   22.3427 C   0  0  2  0  0  0  0  0  0  0  0  0
    9.9524   -1.5493   22.4051 N   0  0  0  0  0  4  0  0  0  0  0  0
   10.0219   -2.3088   21.7042 H   0  0  0  0  0  0  0  0  0  0  0  0
   10.6976   -0.8616   22.2050 H   0  0  0  0  0  0  0  0  0  0  0  0
   10.1204   -1.9449   23.3447 H   0  0  0  0  0  0  0  0  0  0  0  0
    8.6177   -0.0758   23.0628 H   0  0  0  0  0  0  0  0  0  0  0  0
    8.8152   -0.9077   20.1733 H   0  0  0  0  0  0  0  0  0  0  0  0
    8.5820    0.7267   20.8388 H   0  0  0  0  0  0  0  0  0  0  0  0
    6.9080   -1.7073   24.1114 C   0  0  0  0  0  0  0  0  0  0  0  0
    6.8443   -0.4711   24.7694 C   0  0  0  0  0  0  0  0  0  0  0  0
    6.3631   -0.4142   26.0650 C   0  0  0  0  0  0  0  0  0  0  0  0
    6.2479    1.1234   26.8636 Cl  0  0  0  0  0  0  0  0  0  0  0  0
    5.9410   -1.5509   26.7520 C   0  0  0  0  0  0  0  0  0  0  0  0
    5.9405   -2.7526   26.0782 C   0  0  0  0  0  0  0  0  0  0  0  0
    6.3612   -2.8201   24.7549 C   0  0  0  0  0  0  0  0  0  0  0  0
    6.0754   -4.0726   23.9958 C   0  0  0  0  0  0  0  0  0  0  0  0
    5.2665   -4.9072   24.3903 O   0  0  0  0  0  0  0  0  0  0  0  0
    5.5812   -3.6629   26.5364 H   0  0  0  0  0  0  0  0  0  0  0  0
    5.5770   -1.4755   27.7706 H   0  0  0  0  0  0  0  0  0  0  0  0
    7.1281    0.4530   24.2777 H   0  0  0  0  0  0  0  0  0  0  0  0
    8.7218   -3.5779   22.9526 H   0  0  0  0  0  0  0  0  0  0  0  0
    7.9475   -3.4607   21.3583 H   0  0  0  0  0  0  0  0  0  0  0  0
    6.0541   -4.6856   20.8959 H   0  0  0  0  0  0  0  0  0  0  0  0
    5.2346   -5.5143   22.2409 H   0  0  0  0  0  0  0  0  0  0  0  0
    6.1437   -7.1774   23.2934 H   0  0  0  0  0  0  0  0  0  0  0  0
    7.0461   -9.3796   23.0798 H   0  0  0  0  0  0  0  0  0  0  0  0
    8.5088   -8.3882   23.4546 H   0  0  0  0  0  0  0  0  0  0  0  0
    8.0908   -8.8012   21.7941 H   0  0  0  0  0  0  0  0  0  0  0  0
  1  2  1  0
  2  3  1  0
  3  4  2  0
  3  5  1  0
  5  6  1  0
  6  7  1  0
  8  7  1  6
  8  9  1  0
  9 10  2  0
  9 11  1  0
 11 12  1  0
 12 13  2  0
 13 14  1  0
 14 15  2  0
 15 16  1  0
 16 17  2  0
 17 18  1  0
 18 19  2  0
 19 20  1  0
 20 21  2  0
 20 22  1  0
 19 23  1  0
 18 24  1  0
 17 25  1  0
 15 26  1  0
 13 27  1  0
 11 28  1  0
 28 29  1  0
 29 30  1  0
 30 31  1  0
 30 32  1  0
 30 33  1  0
 29 34  1  1
 28 35  1  0
 28 36  1  0
  8 37  1  0
 37 38  2  0
 38 39  1  0
 39 40  1  0
 39 41  2  0
 41 42  1  0
 42 43  2  0
 43 44  1  0
 44 45  2  0
 42 46  1  0
 41 47  1  0
 38 48  1  0
  7 49  1  0
  7 50  1  0
  5 51  1  0
  5 52  1  0
  2 53  1  0
  1 54  1  0
  1 55  1  0
  1 56  1  0
 44  6  1  0
 29  8  1  0
 43 37  1  0
 21 12  1  0
 21 16  1  0
M  CHG  1  30   1
M  END
>  <cnnaffinities>  (3) 
[6.52282]

>  <score>  (3) 
6.52282

>  <index>  (3) 
2

>  <Smiles>  (3) 
C(N(C(=O)C(N1C([C@@]2(C(=O)N(c3c(nc(c4c(c(c(c(c34)[H])[H])[H])[H])[H])[H])C([C@@]2([N+]([H])([H])[H])[H])([H])[H])c2c(c(Cl)c(c(c2C1=O)[H])[H])[H])([H])[H])([H])[H])[H])([H])([H])[H]

>  <h>  (3) 
<NA>

>  <Training>  (3) 
True

>  <Success>  (3) 
True

>  <enamine_searched>  (3) 
False

>  <enamine_id>  (3) 
nan

$$$$

     RDKit          3D

 67 73  0  0  0  0  0  0  0  0999 V2000
   10.6807    2.4928   23.9994 O   0  0  0  0  0  0  0  0  0  0  0  0
   10.0182    1.4837   23.7875 C   0  0  0  0  0  0  0  0  0  0  0  0
   10.6181    0.1912   23.3345 C   0  0  0  0  0  0  0  0  0  0  0  0
   11.9718   -0.0536   23.5302 C   0  0  0  0  0  0  0  0  0  0  0  0
   12.5541   -1.2019   23.0273 C   0  0  0  0  0  0  0  0  0  0  0  0
   11.7884   -2.0178   22.1867 C   0  0  0  0  0  0  0  0  0  0  0  0
   12.4618   -3.3791   21.3314 Cl  0  0  0  0  0  0  0  0  0  0  0  0
   10.4433   -1.7948   22.0039 C   0  0  0  0  0  0  0  0  0  0  0  0
    9.8174   -0.7523   22.6794 C   0  0  0  0  0  0  0  0  0  0  0  0
    8.3195   -0.6076   22.6202 C   0  0  1  0  0  0  0  0  0  0  0  0
    7.8983    0.2184   23.8631 C   0  0  0  0  0  0  0  0  0  0  0  0
    8.6552    1.4598   23.9364 N   0  0  0  0  0  0  0  0  0  0  0  0
    7.9805    2.7200   24.2028 C   0  0  0  0  0  0  0  0  0  0  0  0
    7.5260    2.8861   25.6431 C   0  0  0  0  0  0  0  0  0  0  0  0
    6.4442    2.2373   26.1994 C   0  0  0  0  0  0  0  0  0  0  0  0
    6.2557    2.3741   27.5772 C   0  0  0  0  0  0  0  0  0  0  0  0
    7.0086    3.1304   28.3688 N   0  0  0  0  0  0  0  0  0  0  0  0
    8.0245    3.7967   27.8345 N   0  0  0  0  0  0  0  0  0  0  0  0
    8.2692    3.6735   26.5329 C   0  0  0  0  0  0  0  0  0  0  0  0
    9.1391    4.2192   26.1671 H   0  0  0  0  0  0  0  0  0  0  0  0
    5.4425    1.8426   28.0654 H   0  0  0  0  0  0  0  0  0  0  0  0
    5.7502    1.6290   25.6122 H   0  0  0  0  0  0  0  0  0  0  0  0
    7.1492    2.8336   23.4945 H   0  0  0  0  0  0  0  0  0  0  0  0
    8.7073    3.5054   23.9910 H   0  0  0  0  0  0  0  0  0  0  0  0
    8.0864   -0.3892   24.7611 H   0  0  0  0  0  0  0  0  0  0  0  0
    6.8251    0.4454   23.8371 H   0  0  0  0  0  0  0  0  0  0  0  0
    7.9278    0.1189   21.3177 C   0  0  0  0  0  0  0  0  0  0  0  0
    8.4707    1.0726   20.8040 O   0  0  0  0  0  0  0  0  0  0  0  0
    6.8123   -0.5070   20.8086 N   0  0  0  0  0  0  0  0  0  0  0  0
    6.0851    0.0715   19.7487 C   0  0  0  0  0  0  0  0  0  0  0  0
    6.4426   -0.2042   18.4574 C   0  0  0  0  0  0  0  0  0  0  0  0
    5.7776    0.2550   17.3709 N   0  0  0  0  0  0  0  0  0  0  0  0
    4.7417    1.0257   17.5836 C   0  0  0  0  0  0  0  0  0  0  0  0
    4.2873    1.4177   18.8758 C   0  0  0  0  0  0  0  0  0  0  0  0
    3.1765    2.2803   19.0485 C   0  0  0  0  0  0  0  0  0  0  0  0
    2.7809    2.6546   20.3011 C   0  0  0  0  0  0  0  0  0  0  0  0
    3.4778    2.1936   21.4399 C   0  0  0  0  0  0  0  0  0  0  0  0
    4.5556    1.3563   21.3030 C   0  0  0  0  0  0  0  0  0  0  0  0
    4.9791    0.9377   20.0075 C   0  0  0  0  0  0  0  0  0  0  0  0
    5.0904    1.0252   22.1896 H   0  0  0  0  0  0  0  0  0  0  0  0
    3.1527    2.5047   22.4273 H   0  0  0  0  0  0  0  0  0  0  0  0
    1.9311    3.3160   20.4288 H   0  0  0  0  0  0  0  0  0  0  0  0
    2.6634    2.6367   18.1602 H   0  0  0  0  0  0  0  0  0  0  0  0
    4.2024    1.3865   16.7076 H   0  0  0  0  0  0  0  0  0  0  0  0
    7.3092   -0.8345   18.2739 H   0  0  0  0  0  0  0  0  0  0  0  0
    6.3204   -1.6126   21.5989 C   0  0  0  0  0  0  0  0  0  0  0  0
    7.5282   -1.9421   22.4832 C   0  0  2  0  0  0  0  0  0  0  0  0
    7.1560   -2.6443   23.7956 C   0  0  0  0  0  0  0  0  0  0  0  0
    6.5318   -3.9399   23.6094 N   0  0  0  0  0  0  0  0  0  0  0  0
    5.1967   -4.1377   23.4233 C   0  0  0  0  0  0  0  0  0  0  0  0
    4.1968   -3.2834   23.9303 C   0  0  0  0  0  0  0  0  0  0  0  0
    2.8888   -3.6793   23.7376 C   0  0  0  0  0  0  0  0  0  0  0  0
    2.5426   -4.7706   23.0470 N   0  0  0  0  0  0  0  0  0  0  0  0
    3.5665   -5.4695   22.5733 C   0  0  0  0  0  0  0  0  0  0  0  0
    4.8626   -5.2426   22.7362 N   0  0  0  0  0  0  0  0  0  0  0  0
    3.3111   -6.3386   21.9699 H   0  0  0  0  0  0  0  0  0  0  0  0
    2.0631   -3.0835   24.1341 H   0  0  0  0  0  0  0  0  0  0  0  0
    4.4241   -2.3612   24.4541 H   0  0  0  0  0  0  0  0  0  0  0  0
    7.0910   -4.6739   23.1953 H   0  0  0  0  0  0  0  0  0  0  0  0
    8.0541   -2.7668   24.4125 H   0  0  0  0  0  0  0  0  0  0  0  0
    6.4638   -2.0169   24.3645 H   0  0  0  0  0  0  0  0  0  0  0  0
    8.1486   -2.6317   21.9019 H   0  0  0  0  0  0  0  0  0  0  0  0
    6.0220   -2.4410   20.9487 H   0  0  0  0  0  0  0  0  0  0  0  0
    5.4360   -1.3366   22.1969 H   0  0  0  0  0  0  0  0  0  0  0  0
    9.8982   -2.4276   21.3124 H   0  0  0  0  0  0  0  0  0  0  0  0
   13.5793   -1.4471   23.2730 H   0  0  0  0  0  0  0  0  0  0  0  0
   12.5528    0.6734   24.0801 H   0  0  0  0  0  0  0  0  0  0  0  0
  1  2  2  0
  2  3  1  0
  3  4  2  0
  4  5  1  0
  5  6  2  0
  6  7  1  0
  6  8  1  0
  8  9  2  0
  9 10  1  0
 10 11  1  1
 11 12  1  0
 12 13  1  0
 13 14  1  0
 14 15  2  0
 15 16  1  0
 16 17  2  0
 17 18  1  0
 18 19  2  0
 19 20  1  0
 16 21  1  0
 15 22  1  0
 13 23  1  0
 13 24  1  0
 11 25  1  0
 11 26  1  0
 10 27  1  0
 27 28  2  0
 27 29  1  0
 29 30  1  0
 30 31  2  0
 31 32  1  0
 32 33  2  0
 33 34  1  0
 34 35  2  0
 35 36  1  0
 36 37  2  0
 37 38  1  0
 38 39  2  0
 38 40  1  0
 37 41  1  0
 36 42  1  0
 35 43  1  0
 33 44  1  0
 31 45  1  0
 29 46  1  0
 46 47  1  0
 47 48  1  0
 48 49  1  0
 49 50  1  0
 50 51  2  0
 51 52  1  0
 52 53  2  0
 53 54  1  0
 54 55  2  0
 54 56  1  0
 52 57  1  0
 51 58  1  0
 49 59  1  0
 48 60  1  0
 48 61  1  0
 47 62  1  6
 46 63  1  0
 46 64  1  0
  8 65  1  0
  5 66  1  0
  4 67  1  0
 12  2  1  0
 19 14  1  0
 39 30  1  0
 55 50  1  0
  9  3  1  0
 47 10  1  0
 39 34  1  0
M  END
>  <cnnaffinities>  (4) 
[6.39617, 6.85728]

>  <score>  (4) 
6.39617

>  <index>  (4) 
3

>  <Smiles>  (4) 
O=C1c2c(c(c(Cl)c(c2[C@@]2(C(N1C(c1c(c(nnc1[H])[H])[H])([H])[H])([H])[H])C(=O)N(c1c(nc(c3c(c(c(c(c13)[H])[H])[H])[H])[H])[H])C([C@@]2(C(N(c1c(c(nc(n1)[H])[H])[H])[H])([H])[H])[H])([H])[H])[H])[H])[H]

>  <h>  (4) 
<NA>

>  <Training>  (4) 
True

>  <Success>  (4) 
True

>  <enamine_searched>  (4) 
False

>  <enamine_id>  (4) 
nan

$$$$

     RDKit          3D

 41 44  0  0  0  0  0  0  0  0999 V2000
    9.0935    2.1725   23.9870 C   0  0  0  0  0  0  0  0  0  0  0  0
    9.7489    1.2179   22.9817 C   0  0  1  0  0  0  0  0  0  0  0  0
   10.9876    0.6134   23.5605 C   0  0  0  0  0  0  0  0  0  0  0  0
   12.2976    1.1950   23.6264 C   0  0  0  0  0  0  0  0  0  0  0  0
   13.1827    0.3734   24.2506 C   0  0  0  0  0  0  0  0  0  0  0  0
   12.4219   -1.0499   24.8472 S   0  0  0  0  0  0  0  0  0  0  0  0
   10.9131   -0.5877   24.1754 C   0  0  0  0  0  0  0  0  0  0  0  0
    9.6477   -1.3655   24.2867 C   0  0  0  0  0  0  0  0  0  0  0  0
    8.8157   -1.1901   23.0183 C   0  0  0  0  0  0  0  0  0  0  0  0
    8.7995    0.1859   22.5096 N   0  0  0  0  0  0  0  0  0  0  0  0
    7.9543    0.5844   21.5050 C   0  0  0  0  0  0  0  0  0  0  0  0
    7.9846    1.7271   21.0713 O   0  0  0  0  0  0  0  0  0  0  0  0
    6.9630   -0.4529   20.9163 C   0  0  0  0  0  0  0  0  0  0  0  0
    6.1269    0.0921   19.7820 C   0  0  0  0  0  0  0  0  0  0  0  0
    6.4346   -0.2058   18.4814 C   0  0  0  0  0  0  0  0  0  0  0  0
    5.7675    0.2482   17.3890 N   0  0  0  0  0  0  0  0  0  0  0  0
    4.7412    1.0302   17.5903 C   0  0  0  0  0  0  0  0  0  0  0  0
    4.2933    1.4240   18.8776 C   0  0  0  0  0  0  0  0  0  0  0  0
    3.1757    2.2789   19.0488 C   0  0  0  0  0  0  0  0  0  0  0  0
    2.7708    2.6489   20.2994 C   0  0  0  0  0  0  0  0  0  0  0  0
    3.4745    2.1770   21.4337 C   0  0  0  0  0  0  0  0  0  0  0  0
    4.5612    1.3508   21.2925 C   0  0  0  0  0  0  0  0  0  0  0  0
    5.0033    0.9482   20.0058 C   0  0  0  0  0  0  0  0  0  0  0  0
    5.0982    0.9978   22.1685 H   0  0  0  0  0  0  0  0  0  0  0  0
    3.1458    2.4752   22.4237 H   0  0  0  0  0  0  0  0  0  0  0  0
    1.9196    3.3111   20.4304 H   0  0  0  0  0  0  0  0  0  0  0  0
    2.6640    2.6379   18.1588 H   0  0  0  0  0  0  0  0  0  0  0  0
    4.2100    1.3872   16.7063 H   0  0  0  0  0  0  0  0  0  0  0  0
    7.2749   -0.8569   18.2389 H   0  0  0  0  0  0  0  0  0  0  0  0
    6.3161   -0.8461   21.7140 H   0  0  0  0  0  0  0  0  0  0  0  0
    7.5424   -1.3118   20.5493 H   0  0  0  0  0  0  0  0  0  0  0  0
    9.1987   -1.8702   22.2430 H   0  0  0  0  0  0  0  0  0  0  0  0
    7.7873   -1.4837   23.2422 H   0  0  0  0  0  0  0  0  0  0  0  0
    9.8451   -2.4268   24.4463 H   0  0  0  0  0  0  0  0  0  0  0  0
    9.0984   -1.0082   25.1685 H   0  0  0  0  0  0  0  0  0  0  0  0
   14.2572    0.4216   24.2984 H   0  0  0  0  0  0  0  0  0  0  0  0
   12.5610    2.1681   23.2241 H   0  0  0  0  0  0  0  0  0  0  0  0
   10.0169    1.7888   22.0865 H   0  0  0  0  0  0  0  0  0  0  0  0
    8.7819    1.6108   24.8732 H   0  0  0  0  0  0  0  0  0  0  0  0
    9.8375    2.9131   24.2978 H   0  0  0  0  0  0  0  0  0  0  0  0
    8.2326    2.6851   23.5488 H   0  0  0  0  0  0  0  0  0  0  0  0
  1  2  1  0
  2  3  1  0
  3  4  1  0
  4  5  2  0
  5  6  1  0
  6  7  1  0
  7  8  1  0
  8  9  1  0
  9 10  1  0
 10 11  1  0
 11 12  2  0
 11 13  1  0
 13 14  1  0
 14 15  2  0
 15 16  1  0
 16 17  2  0
 17 18  1  0
 18 19  2  0
 19 20  1  0
 20 21  2  0
 21 22  1  0
 22 23  2  0
 22 24  1  0
 21 25  1  0
 20 26  1  0
 19 27  1  0
 17 28  1  0
 15 29  1  0
 13 30  1  0
 13 31  1  0
  9 32  1  0
  9 33  1  0
  8 34  1  0
  8 35  1  0
  5 36  1  0
  4 37  1  0
  2 38  1  6
  1 39  1  0
  1 40  1  0
  1 41  1  0
 10  2  1  0
 23 14  1  0
  7  3  2  0
 23 18  1  0
M  END
>  <cnnaffinities>  (5) 
[5.73539]

>  <score>  (5) 
5.73539

>  <index>  (5) 
4

>  <Smiles>  (5) 
C([C@]1(c2c(c(sc2C(C(N1C(=O)C(c1c(nc(c2c(c(c(c(c12)[H])[H])[H])[H])[H])[H])([H])[H])([H])[H])([H])[H])[H])[H])[H])([H])([H])[H]

>  <h>  (5) 
<NA>

>  <Training>  (5) 
True

>  <Success>  (5) 
True

>  <enamine_searched>  (5) 
False

>  <enamine_id>  (5) 
nan

$$$$

     RDKit          3D

 50 54  0  0  0  0  0  0  0  0999 V2000
   10.0277   -1.5385   22.4142 C   0  0  0  0  0  0  0  0  0  0  0  0
    8.6218   -0.9258   22.3525 C   0  0  1  0  0  0  0  0  0  0  0  0
    8.2965   -0.3479   20.9607 C   0  0  0  0  0  0  0  0  0  0  0  0
    6.8517   -0.4671   20.8547 N   0  0  0  0  0  0  0  0  0  0  0  0
    6.1018    0.0654   19.7809 C   0  0  0  0  0  0  0  0  0  0  0  0
    6.4443   -0.2229   18.4843 C   0  0  0  0  0  0  0  0  0  0  0  0
    5.7819    0.2453   17.4010 N   0  0  0  0  0  0  0  0  0  0  0  0
    4.7503    1.0239   17.6038 C   0  0  0  0  0  0  0  0  0  0  0  0
    4.2916    1.4171   18.8904 C   0  0  0  0  0  0  0  0  0  0  0  0
    3.1765    2.2809   19.0581 C   0  0  0  0  0  0  0  0  0  0  0  0
    2.7770    2.6640   20.3090 C   0  0  0  0  0  0  0  0  0  0  0  0
    3.4854    2.2099   21.4467 C   0  0  0  0  0  0  0  0  0  0  0  0
    4.5675    1.3765   21.3057 C   0  0  0  0  0  0  0  0  0  0  0  0
    4.9894    0.9377   20.0217 C   0  0  0  0  0  0  0  0  0  0  0  0
    5.1040    1.0255   22.1809 H   0  0  0  0  0  0  0  0  0  0  0  0
    3.1631    2.5150   22.4363 H   0  0  0  0  0  0  0  0  0  0  0  0
    1.9250    3.3249   20.4355 H   0  0  0  0  0  0  0  0  0  0  0  0
    2.6644    2.6364   18.1666 H   0  0  0  0  0  0  0  0  0  0  0  0
    4.2245    1.3776   16.7181 H   0  0  0  0  0  0  0  0  0  0  0  0
    7.2834   -0.8768   18.2578 H   0  0  0  0  0  0  0  0  0  0  0  0
    6.3168   -1.3968   21.7223 C   0  0  0  0  0  0  0  0  0  0  0  0
    5.1698   -1.7892   21.6909 O   0  0  0  0  0  0  0  0  0  0  0  0
    7.4385   -1.8717   22.6898 C   0  0  1  0  0  0  0  0  0  0  0  0
    7.7634   -3.3439   22.3514 C   0  0  0  0  0  0  0  0  0  0  0  0
    6.6385   -4.1903   22.6864 N   0  0  0  0  0  0  0  0  0  0  0  0
    6.1598   -5.2064   21.7894 C   0  0  0  0  0  0  0  0  0  0  0  0
    6.7743   -6.5332   22.0184 C   0  0  0  0  0  0  0  0  0  0  0  0
    7.2116   -7.5891   22.1892 N   0  0  0  0  0  0  0  0  0  0  0  0
    5.0798   -5.3149   21.9175 H   0  0  0  0  0  0  0  0  0  0  0  0
    6.3297   -4.8958   20.7553 H   0  0  0  0  0  0  0  0  0  0  0  0
    6.0768   -4.1386   23.9320 C   0  0  0  0  0  0  0  0  0  0  0  0
    5.2922   -4.9861   24.3238 O   0  0  0  0  0  0  0  0  0  0  0  0
    6.4092   -2.9320   24.7340 C   0  0  0  0  0  0  0  0  0  0  0  0
    5.9560   -2.9149   26.0489 C   0  0  0  0  0  0  0  0  0  0  0  0
    5.9398   -1.7394   26.7629 C   0  0  0  0  0  0  0  0  0  0  0  0
    6.3732   -0.5894   26.1082 C   0  0  0  0  0  0  0  0  0  0  0  0
    6.3072    0.5696   26.7801 F   0  0  0  0  0  0  0  0  0  0  0  0
    6.8708   -0.5834   24.8194 C   0  0  0  0  0  0  0  0  0  0  0  0
    6.9575   -1.7989   24.1263 C   0  0  0  0  0  0  0  0  0  0  0  0
    7.1386    0.3714   24.3703 H   0  0  0  0  0  0  0  0  0  0  0  0
    5.5726   -1.6845   27.7817 H   0  0  0  0  0  0  0  0  0  0  0  0
    5.5682   -3.8459   26.4397 H   0  0  0  0  0  0  0  0  0  0  0  0
    7.9512   -3.3906   21.2798 H   0  0  0  0  0  0  0  0  0  0  0  0
    8.6723   -3.6678   22.8861 H   0  0  0  0  0  0  0  0  0  0  0  0
    8.5955    0.7008   20.8702 H   0  0  0  0  0  0  0  0  0  0  0  0
    8.8152   -0.9172   20.1741 H   0  0  0  0  0  0  0  0  0  0  0  0
    8.5519   -0.1208   23.0885 H   0  0  0  0  0  0  0  0  0  0  0  0
   10.2381   -2.0054   23.3842 H   0  0  0  0  0  0  0  0  0  0  0  0
   10.7942   -0.7760   22.2365 H   0  0  0  0  0  0  0  0  0  0  0  0
   10.1553   -2.3157   21.6490 H   0  0  0  0  0  0  0  0  0  0  0  0
  1  2  1  0
  2  3  1  0
  3  4  1  0
  4  5  1  0
  5  6  2  0
  6  7  1  0
  7  8  2  0
  8  9  1  0
  9 10  2  0
 10 11  1  0
 11 12  2  0
 12 13  1  0
 13 14  2  0
 13 15  1  0
 12 16  1  0
 11 17  1  0
 10 18  1  0
  8 19  1  0
  6 20  1  0
  4 21  1  0
 21 22  2  0
 21 23  1  0
 23 24  1  6
 24 25  1  0
 25 26  1  0
 26 27  1  0
 27 28  3  0
 26 29  1  0
 26 30  1  0
 25 31  1  0
 31 32  2  0
 31 33  1  0
 33 34  2  0
 34 35  1  0
 35 36  2  0
 36 37  1  0
 36 38  1  0
 38 39  2  0
 38 40  1  0
 35 41  1  0
 34 42  1  0
 24 43  1  0
 24 44  1  0
  3 45  1  0
  3 46  1  0
  2 47  1  1
  1 48  1  0
  1 49  1  0
  1 50  1  0
 23  2  1  0
 39 33  1  0
 14  5  1  0
 39 23  1  0
 14  9  1  0
M  END
>  <cnnaffinities>  (6) 
[6.00691]

>  <score>  (6) 
6.00691

>  <index>  (6) 
5

>  <Smiles>  (6) 
C([C@]1(C(N(c2c(nc(c3c(c(c(c(c23)[H])[H])[H])[H])[H])[H])C(=O)[C@]21C(N(C(C#N)([H])[H])C(=O)c1c(c(c(F)c(c21)[H])[H])[H])([H])[H])([H])[H])[H])([H])([H])[H]

>  <h>  (6) 
<NA>

>  <Training>  (6) 
True

>  <Success>  (6) 
True

>  <enamine_searched>  (6) 
False

>  <enamine_id>  (6) 
nan

$$$$

     RDKit          3D

 65 69  0  0  0  0  0  0  0  0999 V2000
    8.1484   -5.5979   27.0293 C   0  0  0  0  0  0  0  0  0  0  0  0
    9.2892   -5.5651   26.0016 C   0  0  0  0  0  0  0  0  0  0  0  0
    8.9414   -4.5922   24.8960 C   0  0  0  0  0  0  0  0  0  0  0  0
    8.2526   -4.8788   23.9496 O   0  0  0  0  0  0  0  0  0  0  0  0
    9.5319   -3.2303   24.9352 N   0  0  1  0  0  4  0  0  0  0  0  0
   10.7869   -3.0593   23.9595 C   0  0  0  0  0  0  0  0  0  0  0  0
   11.1059   -1.6023   23.8165 C   0  0  0  0  0  0  0  0  0  0  0  0
    9.9251   -0.9050   23.1741 C   0  0  0  0  0  0  0  0  0  0  0  0
    8.6339   -1.1007   23.9331 C   0  0  0  0  0  0  0  0  0  0  0  0
    7.5745   -0.2000   23.7641 C   0  0  0  0  0  0  0  0  0  0  0  0
    7.7789    0.8711   22.8458 N   0  0  0  0  0  0  0  0  0  0  0  0
    8.2833    2.1153   23.4281 C   0  0  0  0  0  0  0  0  0  0  0  0
    7.1743    3.1312   23.4474 C   0  0  0  0  0  0  0  0  0  0  0  0
    6.2748    3.2292   24.5081 C   0  0  0  0  0  0  0  0  0  0  0  0
    5.1897    4.0919   24.4050 C   0  0  0  0  0  0  0  0  0  0  0  0
    5.0396    4.9009   23.2800 C   0  0  0  0  0  0  0  0  0  0  0  0
    5.9623    4.8024   22.2445 C   0  0  0  0  0  0  0  0  0  0  0  0
    5.8542    5.8924   20.8937 Cl  0  0  0  0  0  0  0  0  0  0  0  0
    6.9837    3.8738   22.2855 C   0  0  0  0  0  0  0  0  0  0  0  0
    7.6151    3.6818   21.4204 H   0  0  0  0  0  0  0  0  0  0  0  0
    4.1997    5.5763   23.1711 H   0  0  0  0  0  0  0  0  0  0  0  0
    4.4463    4.1345   25.1970 H   0  0  0  0  0  0  0  0  0  0  0  0
    6.4106    2.6262   25.4094 H   0  0  0  0  0  0  0  0  0  0  0  0
    8.6417    1.8871   24.4380 H   0  0  0  0  0  0  0  0  0  0  0  0
    9.1232    2.4726   22.8206 H   0  0  0  0  0  0  0  0  0  0  0  0
    7.7916    0.7163   21.4715 C   0  0  0  0  0  0  0  0  0  0  0  0
    8.4378    1.4451   20.7311 O   0  0  0  0  0  0  0  0  0  0  0  0
    6.9489   -0.4175   20.8768 C   0  0  0  0  0  0  0  0  0  0  0  0
    6.1046    0.0871   19.7415 C   0  0  0  0  0  0  0  0  0  0  0  0
    6.4326   -0.1920   18.4438 C   0  0  0  0  0  0  0  0  0  0  0  0
    5.7666    0.2685   17.3544 N   0  0  0  0  0  0  0  0  0  0  0  0
    4.7401    1.0481   17.5745 C   0  0  0  0  0  0  0  0  0  0  0  0
    4.2912    1.4361   18.8642 C   0  0  0  0  0  0  0  0  0  0  0  0
    3.1809    2.2961   19.0443 C   0  0  0  0  0  0  0  0  0  0  0  0
    2.7674    2.6442   20.2981 C   0  0  0  0  0  0  0  0  0  0  0  0
    3.4586    2.1545   21.4324 C   0  0  0  0  0  0  0  0  0  0  0  0
    4.5454    1.3329   21.2835 C   0  0  0  0  0  0  0  0  0  0  0  0
    4.9917    0.9446   19.9914 C   0  0  0  0  0  0  0  0  0  0  0  0
    5.0656    0.9766   22.1705 H   0  0  0  0  0  0  0  0  0  0  0  0
    3.1149    2.4277   22.4279 H   0  0  0  0  0  0  0  0  0  0  0  0
    1.9075    3.2940   20.4307 H   0  0  0  0  0  0  0  0  0  0  0  0
    2.6729    2.6760   18.1601 H   0  0  0  0  0  0  0  0  0  0  0  0
    4.2065    1.4194   16.6997 H   0  0  0  0  0  0  0  0  0  0  0  0
    7.2913   -0.8272   18.2226 H   0  0  0  0  0  0  0  0  0  0  0  0
    7.6465   -1.1781   20.5019 H   0  0  0  0  0  0  0  0  0  0  0  0
    6.3429   -0.8849   21.6554 H   0  0  0  0  0  0  0  0  0  0  0  0
    6.4291   -0.2760   24.5441 C   0  0  0  0  0  0  0  0  0  0  0  0
    6.2857   -1.3196   25.4554 C   0  0  0  0  0  0  0  0  0  0  0  0
    7.2900   -2.2751   25.5698 C   0  0  0  0  0  0  0  0  0  0  0  0
    8.4538   -2.1606   24.8015 C   0  0  0  0  0  0  0  0  0  0  0  0
    7.1792   -3.1117   26.2519 H   0  0  0  0  0  0  0  0  0  0  0  0
    5.3896   -1.3949   26.0656 H   0  0  0  0  0  0  0  0  0  0  0  0
    5.6548    0.4814   24.4472 H   0  0  0  0  0  0  0  0  0  0  0  0
    9.7866   -1.2957   22.1558 H   0  0  0  0  0  0  0  0  0  0  0  0
   10.1429    0.1585   23.0631 H   0  0  0  0  0  0  0  0  0  0  0  0
   11.9929   -1.4850   23.1824 H   0  0  0  0  0  0  0  0  0  0  0  0
   11.3465   -1.1553   24.7901 H   0  0  0  0  0  0  0  0  0  0  0  0
   11.6305   -3.6335   24.3699 H   0  0  0  0  0  0  0  0  0  0  0  0
   10.4980   -3.4912   22.9937 H   0  0  0  0  0  0  0  0  0  0  0  0
    9.9590   -3.1065   25.8767 H   0  0  0  0  0  0  0  0  0  0  0  0
    9.4338   -6.5345   25.5151 H   0  0  0  0  0  0  0  0  0  0  0  0
   10.2297   -5.2710   26.4813 H   0  0  0  0  0  0  0  0  0  0  0  0
    8.2180   -4.7114   27.6676 H   0  0  0  0  0  0  0  0  0  0  0  0
    7.1683   -5.5855   26.5386 H   0  0  0  0  0  0  0  0  0  0  0  0
    8.2052   -6.4853   27.6703 H   0  0  0  0  0  0  0  0  0  0  0  0
  1  2  1  0
  2  3  1  0
  3  4  2  0
  3  5  1  0
  5  6  1  0
  6  7  1  0
  7  8  1  0
  8  9  1  0
  9 10  2  0
 10 11  1  0
 11 12  1  0
 12 13  1  0
 13 14  2  0
 14 15  1  0
 15 16  2  0
 16 17  1  0
 17 18  1  0
 17 19  2  0
 19 20  1  0
 16 21  1  0
 15 22  1  0
 14 23  1  0
 12 24  1  0
 12 25  1  0
 11 26  1  0
 26 27  2  0
 26 28  1  0
 28 29  1  0
 29 30  2  0
 30 31  1  0
 31 32  2  0
 32 33  1  0
 33 34  2  0
 34 35  1  0
 35 36  2  0
 36 37  1  0
 37 38  2  0
 37 39  1  0
 36 40  1  0
 35 41  1  0
 34 42  1  0
 32 43  1  0
 30 44  1  0
 28 45  1  0
 28 46  1  0
 10 47  1  0
 47 48  2  0
 48 49  1  0
 49 50  2  0
 49 51  1  0
 48 52  1  0
 47 53  1  0
  8 54  1  0
  8 55  1  0
  7 56  1  0
  7 57  1  0
  6 58  1  0
  6 59  1  0
  5 60  1  1
  2 61  1  0
  2 62  1  0
  1 63  1  0
  1 64  1  0
  1 65  1  0
 50  5  1  0
 50  9  1  0
 19 13  1  0
 38 29  1  0
 38 33  1  0
M  CHG  1   5   1
M  END
>  <cnnaffinities>  (7) 
[6.0606]

>  <score>  (7) 
6.0606

>  <index>  (7) 
6

>  <Smiles>  (7) 
C(C(C(=O)[N@+]1(C(C(C(c2c(N(C(c3c(c(c(c(Cl)c3[H])[H])[H])[H])([H])[H])C(=O)C(c3c(nc(c4c(c(c(c(c34)[H])[H])[H])[H])[H])[H])([H])[H])c(c(c(c12)[H])[H])[H])([H])[H])([H])[H])([H])[H])[H])([H])[H])([H])([H])[H]

>  <h>  (7) 
<NA>

>  <Training>  (7) 
True

>  <Success>  (7) 
True

>  <enamine_searched>  (7) 
False

>  <enamine_id>  (7) 
nan

$$$$

     RDKit          3D

 37 39  0  0  0  0  0  0  0  0999 V2000
    5.6411   -2.5342   20.8835 O   0  0  0  0  0  0  0  0  0  0  0  0
    6.1298   -1.6642   21.5766 C   0  0  0  0  0  0  0  0  0  0  0  0
    6.9048   -0.4977   20.9185 C   0  0  0  0  0  0  0  0  0  0  0  0
    6.1167    0.0937   19.7680 C   0  0  0  0  0  0  0  0  0  0  0  0
    6.4230   -0.2122   18.4677 C   0  0  0  0  0  0  0  0  0  0  0  0
    5.7560    0.2440   17.3744 N   0  0  0  0  0  0  0  0  0  0  0  0
    4.7326    1.0327   17.5801 C   0  0  0  0  0  0  0  0  0  0  0  0
    4.2852    1.4245   18.8690 C   0  0  0  0  0  0  0  0  0  0  0  0
    3.1635    2.2732   19.0448 C   0  0  0  0  0  0  0  0  0  0  0  0
    2.7479    2.6271   20.2994 C   0  0  0  0  0  0  0  0  0  0  0  0
    3.4431    2.1434   21.4309 C   0  0  0  0  0  0  0  0  0  0  0  0
    4.5340    1.3220   21.2877 C   0  0  0  0  0  0  0  0  0  0  0  0
    4.9913    0.9422   19.9982 C   0  0  0  0  0  0  0  0  0  0  0  0
    5.0497    0.9593   22.1732 H   0  0  0  0  0  0  0  0  0  0  0  0
    3.1070    2.4269   22.4234 H   0  0  0  0  0  0  0  0  0  0  0  0
    1.8903    3.2818   20.4346 H   0  0  0  0  0  0  0  0  0  0  0  0
    2.6474    2.6417   18.1617 H   0  0  0  0  0  0  0  0  0  0  0  0
    4.2013    1.3972   16.6982 H   0  0  0  0  0  0  0  0  0  0  0  0
    7.2642   -0.8660   18.2385 H   0  0  0  0  0  0  0  0  0  0  0  0
    7.8409   -0.9099   20.5209 H   0  0  0  0  0  0  0  0  0  0  0  0
    7.1727    0.2822   21.6445 H   0  0  0  0  0  0  0  0  0  0  0  0
    5.9732   -1.6710   22.9565 N   0  0  0  0  0  0  0  0  0  0  0  0
    4.6557   -2.0071   23.4892 C   0  0  0  0  0  0  0  0  0  0  0  0
    4.7527   -2.8262   24.7658 C   0  0  0  0  0  0  0  0  0  0  0  0
    5.6501   -2.1400   25.7876 C   0  0  0  0  0  0  0  0  0  0  0  0
    7.0159   -1.8684   25.1731 C   0  0  0  0  0  0  0  0  0  0  0  0
    6.9003   -1.0505   23.8873 C   0  0  0  0  0  0  0  0  0  0  0  0
    7.8750   -0.9918   23.4047 H   0  0  0  0  0  0  0  0  0  0  0  0
    6.5989   -0.0209   24.1431 H   0  0  0  0  0  0  0  0  0  0  0  0
    7.5160   -2.8169   24.9561 H   0  0  0  0  0  0  0  0  0  0  0  0
    7.6592   -1.3415   25.8820 H   0  0  0  0  0  0  0  0  0  0  0  0
    5.7465   -2.7552   26.6891 H   0  0  0  0  0  0  0  0  0  0  0  0
    5.1936   -1.1944   26.1081 H   0  0  0  0  0  0  0  0  0  0  0  0
    3.7515   -2.9867   25.1796 H   0  0  0  0  0  0  0  0  0  0  0  0
    5.1503   -3.8172   24.5289 H   0  0  0  0  0  0  0  0  0  0  0  0
    4.0802   -1.0883   23.6950 H   0  0  0  0  0  0  0  0  0  0  0  0
    4.1251   -2.5511   22.7092 H   0  0  0  0  0  0  0  0  0  0  0  0
  1  2  2  0
  2  3  1  0
  3  4  1  0
  4  5  2  0
  5  6  1  0
  6  7  2  0
  7  8  1  0
  8  9  2  0
  9 10  1  0
 10 11  2  0
 11 12  1  0
 12 13  2  0
 12 14  1  0
 11 15  1  0
 10 16  1  0
  9 17  1  0
  7 18  1  0
  5 19  1  0
  3 20  1  0
  3 21  1  0
  2 22  1  0
 22 23  1  0
 23 24  1  0
 24 25  1  0
 25 26  1  0
 26 27  1  0
 27 28  1  0
 27 29  1  0
 26 30  1  0
 26 31  1  0
 25 32  1  0
 25 33  1  0
 24 34  1  0
 24 35  1  0
 23 36  1  0
 23 37  1  0
 13  4  1  0
 27 22  1  0
 13  8  1  0
M  END
>  <cnnaffinities>  (8) 
[4.9632, 4.40465, 5.05638, 5.05646, 4.77574, 5.05951, 5.05941]

>  <score>  (8) 
4.9632

>  <index>  (8) 
7

>  <Smiles>  (8) 
O=C(C(c1c(nc(c2c(c(c(c(c12)[H])[H])[H])[H])[H])[H])([H])[H])N1C(C(C(C(C1([H])[H])([H])[H])([H])[H])([H])[H])([H])[H]

>  <h>  (8) 
<NA>

>  <Training>  (8) 
True

>  <Success>  (8) 
True

>  <enamine_searched>  (8) 
False

>  <enamine_id>  (8) 
nan

$$$$

     RDKit          3D

 66 71  0  0  0  0  0  0  0  0999 V2000
    7.7858   -2.9574   23.3349 C   0  0  0  0  0  0  0  0  0  0  0  0
    8.0367   -1.8729   22.2800 C   0  0  1  0  0  0  0  0  0  0  0  0
    6.9059   -1.7710   21.2430 C   0  0  0  0  0  0  0  0  0  0  0  0
    6.9203   -0.3869   20.8281 N   0  0  0  0  0  0  0  0  0  0  0  0
    6.1356    0.1132   19.7681 C   0  0  0  0  0  0  0  0  0  0  0  0
    6.4430   -0.2260   18.4748 C   0  0  0  0  0  0  0  0  0  0  0  0
    5.7703    0.2256   17.3924 N   0  0  0  0  0  0  0  0  0  0  0  0
    4.7500    1.0196   17.6011 C   0  0  0  0  0  0  0  0  0  0  0  0
    4.3019    1.4181   18.8911 C   0  0  0  0  0  0  0  0  0  0  0  0
    3.1772    2.2685   19.0583 C   0  0  0  0  0  0  0  0  0  0  0  0
    2.7453    2.6139   20.3086 C   0  0  0  0  0  0  0  0  0  0  0  0
    3.4176    2.1202   21.4504 C   0  0  0  0  0  0  0  0  0  0  0  0
    4.5089    1.3009   21.3141 C   0  0  0  0  0  0  0  0  0  0  0  0
    4.9983    0.9445   20.0225 C   0  0  0  0  0  0  0  0  0  0  0  0
    5.0116    0.9236   22.2009 H   0  0  0  0  0  0  0  0  0  0  0  0
    3.0658    2.3955   22.4406 H   0  0  0  0  0  0  0  0  0  0  0  0
    1.8909    3.2741   20.4337 H   0  0  0  0  0  0  0  0  0  0  0  0
    2.6762    2.6381   18.1679 H   0  0  0  0  0  0  0  0  0  0  0  0
    4.2174    1.3828   16.7226 H   0  0  0  0  0  0  0  0  0  0  0  0
    7.2913   -0.8807   18.2714 H   0  0  0  0  0  0  0  0  0  0  0  0
    7.6299    0.4397   21.6597 C   0  0  0  0  0  0  0  0  0  0  0  0
    7.7535    1.6351   21.5090 O   0  0  0  0  0  0  0  0  0  0  0  0
    8.2273   -0.4160   22.7951 C   0  0  1  0  0  0  0  0  0  0  0  0
    7.4338   -0.1571   24.1040 C   0  0  0  0  0  0  0  0  0  0  0  0
    7.6238    1.1951   24.5835 N   0  0  0  0  0  0  0  0  0  0  0  0
    6.4961    1.9501   25.0791 C   0  0  0  0  0  0  0  0  0  0  0  0
    6.0433    1.5115   26.4644 C   0  0  0  0  0  0  0  0  0  0  0  0
    5.2483    0.5950   26.6160 O   0  0  0  0  0  0  0  0  0  0  0  0
    6.5752    2.2062   27.5043 N   0  0  0  0  0  0  0  0  0  0  0  0
    6.1739    1.8403   28.8614 C   0  0  0  0  0  0  0  0  0  0  0  0
    4.7382    2.1955   29.1687 C   0  0  0  0  0  0  0  0  0  0  0  0
    3.6131    1.4126   29.3457 C   0  0  0  0  0  0  0  0  0  0  0  0
    2.5545    2.3293   29.4975 C   0  0  0  0  0  0  0  0  0  0  0  0
    2.9905    3.5804   29.4358 N   0  0  0  0  0  0  0  0  0  0  0  0
    4.3117    3.4791   29.2450 N   0  0  0  0  0  0  0  0  0  0  0  0
    5.0935    4.6823   29.1115 C   0  0  0  0  0  0  0  0  0  0  0  0
    5.4019    4.8339   28.0734 H   0  0  0  0  0  0  0  0  0  0  0  0
    4.4494    5.5005   29.4319 H   0  0  0  0  0  0  0  0  0  0  0  0
    5.9764    4.6319   29.7527 H   0  0  0  0  0  0  0  0  0  0  0  0
    1.4920    2.1598   29.6300 H   0  0  0  0  0  0  0  0  0  0  0  0
    3.5867    0.3312   29.2863 H   0  0  0  0  0  0  0  0  0  0  0  0
    6.2599    0.7557   28.9710 H   0  0  0  0  0  0  0  0  0  0  0  0
    6.8709    2.3054   29.5700 H   0  0  0  0  0  0  0  0  0  0  0  0
    7.3617    2.8140   27.3227 H   0  0  0  0  0  0  0  0  0  0  0  0
    5.6412    1.8178   24.4099 H   0  0  0  0  0  0  0  0  0  0  0  0
    6.7989    2.9967   25.0737 H   0  0  0  0  0  0  0  0  0  0  0  0
    8.8432    1.8044   24.5761 C   0  0  0  0  0  0  0  0  0  0  0  0
    9.0007    2.9149   25.0714 O   0  0  0  0  0  0  0  0  0  0  0  0
    9.9538    1.0205   23.9364 C   0  0  0  0  0  0  0  0  0  0  0  0
   11.2820    1.3637   24.1753 C   0  0  0  0  0  0  0  0  0  0  0  0
   12.3029    0.8273   23.4170 C   0  0  0  0  0  0  0  0  0  0  0  0
   11.9905   -0.0446   22.3677 C   0  0  0  0  0  0  0  0  0  0  0  0
   10.6768   -0.4326   22.1560 C   0  0  0  0  0  0  0  0  0  0  0  0
    9.6573    0.0231   23.0013 C   0  0  0  0  0  0  0  0  0  0  0  0
   10.4430   -1.0835   21.3120 H   0  0  0  0  0  0  0  0  0  0  0  0
   12.7726   -0.4073   21.7044 H   0  0  0  0  0  0  0  0  0  0  0  0
   13.3327    1.1220   23.6217 H   0  0  0  0  0  0  0  0  0  0  0  0
   11.5182    2.0793   24.9358 H   0  0  0  0  0  0  0  0  0  0  0  0
    7.7671   -0.8599   24.8817 H   0  0  0  0  0  0  0  0  0  0  0  0
    6.3602   -0.3078   23.9305 H   0  0  0  0  0  0  0  0  0  0  0  0
    5.9412   -2.0393   21.6930 H   0  0  0  0  0  0  0  0  0  0  0  0
    7.0554   -2.4035   20.3717 H   0  0  0  0  0  0  0  0  0  0  0  0
    8.9565   -2.1308   21.7546 H   0  0  0  0  0  0  0  0  0  0  0  0
    8.5736   -2.9940   24.0986 H   0  0  0  0  0  0  0  0  0  0  0  0
    7.7317   -3.9508   22.8749 H   0  0  0  0  0  0  0  0  0  0  0  0
    6.8322   -2.7871   23.8484 H   0  0  0  0  0  0  0  0  0  0  0  0
  1  2  1  0
  2  3  1  0
  3  4  1  0
  4  5  1  0
  5  6  2  0
  6  7  1  0
  7  8  2  0
  8  9  1  0
  9 10  2  0
 10 11  1  0
 11 12  2  0
 12 13  1  0
 13 14  2  0
 13 15  1  0
 12 16  1  0
 11 17  1  0
 10 18  1  0
  8 19  1  0
  6 20  1  0
  4 21  1  0
 21 22  2  0
 21 23  1  0
 23 24  1  1
 24 25  1  0
 25 26  1  0
 26 27  1  0
 27 28  2  0
 27 29  1  0
 29 30  1  0
 30 31  1  0
 31 32  2  0
 32 33  1  0
 33 34  2  0
 34 35  1  0
 35 36  1  0
 36 37  1  0
 36 38  1  0
 36 39  1  0
 33 40  1  0
 32 41  1  0
 30 42  1  0
 30 43  1  0
 29 44  1  0
 26 45  1  0
 26 46  1  0
 25 47  1  0
 47 48  2  0
 47 49  1  0
 49 50  2  0
 50 51  1  0
 51 52  2  0
 52 53  1  0
 53 54  2  0
 53 55  1  0
 52 56  1  0
 51 57  1  0
 50 58  1  0
 24 59  1  0
 24 60  1  0
  3 61  1  0
  3 62  1  0
  2 63  1  6
  1 64  1  0
  1 65  1  0
  1 66  1  0
 23  2  1  0
 35 31  1  0
 54 49  1  0
 14  5  1  0
 54 23  1  0
 14  9  1  0
M  END
>  <cnnaffinities>  (9) 
[6.52166, 6.48065]

>  <score>  (9) 
6.52166

>  <index>  (9) 
8

>  <Smiles>  (9) 
C([C@]1(C(N(c2c(nc(c3c(c(c(c(c23)[H])[H])[H])[H])[H])[H])C(=O)[C@]21C(N(C(C(=O)N(C(c1c(c(nn1C([H])([H])[H])[H])[H])([H])[H])[H])([H])[H])C(=O)c1c(c(c(c(c21)[H])[H])[H])[H])([H])[H])([H])[H])[H])([H])([H])[H]

>  <h>  (9) 
<NA>

>  <Training>  (9) 
True

>  <Success>  (9) 
True

>  <enamine_searched>  (9) 
False

>  <enamine_id>  (9) 
nan

$$$$

     RDKit          3D

 58 63  0  0  0  0  0  0  0  0999 V2000
    5.4069    5.0638   21.9513 C   0  0  0  0  0  0  0  0  0  0  0  0
    6.0093    4.2327   23.0370 C   0  0  0  0  0  0  0  0  0  0  0  0
    7.3960    4.0225   23.2630 C   0  0  0  0  0  0  0  0  0  0  0  0
    7.4221    3.1314   24.2805 C   0  0  0  0  0  0  0  0  0  0  0  0
    8.5375    2.4467   24.9918 C   0  0  0  0  0  0  0  0  0  0  0  0
    9.1911    1.4131   24.1972 N   0  0  0  0  0  0  0  0  0  0  0  0
    8.5282    0.1348   24.0039 C   0  0  0  0  0  0  0  0  0  0  0  0
    8.6271   -0.4038   22.5518 C   0  0  2  0  0  0  0  0  0  0  0  0
    7.8289    0.4726   21.5588 C   0  0  0  0  0  0  0  0  0  0  0  0
    7.9808    1.6555   21.3531 O   0  0  0  0  0  0  0  0  0  0  0  0
    6.9151   -0.3267   20.9016 N   0  0  0  0  0  0  0  0  0  0  0  0
    6.1533    0.1468   19.8040 C   0  0  0  0  0  0  0  0  0  0  0  0
    6.4627   -0.2088   18.5141 C   0  0  0  0  0  0  0  0  0  0  0  0
    5.7917    0.2257   17.4199 N   0  0  0  0  0  0  0  0  0  0  0  0
    4.7678    1.0203   17.6083 C   0  0  0  0  0  0  0  0  0  0  0  0
    4.3120    1.4341   18.8915 C   0  0  0  0  0  0  0  0  0  0  0  0
    3.1808    2.2779   19.0523 C   0  0  0  0  0  0  0  0  0  0  0  0
    2.7475    2.6236   20.3033 C   0  0  0  0  0  0  0  0  0  0  0  0
    3.4165    2.1376   21.4483 C   0  0  0  0  0  0  0  0  0  0  0  0
    4.5187    1.3257   21.3197 C   0  0  0  0  0  0  0  0  0  0  0  0
    5.0074    0.9721   20.0324 C   0  0  0  0  0  0  0  0  0  0  0  0
    5.0175    0.9213   22.1948 H   0  0  0  0  0  0  0  0  0  0  0  0
    3.0584    2.4112   22.4366 H   0  0  0  0  0  0  0  0  0  0  0  0
    1.8833    3.2732   20.4211 H   0  0  0  0  0  0  0  0  0  0  0  0
    2.6754    2.6390   18.1611 H   0  0  0  0  0  0  0  0  0  0  0  0
    4.2332    1.3674   16.7239 H   0  0  0  0  0  0  0  0  0  0  0  0
    7.3131   -0.8593   18.3072 H   0  0  0  0  0  0  0  0  0  0  0  0
    7.1664   -1.7369   21.0844 C   0  0  0  0  0  0  0  0  0  0  0  0
    8.0164   -1.8338   22.3659 C   0  0  2  0  0  0  0  0  0  0  0  0
    7.2173   -2.3950   23.5401 C   0  0  0  0  0  0  0  0  0  0  0  0
    6.8641   -3.4033   23.3006 H   0  0  0  0  0  0  0  0  0  0  0  0
    7.8466   -2.4837   24.4293 H   0  0  0  0  0  0  0  0  0  0  0  0
    6.3526   -1.7668   23.7766 H   0  0  0  0  0  0  0  0  0  0  0  0
    8.8321   -2.5472   22.2112 H   0  0  0  0  0  0  0  0  0  0  0  0
    7.7055   -2.1346   20.2212 H   0  0  0  0  0  0  0  0  0  0  0  0
    6.2216   -2.2810   21.1588 H   0  0  0  0  0  0  0  0  0  0  0  0
   10.0999   -0.3460   22.1693 C   0  0  0  0  0  0  0  0  0  0  0  0
   10.6355   -1.2882   21.2863 C   0  0  0  0  0  0  0  0  0  0  0  0
   11.9953   -1.2902   21.0456 C   0  0  0  0  0  0  0  0  0  0  0  0
   12.4978   -2.2782   20.2844 F   0  0  0  0  0  0  0  0  0  0  0  0
   12.8077   -0.2415   21.4859 C   0  0  0  0  0  0  0  0  0  0  0  0
   12.2521    0.7744   22.2335 C   0  0  0  0  0  0  0  0  0  0  0  0
   10.9130    0.6953   22.6316 C   0  0  0  0  0  0  0  0  0  0  0  0
   10.3863    1.7148   23.5952 C   0  0  0  0  0  0  0  0  0  0  0  0
   11.0005    2.7387   23.8445 O   0  0  0  0  0  0  0  0  0  0  0  0
   12.8758    1.6262   22.4901 H   0  0  0  0  0  0  0  0  0  0  0  0
   13.8477   -0.1763   21.1900 H   0  0  0  0  0  0  0  0  0  0  0  0
    9.9988   -1.9902   20.7540 H   0  0  0  0  0  0  0  0  0  0  0  0
    7.4863    0.2721   24.2877 H   0  0  0  0  0  0  0  0  0  0  0  0
    8.9812   -0.6125   24.6691 H   0  0  0  0  0  0  0  0  0  0  0  0
    9.3087    3.1825   25.2283 H   0  0  0  0  0  0  0  0  0  0  0  0
    8.1307    2.0424   25.9177 H   0  0  0  0  0  0  0  0  0  0  0  0
    6.1732    2.8558   24.6821 O   0  0  0  0  0  0  0  0  0  0  0  0
    5.2764    3.5489   23.8923 N   0  0  0  0  0  0  0  0  0  0  0  0
    8.2293    4.4348   22.7108 H   0  0  0  0  0  0  0  0  0  0  0  0
    5.9849    5.9812   21.8118 H   0  0  0  0  0  0  0  0  0  0  0  0
    4.3684    5.3201   22.1707 H   0  0  0  0  0  0  0  0  0  0  0  0
    5.4325    4.5059   21.0079 H   0  0  0  0  0  0  0  0  0  0  0  0
  1  2  1  0
  2  3  1  0
  3  4  2  0
  4  5  1  0
  5  6  1  0
  6  7  1  0
  8  7  1  1
  8  9  1  0
  9 10  2  0
  9 11  1  0
 11 12  1  0
 12 13  2  0
 13 14  1  0
 14 15  2  0
 15 16  1  0
 16 17  2  0
 17 18  1  0
 18 19  2  0
 19 20  1  0
 20 21  2  0
 20 22  1  0
 19 23  1  0
 18 24  1  0
 17 25  1  0
 15 26  1  0
 13 27  1  0
 11 28  1  0
 28 29  1  0
 29 30  1  0
 30 31  1  0
 30 32  1  0
 30 33  1  0
 29 34  1  6
 28 35  1  0
 28 36  1  0
  8 37  1  0
 37 38  2  0
 38 39  1  0
 39 40  1  0
 39 41  2  0
 41 42  1  0
 42 43  2  0
 43 44  1  0
 44 45  2  0
 42 46  1  0
 41 47  1  0
 38 48  1  0
  7 49  1  0
  7 50  1  0
  5 51  1  0
  5 52  1  0
  4 53  1  0
 53 54  1  0
  3 55  1  0
  1 56  1  0
  1 57  1  0
  1 58  1  0
 54  2  2  0
 44  6  1  0
 29  8  1  0
 43 37  1  0
 21 12  1  0
 21 16  1  0
M  END
>  <cnnaffinities>  (10) 
[6.45423, 6.47254]

>  <score>  (10) 
6.45423

>  <index>  (10) 
9

>  <Smiles>  (10) 
C(c1c(c(C(N2C([C@@]3(C(=O)N(c4c(nc(c5c(c(c(c(c45)[H])[H])[H])[H])[H])[H])C([C@@]3(C([H])([H])[H])[H])([H])[H])c3c(c(F)c(c(c3C2=O)[H])[H])[H])([H])[H])([H])[H])on1)[H])([H])([H])[H]

>  <h>  (10) 
<NA>

>  <Training>  (10) 
True

>  <Success>  (10) 
True

>  <enamine_searched>  (10) 
False

>  <enamine_id>  (10) 
nan

$$$$

     RDKit          3D

 72 77  0  0  0  0  0  0  0  0999 V2000
    5.8797    5.1833   21.4965 C   0  0  0  0  0  0  0  0  0  0  0  0
    5.4069    5.9045   22.7634 C   0  0  1  0  0  0  0  0  0  0  0  0
    5.1177    4.9772   23.9513 C   0  0  0  0  0  0  0  0  0  0  0  0
    6.3510    4.5147   24.6949 N   0  0  0  0  0  4  0  0  0  0  0  0
    7.1124    3.3818   24.0450 C   0  0  0  0  0  0  0  0  0  0  0  0
    7.7749    2.4578   25.0774 C   0  0  0  0  0  0  0  0  0  0  0  0
    8.6216    1.4542   24.4402 N   0  0  0  0  0  0  0  0  0  0  0  0
    8.0756    0.1386   24.1558 C   0  0  0  0  0  0  0  0  0  0  0  0
    8.3978   -0.3685   22.7274 C   0  0  2  0  0  0  0  0  0  0  0  0
    7.6483    0.4715   21.6623 C   0  0  0  0  0  0  0  0  0  0  0  0
    7.7040    1.6772   21.5211 O   0  0  0  0  0  0  0  0  0  0  0  0
    6.9038   -0.3702   20.8654 N   0  0  0  0  0  0  0  0  0  0  0  0
    6.1328    0.1111   19.7778 C   0  0  0  0  0  0  0  0  0  0  0  0
    6.4425   -0.2235   18.4834 C   0  0  0  0  0  0  0  0  0  0  0  0
    5.7666    0.2281   17.3999 N   0  0  0  0  0  0  0  0  0  0  0  0
    4.7472    1.0240   17.6017 C   0  0  0  0  0  0  0  0  0  0  0  0
    4.2963    1.4276   18.8877 C   0  0  0  0  0  0  0  0  0  0  0  0
    3.1671    2.2740   19.0591 C   0  0  0  0  0  0  0  0  0  0  0  0
    2.7366    2.6099   20.3143 C   0  0  0  0  0  0  0  0  0  0  0  0
    3.4158    2.1143   21.4502 C   0  0  0  0  0  0  0  0  0  0  0  0
    4.5149    1.3053   21.3092 C   0  0  0  0  0  0  0  0  0  0  0  0
    4.9994    0.9524   20.0176 C   0  0  0  0  0  0  0  0  0  0  0  0
    5.0221    0.9169   22.1849 H   0  0  0  0  0  0  0  0  0  0  0  0
    3.0566    2.3753   22.4420 H   0  0  0  0  0  0  0  0  0  0  0  0
    1.8776    3.2611   20.4459 H   0  0  0  0  0  0  0  0  0  0  0  0
    2.6608    2.6446   18.1726 H   0  0  0  0  0  0  0  0  0  0  0  0
    4.2212    1.3841   16.7182 H   0  0  0  0  0  0  0  0  0  0  0  0
    7.2880   -0.8709   18.2568 H   0  0  0  0  0  0  0  0  0  0  0  0
    7.2092   -1.7701   21.0670 C   0  0  0  0  0  0  0  0  0  0  0  0
    7.8898   -1.8262   22.4572 C   0  0  2  0  0  0  0  0  0  0  0  0
    6.9386   -2.4295   23.5055 C   0  0  0  0  0  0  0  0  0  0  0  0
    7.4110   -2.5037   24.4908 H   0  0  0  0  0  0  0  0  0  0  0  0
    6.0190   -1.8409   23.6085 H   0  0  0  0  0  0  0  0  0  0  0  0
    6.6525   -3.4471   23.2090 H   0  0  0  0  0  0  0  0  0  0  0  0
    8.7595   -2.4905   22.4182 H   0  0  0  0  0  0  0  0  0  0  0  0
    7.8822   -2.1353   20.2814 H   0  0  0  0  0  0  0  0  0  0  0  0
    6.2871   -2.3637   21.0341 H   0  0  0  0  0  0  0  0  0  0  0  0
    9.9023   -0.2139   22.5354 C   0  0  0  0  0  0  0  0  0  0  0  0
   10.5932   -1.0088   21.6172 C   0  0  0  0  0  0  0  0  0  0  0  0
   11.9459   -0.8147   21.4195 C   0  0  0  0  0  0  0  0  0  0  0  0
   12.7125   -1.6794   20.1060 Cl  0  0  0  0  0  0  0  0  0  0  0  0
   12.6429    0.2000   22.0711 C   0  0  0  0  0  0  0  0  0  0  0  0
   11.9506    1.0280   22.9333 C   0  0  0  0  0  0  0  0  0  0  0  0
   10.5870    0.8405   23.1492 C   0  0  0  0  0  0  0  0  0  0  0  0
    9.8538    1.8404   23.9916 C   0  0  0  0  0  0  0  0  0  0  0  0
   10.3291    2.9425   24.2534 O   0  0  0  0  0  0  0  0  0  0  0  0
   12.4286    1.8774   23.4073 H   0  0  0  0  0  0  0  0  0  0  0  0
   13.6690    0.4061   21.7937 H   0  0  0  0  0  0  0  0  0  0  0  0
   10.0717   -1.6705   20.9326 H   0  0  0  0  0  0  0  0  0  0  0  0
    6.9928    0.2007   24.2841 H   0  0  0  0  0  0  0  0  0  0  0  0
    8.4743   -0.6084   24.8595 H   0  0  0  0  0  0  0  0  0  0  0  0
    7.0019    1.9358   25.6566 H   0  0  0  0  0  0  0  0  0  0  0  0
    8.3919    3.0323   25.7758 H   0  0  0  0  0  0  0  0  0  0  0  0
    7.8916    3.8060   23.4104 H   0  0  0  0  0  0  0  0  0  0  0  0
    6.4172    2.8123   23.4165 H   0  0  0  0  0  0  0  0  0  0  0  0
    7.2237    5.7241   24.9841 C   0  0  0  0  0  0  0  0  0  0  0  0
    7.4888    6.5524   23.7260 C   0  0  2  0  0  0  0  0  0  0  0  0
    8.3118    7.7871   24.0508 C   0  0  0  0  0  0  0  0  0  0  0  0
    9.2727    7.4987   24.4939 H   0  0  0  0  0  0  0  0  0  0  0  0
    8.5110    8.3747   23.1493 H   0  0  0  0  0  0  0  0  0  0  0  0
    7.7776    8.4228   24.7667 H   0  0  0  0  0  0  0  0  0  0  0  0
    6.2597    6.9764   23.1542 O   0  0  0  0  0  0  0  0  0  0  0  0
    8.0385    5.9261   23.0038 H   0  0  0  0  0  0  0  0  0  0  0  0
    6.7121    6.3586   25.7144 H   0  0  0  0  0  0  0  0  0  0  0  0
    8.1741    5.3847   25.4107 H   0  0  0  0  0  0  0  0  0  0  0  0
    6.0240    4.1604   25.6116 H   0  0  0  0  0  0  0  0  0  0  0  0
    4.4932    5.5169   24.6654 H   0  0  0  0  0  0  0  0  0  0  0  0
    4.5719    4.0934   23.6058 H   0  0  0  0  0  0  0  0  0  0  0  0
    4.4626    6.4065   22.5160 H   0  0  0  0  0  0  0  0  0  0  0  0
    6.8275    4.6487   21.6314 H   0  0  0  0  0  0  0  0  0  0  0  0
    6.0097    5.9156   20.6922 H   0  0  0  0  0  0  0  0  0  0  0  0
    5.1388    4.4365   21.1779 H   0  0  0  0  0  0  0  0  0  0  0  0
  1  2  1  0
  2  3  1  0
  3  4  1  0
  4  5  1  0
  5  6  1  0
  6  7  1  0
  7  8  1  0
  9  8  1  1
  9 10  1  0
 10 11  2  0
 10 12  1  0
 12 13  1  0
 13 14  2  0
 14 15  1  0
 15 16  2  0
 16 17  1  0
 17 18  2  0
 18 19  1  0
 19 20  2  0
 20 21  1  0
 21 22  2  0
 21 23  1  0
 20 24  1  0
 19 25  1  0
 18 26  1  0
 16 27  1  0
 14 28  1  0
 12 29  1  0
 29 30  1  0
 30 31  1  0
 31 32  1  0
 31 33  1  0
 31 34  1  0
 30 35  1  6
 29 36  1  0
 29 37  1  0
  9 38  1  0
 38 39  2  0
 39 40  1  0
 40 41  1  0
 40 42  2  0
 42 43  1  0
 43 44  2  0
 44 45  1  0
 45 46  2  0
 43 47  1  0
 42 48  1  0
 39 49  1  0
  8 50  1  0
  8 51  1  0
  6 52  1  0
  6 53  1  0
  5 54  1  0
  5 55  1  0
  4 56  1  0
 56 57  1  0
 57 58  1  0
 58 59  1  0
 58 60  1  0
 58 61  1  0
 57 62  1  0
 57 63  1  6
 56 64  1  0
 56 65  1  0
  4 66  1  0
  3 67  1  0
  3 68  1  0
  2 69  1  6
  1 70  1  0
  1 71  1  0
  1 72  1  0
 62  2  1  0
 45  7  1  0
 30  9  1  0
 44 38  1  0
 22 13  1  0
 22 17  1  0
M  CHG  1   4   1
M  END
>  <cnnaffinities>  (11) 
[6.39222]

>  <score>  (11) 
6.39222

>  <index>  (11) 
10

>  <Smiles>  (11) 
C([C@]1(C([N+](C(C(N2C([C@@]3(C(=O)N(c4c(nc(c5c(c(c(c(c45)[H])[H])[H])[H])[H])[H])C([C@@]3(C([H])([H])[H])[H])([H])[H])c3c(c(Cl)c(c(c3C2=O)[H])[H])[H])([H])[H])([H])[H])([H])[H])(C([C@](C([H])([H])[H])(O1)[H])([H])[H])[H])([H])[H])[H])([H])([H])[H]

>  <h>  (11) 
<NA>

>  <Training>  (11) 
True

>  <Success>  (11) 
True

>  <enamine_searched>  (11) 
False

>  <enamine_id>  (11) 
nan

$$$$

     RDKit          3D

 54 57  0  0  0  0  0  0  0  0999 V2000
    4.8800    1.9200   25.3045 C   0  0  0  0  0  0  0  0  0  0  0  0
    6.1351    1.9644   24.6609 O   0  0  0  0  0  0  0  0  0  0  0  0
    6.4401    2.9879   23.8101 C   0  0  0  0  0  0  0  0  0  0  0  0
    5.5517    4.0271   23.5136 C   0  0  0  0  0  0  0  0  0  0  0  0
    5.9382    5.0312   22.6254 C   0  0  0  0  0  0  0  0  0  0  0  0
    7.1970    5.0150   22.0456 C   0  0  0  0  0  0  0  0  0  0  0  0
    8.0722    3.9819   22.3661 C   0  0  0  0  0  0  0  0  0  0  0  0
    7.7271    2.9601   23.2370 C   0  0  0  0  0  0  0  0  0  0  0  0
    8.6564    1.7838   23.5087 C   0  0  2  0  0  0  0  0  0  0  0  0
   10.1645    2.0525   23.3441 C   0  0  0  0  0  0  0  0  0  0  0  0
   10.9929    0.8537   23.8286 C   0  0  2  0  0  0  0  0  0  0  0  0
   12.4889    1.0789   23.6098 C   0  0  0  0  0  0  0  0  0  0  0  0
   12.8383    1.9806   24.1224 H   0  0  0  0  0  0  0  0  0  0  0  0
   13.0856    0.2309   23.9678 H   0  0  0  0  0  0  0  0  0  0  0  0
   12.7097    1.2054   22.5433 H   0  0  0  0  0  0  0  0  0  0  0  0
   10.5195   -0.4277   23.1383 C   0  0  0  0  0  0  0  0  0  0  0  0
    8.9990   -0.6105   23.2634 C   0  0  0  0  0  0  0  0  0  0  0  0
    8.2611    0.5601   22.7874 N   0  0  0  0  0  0  0  0  0  0  0  0
    7.9299    0.6542   21.4242 C   0  0  0  0  0  0  0  0  0  0  0  0
    8.3449    1.5296   20.6957 O   0  0  0  0  0  0  0  0  0  0  0  0
    6.9759   -0.4305   20.8966 C   0  0  0  0  0  0  0  0  0  0  0  0
    6.1111    0.0829   19.7689 C   0  0  0  0  0  0  0  0  0  0  0  0
    6.4262   -0.2081   18.4678 C   0  0  0  0  0  0  0  0  0  0  0  0
    5.7592    0.2467   17.3746 N   0  0  0  0  0  0  0  0  0  0  0  0
    4.7319    1.0308   17.5802 C   0  0  0  0  0  0  0  0  0  0  0  0
    4.2864    1.4240   18.8687 C   0  0  0  0  0  0  0  0  0  0  0  0
    3.1723    2.2822   19.0439 C   0  0  0  0  0  0  0  0  0  0  0  0
    2.7658    2.6480   20.2979 C   0  0  0  0  0  0  0  0  0  0  0  0
    3.4669    2.1680   21.4300 C   0  0  0  0  0  0  0  0  0  0  0  0
    4.5493    1.3341   21.2896 C   0  0  0  0  0  0  0  0  0  0  0  0
    4.9929    0.9385   20.0009 C   0  0  0  0  0  0  0  0  0  0  0  0
    5.0704    0.9777   22.1740 H   0  0  0  0  0  0  0  0  0  0  0  0
    3.1369    2.4664   22.4222 H   0  0  0  0  0  0  0  0  0  0  0  0
    1.9127    3.3098   20.4274 H   0  0  0  0  0  0  0  0  0  0  0  0
    2.6555    2.6507   18.1606 H   0  0  0  0  0  0  0  0  0  0  0  0
    4.2014    1.3958   16.6976 H   0  0  0  0  0  0  0  0  0  0  0  0
    7.2732   -0.8523   18.2381 H   0  0  0  0  0  0  0  0  0  0  0  0
    6.3693   -0.8299   21.7211 H   0  0  0  0  0  0  0  0  0  0  0  0
    7.5889   -1.2634   20.5237 H   0  0  0  0  0  0  0  0  0  0  0  0
    8.6692   -1.4846   22.6982 H   0  0  0  0  0  0  0  0  0  0  0  0
    8.7403   -0.7794   24.3179 H   0  0  0  0  0  0  0  0  0  0  0  0
   10.7967   -0.3855   22.0778 H   0  0  0  0  0  0  0  0  0  0  0  0
   11.0501   -1.2957   23.5531 H   0  0  0  0  0  0  0  0  0  0  0  0
   10.8253    0.7322   24.9086 H   0  0  0  0  0  0  0  0  0  0  0  0
   10.4539    2.9452   23.9140 H   0  0  0  0  0  0  0  0  0  0  0  0
   10.3985    2.2591   22.2928 H   0  0  0  0  0  0  0  0  0  0  0  0
    8.5148    1.5211   24.5622 H   0  0  0  0  0  0  0  0  0  0  0  0
    9.0403    3.9593   21.8779 H   0  0  0  0  0  0  0  0  0  0  0  0
    7.5007    5.7837   21.3390 H   0  0  0  0  0  0  0  0  0  0  0  0
    5.2501    5.8344   22.3792 H   0  0  0  0  0  0  0  0  0  0  0  0
    4.5621    4.0699   23.9624 H   0  0  0  0  0  0  0  0  0  0  0  0
    4.6973    2.7761   25.9652 H   0  0  0  0  0  0  0  0  0  0  0  0
    4.9061    1.0233   25.9189 H   0  0  0  0  0  0  0  0  0  0  0  0
    4.0304    1.8267   24.6153 H   0  0  0  0  0  0  0  0  0  0  0  0
  1  2  1  0
  2  3  1  0
  3  4  2  0
  4  5  1  0
  5  6  2  0
  6  7  1  0
  7  8  2  0
  8  9  1  0
  9 10  1  0
 10 11  1  0
 11 12  1  0
 12 13  1  0
 12 14  1  0
 12 15  1  0
 11 16  1  0
 16 17  1  0
 17 18  1  0
 18 19  1  0
 19 20  2  0
 19 21  1  0
 21 22  1  0
 22 23  2  0
 23 24  1  0
 24 25  2  0
 25 26  1  0
 26 27  2  0
 27 28  1  0
 28 29  2  0
 29 30  1  0
 30 31  2  0
 30 32  1  0
 29 33  1  0
 28 34  1  0
 27 35  1  0
 25 36  1  0
 23 37  1  0
 21 38  1  0
 21 39  1  0
 17 40  1  0
 17 41  1  0
 16 42  1  0
 16 43  1  0
 11 44  1  1
 10 45  1  0
 10 46  1  0
  9 47  1  1
  7 48  1  0
  6 49  1  0
  5 50  1  0
  4 51  1  0
  1 52  1  0
  1 53  1  0
  1 54  1  0
  8  3  1  0
 18  9  1  0
 31 22  1  0
 31 26  1  0
M  END
>  <cnnaffinities>  (12) 
[5.89437, 5.61366]

>  <score>  (12) 
5.89437

>  <index>  (12) 
11

>  <Smiles>  (12) 
C(Oc1c(c(c(c(c1[C@@]1(C([C@](C([H])([H])[H])(C(C(N1C(=O)C(c1c(nc(c2c(c(c(c(c12)[H])[H])[H])[H])[H])[H])([H])[H])([H])[H])([H])[H])[H])([H])[H])[H])[H])[H])[H])[H])([H])([H])[H]

>  <h>  (12) 
<NA>

>  <Training>  (12) 
True

>  <Success>  (12) 
True

>  <enamine_searched>  (12) 
False

>  <enamine_id>  (12) 
nan

$$$$

     RDKit          3D

 47 50  0  0  0  0  0  0  0  0999 V2000
    5.5800   -2.4840   20.9667 O   0  0  0  0  0  0  0  0  0  0  0  0
    6.1380   -1.6238   21.6286 C   0  0  0  0  0  0  0  0  0  0  0  0
    6.9083   -0.4866   20.9194 C   0  0  0  0  0  0  0  0  0  0  0  0
    6.1153    0.0907   19.7684 C   0  0  0  0  0  0  0  0  0  0  0  0
    6.4213   -0.2143   18.4654 C   0  0  0  0  0  0  0  0  0  0  0  0
    5.7565    0.2429   17.3717 N   0  0  0  0  0  0  0  0  0  0  0  0
    4.7323    1.0325   17.5770 C   0  0  0  0  0  0  0  0  0  0  0  0
    4.2851    1.4247   18.8696 C   0  0  0  0  0  0  0  0  0  0  0  0
    3.1621    2.2750   19.0432 C   0  0  0  0  0  0  0  0  0  0  0  0
    2.7479    2.6268   20.3001 C   0  0  0  0  0  0  0  0  0  0  0  0
    3.4417    2.1438   21.4308 C   0  0  0  0  0  0  0  0  0  0  0  0
    4.5332    1.3211   21.2874 C   0  0  0  0  0  0  0  0  0  0  0  0
    4.9897    0.9413   19.9960 C   0  0  0  0  0  0  0  0  0  0  0  0
    5.0480    0.9578   22.1718 H   0  0  0  0  0  0  0  0  0  0  0  0
    3.1043    2.4258   22.4225 H   0  0  0  0  0  0  0  0  0  0  0  0
    1.8905    3.2790   20.4364 H   0  0  0  0  0  0  0  0  0  0  0  0
    2.6409    2.6442   18.1638 H   0  0  0  0  0  0  0  0  0  0  0  0
    4.1985    1.3989   16.6990 H   0  0  0  0  0  0  0  0  0  0  0  0
    7.2654   -0.8674   18.2461 H   0  0  0  0  0  0  0  0  0  0  0  0
    7.2142    0.3107   21.6071 H   0  0  0  0  0  0  0  0  0  0  0  0
    7.8311   -0.9224   20.5165 H   0  0  0  0  0  0  0  0  0  0  0  0
    6.0717   -1.6180   22.9922 N   0  0  0  0  0  0  0  0  0  0  0  0
    6.9106   -0.8617   23.9123 C   0  0  0  0  0  0  0  0  0  0  0  0
    6.6454   -1.4616   25.3060 C   0  0  2  0  0  0  0  0  0  0  0  0
    7.7313   -2.4364   25.7365 C   0  0  0  0  0  0  0  0  0  0  0  0
    7.7799   -3.5081   24.8563 F   0  0  0  0  0  0  0  0  0  0  0  0
    8.7132   -1.9492   25.7195 H   0  0  0  0  0  0  0  0  0  0  0  0
    7.5645   -2.8449   26.7408 H   0  0  0  0  0  0  0  0  0  0  0  0
    5.2352   -2.0837   25.1855 C   0  0  0  0  0  0  0  0  0  0  0  0
    4.8989   -3.2232   26.1631 C   0  0  0  0  0  0  0  0  0  0  0  0
    3.3672   -3.2850   26.2531 C   0  0  0  0  0  0  0  0  0  0  0  0
    2.8666   -1.8738   25.8923 C   0  0  0  0  0  0  0  0  0  0  0  0
    4.1169   -1.0600   25.5100 C   0  0  0  0  0  0  0  0  0  0  0  0
    3.9321   -0.3802   24.6725 H   0  0  0  0  0  0  0  0  0  0  0  0
    4.4233   -0.4359   26.3576 H   0  0  0  0  0  0  0  0  0  0  0  0
    2.3407   -1.4036   26.7280 H   0  0  0  0  0  0  0  0  0  0  0  0
    2.1606   -1.9170   25.0593 H   0  0  0  0  0  0  0  0  0  0  0  0
    2.9731   -4.0211   25.5464 H   0  0  0  0  0  0  0  0  0  0  0  0
    3.0388   -3.5949   27.2502 H   0  0  0  0  0  0  0  0  0  0  0  0
    5.3383   -4.1761   25.8537 H   0  0  0  0  0  0  0  0  0  0  0  0
    5.3082   -2.9969   27.1558 H   0  0  0  0  0  0  0  0  0  0  0  0
    5.1665   -2.5179   23.7006 C   0  0  0  0  0  0  0  0  0  0  0  0
    4.1511   -2.4291   23.3037 H   0  0  0  0  0  0  0  0  0  0  0  0
    5.4628   -3.5647   23.5775 H   0  0  0  0  0  0  0  0  0  0  0  0
    6.6504   -0.6752   26.0643 H   0  0  0  0  0  0  0  0  0  0  0  0
    7.9665   -0.9498   23.6483 H   0  0  0  0  0  0  0  0  0  0  0  0
    6.6393    0.2002   23.8995 H   0  0  0  0  0  0  0  0  0  0  0  0
  1  2  2  0
  2  3  1  0
  3  4  1  0
  4  5  2  0
  5  6  1  0
  6  7  2  0
  7  8  1  0
  8  9  2  0
  9 10  1  0
 10 11  2  0
 11 12  1  0
 12 13  2  0
 12 14  1  0
 11 15  1  0
 10 16  1  0
  9 17  1  0
  7 18  1  0
  5 19  1  0
  3 20  1  0
  3 21  1  0
  2 22  1  0
 22 23  1  0
 23 24  1  0
 24 25  1  0
 25 26  1  0
 25 27  1  0
 25 28  1  0
 24 29  1  0
 29 30  1  0
 30 31  1  0
 31 32  1  0
 32 33  1  0
 33 34  1  0
 33 35  1  0
 32 36  1  0
 32 37  1  0
 31 38  1  0
 31 39  1  0
 30 40  1  0
 30 41  1  0
 29 42  1  0
 42 43  1  0
 42 44  1  0
 24 45  1  1
 23 46  1  0
 23 47  1  0
 13  4  1  0
 42 22  1  0
 13  8  1  0
 33 29  1  0
M  END
>  <cnnaffinities>  (13) 
[5.58862, 5.48166, 5.46222, 5.46261]

>  <score>  (13) 
5.58862

>  <index>  (13) 
12

>  <Smiles>  (13) 
O=C(C(c1c(nc(c2c(c(c(c(c12)[H])[H])[H])[H])[H])[H])([H])[H])N1C([C@](C(F)([H])[H])(C2(C(C(C(C2([H])[H])([H])[H])([H])[H])([H])[H])C1([H])[H])[H])([H])[H]

>  <h>  (13) 
<NA>

>  <Training>  (13) 
True

>  <Success>  (13) 
True

>  <enamine_searched>  (13) 
False

>  <enamine_id>  (13) 
nan

$$$$

     RDKit          3D

 67 72  0  0  0  0  0  0  0  0999 V2000
    6.3830    4.2491   21.3099 C   0  0  0  0  0  0  0  0  0  0  0  0
    7.3190    3.8164   22.3245 N   0  0  0  0  0  0  0  0  0  0  0  0
    6.9123    3.4678   23.5714 C   0  0  0  0  0  0  0  0  0  0  0  0
    5.7532    3.5163   23.9547 O   0  0  0  0  0  0  0  0  0  0  0  0
    8.0578    2.9803   24.4659 C   0  0  0  0  0  0  0  0  0  0  0  0
    8.7418    1.8566   23.8477 N   0  0  0  0  0  0  0  0  0  0  0  0
    7.9494    0.6520   23.6409 C   0  0  0  0  0  0  0  0  0  0  0  0
    8.4062   -0.2008   22.4256 C   0  0  2  0  0  0  0  0  0  0  0  0
    7.8619    0.4331   21.1188 C   0  0  0  0  0  0  0  0  0  0  0  0
    8.2732    1.4387   20.5763 O   0  0  0  0  0  0  0  0  0  0  0  0
    6.8143   -0.3311   20.6537 N   0  0  0  0  0  0  0  0  0  0  0  0
    5.9959    0.1534   19.6017 C   0  0  0  0  0  0  0  0  0  0  0  0
    6.2991   -0.1388   18.2968 C   0  0  0  0  0  0  0  0  0  0  0  0
    5.5917    0.3175   17.2381 N   0  0  0  0  0  0  0  0  0  0  0  0
    4.5701    1.1018   17.4794 C   0  0  0  0  0  0  0  0  0  0  0  0
    4.1507    1.4856   18.7850 C   0  0  0  0  0  0  0  0  0  0  0  0
    3.0530    2.3601   19.0035 C   0  0  0  0  0  0  0  0  0  0  0  0
    2.6901    2.7196   20.2736 C   0  0  0  0  0  0  0  0  0  0  0  0
    3.4044    2.2223   21.3860 C   0  0  0  0  0  0  0  0  0  0  0  0
    4.4667    1.3704   21.1986 C   0  0  0  0  0  0  0  0  0  0  0  0
    4.8742    0.9848   19.8902 C   0  0  0  0  0  0  0  0  0  0  0  0
    5.0286    1.0307   22.0624 H   0  0  0  0  0  0  0  0  0  0  0  0
    3.1412    2.5318   22.3930 H   0  0  0  0  0  0  0  0  0  0  0  0
    1.8570    3.3984   20.4321 H   0  0  0  0  0  0  0  0  0  0  0  0
    2.5233    2.7467   18.1376 H   0  0  0  0  0  0  0  0  0  0  0  0
    4.0191    1.4793   16.6176 H   0  0  0  0  0  0  0  0  0  0  0  0
    7.1518   -0.7754   18.0703 H   0  0  0  0  0  0  0  0  0  0  0  0
    6.4239   -1.3870   21.5650 C   0  0  0  0  0  0  0  0  0  0  0  0
    7.7185   -1.6007   22.3551 C   0  0  2  0  0  0  0  0  0  0  0  0
    7.5589   -2.4430   23.6289 C   0  0  0  0  0  0  0  0  0  0  0  0
    8.7608   -3.0907   23.9436 O   0  0  0  0  0  0  0  0  0  0  0  0
    8.6507   -3.9837   25.0374 C   0  0  0  0  0  0  0  0  0  0  0  0
    9.9592   -4.2006   25.7015 C   0  0  0  0  0  0  0  0  0  0  0  0
   10.9847   -3.1809   25.0278 C   0  0  0  0  0  0  0  0  0  0  0  0
   10.0492   -4.2354   25.6228 C   0  0  0  0  0  0  0  0  0  0  0  0
   10.7634   -5.2140   25.2549 H   0  0  0  0  0  0  0  0  0  0  0  0
   11.3006   -3.5978   24.0678 H   0  0  0  0  0  0  0  0  0  0  0  0
   11.9660   -2.8997   25.5060 H   0  0  0  0  0  0  0  0  0  0  0  0
   10.6269   -2.1688   24.6904 H   0  0  0  0  0  0  0  0  0  0  0  0
    9.5360   -4.0845   26.8860 H   0  0  0  0  0  0  0  0  0  0  0  0
    8.1734   -3.5170   25.8989 H   0  0  0  0  0  0  0  0  0  0  0  0
    8.1863   -4.8854   24.6749 H   0  0  0  0  0  0  0  0  0  0  0  0
    6.7594   -3.1856   23.4712 H   0  0  0  0  0  0  0  0  0  0  0  0
    7.2372   -1.8182   24.4756 H   0  0  0  0  0  0  0  0  0  0  0  0
    8.3386   -2.1788   21.6738 H   0  0  0  0  0  0  0  0  0  0  0  0
    5.5748   -1.1043   22.2094 H   0  0  0  0  0  0  0  0  0  0  0  0
    6.1336   -2.2869   21.0098 H   0  0  0  0  0  0  0  0  0  0  0  0
    9.9193   -0.2314   22.3549 C   0  0  0  0  0  0  0  0  0  0  0  0
   10.5496   -1.1569   21.5138 C   0  0  0  0  0  0  0  0  0  0  0  0
   11.9160   -1.1162   21.3207 C   0  0  0  0  0  0  0  0  0  0  0  0
   12.6070   -2.2041   20.1436 Cl  0  0  0  0  0  0  0  0  0  0  0  0
   12.7052   -0.1330   21.9206 C   0  0  0  0  0  0  0  0  0  0  0  0
   12.0916    0.8010   22.7282 C   0  0  0  0  0  0  0  0  0  0  0  0
   10.7113    0.7687   22.9351 C   0  0  0  0  0  0  0  0  0  0  0  0
   10.1034    1.8999   23.7081 C   0  0  0  0  0  0  0  0  0  0  0  0
   10.7832    2.8199   24.1434 O   0  0  0  0  0  0  0  0  0  0  0  0
   12.6596    1.5987   23.1947 H   0  0  0  0  0  0  0  0  0  0  0  0
   13.7695   -0.0849   21.7165 H   0  0  0  0  0  0  0  0  0  0  0  0
    9.9891   -1.8786   20.9315 H   0  0  0  0  0  0  0  0  0  0  0  0
    7.9682    0.0540   24.5574 H   0  0  0  0  0  0  0  0  0  0  0  0
    6.9147    0.9731   23.4893 H   0  0  0  0  0  0  0  0  0  0  0  0
    8.8132    3.7627   24.5896 H   0  0  0  0  0  0  0  0  0  0  0  0
    7.6528    2.7317   25.4537 H   0  0  0  0  0  0  0  0  0  0  0  0
    8.2068    3.4522   22.0083 H   0  0  0  0  0  0  0  0  0  0  0  0
    6.0199    3.4033   20.7108 H   0  0  0  0  0  0  0  0  0  0  0  0
    6.8571    4.9819   20.6508 H   0  0  0  0  0  0  0  0  0  0  0  0
    5.5252    4.7103   21.8029 H   0  0  0  0  0  0  0  0  0  0  0  0
  1  2  1  0
  2  3  1  0
  3  4  2  0
  3  5  1  0
  5  6  1  0
  6  7  1  0
  8  7  1  1
  8  9  1  0
  9 10  2  0
  9 11  1  0
 11 12  1  0
 12 13  2  0
 13 14  1  0
 14 15  2  0
 15 16  1  0
 16 17  2  0
 17 18  1  0
 18 19  2  0
 19 20  1  0
 20 21  2  0
 20 22  1  0
 19 23  1  0
 18 24  1  0
 17 25  1  0
 15 26  1  0
 13 27  1  0
 11 28  1  0
 28 29  1  0
 29 30  1  0
 30 31  1  0
 31 32  1  0
 32 33  1  0
 33 34  1  0
 34 35  1  0
 35 36  1  0
 35 37  1  0
 34 38  1  0
 34 39  1  0
 33 40  1  0
 32 41  1  0
 32 42  1  0
 30 43  1  0
 30 44  1  0
 29 45  1  6
 28 46  1  0
 28 47  1  0
  8 48  1  0
 48 49  2  0
 49 50  1  0
 50 51  1  0
 50 52  2  0
 52 53  1  0
 53 54  2  0
 54 55  1  0
 55 56  2  0
 53 57  1  0
 52 58  1  0
 49 59  1  0
  7 60  1  0
  7 61  1  0
  5 62  1  0
  5 63  1  0
  2 64  1  0
  1 65  1  0
  1 66  1  0
  1 67  1  0
 55  6  1  0
 29  8  1  0
 35 33  1  0
 54 48  1  0
 21 12  1  0
 21 16  1  0
M  END
>  <cnnaffinities>  (14) 
[6.59933]

>  <score>  (14) 
6.59933

>  <index>  (14) 
13

>  <Smiles>  (14) 
C(N(C(=O)C(N1C([C@@]2(C(=O)N(c3c(nc(c4c(c(c(c(c34)[H])[H])[H])[H])[H])[H])C([C@@]2(C(OC(C2(C(C2([H])[H])([H])[H])[H])([H])[H])([H])[H])[H])([H])[H])c2c(c(Cl)c(c(c2C1=O)[H])[H])[H])([H])[H])([H])[H])[H])([H])([H])[H]

>  <h>  (14) 
<NA>

>  <Training>  (14) 
True

>  <Success>  (14) 
True

>  <enamine_searched>  (14) 
False

>  <enamine_id>  (14) 
nan

$$$$

     RDKit          3D

 67 73  0  0  0  0  0  0  0  0999 V2000
    7.1624   -2.4512   23.4425 C   0  0  0  0  0  0  0  0  0  0  0  0
    8.0265   -1.7652   22.3826 C   0  0  1  0  0  0  0  0  0  0  0  0
    7.3189   -1.6900   21.0148 C   0  0  0  0  0  0  0  0  0  0  0  0
    6.9517   -0.2973   20.8646 N   0  0  0  0  0  0  0  0  0  0  0  0
    6.1548    0.1479   19.7906 C   0  0  0  0  0  0  0  0  0  0  0  0
    6.4465   -0.2214   18.5007 C   0  0  0  0  0  0  0  0  0  0  0  0
    5.7694    0.2147   17.4138 N   0  0  0  0  0  0  0  0  0  0  0  0
    4.7546    1.0183   17.6103 C   0  0  0  0  0  0  0  0  0  0  0  0
    4.3097    1.4278   18.8987 C   0  0  0  0  0  0  0  0  0  0  0  0
    3.1883    2.2828   19.0610 C   0  0  0  0  0  0  0  0  0  0  0  0
    2.7559    2.6310   20.3112 C   0  0  0  0  0  0  0  0  0  0  0  0
    3.4205    2.1351   21.4556 C   0  0  0  0  0  0  0  0  0  0  0  0
    4.5115    1.3138   21.3251 C   0  0  0  0  0  0  0  0  0  0  0  0
    5.0068    0.9637   20.0345 C   0  0  0  0  0  0  0  0  0  0  0  0
    5.0052    0.9293   22.2118 H   0  0  0  0  0  0  0  0  0  0  0  0
    3.0701    2.4192   22.4450 H   0  0  0  0  0  0  0  0  0  0  0  0
    1.9029    3.2912   20.4350 H   0  0  0  0  0  0  0  0  0  0  0  0
    2.6914    2.6535   18.1696 H   0  0  0  0  0  0  0  0  0  0  0  0
    4.2215    1.3773   16.7289 H   0  0  0  0  0  0  0  0  0  0  0  0
    7.2896   -0.8798   18.2926 H   0  0  0  0  0  0  0  0  0  0  0  0
    7.6589    0.5513   21.6854 C   0  0  0  0  0  0  0  0  0  0  0  0
    7.6240    1.7675   21.6430 O   0  0  0  0  0  0  0  0  0  0  0  0
    8.4697   -0.3014   22.6860 C   0  0  1  0  0  0  0  0  0  0  0  0
    8.1716    0.1409   24.1294 C   0  0  0  0  0  0  0  0  0  0  0  0
    8.6570    1.4693   24.4197 N   0  0  0  0  0  0  0  0  0  0  0  0
    7.8278    2.3269   25.2399 C   0  0  0  0  0  0  0  0  0  0  0  0
    6.7350    3.0510   24.4528 C   0  0  0  0  0  0  0  0  0  0  0  0
    7.2813    4.1154   23.5769 N   0  0  2  0  0  4  0  0  0  0  0  0
    7.7519    5.3726   24.3350 C   0  0  0  0  0  0  0  0  0  0  0  0
    6.9403    6.5040   23.6702 C   0  0  2  0  0  0  0  0  0  0  0  0
    5.5896    5.8377   23.3982 C   0  0  0  0  0  0  0  0  0  0  0  0
    6.2543    4.7157   22.5989 C   0  0  1  0  0  0  0  0  0  0  0  0
    7.1013    5.5259   21.6264 C   0  0  0  0  0  0  0  0  0  0  0  0
    7.4476    6.7144   22.3516 O   0  0  0  0  0  0  0  0  0  0  0  0
    6.6113    5.7793   20.6805 H   0  0  0  0  0  0  0  0  0  0  0  0
    8.0028    4.9439   21.4466 H   0  0  0  0  0  0  0  0  0  0  0  0
    5.6396    3.9247   22.1697 H   0  0  0  0  0  0  0  0  0  0  0  0
    4.9464    6.4624   22.7755 H   0  0  0  0  0  0  0  0  0  0  0  0
    5.0303    5.5151   24.2815 H   0  0  0  0  0  0  0  0  0  0  0  0
    6.9603    7.4568   24.1971 H   0  0  0  0  0  0  0  0  0  0  0  0
    8.8308    5.4844   24.2235 H   0  0  0  0  0  0  0  0  0  0  0  0
    7.4870    5.2689   25.3902 H   0  0  0  0  0  0  0  0  0  0  0  0
    8.0443    3.6859   23.0234 H   0  0  0  0  0  0  0  0  0  0  0  0
    6.0004    3.4800   25.1469 H   0  0  0  0  0  0  0  0  0  0  0  0
    6.2109    2.3315   23.8131 H   0  0  0  0  0  0  0  0  0  0  0  0
    7.3456    1.7079   26.0012 H   0  0  0  0  0  0  0  0  0  0  0  0
    8.4932    3.0398   25.7275 H   0  0  0  0  0  0  0  0  0  0  0  0
    9.8349    1.9455   23.9386 C   0  0  0  0  0  0  0  0  0  0  0  0
   10.2035    3.0973   24.1619 O   0  0  0  0  0  0  0  0  0  0  0  0
   10.6080    1.0012   23.0726 C   0  0  0  0  0  0  0  0  0  0  0  0
   11.9650    1.2353   22.8428 C   0  0  0  0  0  0  0  0  0  0  0  0
   12.7227    0.3712   22.0665 C   0  0  0  0  0  0  0  0  0  0  0  0
   12.0548   -0.6963   21.4608 C   0  0  0  0  0  0  0  0  0  0  0  0
   12.7559   -1.5830   20.1242 Cl  0  0  0  0  0  0  0  0  0  0  0  0
   10.6999   -0.9048   21.6367 C   0  0  0  0  0  0  0  0  0  0  0  0
    9.9575   -0.0824   22.4767 C   0  0  0  0  0  0  0  0  0  0  0  0
   10.2183   -1.6706   21.0363 H   0  0  0  0  0  0  0  0  0  0  0  0
   13.7846    0.5655   21.8876 H   0  0  0  0  0  0  0  0  0  0  0  0
   12.3820    2.1361   23.2795 H   0  0  0  0  0  0  0  0  0  0  0  0
    7.0975    0.1248   24.3104 H   0  0  0  0  0  0  0  0  0  0  0  0
    8.6425   -0.5759   24.8096 H   0  0  0  0  0  0  0  0  0  0  0  0
    6.4227   -2.3159   20.9699 H   0  0  0  0  0  0  0  0  0  0  0  0
    7.9888   -2.0052   20.2055 H   0  0  0  0  0  0  0  0  0  0  0  0
    8.9178   -2.3908   22.2989 H   0  0  0  0  0  0  0  0  0  0  0  0
    6.2182   -1.9270   23.6099 H   0  0  0  0  0  0  0  0  0  0  0  0
    7.6866   -2.5242   24.3993 H   0  0  0  0  0  0  0  0  0  0  0  0
    6.9254   -3.4728   23.1314 H   0  0  0  0  0  0  0  0  0  0  0  0
  1  2  1  0
  2  3  1  0
  3  4  1  0
  4  5  1  0
  5  6  2  0
  6  7  1  0
  7  8  2  0
  8  9  1  0
  9 10  2  0
 10 11  1  0
 11 12  2  0
 12 13  1  0
 13 14  2  0
 13 15  1  0
 12 16  1  0
 11 17  1  0
 10 18  1  0
  8 19  1  0
  6 20  1  0
  4 21  1  0
 21 22  2  0
 21 23  1  0
 23 24  1  1
 24 25  1  0
 25 26  1  0
 26 27  1  0
 27 28  1  0
 28 29  1  0
 29 30  1  0
 30 31  1  0
 31 32  1  0
 32 33  1  0
 33 34  1  0
 33 35  1  0
 33 36  1  0
 32 37  1  6
 31 38  1  0
 31 39  1  0
 30 40  1  1
 29 41  1  0
 29 42  1  0
 28 43  1  6
 27 44  1  0
 27 45  1  0
 26 46  1  0
 26 47  1  0
 25 48  1  0
 48 49  2  0
 48 50  1  0
 50 51  2  0
 51 52  1  0
 52 53  2  0
 53 54  1  0
 53 55  1  0
 55 56  2  0
 55 57  1  0
 52 58  1  0
 51 59  1  0
 24 60  1  0
 24 61  1  0
  3 62  1  0
  3 63  1  0
  2 64  1  6
  1 65  1  0
  1 66  1  0
  1 67  1  0
 23  2  1  0
 32 28  1  0
 56 50  1  0
 14  5  1  0
 56 23  1  0
 14  9  1  0
 34 30  1  0
M  CHG  1  28   1
M  END
>  <cnnaffinities>  (15) 
[6.363, 6.41532]

>  <score>  (15) 
6.363

>  <index>  (15) 
14

>  <Smiles>  (15) 
C([C@]1(C(N(c2c(nc(c3c(c(c(c(c23)[H])[H])[H])[H])[H])[H])C(=O)[C@]21C(N(C(C([N@@+]1(C([C@@]3(C([C@]1(C(O3)([H])[H])[H])([H])[H])[H])([H])[H])[H])([H])[H])([H])[H])C(=O)c1c(c(c(Cl)c(c21)[H])[H])[H])([H])[H])([H])[H])[H])([H])([H])[H]

>  <h>  (15) 
<NA>

>  <Training>  (15) 
True

>  <Success>  (15) 
True

>  <enamine_searched>  (15) 
False

>  <enamine_id>  (15) 
nan

$$$$

     RDKit          3D

 72 77  0  0  0  0  0  0  0  0999 V2000
    6.9645    7.7668   21.5674 C   0  0  0  0  0  0  0  0  0  0  0  0
    5.9748    6.6191   21.4890 C   0  0  1  0  0  0  0  0  0  0  0  0
    6.6933    5.2621   21.3942 C   0  0  0  0  0  0  0  0  0  0  0  0
    6.9210    4.6788   22.7449 N   0  0  2  0  0  4  0  0  0  0  0  0
    7.6264    3.3861   22.6470 C   0  0  0  0  0  0  0  0  0  0  0  0
    8.0481    2.8750   24.0144 C   0  0  0  0  0  0  0  0  0  0  0  0
    8.7701    1.6263   23.8819 N   0  0  0  0  0  0  0  0  0  0  0  0
    8.0522    0.3636   23.7822 C   0  0  0  0  0  0  0  0  0  0  0  0
    8.4675   -0.4555   22.5264 C   0  0  2  0  0  0  0  0  0  0  0  0
    8.0105    0.1976   21.1997 C   0  0  0  0  0  0  0  0  0  0  0  0
    8.5572    1.0883   20.5804 O   0  0  0  0  0  0  0  0  0  0  0  0
    6.8636   -0.4435   20.7894 N   0  0  0  0  0  0  0  0  0  0  0  0
    6.1017    0.0878   19.7262 C   0  0  0  0  0  0  0  0  0  0  0  0
    6.4430   -0.1913   18.4285 C   0  0  0  0  0  0  0  0  0  0  0  0
    5.7567    0.2590   17.3520 N   0  0  0  0  0  0  0  0  0  0  0  0
    4.7261    1.0326   17.5796 C   0  0  0  0  0  0  0  0  0  0  0  0
    4.2941    1.4343   18.8764 C   0  0  0  0  0  0  0  0  0  0  0  0
    3.1965    2.3131   19.0625 C   0  0  0  0  0  0  0  0  0  0  0  0
    2.8104    2.6767   20.3215 C   0  0  0  0  0  0  0  0  0  0  0  0
    3.4997    2.1859   21.4522 C   0  0  0  0  0  0  0  0  0  0  0  0
    4.5744    1.3425   21.3016 C   0  0  0  0  0  0  0  0  0  0  0  0
    4.9936    0.9418   19.9989 C   0  0  0  0  0  0  0  0  0  0  0  0
    5.1085    0.9996   22.1816 H   0  0  0  0  0  0  0  0  0  0  0  0
    3.1723    2.4793   22.4449 H   0  0  0  0  0  0  0  0  0  0  0  0
    1.9694    3.3500   20.4586 H   0  0  0  0  0  0  0  0  0  0  0  0
    2.6869    2.6849   18.1783 H   0  0  0  0  0  0  0  0  0  0  0  0
    4.1750    1.3900   16.7102 H   0  0  0  0  0  0  0  0  0  0  0  0
    7.3106   -0.8145   18.2308 H   0  0  0  0  0  0  0  0  0  0  0  0
    6.4338   -1.5191   21.6651 C   0  0  0  0  0  0  0  0  0  0  0  0
    7.7238   -1.8155   22.4372 C   0  0  2  0  0  0  0  0  0  0  0  0
    7.5538   -2.5681   23.7431 C   0  0  0  0  0  0  0  0  0  0  0  0
    7.0961   -3.5437   23.5611 H   0  0  0  0  0  0  0  0  0  0  0  0
    8.5307   -2.7196   24.2141 H   0  0  0  0  0  0  0  0  0  0  0  0
    6.9170   -2.0176   24.4444 H   0  0  0  0  0  0  0  0  0  0  0  0
    8.3030   -2.4347   21.7480 H   0  0  0  0  0  0  0  0  0  0  0  0
    5.6024   -1.2240   22.3255 H   0  0  0  0  0  0  0  0  0  0  0  0
    6.0986   -2.3845   21.0823 H   0  0  0  0  0  0  0  0  0  0  0  0
    9.9714   -0.5239   22.5065 C   0  0  0  0  0  0  0  0  0  0  0  0
   10.6014   -1.5261   21.7707 C   0  0  0  0  0  0  0  0  0  0  0  0
   11.9458   -1.4495   21.5001 C   0  0  0  0  0  0  0  0  0  0  0  0
   12.5208   -2.6956   20.4160 Cl  0  0  0  0  0  0  0  0  0  0  0  0
   12.7272   -0.3958   21.9963 C   0  0  0  0  0  0  0  0  0  0  0  0
   12.1234    0.5583   22.7866 C   0  0  0  0  0  0  0  0  0  0  0  0
   10.7490    0.5272   23.0089 C   0  0  0  0  0  0  0  0  0  0  0  0
   10.1155    1.7189   23.6615 C   0  0  0  0  0  0  0  0  0  0  0  0
   10.7616    2.7245   23.9388 O   0  0  0  0  0  0  0  0  0  0  0  0
   12.7013    1.3692   23.2153 H   0  0  0  0  0  0  0  0  0  0  0  0
   13.7747   -0.2912   21.7465 H   0  0  0  0  0  0  0  0  0  0  0  0
   10.0743   -2.3662   21.3346 H   0  0  0  0  0  0  0  0  0  0  0  0
    8.2868   -0.2431   24.6704 H   0  0  0  0  0  0  0  0  0  0  0  0
    6.9697    0.5612   23.7856 H   0  0  0  0  0  0  0  0  0  0  0  0
    8.7170    3.6079   24.4709 H   0  0  0  0  0  0  0  0  0  0  0  0
    7.1876    2.7477   24.6780 H   0  0  0  0  0  0  0  0  0  0  0  0
    8.5162    3.5105   22.0222 H   0  0  0  0  0  0  0  0  0  0  0  0
    6.9708    2.6631   22.1475 H   0  0  0  0  0  0  0  0  0  0  0  0
    5.6632    4.5985   23.6123 C   0  0  1  0  0  0  0  0  0  0  0  0
    5.9871    5.1294   25.0110 C   0  0  0  0  0  0  0  0  0  0  0  0
    5.1343    5.0093   25.6830 H   0  0  0  0  0  0  0  0  0  0  0  0
    6.2422    6.1911   24.9389 H   0  0  0  0  0  0  0  0  0  0  0  0
    6.8418    4.6140   25.4550 H   0  0  0  0  0  0  0  0  0  0  0  0
    4.5760    5.4246   22.9382 C   0  0  0  0  0  0  0  0  0  0  0  0
    5.1120    6.6890   22.6180 O   0  0  0  0  0  0  0  0  0  0  0  0
    3.7366    5.5763   23.6241 H   0  0  0  0  0  0  0  0  0  0  0  0
    4.1916    4.9165   22.0393 H   0  0  0  0  0  0  0  0  0  0  0  0
    5.3477    3.5481   23.6448 H   0  0  0  0  0  0  0  0  0  0  0  0
    7.5648    5.3332   23.2320 H   0  0  0  0  0  0  0  0  0  0  0  0
    7.6664    5.4103   20.9196 H   0  0  0  0  0  0  0  0  0  0  0  0
    6.1331    4.5446   20.7741 H   0  0  0  0  0  0  0  0  0  0  0  0
    5.3692    6.7352   20.5785 H   0  0  0  0  0  0  0  0  0  0  0  0
    6.4619    8.7373   21.5691 H   0  0  0  0  0  0  0  0  0  0  0  0
    7.5911    7.6835   22.4633 H   0  0  0  0  0  0  0  0  0  0  0  0
    7.6091    7.7011   20.6895 H   0  0  0  0  0  0  0  0  0  0  0  0
  1  2  1  0
  2  3  1  0
  3  4  1  0
  4  5  1  0
  5  6  1  0
  6  7  1  0
  7  8  1  0
  9  8  1  1
  9 10  1  0
 10 11  2  0
 10 12  1  0
 12 13  1  0
 13 14  2  0
 14 15  1  0
 15 16  2  0
 16 17  1  0
 17 18  2  0
 18 19  1  0
 19 20  2  0
 20 21  1  0
 21 22  2  0
 21 23  1  0
 20 24  1  0
 19 25  1  0
 18 26  1  0
 16 27  1  0
 14 28  1  0
 12 29  1  0
 29 30  1  0
 30 31  1  0
 31 32  1  0
 31 33  1  0
 31 34  1  0
 30 35  1  6
 29 36  1  0
 29 37  1  0
  9 38  1  0
 38 39  2  0
 39 40  1  0
 40 41  1  0
 40 42  2  0
 42 43  1  0
 43 44  2  0
 44 45  1  0
 45 46  2  0
 43 47  1  0
 42 48  1  0
 39 49  1  0
  8 50  1  0
  8 51  1  0
  6 52  1  0
  6 53  1  0
  5 54  1  0
  5 55  1  0
  4 56  1  0
 56 57  1  0
 57 58  1  0
 57 59  1  0
 57 60  1  0
 56 61  1  0
 61 62  1  0
 61 63  1  0
 61 64  1  0
 56 65  1  1
  4 66  1  1
  3 67  1  0
  3 68  1  0
  2 69  1  6
  1 70  1  0
  1 71  1  0
  1 72  1  0
 62  2  1  0
 45  7  1  0
 30  9  1  0
 44 38  1  0
 22 13  1  0
 22 17  1  0
M  CHG  1   4   1
M  END
>  <cnnaffinities>  (16) 
[6.4859]

>  <score>  (16) 
6.4859

>  <index>  (16) 
15

>  <Smiles>  (16) 
C([C@]1(C([N@+](C(C(N2C([C@@]3(C(=O)N(c4c(nc(c5c(c(c(c(c45)[H])[H])[H])[H])[H])[H])C([C@@]3(C([H])([H])[H])[H])([H])[H])c3c(c(Cl)c(c(c3C2=O)[H])[H])[H])([H])[H])([H])[H])([H])[H])([C@@](C([H])([H])[H])(C(O1)([H])[H])[H])[H])([H])[H])[H])([H])([H])[H]

>  <h>  (16) 
<NA>

>  <Training>  (16) 
True

>  <Success>  (16) 
True

>  <enamine_searched>  (16) 
False

>  <enamine_id>  (16) 
nan

$$$$

     RDKit          3D

 47 50  0  0  0  0  0  0  0  0999 V2000
    7.1349   -4.7369   25.2906 C   0  0  0  0  0  0  0  0  0  0  0  0
    6.6104   -3.3754   24.8587 C   0  0  1  0  0  0  0  0  0  0  0  0
    7.6759   -2.2810   24.9346 C   0  0  0  0  0  0  0  0  0  0  0  0
    7.3656   -1.2920   23.7996 C   0  0  2  0  0  0  0  0  0  0  0  0
    6.6586   -0.0458   24.2985 C   0  0  0  0  0  0  0  0  0  0  0  0
    7.3515    1.1602   24.3886 C   0  0  0  0  0  0  0  0  0  0  0  0
    6.7206    2.3087   24.8543 C   0  0  0  0  0  0  0  0  0  0  0  0
    5.3882    2.2586   25.2529 C   0  0  0  0  0  0  0  0  0  0  0  0
    4.6999    1.0497   25.1985 C   0  0  0  0  0  0  0  0  0  0  0  0
    5.3331   -0.0934   24.7301 C   0  0  0  0  0  0  0  0  0  0  0  0
    4.7788   -1.0268   24.6993 H   0  0  0  0  0  0  0  0  0  0  0  0
    3.6610    0.9987   25.5103 H   0  0  0  0  0  0  0  0  0  0  0  0
    4.8879    3.1559   25.6013 H   0  0  0  0  0  0  0  0  0  0  0  0
    7.2665    3.2456   24.8877 H   0  0  0  0  0  0  0  0  0  0  0  0
    8.3923    1.2034   24.0748 H   0  0  0  0  0  0  0  0  0  0  0  0
    6.5636   -2.0649   22.8606 N   0  0  0  0  0  0  0  0  0  0  0  0
    6.2340   -1.7220   21.5769 C   0  0  0  0  0  0  0  0  0  0  0  0
    5.4446   -2.4029   20.9367 O   0  0  0  0  0  0  0  0  0  0  0  0
    6.9120   -0.4917   20.9234 C   0  0  0  0  0  0  0  0  0  0  0  0
    6.1130    0.0835   19.7741 C   0  0  0  0  0  0  0  0  0  0  0  0
    6.4206   -0.2149   18.4711 C   0  0  0  0  0  0  0  0  0  0  0  0
    5.7557    0.2441   17.3754 N   0  0  0  0  0  0  0  0  0  0  0  0
    4.7331    1.0322   17.5797 C   0  0  0  0  0  0  0  0  0  0  0  0
    4.2840    1.4242   18.8705 C   0  0  0  0  0  0  0  0  0  0  0  0
    3.1651    2.2768   19.0458 C   0  0  0  0  0  0  0  0  0  0  0  0
    2.7521    2.6305   20.2982 C   0  0  0  0  0  0  0  0  0  0  0  0
    3.4492    2.1408   21.4288 C   0  0  0  0  0  0  0  0  0  0  0  0
    4.5352    1.3135   21.2934 C   0  0  0  0  0  0  0  0  0  0  0  0
    4.9890    0.9360   20.0022 C   0  0  0  0  0  0  0  0  0  0  0  0
    5.0474    0.9484   22.1839 H   0  0  0  0  0  0  0  0  0  0  0  0
    3.1118    2.4269   22.4186 H   0  0  0  0  0  0  0  0  0  0  0  0
    1.8967    3.2871   20.4385 H   0  0  0  0  0  0  0  0  0  0  0  0
    2.6460    2.6472   18.1630 H   0  0  0  0  0  0  0  0  0  0  0  0
    4.2003    1.3984   16.6975 H   0  0  0  0  0  0  0  0  0  0  0  0
    7.2641   -0.8658   18.2424 H   0  0  0  0  0  0  0  0  0  0  0  0
    7.8746   -0.8358   20.5199 H   0  0  0  0  0  0  0  0  0  0  0  0
    7.1523    0.2917   21.6534 H   0  0  0  0  0  0  0  0  0  0  0  0
    6.1066   -3.3374   23.4114 C   0  0  0  0  0  0  0  0  0  0  0  0
    6.5195   -4.1591   22.8210 H   0  0  0  0  0  0  0  0  0  0  0  0
    5.0185   -3.4440   23.3480 H   0  0  0  0  0  0  0  0  0  0  0  0
    8.2984   -0.9944   23.3143 H   0  0  0  0  0  0  0  0  0  0  0  0
    8.6697   -2.7181   24.8040 H   0  0  0  0  0  0  0  0  0  0  0  0
    7.6897   -1.7968   25.9118 H   0  0  0  0  0  0  0  0  0  0  0  0
    5.7866   -3.1129   25.5296 H   0  0  0  0  0  0  0  0  0  0  0  0
    7.5030   -4.7397   26.3212 H   0  0  0  0  0  0  0  0  0  0  0  0
    7.9623   -5.0565   24.6511 H   0  0  0  0  0  0  0  0  0  0  0  0
    6.3647   -5.5022   25.2304 H   0  0  0  0  0  0  0  0  0  0  0  0
  1  2  1  0
  2  3  1  0
  3  4  1  0
  4  5  1  0
  5  6  2  0
  6  7  1  0
  7  8  2  0
  8  9  1  0
  9 10  2  0
 10 11  1  0
  9 12  1  0
  8 13  1  0
  7 14  1  0
  6 15  1  0
  4 16  1  0
 16 17  1  0
 17 18  2  0
 17 19  1  0
 19 20  1  0
 20 21  2  0
 21 22  1  0
 22 23  2  0
 23 24  1  0
 24 25  2  0
 25 26  1  0
 26 27  2  0
 27 28  1  0
 28 29  2  0
 28 30  1  0
 27 31  1  0
 26 32  1  0
 25 33  1  0
 23 34  1  0
 21 35  1  0
 19 36  1  0
 19 37  1  0
 16 38  1  0
 38 39  1  0
 38 40  1  0
  4 41  1  6
  3 42  1  0
  3 43  1  0
  2 44  1  1
  1 45  1  0
  1 46  1  0
  1 47  1  0
 38  2  1  0
 10  5  1  0
 29 20  1  0
 29 24  1  0
M  END
>  <cnnaffinities>  (17) 
[5.66556]

>  <score>  (17) 
5.66556

>  <index>  (17) 
16

>  <Smiles>  (17) 
C([C@]1(C([C@](c2c(c(c(c(c2[H])[H])[H])[H])[H])(N(C(=O)C(c2c(nc(c3c(c(c(c(c23)[H])[H])[H])[H])[H])[H])([H])[H])C1([H])[H])[H])([H])[H])[H])([H])([H])[H]

>  <h>  (17) 
<NA>

>  <Training>  (17) 
True

>  <Success>  (17) 
True

>  <enamine_searched>  (17) 
False

>  <enamine_id>  (17) 
nan

$$$$

     RDKit          3D

 58 63  0  0  0  0  0  0  0  0999 V2000
    7.2845   -2.4529   23.8896 C   0  0  0  0  0  0  0  0  0  0  0  0
    7.6039   -1.7095   22.5986 C   0  0  1  0  0  0  0  0  0  0  0  0
    6.4268   -1.5779   21.6155 C   0  0  0  0  0  0  0  0  0  0  0  0
    6.8306   -0.4354   20.8168 N   0  0  0  0  0  0  0  0  0  0  0  0
    6.0739    0.0905   19.7488 C   0  0  0  0  0  0  0  0  0  0  0  0
    6.4262   -0.1977   18.4592 C   0  0  0  0  0  0  0  0  0  0  0  0
    5.7479    0.2503   17.3780 N   0  0  0  0  0  0  0  0  0  0  0  0
    4.7157    1.0264   17.5966 C   0  0  0  0  0  0  0  0  0  0  0  0
    4.2774    1.4363   18.8885 C   0  0  0  0  0  0  0  0  0  0  0  0
    3.1697    2.3040   19.0702 C   0  0  0  0  0  0  0  0  0  0  0  0
    2.7802    2.6769   20.3260 C   0  0  0  0  0  0  0  0  0  0  0  0
    3.4822    2.2107   21.4629 C   0  0  0  0  0  0  0  0  0  0  0  0
    4.5615    1.3772   21.3136 C   0  0  0  0  0  0  0  0  0  0  0  0
    4.9812    0.9653   20.0126 C   0  0  0  0  0  0  0  0  0  0  0  0
    5.1025    1.0350   22.1934 H   0  0  0  0  0  0  0  0  0  0  0  0
    3.1725    2.5168   22.4579 H   0  0  0  0  0  0  0  0  0  0  0  0
    1.9323    3.3425   20.4551 H   0  0  0  0  0  0  0  0  0  0  0  0
    2.6587    2.6700   18.1841 H   0  0  0  0  0  0  0  0  0  0  0  0
    4.1763    1.3770   16.7195 H   0  0  0  0  0  0  0  0  0  0  0  0
    7.2999   -0.8191   18.2703 H   0  0  0  0  0  0  0  0  0  0  0  0
    7.7033    0.4076   21.4620 C   0  0  0  0  0  0  0  0  0  0  0  0
    8.0201    1.4995   21.0380 O   0  0  0  0  0  0  0  0  0  0  0  0
    8.2035   -0.2834   22.7411 C   0  0  1  0  0  0  0  0  0  0  0  0
    7.6808    0.4601   23.9892 C   0  0  0  0  0  0  0  0  0  0  0  0
    8.2774    1.7803   24.1090 N   0  0  0  0  0  0  0  0  0  0  0  0
    7.3708    2.9268   23.9919 C   0  0  0  0  0  0  0  0  0  0  0  0
    6.3199    2.8778   25.0535 C   0  0  0  0  0  0  0  0  0  0  0  0
    5.0623    2.5261   24.9144 N   0  0  0  0  0  0  0  0  0  0  0  0
    4.4824    2.5628   26.1582 N   0  0  0  0  0  0  0  0  0  0  0  0
    5.4116    2.9248   27.0025 C   0  0  0  0  0  0  0  0  0  0  0  0
    6.6020    3.1255   26.3631 N   0  0  0  0  0  0  0  0  0  0  0  0
    7.8745    3.5859   26.9057 C   0  0  0  0  0  0  0  0  0  0  0  0
    7.9498    3.2578   27.9453 H   0  0  0  0  0  0  0  0  0  0  0  0
    8.6991    3.1521   26.3324 H   0  0  0  0  0  0  0  0  0  0  0  0
    7.9458    4.6790   26.8602 H   0  0  0  0  0  0  0  0  0  0  0  0
    5.2816    3.0690   28.0664 H   0  0  0  0  0  0  0  0  0  0  0  0
    7.9689    3.8399   24.0863 H   0  0  0  0  0  0  0  0  0  0  0  0
    6.8889    2.9314   23.0031 H   0  0  0  0  0  0  0  0  0  0  0  0
    9.6293    1.9611   23.9690 C   0  0  0  0  0  0  0  0  0  0  0  0
   10.1817    3.0134   24.2669 O   0  0  0  0  0  0  0  0  0  0  0  0
   10.3913    0.8091   23.3789 C   0  0  0  0  0  0  0  0  0  0  0  0
   11.7859    0.8519   23.3566 C   0  0  0  0  0  0  0  0  0  0  0  0
   12.4890    0.0028   22.5250 C   0  0  0  0  0  0  0  0  0  0  0  0
   11.7769   -0.8867   21.7203 C   0  0  0  0  0  0  0  0  0  0  0  0
   12.4011   -1.6058   20.7727 F   0  0  0  0  0  0  0  0  0  0  0  0
   10.4143   -1.0248   21.8141 C   0  0  0  0  0  0  0  0  0  0  0  0
    9.7115   -0.2119   22.7055 C   0  0  0  0  0  0  0  0  0  0  0  0
    9.9112   -1.7322   21.1585 H   0  0  0  0  0  0  0  0  0  0  0  0
   13.5684    0.0542   22.4658 H   0  0  0  0  0  0  0  0  0  0  0  0
   12.3188    1.5751   23.9639 H   0  0  0  0  0  0  0  0  0  0  0  0
    6.5927    0.5866   23.9270 H   0  0  0  0  0  0  0  0  0  0  0  0
    7.9224   -0.1195   24.8906 H   0  0  0  0  0  0  0  0  0  0  0  0
    6.3163   -2.4646   20.9810 H   0  0  0  0  0  0  0  0  0  0  0  0
    5.4630   -1.4014   22.1252 H   0  0  0  0  0  0  0  0  0  0  0  0
    8.3570   -2.2977   22.0742 H   0  0  0  0  0  0  0  0  0  0  0  0
    8.1734   -2.5044   24.5283 H   0  0  0  0  0  0  0  0  0  0  0  0
    6.9646   -3.4779   23.6750 H   0  0  0  0  0  0  0  0  0  0  0  0
    6.4867   -1.9643   24.4596 H   0  0  0  0  0  0  0  0  0  0  0  0
  1  2  1  0
  2  3  1  0
  3  4  1  0
  4  5  1  0
  5  6  2  0
  6  7  1  0
  7  8  2  0
  8  9  1  0
  9 10  2  0
 10 11  1  0
 11 12  2  0
 12 13  1  0
 13 14  2  0
 13 15  1  0
 12 16  1  0
 11 17  1  0
 10 18  1  0
  8 19  1  0
  6 20  1  0
  4 21  1  0
 21 22  2  0
 21 23  1  0
 23 24  1  1
 24 25  1  0
 25 26  1  0
 26 27  1  0
 27 28  2  0
 28 29  1  0
 29 30  2  0
 30 31  1  0
 31 32  1  0
 32 33  1  0
 32 34  1  0
 32 35  1  0
 30 36  1  0
 26 37  1  0
 26 38  1  0
 25 39  1  0
 39 40  2  0
 39 41  1  0
 41 42  2  0
 42 43  1  0
 43 44  2  0
 44 45  1  0
 44 46  1  0
 46 47  2  0
 46 48  1  0
 43 49  1  0
 42 50  1  0
 24 51  1  0
 24 52  1  0
  3 53  1  0
  3 54  1  0
  2 55  1  6
  1 56  1  0
  1 57  1  0
  1 58  1  0
 23  2  1  0
 31 27  1  0
 47 41  1  0
 14  5  1  0
 47 23  1  0
 14  9  1  0
M  END
>  <cnnaffinities>  (18) 
[5.9997, 6.39181]

>  <score>  (18) 
5.9997

>  <index>  (18) 
17

>  <Smiles>  (18) 
C([C@]1(C(N(c2c(nc(c3c(c(c(c(c23)[H])[H])[H])[H])[H])[H])C(=O)[C@]21C(N(C(c1nnc(n1C([H])([H])[H])[H])([H])[H])C(=O)c1c(c(c(F)c(c21)[H])[H])[H])([H])[H])([H])[H])[H])([H])([H])[H]

>  <h>  (18) 
<NA>

>  <Training>  (18) 
True

>  <Success>  (18) 
True

>  <enamine_searched>  (18) 
False

>  <enamine_id>  (18) 
nan

$$$$

     RDKit          3D

 50 53  0  0  0  0  0  0  0  0999 V2000
    3.9011   -1.8264   29.3970 C   0  0  0  0  0  0  0  0  0  0  0  0
    3.9696   -2.1647   27.9150 C   0  0  1  0  0  0  0  0  0  0  0  0
    4.0175   -0.9055   27.0488 C   0  0  0  0  0  0  0  0  0  0  0  0
    4.1270   -1.2247   25.5555 C   0  0  0  0  0  0  0  0  0  0  0  0
    5.2869   -2.1853   25.1950 C   0  0  2  0  0  0  0  0  0  0  0  0
    6.6536   -1.4727   25.2922 C   0  0  0  0  0  0  0  0  0  0  0  0
    6.9251   -0.8661   23.9099 C   0  0  0  0  0  0  0  0  0  0  0  0
    6.0992   -1.6414   22.9924 N   0  0  0  0  0  0  0  0  0  0  0  0
    6.1461   -1.6288   21.6269 C   0  0  0  0  0  0  0  0  0  0  0  0
    5.5825   -2.4855   20.9641 O   0  0  0  0  0  0  0  0  0  0  0  0
    6.9093   -0.4855   20.9198 C   0  0  0  0  0  0  0  0  0  0  0  0
    6.1152    0.0912   19.7685 C   0  0  0  0  0  0  0  0  0  0  0  0
    6.4214   -0.2140   18.4660 C   0  0  0  0  0  0  0  0  0  0  0  0
    5.7563    0.2428   17.3722 N   0  0  0  0  0  0  0  0  0  0  0  0
    4.7325    1.0324   17.5773 C   0  0  0  0  0  0  0  0  0  0  0  0
    4.2850    1.4250   18.8692 C   0  0  0  0  0  0  0  0  0  0  0  0
    3.1627    2.2756   19.0434 C   0  0  0  0  0  0  0  0  0  0  0  0
    2.7491    2.6275   20.3000 C   0  0  0  0  0  0  0  0  0  0  0  0
    3.4427    2.1437   21.4309 C   0  0  0  0  0  0  0  0  0  0  0  0
    4.5333    1.3207   21.2876 C   0  0  0  0  0  0  0  0  0  0  0  0
    4.9896    0.9414   19.9963 C   0  0  0  0  0  0  0  0  0  0  0  0
    5.0478    0.9570   22.1723 H   0  0  0  0  0  0  0  0  0  0  0  0
    3.1056    2.4261   22.4229 H   0  0  0  0  0  0  0  0  0  0  0  0
    1.8919    3.2805   20.4366 H   0  0  0  0  0  0  0  0  0  0  0  0
    2.6413    2.6449   18.1637 H   0  0  0  0  0  0  0  0  0  0  0  0
    4.1984    1.3990   16.6990 H   0  0  0  0  0  0  0  0  0  0  0  0
    7.2657   -0.8672   18.2463 H   0  0  0  0  0  0  0  0  0  0  0  0
    7.8356   -0.9157   20.5175 H   0  0  0  0  0  0  0  0  0  0  0  0
    7.2117    0.3114   21.6094 H   0  0  0  0  0  0  0  0  0  0  0  0
    5.2290   -2.5789   23.6996 C   0  0  0  0  0  0  0  0  0  0  0  0
    5.5656   -3.6116   23.5484 H   0  0  0  0  0  0  0  0  0  0  0  0
    4.2094   -2.5249   23.3090 H   0  0  0  0  0  0  0  0  0  0  0  0
    7.9831   -0.9506   23.6501 H   0  0  0  0  0  0  0  0  0  0  0  0
    6.6507    0.1946   23.8871 H   0  0  0  0  0  0  0  0  0  0  0  0
    6.6751   -0.7050   26.0697 H   0  0  0  0  0  0  0  0  0  0  0  0
    7.4346   -2.1942   25.5541 H   0  0  0  0  0  0  0  0  0  0  0  0
    5.2165   -3.4243   26.1113 C   0  0  0  0  0  0  0  0  0  0  0  0
    5.1544   -3.0770   27.5987 C   0  0  0  0  0  0  0  0  0  0  0  0
    5.0913   -3.9941   28.1992 H   0  0  0  0  0  0  0  0  0  0  0  0
    6.0867   -2.5834   27.9022 H   0  0  0  0  0  0  0  0  0  0  0  0
    4.3269   -4.0140   25.8508 H   0  0  0  0  0  0  0  0  0  0  0  0
    6.0768   -4.0777   25.9183 H   0  0  0  0  0  0  0  0  0  0  0  0
    3.1809   -1.6848   25.2418 H   0  0  0  0  0  0  0  0  0  0  0  0
    4.2220   -0.2975   24.9769 H   0  0  0  0  0  0  0  0  0  0  0  0
    3.1214   -0.2974   27.2314 H   0  0  0  0  0  0  0  0  0  0  0  0
    4.8637   -0.2821   27.3639 H   0  0  0  0  0  0  0  0  0  0  0  0
    3.0564   -2.7115   27.6474 H   0  0  0  0  0  0  0  0  0  0  0  0
    3.0368   -1.1950   29.6234 H   0  0  0  0  0  0  0  0  0  0  0  0
    3.8336   -2.7308   30.0092 H   0  0  0  0  0  0  0  0  0  0  0  0
    4.7999   -1.2837   29.7068 H   0  0  0  0  0  0  0  0  0  0  0  0
  1  2  1  0
  2  3  1  0
  3  4  1  0
  5  4  1  1
  5  6  1  0
  6  7  1  0
  7  8  1  0
  8  9  1  0
  9 10  2  0
  9 11  1  0
 11 12  1  0
 12 13  2  0
 13 14  1  0
 14 15  2  0
 15 16  1  0
 16 17  2  0
 17 18  1  0
 18 19  2  0
 19 20  1  0
 20 21  2  0
 20 22  1  0
 19 23  1  0
 18 24  1  0
 17 25  1  0
 15 26  1  0
 13 27  1  0
 11 28  1  0
 11 29  1  0
  8 30  1  0
 30 31  1  0
 30 32  1  0
  7 33  1  0
  7 34  1  0
  6 35  1  0
  6 36  1  0
  5 37  1  0
 37 38  1  0
 38 39  1  0
 38 40  1  0
 37 41  1  0
 37 42  1  0
  4 43  1  0
  4 44  1  0
  3 45  1  0
  3 46  1  0
  2 47  1  6
  1 48  1  0
  1 49  1  0
  1 50  1  0
 38  2  1  0
 30  5  1  0
 21 12  1  0
 21 16  1  0
M  END
>  <cnnaffinities>  (19) 
[5.4392]

>  <score>  (19) 
5.4392

>  <index>  (19) 
18

>  <Smiles>  (19) 
C([C@]1(C(C([C@@]2(C(C(N(C(=O)C(c3c(nc(c4c(c(c(c(c34)[H])[H])[H])[H])[H])[H])([H])[H])C2([H])[H])([H])[H])([H])[H])C(C1([H])[H])([H])[H])([H])[H])([H])[H])[H])([H])([H])[H]

>  <h>  (19) 
<NA>

>  <Training>  (19) 
True

>  <Success>  (19) 
True

>  <enamine_searched>  (19) 
False

>  <enamine_id>  (19) 
nan

$$$$

     RDKit          3D

 67 71  0  0  0  0  0  0  0  0999 V2000
    3.5964   -5.2875   21.8599 O   0  0  0  0  0  0  0  0  0  0  0  0
    4.1719   -5.8539   22.7812 C   0  0  0  0  0  0  0  0  0  0  0  0
    5.6876   -5.6798   22.8359 C   0  0  0  0  0  0  0  0  0  0  0  0
    5.8955   -4.2029   22.7696 N   0  0  1  0  0  4  0  0  0  0  0  0
    5.1882   -3.5947   23.9523 C   0  0  0  0  0  0  0  0  0  0  0  0
    5.5254   -2.1579   24.2532 C   0  0  0  0  0  0  0  0  0  0  0  0
    4.7233   -1.4476   25.1506 C   0  0  0  0  0  0  0  0  0  0  0  0
    5.0685   -0.1669   25.5600 C   0  0  0  0  0  0  0  0  0  0  0  0
    6.2417    0.3973   25.0633 C   0  0  0  0  0  0  0  0  0  0  0  0
    6.7110    1.9957   25.5799 Cl  0  0  0  0  0  0  0  0  0  0  0  0
    7.0262   -0.2783   24.1398 C   0  0  0  0  0  0  0  0  0  0  0  0
    6.6469   -1.5489   23.7032 C   0  0  0  0  0  0  0  0  0  0  0  0
    7.3382   -2.2236   22.5399 C   0  0  2  0  0  0  0  0  0  0  0  0
    6.5979   -1.8181   21.2585 C   0  0  0  0  0  0  0  0  0  0  0  0
    5.8330   -2.5710   20.6695 O   0  0  0  0  0  0  0  0  0  0  0  0
    6.8097   -0.5299   20.8430 N   0  0  0  0  0  0  0  0  0  0  0  0
    6.0929    0.0452   19.7675 C   0  0  0  0  0  0  0  0  0  0  0  0
    6.4345   -0.2473   18.4764 C   0  0  0  0  0  0  0  0  0  0  0  0
    5.7938    0.2461   17.3885 N   0  0  0  0  0  0  0  0  0  0  0  0
    4.7698    1.0358   17.5930 C   0  0  0  0  0  0  0  0  0  0  0  0
    4.3157    1.4350   18.8825 C   0  0  0  0  0  0  0  0  0  0  0  0
    3.1939    2.2824   19.0562 C   0  0  0  0  0  0  0  0  0  0  0  0
    2.7728    2.6264   20.3112 C   0  0  0  0  0  0  0  0  0  0  0  0
    3.4601    2.1392   21.4471 C   0  0  0  0  0  0  0  0  0  0  0  0
    4.5456    1.3161   21.3082 C   0  0  0  0  0  0  0  0  0  0  0  0
    5.0004    0.9385   20.0146 C   0  0  0  0  0  0  0  0  0  0  0  0
    5.0390    0.9209   22.1945 H   0  0  0  0  0  0  0  0  0  0  0  0
    3.1072    2.4159   22.4370 H   0  0  0  0  0  0  0  0  0  0  0  0
    1.9146    3.2761   20.4442 H   0  0  0  0  0  0  0  0  0  0  0  0
    2.6766    2.6419   18.1711 H   0  0  0  0  0  0  0  0  0  0  0  0
    4.2302    1.3922   16.7142 H   0  0  0  0  0  0  0  0  0  0  0  0
    7.2862   -0.8975   18.2885 H   0  0  0  0  0  0  0  0  0  0  0  0
    7.2418    0.1149   21.4914 H   0  0  0  0  0  0  0  0  0  0  0  0
    7.3102   -3.7468   22.6769 C   0  0  0  0  0  0  0  0  0  0  0  0
    7.7891   -4.2002   21.8063 H   0  0  0  0  0  0  0  0  0  0  0  0
    7.8585   -4.0670   23.5694 H   0  0  0  0  0  0  0  0  0  0  0  0
    8.3716   -1.8634   22.4741 H   0  0  0  0  0  0  0  0  0  0  0  0
    7.9277    0.1901   23.7557 H   0  0  0  0  0  0  0  0  0  0  0  0
    4.4512    0.3859   26.2634 H   0  0  0  0  0  0  0  0  0  0  0  0
    3.8167   -1.9029   25.5465 H   0  0  0  0  0  0  0  0  0  0  0  0
    5.4172   -4.2090   24.8324 H   0  0  0  0  0  0  0  0  0  0  0  0
    4.1098   -3.6741   23.7897 H   0  0  0  0  0  0  0  0  0  0  0  0
    5.4248   -3.8699   21.8959 H   0  0  0  0  0  0  0  0  0  0  0  0
    6.1439   -6.0876   23.7445 H   0  0  0  0  0  0  0  0  0  0  0  0
    6.1232   -6.1666   21.9577 H   0  0  0  0  0  0  0  0  0  0  0  0
    3.5113   -6.4922   23.7679 N   0  0  0  0  0  0  0  0  0  0  0  0
    2.0708   -6.6960   23.6857 C   0  0  0  0  0  0  0  0  0  0  0  0
    1.2834   -5.3769   23.6096 C   0  0  0  0  0  0  0  0  0  0  0  0
   -0.2106   -5.5743   23.5785 C   0  0  0  0  0  0  0  0  0  0  0  0
   -0.9411   -5.6120   24.7672 C   0  0  0  0  0  0  0  0  0  0  0  0
   -2.3147   -5.8310   24.7566 C   0  0  0  0  0  0  0  0  0  0  0  0
   -2.9867   -6.0157   23.5527 C   0  0  0  0  0  0  0  0  0  0  0  0
   -4.4653   -6.2488   23.5385 C   0  0  0  0  0  0  0  0  0  0  0  0
   -5.0854   -5.3345   22.7378 F   0  0  0  0  0  0  0  0  0  0  0  0
   -4.7423   -7.4755   23.0095 F   0  0  0  0  0  0  0  0  0  0  0  0
   -4.9147   -6.1934   24.5371 H   0  0  0  0  0  0  0  0  0  0  0  0
   -2.2684   -5.9783   22.3583 C   0  0  0  0  0  0  0  0  0  0  0  0
   -0.8955   -5.7552   22.3730 C   0  0  0  0  0  0  0  0  0  0  0  0
   -0.3539   -5.7115   21.4280 H   0  0  0  0  0  0  0  0  0  0  0  0
   -2.7899   -6.1110   21.4142 H   0  0  0  0  0  0  0  0  0  0  0  0
   -2.8636   -5.8437   25.6978 H   0  0  0  0  0  0  0  0  0  0  0  0
   -0.4260   -5.4620   25.7143 H   0  0  0  0  0  0  0  0  0  0  0  0
    1.5536   -4.7511   24.4710 H   0  0  0  0  0  0  0  0  0  0  0  0
    1.6162   -4.8550   22.7098 H   0  0  0  0  0  0  0  0  0  0  0  0
    1.7631   -7.2850   24.5506 H   0  0  0  0  0  0  0  0  0  0  0  0
    1.8327   -7.2904   22.7963 H   0  0  0  0  0  0  0  0  0  0  0  0
    4.0077   -6.7678   24.6038 H   0  0  0  0  0  0  0  0  0  0  0  0
  1  2  2  0
  2  3  1  0
  3  4  1  0
  4  5  1  0
  5  6  1  0
  6  7  2  0
  7  8  1  0
  8  9  2  0
  9 10  1  0
  9 11  1  0
 11 12  2  0
 12 13  1  0
 13 14  1  0
 14 15  2  0
 14 16  1  0
 16 17  1  0
 17 18  2  0
 18 19  1  0
 19 20  2  0
 20 21  1  0
 21 22  2  0
 22 23  1  0
 23 24  2  0
 24 25  1  0
 25 26  2  0
 25 27  1  0
 24 28  1  0
 23 29  1  0
 22 30  1  0
 20 31  1  0
 18 32  1  0
 16 33  1  0
 13 34  1  0
 34 35  1  0
 34 36  1  0
 13 37  1  6
 11 38  1  0
  8 39  1  0
  7 40  1  0
  5 41  1  0
  5 42  1  0
  4 43  1  6
  3 44  1  0
  3 45  1  0
  2 46  1  0
 46 47  1  0
 47 48  1  0
 48 49  1  0
 49 50  2  0
 50 51  1  0
 51 52  2  0
 52 53  1  0
 53 54  1  0
 53 55  1  0
 53 56  1  0
 52 57  1  0
 57 58  2  0
 58 59  1  0
 57 60  1  0
 51 61  1  0
 50 62  1  0
 48 63  1  0
 48 64  1  0
 47 65  1  0
 47 66  1  0
 46 67  1  0
 34  4  1  0
 58 49  1  0
 12  6  1  0
 26 17  1  0
 26 21  1  0
M  CHG  1   4   1
M  END
>  <cnnaffinities>  (20) 
[5.73383]

>  <score>  (20) 
5.73383

>  <index>  (20) 
19

>  <Smiles>  (20) 
O=C(C([N@+]1(C(c2c(c(c(Cl)c(c2[C@](C(=O)N(c2c(nc(c3c(c(c(c(c23)[H])[H])[H])[H])[H])[H])[H])(C1([H])[H])[H])[H])[H])[H])([H])[H])[H])([H])[H])N(C(C(c1c(c(c(C(F)(F)[H])c(c1[H])[H])[H])[H])([H])[H])([H])[H])[H]

>  <h>  (20) 
<NA>

>  <Training>  (20) 
True

>  <Success>  (20) 
True

>  <enamine_searched>  (20) 
False

>  <enamine_id>  (20) 
nan

$$$$

     RDKit          3D

 66 70  0  0  0  0  0  0  0  0999 V2000
    4.1914    7.1088   21.4451 C   0  0  0  0  0  0  0  0  0  0  0  0
    5.4052    6.2172   21.2832 C   0  0  0  0  0  0  0  0  0  0  0  0
    5.8107    5.4253   22.4851 C   0  0  0  0  0  0  0  0  0  0  0  0
    5.0887    4.5692   22.9557 O   0  0  0  0  0  0  0  0  0  0  0  0
    7.1086    5.6617   22.9195 N   0  0  0  0  0  0  0  0  0  0  0  0
    7.6258    7.0206   23.0267 C   0  0  0  0  0  0  0  0  0  0  0  0
    8.1623    7.1967   24.4350 C   0  0  0  0  0  0  0  0  0  0  0  0
    9.3025    6.2033   24.6527 C   0  0  0  0  0  0  0  0  0  0  0  0
    8.9661    4.7968   24.2022 C   0  0  0  0  0  0  0  0  0  0  0  0
    9.6950    3.6868   24.6224 C   0  0  0  0  0  0  0  0  0  0  0  0
    9.4006    2.4028   24.1747 C   0  0  0  0  0  0  0  0  0  0  0  0
    8.3604    2.2172   23.2689 C   0  0  0  0  0  0  0  0  0  0  0  0
    8.0042    0.9170   22.7997 N   0  0  0  0  0  0  0  0  0  0  0  0
    7.8786    0.7476   21.4079 C   0  0  0  0  0  0  0  0  0  0  0  0
    8.4404    1.4863   20.6378 O   0  0  0  0  0  0  0  0  0  0  0  0
    6.9901   -0.3975   20.9248 C   0  0  0  0  0  0  0  0  0  0  0  0
    6.1197    0.0732   19.7892 C   0  0  0  0  0  0  0  0  0  0  0  0
    6.4395   -0.2225   18.4907 C   0  0  0  0  0  0  0  0  0  0  0  0
    5.7749    0.2283   17.3953 N   0  0  0  0  0  0  0  0  0  0  0  0
    4.7489    1.0140   17.6010 C   0  0  0  0  0  0  0  0  0  0  0  0
    4.3012    1.4154   18.8881 C   0  0  0  0  0  0  0  0  0  0  0  0
    3.1943    2.2862   19.0613 C   0  0  0  0  0  0  0  0  0  0  0  0
    2.7922    2.6641   20.3132 C   0  0  0  0  0  0  0  0  0  0  0  0
    3.4897    2.1892   21.4481 C   0  0  0  0  0  0  0  0  0  0  0  0
    4.5702    1.3528   21.3059 C   0  0  0  0  0  0  0  0  0  0  0  0
    5.0066    0.9342   20.0195 C   0  0  0  0  0  0  0  0  0  0  0  0
    5.0914    1.0110   22.1986 H   0  0  0  0  0  0  0  0  0  0  0  0
    3.1847    2.5053   22.4420 H   0  0  0  0  0  0  0  0  0  0  0  0
    1.9431    3.3328   20.4397 H   0  0  0  0  0  0  0  0  0  0  0  0
    2.6809    2.6521   18.1750 H   0  0  0  0  0  0  0  0  0  0  0  0
    4.2129    1.3807   16.7232 H   0  0  0  0  0  0  0  0  0  0  0  0
    7.2948   -0.8652   18.2808 H   0  0  0  0  0  0  0  0  0  0  0  0
    6.4160   -0.7838   21.7700 H   0  0  0  0  0  0  0  0  0  0  0  0
    7.6522   -1.2023   20.5741 H   0  0  0  0  0  0  0  0  0  0  0  0
    8.0882   -0.1865   23.6345 N   0  0  0  0  0  0  0  0  0  0  0  0
    9.0556   -1.2208   23.3439 C   0  0  0  0  0  0  0  0  0  0  0  0
    8.6022   -2.2052   23.4909 H   0  0  0  0  0  0  0  0  0  0  0  0
    9.9437   -1.1570   23.9871 H   0  0  0  0  0  0  0  0  0  0  0  0
    9.3866   -1.1653   22.3072 H   0  0  0  0  0  0  0  0  0  0  0  0
    7.2910   -0.2723   24.7688 C   0  0  0  0  0  0  0  0  0  0  0  0
    7.5356   -1.2463   25.7528 C   0  0  0  0  0  0  0  0  0  0  0  0
    6.8696   -1.1678   26.9704 C   0  0  0  0  0  0  0  0  0  0  0  0
    5.9104   -0.1902   27.2088 C   0  0  0  0  0  0  0  0  0  0  0  0
    5.5808    0.6677   26.1668 C   0  0  0  0  0  0  0  0  0  0  0  0
    4.3361    1.8662   26.3830 Cl  0  0  0  0  0  0  0  0  0  0  0  0
    6.2492    0.6460   24.9583 C   0  0  0  0  0  0  0  0  0  0  0  0
    5.9921    1.3605   24.1808 H   0  0  0  0  0  0  0  0  0  0  0  0
    5.4348   -0.0789   28.1773 H   0  0  0  0  0  0  0  0  0  0  0  0
    7.1227   -1.8800   27.7545 H   0  0  0  0  0  0  0  0  0  0  0  0
    8.2802   -2.0326   25.6177 H   0  0  0  0  0  0  0  0  0  0  0  0
    7.6186    3.3003   22.8329 C   0  0  0  0  0  0  0  0  0  0  0  0
    7.9006    4.5778   23.3252 C   0  0  0  0  0  0  0  0  0  0  0  0
    6.8409    3.1666   22.0842 H   0  0  0  0  0  0  0  0  0  0  0  0
    9.9883    1.5460   24.4752 H   0  0  0  0  0  0  0  0  0  0  0  0
   10.5258    3.8324   25.3078 H   0  0  0  0  0  0  0  0  0  0  0  0
   10.1791    6.5577   24.0938 H   0  0  0  0  0  0  0  0  0  0  0  0
    9.6058    6.1921   25.7034 H   0  0  0  0  0  0  0  0  0  0  0  0
    7.3498    7.0239   25.1482 H   0  0  0  0  0  0  0  0  0  0  0  0
    8.5042    8.2240   24.5814 H   0  0  0  0  0  0  0  0  0  0  0  0
    8.4139    7.2043   22.2798 H   0  0  0  0  0  0  0  0  0  0  0  0
    6.8047    7.7130   22.8192 H   0  0  0  0  0  0  0  0  0  0  0  0
    6.2664    6.7696   20.9058 H   0  0  0  0  0  0  0  0  0  0  0  0
    5.2102    5.3998   20.5884 H   0  0  0  0  0  0  0  0  0  0  0  0
    3.9460    7.5656   20.4839 H   0  0  0  0  0  0  0  0  0  0  0  0
    4.3569    7.9160   22.1611 H   0  0  0  0  0  0  0  0  0  0  0  0
    3.3327    6.5289   21.7791 H   0  0  0  0  0  0  0  0  0  0  0  0
  1  2  1  0
  2  3  1  0
  3  4  2  0
  3  5  1  0
  5  6  1  0
  6  7  1  0
  7  8  1  0
  8  9  1  0
  9 10  2  0
 10 11  1  0
 11 12  2  0
 12 13  1  0
 13 14  1  0
 14 15  2  0
 14 16  1  0
 16 17  1  0
 17 18  2  0
 18 19  1  0
 19 20  2  0
 20 21  1  0
 21 22  2  0
 22 23  1  0
 23 24  2  0
 24 25  1  0
 25 26  2  0
 25 27  1  0
 24 28  1  0
 23 29  1  0
 22 30  1  0
 20 31  1  0
 18 32  1  0
 16 33  1  0
 16 34  1  0
 13 35  1  0
 35 36  1  0
 36 37  1  0
 36 38  1  0
 36 39  1  0
 35 40  1  0
 40 41  2  0
 41 42  1  0
 42 43  2  0
 43 44  1  0
 44 45  1  0
 44 46  2  0
 46 47  1  0
 43 48  1  0
 42 49  1  0
 41 50  1  0
 12 51  1  0
 51 52  2  0
 51 53  1  0
 11 54  1  0
 10 55  1  0
  8 56  1  0
  8 57  1  0
  7 58  1  0
  7 59  1  0
  6 60  1  0
  6 61  1  0
  2 62  1  0
  2 63  1  0
  1 64  1  0
  1 65  1  0
  1 66  1  0
 52  5  1  0
 52  9  1  0
 26 17  1  0
 46 40  1  0
 26 21  1  0
M  END
>  <cnnaffinities>  (21) 
[6.13573, 6.46231]

>  <score>  (21) 
6.13573

>  <index>  (21) 
20

>  <Smiles>  (21) 
C(C(C(=O)N1C(C(C(c2c(c(c(N(C(=O)C(c3c(nc(c4c(c(c(c(c34)[H])[H])[H])[H])[H])[H])([H])[H])N(C([H])([H])[H])c3c(c(c(c(Cl)c3[H])[H])[H])[H])c(c12)[H])[H])[H])([H])[H])([H])[H])([H])[H])([H])[H])([H])([H])[H]

>  <h>  (21) 
<NA>

>  <Training>  (21) 
True

>  <Success>  (21) 
True

>  <enamine_searched>  (21) 
False

>  <enamine_id>  (21) 
nan

$$$$

     RDKit          3D

 59 64  0  0  0  0  0  0  0  0999 V2000
    6.8016   -2.2554   23.6489 C   0  0  0  0  0  0  0  0  0  0  0  0
    7.7653   -1.8285   22.5298 C   0  0  1  0  0  0  0  0  0  0  0  0
    7.0363   -1.7852   21.1676 C   0  0  0  0  0  0  0  0  0  0  0  0
    6.8796   -0.3805   20.8764 N   0  0  0  0  0  0  0  0  0  0  0  0
    6.1287    0.1091   19.7791 C   0  0  0  0  0  0  0  0  0  0  0  0
    6.4433   -0.2258   18.4860 C   0  0  0  0  0  0  0  0  0  0  0  0
    5.7701    0.2266   17.4007 N   0  0  0  0  0  0  0  0  0  0  0  0
    4.7482    1.0215   17.6015 C   0  0  0  0  0  0  0  0  0  0  0  0
    4.2956    1.4274   18.8874 C   0  0  0  0  0  0  0  0  0  0  0  0
    3.1688    2.2759   19.0640 C   0  0  0  0  0  0  0  0  0  0  0  0
    2.7446    2.6192   20.3198 C   0  0  0  0  0  0  0  0  0  0  0  0
    3.4289    2.1303   21.4545 C   0  0  0  0  0  0  0  0  0  0  0  0
    4.5238    1.3165   21.3085 C   0  0  0  0  0  0  0  0  0  0  0  0
    5.0004    0.9549   20.0186 C   0  0  0  0  0  0  0  0  0  0  0  0
    5.0304    0.9183   22.1800 H   0  0  0  0  0  0  0  0  0  0  0  0
    3.0760    2.3963   22.4473 H   0  0  0  0  0  0  0  0  0  0  0  0
    1.8815    3.2649   20.4477 H   0  0  0  0  0  0  0  0  0  0  0  0
    2.6574    2.6421   18.1785 H   0  0  0  0  0  0  0  0  0  0  0  0
    4.2220    1.3823   16.7169 H   0  0  0  0  0  0  0  0  0  0  0  0
    7.2889   -0.8740   18.2611 H   0  0  0  0  0  0  0  0  0  0  0  0
    7.7195    0.4356   21.5994 C   0  0  0  0  0  0  0  0  0  0  0  0
    7.8760    1.6163   21.3755 O   0  0  0  0  0  0  0  0  0  0  0  0
    8.4357   -0.4167   22.6807 C   0  0  1  0  0  0  0  0  0  0  0  0
    8.2468    0.1774   24.1008 C   0  0  0  0  0  0  0  0  0  0  0  0
    8.9698    1.4190   24.3207 N   0  0  0  0  0  0  0  0  0  0  0  0
    8.2812    2.5702   24.9058 C   0  0  0  0  0  0  0  0  0  0  0  0
    7.7588    3.5706   23.8962 C   0  0  0  0  0  0  0  0  0  0  0  0
    8.4781    4.5939   23.2387 C   0  0  0  0  0  0  0  0  0  0  0  0
    7.7394    5.2228   22.3328 N   0  0  0  0  0  0  0  0  0  0  0  0
    6.5471    4.6248   22.3920 N   0  0  0  0  0  0  0  0  0  0  0  0
    5.4934    4.9485   21.4549 C   0  0  0  0  0  0  0  0  0  0  0  0
    5.4733    4.2387   20.6146 H   0  0  0  0  0  0  0  0  0  0  0  0
    5.6661    5.9645   21.0918 H   0  0  0  0  0  0  0  0  0  0  0  0
    4.5413    4.8857   21.9907 H   0  0  0  0  0  0  0  0  0  0  0  0
    6.5032    3.6460   23.3257 C   0  0  0  0  0  0  0  0  0  0  0  0
    5.5877    3.0677   23.4435 H   0  0  0  0  0  0  0  0  0  0  0  0
    9.5167    4.8765   23.3658 H   0  0  0  0  0  0  0  0  0  0  0  0
    8.9817    3.0573   25.5881 H   0  0  0  0  0  0  0  0  0  0  0  0
    7.4548    2.1803   25.5088 H   0  0  0  0  0  0  0  0  0  0  0  0
   10.2552    1.5894   23.8887 C   0  0  0  0  0  0  0  0  0  0  0  0
   10.9385    2.5586   24.2055 O   0  0  0  0  0  0  0  0  0  0  0  0
   10.7758    0.5310   22.9755 C   0  0  0  0  0  0  0  0  0  0  0  0
   12.1307    0.5874   22.6570 C   0  0  0  0  0  0  0  0  0  0  0  0
   12.6609   -0.2965   21.7490 C   0  0  0  0  0  0  0  0  0  0  0  0
   11.8300   -1.2539   21.1784 C   0  0  0  0  0  0  0  0  0  0  0  0
   12.3719   -2.0784   20.2674 F   0  0  0  0  0  0  0  0  0  0  0  0
   10.4749   -1.3041   21.4418 C   0  0  0  0  0  0  0  0  0  0  0  0
    9.9350   -0.4249   22.3906 C   0  0  0  0  0  0  0  0  0  0  0  0
    9.8553   -1.9705   20.8502 H   0  0  0  0  0  0  0  0  0  0  0  0
   13.6867   -0.2206   21.4162 H   0  0  0  0  0  0  0  0  0  0  0  0
   12.7414    1.3531   23.1211 H   0  0  0  0  0  0  0  0  0  0  0  0
    7.1890    0.3899   24.2584 H   0  0  0  0  0  0  0  0  0  0  0  0
    8.5716   -0.5871   24.8237 H   0  0  0  0  0  0  0  0  0  0  0  0
    7.6300   -2.2702   20.3881 H   0  0  0  0  0  0  0  0  0  0  0  0
    6.0534   -2.2683   21.2082 H   0  0  0  0  0  0  0  0  0  0  0  0
    8.5620   -2.5803   22.5034 H   0  0  0  0  0  0  0  0  0  0  0  0
    7.3037   -2.3287   24.6177 H   0  0  0  0  0  0  0  0  0  0  0  0
    6.3896   -3.2452   23.4253 H   0  0  0  0  0  0  0  0  0  0  0  0
    5.9605   -1.5611   23.7507 H   0  0  0  0  0  0  0  0  0  0  0  0
  1  2  1  0
  2  3  1  0
  3  4  1  0
  4  5  1  0
  5  6  2  0
  6  7  1  0
  7  8  2  0
  8  9  1  0
  9 10  2  0
 10 11  1  0
 11 12  2  0
 12 13  1  0
 13 14  2  0
 13 15  1  0
 12 16  1  0
 11 17  1  0
 10 18  1  0
  8 19  1  0
  6 20  1  0
  4 21  1  0
 21 22  2  0
 21 23  1  0
 23 24  1  1
 24 25  1  0
 25 26  1  0
 26 27  1  0
 27 28  1  0
 28 29  2  0
 29 30  1  0
 30 31  1  0
 31 32  1  0
 31 33  1  0
 31 34  1  0
 30 35  1  0
 35 36  1  0
 28 37  1  0
 26 38  1  0
 26 39  1  0
 25 40  1  0
 40 41  2  0
 40 42  1  0
 42 43  2  0
 43 44  1  0
 44 45  2  0
 45 46  1  0
 45 47  1  0
 47 48  2  0
 47 49  1  0
 44 50  1  0
 43 51  1  0
 24 52  1  0
 24 53  1  0
  3 54  1  0
  3 55  1  0
  2 56  1  6
  1 57  1  0
  1 58  1  0
  1 59  1  0
 23  2  1  0
 35 27  2  0
 48 42  1  0
 14  5  1  0
 48 23  1  0
 14  9  1  0
M  END
>  <cnnaffinities>  (22) 
[6.47111, 6.43219]

>  <score>  (22) 
6.47111

>  <index>  (22) 
21

>  <Smiles>  (22) 
C([C@]1(C(N(c2c(nc(c3c(c(c(c(c23)[H])[H])[H])[H])[H])[H])C(=O)[C@]21C(N(C(c1c(nn(C([H])([H])[H])c1[H])[H])([H])[H])C(=O)c1c(c(c(F)c(c21)[H])[H])[H])([H])[H])([H])[H])[H])([H])([H])[H]

>  <h>  (22) 
<NA>

>  <Training>  (22) 
True

>  <Success>  (22) 
True

>  <enamine_searched>  (22) 
False

>  <enamine_id>  (22) 
nan

$$$$

     RDKit          3D

 41 44  0  0  0  0  0  0  0  0999 V2000
    7.9639    1.7363   21.0754 O   0  0  0  0  0  0  0  0  0  0  0  0
    8.0380    0.5549   21.3780 C   0  0  0  0  0  0  0  0  0  0  0  0
    6.9839   -0.4455   20.9080 C   0  0  0  0  0  0  0  0  0  0  0  0
    6.1449    0.0951   19.7815 C   0  0  0  0  0  0  0  0  0  0  0  0
    6.4558   -0.2069   18.4812 C   0  0  0  0  0  0  0  0  0  0  0  0
    5.7855    0.2377   17.3865 N   0  0  0  0  0  0  0  0  0  0  0  0
    4.7553    1.0236   17.5951 C   0  0  0  0  0  0  0  0  0  0  0  0
    4.3148    1.4209   18.8828 C   0  0  0  0  0  0  0  0  0  0  0  0
    3.1939    2.2719   19.0499 C   0  0  0  0  0  0  0  0  0  0  0  0
    2.7858    2.6426   20.3027 C   0  0  0  0  0  0  0  0  0  0  0  0
    3.4863    2.1782   21.4405 C   0  0  0  0  0  0  0  0  0  0  0  0
    4.5811    1.3565   21.3008 C   0  0  0  0  0  0  0  0  0  0  0  0
    5.0269    0.9538   20.0142 C   0  0  0  0  0  0  0  0  0  0  0  0
    5.1195    1.0253   22.1826 H   0  0  0  0  0  0  0  0  0  0  0  0
    3.1512    2.4749   22.4293 H   0  0  0  0  0  0  0  0  0  0  0  0
    1.9326    3.3019   20.4306 H   0  0  0  0  0  0  0  0  0  0  0  0
    2.6788    2.6286   18.1598 H   0  0  0  0  0  0  0  0  0  0  0  0
    4.2107    1.3887   16.7230 H   0  0  0  0  0  0  0  0  0  0  0  0
    7.2934   -0.8699   18.2545 H   0  0  0  0  0  0  0  0  0  0  0  0
    6.3737   -0.7560   21.7683 H   0  0  0  0  0  0  0  0  0  0  0  0
    7.5148   -1.3415   20.5656 H   0  0  0  0  0  0  0  0  0  0  0  0
    9.0753    0.0639   22.1165 N   0  0  0  0  0  0  0  0  0  0  0  0
    9.1923   -1.3226   22.5877 C   0  0  0  0  0  0  0  0  0  0  0  0
   10.1021   -1.3999   23.8098 C   0  0  0  0  0  0  0  0  0  0  0  0
   11.4349   -0.7793   23.4971 C   0  0  0  0  0  0  0  0  0  0  0  0
   12.6391   -1.2921   23.9647 C   0  0  0  0  0  0  0  0  0  0  0  0
   12.6571   -2.7409   24.9401 Cl  0  0  0  0  0  0  0  0  0  0  0  0
   13.8489   -0.6861   23.6623 C   0  0  0  0  0  0  0  0  0  0  0  0
   13.8668    0.4186   22.8176 C   0  0  0  0  0  0  0  0  0  0  0  0
   12.6774    0.9522   22.3413 C   0  0  0  0  0  0  0  0  0  0  0  0
   11.4613    0.3807   22.7103 C   0  0  0  0  0  0  0  0  0  0  0  0
   10.1492    1.0250   22.3568 C   0  0  0  0  0  0  0  0  0  0  0  0
    9.8354    1.7080   23.1600 H   0  0  0  0  0  0  0  0  0  0  0  0
   10.2184    1.6538   21.4630 H   0  0  0  0  0  0  0  0  0  0  0  0
   12.7014    1.8118   21.6721 H   0  0  0  0  0  0  0  0  0  0  0  0
   14.8001    0.8773   22.5076 H   0  0  0  0  0  0  0  0  0  0  0  0
   14.7433   -1.1143   24.0873 H   0  0  0  0  0  0  0  0  0  0  0  0
   10.2327   -2.4359   24.1414 H   0  0  0  0  0  0  0  0  0  0  0  0
    9.6374   -0.8473   24.6354 H   0  0  0  0  0  0  0  0  0  0  0  0
    9.5943   -1.9538   21.7862 H   0  0  0  0  0  0  0  0  0  0  0  0
    8.2079   -1.7354   22.8432 H   0  0  0  0  0  0  0  0  0  0  0  0
  1  2  2  0
  2  3  1  0
  3  4  1  0
  4  5  2  0
  5  6  1  0
  6  7  2  0
  7  8  1  0
  8  9  2  0
  9 10  1  0
 10 11  2  0
 11 12  1  0
 12 13  2  0
 12 14  1  0
 11 15  1  0
 10 16  1  0
  9 17  1  0
  7 18  1  0
  5 19  1  0
  3 20  1  0
  3 21  1  0
  2 22  1  0
 22 23  1  0
 23 24  1  0
 24 25  1  0
 25 26  2  0
 26 27  1  0
 26 28  1  0
 28 29  2  0
 29 30  1  0
 30 31  2  0
 31 32  1  0
 32 33  1  0
 32 34  1  0
 30 35  1  0
 29 36  1  0
 28 37  1  0
 24 38  1  0
 24 39  1  0
 23 40  1  0
 23 41  1  0
 13  4  1  0
 32 22  1  0
 13  8  1  0
 31 25  1  0
M  END
>  <cnnaffinities>  (23) 
[5.76683]

>  <score>  (23) 
5.76683

>  <index>  (23) 
22

>  <Smiles>  (23) 
O=C(C(c1c(nc(c2c(c(c(c(c12)[H])[H])[H])[H])[H])[H])([H])[H])N1C(C(c2c(Cl)c(c(c(c2C1([H])[H])[H])[H])[H])([H])[H])([H])[H]

>  <h>  (23) 
<NA>

>  <Training>  (23) 
True

>  <Success>  (23) 
True

>  <enamine_searched>  (23) 
False

>  <enamine_id>  (23) 
nan

$$$$

     RDKit          3D

 69 74  0  0  0  0  0  0  0  0999 V2000
    7.8693    7.7080   22.4763 C   0  0  0  0  0  0  0  0  0  0  0  0
    7.6582    6.3651   21.8026 C   0  0  1  0  0  0  0  0  0  0  0  0
    8.5822    5.2474   22.3359 C   0  0  0  0  0  0  0  0  0  0  0  0
    7.9401    3.8710   22.2370 N   0  0  1  0  0  4  0  0  0  0  0  0
    7.2628    3.4362   23.5042 C   0  0  0  0  0  0  0  0  0  0  0  0
    8.2515    2.8768   24.5215 C   0  0  0  0  0  0  0  0  0  0  0  0
    8.9197    1.6824   24.0122 N   0  0  0  0  0  0  0  0  0  0  0  0
    8.1578    0.4529   23.8494 C   0  0  0  0  0  0  0  0  0  0  0  0
    8.5057   -0.3523   22.5627 C   0  0  2  0  0  0  0  0  0  0  0  0
    7.9695    0.3462   21.2913 C   0  0  0  0  0  0  0  0  0  0  0  0
    8.4159    1.3777   20.8098 O   0  0  0  0  0  0  0  0  0  0  0  0
    6.9035   -0.3713   20.7991 N   0  0  0  0  0  0  0  0  0  0  0  0
    6.1169    0.1211   19.7278 C   0  0  0  0  0  0  0  0  0  0  0  0
    6.4604   -0.1630   18.4310 C   0  0  0  0  0  0  0  0  0  0  0  0
    5.7694    0.2825   17.3567 N   0  0  0  0  0  0  0  0  0  0  0  0
    4.7292    1.0475   17.5727 C   0  0  0  0  0  0  0  0  0  0  0  0
    4.2748    1.4274   18.8676 C   0  0  0  0  0  0  0  0  0  0  0  0
    3.1740    2.3032   19.0556 C   0  0  0  0  0  0  0  0  0  0  0  0
    2.7820    2.6681   20.3147 C   0  0  0  0  0  0  0  0  0  0  0  0
    3.4700    2.1787   21.4445 C   0  0  0  0  0  0  0  0  0  0  0  0
    4.5332    1.3194   21.2888 C   0  0  0  0  0  0  0  0  0  0  0  0
    4.9745    0.9323   19.9912 C   0  0  0  0  0  0  0  0  0  0  0  0
    5.0738    0.9798   22.1664 H   0  0  0  0  0  0  0  0  0  0  0  0
    3.1704    2.4985   22.4385 H   0  0  0  0  0  0  0  0  0  0  0  0
    1.9461    3.3479   20.4540 H   0  0  0  0  0  0  0  0  0  0  0  0
    2.6739    2.6905   18.1737 H   0  0  0  0  0  0  0  0  0  0  0  0
    4.1830    1.4158   16.7019 H   0  0  0  0  0  0  0  0  0  0  0  0
    7.3324   -0.7798   18.2201 H   0  0  0  0  0  0  0  0  0  0  0  0
    6.4620   -1.4246   21.6935 C   0  0  0  0  0  0  0  0  0  0  0  0
    7.7428   -1.7049   22.4885 C   0  0  2  0  0  0  0  0  0  0  0  0
    7.5536   -2.4441   23.8024 C   0  0  0  0  0  0  0  0  0  0  0  0
    6.9216   -1.8708   24.4897 H   0  0  0  0  0  0  0  0  0  0  0  0
    8.5253   -2.6056   24.2849 H   0  0  0  0  0  0  0  0  0  0  0  0
    7.0783   -3.4171   23.6400 H   0  0  0  0  0  0  0  0  0  0  0  0
    8.3210   -2.3401   21.8180 H   0  0  0  0  0  0  0  0  0  0  0  0
    5.6257   -1.1069   22.3352 H   0  0  0  0  0  0  0  0  0  0  0  0
    6.1278   -2.3015   21.1277 H   0  0  0  0  0  0  0  0  0  0  0  0
   10.0119   -0.4485   22.4468 C   0  0  0  0  0  0  0  0  0  0  0  0
   10.6049   -1.4797   21.6994 C   0  0  0  0  0  0  0  0  0  0  0  0
   11.9144   -1.3631   21.2868 C   0  0  0  0  0  0  0  0  0  0  0  0
   12.5437   -2.5681   20.1876 Cl  0  0  0  0  0  0  0  0  0  0  0  0
   12.7031   -0.2757   21.6711 C   0  0  0  0  0  0  0  0  0  0  0  0
   12.1583    0.6869   22.5045 C   0  0  0  0  0  0  0  0  0  0  0  0
   10.8129    0.6213   22.8764 C   0  0  0  0  0  0  0  0  0  0  0  0
   10.2357    1.7786   23.6500 C   0  0  0  0  0  0  0  0  0  0  0  0
   10.9111    2.7731   23.8842 O   0  0  0  0  0  0  0  0  0  0  0  0
   12.7675    1.5173   22.8473 H   0  0  0  0  0  0  0  0  0  0  0  0
   13.7188   -0.2048   21.2952 H   0  0  0  0  0  0  0  0  0  0  0  0
   10.0779   -2.3825   21.4124 H   0  0  0  0  0  0  0  0  0  0  0  0
    8.3306   -0.2020   24.7117 H   0  0  0  0  0  0  0  0  0  0  0  0
    7.0907    0.6887   23.8335 H   0  0  0  0  0  0  0  0  0  0  0  0
    9.0444    3.5929   24.7359 H   0  0  0  0  0  0  0  0  0  0  0  0
    7.7432    2.6589   25.4700 H   0  0  0  0  0  0  0  0  0  0  0  0
    6.7027    4.2729   23.9214 H   0  0  0  0  0  0  0  0  0  0  0  0
    6.5405    2.6558   23.2289 H   0  0  0  0  0  0  0  0  0  0  0  0
    6.9831    3.8606   21.0958 C   0  0  0  0  0  0  0  0  0  0  0  0
    5.8964    4.9129   21.2492 C   0  0  0  0  0  0  0  0  0  0  0  0
    6.3077    6.0073   22.0402 O   0  0  0  0  0  0  0  0  0  0  0  0
    5.6126    5.2695   20.2586 H   0  0  0  0  0  0  0  0  0  0  0  0
    5.0086    4.4914   21.7294 H   0  0  0  0  0  0  0  0  0  0  0  0
    6.5248    2.8832   21.0195 H   0  0  0  0  0  0  0  0  0  0  0  0
    7.5461    4.0082   20.1781 H   0  0  0  0  0  0  0  0  0  0  0  0
    8.6403    3.1581   21.9876 H   0  0  0  0  0  0  0  0  0  0  0  0
    8.8317    5.4301   23.3821 H   0  0  0  0  0  0  0  0  0  0  0  0
    9.5241    5.2403   21.7820 H   0  0  0  0  0  0  0  0  0  0  0  0
    7.8346    6.4788   20.7200 H   0  0  0  0  0  0  0  0  0  0  0  0
    7.6175    7.6207   23.5386 H   0  0  0  0  0  0  0  0  0  0  0  0
    7.1976    8.4445   22.0217 H   0  0  0  0  0  0  0  0  0  0  0  0
    8.8992    8.0716   22.3708 H   0  0  0  0  0  0  0  0  0  0  0  0
  1  2  1  0
  2  3  1  0
  3  4  1  0
  4  5  1  0
  5  6  1  0
  6  7  1  0
  7  8  1  0
  9  8  1  1
  9 10  1  0
 10 11  2  0
 10 12  1  0
 12 13  1  0
 13 14  2  0
 14 15  1  0
 15 16  2  0
 16 17  1  0
 17 18  2  0
 18 19  1  0
 19 20  2  0
 20 21  1  0
 21 22  2  0
 21 23  1  0
 20 24  1  0
 19 25  1  0
 18 26  1  0
 16 27  1  0
 14 28  1  0
 12 29  1  0
 29 30  1  0
 30 31  1  0
 31 32  1  0
 31 33  1  0
 31 34  1  0
 30 35  1  6
 29 36  1  0
 29 37  1  0
  9 38  1  0
 38 39  2  0
 39 40  1  0
 40 41  1  0
 40 42  2  0
 42 43  1  0
 43 44  2  0
 44 45  1  0
 45 46  2  0
 43 47  1  0
 42 48  1  0
 39 49  1  0
  8 50  1  0
  8 51  1  0
  6 52  1  0
  6 53  1  0
  5 54  1  0
  5 55  1  0
  4 56  1  0
 56 57  1  0
 57 58  1  0
 57 59  1  0
 57 60  1  0
 56 61  1  0
 56 62  1  0
  4 63  1  6
  3 64  1  0
  3 65  1  0
  2 66  1  6
  1 67  1  0
  1 68  1  0
  1 69  1  0
 58  2  1  0
 45  7  1  0
 30  9  1  0
 44 38  1  0
 22 13  1  0
 22 17  1  0
M  CHG  1   4   1
M  END
>  <cnnaffinities>  (24) 
[6.3747]

>  <score>  (24) 
6.3747

>  <index>  (24) 
23

>  <Smiles>  (24) 
C([C@]1(C([N@@+](C(C(N2C([C@@]3(C(=O)N(c4c(nc(c5c(c(c(c(c45)[H])[H])[H])[H])[H])[H])C([C@@]3(C([H])([H])[H])[H])([H])[H])c3c(c(Cl)c(c(c3C2=O)[H])[H])[H])([H])[H])([H])[H])([H])[H])(C(C(O1)([H])[H])([H])[H])[H])([H])[H])[H])([H])([H])[H]

>  <h>  (24) 
<NA>

>  <Training>  (24) 
True

>  <Success>  (24) 
True

>  <enamine_searched>  (24) 
False

>  <enamine_id>  (24) 
nan

$$$$

     RDKit          3D

 70 75  0  0  0  0  0  0  0  0999 V2000
    6.5271    4.5781   21.3449 C   0  0  0  0  0  0  0  0  0  0  0  0
    6.8495    3.6250   22.4093 N   0  0  0  0  0  4  0  0  0  0  0  0
    7.9164    4.0587   23.3342 C   0  0  0  0  0  0  0  0  0  0  0  0
    8.1069    3.0635   24.4826 C   0  0  0  0  0  0  0  0  0  0  0  0
    8.7131    1.8130   24.0529 N   0  0  0  0  0  0  0  0  0  0  0  0
    7.9307    0.5908   23.9465 C   0  0  0  0  0  0  0  0  0  0  0  0
    8.2999   -0.2563   22.7026 C   0  0  2  0  0  0  0  0  0  0  0  0
    7.7409    0.4224   21.4496 C   0  0  0  0  0  0  0  0  0  0  0  0
    7.9400    1.5805   21.0981 O   0  0  0  0  0  0  0  0  0  0  0  0
    6.9000   -0.4259   20.7931 N   0  0  0  0  0  0  0  0  0  0  0  0
    6.1118    0.1013   19.7381 C   0  0  0  0  0  0  0  0  0  0  0  0
    6.4512   -0.1935   18.4450 C   0  0  0  0  0  0  0  0  0  0  0  0
    5.7655    0.2561   17.3723 N   0  0  0  0  0  0  0  0  0  0  0  0
    4.7388    1.0361   17.5943 C   0  0  0  0  0  0  0  0  0  0  0  0
    4.3091    1.4478   18.8876 C   0  0  0  0  0  0  0  0  0  0  0  0
    3.2031    2.3180   19.0672 C   0  0  0  0  0  0  0  0  0  0  0  0
    2.8094    2.6960   20.3207 C   0  0  0  0  0  0  0  0  0  0  0  0
    3.5056    2.2235   21.4546 C   0  0  0  0  0  0  0  0  0  0  0  0
    4.5836    1.3832   21.3080 C   0  0  0  0  0  0  0  0  0  0  0  0
    5.0197    0.9731   20.0112 C   0  0  0  0  0  0  0  0  0  0  0  0
    5.0931    1.0140   22.1968 H   0  0  0  0  0  0  0  0  0  0  0  0
    3.1836    2.5256   22.4483 H   0  0  0  0  0  0  0  0  0  0  0  0
    1.9601    3.3610   20.4510 H   0  0  0  0  0  0  0  0  0  0  0  0
    2.6865    2.6719   18.1793 H   0  0  0  0  0  0  0  0  0  0  0  0
    4.1901    1.3917   16.7218 H   0  0  0  0  0  0  0  0  0  0  0  0
    7.3175   -0.8200   18.2405 H   0  0  0  0  0  0  0  0  0  0  0  0
    6.4650   -1.5365   21.6252 C   0  0  0  0  0  0  0  0  0  0  0  0
    7.5969   -1.6489   22.6544 C   0  0  2  0  0  0  0  0  0  0  0  0
    7.1690   -2.2687   23.9769 C   0  0  0  0  0  0  0  0  0  0  0  0
    6.0730   -1.5540   24.5105 O   0  0  0  0  0  0  0  0  0  0  0  0
    5.6901   -2.0048   25.7913 C   0  0  0  0  0  0  0  0  0  0  0  0
    4.5978   -1.0846   26.2962 C   0  0  0  0  0  0  0  0  0  0  0  0
    3.2616   -1.1950   25.5439 C   0  0  0  0  0  0  0  0  0  0  0  0
    2.6183   -1.7847   26.6822 O   0  0  0  0  0  0  0  0  0  0  0  0
    3.8012   -1.6399   27.4812 C   0  0  0  0  0  0  0  0  0  0  0  0
    3.6494   -0.9592   28.3287 H   0  0  0  0  0  0  0  0  0  0  0  0
    4.1501   -2.6051   27.8731 H   0  0  0  0  0  0  0  0  0  0  0  0
    2.7947   -0.2466   25.2500 H   0  0  0  0  0  0  0  0  0  0  0  0
    3.2582   -1.8668   24.6768 H   0  0  0  0  0  0  0  0  0  0  0  0
    4.9682   -0.0624   26.4107 H   0  0  0  0  0  0  0  0  0  0  0  0
    6.5486   -1.9962   26.4853 H   0  0  0  0  0  0  0  0  0  0  0  0
    5.3145   -3.0420   25.7374 H   0  0  0  0  0  0  0  0  0  0  0  0
    8.0162   -2.2529   24.6857 H   0  0  0  0  0  0  0  0  0  0  0  0
    6.8833   -3.3206   23.8149 H   0  0  0  0  0  0  0  0  0  0  0  0
    8.3276   -2.3398   22.2382 H   0  0  0  0  0  0  0  0  0  0  0  0
    5.5080   -1.3153   22.1179 H   0  0  0  0  0  0  0  0  0  0  0  0
    6.3484   -2.4475   21.0270 H   0  0  0  0  0  0  0  0  0  0  0  0
    9.8092   -0.3502   22.6111 C   0  0  0  0  0  0  0  0  0  0  0  0
   10.4268   -1.3440   21.8462 C   0  0  0  0  0  0  0  0  0  0  0  0
   11.7980   -1.4224   21.7362 C   0  0  0  0  0  0  0  0  0  0  0  0
   12.3813   -2.7309   20.7282 Cl  0  0  0  0  0  0  0  0  0  0  0  0
   12.6149   -0.4919   22.3882 C   0  0  0  0  0  0  0  0  0  0  0  0
   12.0117    0.5178   23.1045 C   0  0  0  0  0  0  0  0  0  0  0  0
   10.6284    0.6224   23.1853 C   0  0  0  0  0  0  0  0  0  0  0  0
   10.0594    1.8371   23.8319 C   0  0  0  0  0  0  0  0  0  0  0  0
   10.7661    2.7987   24.1342 O   0  0  0  0  0  0  0  0  0  0  0  0
   12.6265    1.2560   23.6035 H   0  0  0  0  0  0  0  0  0  0  0  0
   13.6948   -0.4863   22.3472 H   0  0  0  0  0  0  0  0  0  0  0  0
    9.8612   -2.0732   21.2846 H   0  0  0  0  0  0  0  0  0  0  0  0
    8.0707   -0.0221   24.8453 H   0  0  0  0  0  0  0  0  0  0  0  0
    6.8769    0.8568   23.8613 H   0  0  0  0  0  0  0  0  0  0  0  0
    8.7721    3.4920   25.2364 H   0  0  0  0  0  0  0  0  0  0  0  0
    7.1483    2.8305   24.9564 H   0  0  0  0  0  0  0  0  0  0  0  0
    8.8624    4.1415   22.7905 H   0  0  0  0  0  0  0  0  0  0  0  0
    7.6861    5.0508   23.7368 H   0  0  0  0  0  0  0  0  0  0  0  0
    5.9824    3.4253   22.9347 H   0  0  0  0  0  0  0  0  0  0  0  0
    7.1534    2.7434   21.9608 H   0  0  0  0  0  0  0  0  0  0  0  0
    6.3699    5.5835   21.7483 H   0  0  0  0  0  0  0  0  0  0  0  0
    7.3437    4.6293   20.6219 H   0  0  0  0  0  0  0  0  0  0  0  0
    5.6190    4.2495   20.8306 H   0  0  0  0  0  0  0  0  0  0  0  0
  1  2  1  0
  2  3  1  0
  3  4  1  0
  4  5  1  0
  5  6  1  0
  7  6  1  1
  7  8  1  0
  8  9  2  0
  8 10  1  0
 10 11  1  0
 11 12  2  0
 12 13  1  0
 13 14  2  0
 14 15  1  0
 15 16  2  0
 16 17  1  0
 17 18  2  0
 18 19  1  0
 19 20  2  0
 19 21  1  0
 18 22  1  0
 17 23  1  0
 16 24  1  0
 14 25  1  0
 12 26  1  0
 10 27  1  0
 27 28  1  0
 28 29  1  0
 29 30  1  0
 30 31  1  0
 31 32  1  0
 32 33  1  0
 33 34  1  0
 34 35  1  0
 35 36  1  0
 35 37  1  0
 33 38  1  0
 33 39  1  0
 32 40  1  0
 31 41  1  0
 31 42  1  0
 29 43  1  0
 29 44  1  0
 28 45  1  6
 27 46  1  0
 27 47  1  0
  7 48  1  0
 48 49  2  0
 49 50  1  0
 50 51  1  0
 50 52  2  0
 52 53  1  0
 53 54  2  0
 54 55  1  0
 55 56  2  0
 53 57  1  0
 52 58  1  0
 49 59  1  0
  6 60  1  0
  6 61  1  0
  4 62  1  0
  4 63  1  0
  3 64  1  0
  3 65  1  0
  2 66  1  0
  2 67  1  0
  1 68  1  0
  1 69  1  0
  1 70  1  0
 55  5  1  0
 28  7  1  0
 35 32  1  0
 54 48  1  0
 20 11  1  0
 20 15  1  0
M  CHG  1   2   1
M  END
>  <cnnaffinities>  (25) 
[6.21061]

>  <score>  (25) 
6.21061

>  <index>  (25) 
24

>  <Smiles>  (25) 
C([N+](C(C(N1C([C@@]2(C(=O)N(c3c(nc(c4c(c(c(c(c34)[H])[H])[H])[H])[H])[H])C([C@@]2(C(OC(C2(C(OC2([H])[H])([H])[H])[H])([H])[H])([H])[H])[H])([H])[H])c2c(c(Cl)c(c(c2C1=O)[H])[H])[H])([H])[H])([H])[H])([H])[H])([H])[H])([H])([H])[H]

>  <h>  (25) 
<NA>

>  <Training>  (25) 
True

>  <Success>  (25) 
True

>  <enamine_searched>  (25) 
False

>  <enamine_id>  (25) 
nan

$$$$

     RDKit          3D

 68 73  0  0  0  0  0  0  0  0999 V2000
    6.4985    4.2754   21.2918 C   0  0  0  0  0  0  0  0  0  0  0  0
    7.4677    3.9165   22.3193 N   0  0  0  0  0  0  0  0  0  0  0  0
    7.0036    3.3085   23.4505 C   0  0  0  0  0  0  0  0  0  0  0  0
    5.8144    3.1041   23.6470 O   0  0  0  0  0  0  0  0  0  0  0  0
    8.0714    2.8832   24.4665 C   0  0  0  0  0  0  0  0  0  0  0  0
    8.7224    1.6474   24.0524 N   0  0  0  0  0  0  0  0  0  0  0  0
    7.9157    0.4439   23.8673 C   0  0  0  0  0  0  0  0  0  0  0  0
    8.3486   -0.4109   22.6433 C   0  0  2  0  0  0  0  0  0  0  0  0
    7.9275    0.2817   21.3175 C   0  0  0  0  0  0  0  0  0  0  0  0
    8.4332    1.2674   20.8186 O   0  0  0  0  0  0  0  0  0  0  0  0
    6.8775   -0.4154   20.7660 N   0  0  0  0  0  0  0  0  0  0  0  0
    6.1148    0.1255   19.7061 C   0  0  0  0  0  0  0  0  0  0  0  0
    6.4572   -0.1605   18.4118 C   0  0  0  0  0  0  0  0  0  0  0  0
    5.7660    0.2851   17.3404 N   0  0  0  0  0  0  0  0  0  0  0  0
    4.7217    1.0446   17.5615 C   0  0  0  0  0  0  0  0  0  0  0  0
    4.2712    1.4286   18.8562 C   0  0  0  0  0  0  0  0  0  0  0  0
    3.1627    2.2918   19.0495 C   0  0  0  0  0  0  0  0  0  0  0  0
    2.7767    2.6563   20.3111 C   0  0  0  0  0  0  0  0  0  0  0  0
    3.4775    2.1751   21.4390 C   0  0  0  0  0  0  0  0  0  0  0  0
    4.5523    1.3331   21.2765 C   0  0  0  0  0  0  0  0  0  0  0  0
    4.9791    0.9430   19.9757 C   0  0  0  0  0  0  0  0  0  0  0  0
    5.1220    1.0227   22.1470 H   0  0  0  0  0  0  0  0  0  0  0  0
    3.1951    2.4981   22.4366 H   0  0  0  0  0  0  0  0  0  0  0  0
    1.9346    3.3274   20.4513 H   0  0  0  0  0  0  0  0  0  0  0  0
    2.6504    2.6699   18.1707 H   0  0  0  0  0  0  0  0  0  0  0  0
    4.1761    1.4047   16.6897 H   0  0  0  0  0  0  0  0  0  0  0  0
    7.3293   -0.7799   18.2089 H   0  0  0  0  0  0  0  0  0  0  0  0
    6.4025   -1.5163   21.5710 C   0  0  0  0  0  0  0  0  0  0  0  0
    7.5758   -1.7629   22.5254 C   0  0  2  0  0  0  0  0  0  0  0  0
    7.1421   -2.4785   23.7982 C   0  0  0  0  0  0  0  0  0  0  0  0
    8.2953   -2.8743   24.5669 N   0  0  0  0  0  0  0  0  0  0  0  0
    8.1996   -3.7017   25.6789 C   0  0  0  0  0  0  0  0  0  0  0  0
    7.1145   -3.8326   26.5861 C   0  0  0  0  0  0  0  0  0  0  0  0
    7.4324   -4.5463   27.6594 N   0  0  0  0  0  0  0  0  0  0  0  0
    8.7075   -4.9106   27.4570 N   0  0  0  0  0  0  0  0  0  0  0  0
    9.5067   -5.4213   28.5507 C   0  0  0  0  0  0  0  0  0  0  0  0
    9.4222   -4.7439   29.4054 H   0  0  0  0  0  0  0  0  0  0  0  0
    9.2008   -6.4242   28.8608 H   0  0  0  0  0  0  0  0  0  0  0  0
   10.5513   -5.4552   28.2293 H   0  0  0  0  0  0  0  0  0  0  0  0
    9.1976   -4.4519   26.2710 C   0  0  0  0  0  0  0  0  0  0  0  0
   10.1684   -4.7756   25.9161 H   0  0  0  0  0  0  0  0  0  0  0  0
    6.1198   -3.4215   26.4657 H   0  0  0  0  0  0  0  0  0  0  0  0
    9.2168   -2.7476   24.1669 H   0  0  0  0  0  0  0  0  0  0  0  0
    6.5256   -3.3503   23.5334 H   0  0  0  0  0  0  0  0  0  0  0  0
    6.4645   -1.8339   24.3785 H   0  0  0  0  0  0  0  0  0  0  0  0
    8.2519   -2.4425   22.0054 H   0  0  0  0  0  0  0  0  0  0  0  0
    5.4766   -1.2585   22.1115 H   0  0  0  0  0  0  0  0  0  0  0  0
    6.1880   -2.3900   20.9411 H   0  0  0  0  0  0  0  0  0  0  0  0
    9.8635   -0.5241   22.6298 C   0  0  0  0  0  0  0  0  0  0  0  0
   10.4851   -1.4530   21.7866 C   0  0  0  0  0  0  0  0  0  0  0  0
   11.8389   -1.3729   21.5295 C   0  0  0  0  0  0  0  0  0  0  0  0
   12.4850   -2.4515   20.3220 Cl  0  0  0  0  0  0  0  0  0  0  0  0
   12.6409   -0.4189   22.1613 C   0  0  0  0  0  0  0  0  0  0  0  0
   12.0511    0.4600   23.0397 C   0  0  0  0  0  0  0  0  0  0  0  0
   10.6689    0.4626   23.2127 C   0  0  0  0  0  0  0  0  0  0  0  0
   10.0737    1.6725   23.8559 C   0  0  0  0  0  0  0  0  0  0  0  0
   10.7634    2.6472   24.1377 O   0  0  0  0  0  0  0  0  0  0  0  0
   12.6383    1.1981   23.5744 H   0  0  0  0  0  0  0  0  0  0  0  0
   13.6912   -0.3032   21.9302 H   0  0  0  0  0  0  0  0  0  0  0  0
    9.9347   -2.1987   21.2260 H   0  0  0  0  0  0  0  0  0  0  0  0
    7.9719   -0.1686   24.7752 H   0  0  0  0  0  0  0  0  0  0  0  0
    6.8783    0.7591   23.7314 H   0  0  0  0  0  0  0  0  0  0  0  0
    8.8659    3.6320   24.5526 H   0  0  0  0  0  0  0  0  0  0  0  0
    7.5981    2.7808   25.4511 H   0  0  0  0  0  0  0  0  0  0  0  0
    8.3969    3.6675   21.9994 H   0  0  0  0  0  0  0  0  0  0  0  0
    5.9888    3.3890   20.8878 H   0  0  0  0  0  0  0  0  0  0  0  0
    7.0020    4.7987   20.4773 H   0  0  0  0  0  0  0  0  0  0  0  0
    5.7411    4.9440   21.7129 H   0  0  0  0  0  0  0  0  0  0  0  0
  1  2  1  0
  2  3  1  0
  3  4  2  0
  3  5  1  0
  5  6  1  0
  6  7  1  0
  8  7  1  1
  8  9  1  0
  9 10  2  0
  9 11  1  0
 11 12  1  0
 12 13  2  0
 13 14  1  0
 14 15  2  0
 15 16  1  0
 16 17  2  0
 17 18  1  0
 18 19  2  0
 19 20  1  0
 20 21  2  0
 20 22  1  0
 19 23  1  0
 18 24  1  0
 17 25  1  0
 15 26  1  0
 13 27  1  0
 11 28  1  0
 28 29  1  0
 29 30  1  0
 30 31  1  0
 31 32  1  0
 32 33  1  0
 33 34  2  0
 34 35  1  0
 35 36  1  0
 36 37  1  0
 36 38  1  0
 36 39  1  0
 35 40  1  0
 40 41  1  0
 33 42  1  0
 31 43  1  0
 30 44  1  0
 30 45  1  0
 29 46  1  6
 28 47  1  0
 28 48  1  0
  8 49  1  0
 49 50  2  0
 50 51  1  0
 51 52  1  0
 51 53  2  0
 53 54  1  0
 54 55  2  0
 55 56  1  0
 56 57  2  0
 54 58  1  0
 53 59  1  0
 50 60  1  0
  7 61  1  0
  7 62  1  0
  5 63  1  0
  5 64  1  0
  2 65  1  0
  1 66  1  0
  1 67  1  0
  1 68  1  0
 56  6  1  0
 29  8  1  0
 40 32  2  0
 55 49  1  0
 21 12  1  0
 21 16  1  0
M  END
>  <cnnaffinities>  (26) 
[6.34604]

>  <score>  (26) 
6.34604

>  <index>  (26) 
25

>  <Smiles>  (26) 
C(N(C(=O)C(N1C([C@@]2(C(=O)N(c3c(nc(c4c(c(c(c(c34)[H])[H])[H])[H])[H])[H])C([C@@]2(C(N(c2c(nn(C([H])([H])[H])c2[H])[H])[H])([H])[H])[H])([H])[H])c2c(c(Cl)c(c(c2C1=O)[H])[H])[H])([H])[H])([H])[H])[H])([H])([H])[H]

>  <h>  (26) 
<NA>

>  <Training>  (26) 
True

>  <Success>  (26) 
True

>  <enamine_searched>  (26) 
False

>  <enamine_id>  (26) 
nan

$$$$

     RDKit          3D

 43 47  0  0  0  0  0  0  0  0999 V2000
    8.8388    0.6154   20.6598 O   0  0  0  0  0  0  0  0  0  0  0  0
    8.1960   -0.3245   21.0665 C   0  0  0  0  0  0  0  0  0  0  0  0
    8.6230   -1.4128   21.7810 N   0  0  0  0  0  0  0  0  0  0  0  0
    7.5293   -2.1036   22.4408 C   0  0  1  0  0  0  0  0  0  0  0  0
    7.5599   -3.6445   22.5299 C   0  0  0  0  0  0  0  0  0  0  0  0
    7.6631   -3.5715   24.0834 C   0  0  2  0  0  0  0  0  0  0  0  0
    6.5729   -4.2473   24.8666 C   0  0  0  0  0  0  0  0  0  0  0  0
    5.2304   -4.0775   24.5026 C   0  0  0  0  0  0  0  0  0  0  0  0
    4.1940   -4.6593   25.2207 C   0  0  0  0  0  0  0  0  0  0  0  0
    4.4733   -5.3602   26.3864 C   0  0  0  0  0  0  0  0  0  0  0  0
    5.7933   -5.5276   26.7765 C   0  0  0  0  0  0  0  0  0  0  0  0
    6.8284   -5.0235   25.9957 C   0  0  0  0  0  0  0  0  0  0  0  0
    8.4656   -5.4320   26.4572 Cl  0  0  0  0  0  0  0  0  0  0  0  0
    6.0173   -6.0722   27.6872 H   0  0  0  0  0  0  0  0  0  0  0  0
    3.6733   -5.7965   26.9741 H   0  0  0  0  0  0  0  0  0  0  0  0
    3.1729   -4.5841   24.8638 H   0  0  0  0  0  0  0  0  0  0  0  0
    4.9829   -3.4563   23.6454 H   0  0  0  0  0  0  0  0  0  0  0  0
    7.5082   -2.0237   23.9850 C   0  0  0  0  0  0  0  0  0  0  0  0
    8.3062   -1.4132   24.4207 H   0  0  0  0  0  0  0  0  0  0  0  0
    6.5368   -1.6800   24.3438 H   0  0  0  0  0  0  0  0  0  0  0  0
    8.6552   -3.8690   24.4299 H   0  0  0  0  0  0  0  0  0  0  0  0
    8.4118   -4.0932   22.0210 H   0  0  0  0  0  0  0  0  0  0  0  0
    6.6417   -4.1122   22.1632 H   0  0  0  0  0  0  0  0  0  0  0  0
    6.3262   -1.5226   21.7193 C   0  0  0  0  0  0  0  0  0  0  0  0
    5.1664   -1.8561   21.8277 O   0  0  0  0  0  0  0  0  0  0  0  0
    6.8142   -0.5038   20.9002 N   0  0  0  0  0  0  0  0  0  0  0  0
    6.1070    0.0675   19.8121 C   0  0  0  0  0  0  0  0  0  0  0  0
    6.4754   -0.2170   18.5206 C   0  0  0  0  0  0  0  0  0  0  0  0
    5.8160    0.2368   17.4292 N   0  0  0  0  0  0  0  0  0  0  0  0
    4.7795    1.0091   17.6271 C   0  0  0  0  0  0  0  0  0  0  0  0
    4.3218    1.4016   18.9137 C   0  0  0  0  0  0  0  0  0  0  0  0
    3.2120    2.2618   19.0674 C   0  0  0  0  0  0  0  0  0  0  0  0
    2.8092    2.6446   20.3140 C   0  0  0  0  0  0  0  0  0  0  0  0
    3.4966    2.1925   21.4610 C   0  0  0  0  0  0  0  0  0  0  0  0
    4.5734    1.3538   21.3404 C   0  0  0  0  0  0  0  0  0  0  0  0
    5.0023    0.9311   20.0525 C   0  0  0  0  0  0  0  0  0  0  0  0
    5.1012    1.0090   22.2251 H   0  0  0  0  0  0  0  0  0  0  0  0
    3.1694    2.5171   22.4424 H   0  0  0  0  0  0  0  0  0  0  0  0
    1.9612    3.3084   20.4286 H   0  0  0  0  0  0  0  0  0  0  0  0
    2.7126    2.6089   18.1701 H   0  0  0  0  0  0  0  0  0  0  0  0
    4.2460    1.3730   16.7492 H   0  0  0  0  0  0  0  0  0  0  0  0
    7.3275   -0.8635   18.3192 H   0  0  0  0  0  0  0  0  0  0  0  0
    9.5667   -1.4031   22.1325 H   0  0  0  0  0  0  0  0  0  0  0  0
  1  2  2  0
  2  3  1  0
  4  3  1  6
  4  5  1  0
  5  6  1  0
  6  7  1  0
  7  8  2  0
  8  9  1  0
  9 10  2  0
 10 11  1  0
 11 12  2  0
 12 13  1  0
 11 14  1  0
 10 15  1  0
  9 16  1  0
  8 17  1  0
  6 18  1  0
 18 19  1  0
 18 20  1  0
  6 21  1  1
  5 22  1  0
  5 23  1  0
  4 24  1  0
 24 25  2  0
 24 26  1  0
 26 27  1  0
 27 28  2  0
 28 29  1  0
 29 30  2  0
 30 31  1  0
 31 32  2  0
 32 33  1  0
 33 34  2  0
 34 35  1  0
 35 36  2  0
 35 37  1  0
 34 38  1  0
 33 39  1  0
 32 40  1  0
 30 41  1  0
 28 42  1  0
  3 43  1  0
 26  2  1  0
 36 27  1  0
 18  4  1  0
 36 31  1  0
 12  7  1  0
M  END
>  <cnnaffinities>  (27) 
[5.78631]

>  <score>  (27) 
5.78631

>  <index>  (27) 
26

>  <Smiles>  (27) 
O=C1N([C@]2(C([C@](c3c(c(c(c(c3Cl)[H])[H])[H])[H])(C2([H])[H])[H])([H])[H])C(=O)N1c1c(nc(c2c(c(c(c(c12)[H])[H])[H])[H])[H])[H])[H]

>  <h>  (27) 
<NA>

>  <Training>  (27) 
True

>  <Success>  (27) 
True

>  <enamine_searched>  (27) 
False

>  <enamine_id>  (27) 
nan

$$$$

     RDKit          3D

 46 48  0  0  0  0  0  0  0  0999 V2000
    7.6393    0.6557   24.4109 C   0  0  0  0  0  0  0  0  0  0  0  0
    7.8385   -0.8031   24.7959 C   0  0  0  0  0  0  0  0  0  0  0  0
    7.7511   -1.7571   23.6032 C   0  0  1  0  0  0  0  0  0  0  0  0
    8.2449   -3.1880   23.9088 C   0  0  0  0  0  0  0  0  0  0  0  0
    7.2354   -4.1512   24.5481 C   0  0  1  0  0  0  0  0  0  0  0  0
    7.2219   -4.1391   26.0740 C   0  0  0  0  0  0  0  0  0  0  0  0
    6.5797   -3.0756   26.6015 F   0  0  0  0  0  0  0  0  0  0  0  0
    8.4579   -4.1515   26.6043 F   0  0  0  0  0  0  0  0  0  0  0  0
    6.5901   -5.2312   26.5549 F   0  0  0  0  0  0  0  0  0  0  0  0
    5.8333   -3.9985   23.9561 C   0  0  0  0  0  0  0  0  0  0  0  0
    5.4210   -2.5411   23.7727 C   0  0  0  0  0  0  0  0  0  0  0  0
    6.4110   -1.7880   23.0034 N   0  0  0  0  0  0  0  0  0  0  0  0
    6.1759   -1.6258   21.6391 C   0  0  0  0  0  0  0  0  0  0  0  0
    5.3616   -2.3091   21.0463 O   0  0  0  0  0  0  0  0  0  0  0  0
    6.9242   -0.4891   20.9096 C   0  0  0  0  0  0  0  0  0  0  0  0
    6.1179    0.0904   19.7693 C   0  0  0  0  0  0  0  0  0  0  0  0
    6.4220   -0.2139   18.4659 C   0  0  0  0  0  0  0  0  0  0  0  0
    5.7567    0.2421   17.3729 N   0  0  0  0  0  0  0  0  0  0  0  0
    4.7325    1.0325   17.5780 C   0  0  0  0  0  0  0  0  0  0  0  0
    4.2853    1.4234   18.8694 C   0  0  0  0  0  0  0  0  0  0  0  0
    3.1650    2.2756   19.0435 C   0  0  0  0  0  0  0  0  0  0  0  0
    2.7501    2.6292   20.3004 C   0  0  0  0  0  0  0  0  0  0  0  0
    3.4425    2.1434   21.4310 C   0  0  0  0  0  0  0  0  0  0  0  0
    4.5321    1.3169   21.2870 C   0  0  0  0  0  0  0  0  0  0  0  0
    4.9901    0.9365   19.9982 C   0  0  0  0  0  0  0  0  0  0  0  0
    5.0422    0.9492   22.1718 H   0  0  0  0  0  0  0  0  0  0  0  0
    3.1051    2.4244   22.4228 H   0  0  0  0  0  0  0  0  0  0  0  0
    1.8939    3.2837   20.4368 H   0  0  0  0  0  0  0  0  0  0  0  0
    2.6443    2.6464   18.1637 H   0  0  0  0  0  0  0  0  0  0  0  0
    4.1993    1.3988   16.6987 H   0  0  0  0  0  0  0  0  0  0  0  0
    7.2645   -0.8669   18.2441 H   0  0  0  0  0  0  0  0  0  0  0  0
    7.2159    0.3033   21.6137 H   0  0  0  0  0  0  0  0  0  0  0  0
    7.8567   -0.9067   20.5085 H   0  0  0  0  0  0  0  0  0  0  0  0
    4.4611   -2.4835   23.2562 H   0  0  0  0  0  0  0  0  0  0  0  0
    5.2892   -2.0704   24.7501 H   0  0  0  0  0  0  0  0  0  0  0  0
    5.8237   -4.4627   22.9685 H   0  0  0  0  0  0  0  0  0  0  0  0
    5.0985   -4.5395   24.5649 H   0  0  0  0  0  0  0  0  0  0  0  0
    7.5818   -5.1706   24.3427 H   0  0  0  0  0  0  0  0  0  0  0  0
    8.5465   -3.6352   22.9566 H   0  0  0  0  0  0  0  0  0  0  0  0
    9.1566   -3.1445   24.5135 H   0  0  0  0  0  0  0  0  0  0  0  0
    8.4330   -1.3655   22.8422 H   0  0  0  0  0  0  0  0  0  0  0  0
    8.8341   -0.9259   25.2404 H   0  0  0  0  0  0  0  0  0  0  0  0
    7.1250   -1.0898   25.5685 H   0  0  0  0  0  0  0  0  0  0  0  0
    7.7335    1.3206   25.2723 H   0  0  0  0  0  0  0  0  0  0  0  0
    8.3785    0.9805   23.6702 H   0  0  0  0  0  0  0  0  0  0  0  0
    6.6424    0.8179   23.9918 H   0  0  0  0  0  0  0  0  0  0  0  0
  1  2  1  0
  2  3  1  0
  3  4  1  0
  4  5  1  0
  5  6  1  0
  6  7  1  0
  6  8  1  0
  6  9  1  0
  5 10  1  0
 10 11  1  0
 11 12  1  0
 12 13  1  0
 13 14  2  0
 13 15  1  0
 15 16  1  0
 16 17  2  0
 17 18  1  0
 18 19  2  0
 19 20  1  0
 20 21  2  0
 21 22  1  0
 22 23  2  0
 23 24  1  0
 24 25  2  0
 24 26  1  0
 23 27  1  0
 22 28  1  0
 21 29  1  0
 19 30  1  0
 17 31  1  0
 15 32  1  0
 15 33  1  0
 11 34  1  0
 11 35  1  0
 10 36  1  0
 10 37  1  0
  5 38  1  1
  4 39  1  0
  4 40  1  0
  3 41  1  6
  2 42  1  0
  2 43  1  0
  1 44  1  0
  1 45  1  0
  1 46  1  0
 12  3  1  0
 25 16  1  0
 25 20  1  0
M  END
>  <cnnaffinities>  (28) 
[5.37161]

>  <score>  (28) 
5.37161

>  <index>  (28) 
27

>  <Smiles>  (28) 
C(C([C@]1(C([C@@](C(F)(F)F)(C(C(N1C(=O)C(c1c(nc(c2c(c(c(c(c12)[H])[H])[H])[H])[H])[H])([H])[H])([H])[H])([H])[H])[H])([H])[H])[H])([H])[H])([H])([H])[H]

>  <h>  (28) 
<NA>

>  <Training>  (28) 
True

>  <Success>  (28) 
True

>  <enamine_searched>  (28) 
False

>  <enamine_id>  (28) 
nan

$$$$

     RDKit          3D

 70 75  0  0  0  0  0  0  0  0999 V2000
    6.4746    4.5916   21.4780 C   0  0  0  0  0  0  0  0  0  0  0  0
    6.8268    3.5789   22.4794 N   0  0  0  0  0  4  0  0  0  0  0  0
    7.8306    4.0200   23.4740 C   0  0  0  0  0  0  0  0  0  0  0  0
    8.0516    2.9717   24.5698 C   0  0  0  0  0  0  0  0  0  0  0  0
    8.6841    1.7565   24.0691 N   0  0  0  0  0  0  0  0  0  0  0  0
    7.9241    0.5225   23.9548 C   0  0  0  0  0  0  0  0  0  0  0  0
    8.3156   -0.2993   22.6978 C   0  0  2  0  0  0  0  0  0  0  0  0
    7.7417    0.4022   21.4624 C   0  0  0  0  0  0  0  0  0  0  0  0
    7.9414    1.5678   21.1322 O   0  0  0  0  0  0  0  0  0  0  0  0
    6.8799   -0.4341   20.8101 N   0  0  0  0  0  0  0  0  0  0  0  0
    6.1036    0.0997   19.7485 C   0  0  0  0  0  0  0  0  0  0  0  0
    6.4513   -0.1934   18.4585 C   0  0  0  0  0  0  0  0  0  0  0  0
    5.7726    0.2563   17.3801 N   0  0  0  0  0  0  0  0  0  0  0  0
    4.7443    1.0364   17.6007 C   0  0  0  0  0  0  0  0  0  0  0  0
    4.3112    1.4485   18.8929 C   0  0  0  0  0  0  0  0  0  0  0  0
    3.2053    2.3206   19.0706 C   0  0  0  0  0  0  0  0  0  0  0  0
    2.8125    2.6993   20.3248 C   0  0  0  0  0  0  0  0  0  0  0  0
    3.5068    2.2312   21.4599 C   0  0  0  0  0  0  0  0  0  0  0  0
    4.5846    1.3895   21.3159 C   0  0  0  0  0  0  0  0  0  0  0  0
    5.0151    0.9738   20.0193 C   0  0  0  0  0  0  0  0  0  0  0  0
    5.0974    1.0238   22.2036 H   0  0  0  0  0  0  0  0  0  0  0  0
    3.1820    2.5379   22.4516 H   0  0  0  0  0  0  0  0  0  0  0  0
    1.9602    3.3603   20.4523 H   0  0  0  0  0  0  0  0  0  0  0  0
    2.6895    2.6720   18.1830 H   0  0  0  0  0  0  0  0  0  0  0  0
    4.1944    1.3894   16.7285 H   0  0  0  0  0  0  0  0  0  0  0  0
    7.3230   -0.8170   18.2663 H   0  0  0  0  0  0  0  0  0  0  0  0
    6.4473   -1.5434   21.6410 C   0  0  0  0  0  0  0  0  0  0  0  0
    7.6227   -1.6944   22.6114 C   0  0  2  0  0  0  0  0  0  0  0  0
    7.2473   -2.3799   23.9107 C   0  0  0  0  0  0  0  0  0  0  0  0
    6.0861   -1.7523   24.4379 O   0  0  0  0  0  0  0  0  0  0  0  0
    5.6844   -2.2232   25.7006 C   0  0  0  0  0  0  0  0  0  0  0  0
    6.2765   -1.3684   26.7943 C   0  0  0  0  0  0  0  0  0  0  0  0
    7.6574   -1.5280   26.7480 F   0  0  0  0  0  0  0  0  0  0  0  0
    5.7492   -1.4734   28.2207 C   0  0  0  0  0  0  0  0  0  0  0  0
    5.2555   -0.1266   28.1799 O   0  0  0  0  0  0  0  0  0  0  0  0
    5.8540    0.1013   26.8977 C   0  0  0  0  0  0  0  0  0  0  0  0
    5.1312    0.4773   26.1634 H   0  0  0  0  0  0  0  0  0  0  0  0
    6.7169    0.7756   26.9568 H   0  0  0  0  0  0  0  0  0  0  0  0
    6.5729   -1.5956   28.9376 H   0  0  0  0  0  0  0  0  0  0  0  0
    4.9534   -2.1986   28.4215 H   0  0  0  0  0  0  0  0  0  0  0  0
    4.5895   -2.1698   25.7357 H   0  0  0  0  0  0  0  0  0  0  0  0
    5.9896   -3.2712   25.8450 H   0  0  0  0  0  0  0  0  0  0  0  0
    7.0435   -3.4446   23.7159 H   0  0  0  0  0  0  0  0  0  0  0  0
    8.0842   -2.3259   24.6175 H   0  0  0  0  0  0  0  0  0  0  0  0
    8.3342   -2.3563   22.1196 H   0  0  0  0  0  0  0  0  0  0  0  0
    5.5162   -1.3087   22.1745 H   0  0  0  0  0  0  0  0  0  0  0  0
    6.2858   -2.4435   21.0367 H   0  0  0  0  0  0  0  0  0  0  0  0
    9.8271   -0.3643   22.5870 C   0  0  0  0  0  0  0  0  0  0  0  0
   10.4416   -1.3326   21.7838 C   0  0  0  0  0  0  0  0  0  0  0  0
   11.8091   -1.3636   21.6306 C   0  0  0  0  0  0  0  0  0  0  0  0
   12.4224   -2.5824   20.5367 Cl  0  0  0  0  0  0  0  0  0  0  0  0
   12.6163   -0.4320   22.2945 C   0  0  0  0  0  0  0  0  0  0  0  0
   12.0206    0.5447   23.0614 C   0  0  0  0  0  0  0  0  0  0  0  0
   10.6344    0.6159   23.1641 C   0  0  0  0  0  0  0  0  0  0  0  0
   10.0259    1.8106   23.8274 C   0  0  0  0  0  0  0  0  0  0  0  0
   10.7078    2.7889   24.1243 O   0  0  0  0  0  0  0  0  0  0  0  0
   12.6195    1.2920   23.5736 H   0  0  0  0  0  0  0  0  0  0  0  0
   13.6933   -0.3883   22.2069 H   0  0  0  0  0  0  0  0  0  0  0  0
    9.8881   -2.0628   21.2053 H   0  0  0  0  0  0  0  0  0  0  0  0
    6.8619    0.7704   23.8810 H   0  0  0  0  0  0  0  0  0  0  0  0
    8.0648   -0.0869   24.8573 H   0  0  0  0  0  0  0  0  0  0  0  0
    8.7095    3.3855   25.3417 H   0  0  0  0  0  0  0  0  0  0  0  0
    7.0996    2.6973   25.0477 H   0  0  0  0  0  0  0  0  0  0  0  0
    7.5178    4.9647   23.9338 H   0  0  0  0  0  0  0  0  0  0  0  0
    8.7892    4.1967   22.9719 H   0  0  0  0  0  0  0  0  0  0  0  0
    7.1789    2.7413   21.9873 H   0  0  0  0  0  0  0  0  0  0  0  0
    5.9494    3.3127   22.9694 H   0  0  0  0  0  0  0  0  0  0  0  0
    7.3149    4.7629   20.7973 H   0  0  0  0  0  0  0  0  0  0  0  0
    5.6110    4.2451   20.9013 H   0  0  0  0  0  0  0  0  0  0  0  0
    6.2257    5.5456   21.9541 H   0  0  0  0  0  0  0  0  0  0  0  0
  1  2  1  0
  2  3  1  0
  3  4  1  0
  4  5  1  0
  5  6  1  0
  7  6  1  1
  7  8  1  0
  8  9  2  0
  8 10  1  0
 10 11  1  0
 11 12  2  0
 12 13  1  0
 13 14  2  0
 14 15  1  0
 15 16  2  0
 16 17  1  0
 17 18  2  0
 18 19  1  0
 19 20  2  0
 19 21  1  0
 18 22  1  0
 17 23  1  0
 16 24  1  0
 14 25  1  0
 12 26  1  0
 10 27  1  0
 27 28  1  0
 28 29  1  0
 29 30  1  0
 30 31  1  0
 31 32  1  0
 32 33  1  0
 32 34  1  0
 34 35  1  0
 35 36  1  0
 36 37  1  0
 36 38  1  0
 34 39  1  0
 34 40  1  0
 31 41  1  0
 31 42  1  0
 29 43  1  0
 29 44  1  0
 28 45  1  6
 27 46  1  0
 27 47  1  0
  7 48  1  0
 48 49  2  0
 49 50  1  0
 50 51  1  0
 50 52  2  0
 52 53  1  0
 53 54  2  0
 54 55  1  0
 55 56  2  0
 53 57  1  0
 52 58  1  0
 49 59  1  0
  6 60  1  0
  6 61  1  0
  4 62  1  0
  4 63  1  0
  3 64  1  0
  3 65  1  0
  2 66  1  0
  2 67  1  0
  1 68  1  0
  1 69  1  0
  1 70  1  0
 55  5  1  0
 28  7  1  0
 36 32  1  0
 54 48  1  0
 20 11  1  0
 20 15  1  0
M  CHG  1   2   1
M  END
>  <cnnaffinities>  (29) 
[6.04217]

>  <score>  (29) 
6.04217

>  <index>  (29) 
28

>  <Smiles>  (29) 
C([N+](C(C(N1C([C@@]2(C(=O)N(c3c(nc(c4c(c(c(c(c34)[H])[H])[H])[H])[H])[H])C([C@@]2(C(OC(C2(F)C(OC2([H])[H])([H])[H])([H])[H])([H])[H])[H])([H])[H])c2c(c(Cl)c(c(c2C1=O)[H])[H])[H])([H])[H])([H])[H])([H])[H])([H])[H])([H])([H])[H]

>  <h>  (29) 
<NA>

>  <Training>  (29) 
True

>  <Success>  (29) 
True

>  <enamine_searched>  (29) 
False

>  <enamine_id>  (29) 
nan

$$$$

     RDKit          3D

 67 72  0  0  0  0  0  0  0  0999 V2000
    6.5704    4.3937   21.2886 C   0  0  0  0  0  0  0  0  0  0  0  0
    6.9515    3.4285   22.3233 N   0  0  0  0  0  4  0  0  0  0  0  0
    7.9594    3.9007   23.2977 C   0  0  0  0  0  0  0  0  0  0  0  0
    8.0938    2.9058   24.4572 C   0  0  0  0  0  0  0  0  0  0  0  0
    8.7003    1.6517   24.0162 N   0  0  0  0  0  0  0  0  0  0  0  0
    7.9598    0.4080   23.8766 C   0  0  0  0  0  0  0  0  0  0  0  0
    8.3575   -0.3969   22.6062 C   0  0  2  0  0  0  0  0  0  0  0  0
    7.8223    0.3198   21.3581 C   0  0  0  0  0  0  0  0  0  0  0  0
    8.1204    1.4470   20.9818 O   0  0  0  0  0  0  0  0  0  0  0  0
    6.8520   -0.4451   20.7789 N   0  0  0  0  0  0  0  0  0  0  0  0
    6.0907    0.1016   19.7208 C   0  0  0  0  0  0  0  0  0  0  0  0
    6.4417   -0.1829   18.4286 C   0  0  0  0  0  0  0  0  0  0  0  0
    5.7584    0.2710   17.3564 N   0  0  0  0  0  0  0  0  0  0  0  0
    4.7293    1.0484   17.5823 C   0  0  0  0  0  0  0  0  0  0  0  0
    4.3002    1.4573   18.8772 C   0  0  0  0  0  0  0  0  0  0  0  0
    3.1998    2.3328   19.0676 C   0  0  0  0  0  0  0  0  0  0  0  0
    2.8217    2.7152   20.3250 C   0  0  0  0  0  0  0  0  0  0  0  0
    3.5259    2.2475   21.4544 C   0  0  0  0  0  0  0  0  0  0  0  0
    4.5976    1.3990   21.2962 C   0  0  0  0  0  0  0  0  0  0  0  0
    5.0082    0.9788   19.9973 C   0  0  0  0  0  0  0  0  0  0  0  0
    5.1195    1.0312   22.1764 H   0  0  0  0  0  0  0  0  0  0  0  0
    3.2177    2.5617   22.4478 H   0  0  0  0  0  0  0  0  0  0  0  0
    1.9788    3.3859   20.4605 H   0  0  0  0  0  0  0  0  0  0  0  0
    2.6780    2.6891   18.1855 H   0  0  0  0  0  0  0  0  0  0  0  0
    4.1747    1.4036   16.7135 H   0  0  0  0  0  0  0  0  0  0  0  0
    7.3122   -0.8064   18.2322 H   0  0  0  0  0  0  0  0  0  0  0  0
    6.3834   -1.5118   21.6438 C   0  0  0  0  0  0  0  0  0  0  0  0
    7.6332   -1.7658   22.4843 C   0  0  2  0  0  0  0  0  0  0  0  0
    7.4085   -2.5168   23.7926 C   0  0  0  0  0  0  0  0  0  0  0  0
    6.8380   -3.8326   23.5968 N   0  0  0  0  0  0  0  0  0  0  0  0
    5.5175   -4.0781   23.5993 C   0  0  0  0  0  0  0  0  0  0  0  0
    5.1247   -5.3260   23.2598 N   0  0  0  0  0  0  0  0  0  0  0  0
    3.8177   -5.5028   23.3137 C   0  0  0  0  0  0  0  0  0  0  0  0
    2.8937   -4.5975   23.6488 N   0  0  0  0  0  0  0  0  0  0  0  0
    3.4071   -3.4091   23.9569 C   0  0  0  0  0  0  0  0  0  0  0  0
    4.6876   -3.0712   23.9394 N   0  0  0  0  0  0  0  0  0  0  0  0
    2.6996   -2.6345   24.2505 H   0  0  0  0  0  0  0  0  0  0  0  0
    3.4496   -6.4967   23.0609 H   0  0  0  0  0  0  0  0  0  0  0  0
    7.4334   -4.6179   23.3951 H   0  0  0  0  0  0  0  0  0  0  0  0
    6.7223   -1.9549   24.4299 H   0  0  0  0  0  0  0  0  0  0  0  0
    8.3682   -2.6206   24.3111 H   0  0  0  0  0  0  0  0  0  0  0  0
    8.2504   -2.3932   21.8417 H   0  0  0  0  0  0  0  0  0  0  0  0
    5.5291   -1.2040   22.2634 H   0  0  0  0  0  0  0  0  0  0  0  0
    6.0813   -2.3849   21.0616 H   0  0  0  0  0  0  0  0  0  0  0  0
    9.8624   -0.4871   22.5476 C   0  0  0  0  0  0  0  0  0  0  0  0
   10.4919   -1.4975   21.8148 C   0  0  0  0  0  0  0  0  0  0  0  0
   11.8393   -1.4364   21.5589 C   0  0  0  0  0  0  0  0  0  0  0  0
   12.4584   -2.6804   20.4936 Cl  0  0  0  0  0  0  0  0  0  0  0  0
   12.6288   -0.4044   22.0835 C   0  0  0  0  0  0  0  0  0  0  0  0
   12.0286    0.5571   22.8706 C   0  0  0  0  0  0  0  0  0  0  0  0
   10.6527    0.5410   23.0729 C   0  0  0  0  0  0  0  0  0  0  0  0
   10.0420    1.7097   23.7752 C   0  0  0  0  0  0  0  0  0  0  0  0
   10.7212    2.6839   24.0896 O   0  0  0  0  0  0  0  0  0  0  0  0
   12.6132    1.3579   23.3134 H   0  0  0  0  0  0  0  0  0  0  0  0
   13.6813   -0.3100   21.8615 H   0  0  0  0  0  0  0  0  0  0  0  0
    9.9727   -2.3395   21.3737 H   0  0  0  0  0  0  0  0  0  0  0  0
    6.8864    0.6183   23.8362 H   0  0  0  0  0  0  0  0  0  0  0  0
    8.1470   -0.2240   24.7531 H   0  0  0  0  0  0  0  0  0  0  0  0
    7.1203    2.6989   24.9174 H   0  0  0  0  0  0  0  0  0  0  0  0
    8.7552    3.3134   25.2266 H   0  0  0  0  0  0  0  0  0  0  0  0
    8.9367    3.9934   22.8118 H   0  0  0  0  0  0  0  0  0  0  0  0
    7.6873    4.8923   23.6757 H   0  0  0  0  0  0  0  0  0  0  0  0
    6.0907    3.1610   22.8299 H   0  0  0  0  0  0  0  0  0  0  0  0
    7.3321    2.5804   21.8626 H   0  0  0  0  0  0  0  0  0  0  0  0
    6.4190    5.3867   21.7227 H   0  0  0  0  0  0  0  0  0  0  0  0
    5.6395    4.0643   20.8227 H   0  0  0  0  0  0  0  0  0  0  0  0
    7.3457    4.4598   20.5235 H   0  0  0  0  0  0  0  0  0  0  0  0
  1  2  1  0
  2  3  1  0
  3  4  1  0
  4  5  1  0
  5  6  1  0
  7  6  1  1
  7  8  1  0
  8  9  2  0
  8 10  1  0
 10 11  1  0
 11 12  2  0
 12 13  1  0
 13 14  2  0
 14 15  1  0
 15 16  2  0
 16 17  1  0
 17 18  2  0
 18 19  1  0
 19 20  2  0
 19 21  1  0
 18 22  1  0
 17 23  1  0
 16 24  1  0
 14 25  1  0
 12 26  1  0
 10 27  1  0
 27 28  1  0
 28 29  1  0
 29 30  1  0
 30 31  1  0
 31 32  2  0
 32 33  1  0
 33 34  2  0
 34 35  1  0
 35 36  2  0
 35 37  1  0
 33 38  1  0
 30 39  1  0
 29 40  1  0
 29 41  1  0
 28 42  1  6
 27 43  1  0
 27 44  1  0
  7 45  1  0
 45 46  2  0
 46 47  1  0
 47 48  1  0
 47 49  2  0
 49 50  1  0
 50 51  2  0
 51 52  1  0
 52 53  2  0
 50 54  1  0
 49 55  1  0
 46 56  1  0
  6 57  1  0
  6 58  1  0
  4 59  1  0
  4 60  1  0
  3 61  1  0
  3 62  1  0
  2 63  1  0
  2 64  1  0
  1 65  1  0
  1 66  1  0
  1 67  1  0
 52  5  1  0
 28  7  1  0
 36 31  1  0
 51 45  1  0
 20 11  1  0
 20 15  1  0
M  CHG  1   2   1
M  END
>  <cnnaffinities>  (30) 
[6.50762]

>  <score>  (30) 
6.50762

>  <index>  (30) 
29

>  <Smiles>  (30) 
C([N+](C(C(N1C([C@@]2(C(=O)N(c3c(nc(c4c(c(c(c(c34)[H])[H])[H])[H])[H])[H])C([C@@]2(C(N(c2nc(nc(n2)[H])[H])[H])([H])[H])[H])([H])[H])c2c(c(Cl)c(c(c2C1=O)[H])[H])[H])([H])[H])([H])[H])([H])[H])([H])[H])([H])([H])[H]

>  <h>  (30) 
<NA>

>  <Training>  (30) 
True

>  <Success>  (30) 
True

>  <enamine_searched>  (30) 
False

>  <enamine_id>  (30) 
nan

$$$$

     RDKit          3D

 66 71  0  0  0  0  0  0  0  0999 V2000
    6.4447    4.2797   21.2921 C   0  0  0  0  0  0  0  0  0  0  0  0
    7.4054    3.8907   22.3141 N   0  0  0  0  0  0  0  0  0  0  0  0
    6.9709    3.3164   23.4630 C   0  0  0  0  0  0  0  0  0  0  0  0
    5.7862    3.1348   23.7014 O   0  0  0  0  0  0  0  0  0  0  0  0
    8.0575    2.8893   24.4538 C   0  0  0  0  0  0  0  0  0  0  0  0
    8.7525    1.6886   24.0168 N   0  0  0  0  0  0  0  0  0  0  0  0
    7.9926    0.4592   23.8580 C   0  0  0  0  0  0  0  0  0  0  0  0
    8.4073   -0.3686   22.6090 C   0  0  2  0  0  0  0  0  0  0  0  0
    7.9132    0.3101   21.3092 C   0  0  0  0  0  0  0  0  0  0  0  0
    8.3699    1.3100   20.7956 O   0  0  0  0  0  0  0  0  0  0  0  0
    6.8546   -0.4110   20.8057 N   0  0  0  0  0  0  0  0  0  0  0  0
    6.0893    0.1017   19.7304 C   0  0  0  0  0  0  0  0  0  0  0  0
    6.4466   -0.1706   18.4351 C   0  0  0  0  0  0  0  0  0  0  0  0
    5.7662    0.2771   17.3560 N   0  0  0  0  0  0  0  0  0  0  0  0
    4.7196    1.0404   17.5654 C   0  0  0  0  0  0  0  0  0  0  0  0
    4.2599    1.4254   18.8573 C   0  0  0  0  0  0  0  0  0  0  0  0
    3.1501    2.2917   19.0448 C   0  0  0  0  0  0  0  0  0  0  0  0
    2.7605    2.6585   20.3081 C   0  0  0  0  0  0  0  0  0  0  0  0
    3.4580    2.1787   21.4375 C   0  0  0  0  0  0  0  0  0  0  0  0
    4.5304    1.3326   21.2773 C   0  0  0  0  0  0  0  0  0  0  0  0
    4.9590    0.9356   19.9808 C   0  0  0  0  0  0  0  0  0  0  0  0
    5.0998    1.0211   22.1453 H   0  0  0  0  0  0  0  0  0  0  0  0
    3.1798    2.5044   22.4351 H   0  0  0  0  0  0  0  0  0  0  0  0
    1.9231    3.3341   20.4443 H   0  0  0  0  0  0  0  0  0  0  0  0
    2.6397    2.6726   18.1664 H   0  0  0  0  0  0  0  0  0  0  0  0
    4.1845    1.3996   16.6870 H   0  0  0  0  0  0  0  0  0  0  0  0
    7.3235   -0.7832   18.2345 H   0  0  0  0  0  0  0  0  0  0  0  0
    6.4250   -1.5018   21.6531 C   0  0  0  0  0  0  0  0  0  0  0  0
    7.6703   -1.7403   22.5241 C   0  0  2  0  0  0  0  0  0  0  0  0
    7.3964   -2.5110   23.8285 C   0  0  0  0  0  0  0  0  0  0  0  0
    6.8471   -3.8902   23.5354 C   0  0  0  0  0  0  0  0  0  0  0  0
    5.4741   -4.1135   23.3730 C   0  0  0  0  0  0  0  0  0  0  0  0
    5.0048   -5.3366   22.9016 C   0  0  0  0  0  0  0  0  0  0  0  0
    5.8922   -6.3660   22.6035 C   0  0  0  0  0  0  0  0  0  0  0  0
    7.2582   -6.1697   22.7972 C   0  0  0  0  0  0  0  0  0  0  0  0
    7.7184   -4.9449   23.2689 C   0  0  0  0  0  0  0  0  0  0  0  0
    8.7790   -4.7921   23.4412 H   0  0  0  0  0  0  0  0  0  0  0  0
    7.9709   -6.9584   22.5660 H   0  0  0  0  0  0  0  0  0  0  0  0
    5.5135   -7.3206   22.2442 H   0  0  0  0  0  0  0  0  0  0  0  0
    3.9386   -5.4828   22.7440 H   0  0  0  0  0  0  0  0  0  0  0  0
    4.7669   -3.3200   23.6107 H   0  0  0  0  0  0  0  0  0  0  0  0
    6.6987   -1.9505   24.4609 H   0  0  0  0  0  0  0  0  0  0  0  0
    8.3359   -2.5873   24.3906 H   0  0  0  0  0  0  0  0  0  0  0  0
    8.3236   -2.3749   21.9237 H   0  0  0  0  0  0  0  0  0  0  0  0
    5.5290   -1.2409   22.2430 H   0  0  0  0  0  0  0  0  0  0  0  0
    6.1669   -2.3804   21.0500 H   0  0  0  0  0  0  0  0  0  0  0  0
    9.9200   -0.4378   22.5292 C   0  0  0  0  0  0  0  0  0  0  0  0
   10.5341   -1.3504   21.6594 C   0  0  0  0  0  0  0  0  0  0  0  0
   11.8876   -1.2629   21.4073 C   0  0  0  0  0  0  0  0  0  0  0  0
   12.5686   -2.3240   20.2041 Cl  0  0  0  0  0  0  0  0  0  0  0  0
   12.6883   -0.3092   22.0454 C   0  0  0  0  0  0  0  0  0  0  0  0
   12.0968    0.5699   22.9286 C   0  0  0  0  0  0  0  0  0  0  0  0
   10.7139    0.5540   23.1167 C   0  0  0  0  0  0  0  0  0  0  0  0
   10.1058    1.7339   23.8200 C   0  0  0  0  0  0  0  0  0  0  0  0
   10.7919    2.6940   24.1394 O   0  0  0  0  0  0  0  0  0  0  0  0
   12.6798    1.3146   23.4607 H   0  0  0  0  0  0  0  0  0  0  0  0
   13.7474   -0.2385   21.8250 H   0  0  0  0  0  0  0  0  0  0  0  0
    9.9723   -2.1139   21.1267 H   0  0  0  0  0  0  0  0  0  0  0  0
    8.1125   -0.1637   24.7525 H   0  0  0  0  0  0  0  0  0  0  0  0
    6.9398    0.7404   23.7833 H   0  0  0  0  0  0  0  0  0  0  0  0
    8.8214    3.6607   24.5498 H   0  0  0  0  0  0  0  0  0  0  0  0
    7.5855    2.7470   25.4322 H   0  0  0  0  0  0  0  0  0  0  0  0
    8.3421    3.6559   22.0241 H   0  0  0  0  0  0  0  0  0  0  0  0
    5.7002    4.9517   21.7318 H   0  0  0  0  0  0  0  0  0  0  0  0
    5.9231    3.4050   20.8761 H   0  0  0  0  0  0  0  0  0  0  0  0
    6.9626    4.8094   20.4855 H   0  0  0  0  0  0  0  0  0  0  0  0
  1  2  1  0
  2  3  1  0
  3  4  2  0
  3  5  1  0
  5  6  1  0
  6  7  1  0
  8  7  1  1
  8  9  1  0
  9 10  2  0
  9 11  1  0
 11 12  1  0
 12 13  2  0
 13 14  1  0
 14 15  2  0
 15 16  1  0
 16 17  2  0
 17 18  1  0
 18 19  2  0
 19 20  1  0
 20 21  2  0
 20 22  1  0
 19 23  1  0
 18 24  1  0
 17 25  1  0
 15 26  1  0
 13 27  1  0
 11 28  1  0
 28 29  1  0
 29 30  1  0
 30 31  1  0
 31 32  2  0
 32 33  1  0
 33 34  2  0
 34 35  1  0
 35 36  2  0
 36 37  1  0
 35 38  1  0
 34 39  1  0
 33 40  1  0
 32 41  1  0
 30 42  1  0
 30 43  1  0
 29 44  1  6
 28 45  1  0
 28 46  1  0
  8 47  1  0
 47 48  2  0
 48 49  1  0
 49 50  1  0
 49 51  2  0
 51 52  1  0
 52 53  2  0
 53 54  1  0
 54 55  2  0
 52 56  1  0
 51 57  1  0
 48 58  1  0
  7 59  1  0
  7 60  1  0
  5 61  1  0
  5 62  1  0
  2 63  1  0
  1 64  1  0
  1 65  1  0
  1 66  1  0
 54  6  1  0
 29  8  1  0
 36 31  1  0
 53 47  1  0
 21 12  1  0
 21 16  1  0
M  END
>  <cnnaffinities>  (31) 
[6.74794, 6.74335]

>  <score>  (31) 
6.74794

>  <index>  (31) 
30

>  <Smiles>  (31) 
C(N(C(=O)C(N1C([C@@]2(C(=O)N(c3c(nc(c4c(c(c(c(c34)[H])[H])[H])[H])[H])[H])C([C@@]2(C(c2c(c(c(c(c2[H])[H])[H])[H])[H])([H])[H])[H])([H])[H])c2c(c(Cl)c(c(c2C1=O)[H])[H])[H])([H])[H])([H])[H])[H])([H])([H])[H]

>  <h>  (31) 
<NA>

>  <Training>  (31) 
True

>  <Success>  (31) 
True

>  <enamine_searched>  (31) 
False

>  <enamine_id>  (31) 
nan

$$$$

     RDKit          3D

 64 70  0  0  0  0  0  0  0  0999 V2000
    8.7497    3.2079   25.0674 O   0  0  0  0  0  0  0  0  0  0  0  0
    8.6188    2.1805   24.4161 C   0  0  0  0  0  0  0  0  0  0  0  0
    9.7542    1.5748   23.6595 C   0  0  0  0  0  0  0  0  0  0  0  0
   10.9954    2.1891   23.8136 C   0  0  0  0  0  0  0  0  0  0  0  0
   12.1009    1.6932   23.1632 C   0  0  0  0  0  0  0  0  0  0  0  0
   11.9295    0.5801   22.3479 C   0  0  0  0  0  0  0  0  0  0  0  0
   13.3191   -0.0197   21.5197 Cl  0  0  0  0  0  0  0  0  0  0  0  0
   10.7021   -0.0327   22.1615 C   0  0  0  0  0  0  0  0  0  0  0  0
    9.5743    0.4584   22.8233 C   0  0  0  0  0  0  0  0  0  0  0  0
    8.1765   -0.0725   22.5596 C   0  0  1  0  0  0  0  0  0  0  0  0
    7.3702    0.1307   23.8688 C   0  0  0  0  0  0  0  0  0  0  0  0
    7.4319    1.5080   24.3320 N   0  0  0  0  0  0  0  0  0  0  0  0
    6.2944    2.0651   25.0338 C   0  0  0  0  0  0  0  0  0  0  0  0
    6.0593    1.4229   26.3654 C   0  0  0  0  0  0  0  0  0  0  0  0
    5.3065    0.4111   26.6333 N   0  0  0  0  0  0  0  0  0  0  0  0
    5.4374    0.1736   27.9985 N   0  0  0  0  0  0  0  0  0  0  0  0
    6.2571    1.0631   28.4329 C   0  0  0  0  0  0  0  0  0  0  0  0
    6.6997    1.8953   27.4622 O   0  0  0  0  0  0  0  0  0  0  0  0
    6.6036    1.2237   29.4437 H   0  0  0  0  0  0  0  0  0  0  0  0
    5.3968    1.9290   24.4216 H   0  0  0  0  0  0  0  0  0  0  0  0
    6.4953    3.1294   25.1699 H   0  0  0  0  0  0  0  0  0  0  0  0
    7.7835   -0.5355   24.6409 H   0  0  0  0  0  0  0  0  0  0  0  0
    6.3169   -0.1344   23.7209 H   0  0  0  0  0  0  0  0  0  0  0  0
    7.5121    0.7383   21.4096 C   0  0  0  0  0  0  0  0  0  0  0  0
    7.6606    1.9070   21.1377 O   0  0  0  0  0  0  0  0  0  0  0  0
    6.6917   -0.1189   20.7118 N   0  0  0  0  0  0  0  0  0  0  0  0
    5.9056    0.3387   19.6293 C   0  0  0  0  0  0  0  0  0  0  0  0
    6.2342    0.0016   18.3397 C   0  0  0  0  0  0  0  0  0  0  0  0
    5.5814    0.4494   17.2409 N   0  0  0  0  0  0  0  0  0  0  0  0
    4.5573    1.2444   17.4268 C   0  0  0  0  0  0  0  0  0  0  0  0
    4.0815    1.6374   18.7081 C   0  0  0  0  0  0  0  0  0  0  0  0
    2.9513    2.4842   18.8538 C   0  0  0  0  0  0  0  0  0  0  0  0
    2.5012    2.8304   20.0980 C   0  0  0  0  0  0  0  0  0  0  0  0
    3.1554    2.3439   21.2528 C   0  0  0  0  0  0  0  0  0  0  0  0
    4.2534    1.5291   21.1358 C   0  0  0  0  0  0  0  0  0  0  0  0
    4.7586    1.1659   19.8535 C   0  0  0  0  0  0  0  0  0  0  0  0
    4.7471    1.1570   22.0298 H   0  0  0  0  0  0  0  0  0  0  0  0
    2.7859    2.6217   22.2357 H   0  0  0  0  0  0  0  0  0  0  0  0
    1.6411    3.4848   20.2085 H   0  0  0  0  0  0  0  0  0  0  0  0
    2.4628    2.8503   17.9548 H   0  0  0  0  0  0  0  0  0  0  0  0
    4.0477    1.6148   16.5375 H   0  0  0  0  0  0  0  0  0  0  0  0
    7.0893   -0.6466   18.1505 H   0  0  0  0  0  0  0  0  0  0  0  0
    6.7189   -1.4791   21.1989 C   0  0  0  0  0  0  0  0  0  0  0  0
    8.0284   -1.5337   22.0114 C   0  0  2  0  0  0  0  0  0  0  0  0
    7.9817   -2.6818   23.0564 C   0  0  0  0  0  0  0  0  0  0  0  0
    7.6806   -3.9949   22.4578 N   0  0  0  0  0  0  0  0  0  0  0  0
    7.8322   -5.1953   23.0373 C   0  0  0  0  0  0  0  0  0  0  0  0
    8.0761   -5.6352   24.5862 C   0  0  0  0  0  0  0  0  0  0  0  0
    8.3184   -5.6240   24.3147 C   0  0  0  0  0  0  0  0  0  0  0  0
    9.0691   -7.3131   23.8315 N   0  0  0  0  0  0  0  0  0  0  0  0
    8.3303   -7.2888   22.7696 C   0  0  0  0  0  0  0  0  0  0  0  0
    7.7118   -6.2288   22.2229 N   0  0  0  0  0  0  0  0  0  0  0  0
    8.3511   -8.2035   22.1566 H   0  0  0  0  0  0  0  0  0  0  0  0
    8.5600   -6.7305   24.7171 H   0  0  0  0  0  0  0  0  0  0  0  0
    7.0891   -5.7876   25.2970 H   0  0  0  0  0  0  0  0  0  0  0  0
    7.5054   -4.0630   21.4581 H   0  0  0  0  0  0  0  0  0  0  0  0
    8.9023   -2.8199   23.6492 H   0  0  0  0  0  0  0  0  0  0  0  0
    7.1885   -2.4027   23.7700 H   0  0  0  0  0  0  0  0  0  0  0  0
    8.8410   -1.6972   21.2987 H   0  0  0  0  0  0  0  0  0  0  0  0
    5.8474   -1.6896   21.8450 H   0  0  0  0  0  0  0  0  0  0  0  0
    6.6823   -2.1734   20.3575 H   0  0  0  0  0  0  0  0  0  0  0  0
   10.6515   -0.8800   21.4866 H   0  0  0  0  0  0  0  0  0  0  0  0
   13.0827    2.1450   23.2573 H   0  0  0  0  0  0  0  0  0  0  0  0
   11.0599    3.0672   24.4447 H   0  0  0  0  0  0  0  0  0  0  0  0
  1  2  2  0
  2  3  1  0
  3  4  2  0
  4  5  1  0
  5  6  2  0
  6  7  1  0
  6  8  1  0
  8  9  2  0
  9 10  1  0
 10 11  1  1
 11 12  1  0
 12 13  1  0
 13 14  1  0
 14 15  2  0
 15 16  1  0
 16 17  2  0
 17 18  1  0
 17 19  1  0
 13 20  1  0
 13 21  1  0
 11 22  1  0
 11 23  1  0
 10 24  1  0
 24 25  2  0
 24 26  1  0
 26 27  1  0
 27 28  2  0
 28 29  1  0
 29 30  2  0
 30 31  1  0
 31 32  2  0
 32 33  1  0
 33 34  2  0
 34 35  1  0
 35 36  2  0
 35 37  1  0
 34 38  1  0
 33 39  1  0
 32 40  1  0
 30 41  1  0
 28 42  1  0
 26 43  1  0
 43 44  1  0
 44 45  1  0
 45 46  1  0
 46 47  1  0
 47 48  2  0
 48 49  1  0
 49 50  2  0
 50 51  1  0
 51 52  2  0
 51 53  1  0
 49 54  1  0
 48 55  1  0
 46 56  1  0
 45 57  1  0
 45 58  1  0
 44 59  1  6
 43 60  1  0
 43 61  1  0
  8 62  1  0
  5 63  1  0
  4 64  1  0
 12  2  1  0
 18 14  1  0
 36 27  1  0
 52 47  1  0
  9  3  1  0
 44 10  1  0
 36 31  1  0
M  END
>  <cnnaffinities>  (32) 
[6.55779]

>  <score>  (32) 
6.55779

>  <index>  (32) 
31

>  <Smiles>  (32) 
O=C1c2c(c(c(Cl)c(c2[C@@]2(C(N1C(c1nnc(o1)[H])([H])[H])([H])[H])C(=O)N(c1c(nc(c3c(c(c(c(c13)[H])[H])[H])[H])[H])[H])C([C@@]2(C(N(c1c(c(nc(n1)[H])[H])[H])[H])([H])[H])[H])([H])[H])[H])[H])[H]

>  <h>  (32) 
<NA>

>  <Training>  (32) 
True

>  <Success>  (32) 
True

>  <enamine_searched>  (32) 
False

>  <enamine_id>  (32) 
nan

$$$$

     RDKit          3D

 72 77  0  0  0  0  0  0  0  0999 V2000
    6.9385   -2.4992   23.4517 C   0  0  0  0  0  0  0  0  0  0  0  0
    7.8977   -1.8473   22.4415 C   0  0  1  0  0  0  0  0  0  0  0  0
    7.2457   -1.7746   21.0386 C   0  0  0  0  0  0  0  0  0  0  0  0
    6.9033   -0.3791   20.8656 N   0  0  0  0  0  0  0  0  0  0  0  0
    6.1322    0.1056   19.7797 C   0  0  0  0  0  0  0  0  0  0  0  0
    6.4410   -0.2251   18.4846 C   0  0  0  0  0  0  0  0  0  0  0  0
    5.7658    0.2301   17.4004 N   0  0  0  0  0  0  0  0  0  0  0  0
    4.7462    1.0241   17.6011 C   0  0  0  0  0  0  0  0  0  0  0  0
    4.2948    1.4217   18.8873 C   0  0  0  0  0  0  0  0  0  0  0  0
    3.1714    2.2756   19.0592 C   0  0  0  0  0  0  0  0  0  0  0  0
    2.7461    2.6194   20.3118 C   0  0  0  0  0  0  0  0  0  0  0  0
    3.4192    2.1160   21.4500 C   0  0  0  0  0  0  0  0  0  0  0  0
    4.5059    1.2913   21.3085 C   0  0  0  0  0  0  0  0  0  0  0  0
    4.9933    0.9412   20.0187 C   0  0  0  0  0  0  0  0  0  0  0  0
    5.0172    0.9006   22.1821 H   0  0  0  0  0  0  0  0  0  0  0  0
    3.0651    2.3871   22.4413 H   0  0  0  0  0  0  0  0  0  0  0  0
    1.8922    3.2779   20.4396 H   0  0  0  0  0  0  0  0  0  0  0  0
    2.6655    2.6491   18.1718 H   0  0  0  0  0  0  0  0  0  0  0  0
    4.2203    1.3868   16.7164 H   0  0  0  0  0  0  0  0  0  0  0  0
    7.2871   -0.8706   18.2558 H   0  0  0  0  0  0  0  0  0  0  0  0
    7.6158    0.4577   21.6952 C   0  0  0  0  0  0  0  0  0  0  0  0
    7.6501    1.6672   21.5847 O   0  0  0  0  0  0  0  0  0  0  0  0
    8.3608   -0.3854   22.7579 C   0  0  1  0  0  0  0  0  0  0  0  0
    7.9932    0.0848   24.1890 C   0  0  0  0  0  0  0  0  0  0  0  0
    8.4859    1.4157   24.5053 N   0  0  0  0  0  0  0  0  0  0  0  0
    7.5913    2.3609   25.1710 C   0  0  0  0  0  0  0  0  0  0  0  0
    6.8461    3.2421   24.1633 C   0  0  0  0  0  0  0  0  0  0  0  0
    5.9714    4.2846   24.7980 N   0  0  1  0  0  4  0  0  0  0  0  0
    5.5622    5.3187   23.7799 C   0  0  0  0  0  0  0  0  0  0  0  0
    4.6388    6.3564   24.3946 C   0  0  0  0  0  0  0  0  0  0  0  0
    3.4809    5.7642   24.9485 O   0  0  0  0  0  0  0  0  0  0  0  0
    3.7576    4.7969   25.9663 C   0  0  0  0  0  0  0  0  0  0  0  0
    2.4186    4.1363   26.2737 C   0  0  0  0  0  0  0  0  0  0  0  0
    1.9938    3.6940   25.3660 H   0  0  0  0  0  0  0  0  0  0  0  0
    2.5491    3.3452   27.0229 H   0  0  0  0  0  0  0  0  0  0  0  0
    1.7108    4.8739   26.6667 H   0  0  0  0  0  0  0  0  0  0  0  0
    4.2947    5.4733   27.2285 C   0  0  0  0  0  0  0  0  0  0  0  0
    5.2974    5.8927   27.0864 H   0  0  0  0  0  0  0  0  0  0  0  0
    4.3521    4.7366   28.0389 H   0  0  0  0  0  0  0  0  0  0  0  0
    3.6140    6.2758   27.5360 H   0  0  0  0  0  0  0  0  0  0  0  0
    4.7255    3.7190   25.4451 C   0  0  0  0  0  0  0  0  0  0  0  0
    4.2010    3.1173   24.6944 H   0  0  0  0  0  0  0  0  0  0  0  0
    5.0079    3.0682   26.2780 H   0  0  0  0  0  0  0  0  0  0  0  0
    5.1919    6.9424   25.1435 H   0  0  0  0  0  0  0  0  0  0  0  0
    4.2790    7.0446   23.6233 H   0  0  0  0  0  0  0  0  0  0  0  0
    5.0379    4.8075   22.9644 H   0  0  0  0  0  0  0  0  0  0  0  0
    6.4644    5.7877   23.3751 H   0  0  0  0  0  0  0  0  0  0  0  0
    6.5423    4.7643   25.5247 H   0  0  0  0  0  0  0  0  0  0  0  0
    6.2333    2.6111   23.5039 H   0  0  0  0  0  0  0  0  0  0  0  0
    7.5735    3.7608   23.5342 H   0  0  0  0  0  0  0  0  0  0  0  0
    8.1821    2.9788   25.8532 H   0  0  0  0  0  0  0  0  0  0  0  0
    6.8764    1.7824   25.7699 H   0  0  0  0  0  0  0  0  0  0  0  0
    9.6916    1.8694   24.0551 C   0  0  0  0  0  0  0  0  0  0  0  0
   10.0891    3.0068   24.2920 O   0  0  0  0  0  0  0  0  0  0  0  0
   10.4965    0.8932   23.2426 C   0  0  0  0  0  0  0  0  0  0  0  0
   11.8605    1.1224   23.0611 C   0  0  0  0  0  0  0  0  0  0  0  0
   12.6008    0.3392   22.1923 C   0  0  0  0  0  0  0  0  0  0  0  0
   11.9466   -0.6824   21.5062 C   0  0  0  0  0  0  0  0  0  0  0  0
   12.7362   -1.5139   20.1780 Cl  0  0  0  0  0  0  0  0  0  0  0  0
   10.5963   -0.9219   21.6748 C   0  0  0  0  0  0  0  0  0  0  0  0
    9.8623   -0.1754   22.5984 C   0  0  0  0  0  0  0  0  0  0  0  0
   10.1139   -1.5938   20.9724 H   0  0  0  0  0  0  0  0  0  0  0  0
   13.6285    0.5868   21.9488 H   0  0  0  0  0  0  0  0  0  0  0  0
   12.3081    1.9662   23.5739 H   0  0  0  0  0  0  0  0  0  0  0  0
    8.3970   -0.6572   24.8934 H   0  0  0  0  0  0  0  0  0  0  0  0
    6.9072    0.1116   24.3006 H   0  0  0  0  0  0  0  0  0  0  0  0
    7.9436   -2.1031   20.2587 H   0  0  0  0  0  0  0  0  0  0  0  0
    6.3419   -2.3912   20.9702 H   0  0  0  0  0  0  0  0  0  0  0  0
    8.7842   -2.4882   22.4067 H   0  0  0  0  0  0  0  0  0  0  0  0
    6.6864   -3.5163   23.1260 H   0  0  0  0  0  0  0  0  0  0  0  0
    6.0013   -1.9381   23.5448 H   0  0  0  0  0  0  0  0  0  0  0  0
    7.3868   -2.5832   24.4468 H   0  0  0  0  0  0  0  0  0  0  0  0
  1  2  1  0
  2  3  1  0
  3  4  1  0
  4  5  1  0
  5  6  2  0
  6  7  1  0
  7  8  2  0
  8  9  1  0
  9 10  2  0
 10 11  1  0
 11 12  2  0
 12 13  1  0
 13 14  2  0
 13 15  1  0
 12 16  1  0
 11 17  1  0
 10 18  1  0
  8 19  1  0
  6 20  1  0
  4 21  1  0
 21 22  2  0
 21 23  1  0
 23 24  1  1
 24 25  1  0
 25 26  1  0
 26 27  1  0
 27 28  1  0
 28 29  1  0
 29 30  1  0
 30 31  1  0
 31 32  1  0
 32 33  1  0
 33 34  1  0
 33 35  1  0
 33 36  1  0
 32 37  1  0
 37 38  1  0
 37 39  1  0
 37 40  1  0
 32 41  1  0
 41 42  1  0
 41 43  1  0
 30 44  1  0
 30 45  1  0
 29 46  1  0
 29 47  1  0
 28 48  1  1
 27 49  1  0
 27 50  1  0
 26 51  1  0
 26 52  1  0
 25 53  1  0
 53 54  2  0
 53 55  1  0
 55 56  2  0
 56 57  1  0
 57 58  2  0
 58 59  1  0
 58 60  1  0
 60 61  2  0
 60 62  1  0
 57 63  1  0
 56 64  1  0
 24 65  1  0
 24 66  1  0
  3 67  1  0
  3 68  1  0
  2 69  1  6
  1 70  1  0
  1 71  1  0
  1 72  1  0
 23  2  1  0
 41 28  1  0
 61 55  1  0
 14  5  1  0
 61 23  1  0
 14  9  1  0
M  CHG  1  28   1
M  END
>  <cnnaffinities>  (33) 
[6.0812]

>  <score>  (33) 
6.0812

>  <index>  (33) 
32

>  <Smiles>  (33) 
C([C@]1(C(N(c2c(nc(c3c(c(c(c(c23)[H])[H])[H])[H])[H])[H])C(=O)[C@]21C(N(C(C([N@+]1(C(C(OC(C([H])([H])[H])(C([H])([H])[H])C1([H])[H])([H])[H])([H])[H])[H])([H])[H])([H])[H])C(=O)c1c(c(c(Cl)c(c21)[H])[H])[H])([H])[H])([H])[H])[H])([H])([H])[H]

>  <h>  (33) 
<NA>

>  <Training>  (33) 
True

>  <Success>  (33) 
True

>  <enamine_searched>  (33) 
False

>  <enamine_id>  (33) 
nan

$$$$

     RDKit          3D

 44 47  0  0  0  0  0  0  0  0999 V2000
    5.4444   -2.4019   20.9469 O   0  0  0  0  0  0  0  0  0  0  0  0
    6.2315   -1.7171   21.5864 C   0  0  0  0  0  0  0  0  0  0  0  0
    6.9120   -0.4910   20.9255 C   0  0  0  0  0  0  0  0  0  0  0  0
    6.1128    0.0832   19.7747 C   0  0  0  0  0  0  0  0  0  0  0  0
    6.4206   -0.2150   18.4715 C   0  0  0  0  0  0  0  0  0  0  0  0
    5.7557    0.2441   17.3758 N   0  0  0  0  0  0  0  0  0  0  0  0
    4.7330    1.0323   17.5799 C   0  0  0  0  0  0  0  0  0  0  0  0
    4.2839    1.4242   18.8705 C   0  0  0  0  0  0  0  0  0  0  0  0
    3.1653    2.2766   19.0455 C   0  0  0  0  0  0  0  0  0  0  0  0
    2.7518    2.6307   20.2976 C   0  0  0  0  0  0  0  0  0  0  0  0
    3.4490    2.1407   21.4278 C   0  0  0  0  0  0  0  0  0  0  0  0
    4.5346    1.3135   21.2926 C   0  0  0  0  0  0  0  0  0  0  0  0
    4.9888    0.9359   20.0022 C   0  0  0  0  0  0  0  0  0  0  0  0
    5.0483    0.9468   22.1812 H   0  0  0  0  0  0  0  0  0  0  0  0
    3.1102    2.4296   22.4157 H   0  0  0  0  0  0  0  0  0  0  0  0
    1.8966    3.2874   20.4378 H   0  0  0  0  0  0  0  0  0  0  0  0
    2.6464    2.6472   18.1628 H   0  0  0  0  0  0  0  0  0  0  0  0
    4.2004    1.3984   16.6976 H   0  0  0  0  0  0  0  0  0  0  0  0
    7.2641   -0.8658   18.2423 H   0  0  0  0  0  0  0  0  0  0  0  0
    7.8725   -0.8394   20.5200 H   0  0  0  0  0  0  0  0  0  0  0  0
    7.1571    0.2945   21.6517 H   0  0  0  0  0  0  0  0  0  0  0  0
    6.5571   -2.0582   22.8731 N   0  0  0  0  0  0  0  0  0  0  0  0
    6.0867   -3.3288   23.4228 C   0  0  0  0  0  0  0  0  0  0  0  0
    6.5999   -3.3629   24.8644 C   0  0  0  0  0  0  0  0  0  0  0  0
    7.6640   -2.2662   24.9542 C   0  0  0  0  0  0  0  0  0  0  0  0
    7.3554   -1.2850   23.8126 C   0  0  2  0  0  0  0  0  0  0  0  0
    6.6487   -0.0326   24.2988 C   0  0  0  0  0  0  0  0  0  0  0  0
    7.3308    1.1826   24.3539 C   0  0  0  0  0  0  0  0  0  0  0  0
    6.6930    2.3317   24.8064 C   0  0  0  0  0  0  0  0  0  0  0  0
    5.3702    2.2928   25.2264 C   0  0  0  0  0  0  0  0  0  0  0  0
    4.7245    1.0675   25.1920 C   0  0  0  0  0  0  0  0  0  0  0  0
    3.4443    1.0098   25.5942 F   0  0  0  0  0  0  0  0  0  0  0  0
    5.3327   -0.0929   24.7463 C   0  0  0  0  0  0  0  0  0  0  0  0
    4.7622   -1.0172   24.7452 H   0  0  0  0  0  0  0  0  0  0  0  0
    4.8441    3.1789   25.5659 H   0  0  0  0  0  0  0  0  0  0  0  0
    7.2253    3.2734   24.8156 H   0  0  0  0  0  0  0  0  0  0  0  0
    8.3663    1.2320   24.0252 H   0  0  0  0  0  0  0  0  0  0  0  0
    8.2871   -0.9846   23.3315 H   0  0  0  0  0  0  0  0  0  0  0  0
    7.6552   -1.7675   25.9247 H   0  0  0  0  0  0  0  0  0  0  0  0
    8.6672   -2.6858   24.8398 H   0  0  0  0  0  0  0  0  0  0  0  0
    7.0150   -4.3379   25.1239 H   0  0  0  0  0  0  0  0  0  0  0  0
    5.7937   -3.1836   25.5805 H   0  0  0  0  0  0  0  0  0  0  0  0
    6.4892   -4.1491   22.8243 H   0  0  0  0  0  0  0  0  0  0  0  0
    4.9964   -3.4122   23.3724 H   0  0  0  0  0  0  0  0  0  0  0  0
  1  2  2  0
  2  3  1  0
  3  4  1  0
  4  5  2  0
  5  6  1  0
  6  7  2  0
  7  8  1  0
  8  9  2  0
  9 10  1  0
 10 11  2  0
 11 12  1  0
 12 13  2  0
 12 14  1  0
 11 15  1  0
 10 16  1  0
  9 17  1  0
  7 18  1  0
  5 19  1  0
  3 20  1  0
  3 21  1  0
  2 22  1  0
 22 23  1  0
 23 24  1  0
 24 25  1  0
 25 26  1  0
 26 27  1  0
 27 28  2  0
 28 29  1  0
 29 30  2  0
 30 31  1  0
 31 32  1  0
 31 33  2  0
 33 34  1  0
 30 35  1  0
 29 36  1  0
 28 37  1  0
 26 38  1  6
 25 39  1  0
 25 40  1  0
 24 41  1  0
 24 42  1  0
 23 43  1  0
 23 44  1  0
 13  4  1  0
 26 22  1  0
 33 27  1  0
 13  8  1  0
M  END
>  <cnnaffinities>  (34) 
[5.58861, 5.6338]

>  <score>  (34) 
5.58861

>  <index>  (34) 
33

>  <Smiles>  (34) 
O=C(C(c1c(nc(c2c(c(c(c(c12)[H])[H])[H])[H])[H])[H])([H])[H])N1C(C(C([C@@]1(c1c(c(c(c(F)c1[H])[H])[H])[H])[H])([H])[H])([H])[H])([H])[H]

>  <h>  (34) 
<NA>

>  <Training>  (34) 
True

>  <Success>  (34) 
True

>  <enamine_searched>  (34) 
False

>  <enamine_id>  (34) 
nan

$$$$

     RDKit          3D

 58 63  0  0  0  0  0  0  0  0999 V2000
    6.6973   -2.3077   23.6208 C   0  0  0  0  0  0  0  0  0  0  0  0
    7.7025   -1.8421   22.5541 C   0  0  1  0  0  0  0  0  0  0  0  0
    7.0383   -1.7944   21.1571 C   0  0  0  0  0  0  0  0  0  0  0  0
    6.8737   -0.3861   20.8759 N   0  0  0  0  0  0  0  0  0  0  0  0
    6.1257    0.1079   19.7784 C   0  0  0  0  0  0  0  0  0  0  0  0
    6.4408   -0.2251   18.4847 C   0  0  0  0  0  0  0  0  0  0  0  0
    5.7708    0.2280   17.3982 N   0  0  0  0  0  0  0  0  0  0  0  0
    4.7498    1.0234   17.5980 C   0  0  0  0  0  0  0  0  0  0  0  0
    4.2966    1.4310   18.8841 C   0  0  0  0  0  0  0  0  0  0  0  0
    3.1657    2.2760   19.0598 C   0  0  0  0  0  0  0  0  0  0  0  0
    2.7389    2.6147   20.3142 C   0  0  0  0  0  0  0  0  0  0  0  0
    3.4217    2.1261   21.4501 C   0  0  0  0  0  0  0  0  0  0  0  0
    4.5172    1.3152   21.3056 C   0  0  0  0  0  0  0  0  0  0  0  0
    4.9972    0.9557   20.0158 C   0  0  0  0  0  0  0  0  0  0  0  0
    5.0200    0.9262   22.1844 H   0  0  0  0  0  0  0  0  0  0  0  0
    3.0808    2.3972   22.4463 H   0  0  0  0  0  0  0  0  0  0  0  0
    1.8747    3.2604   20.4440 H   0  0  0  0  0  0  0  0  0  0  0  0
    2.6546    2.6411   18.1733 H   0  0  0  0  0  0  0  0  0  0  0  0
    4.2219    1.3832   16.7147 H   0  0  0  0  0  0  0  0  0  0  0  0
    7.2882   -0.8743   18.2666 H   0  0  0  0  0  0  0  0  0  0  0  0
    7.6845    0.4279   21.6330 C   0  0  0  0  0  0  0  0  0  0  0  0
    7.8729    1.6041   21.4118 O   0  0  0  0  0  0  0  0  0  0  0  0
    8.3393   -0.4252   22.7563 C   0  0  1  0  0  0  0  0  0  0  0  0
    8.0518    0.1719   24.1586 C   0  0  0  0  0  0  0  0  0  0  0  0
    8.7337    1.4352   24.3971 N   0  0  0  0  0  0  0  0  0  0  0  0
    7.9805    2.5717   24.9372 C   0  0  0  0  0  0  0  0  0  0  0  0
    7.5873    3.5907   23.8997 C   0  0  0  0  0  0  0  0  0  0  0  0
    8.3751    4.6245   23.3756 C   0  0  0  0  0  0  0  0  0  0  0  0
    7.6889    5.2398   22.4205 N   0  0  0  0  0  0  0  0  0  0  0  0
    6.5386    4.6007   22.3924 N   0  0  0  0  0  0  0  0  0  0  0  0
    5.5367    4.8804   21.3738 C   0  0  0  0  0  0  0  0  0  0  0  0
    4.5567    4.8465   21.8544 H   0  0  0  0  0  0  0  0  0  0  0  0
    5.7399    5.8799   20.9767 H   0  0  0  0  0  0  0  0  0  0  0  0
    5.5772    4.1294   20.5719 H   0  0  0  0  0  0  0  0  0  0  0  0
    6.4061    3.6137   23.2730 N   0  0  0  0  0  0  0  0  0  0  0  0
    9.3798    4.9130   23.6584 H   0  0  0  0  0  0  0  0  0  0  0  0
    8.5891    3.0548   25.7086 H   0  0  0  0  0  0  0  0  0  0  0  0
    7.0797    2.1756   25.4129 H   0  0  0  0  0  0  0  0  0  0  0  0
   10.0147    1.6628   23.9813 C   0  0  0  0  0  0  0  0  0  0  0  0
   10.6028    2.7146   24.2132 O   0  0  0  0  0  0  0  0  0  0  0  0
   10.6409    0.5690   23.1753 C   0  0  0  0  0  0  0  0  0  0  0  0
   12.0163    0.6236   22.9575 C   0  0  0  0  0  0  0  0  0  0  0  0
   12.6139   -0.2316   22.0557 C   0  0  0  0  0  0  0  0  0  0  0  0
   11.8099   -1.1467   21.3801 C   0  0  0  0  0  0  0  0  0  0  0  0
   12.3671   -1.9252   20.4368 F   0  0  0  0  0  0  0  0  0  0  0  0
   10.4497   -1.2379   21.5959 C   0  0  0  0  0  0  0  0  0  0  0  0
    9.8523   -0.4045   22.5502 C   0  0  0  0  0  0  0  0  0  0  0  0
    9.8831   -1.9156   20.9634 H   0  0  0  0  0  0  0  0  0  0  0  0
   13.6693   -0.1581   21.8215 H   0  0  0  0  0  0  0  0  0  0  0  0
   12.5795    1.3891   23.4820 H   0  0  0  0  0  0  0  0  0  0  0  0
    8.3453   -0.5792   24.9065 H   0  0  0  0  0  0  0  0  0  0  0  0
    6.9838    0.3723   24.2515 H   0  0  0  0  0  0  0  0  0  0  0  0
    6.0621   -2.2935   21.1431 H   0  0  0  0  0  0  0  0  0  0  0  0
    7.6811   -2.2598   20.4039 H   0  0  0  0  0  0  0  0  0  0  0  0
    8.5157   -2.5760   22.5529 H   0  0  0  0  0  0  0  0  0  0  0  0
    5.8368   -1.6329   23.6904 H   0  0  0  0  0  0  0  0  0  0  0  0
    6.3215   -3.3038   23.3628 H   0  0  0  0  0  0  0  0  0  0  0  0
    7.1588   -2.3844   24.6094 H   0  0  0  0  0  0  0  0  0  0  0  0
  1  2  1  0
  2  3  1  0
  3  4  1  0
  4  5  1  0
  5  6  2  0
  6  7  1  0
  7  8  2  0
  8  9  1  0
  9 10  2  0
 10 11  1  0
 11 12  2  0
 12 13  1  0
 13 14  2  0
 13 15  1  0
 12 16  1  0
 11 17  1  0
 10 18  1  0
  8 19  1  0
  6 20  1  0
  4 21  1  0
 21 22  2  0
 21 23  1  0
 23 24  1  1
 24 25  1  0
 25 26  1  0
 26 27  1  0
 27 28  1  0
 28 29  2  0
 29 30  1  0
 30 31  1  0
 31 32  1  0
 31 33  1  0
 31 34  1  0
 30 35  1  0
 28 36  1  0
 26 37  1  0
 26 38  1  0
 25 39  1  0
 39 40  2  0
 39 41  1  0
 41 42  2  0
 42 43  1  0
 43 44  2  0
 44 45  1  0
 44 46  1  0
 46 47  2  0
 46 48  1  0
 43 49  1  0
 42 50  1  0
 24 51  1  0
 24 52  1  0
  3 53  1  0
  3 54  1  0
  2 55  1  6
  1 56  1  0
  1 57  1  0
  1 58  1  0
 23  2  1  0
 35 27  2  0
 47 41  1  0
 14  5  1  0
 47 23  1  0
 14  9  1  0
M  END
>  <cnnaffinities>  (35) 
[6.24121]

>  <score>  (35) 
6.24121

>  <index>  (35) 
34

>  <Smiles>  (35) 
C([C@]1(C(N(c2c(nc(c3c(c(c(c(c23)[H])[H])[H])[H])[H])[H])C(=O)[C@]21C(N(C(c1c(nn(C([H])([H])[H])n1)[H])([H])[H])C(=O)c1c(c(c(F)c(c21)[H])[H])[H])([H])[H])([H])[H])[H])([H])([H])[H]

>  <h>  (35) 
<NA>

>  <Training>  (35) 
True

>  <Success>  (35) 
True

>  <enamine_searched>  (35) 
False

>  <enamine_id>  (35) 
nan

$$$$

     RDKit          3D

 51 54  0  0  0  0  0  0  0  0999 V2000
   13.4863    0.4122   22.5287 N   0  0  0  0  0  0  0  0  0  0  0  0
   13.0307   -0.4980   23.0779 C   0  0  0  0  0  0  0  0  0  0  0  0
   12.4624   -1.6726   23.7645 C   0  0  0  0  0  0  0  0  0  0  0  0
   11.0506   -1.9730   23.2969 C   0  0  0  0  0  0  0  0  0  0  0  0
    9.9766   -1.2972   23.8768 C   0  0  0  0  0  0  0  0  0  0  0  0
    8.6798   -1.5157   23.4257 C   0  0  0  0  0  0  0  0  0  0  0  0
    8.4488   -2.4127   22.3820 C   0  0  0  0  0  0  0  0  0  0  0  0
    7.1123   -2.7220   21.9695 N   0  0  0  0  0  0  0  0  0  0  0  0
    6.5700   -4.0442   22.2808 C   0  0  0  0  0  0  0  0  0  0  0  0
    6.0496   -4.1363   23.7027 C   0  0  0  0  0  0  0  0  0  0  0  0
    4.7016   -3.9057   23.9860 C   0  0  0  0  0  0  0  0  0  0  0  0
    4.2518   -3.9394   25.3023 C   0  0  0  0  0  0  0  0  0  0  0  0
    5.1372   -4.1943   26.3448 C   0  0  0  0  0  0  0  0  0  0  0  0
    6.4773   -4.4160   26.0543 C   0  0  0  0  0  0  0  0  0  0  0  0
    7.5998   -4.7204   27.3524 Cl  0  0  0  0  0  0  0  0  0  0  0  0
    6.9396   -4.3900   24.7460 C   0  0  0  0  0  0  0  0  0  0  0  0
    7.9953   -4.5681   24.5512 H   0  0  0  0  0  0  0  0  0  0  0  0
    4.8122   -4.1872   27.3809 H   0  0  0  0  0  0  0  0  0  0  0  0
    3.2013   -3.7628   25.5216 H   0  0  0  0  0  0  0  0  0  0  0  0
    4.0045   -3.6986   23.1756 H   0  0  0  0  0  0  0  0  0  0  0  0
    5.7682   -4.2046   21.5573 H   0  0  0  0  0  0  0  0  0  0  0  0
    7.3603   -4.7829   22.1030 H   0  0  0  0  0  0  0  0  0  0  0  0
    6.2366   -1.8010   21.4279 C   0  0  0  0  0  0  0  0  0  0  0  0
    5.0431   -2.0135   21.3249 O   0  0  0  0  0  0  0  0  0  0  0  0
    6.8881   -0.5303   20.8854 C   0  0  0  0  0  0  0  0  0  0  0  0
    6.1118    0.0807   19.7589 C   0  0  0  0  0  0  0  0  0  0  0  0
    6.4330   -0.2170   18.4587 C   0  0  0  0  0  0  0  0  0  0  0  0
    5.7680    0.2403   17.3682 N   0  0  0  0  0  0  0  0  0  0  0  0
    4.7435    1.0257   17.5821 C   0  0  0  0  0  0  0  0  0  0  0  0
    4.2921    1.4085   18.8713 C   0  0  0  0  0  0  0  0  0  0  0  0
    3.1797    2.2682   19.0443 C   0  0  0  0  0  0  0  0  0  0  0  0
    2.7627    2.6208   20.2986 C   0  0  0  0  0  0  0  0  0  0  0  0
    3.4442    2.1281   21.4355 C   0  0  0  0  0  0  0  0  0  0  0  0
    4.5235    1.2892   21.2931 C   0  0  0  0  0  0  0  0  0  0  0  0
    4.9843    0.9170   20.0009 C   0  0  0  0  0  0  0  0  0  0  0  0
    5.0213    0.8992   22.1763 H   0  0  0  0  0  0  0  0  0  0  0  0
    3.1092    2.4204   22.4286 H   0  0  0  0  0  0  0  0  0  0  0  0
    1.9084    3.2824   20.4307 H   0  0  0  0  0  0  0  0  0  0  0  0
    2.6756    2.6408   18.1554 H   0  0  0  0  0  0  0  0  0  0  0  0
    4.2028    1.3992   16.7111 H   0  0  0  0  0  0  0  0  0  0  0  0
    7.2819   -0.8682   18.2382 H   0  0  0  0  0  0  0  0  0  0  0  0
    7.0250    0.1639   21.7243 H   0  0  0  0  0  0  0  0  0  0  0  0
    7.8959   -0.8092   20.5573 H   0  0  0  0  0  0  0  0  0  0  0  0
    9.5259   -3.0462   21.7681 C   0  0  0  0  0  0  0  0  0  0  0  0
   10.8184   -2.8460   22.2360 C   0  0  0  0  0  0  0  0  0  0  0  0
   11.6395   -3.4122   21.7936 H   0  0  0  0  0  0  0  0  0  0  0  0
    9.3467   -3.6916   20.9145 H   0  0  0  0  0  0  0  0  0  0  0  0
    7.8342   -1.0094   23.8875 H   0  0  0  0  0  0  0  0  0  0  0  0
   10.1618   -0.5843   24.6820 H   0  0  0  0  0  0  0  0  0  0  0  0
   13.1344   -2.5190   23.5861 H   0  0  0  0  0  0  0  0  0  0  0  0
   12.4769   -1.4724   24.8420 H   0  0  0  0  0  0  0  0  0  0  0  0
  1  2  3  0
  2  3  1  0
  3  4  1  0
  4  5  2  0
  5  6  1  0
  6  7  2  0
  7  8  1  0
  8  9  1  0
  9 10  1  0
 10 11  2  0
 11 12  1  0
 12 13  2  0
 13 14  1  0
 14 15  1  0
 14 16  2  0
 16 17  1  0
 13 18  1  0
 12 19  1  0
 11 20  1  0
  9 21  1  0
  9 22  1  0
  8 23  1  0
 23 24  2  0
 23 25  1  0
 25 26  1  0
 26 27  2  0
 27 28  1  0
 28 29  2  0
 29 30  1  0
 30 31  2  0
 31 32  1  0
 32 33  2  0
 33 34  1  0
 34 35  2  0
 34 36  1  0
 33 37  1  0
 32 38  1  0
 31 39  1  0
 29 40  1  0
 27 41  1  0
 25 42  1  0
 25 43  1  0
  7 44  1  0
 44 45  2  0
 45 46  1  0
 44 47  1  0
  6 48  1  0
  5 49  1  0
  3 50  1  0
  3 51  1  0
 45  4  1  0
 16 10  1  0
 35 26  1  0
 35 30  1  0
M  END
>  <cnnaffinities>  (36) 
[6.74707, 6.5493]

>  <score>  (36) 
6.74707

>  <index>  (36) 
35

>  <Smiles>  (36) 
N#CC(c1c(c(c(N(C(c2c(c(c(c(Cl)c2[H])[H])[H])[H])([H])[H])C(=O)C(c2c(nc(c3c(c(c(c(c23)[H])[H])[H])[H])[H])[H])([H])[H])c(c1[H])[H])[H])[H])([H])[H]

>  <h>  (36) 
<NA>

>  <Training>  (36) 
True

>  <Success>  (36) 
True

>  <enamine_searched>  (36) 
False

>  <enamine_id>  (36) 
nan

$$$$

     RDKit          3D

 59 64  0  0  0  0  0  0  0  0999 V2000
    6.7919   -2.3147   23.5823 C   0  0  0  0  0  0  0  0  0  0  0  0
    7.7838   -1.8379   22.5110 C   0  0  1  0  0  0  0  0  0  0  0  0
    7.1094   -1.7878   21.1210 C   0  0  0  0  0  0  0  0  0  0  0  0
    6.8791   -0.3826   20.8757 N   0  0  0  0  0  0  0  0  0  0  0  0
    6.1250    0.1056   19.7809 C   0  0  0  0  0  0  0  0  0  0  0  0
    6.4403   -0.2263   18.4871 C   0  0  0  0  0  0  0  0  0  0  0  0
    5.7690    0.2276   17.4014 N   0  0  0  0  0  0  0  0  0  0  0  0
    4.7471    1.0220   17.5995 C   0  0  0  0  0  0  0  0  0  0  0  0
    4.2925    1.4240   18.8861 C   0  0  0  0  0  0  0  0  0  0  0  0
    3.1675    2.2758   19.0582 C   0  0  0  0  0  0  0  0  0  0  0  0
    2.7416    2.6168   20.3122 C   0  0  0  0  0  0  0  0  0  0  0  0
    3.4172    2.1172   21.4481 C   0  0  0  0  0  0  0  0  0  0  0  0
    4.5048    1.2946   21.3071 C   0  0  0  0  0  0  0  0  0  0  0  0
    4.9884    0.9439   20.0174 C   0  0  0  0  0  0  0  0  0  0  0  0
    5.0167    0.8996   22.1782 H   0  0  0  0  0  0  0  0  0  0  0  0
    3.0672    2.3901   22.4401 H   0  0  0  0  0  0  0  0  0  0  0  0
    1.8876    3.2752   20.4417 H   0  0  0  0  0  0  0  0  0  0  0  0
    2.6619    2.6487   18.1705 H   0  0  0  0  0  0  0  0  0  0  0  0
    4.2225    1.3832   16.7140 H   0  0  0  0  0  0  0  0  0  0  0  0
    7.2878   -0.8719   18.2624 H   0  0  0  0  0  0  0  0  0  0  0  0
    7.6680    0.4480   21.6445 C   0  0  0  0  0  0  0  0  0  0  0  0
    7.7701    1.6389   21.4690 O   0  0  0  0  0  0  0  0  0  0  0  0
    8.4002   -0.4096   22.7142 C   0  0  1  0  0  0  0  0  0  0  0  0
    8.1745    0.1500   24.1422 C   0  0  0  0  0  0  0  0  0  0  0  0
    8.8344    1.4280   24.3746 N   0  0  0  0  0  0  0  0  0  0  0  0
    8.0868    2.5199   24.9962 C   0  0  0  0  0  0  0  0  0  0  0  0
    7.3647    3.4238   24.0205 C   0  0  0  0  0  0  0  0  0  0  0  0
    5.9790    3.4201   23.7220 C   0  0  0  0  0  0  0  0  0  0  0  0
    5.8472    4.3469   22.7189 C   0  0  0  0  0  0  0  0  0  0  0  0
    7.0677    4.8732   22.5040 N   0  0  0  0  0  0  0  0  0  0  0  0
    7.3520    5.7724   21.4095 C   0  0  0  0  0  0  0  0  0  0  0  0
    6.6529    6.6137   21.4395 H   0  0  0  0  0  0  0  0  0  0  0  0
    8.3773    6.1232   21.5119 H   0  0  0  0  0  0  0  0  0  0  0  0
    7.2284    5.2415   20.4528 H   0  0  0  0  0  0  0  0  0  0  0  0
    8.0039    4.3304   23.2928 N   0  0  0  0  0  0  0  0  0  0  0  0
    5.0401    4.6771   22.0763 H   0  0  0  0  0  0  0  0  0  0  0  0
    5.1981    2.8155   24.1705 H   0  0  0  0  0  0  0  0  0  0  0  0
    7.3457    2.0737   25.6718 H   0  0  0  0  0  0  0  0  0  0  0  0
    8.8016    3.0939   25.5931 H   0  0  0  0  0  0  0  0  0  0  0  0
   10.1026    1.6836   23.9287 C   0  0  0  0  0  0  0  0  0  0  0  0
   10.7149    2.7054   24.2182 O   0  0  0  0  0  0  0  0  0  0  0  0
   10.6958    0.6374   23.0450 C   0  0  0  0  0  0  0  0  0  0  0  0
   12.0573    0.7404   22.7649 C   0  0  0  0  0  0  0  0  0  0  0  0
   12.6506   -0.1404   21.8871 C   0  0  0  0  0  0  0  0  0  0  0  0
   11.8568   -1.1148   21.2937 C   0  0  0  0  0  0  0  0  0  0  0  0
   12.4133   -1.9037   20.3594 F   0  0  0  0  0  0  0  0  0  0  0  0
   10.5013   -1.2163   21.5282 C   0  0  0  0  0  0  0  0  0  0  0  0
    9.9048   -0.3576   22.4567 C   0  0  0  0  0  0  0  0  0  0  0  0
    9.9360   -1.9161   20.9233 H   0  0  0  0  0  0  0  0  0  0  0  0
   13.6906   -0.0570   21.5995 H   0  0  0  0  0  0  0  0  0  0  0  0
   12.6122    1.5481   23.2302 H   0  0  0  0  0  0  0  0  0  0  0  0
    8.5384   -0.6085   24.8530 H   0  0  0  0  0  0  0  0  0  0  0  0
    7.1072    0.3039   24.3056 H   0  0  0  0  0  0  0  0  0  0  0  0
    7.7644   -2.2078   20.3506 H   0  0  0  0  0  0  0  0  0  0  0  0
    6.1569   -2.3270   21.1030 H   0  0  0  0  0  0  0  0  0  0  0  0
    8.6037   -2.5637   22.5009 H   0  0  0  0  0  0  0  0  0  0  0  0
    6.4233   -3.3138   23.3278 H   0  0  0  0  0  0  0  0  0  0  0  0
    7.2588   -2.3859   24.5685 H   0  0  0  0  0  0  0  0  0  0  0  0
    5.9252   -1.6500   23.6600 H   0  0  0  0  0  0  0  0  0  0  0  0
  1  2  1  0
  2  3  1  0
  3  4  1  0
  4  5  1  0
  5  6  2  0
  6  7  1  0
  7  8  2  0
  8  9  1  0
  9 10  2  0
 10 11  1  0
 11 12  2  0
 12 13  1  0
 13 14  2  0
 13 15  1  0
 12 16  1  0
 11 17  1  0
 10 18  1  0
  8 19  1  0
  6 20  1  0
  4 21  1  0
 21 22  2  0
 21 23  1  0
 23 24  1  1
 24 25  1  0
 25 26  1  0
 26 27  1  0
 27 28  1  0
 28 29  2  0
 29 30  1  0
 30 31  1  0
 31 32  1  0
 31 33  1  0
 31 34  1  0
 30 35  1  0
 29 36  1  0
 28 37  1  0
 26 38  1  0
 26 39  1  0
 25 40  1  0
 40 41  2  0
 40 42  1  0
 42 43  2  0
 43 44  1  0
 44 45  2  0
 45 46  1  0
 45 47  1  0
 47 48  2  0
 47 49  1  0
 44 50  1  0
 43 51  1  0
 24 52  1  0
 24 53  1  0
  3 54  1  0
  3 55  1  0
  2 56  1  6
  1 57  1  0
  1 58  1  0
  1 59  1  0
 23  2  1  0
 35 27  2  0
 48 42  1  0
 14  5  1  0
 48 23  1  0
 14  9  1  0
M  END
>  <cnnaffinities>  (37) 
[6.12763, 6.26325]

>  <score>  (37) 
6.12763

>  <index>  (37) 
36

>  <Smiles>  (37) 
C([C@]1(C(N(c2c(nc(c3c(c(c(c(c23)[H])[H])[H])[H])[H])[H])C(=O)[C@]21C(N(C(c1c(c(n(C([H])([H])[H])n1)[H])[H])([H])[H])C(=O)c1c(c(c(F)c(c21)[H])[H])[H])([H])[H])([H])[H])[H])([H])([H])[H]

>  <h>  (37) 
<NA>

>  <Training>  (37) 
True

>  <Success>  (37) 
True

>  <enamine_searched>  (37) 
False

>  <enamine_id>  (37) 
nan

$$$$

     RDKit          3D

 48 51  0  0  0  0  0  0  0  0999 V2000
   13.4100   -1.3601   24.3454 N   0  0  0  0  0  0  0  0  0  0  0  0
   12.3496   -1.6031   23.9432 C   0  0  0  0  0  0  0  0  0  0  0  0
   11.0136   -1.8798   23.4646 C   0  0  0  0  0  0  0  0  0  0  0  0
    9.9207   -1.1652   23.9711 C   0  0  0  0  0  0  0  0  0  0  0  0
    8.6343   -1.4224   23.5147 C   0  0  0  0  0  0  0  0  0  0  0  0
    8.4328   -2.3902   22.5303 C   0  0  0  0  0  0  0  0  0  0  0  0
    7.1281   -2.7064   22.0474 N   0  0  0  0  0  0  0  0  0  0  0  0
    6.5458   -3.9983   22.4185 C   0  0  0  0  0  0  0  0  0  0  0  0
    5.9776   -4.0119   23.8317 C   0  0  0  0  0  0  0  0  0  0  0  0
    6.8134   -4.2283   24.9283 C   0  0  0  0  0  0  0  0  0  0  0  0
    6.3160   -4.1706   26.2273 C   0  0  0  0  0  0  0  0  0  0  0  0
    4.9689   -3.9061   26.4504 C   0  0  0  0  0  0  0  0  0  0  0  0
    4.1379   -3.7191   25.3534 C   0  0  0  0  0  0  0  0  0  0  0  0
    2.4493   -3.3759   25.6158 Cl  0  0  0  0  0  0  0  0  0  0  0  0
    4.6214   -3.7708   24.0527 C   0  0  0  0  0  0  0  0  0  0  0  0
    3.9480   -3.5913   23.2202 H   0  0  0  0  0  0  0  0  0  0  0  0
    4.5622   -3.8405   27.4560 H   0  0  0  0  0  0  0  0  0  0  0  0
    6.9861   -4.3139   27.0729 H   0  0  0  0  0  0  0  0  0  0  0  0
    7.8714   -4.4233   24.7639 H   0  0  0  0  0  0  0  0  0  0  0  0
    7.3395   -4.7504   22.3350 H   0  0  0  0  0  0  0  0  0  0  0  0
    5.7550   -4.2196   21.6952 H   0  0  0  0  0  0  0  0  0  0  0  0
    6.2813   -1.7905   21.4649 C   0  0  0  0  0  0  0  0  0  0  0  0
    5.0806   -2.0080   21.3947 O   0  0  0  0  0  0  0  0  0  0  0  0
    6.9244   -0.5194   20.8855 C   0  0  0  0  0  0  0  0  0  0  0  0
    6.1155    0.0810   19.7673 C   0  0  0  0  0  0  0  0  0  0  0  0
    6.4245   -0.2138   18.4669 C   0  0  0  0  0  0  0  0  0  0  0  0
    5.7577    0.2440   17.3774 N   0  0  0  0  0  0  0  0  0  0  0  0
    4.7333    1.0292   17.5858 C   0  0  0  0  0  0  0  0  0  0  0  0
    4.2846    1.4182   18.8750 C   0  0  0  0  0  0  0  0  0  0  0  0
    3.1651    2.2719   19.0468 C   0  0  0  0  0  0  0  0  0  0  0  0
    2.7491    2.6239   20.2998 C   0  0  0  0  0  0  0  0  0  0  0  0
    3.4384    2.1340   21.4327 C   0  0  0  0  0  0  0  0  0  0  0  0
    4.5241    1.3050   21.2909 C   0  0  0  0  0  0  0  0  0  0  0  0
    4.9863    0.9273   20.0019 C   0  0  0  0  0  0  0  0  0  0  0  0
    5.0289    0.9134   22.1686 H   0  0  0  0  0  0  0  0  0  0  0  0
    3.0988    2.4156   22.4247 H   0  0  0  0  0  0  0  0  0  0  0  0
    1.8930    3.2796   20.4290 H   0  0  0  0  0  0  0  0  0  0  0  0
    2.6637    2.6400   18.1552 H   0  0  0  0  0  0  0  0  0  0  0  0
    4.2068    1.3947   16.7032 H   0  0  0  0  0  0  0  0  0  0  0  0
    7.2682   -0.8625   18.2326 H   0  0  0  0  0  0  0  0  0  0  0  0
    7.9319   -0.7865   20.5445 H   0  0  0  0  0  0  0  0  0  0  0  0
    7.0755    0.2055   21.6989 H   0  0  0  0  0  0  0  0  0  0  0  0
    9.5175   -3.0826   22.0039 C   0  0  0  0  0  0  0  0  0  0  0  0
   10.8040   -2.8474   22.4755 C   0  0  0  0  0  0  0  0  0  0  0  0
   11.6528   -3.4102   22.0950 H   0  0  0  0  0  0  0  0  0  0  0  0
    9.3037   -3.7809   21.1994 H   0  0  0  0  0  0  0  0  0  0  0  0
    7.7787   -0.8842   23.9202 H   0  0  0  0  0  0  0  0  0  0  0  0
   10.0917   -0.3991   24.7167 H   0  0  0  0  0  0  0  0  0  0  0  0
  1  2  3  0
  2  3  1  0
  3  4  2  0
  4  5  1  0
  5  6  2  0
  6  7  1  0
  7  8  1  0
  8  9  1  0
  9 10  2  0
 10 11  1  0
 11 12  2  0
 12 13  1  0
 13 14  1  0
 13 15  2  0
 15 16  1  0
 12 17  1  0
 11 18  1  0
 10 19  1  0
  8 20  1  0
  8 21  1  0
  7 22  1  0
 22 23  2  0
 22 24  1  0
 24 25  1  0
 25 26  2  0
 26 27  1  0
 27 28  2  0
 28 29  1  0
 29 30  2  0
 30 31  1  0
 31 32  2  0
 32 33  1  0
 33 34  2  0
 33 35  1  0
 32 36  1  0
 31 37  1  0
 30 38  1  0
 28 39  1  0
 26 40  1  0
 24 41  1  0
 24 42  1  0
  6 43  1  0
 43 44  2  0
 44 45  1  0
 43 46  1  0
  5 47  1  0
  4 48  1  0
 44  3  1  0
 15  9  1  0
 34 25  1  0
 34 29  1  0
M  END
>  <cnnaffinities>  (38) 
[6.5168]

>  <score>  (38) 
6.5168

>  <index>  (38) 
37

>  <Smiles>  (38) 
N#Cc1c(c(c(N(C(c2c(c(c(c(Cl)c2[H])[H])[H])[H])([H])[H])C(=O)C(c2c(nc(c3c(c(c(c(c23)[H])[H])[H])[H])[H])[H])([H])[H])c(c1[H])[H])[H])[H]

>  <h>  (38) 
<NA>

>  <Training>  (38) 
True

>  <Success>  (38) 
True

>  <enamine_searched>  (38) 
False

>  <enamine_id>  (38) 
nan

$$$$

     RDKit          3D

 72 77  0  0  0  0  0  0  0  0999 V2000
    4.8869   -7.5679   20.1331 C   0  0  0  0  0  0  0  0  0  0  0  0
    5.3941   -6.2692   19.6227 N   0  0  0  0  0  4  0  0  0  0  0  0
    5.5153   -5.2122   20.6782 C   0  0  0  0  0  0  0  0  0  0  0  0
    6.6947   -5.4705   21.6321 C   0  0  0  0  0  0  0  0  0  0  0  0
    6.8851   -4.3696   22.5593 N   0  0  0  0  0  0  0  0  0  0  0  0
    7.9180   -3.3790   22.3441 C   0  0  0  0  0  0  0  0  0  0  0  0
    7.4284   -1.9393   22.6668 C   0  0  2  0  0  0  0  0  0  0  0  0
    6.3044   -1.5420   21.6665 C   0  0  0  0  0  0  0  0  0  0  0  0
    5.1885   -2.0214   21.6063 O   0  0  0  0  0  0  0  0  0  0  0  0
    6.7807   -0.5542   20.8262 N   0  0  0  0  0  0  0  0  0  0  0  0
    6.0417    0.0155   19.7632 C   0  0  0  0  0  0  0  0  0  0  0  0
    6.4208   -0.2148   18.4646 C   0  0  0  0  0  0  0  0  0  0  0  0
    5.7790    0.2737   17.3772 N   0  0  0  0  0  0  0  0  0  0  0  0
    4.7416    1.0460   17.5790 C   0  0  0  0  0  0  0  0  0  0  0  0
    4.2723    1.4155   18.8712 C   0  0  0  0  0  0  0  0  0  0  0  0
    3.1724    2.2984   19.0365 C   0  0  0  0  0  0  0  0  0  0  0  0
    2.7797    2.6826   20.2885 C   0  0  0  0  0  0  0  0  0  0  0  0
    3.4648    2.2050   21.4276 C   0  0  0  0  0  0  0  0  0  0  0  0
    4.5221    1.3373   21.2957 C   0  0  0  0  0  0  0  0  0  0  0  0
    4.9442    0.9075   20.0063 C   0  0  0  0  0  0  0  0  0  0  0  0
    5.0504    0.9763   22.1733 H   0  0  0  0  0  0  0  0  0  0  0  0
    3.1509    2.5321   22.4144 H   0  0  0  0  0  0  0  0  0  0  0  0
    1.9463    3.3688   20.4146 H   0  0  0  0  0  0  0  0  0  0  0  0
    2.6684    2.6713   18.1485 H   0  0  0  0  0  0  0  0  0  0  0  0
    4.2241    1.4305   16.6986 H   0  0  0  0  0  0  0  0  0  0  0  0
    7.2821   -0.8488   18.2572 H   0  0  0  0  0  0  0  0  0  0  0  0
    8.2125   -0.3785   20.9291 C   0  0  0  0  0  0  0  0  0  0  0  0
    8.5302   -0.8906   22.3436 C   0  0  2  0  0  0  0  0  0  0  0  0
    9.9901   -1.3443   22.4234 C   0  0  0  0  0  0  0  0  0  0  0  0
   10.8486   -0.2390   22.3661 O   0  0  0  0  0  0  0  0  0  0  0  0
   11.3247    0.0425   23.6510 C   0  0  0  0  0  0  0  0  0  0  0  0
   11.9801    1.3509   23.4673 C   0  0  0  0  0  0  0  0  0  0  0  0
   11.0055    2.3213   23.2980 C   0  0  0  0  0  0  0  0  0  0  0  0
   10.7967    4.0005   23.9583 S   0  0  0  0  0  0  0  0  0  0  0  0
   12.0615    4.6323   24.3118 O   0  0  0  0  0  0  0  0  0  0  0  0
    9.6268    4.0342   24.8364 O   0  0  0  0  0  0  0  0  0  0  0  0
   12.1355    1.3436   23.7784 C   0  0  0  0  0  0  0  0  0  0  0  0
   13.1750    1.1386   24.5514 H   0  0  0  0  0  0  0  0  0  0  0  0
   12.0751    1.4514   24.9927 H   0  0  0  0  0  0  0  0  0  0  0  0
   11.1166    2.3325   22.2171 H   0  0  0  0  0  0  0  0  0  0  0  0
   10.0124    1.8941   23.3889 H   0  0  0  0  0  0  0  0  0  0  0  0
   13.0815    1.6370   22.6849 H   0  0  0  0  0  0  0  0  0  0  0  0
   10.4597    0.1594   24.3143 H   0  0  0  0  0  0  0  0  0  0  0  0
   11.9282   -0.8127   24.0008 H   0  0  0  0  0  0  0  0  0  0  0  0
   10.2188   -2.0184   21.5832 H   0  0  0  0  0  0  0  0  0  0  0  0
   10.1989   -1.8843   23.3566 H   0  0  0  0  0  0  0  0  0  0  0  0
    8.4117   -0.0485   23.0312 H   0  0  0  0  0  0  0  0  0  0  0  0
    8.4818    0.6724   20.7903 H   0  0  0  0  0  0  0  0  0  0  0  0
    8.7579   -0.9697   20.1779 H   0  0  0  0  0  0  0  0  0  0  0  0
    6.9088   -1.9762   24.1023 C   0  0  0  0  0  0  0  0  0  0  0  0
    6.9413   -0.8757   24.9705 C   0  0  0  0  0  0  0  0  0  0  0  0
    6.4658   -1.0005   26.2668 C   0  0  0  0  0  0  0  0  0  0  0  0
    6.4577    0.3824   27.3286 Cl  0  0  0  0  0  0  0  0  0  0  0  0
    5.9473   -2.1990   26.7498 C   0  0  0  0  0  0  0  0  0  0  0  0
    5.8341   -3.2626   25.8771 C   0  0  0  0  0  0  0  0  0  0  0  0
    6.2898   -3.1496   24.5652 C   0  0  0  0  0  0  0  0  0  0  0  0
    6.0504   -4.2961   23.6309 C   0  0  0  0  0  0  0  0  0  0  0  0
    5.1464   -5.1060   23.8126 O   0  0  0  0  0  0  0  0  0  0  0  0
    5.3783   -4.1950   26.1928 H   0  0  0  0  0  0  0  0  0  0  0  0
    5.6173   -2.2724   27.7815 H   0  0  0  0  0  0  0  0  0  0  0  0
    7.2979    0.0929   24.6442 H   0  0  0  0  0  0  0  0  0  0  0  0
    8.7864   -3.5996   22.9786 H   0  0  0  0  0  0  0  0  0  0  0  0
    8.2466   -3.4206   21.3062 H   0  0  0  0  0  0  0  0  0  0  0  0
    7.6330   -5.6087   21.0783 H   0  0  0  0  0  0  0  0  0  0  0  0
    6.5232   -6.3715   22.2308 H   0  0  0  0  0  0  0  0  0  0  0  0
    4.5912   -5.1964   21.2568 H   0  0  0  0  0  0  0  0  0  0  0  0
    5.6166   -4.2488   20.1869 H   0  0  0  0  0  0  0  0  0  0  0  0
    6.3547   -6.4098   19.2334 H   0  0  0  0  0  0  0  0  0  0  0  0
    4.7854   -5.9616   18.8453 H   0  0  0  0  0  0  0  0  0  0  0  0
    4.1528   -7.4118   20.9258 H   0  0  0  0  0  0  0  0  0  0  0  0
    4.4290   -8.1249   19.3205 H   0  0  0  0  0  0  0  0  0  0  0  0
    5.6856   -8.1736   20.5576 H   0  0  0  0  0  0  0  0  0  0  0  0
  1  2  1  0
  2  3  1  0
  3  4  1  0
  4  5  1  0
  5  6  1  0
  7  6  1  6
  7  8  1  0
  8  9  2  0
  8 10  1  0
 10 11  1  0
 11 12  2  0
 12 13  1  0
 13 14  2  0
 14 15  1  0
 15 16  2  0
 16 17  1  0
 17 18  2  0
 18 19  1  0
 19 20  2  0
 19 21  1  0
 18 22  1  0
 17 23  1  0
 16 24  1  0
 14 25  1  0
 12 26  1  0
 10 27  1  0
 27 28  1  0
 28 29  1  0
 29 30  1  0
 30 31  1  0
 31 32  1  0
 32 33  1  0
 33 34  1  0
 34 35  2  0
 34 36  2  0
 34 37  1  0
 37 38  1  0
 37 39  1  0
 33 40  1  0
 33 41  1  0
 32 42  1  0
 31 43  1  0
 31 44  1  0
 29 45  1  0
 29 46  1  0
 28 47  1  1
 27 48  1  0
 27 49  1  0
  7 50  1  0
 50 51  2  0
 51 52  1  0
 52 53  1  0
 52 54  2  0
 54 55  1  0
 55 56  2  0
 56 57  1  0
 57 58  2  0
 55 59  1  0
 54 60  1  0
 51 61  1  0
  6 62  1  0
  6 63  1  0
  4 64  1  0
  4 65  1  0
  3 66  1  0
  3 67  1  0
  2 68  1  0
  2 69  1  0
  1 70  1  0
  1 71  1  0
  1 72  1  0
 57  5  1  0
 28  7  1  0
 37 32  1  0
 56 50  1  0
 20 11  1  0
 20 15  1  0
M  CHG  1   2   1
M  END
>  <cnnaffinities>  (39) 
[6.2713]

>  <score>  (39) 
6.2713

>  <index>  (39) 
38

>  <Smiles>  (39) 
C([N+](C(C(N1C([C@@]2(C(=O)N(c3c(nc(c4c(c(c(c(c34)[H])[H])[H])[H])[H])[H])C([C@@]2(C(OC(C2(C(S(=O)(=O)C2([H])[H])([H])[H])[H])([H])[H])([H])[H])[H])([H])[H])c2c(c(Cl)c(c(c2C1=O)[H])[H])[H])([H])[H])([H])[H])([H])[H])([H])[H])([H])([H])[H]

>  <h>  (39) 
<NA>

>  <Training>  (39) 
True

>  <Success>  (39) 
True

>  <enamine_searched>  (39) 
False

>  <enamine_id>  (39) 
nan

$$$$

     RDKit          3D

 60 64  0  0  0  0  0  0  0  0999 V2000
   11.4887   -0.5166   23.7663 C   0  0  0  0  0  0  0  0  0  0  0  0
   10.4967   -1.6508   23.5576 C   0  0  0  0  0  0  0  0  0  0  0  0
    9.8558   -1.5030   22.3010 O   0  0  0  0  0  0  0  0  0  0  0  0
    8.5913   -0.8851   22.3296 C   0  0  1  0  0  0  0  0  0  0  0  0
    8.3004   -0.3631   20.9296 C   0  0  0  0  0  0  0  0  0  0  0  0
    6.8583   -0.4541   20.8374 N   0  0  0  0  0  0  0  0  0  0  0  0
    6.1108    0.0850   19.7748 C   0  0  0  0  0  0  0  0  0  0  0  0
    6.4581   -0.2033   18.4788 C   0  0  0  0  0  0  0  0  0  0  0  0
    5.7900    0.2465   17.3916 N   0  0  0  0  0  0  0  0  0  0  0  0
    4.7527    1.0186   17.5994 C   0  0  0  0  0  0  0  0  0  0  0  0
    4.3028    1.4122   18.8934 C   0  0  0  0  0  0  0  0  0  0  0  0
    3.1869    2.2739   19.0539 C   0  0  0  0  0  0  0  0  0  0  0  0
    2.7826    2.6613   20.2997 C   0  0  0  0  0  0  0  0  0  0  0  0
    3.4760    2.2123   21.4443 C   0  0  0  0  0  0  0  0  0  0  0  0
    4.5597    1.3778   21.3179 C   0  0  0  0  0  0  0  0  0  0  0  0
    4.9944    0.9442   20.0291 C   0  0  0  0  0  0  0  0  0  0  0  0
    5.0830    1.0487   22.2106 H   0  0  0  0  0  0  0  0  0  0  0  0
    3.1531    2.5404   22.4273 H   0  0  0  0  0  0  0  0  0  0  0  0
    1.9341    3.3278   20.4171 H   0  0  0  0  0  0  0  0  0  0  0  0
    2.6780    2.6246   18.1610 H   0  0  0  0  0  0  0  0  0  0  0  0
    4.2138    1.3912   16.7268 H   0  0  0  0  0  0  0  0  0  0  0  0
    7.3023   -0.8643   18.2885 H   0  0  0  0  0  0  0  0  0  0  0  0
    6.3250   -1.3989   21.6841 C   0  0  0  0  0  0  0  0  0  0  0  0
    5.1950   -1.8365   21.6206 O   0  0  0  0  0  0  0  0  0  0  0  0
    7.4159   -1.8281   22.6889 C   0  0  1  0  0  0  0  0  0  0  0  0
    7.7943   -3.3120   22.4151 C   0  0  0  0  0  0  0  0  0  0  0  0
    6.7476   -4.2308   22.8036 N   0  0  0  0  0  0  0  0  0  0  0  0
    6.2423   -5.2080   21.8562 C   0  0  0  0  0  0  0  0  0  0  0  0
    7.1922   -6.3987   21.7288 C   0  0  0  0  0  0  0  0  0  0  0  0
    8.0922   -6.4607   20.9043 O   0  0  0  0  0  0  0  0  0  0  0  0
    6.9468   -7.3562   22.6587 N   0  0  0  0  0  0  0  0  0  0  0  0
    7.7598   -8.5439   22.7549 C   0  0  0  0  0  0  0  0  0  0  0  0
    8.6201   -8.4191   23.4303 H   0  0  0  0  0  0  0  0  0  0  0  0
    8.1369   -8.7347   21.7661 H   0  0  0  0  0  0  0  0  0  0  0  0
    7.1456   -9.4082   23.0236 H   0  0  0  0  0  0  0  0  0  0  0  0
    6.2057   -7.2135   23.3341 H   0  0  0  0  0  0  0  0  0  0  0  0
    5.2882   -5.5610   22.2607 H   0  0  0  0  0  0  0  0  0  0  0  0
    6.1009   -4.7245   20.8807 H   0  0  0  0  0  0  0  0  0  0  0  0
    6.1058   -4.0959   23.9946 C   0  0  0  0  0  0  0  0  0  0  0  0
    5.2950   -4.9249   24.3867 O   0  0  0  0  0  0  0  0  0  0  0  0
    6.3910   -2.8414   24.7492 C   0  0  0  0  0  0  0  0  0  0  0  0
    5.9794   -2.7886   26.0739 C   0  0  0  0  0  0  0  0  0  0  0  0
    5.9843   -1.5929   26.7609 C   0  0  0  0  0  0  0  0  0  0  0  0
    6.4003   -0.4430   26.0942 C   0  0  0  0  0  0  0  0  0  0  0  0
    6.2718    1.0942   26.9016 Cl  0  0  0  0  0  0  0  0  0  0  0  0
    6.8754   -0.4885   24.7953 C   0  0  0  0  0  0  0  0  0  0  0  0
    6.9149   -1.7135   24.1136 C   0  0  0  0  0  0  0  0  0  0  0  0
    7.1673    0.4360   24.3090 H   0  0  0  0  0  0  0  0  0  0  0  0
    5.6151   -1.5212   27.7761 H   0  0  0  0  0  0  0  0  0  0  0  0
    5.6251   -3.7056   26.5228 H   0  0  0  0  0  0  0  0  0  0  0  0
    8.7304   -3.5494   22.9316 H   0  0  0  0  0  0  0  0  0  0  0  0
    7.9726   -3.4441   21.3544 H   0  0  0  0  0  0  0  0  0  0  0  0
    8.6268    0.6701   20.7974 H   0  0  0  0  0  0  0  0  0  0  0  0
    8.8268   -1.0031   20.2135 H   0  0  0  0  0  0  0  0  0  0  0  0
    8.5896   -0.0496   23.0370 H   0  0  0  0  0  0  0  0  0  0  0  0
    9.7536   -1.7040   24.3745 H   0  0  0  0  0  0  0  0  0  0  0  0
   11.0217   -2.6145   23.5251 H   0  0  0  0  0  0  0  0  0  0  0  0
   12.2254   -0.5251   22.9564 H   0  0  0  0  0  0  0  0  0  0  0  0
   12.0132   -0.6255   24.7208 H   0  0  0  0  0  0  0  0  0  0  0  0
   10.9771    0.4520   23.7547 H   0  0  0  0  0  0  0  0  0  0  0  0
  1  2  1  0
  2  3  1  0
  3  4  1  0
  4  5  1  0
  5  6  1  0
  6  7  1  0
  7  8  2  0
  8  9  1  0
  9 10  2  0
 10 11  1  0
 11 12  2  0
 12 13  1  0
 13 14  2  0
 14 15  1  0
 15 16  2  0
 15 17  1  0
 14 18  1  0
 13 19  1  0
 12 20  1  0
 10 21  1  0
  8 22  1  0
  6 23  1  0
 23 24  2  0
 23 25  1  0
 25 26  1  6
 26 27  1  0
 27 28  1  0
 28 29  1  0
 29 30  2  0
 29 31  1  0
 31 32  1  0
 32 33  1  0
 32 34  1  0
 32 35  1  0
 31 36  1  0
 28 37  1  0
 28 38  1  0
 27 39  1  0
 39 40  2  0
 39 41  1  0
 41 42  2  0
 42 43  1  0
 43 44  2  0
 44 45  1  0
 44 46  1  0
 46 47  2  0
 46 48  1  0
 43 49  1  0
 42 50  1  0
 26 51  1  0
 26 52  1  0
  5 53  1  0
  5 54  1  0
  4 55  1  1
  2 56  1  0
  2 57  1  0
  1 58  1  0
  1 59  1  0
  1 60  1  0
 25  4  1  0
 47 41  1  0
 16  7  1  0
 47 25  1  0
 16 11  1  0
M  END
>  <cnnaffinities>  (40) 
[6.51746]

>  <score>  (40) 
6.51746

>  <index>  (40) 
39

>  <Smiles>  (40) 
C(C(O[C@]1(C(N(c2c(nc(c3c(c(c(c(c23)[H])[H])[H])[H])[H])[H])C(=O)[C@]21C(N(C(C(=O)N(C([H])([H])[H])[H])([H])[H])C(=O)c1c(c(c(Cl)c(c21)[H])[H])[H])([H])[H])([H])[H])[H])([H])[H])([H])([H])[H]

>  <h>  (40) 
<NA>

>  <Training>  (40) 
True

>  <Success>  (40) 
True

>  <enamine_searched>  (40) 
False

>  <enamine_id>  (40) 
nan

$$$$

     RDKit          3D

 57 61  0  0  0  0  0  0  0  0999 V2000
    7.7490   -8.4824   22.8237 C   0  0  0  0  0  0  0  0  0  0  0  0
    6.8705   -7.3571   22.5950 N   0  0  0  0  0  0  0  0  0  0  0  0
    7.1769   -6.4150   21.6698 C   0  0  0  0  0  0  0  0  0  0  0  0
    8.1372   -6.5000   20.9254 O   0  0  0  0  0  0  0  0  0  0  0  0
    6.2402   -5.2094   21.6713 C   0  0  0  0  0  0  0  0  0  0  0  0
    6.7008   -4.2249   22.6350 N   0  0  0  0  0  0  0  0  0  0  0  0
    7.8103   -3.3321   22.3405 C   0  0  0  0  0  0  0  0  0  0  0  0
    7.4441   -1.8556   22.6707 C   0  0  2  0  0  0  0  0  0  0  0  0
    6.3414   -1.4037   21.6868 C   0  0  0  0  0  0  0  0  0  0  0  0
    5.2143   -1.8495   21.6222 O   0  0  0  0  0  0  0  0  0  0  0  0
    6.8616   -0.4325   20.8539 N   0  0  0  0  0  0  0  0  0  0  0  0
    6.1161    0.0982   19.7804 C   0  0  0  0  0  0  0  0  0  0  0  0
    6.4556   -0.2003   18.4858 C   0  0  0  0  0  0  0  0  0  0  0  0
    5.7878    0.2450   17.3958 N   0  0  0  0  0  0  0  0  0  0  0  0
    4.7542    1.0231   17.5989 C   0  0  0  0  0  0  0  0  0  0  0  0
    4.3022    1.4188   18.8883 C   0  0  0  0  0  0  0  0  0  0  0  0
    3.1853    2.2773   19.0485 C   0  0  0  0  0  0  0  0  0  0  0  0
    2.7838    2.6597   20.2973 C   0  0  0  0  0  0  0  0  0  0  0  0
    3.4793    2.2101   21.4401 C   0  0  0  0  0  0  0  0  0  0  0  0
    4.5625    1.3793   21.3127 C   0  0  0  0  0  0  0  0  0  0  0  0
    4.9966    0.9540   20.0249 C   0  0  0  0  0  0  0  0  0  0  0  0
    5.0873    1.0404   22.1998 H   0  0  0  0  0  0  0  0  0  0  0  0
    3.1549    2.5364   22.4231 H   0  0  0  0  0  0  0  0  0  0  0  0
    1.9376    3.3280   20.4170 H   0  0  0  0  0  0  0  0  0  0  0  0
    2.6716    2.6295   18.1585 H   0  0  0  0  0  0  0  0  0  0  0  0
    4.2155    1.3882   16.7237 H   0  0  0  0  0  0  0  0  0  0  0  0
    7.3001   -0.8603   18.2921 H   0  0  0  0  0  0  0  0  0  0  0  0
    8.3088   -0.3386   20.9383 C   0  0  0  0  0  0  0  0  0  0  0  0
    8.6091   -0.8826   22.3450 C   0  0  2  0  0  0  0  0  0  0  0  0
   10.0207   -1.4887   22.4554 C   0  0  0  0  0  0  0  0  0  0  0  0
   11.0503   -0.4531   22.3080 C   0  0  0  0  0  0  0  0  0  0  0  0
   11.8334    0.3914   22.2050 N   0  0  0  0  0  0  0  0  0  0  0  0
   10.1822   -2.2475   21.6803 H   0  0  0  0  0  0  0  0  0  0  0  0
   10.1567   -1.9716   23.4293 H   0  0  0  0  0  0  0  0  0  0  0  0
    8.5679   -0.0381   23.0382 H   0  0  0  0  0  0  0  0  0  0  0  0
    8.8131   -0.9384   20.1635 H   0  0  0  0  0  0  0  0  0  0  0  0
    8.6382    0.6979   20.8214 H   0  0  0  0  0  0  0  0  0  0  0  0
    6.9214   -1.8185   24.0983 C   0  0  0  0  0  0  0  0  0  0  0  0
    6.8900   -0.6363   24.8468 C   0  0  0  0  0  0  0  0  0  0  0  0
    6.4079   -0.6617   26.1444 C   0  0  0  0  0  0  0  0  0  0  0  0
    6.2714    0.8269   27.0278 Cl  0  0  0  0  0  0  0  0  0  0  0  0
    5.9827   -1.8370   26.7623 C   0  0  0  0  0  0  0  0  0  0  0  0
    5.9510   -2.9866   26.0023 C   0  0  0  0  0  0  0  0  0  0  0  0
    6.3400   -2.9613   24.6652 C   0  0  0  0  0  0  0  0  0  0  0  0
    6.0192   -4.1415   23.8087 C   0  0  0  0  0  0  0  0  0  0  0  0
    5.1623   -4.9682   24.1177 O   0  0  0  0  0  0  0  0  0  0  0  0
    5.5954   -3.9176   26.4247 H   0  0  0  0  0  0  0  0  0  0  0  0
    5.6342   -1.8282   27.7911 H   0  0  0  0  0  0  0  0  0  0  0  0
    7.2109    0.3117   24.4264 H   0  0  0  0  0  0  0  0  0  0  0  0
    8.7101   -3.6244   22.9042 H   0  0  0  0  0  0  0  0  0  0  0  0
    8.0338   -3.4282   21.2817 H   0  0  0  0  0  0  0  0  0  0  0  0
    5.2428   -5.5269   21.9813 H   0  0  0  0  0  0  0  0  0  0  0  0
    6.1504   -4.7465   20.6823 H   0  0  0  0  0  0  0  0  0  0  0  0
    6.0833   -7.2062   23.2084 H   0  0  0  0  0  0  0  0  0  0  0  0
    7.1519   -9.3018   23.2302 H   0  0  0  0  0  0  0  0  0  0  0  0
    8.1320   -8.7913   21.8591 H   0  0  0  0  0  0  0  0  0  0  0  0
    8.5938   -8.2265   23.4874 H   0  0  0  0  0  0  0  0  0  0  0  0
  1  2  1  0
  2  3  1  0
  3  4  2  0
  3  5  1  0
  5  6  1  0
  6  7  1  0
  8  7  1  6
  8  9  1  0
  9 10  2  0
  9 11  1  0
 11 12  1  0
 12 13  2  0
 13 14  1  0
 14 15  2  0
 15 16  1  0
 16 17  2  0
 17 18  1  0
 18 19  2  0
 19 20  1  0
 20 21  2  0
 20 22  1  0
 19 23  1  0
 18 24  1  0
 17 25  1  0
 15 26  1  0
 13 27  1  0
 11 28  1  0
 28 29  1  0
 29 30  1  0
 30 31  1  0
 31 32  3  0
 30 33  1  0
 30 34  1  0
 29 35  1  1
 28 36  1  0
 28 37  1  0
  8 38  1  0
 38 39  2  0
 39 40  1  0
 40 41  1  0
 40 42  2  0
 42 43  1  0
 43 44  2  0
 44 45  1  0
 45 46  2  0
 43 47  1  0
 42 48  1  0
 39 49  1  0
  7 50  1  0
  7 51  1  0
  5 52  1  0
  5 53  1  0
  2 54  1  0
  1 55  1  0
  1 56  1  0
  1 57  1  0
 45  6  1  0
 29  8  1  0
 44 38  1  0
 21 12  1  0
 21 16  1  0
M  END
>  <cnnaffinities>  (41) 
[6.99709, 6.33354]

>  <score>  (41) 
6.99709

>  <index>  (41) 
40

>  <Smiles>  (41) 
C(N(C(=O)C(N1C([C@@]2(C(=O)N(c3c(nc(c4c(c(c(c(c34)[H])[H])[H])[H])[H])[H])C([C@@]2(C(C#N)([H])[H])[H])([H])[H])c2c(c(Cl)c(c(c2C1=O)[H])[H])[H])([H])[H])([H])[H])[H])([H])([H])[H]

>  <h>  (41) 
<NA>

>  <Training>  (41) 
True

>  <Success>  (41) 
True

>  <enamine_searched>  (41) 
False

>  <enamine_id>  (41) 
nan

$$$$

     RDKit          3D

 68 73  0  0  0  0  0  0  0  0999 V2000
    7.1283   -2.4699   23.4495 C   0  0  0  0  0  0  0  0  0  0  0  0
    8.0076   -1.7885   22.3942 C   0  0  1  0  0  0  0  0  0  0  0  0
    7.3036   -1.7223   21.0207 C   0  0  0  0  0  0  0  0  0  0  0  0
    6.9423   -0.3307   20.8569 N   0  0  0  0  0  0  0  0  0  0  0  0
    6.1481    0.1282   19.7844 C   0  0  0  0  0  0  0  0  0  0  0  0
    6.4447   -0.2268   18.4917 C   0  0  0  0  0  0  0  0  0  0  0  0
    5.7711    0.2184   17.4060 N   0  0  0  0  0  0  0  0  0  0  0  0
    4.7549    1.0188   17.6080 C   0  0  0  0  0  0  0  0  0  0  0  0
    4.3090    1.4235   18.8972 C   0  0  0  0  0  0  0  0  0  0  0  0
    3.1873    2.2798   19.0611 C   0  0  0  0  0  0  0  0  0  0  0  0
    2.7549    2.6271   20.3119 C   0  0  0  0  0  0  0  0  0  0  0  0
    3.4221    2.1315   21.4558 C   0  0  0  0  0  0  0  0  0  0  0  0
    4.5142    1.3111   21.3226 C   0  0  0  0  0  0  0  0  0  0  0  0
    5.0056    0.9532   20.0318 C   0  0  0  0  0  0  0  0  0  0  0  0
    5.0120    0.9302   22.2090 H   0  0  0  0  0  0  0  0  0  0  0  0
    3.0749    2.4142   22.4473 H   0  0  0  0  0  0  0  0  0  0  0  0
    1.9020    3.2884   20.4370 H   0  0  0  0  0  0  0  0  0  0  0  0
    2.6882    2.6521   18.1705 H   0  0  0  0  0  0  0  0  0  0  0  0
    4.2220    1.3798   16.7281 H   0  0  0  0  0  0  0  0  0  0  0  0
    7.2928   -0.8784   18.2844 H   0  0  0  0  0  0  0  0  0  0  0  0
    7.6423    0.5158   21.6829 C   0  0  0  0  0  0  0  0  0  0  0  0
    7.6265    1.7314   21.6130 O   0  0  0  0  0  0  0  0  0  0  0  0
    8.4468   -0.3240   22.6971 C   0  0  1  0  0  0  0  0  0  0  0  0
    8.1288    0.1263   24.1367 C   0  0  0  0  0  0  0  0  0  0  0  0
    8.6148    1.4604   24.4210 N   0  0  0  0  0  0  0  0  0  0  0  0
    7.7891    2.3257   25.2404 C   0  0  0  0  0  0  0  0  0  0  0  0
    6.7581    3.0967   24.4256 C   0  0  0  0  0  0  0  0  0  0  0  0
    7.3749    4.1735   23.5870 N   0  0  0  0  0  4  0  0  0  0  0  0
    7.9129    5.3008   24.4551 C   0  0  0  0  0  0  0  0  0  0  0  0
    8.0224    6.6257   23.7121 C   0  0  0  0  0  0  0  0  0  0  0  0
    6.4032    7.2600   23.2611 S   0  0  0  0  0  0  0  0  0  0  0  0
    5.8191    7.8954   24.4400 O   0  0  0  0  0  0  0  0  0  0  0  0
    6.5476    8.0173   22.0205 O   0  0  0  0  0  0  0  0  0  0  0  0
    5.4860    5.7516   22.9265 C   0  0  0  0  0  0  0  0  0  0  0  0
    6.4338    4.6381   22.4884 C   0  0  0  0  0  0  0  0  0  0  0  0
    5.8589    3.7732   22.1490 H   0  0  0  0  0  0  0  0  0  0  0  0
    7.0490    4.9681   21.6478 H   0  0  0  0  0  0  0  0  0  0  0  0
    4.7727    6.0234   22.1438 H   0  0  0  0  0  0  0  0  0  0  0  0
    4.9433    5.5042   23.8458 H   0  0  0  0  0  0  0  0  0  0  0  0
    8.6036    6.5440   22.7866 H   0  0  0  0  0  0  0  0  0  0  0  0
    8.4468    7.4113   24.3430 H   0  0  0  0  0  0  0  0  0  0  0  0
    7.2596    5.4162   25.3273 H   0  0  0  0  0  0  0  0  0  0  0  0
    8.9064    5.0068   24.7947 H   0  0  0  0  0  0  0  0  0  0  0  0
    8.1829    3.7567   23.0948 H   0  0  0  0  0  0  0  0  0  0  0  0
    6.2336    2.4095   23.7527 H   0  0  0  0  0  0  0  0  0  0  0  0
    6.0199    3.5360   25.1059 H   0  0  0  0  0  0  0  0  0  0  0  0
    8.4485    2.9996   25.7912 H   0  0  0  0  0  0  0  0  0  0  0  0
    7.2731    1.6889   25.9641 H   0  0  0  0  0  0  0  0  0  0  0  0
    9.8090    1.9187   23.9658 C   0  0  0  0  0  0  0  0  0  0  0  0
   10.1967    3.0631   24.1873 O   0  0  0  0  0  0  0  0  0  0  0  0
   10.5998    0.9581   23.1314 C   0  0  0  0  0  0  0  0  0  0  0  0
   11.9517    1.2144   22.8979 C   0  0  0  0  0  0  0  0  0  0  0  0
   12.6923    0.3693   22.0843 C   0  0  0  0  0  0  0  0  0  0  0  0
   12.0323   -0.6979   21.4647 C   0  0  0  0  0  0  0  0  0  0  0  0
   12.7470   -1.6044   20.1359 Cl  0  0  0  0  0  0  0  0  0  0  0  0
   10.6742   -0.8953   21.6182 C   0  0  0  0  0  0  0  0  0  0  0  0
    9.9413   -0.1036   22.4997 C   0  0  0  0  0  0  0  0  0  0  0  0
   10.2113   -1.6239   20.9619 H   0  0  0  0  0  0  0  0  0  0  0  0
   13.7318    0.5750   21.8595 H   0  0  0  0  0  0  0  0  0  0  0  0
   12.3762    2.1079   23.3521 H   0  0  0  0  0  0  0  0  0  0  0  0
    8.5981   -0.5970   24.8200 H   0  0  0  0  0  0  0  0  0  0  0  0
    7.0473    0.1402   24.2915 H   0  0  0  0  0  0  0  0  0  0  0  0
    6.4039   -2.3457   20.9813 H   0  0  0  0  0  0  0  0  0  0  0  0
    7.9767   -2.0316   20.2129 H   0  0  0  0  0  0  0  0  0  0  0  0
    8.9045   -2.4092   22.3166 H   0  0  0  0  0  0  0  0  0  0  0  0
    7.6497   -2.5513   24.4093 H   0  0  0  0  0  0  0  0  0  0  0  0
    6.8941   -3.4904   23.1275 H   0  0  0  0  0  0  0  0  0  0  0  0
    6.1830   -1.9368   23.6059 H   0  0  0  0  0  0  0  0  0  0  0  0
  1  2  1  0
  2  3  1  0
  3  4  1  0
  4  5  1  0
  5  6  2  0
  6  7  1  0
  7  8  2  0
  8  9  1  0
  9 10  2  0
 10 11  1  0
 11 12  2  0
 12 13  1  0
 13 14  2  0
 13 15  1  0
 12 16  1  0
 11 17  1  0
 10 18  1  0
  8 19  1  0
  6 20  1  0
  4 21  1  0
 21 22  2  0
 21 23  1  0
 23 24  1  1
 24 25  1  0
 25 26  1  0
 26 27  1  0
 27 28  1  0
 28 29  1  0
 29 30  1  0
 30 31  1  0
 31 32  2  0
 31 33  2  0
 31 34  1  0
 34 35  1  0
 35 36  1  0
 35 37  1  0
 34 38  1  0
 34 39  1  0
 30 40  1  0
 30 41  1  0
 29 42  1  0
 29 43  1  0
 28 44  1  0
 27 45  1  0
 27 46  1  0
 26 47  1  0
 26 48  1  0
 25 49  1  0
 49 50  2  0
 49 51  1  0
 51 52  2  0
 52 53  1  0
 53 54  2  0
 54 55  1  0
 54 56  1  0
 56 57  2  0
 56 58  1  0
 53 59  1  0
 52 60  1  0
 24 61  1  0
 24 62  1  0
  3 63  1  0
  3 64  1  0
  2 65  1  6
  1 66  1  0
  1 67  1  0
  1 68  1  0
 23  2  1  0
 35 28  1  0
 57 51  1  0
 14  5  1  0
 57 23  1  0
 14  9  1  0
M  CHG  1  28   1
M  END
>  <cnnaffinities>  (42) 
[6.49413]

>  <score>  (42) 
6.49413

>  <index>  (42) 
41

>  <Smiles>  (42) 
C([C@]1(C(N(c2c(nc(c3c(c(c(c(c23)[H])[H])[H])[H])[H])[H])C(=O)[C@]21C(N(C(C([N+]1(C(C(S(=O)(=O)C(C1([H])[H])([H])[H])([H])[H])([H])[H])[H])([H])[H])([H])[H])C(=O)c1c(c(c(Cl)c(c21)[H])[H])[H])([H])[H])([H])[H])[H])([H])([H])[H]

>  <h>  (42) 
<NA>

>  <Training>  (42) 
True

>  <Success>  (42) 
True

>  <enamine_searched>  (42) 
False

>  <enamine_id>  (42) 
nan

$$$$

     RDKit          3D

 60 65  0  0  0  0  0  0  0  0999 V2000
    6.5472    4.3262   21.3179 C   0  0  0  0  0  0  0  0  0  0  0  0
    7.5309    3.9711   22.3274 N   0  0  0  0  0  0  0  0  0  0  0  0
    7.0643    3.3280   23.4375 C   0  0  0  0  0  0  0  0  0  0  0  0
    5.8749    3.1001   23.5920 O   0  0  0  0  0  0  0  0  0  0  0  0
    8.0810    2.8569   24.4750 C   0  0  0  0  0  0  0  0  0  0  0  0
    8.7561    1.6637   24.0124 N   0  0  0  0  0  0  0  0  0  0  0  0
    8.0105    0.4191   23.8673 C   0  0  0  0  0  0  0  0  0  0  0  0
    8.4190   -0.3751   22.5988 C   0  0  2  0  0  0  0  0  0  0  0  0
    7.9124    0.2978   21.3057 C   0  0  0  0  0  0  0  0  0  0  0  0
    8.3593    1.2899   20.7634 O   0  0  0  0  0  0  0  0  0  0  0  0
    6.8610   -0.4426   20.8210 N   0  0  0  0  0  0  0  0  0  0  0  0
    6.0930    0.0714   19.7544 C   0  0  0  0  0  0  0  0  0  0  0  0
    6.4578   -0.2022   18.4620 C   0  0  0  0  0  0  0  0  0  0  0  0
    5.7880    0.2499   17.3788 N   0  0  0  0  0  0  0  0  0  0  0  0
    4.7484    1.0167   17.5930 C   0  0  0  0  0  0  0  0  0  0  0  0
    4.2915    1.4104   18.8825 C   0  0  0  0  0  0  0  0  0  0  0  0
    3.1821    2.2762   19.0602 C   0  0  0  0  0  0  0  0  0  0  0  0
    2.7836    2.6452   20.3143 C   0  0  0  0  0  0  0  0  0  0  0  0
    3.4776    2.1779   21.4528 C   0  0  0  0  0  0  0  0  0  0  0  0
    4.5549    1.3332   21.3086 C   0  0  0  0  0  0  0  0  0  0  0  0
    4.9831    0.9247   20.0138 C   0  0  0  0  0  0  0  0  0  0  0  0
    5.1144    1.0266   22.1876 H   0  0  0  0  0  0  0  0  0  0  0  0
    3.1785    2.5056   22.4427 H   0  0  0  0  0  0  0  0  0  0  0  0
    1.9300    3.3050   20.4417 H   0  0  0  0  0  0  0  0  0  0  0  0
    2.6718    2.6398   18.1732 H   0  0  0  0  0  0  0  0  0  0  0  0
    4.2110    1.3752   16.7162 H   0  0  0  0  0  0  0  0  0  0  0  0
    7.3335   -0.8193   18.2761 H   0  0  0  0  0  0  0  0  0  0  0  0
    6.5093   -1.5960   21.6212 C   0  0  0  0  0  0  0  0  0  0  0  0
    7.7379   -1.7677   22.5210 C   0  0  2  0  0  0  0  0  0  0  0  0
    7.4405   -2.4869   23.8452 C   0  0  0  0  0  0  0  0  0  0  0  0
    6.9092   -3.8507   23.5465 C   0  0  0  0  0  0  0  0  0  0  0  0
    7.6558   -4.9218   23.3225 N   0  0  0  0  0  0  0  0  0  0  0  0
    6.7889   -5.8788   23.0009 N   0  0  0  0  0  0  0  0  0  0  0  0
    5.5745   -5.3948   23.0224 N   0  0  0  0  0  2  0  0  0  0  0  0
    5.6189   -4.1112   23.3673 N   0  0  0  0  0  0  0  0  0  0  0  0
    6.6824   -1.9471   24.4219 H   0  0  0  0  0  0  0  0  0  0  0  0
    8.3597   -2.5747   24.4338 H   0  0  0  0  0  0  0  0  0  0  0  0
    8.4245   -2.4247   21.9806 H   0  0  0  0  0  0  0  0  0  0  0  0
    5.5926   -1.4262   22.2056 H   0  0  0  0  0  0  0  0  0  0  0  0
    6.3399   -2.4921   21.0136 H   0  0  0  0  0  0  0  0  0  0  0  0
    9.9222   -0.4278   22.5280 C   0  0  0  0  0  0  0  0  0  0  0  0
   10.5458   -1.3309   21.6617 C   0  0  0  0  0  0  0  0  0  0  0  0
   11.9089   -1.2806   21.4628 C   0  0  0  0  0  0  0  0  0  0  0  0
   12.5621   -2.3344   20.2369 Cl  0  0  0  0  0  0  0  0  0  0  0  0
   12.7104   -0.3703   22.1611 C   0  0  0  0  0  0  0  0  0  0  0  0
   12.0971    0.5039   23.0291 C   0  0  0  0  0  0  0  0  0  0  0  0
   10.7111    0.5432   23.1448 C   0  0  0  0  0  0  0  0  0  0  0  0
   10.1023    1.7352   23.8034 C   0  0  0  0  0  0  0  0  0  0  0  0
   10.7735    2.7193   24.1027 O   0  0  0  0  0  0  0  0  0  0  0  0
   12.6815    1.2143   23.5984 H   0  0  0  0  0  0  0  0  0  0  0  0
   13.7783   -0.2825   21.9859 H   0  0  0  0  0  0  0  0  0  0  0  0
    9.9868   -2.0452   21.0667 H   0  0  0  0  0  0  0  0  0  0  0  0
    8.1893   -0.2211   24.7424 H   0  0  0  0  0  0  0  0  0  0  0  0
    6.9422    0.6526   23.8261 H   0  0  0  0  0  0  0  0  0  0  0  0
    7.5436    2.6577   25.4038 H   0  0  0  0  0  0  0  0  0  0  0  0
    8.8610    3.5936   24.6781 H   0  0  0  0  0  0  0  0  0  0  0  0
    8.4668    3.8022   21.9796 H   0  0  0  0  0  0  0  0  0  0  0  0
    7.0275    4.8447   20.4823 H   0  0  0  0  0  0  0  0  0  0  0  0
    6.0282    3.4278   20.9599 H   0  0  0  0  0  0  0  0  0  0  0  0
    5.7914    4.9724   21.7716 H   0  0  0  0  0  0  0  0  0  0  0  0
  1  2  1  0
  2  3  1  0
  3  4  2  0
  3  5  1  0
  5  6  1  0
  6  7  1  0
  8  7  1  1
  8  9  1  0
  9 10  2  0
  9 11  1  0
 11 12  1  0
 12 13  2  0
 13 14  1  0
 14 15  2  0
 15 16  1  0
 16 17  2  0
 17 18  1  0
 18 19  2  0
 19 20  1  0
 20 21  2  0
 20 22  1  0
 19 23  1  0
 18 24  1  0
 17 25  1  0
 15 26  1  0
 13 27  1  0
 11 28  1  0
 28 29  1  0
 29 30  1  0
 30 31  1  0
 31 32  1  0
 32 33  2  0
 33 34  1  0
 34 35  1  0
 30 36  1  0
 30 37  1  0
 29 38  1  6
 28 39  1  0
 28 40  1  0
  8 41  1  0
 41 42  2  0
 42 43  1  0
 43 44  1  0
 43 45  2  0
 45 46  1  0
 46 47  2  0
 47 48  1  0
 48 49  2  0
 46 50  1  0
 45 51  1  0
 42 52  1  0
  7 53  1  0
  7 54  1  0
  5 55  1  0
  5 56  1  0
  2 57  1  0
  1 58  1  0
  1 59  1  0
  1 60  1  0
 48  6  1  0
 29  8  1  0
 35 31  2  0
 47 41  1  0
 21 12  1  0
 21 16  1  0
M  CHG  1  34  -1
M  END
>  <cnnaffinities>  (43) 
[6.57905, 6.5878, 6.57353, 6.57482]

>  <score>  (43) 
6.57905

>  <index>  (43) 
42

>  <Smiles>  (43) 
C(N(C(=O)C(N1C([C@@]2(C(=O)N(c3c(nc(c4c(c(c(c(c34)[H])[H])[H])[H])[H])[H])C([C@@]2(C(c2nn[n-]n2)([H])[H])[H])([H])[H])c2c(c(Cl)c(c(c2C1=O)[H])[H])[H])([H])[H])([H])[H])[H])([H])([H])[H]

>  <h>  (43) 
<NA>

>  <Training>  (43) 
True

>  <Success>  (43) 
True

>  <enamine_searched>  (43) 
False

>  <enamine_id>  (43) 
nan

$$$$

     RDKit          3D

 62 67  0  0  0  0  0  0  0  0999 V2000
    6.5199    4.2505   28.0093 C   0  0  0  0  0  0  0  0  0  0  0  0
    5.2475    3.9203   27.2284 C   0  0  0  0  0  0  0  0  0  0  0  0
    5.4190    3.9573   25.7758 N   0  0  0  0  0  0  0  0  0  0  0  0
    5.1689    5.1114   25.1343 N   0  0  0  0  0  0  0  0  0  0  0  0
    5.4838    4.8857   23.8650 C   0  0  0  0  0  0  0  0  0  0  0  0
    5.9591    3.5733   23.6769 C   0  0  0  0  0  0  0  0  0  0  0  0
    5.9172    3.0116   24.9349 C   0  0  0  0  0  0  0  0  0  0  0  0
    6.3613    1.6582   25.3887 C   0  0  0  0  0  0  0  0  0  0  0  0
    7.4470    1.1493   24.5760 N   0  0  0  0  0  0  0  0  0  0  0  0
    7.3441   -0.2043   24.0585 C   0  0  0  0  0  0  0  0  0  0  0  0
    8.2040   -0.3957   22.7861 C   0  0  2  0  0  0  0  0  0  0  0  0
    7.6021    0.4629   21.6574 C   0  0  0  0  0  0  0  0  0  0  0  0
    7.7045    1.6661   21.5143 O   0  0  0  0  0  0  0  0  0  0  0  0
    6.9088   -0.3711   20.8216 N   0  0  0  0  0  0  0  0  0  0  0  0
    6.1224    0.1194   19.7647 C   0  0  0  0  0  0  0  0  0  0  0  0
    6.4314   -0.2274   18.4757 C   0  0  0  0  0  0  0  0  0  0  0  0
    5.7645    0.2181   17.3889 N   0  0  0  0  0  0  0  0  0  0  0  0
    4.7509    1.0213   17.6008 C   0  0  0  0  0  0  0  0  0  0  0  0
    4.3131    1.4347   18.8901 C   0  0  0  0  0  0  0  0  0  0  0  0
    3.1967    2.2929   19.0562 C   0  0  0  0  0  0  0  0  0  0  0  0
    2.7722    2.6462   20.3050 C   0  0  0  0  0  0  0  0  0  0  0  0
    3.4409    2.1576   21.4506 C   0  0  0  0  0  0  0  0  0  0  0  0
    4.5287    1.3338   21.3186 C   0  0  0  0  0  0  0  0  0  0  0  0
    5.0027    0.9634   20.0257 C   0  0  0  0  0  0  0  0  0  0  0  0
    5.0273    0.9629   22.2105 H   0  0  0  0  0  0  0  0  0  0  0  0
    3.0768    2.4308   22.4366 H   0  0  0  0  0  0  0  0  0  0  0  0
    1.9118    3.2959   20.4252 H   0  0  0  0  0  0  0  0  0  0  0  0
    2.6934    2.6529   18.1631 H   0  0  0  0  0  0  0  0  0  0  0  0
    4.2122    1.3802   16.7253 H   0  0  0  0  0  0  0  0  0  0  0  0
    7.2831   -0.8838   18.3018 H   0  0  0  0  0  0  0  0  0  0  0  0
    6.8906   -1.7569   21.2398 C   0  0  0  0  0  0  0  0  0  0  0  0
    8.0667   -1.8398   22.2208 C   0  0  2  0  0  0  0  0  0  0  0  0
    7.9244   -2.9583   23.2470 C   0  0  0  0  0  0  0  0  0  0  0  0
    7.9489   -3.9333   22.7482 H   0  0  0  0  0  0  0  0  0  0  0  0
    8.7394   -2.9197   23.9794 H   0  0  0  0  0  0  0  0  0  0  0  0
    6.9719   -2.8733   23.7862 H   0  0  0  0  0  0  0  0  0  0  0  0
    8.9524   -2.0469   21.6158 H   0  0  0  0  0  0  0  0  0  0  0  0
    7.0202   -2.3987   20.3705 H   0  0  0  0  0  0  0  0  0  0  0  0
    5.9367   -2.0262   21.7219 H   0  0  0  0  0  0  0  0  0  0  0  0
    9.6001    0.1075   23.0454 C   0  0  0  0  0  0  0  0  0  0  0  0
   10.6903   -0.3897   22.3368 C   0  0  0  0  0  0  0  0  0  0  0  0
   11.9364    0.1423   22.5689 C   0  0  0  0  0  0  0  0  0  0  0  0
   12.9742   -0.3638   21.8979 F   0  0  0  0  0  0  0  0  0  0  0  0
   12.1531    1.1944   23.4532 C   0  0  0  0  0  0  0  0  0  0  0  0
   11.0539    1.7763   24.0477 C   0  0  0  0  0  0  0  0  0  0  0  0
    9.7822    1.2248   23.8744 C   0  0  0  0  0  0  0  0  0  0  0  0
    8.6296    1.8387   24.6102 C   0  0  0  0  0  0  0  0  0  0  0  0
    8.7651    2.8758   25.2510 O   0  0  0  0  0  0  0  0  0  0  0  0
   11.1457    2.6881   24.6329 H   0  0  0  0  0  0  0  0  0  0  0  0
   13.1749    1.4948   23.6569 H   0  0  0  0  0  0  0  0  0  0  0  0
   10.5830   -1.1670   21.5893 H   0  0  0  0  0  0  0  0  0  0  0  0
    7.6556   -0.9302   24.8233 H   0  0  0  0  0  0  0  0  0  0  0  0
    6.2916   -0.3979   23.8043 H   0  0  0  0  0  0  0  0  0  0  0  0
    5.5362    0.9466   25.3040 H   0  0  0  0  0  0  0  0  0  0  0  0
    6.6528    1.6758   26.4475 H   0  0  0  0  0  0  0  0  0  0  0  0
    6.3338    3.1207   22.7618 H   0  0  0  0  0  0  0  0  0  0  0  0
    5.3686    5.6850   23.1397 H   0  0  0  0  0  0  0  0  0  0  0  0
    4.4800    4.6717   27.4398 H   0  0  0  0  0  0  0  0  0  0  0  0
    4.8519    2.9400   27.5265 H   0  0  0  0  0  0  0  0  0  0  0  0
    7.3448    3.5644   27.7747 H   0  0  0  0  0  0  0  0  0  0  0  0
    6.2968    4.1762   29.0785 H   0  0  0  0  0  0  0  0  0  0  0  0
    6.8416    5.2749   27.7946 H   0  0  0  0  0  0  0  0  0  0  0  0
  1  2  1  0
  2  3  1  0
  3  4  1  0
  4  5  2  0
  5  6  1  0
  6  7  2  0
  7  8  1  0
  8  9  1  0
  9 10  1  0
 11 10  1  1
 11 12  1  0
 12 13  2  0
 12 14  1  0
 14 15  1  0
 15 16  2  0
 16 17  1  0
 17 18  2  0
 18 19  1  0
 19 20  2  0
 20 21  1  0
 21 22  2  0
 22 23  1  0
 23 24  2  0
 23 25  1  0
 22 26  1  0
 21 27  1  0
 20 28  1  0
 18 29  1  0
 16 30  1  0
 14 31  1  0
 31 32  1  0
 32 33  1  0
 33 34  1  0
 33 35  1  0
 33 36  1  0
 32 37  1  6
 31 38  1  0
 31 39  1  0
 11 40  1  0
 40 41  2  0
 41 42  1  0
 42 43  1  0
 42 44  2  0
 44 45  1  0
 45 46  2  0
 46 47  1  0
 47 48  2  0
 45 49  1  0
 44 50  1  0
 41 51  1  0
 10 52  1  0
 10 53  1  0
  8 54  1  0
  8 55  1  0
  6 56  1  0
  5 57  1  0
  2 58  1  0
  2 59  1  0
  1 60  1  0
  1 61  1  0
  1 62  1  0
  7  3  1  0
 47  9  1  0
 32 11  1  0
 46 40  1  0
 24 15  1  0
 24 19  1  0
M  END
>  <cnnaffinities>  (44) 
[6.46886]

>  <score>  (44) 
6.46886

>  <index>  (44) 
43

>  <Smiles>  (44) 
C(C(n1nc(c(c1C(N1C([C@@]2(C(=O)N(c3c(nc(c4c(c(c(c(c34)[H])[H])[H])[H])[H])[H])C([C@@]2(C([H])([H])[H])[H])([H])[H])c2c(c(F)c(c(c2C1=O)[H])[H])[H])([H])[H])([H])[H])[H])[H])([H])[H])([H])([H])[H]

>  <h>  (44) 
<NA>

>  <Training>  (44) 
True

>  <Success>  (44) 
True

>  <enamine_searched>  (44) 
False

>  <enamine_id>  (44) 
nan

$$$$

     RDKit          3D

 56 60  0  0  0  0  0  0  0  0999 V2000
    7.0635    3.7176   21.1906 C   0  0  0  0  0  0  0  0  0  0  0  0
    7.3965    3.2759   22.5327 N   0  0  0  0  0  0  0  0  0  0  0  0
    8.6860    3.3673   22.9557 C   0  0  0  0  0  0  0  0  0  0  0  0
    9.5183    4.0407   22.3714 O   0  0  0  0  0  0  0  0  0  0  0  0
    9.0441    2.5627   24.2039 C   0  0  0  0  0  0  0  0  0  0  0  0
    9.4206    1.2037   23.8458 N   0  0  0  0  0  0  0  0  0  0  0  0
    8.3759    0.1710   23.7759 C   0  0  0  0  0  0  0  0  0  0  0  0
    8.5114   -0.7538   22.4940 C   0  0  2  0  0  0  0  0  0  0  0  0
    7.9886    0.0551   21.2681 C   0  0  0  0  0  0  0  0  0  0  0  0
    8.5273    1.0015   20.7235 O   0  0  0  0  0  0  0  0  0  0  0  0
    6.7447   -0.4118   20.9260 N   0  0  0  0  0  0  0  0  0  0  0  0
    6.0311    0.1518   19.8379 C   0  0  0  0  0  0  0  0  0  0  0  0
    6.4515   -0.0656   18.5467 C   0  0  0  0  0  0  0  0  0  0  0  0
    5.8300    0.4305   17.4548 N   0  0  0  0  0  0  0  0  0  0  0  0
    4.7753    1.1827   17.6474 C   0  0  0  0  0  0  0  0  0  0  0  0
    4.2471    1.5114   18.9274 C   0  0  0  0  0  0  0  0  0  0  0  0
    3.1210    2.3657   19.0793 C   0  0  0  0  0  0  0  0  0  0  0  0
    2.6512    2.6755   20.3272 C   0  0  0  0  0  0  0  0  0  0  0  0
    3.2889    2.1606   21.4753 C   0  0  0  0  0  0  0  0  0  0  0  0
    4.3857    1.3379   21.3511 C   0  0  0  0  0  0  0  0  0  0  0  0
    4.8864    0.9751   20.0699 C   0  0  0  0  0  0  0  0  0  0  0  0
    4.8852    0.9808   22.2464 H   0  0  0  0  0  0  0  0  0  0  0  0
    2.9147    2.4171   22.4622 H   0  0  0  0  0  0  0  0  0  0  0  0
    1.7912    3.3290   20.4417 H   0  0  0  0  0  0  0  0  0  0  0  0
    2.6533    2.7731   18.1859 H   0  0  0  0  0  0  0  0  0  0  0  0
    4.2867    1.5761   16.7573 H   0  0  0  0  0  0  0  0  0  0  0  0
    7.3292   -0.6792   18.3610 H   0  0  0  0  0  0  0  0  0  0  0  0
    6.2321   -1.4247   21.8208 C   0  0  0  0  0  0  0  0  0  0  0  0
    7.5022   -1.9441   22.5195 C   0  0  2  0  0  0  0  0  0  0  0  0
    7.1280   -2.5688   23.8575 C   0  0  0  0  0  0  0  0  0  0  0  0
    8.5170   -3.2715   24.7363 Cl  0  0  0  0  0  0  0  0  0  0  0  0
    6.4183   -3.3829   23.6944 H   0  0  0  0  0  0  0  0  0  0  0  0
    6.6650   -1.8400   24.5273 H   0  0  0  0  0  0  0  0  0  0  0  0
    7.8833   -2.7464   21.8954 H   0  0  0  0  0  0  0  0  0  0  0  0
    5.7166   -2.2129   21.2629 H   0  0  0  0  0  0  0  0  0  0  0  0
    5.5170   -1.0076   22.5454 H   0  0  0  0  0  0  0  0  0  0  0  0
    9.9224   -1.1509   22.3135 C   0  0  0  0  0  0  0  0  0  0  0  0
   10.2505   -2.3901   21.5064 C   0  0  0  0  0  0  0  0  0  0  0  0
   11.6817   -2.6293   21.2148 C   0  0  0  0  0  0  0  0  0  0  0  0
   12.4155   -4.4804   19.1204 Cl  0  0  0  0  0  0  0  0  0  0  0  0
   11.6698   -2.3543   21.3847 C   0  0  0  0  0  0  0  0  0  0  0  0
   12.2290   -0.7137   22.3548 C   0  0  0  0  0  0  0  0  0  0  0  0
   11.0385   -0.2715   22.7801 C   0  0  0  0  0  0  0  0  0  0  0  0
   10.7512    0.9840   23.5698 C   0  0  0  0  0  0  0  0  0  0  0  0
   11.6243    1.7636   23.9166 O   0  0  0  0  0  0  0  0  0  0  0  0
   13.2360   -0.3695   22.2996 H   0  0  0  0  0  0  0  0  0  0  0  0
   13.3032   -4.0794   19.9528 H   0  0  0  0  0  0  0  0  0  0  0  0
    9.5218   -3.0794   21.1194 H   0  0  0  0  0  0  0  0  0  0  0  0
    7.4013    0.6614   23.7657 H   0  0  0  0  0  0  0  0  0  0  0  0
    8.4451   -0.4641   24.6671 H   0  0  0  0  0  0  0  0  0  0  0  0
    9.9252    3.0353   24.6444 H   0  0  0  0  0  0  0  0  0  0  0  0
    8.2234    2.5467   24.9271 H   0  0  0  0  0  0  0  0  0  0  0  0
    6.7724    2.6060   22.9547 H   0  0  0  0  0  0  0  0  0  0  0  0
    6.0098    3.4982   21.0018 H   0  0  0  0  0  0  0  0  0  0  0  0
    7.6800    3.1738   20.4657 H   0  0  0  0  0  0  0  0  0  0  0  0
    7.2342    4.7930   21.0971 H   0  0  0  0  0  0  0  0  0  0  0  0
  1  2  1  0
  2  3  1  0
  3  4  2  0
  3  5  1  0
  5  6  1  0
  6  7  1  0
  8  7  1  1
  8  9  1  0
  9 10  2  0
  9 11  1  0
 11 12  1  0
 12 13  2  0
 13 14  1  0
 14 15  2  0
 15 16  1  0
 16 17  2  0
 17 18  1  0
 18 19  2  0
 19 20  1  0
 20 21  2  0
 20 22  1  0
 19 23  1  0
 18 24  1  0
 17 25  1  0
 15 26  1  0
 13 27  1  0
 11 28  1  0
 28 29  1  0
 29 30  1  0
 30 31  1  0
 30 32  1  0
 30 33  1  0
 29 34  1  6
 28 35  1  0
 28 36  1  0
  8 37  1  0
 37 38  2  0
 38 39  1  0
 39 40  1  0
 39 41  2  0
 41 42  1  0
 42 43  2  0
 43 44  1  0
 44 45  2  0
 42 46  1  0
 41 47  1  0
 38 48  1  0
  7 49  1  0
  7 50  1  0
  5 51  1  0
  5 52  1  0
  2 53  1  0
  1 54  1  0
  1 55  1  0
  1 56  1  0
 44  6  1  0
 29  8  1  0
 43 37  1  0
 21 12  1  0
 21 16  1  0
M  END
>  <cnnaffinities>  (45) 
[6.45003]

>  <score>  (45) 
6.45003

>  <index>  (45) 
44

>  <Smiles>  (45) 
C(N(C(=O)C(N1C([C@@]2(C(=O)N(c3c(nc(c4c(c(c(c(c34)[H])[H])[H])[H])[H])[H])C([C@@]2(C(Cl)([H])[H])[H])([H])[H])c2c(c(Cl)c(c(c2C1=O)[H])[H])[H])([H])[H])([H])[H])[H])([H])([H])[H]

>  <h>  (45) 
<NA>

>  <Training>  (45) 
True

>  <Success>  (45) 
True

>  <enamine_searched>  (45) 
False

>  <enamine_id>  (45) 
nan

$$$$

     RDKit          3D

 60 64  0  0  0  0  0  0  0  0999 V2000
    7.7013   -8.4581   22.8303 C   0  0  0  0  0  0  0  0  0  0  0  0
    6.8651   -7.2974   22.6189 N   0  0  0  0  0  0  0  0  0  0  0  0
    7.1467   -6.3697   21.6759 C   0  0  0  0  0  0  0  0  0  0  0  0
    8.0929   -6.4723   20.9145 O   0  0  0  0  0  0  0  0  0  0  0  0
    6.2042   -5.1673   21.7174 C   0  0  0  0  0  0  0  0  0  0  0  0
    6.6515   -4.1925   22.6891 N   0  0  0  0  0  0  0  0  0  0  0  0
    7.7710   -3.3228   22.3888 C   0  0  0  0  0  0  0  0  0  0  0  0
    7.4059   -1.8448   22.6787 C   0  0  2  0  0  0  0  0  0  0  0  0
    6.3296   -1.4240   21.6573 C   0  0  0  0  0  0  0  0  0  0  0  0
    5.2128   -1.8859   21.5501 O   0  0  0  0  0  0  0  0  0  0  0  0
    6.8519   -0.4393   20.8451 N   0  0  0  0  0  0  0  0  0  0  0  0
    6.1088    0.0948   19.7752 C   0  0  0  0  0  0  0  0  0  0  0  0
    6.4612   -0.1900   18.4817 C   0  0  0  0  0  0  0  0  0  0  0  0
    5.7932    0.2571   17.3945 N   0  0  0  0  0  0  0  0  0  0  0  0
    4.7566    1.0294   17.5976 C   0  0  0  0  0  0  0  0  0  0  0  0
    4.3036    1.4252   18.8856 C   0  0  0  0  0  0  0  0  0  0  0  0
    3.1818    2.2797   19.0413 C   0  0  0  0  0  0  0  0  0  0  0  0
    2.7813    2.6696   20.2886 C   0  0  0  0  0  0  0  0  0  0  0  0
    3.4772    2.2220   21.4338 C   0  0  0  0  0  0  0  0  0  0  0  0
    4.5609    1.3869   21.3099 C   0  0  0  0  0  0  0  0  0  0  0  0
    4.9964    0.9588   20.0230 C   0  0  0  0  0  0  0  0  0  0  0  0
    5.0921    1.0395   22.1913 H   0  0  0  0  0  0  0  0  0  0  0  0
    3.1516    2.5405   22.4209 H   0  0  0  0  0  0  0  0  0  0  0  0
    1.9309    3.3358   20.4097 H   0  0  0  0  0  0  0  0  0  0  0  0
    2.6709    2.6295   18.1478 H   0  0  0  0  0  0  0  0  0  0  0  0
    4.2196    1.3828   16.7168 H   0  0  0  0  0  0  0  0  0  0  0  0
    7.3087   -0.8442   18.2807 H   0  0  0  0  0  0  0  0  0  0  0  0
    8.2959   -0.3450   20.9380 C   0  0  0  0  0  0  0  0  0  0  0  0
    8.5701   -0.8773   22.3530 C   0  0  2  0  0  0  0  0  0  0  0  0
    9.9555   -1.4783   22.4854 C   0  0  0  0  0  0  0  0  0  0  0  0
   10.9031   -0.4544   22.3413 O   0  0  0  0  0  0  0  0  0  0  0  0
   12.2044   -0.9794   22.2942 C   0  0  0  0  0  0  0  0  0  0  0  0
   12.8956   -0.1503   22.1189 H   0  0  0  0  0  0  0  0  0  0  0  0
   12.4826   -1.4847   23.2357 H   0  0  0  0  0  0  0  0  0  0  0  0
   12.2968   -1.7125   21.4751 H   0  0  0  0  0  0  0  0  0  0  0  0
   10.0670   -1.9798   23.4623 H   0  0  0  0  0  0  0  0  0  0  0  0
   10.1025   -2.2478   21.7045 H   0  0  0  0  0  0  0  0  0  0  0  0
    8.5268   -0.0207   23.0250 H   0  0  0  0  0  0  0  0  0  0  0  0
    8.7970   -0.9576   20.1747 H   0  0  0  0  0  0  0  0  0  0  0  0
    8.6308    0.6856   20.8069 H   0  0  0  0  0  0  0  0  0  0  0  0
    6.8817   -1.7788   24.1057 C   0  0  0  0  0  0  0  0  0  0  0  0
    6.8788   -0.5866   24.8412 C   0  0  0  0  0  0  0  0  0  0  0  0
    6.3942   -0.5744   26.1386 C   0  0  0  0  0  0  0  0  0  0  0  0
    6.3033    0.9374   27.0050 Cl  0  0  0  0  0  0  0  0  0  0  0  0
    5.9660   -1.7395   26.7779 C   0  0  0  0  0  0  0  0  0  0  0  0
    5.9020   -2.9044   26.0386 C   0  0  0  0  0  0  0  0  0  0  0  0
    6.2887   -2.9038   24.6977 C   0  0  0  0  0  0  0  0  0  0  0  0
    5.9607   -4.0953   23.8580 C   0  0  0  0  0  0  0  0  0  0  0  0
    5.1092   -4.9170   24.1750 O   0  0  0  0  0  0  0  0  0  0  0  0
    5.5469   -3.8287   26.4893 H   0  0  0  0  0  0  0  0  0  0  0  0
    5.6521   -1.7116   27.8186 H   0  0  0  0  0  0  0  0  0  0  0  0
    7.2269    0.3456   24.4137 H   0  0  0  0  0  0  0  0  0  0  0  0
    8.0309   -3.4448   21.3410 H   0  0  0  0  0  0  0  0  0  0  0  0
    8.6527   -3.6175   22.9715 H   0  0  0  0  0  0  0  0  0  0  0  0
    6.1174   -4.6993   20.7395 H   0  0  0  0  0  0  0  0  0  0  0  0
    5.2042   -5.4922   22.0069 H   0  0  0  0  0  0  0  0  0  0  0  0
    6.1538   -7.0889   23.3016 H   0  0  0  0  0  0  0  0  0  0  0  0
    8.5149   -8.2769   23.5439 H   0  0  0  0  0  0  0  0  0  0  0  0
    8.1558   -8.7386   21.8918 H   0  0  0  0  0  0  0  0  0  0  0  0
    7.0997   -9.2994   23.1837 H   0  0  0  0  0  0  0  0  0  0  0  0
  1  2  1  0
  2  3  1  0
  3  4  2  0
  3  5  1  0
  5  6  1  0
  6  7  1  0
  8  7  1  6
  8  9  1  0
  9 10  2  0
  9 11  1  0
 11 12  1  0
 12 13  2  0
 13 14  1  0
 14 15  2  0
 15 16  1  0
 16 17  2  0
 17 18  1  0
 18 19  2  0
 19 20  1  0
 20 21  2  0
 20 22  1  0
 19 23  1  0
 18 24  1  0
 17 25  1  0
 15 26  1  0
 13 27  1  0
 11 28  1  0
 28 29  1  0
 29 30  1  0
 30 31  1  0
 31 32  1  0
 32 33  1  0
 32 34  1  0
 32 35  1  0
 30 36  1  0
 30 37  1  0
 29 38  1  1
 28 39  1  0
 28 40  1  0
  8 41  1  0
 41 42  2  0
 42 43  1  0
 43 44  1  0
 43 45  2  0
 45 46  1  0
 46 47  2  0
 47 48  1  0
 48 49  2  0
 46 50  1  0
 45 51  1  0
 42 52  1  0
  7 53  1  0
  7 54  1  0
  5 55  1  0
  5 56  1  0
  2 57  1  0
  1 58  1  0
  1 59  1  0
  1 60  1  0
 48  6  1  0
 29  8  1  0
 47 41  1  0
 21 12  1  0
 21 16  1  0
M  END
>  <cnnaffinities>  (46) 
[6.66276, 6.70254]

>  <score>  (46) 
6.66276

>  <index>  (46) 
45

>  <Smiles>  (46) 
C(N(C(=O)C(N1C([C@@]2(C(=O)N(c3c(nc(c4c(c(c(c(c34)[H])[H])[H])[H])[H])[H])C([C@@]2(C(OC([H])([H])[H])([H])[H])[H])([H])[H])c2c(c(Cl)c(c(c2C1=O)[H])[H])[H])([H])[H])([H])[H])[H])([H])([H])[H]

>  <h>  (46) 
<NA>

>  <Training>  (46) 
True

>  <Success>  (46) 
True

>  <enamine_searched>  (46) 
False

>  <enamine_id>  (46) 
nan

$$$$

     RDKit          3D

 64 68  0  0  0  0  0  0  0  0999 V2000
    9.0906   -3.7492   25.3480 C   0  0  0  0  0  0  0  0  0  0  0  0
    8.3975   -4.5343   24.2455 C   0  0  0  0  0  0  0  0  0  0  0  0
    6.7934   -3.9619   23.7393 S   0  0  0  0  0  0  0  0  0  0  0  0
    6.5143   -4.6135   22.4625 O   0  0  0  0  0  0  0  0  0  0  0  0
    5.8533   -4.0628   24.8396 O   0  0  0  0  0  0  0  0  0  0  0  0
    7.0584   -2.3222   23.5507 N   0  0  0  0  0  0  0  0  0  0  0  0
    7.8789   -1.8006   22.4546 C   0  0  1  0  0  0  0  0  0  0  0  0
    7.1448   -1.7557   21.1009 C   0  0  0  0  0  0  0  0  0  0  0  0
    6.9036   -0.3517   20.8707 N   0  0  0  0  0  0  0  0  0  0  0  0
    6.1274    0.1162   19.7915 C   0  0  0  0  0  0  0  0  0  0  0  0
    6.4442   -0.2254   18.5002 C   0  0  0  0  0  0  0  0  0  0  0  0
    5.7766    0.2223   17.4128 N   0  0  0  0  0  0  0  0  0  0  0  0
    4.7530    1.0152   17.6114 C   0  0  0  0  0  0  0  0  0  0  0  0
    4.2963    1.4136   18.8996 C   0  0  0  0  0  0  0  0  0  0  0  0
    3.1680    2.2605   19.0639 C   0  0  0  0  0  0  0  0  0  0  0  0
    2.7351    2.6063   20.3147 C   0  0  0  0  0  0  0  0  0  0  0  0
    3.4123    2.1274   21.4578 C   0  0  0  0  0  0  0  0  0  0  0  0
    4.5092    1.3132   21.3258 C   0  0  0  0  0  0  0  0  0  0  0  0
    4.9909    0.9461   20.0346 C   0  0  0  0  0  0  0  0  0  0  0  0
    5.0155    0.9598   22.2179 H   0  0  0  0  0  0  0  0  0  0  0  0
    3.0797    2.4140   22.4516 H   0  0  0  0  0  0  0  0  0  0  0  0
    1.8711    3.2520   20.4339 H   0  0  0  0  0  0  0  0  0  0  0  0
    2.6685    2.6273   18.1726 H   0  0  0  0  0  0  0  0  0  0  0  0
    4.2205    1.3749   16.7309 H   0  0  0  0  0  0  0  0  0  0  0  0
    7.2983   -0.8697   18.2950 H   0  0  0  0  0  0  0  0  0  0  0  0
    7.6740    0.4838   21.6462 C   0  0  0  0  0  0  0  0  0  0  0  0
    7.7399    1.6883   21.5133 O   0  0  0  0  0  0  0  0  0  0  0  0
    8.4193   -0.3672   22.6963 C   0  0  1  0  0  0  0  0  0  0  0  0
    8.1226    0.1616   24.1158 C   0  0  0  0  0  0  0  0  0  0  0  0
    8.7362    1.4580   24.3552 N   0  0  0  0  0  0  0  0  0  0  0  0
    7.9782    2.4602   25.0792 C   0  0  0  0  0  0  0  0  0  0  0  0
    6.8758    3.0786   24.2153 C   0  0  0  0  0  0  0  0  0  0  0  0
    5.7248    2.6526   24.2487 O   0  0  0  0  0  0  0  0  0  0  0  0
    7.2658    4.1169   23.4274 N   0  0  0  0  0  0  0  0  0  0  0  0
    6.3305    4.6284   22.4375 C   0  0  0  0  0  0  0  0  0  0  0  0
    5.4711    5.0896   22.9372 H   0  0  0  0  0  0  0  0  0  0  0  0
    5.9613    3.8171   21.7925 H   0  0  0  0  0  0  0  0  0  0  0  0
    6.8238    5.3849   21.8207 H   0  0  0  0  0  0  0  0  0  0  0  0
    8.2560    4.2228   23.2332 H   0  0  0  0  0  0  0  0  0  0  0  0
    7.4921    1.9924   25.9411 H   0  0  0  0  0  0  0  0  0  0  0  0
    8.6950    3.2182   25.4071 H   0  0  0  0  0  0  0  0  0  0  0  0
    9.9659    1.8060   23.8789 C   0  0  0  0  0  0  0  0  0  0  0  0
   10.4438    2.9176   24.0796 O   0  0  0  0  0  0  0  0  0  0  0  0
   10.6633    0.7620   23.0715 C   0  0  0  0  0  0  0  0  0  0  0  0
   12.0328    0.8931   22.8528 C   0  0  0  0  0  0  0  0  0  0  0  0
   12.6947    0.0049   22.0258 C   0  0  0  0  0  0  0  0  0  0  0  0
   11.9439   -0.9765   21.3761 C   0  0  0  0  0  0  0  0  0  0  0  0
   12.6558   -1.9592   20.1223 Cl  0  0  0  0  0  0  0  0  0  0  0  0
   10.5835   -1.1055   21.5782 C   0  0  0  0  0  0  0  0  0  0  0  0
    9.9241   -0.2620   22.4745 C   0  0  0  0  0  0  0  0  0  0  0  0
   10.0429   -1.8237   20.9716 H   0  0  0  0  0  0  0  0  0  0  0  0
   13.7549    0.1044   21.8176 H   0  0  0  0  0  0  0  0  0  0  0  0
   12.5396    1.7260   23.3281 H   0  0  0  0  0  0  0  0  0  0  0  0
    7.0479    0.2880   24.2597 H   0  0  0  0  0  0  0  0  0  0  0  0
    8.4987   -0.5665   24.8422 H   0  0  0  0  0  0  0  0  0  0  0  0
    7.7957   -2.1600   20.3207 H   0  0  0  0  0  0  0  0  0  0  0  0
    6.2111   -2.3252   21.1157 H   0  0  0  0  0  0  0  0  0  0  0  0
    8.7333   -2.4730   22.3959 H   0  0  0  0  0  0  0  0  0  0  0  0
    6.1777   -1.8388   23.6985 H   0  0  0  0  0  0  0  0  0  0  0  0
    8.9473   -4.5061   23.3029 H   0  0  0  0  0  0  0  0  0  0  0  0
    8.2367   -5.5819   24.5223 H   0  0  0  0  0  0  0  0  0  0  0  0
    8.4508   -3.6395   26.2240 H   0  0  0  0  0  0  0  0  0  0  0  0
    9.9997   -4.2806   25.6403 H   0  0  0  0  0  0  0  0  0  0  0  0
    9.3908   -2.7561   25.0079 H   0  0  0  0  0  0  0  0  0  0  0  0
  1  2  1  0
  2  3  1  0
  3  4  2  0
  3  5  2  0
  3  6  1  0
  6  7  1  0
  7  8  1  0
  8  9  1  0
  9 10  1  0
 10 11  2  0
 11 12  1  0
 12 13  2  0
 13 14  1  0
 14 15  2  0
 15 16  1  0
 16 17  2  0
 17 18  1  0
 18 19  2  0
 18 20  1  0
 17 21  1  0
 16 22  1  0
 15 23  1  0
 13 24  1  0
 11 25  1  0
  9 26  1  0
 26 27  2  0
 26 28  1  0
 28 29  1  1
 29 30  1  0
 30 31  1  0
 31 32  1  0
 32 33  2  0
 32 34  1  0
 34 35  1  0
 35 36  1  0
 35 37  1  0
 35 38  1  0
 34 39  1  0
 31 40  1  0
 31 41  1  0
 30 42  1  0
 42 43  2  0
 42 44  1  0
 44 45  2  0
 45 46  1  0
 46 47  2  0
 47 48  1  0
 47 49  1  0
 49 50  2  0
 49 51  1  0
 46 52  1  0
 45 53  1  0
 29 54  1  0
 29 55  1  0
  8 56  1  0
  8 57  1  0
  7 58  1  6
  6 59  1  0
  2 60  1  0
  2 61  1  0
  1 62  1  0
  1 63  1  0
  1 64  1  0
 28  7  1  0
 50 44  1  0
 19 10  1  0
 50 28  1  0
 19 14  1  0
M  END
>  <cnnaffinities>  (47) 
[6.44153]

>  <score>  (47) 
6.44153

>  <index>  (47) 
46

>  <Smiles>  (47) 
C(C(S(=O)(=O)N([C@]1(C(N(c2c(nc(c3c(c(c(c(c23)[H])[H])[H])[H])[H])[H])C(=O)[C@]21C(N(C(C(=O)N(C([H])([H])[H])[H])([H])[H])C(=O)c1c(c(c(Cl)c(c21)[H])[H])[H])([H])[H])([H])[H])[H])[H])([H])[H])([H])([H])[H]

>  <h>  (47) 
<NA>

>  <Training>  (47) 
True

>  <Success>  (47) 
True

>  <enamine_searched>  (47) 
False

>  <enamine_id>  (47) 
nan

$$$$

     RDKit          3D

 56 60  0  0  0  0  0  0  0  0999 V2000
    7.7115   -8.5157   22.8039 C   0  0  0  0  0  0  0  0  0  0  0  0
    6.8628   -7.3581   22.6160 N   0  0  0  0  0  0  0  0  0  0  0  0
    7.1636   -6.3983   21.7072 C   0  0  0  0  0  0  0  0  0  0  0  0
    8.1099   -6.4717   20.9390 O   0  0  0  0  0  0  0  0  0  0  0  0
    6.2200   -5.1981   21.7608 C   0  0  0  0  0  0  0  0  0  0  0  0
    6.7002   -4.2192   22.7182 N   0  0  0  0  0  0  0  0  0  0  0  0
    7.7975   -3.3305   22.3846 C   0  0  0  0  0  0  0  0  0  0  0  0
    7.4370   -1.8471   22.6779 C   0  0  2  0  0  0  0  0  0  0  0  0
    6.3366   -1.4131   21.6805 C   0  0  0  0  0  0  0  0  0  0  0  0
    5.2154   -1.8713   21.6018 O   0  0  0  0  0  0  0  0  0  0  0  0
    6.8560   -0.4404   20.8509 N   0  0  0  0  0  0  0  0  0  0  0  0
    6.1108    0.0930   19.7801 C   0  0  0  0  0  0  0  0  0  0  0  0
    6.4553   -0.2020   18.4867 C   0  0  0  0  0  0  0  0  0  0  0  0
    5.7907    0.2458   17.3968 N   0  0  0  0  0  0  0  0  0  0  0  0
    4.7565    1.0228   17.6018 C   0  0  0  0  0  0  0  0  0  0  0  0
    4.3019    1.4163   18.8908 C   0  0  0  0  0  0  0  0  0  0  0  0
    3.1853    2.2765   19.0496 C   0  0  0  0  0  0  0  0  0  0  0  0
    2.7834    2.6605   20.2973 C   0  0  0  0  0  0  0  0  0  0  0  0
    3.4776    2.2130   21.4405 C   0  0  0  0  0  0  0  0  0  0  0  0
    4.5600    1.3795   21.3154 C   0  0  0  0  0  0  0  0  0  0  0  0
    4.9940    0.9504   20.0280 C   0  0  0  0  0  0  0  0  0  0  0  0
    5.0842    1.0427   22.2035 H   0  0  0  0  0  0  0  0  0  0  0  0
    3.1524    2.5401   22.4239 H   0  0  0  0  0  0  0  0  0  0  0  0
    1.9360    3.3298   20.4146 H   0  0  0  0  0  0  0  0  0  0  0  0
    2.6746    2.6273   18.1573 H   0  0  0  0  0  0  0  0  0  0  0  0
    4.2188    1.3860   16.7257 H   0  0  0  0  0  0  0  0  0  0  0  0
    7.3018   -0.8595   18.2943 H   0  0  0  0  0  0  0  0  0  0  0  0
    8.3024   -0.3446   20.9318 C   0  0  0  0  0  0  0  0  0  0  0  0
    8.6173   -0.8887   22.3359 C   0  0  2  0  0  0  0  0  0  0  0  0
   10.0116   -1.5040   22.4181 C   0  0  0  0  0  0  0  0  0  0  0  0
   10.1360   -2.2937   21.6662 H   0  0  0  0  0  0  0  0  0  0  0  0
   10.1948   -1.9439   23.4046 H   0  0  0  0  0  0  0  0  0  0  0  0
   10.7779   -0.7460   22.2338 H   0  0  0  0  0  0  0  0  0  0  0  0
    8.5744   -0.0409   23.0270 H   0  0  0  0  0  0  0  0  0  0  0  0
    8.8050   -0.9448   20.1557 H   0  0  0  0  0  0  0  0  0  0  0  0
    8.6216    0.6948   20.8116 H   0  0  0  0  0  0  0  0  0  0  0  0
    6.9142   -1.7691   24.1043 C   0  0  0  0  0  0  0  0  0  0  0  0
    6.8869   -0.5631   24.8169 C   0  0  0  0  0  0  0  0  0  0  0  0
    6.4010   -0.5585   26.1105 C   0  0  0  0  0  0  0  0  0  0  0  0
    6.3382    0.6073   26.7733 F   0  0  0  0  0  0  0  0  0  0  0  0
    5.9676   -1.7029   26.7688 C   0  0  0  0  0  0  0  0  0  0  0  0
    5.9383   -2.8746   26.0432 C   0  0  0  0  0  0  0  0  0  0  0  0
    6.3327   -2.8928   24.7074 C   0  0  0  0  0  0  0  0  0  0  0  0
    6.0176   -4.1042   23.8930 C   0  0  0  0  0  0  0  0  0  0  0  0
    5.1622   -4.9184   24.2270 O   0  0  0  0  0  0  0  0  0  0  0  0
    5.5790   -3.7967   26.4813 H   0  0  0  0  0  0  0  0  0  0  0  0
    5.6143   -1.6524   27.7944 H   0  0  0  0  0  0  0  0  0  0  0  0
    7.2122    0.3790   24.3868 H   0  0  0  0  0  0  0  0  0  0  0  0
    8.7052   -3.6023   22.9462 H   0  0  0  0  0  0  0  0  0  0  0  0
    8.0076   -3.4523   21.3241 H   0  0  0  0  0  0  0  0  0  0  0  0
    5.2340   -5.5222   22.1023 H   0  0  0  0  0  0  0  0  0  0  0  0
    6.1008   -4.7215   20.7819 H   0  0  0  0  0  0  0  0  0  0  0  0
    6.1059   -7.1928   23.2617 H   0  0  0  0  0  0  0  0  0  0  0  0
    8.5797   -8.3090   23.4522 H   0  0  0  0  0  0  0  0  0  0  0  0
    7.1104   -9.3300   23.2161 H   0  0  0  0  0  0  0  0  0  0  0  0
    8.0698   -8.8243   21.8300 H   0  0  0  0  0  0  0  0  0  0  0  0
  1  2  1  0
  2  3  1  0
  3  4  2  0
  3  5  1  0
  5  6  1  0
  6  7  1  0
  8  7  1  6
  8  9  1  0
  9 10  2  0
  9 11  1  0
 11 12  1  0
 12 13  2  0
 13 14  1  0
 14 15  2  0
 15 16  1  0
 16 17  2  0
 17 18  1  0
 18 19  2  0
 19 20  1  0
 20 21  2  0
 20 22  1  0
 19 23  1  0
 18 24  1  0
 17 25  1  0
 15 26  1  0
 13 27  1  0
 11 28  1  0
 28 29  1  0
 29 30  1  0
 30 31  1  0
 30 32  1  0
 30 33  1  0
 29 34  1  1
 28 35  1  0
 28 36  1  0
  8 37  1  0
 37 38  2  0
 38 39  1  0
 39 40  1  0
 39 41  2  0
 41 42  1  0
 42 43  2  0
 43 44  1  0
 44 45  2  0
 42 46  1  0
 41 47  1  0
 38 48  1  0
  7 49  1  0
  7 50  1  0
  5 51  1  0
  5 52  1  0
  2 53  1  0
  1 54  1  0
  1 55  1  0
  1 56  1  0
 44  6  1  0
 29  8  1  0
 43 37  1  0
 21 12  1  0
 21 16  1  0
M  END
>  <cnnaffinities>  (48) 
[6.38301]

>  <score>  (48) 
6.38301

>  <index>  (48) 
47

>  <Smiles>  (48) 
C(N(C(=O)C(N1C([C@@]2(C(=O)N(c3c(nc(c4c(c(c(c(c34)[H])[H])[H])[H])[H])[H])C([C@@]2(C([H])([H])[H])[H])([H])[H])c2c(c(F)c(c(c2C1=O)[H])[H])[H])([H])[H])([H])[H])[H])([H])([H])[H]

>  <h>  (48) 
<NA>

>  <Training>  (48) 
True

>  <Success>  (48) 
True

>  <enamine_searched>  (48) 
False

>  <enamine_id>  (48) 
nan

$$$$

     RDKit          3D

 41 43  0  0  0  0  0  0  0  0999 V2000
   10.9124   -2.4405   23.7869 C   0  0  0  0  0  0  0  0  0  0  0  0
   10.0170   -1.2674   23.4568 C   0  0  1  0  0  0  0  0  0  0  0  0
    8.5429   -1.5710   23.7528 C   0  0  0  0  0  0  0  0  0  0  0  0
    7.6629   -0.3158   23.8320 C   0  0  0  0  0  0  0  0  0  0  0  0
    8.0171    0.7486   22.8949 N   0  0  0  0  0  0  0  0  0  0  0  0
    7.8622    0.6369   21.5252 C   0  0  0  0  0  0  0  0  0  0  0  0
    8.4376    1.3988   20.7671 O   0  0  0  0  0  0  0  0  0  0  0  0
    6.9378   -0.4477   20.9206 C   0  0  0  0  0  0  0  0  0  0  0  0
    6.1112    0.0848   19.7694 C   0  0  0  0  0  0  0  0  0  0  0  0
    6.4264   -0.2068   18.4653 C   0  0  0  0  0  0  0  0  0  0  0  0
    5.7590    0.2470   17.3714 N   0  0  0  0  0  0  0  0  0  0  0  0
    4.7313    1.0313   17.5775 C   0  0  0  0  0  0  0  0  0  0  0  0
    4.2849    1.4248   18.8689 C   0  0  0  0  0  0  0  0  0  0  0  0
    3.1682    2.2819   19.0434 C   0  0  0  0  0  0  0  0  0  0  0  0
    2.7640    2.6465   20.2996 C   0  0  0  0  0  0  0  0  0  0  0  0
    3.4647    2.1703   21.4295 C   0  0  0  0  0  0  0  0  0  0  0  0
    4.5490    1.3396   21.2861 C   0  0  0  0  0  0  0  0  0  0  0  0
    4.9918    0.9424   19.9965 C   0  0  0  0  0  0  0  0  0  0  0  0
    5.0714    0.9901   22.1708 H   0  0  0  0  0  0  0  0  0  0  0  0
    3.1370    2.4637   22.4215 H   0  0  0  0  0  0  0  0  0  0  0  0
    1.9115    3.3056   20.4367 H   0  0  0  0  0  0  0  0  0  0  0  0
    2.6449    2.6493   18.1639 H   0  0  0  0  0  0  0  0  0  0  0  0
    4.1982    1.3989   16.6991 H   0  0  0  0  0  0  0  0  0  0  0  0
    7.2727   -0.8563   18.2437 H   0  0  0  0  0  0  0  0  0  0  0  0
    7.5901   -1.2393   20.5269 H   0  0  0  0  0  0  0  0  0  0  0  0
    6.2854   -0.9121   21.6668 H   0  0  0  0  0  0  0  0  0  0  0  0
    9.0465    1.6771   23.3759 C   0  0  0  0  0  0  0  0  0  0  0  0
   10.4536    1.0786   23.4662 C   0  0  0  0  0  0  0  0  0  0  0  0
   10.4887   -0.1381   24.1814 O   0  0  0  0  0  0  0  0  0  0  0  0
   10.8642    0.9345   22.4563 H   0  0  0  0  0  0  0  0  0  0  0  0
   11.1276    1.7687   23.9970 H   0  0  0  0  0  0  0  0  0  0  0  0
    8.7539    1.9988   24.3790 H   0  0  0  0  0  0  0  0  0  0  0  0
    9.0628    2.5597   22.7329 H   0  0  0  0  0  0  0  0  0  0  0  0
    6.6067   -0.5752   23.7189 H   0  0  0  0  0  0  0  0  0  0  0  0
    7.7519    0.1103   24.8313 H   0  0  0  0  0  0  0  0  0  0  0  0
    8.4668   -2.1275   24.6972 H   0  0  0  0  0  0  0  0  0  0  0  0
    8.1658   -2.2440   22.9723 H   0  0  0  0  0  0  0  0  0  0  0  0
   10.1185   -1.0531   22.3874 H   0  0  0  0  0  0  0  0  0  0  0  0
   10.5889   -3.3068   23.2114 H   0  0  0  0  0  0  0  0  0  0  0  0
   11.9486   -2.2235   23.5150 H   0  0  0  0  0  0  0  0  0  0  0  0
   10.8698   -2.6770   24.8529 H   0  0  0  0  0  0  0  0  0  0  0  0
  1  2  1  0
  2  3  1  0
  3  4  1  0
  4  5  1  0
  5  6  1  0
  6  7  2  0
  6  8  1  0
  8  9  1  0
  9 10  2  0
 10 11  1  0
 11 12  2  0
 12 13  1  0
 13 14  2  0
 14 15  1  0
 15 16  2  0
 16 17  1  0
 17 18  2  0
 17 19  1  0
 16 20  1  0
 15 21  1  0
 14 22  1  0
 12 23  1  0
 10 24  1  0
  8 25  1  0
  8 26  1  0
  5 27  1  0
 27 28  1  0
 28 29  1  0
 28 30  1  0
 28 31  1  0
 27 32  1  0
 27 33  1  0
  4 34  1  0
  4 35  1  0
  3 36  1  0
  3 37  1  0
  2 38  1  6
  1 39  1  0
  1 40  1  0
  1 41  1  0
 29  2  1  0
 18  9  1  0
 18 13  1  0
M  END
>  <cnnaffinities>  (49) 
[5.2631]

>  <score>  (49) 
5.2631

>  <index>  (49) 
48

>  <Smiles>  (49) 
C([C@]1(C(C(N(C(=O)C(c2c(nc(c3c(c(c(c(c23)[H])[H])[H])[H])[H])[H])([H])[H])C(C(O1)([H])[H])([H])[H])([H])[H])([H])[H])[H])([H])([H])[H]

>  <h>  (49) 
<NA>

>  <Training>  (49) 
True

>  <Success>  (49) 
True

>  <enamine_searched>  (49) 
False

>  <enamine_id>  (49) 
nan

$$$$

     RDKit          3D

 42 45  0  0  0  0  0  0  0  0999 V2000
   12.2332   -1.1618   22.4776 C   0  0  0  0  0  0  0  0  0  0  0  0
   10.8134   -1.2793   22.7096 N   0  0  0  0  0  0  0  0  0  0  0  0
    9.8770   -0.7060   21.7701 C   0  0  0  0  0  0  0  0  0  0  0  0
    8.6661   -0.2307   22.5681 C   0  0  1  0  0  0  0  0  0  0  0  0
    7.6639    0.4380   21.6404 C   0  0  0  0  0  0  0  0  0  0  0  0
    7.5746    1.6497   21.5783 O   0  0  0  0  0  0  0  0  0  0  0  0
    6.9117   -0.4000   20.8407 N   0  0  0  0  0  0  0  0  0  0  0  0
    6.1246    0.1024   19.7704 C   0  0  0  0  0  0  0  0  0  0  0  0
    6.4363   -0.2193   18.4750 C   0  0  0  0  0  0  0  0  0  0  0  0
    5.7646    0.2378   17.3898 N   0  0  0  0  0  0  0  0  0  0  0  0
    4.7439    1.0285   17.5933 C   0  0  0  0  0  0  0  0  0  0  0  0
    4.2905    1.4193   18.8794 C   0  0  0  0  0  0  0  0  0  0  0  0
    3.1642    2.2676   19.0538 C   0  0  0  0  0  0  0  0  0  0  0  0
    2.7385    2.6046   20.3072 C   0  0  0  0  0  0  0  0  0  0  0  0
    3.4163    2.1029   21.4428 C   0  0  0  0  0  0  0  0  0  0  0  0
    4.5058    1.2827   21.2997 C   0  0  0  0  0  0  0  0  0  0  0  0
    4.9909    0.9367   20.0101 C   0  0  0  0  0  0  0  0  0  0  0  0
    5.0167    0.8959   22.1752 H   0  0  0  0  0  0  0  0  0  0  0  0
    3.0689    2.3697   22.4349 H   0  0  0  0  0  0  0  0  0  0  0  0
    1.8796    3.2566   20.4409 H   0  0  0  0  0  0  0  0  0  0  0  0
    2.6571    2.6402   18.1666 H   0  0  0  0  0  0  0  0  0  0  0  0
    4.2152    1.3909   16.7104 H   0  0  0  0  0  0  0  0  0  0  0  0
    7.2808   -0.8696   18.2520 H   0  0  0  0  0  0  0  0  0  0  0  0
    7.1333   -1.3870   20.8428 H   0  0  0  0  0  0  0  0  0  0  0  0
    8.1481   -1.3455   23.4520 C   0  0  0  0  0  0  0  0  0  0  0  0
    6.8447   -1.3111   23.9375 C   0  0  0  0  0  0  0  0  0  0  0  0
    6.3885   -2.3272   24.7557 C   0  0  0  0  0  0  0  0  0  0  0  0
    4.7417   -2.2859   25.3109 Cl  0  0  0  0  0  0  0  0  0  0  0  0
    7.2160   -3.3792   25.1420 C   0  0  0  0  0  0  0  0  0  0  0  0
    8.5312   -3.3858   24.7104 C   0  0  0  0  0  0  0  0  0  0  0  0
    9.0018   -2.3665   23.8806 C   0  0  0  0  0  0  0  0  0  0  0  0
   10.4506   -2.3106   23.5346 C   0  0  0  0  0  0  0  0  0  0  0  0
   11.2817   -3.0929   23.9830 O   0  0  0  0  0  0  0  0  0  0  0  0
    9.2157   -4.1667   25.0309 H   0  0  0  0  0  0  0  0  0  0  0  0
    6.8317   -4.1606   25.7874 H   0  0  0  0  0  0  0  0  0  0  0  0
    6.1843   -0.4931   23.6726 H   0  0  0  0  0  0  0  0  0  0  0  0
    9.0274    0.5752   23.2132 H   0  0  0  0  0  0  0  0  0  0  0  0
   10.3709    0.1516   21.3067 H   0  0  0  0  0  0  0  0  0  0  0  0
    9.5752   -1.3977   20.9597 H   0  0  0  0  0  0  0  0  0  0  0  0
   12.4336   -0.4478   21.6757 H   0  0  0  0  0  0  0  0  0  0  0  0
   12.5958   -2.1602   22.2344 H   0  0  0  0  0  0  0  0  0  0  0  0
   12.7407   -0.8123   23.3808 H   0  0  0  0  0  0  0  0  0  0  0  0
  1  2  1  0
  2  3  1  0
  3  4  1  0
  4  5  1  0
  5  6  2  0
  5  7  1  0
  7  8  1  0
  8  9  2  0
  9 10  1  0
 10 11  2  0
 11 12  1  0
 12 13  2  0
 13 14  1  0
 14 15  2  0
 15 16  1  0
 16 17  2  0
 16 18  1  0
 15 19  1  0
 14 20  1  0
 13 21  1  0
 11 22  1  0
  9 23  1  0
  7 24  1  0
  4 25  1  0
 25 26  2  0
 26 27  1  0
 27 28  1  0
 27 29  2  0
 29 30  1  0
 30 31  2  0
 31 32  1  0
 32 33  2  0
 30 34  1  0
 29 35  1  0
 26 36  1  0
  4 37  1  1
  3 38  1  0
  3 39  1  0
  1 40  1  0
  1 41  1  0
  1 42  1  0
 32  2  1  0
 17  8  1  0
 31 25  1  0
 17 12  1  0
M  END
>  <cnnaffinities>  (50) 
[5.90271, 5.5448]

>  <score>  (50) 
5.90271

>  <index>  (50) 
49

>  <Smiles>  (50) 
C(N1C([C@@](C(=O)N(c2c(nc(c3c(c(c(c(c23)[H])[H])[H])[H])[H])[H])[H])(c2c(c(Cl)c(c(c2C1=O)[H])[H])[H])[H])([H])[H])([H])([H])[H]

>  <h>  (50) 
<NA>

>  <Training>  (50) 
True

>  <Success>  (50) 
True

>  <enamine_searched>  (50) 
False

>  <enamine_id>  (50) 
nan

$$$$

     RDKit          3D

 38 41  0  0  0  0  0  0  0  0999 V2000
    8.5196    1.0480   20.1599 O   0  0  0  0  0  0  0  0  0  0  0  0
    7.9116    0.5112   21.0693 C   0  0  0  0  0  0  0  0  0  0  0  0
    6.8171   -0.5230   20.7560 C   0  0  0  0  0  0  0  0  0  0  0  0
    5.9653    0.0205   19.6515 C   0  0  0  0  0  0  0  0  0  0  0  0
    6.3129   -0.2166   18.3472 C   0  0  0  0  0  0  0  0  0  0  0  0
    5.6613    0.2856   17.2723 N   0  0  0  0  0  0  0  0  0  0  0  0
    4.6482    1.0792   17.5064 C   0  0  0  0  0  0  0  0  0  0  0  0
    4.1972    1.4362   18.8038 C   0  0  0  0  0  0  0  0  0  0  0  0
    3.1137    2.3254   18.9996 C   0  0  0  0  0  0  0  0  0  0  0  0
    2.7347    2.6904   20.2565 C   0  0  0  0  0  0  0  0  0  0  0  0
    3.4313    2.1918   21.3778 C   0  0  0  0  0  0  0  0  0  0  0  0
    4.4855    1.3225   21.2190 C   0  0  0  0  0  0  0  0  0  0  0  0
    4.8873    0.9117   19.9212 C   0  0  0  0  0  0  0  0  0  0  0  0
    5.0102    0.9742   22.1020 H   0  0  0  0  0  0  0  0  0  0  0  0
    3.1395    2.4946   22.3771 H   0  0  0  0  0  0  0  0  0  0  0  0
    1.9016    3.3736   20.4063 H   0  0  0  0  0  0  0  0  0  0  0  0
    2.6166    2.7182   18.1165 H   0  0  0  0  0  0  0  0  0  0  0  0
    4.1388    1.4990   16.6396 H   0  0  0  0  0  0  0  0  0  0  0  0
    7.1783   -0.8374   18.1109 H   0  0  0  0  0  0  0  0  0  0  0  0
    7.3356   -1.4316   20.4182 H   0  0  0  0  0  0  0  0  0  0  0  0
    6.2313   -0.8309   21.6261 H   0  0  0  0  0  0  0  0  0  0  0  0
    8.2314    0.7834   22.3681 N   0  0  0  0  0  0  0  0  0  0  0  0
    7.4225    0.4555   23.5335 C   0  0  0  0  0  0  0  0  0  0  0  0
    8.0653   -0.7229   24.2496 C   0  0  0  0  0  0  0  0  0  0  0  0
    9.5311   -0.4224   24.3934 C   0  0  0  0  0  0  0  0  0  0  0  0
   10.5302   -1.1762   25.5599 S   0  0  0  0  0  0  0  0  0  0  0  0
   11.9065   -0.2496   25.0983 C   0  0  0  0  0  0  0  0  0  0  0  0
   11.6118    0.5754   24.0539 C   0  0  0  0  0  0  0  0  0  0  0  0
   10.2412    0.4845   23.6676 C   0  0  0  0  0  0  0  0  0  0  0  0
    9.5660    1.3222   22.6287 C   0  0  0  0  0  0  0  0  0  0  0  0
   10.1554    1.3091   21.7046 H   0  0  0  0  0  0  0  0  0  0  0  0
    9.5118    2.3778   22.9425 H   0  0  0  0  0  0  0  0  0  0  0  0
   12.3379    1.2142   23.5606 H   0  0  0  0  0  0  0  0  0  0  0  0
   12.8162   -0.3433   25.6786 H   0  0  0  0  0  0  0  0  0  0  0  0
    7.5727   -0.9130   25.2074 H   0  0  0  0  0  0  0  0  0  0  0  0
    7.9587   -1.6298   23.6388 H   0  0  0  0  0  0  0  0  0  0  0  0
    6.3895    0.2366   23.2484 H   0  0  0  0  0  0  0  0  0  0  0  0
    7.3784    1.3358   24.1935 H   0  0  0  0  0  0  0  0  0  0  0  0
  1  2  2  0
  2  3  1  0
  3  4  1  0
  4  5  2  0
  5  6  1  0
  6  7  2  0
  7  8  1  0
  8  9  2  0
  9 10  1  0
 10 11  2  0
 11 12  1  0
 12 13  2  0
 12 14  1  0
 11 15  1  0
 10 16  1  0
  9 17  1  0
  7 18  1  0
  5 19  1  0
  3 20  1  0
  3 21  1  0
  2 22  1  0
 22 23  1  0
 23 24  1  0
 24 25  1  0
 25 26  1  0
 26 27  1  0
 27 28  2  0
 28 29  1  0
 29 30  1  0
 30 31  1  0
 30 32  1  0
 28 33  1  0
 27 34  1  0
 24 35  1  0
 24 36  1  0
 23 37  1  0
 23 38  1  0
 13  4  1  0
 30 22  1  0
 13  8  1  0
 29 25  2  0
M  END
>  <cnnaffinities>  (51) 
[5.29612, 5.19084]

>  <score>  (51) 
5.29612

>  <index>  (51) 
50

>  <Smiles>  (51) 
O=C(C(c1c(nc(c2c(c(c(c(c12)[H])[H])[H])[H])[H])[H])([H])[H])N1C(C(c2sc(c(c2C1([H])[H])[H])[H])([H])[H])([H])[H]

>  <h>  (51) 
<NA>

>  <Training>  (51) 
True

>  <Success>  (51) 
True

>  <enamine_searched>  (51) 
False

>  <enamine_id>  (51) 
nan

$$$$

     RDKit          3D

 67 73  0  0  0  0  0  0  0  0999 V2000
    6.5412    5.4686   21.6193 C   0  0  0  0  0  0  0  0  0  0  0  0
    5.9402    4.6936   22.7406 C   0  0  0  0  0  0  0  0  0  0  0  0
    4.8421    4.8519   23.4026 N   0  0  0  0  0  0  0  0  0  0  0  0
    4.8206    3.8558   24.3815 N   0  0  0  0  0  0  0  0  0  0  0  0
    5.9120    3.1870   24.2310 C   0  0  0  0  0  0  0  0  0  0  0  0
    6.4856    2.0867   25.0683 C   0  0  0  0  0  0  0  0  0  0  0  0
    7.5986    1.4639   24.3984 N   0  0  0  0  0  0  0  0  0  0  0  0
    7.4646    0.1473   23.8039 C   0  0  0  0  0  0  0  0  0  0  0  0
    8.2815   -0.0143   22.4902 C   0  0  2  0  0  0  0  0  0  0  0  0
    7.6654    0.8337   21.3257 C   0  0  0  0  0  0  0  0  0  0  0  0
    7.8668    1.9985   21.0685 O   0  0  0  0  0  0  0  0  0  0  0  0
    6.8337   -0.0038   20.5976 N   0  0  0  0  0  0  0  0  0  0  0  0
    5.9828    0.4216   19.5466 C   0  0  0  0  0  0  0  0  0  0  0  0
    6.2236    0.0164   18.2584 C   0  0  0  0  0  0  0  0  0  0  0  0
    5.4973    0.4054   17.1833 N   0  0  0  0  0  0  0  0  0  0  0  0
    4.4764    1.1985   17.3914 C   0  0  0  0  0  0  0  0  0  0  0  0
    4.0623    1.6312   18.6828 C   0  0  0  0  0  0  0  0  0  0  0  0
    2.9189    2.4522   18.8769 C   0  0  0  0  0  0  0  0  0  0  0  0
    2.5053    2.7739   20.1400 C   0  0  0  0  0  0  0  0  0  0  0  0
    3.2084    2.2881   21.2674 C   0  0  0  0  0  0  0  0  0  0  0  0
    4.3332    1.5204   21.1069 C   0  0  0  0  0  0  0  0  0  0  0  0
    4.8081    1.2001   19.8052 C   0  0  0  0  0  0  0  0  0  0  0  0
    4.8610    1.1190   21.9690 H   0  0  0  0  0  0  0  0  0  0  0  0
    2.8483    2.5199   22.2646 H   0  0  0  0  0  0  0  0  0  0  0  0
    1.6281    3.3989   20.2869 H   0  0  0  0  0  0  0  0  0  0  0  0
    2.3797    2.8090   18.0030 H   0  0  0  0  0  0  0  0  0  0  0  0
    3.9119    1.5151   16.5147 H   0  0  0  0  0  0  0  0  0  0  0  0
    7.0587   -0.6527   18.0531 H   0  0  0  0  0  0  0  0  0  0  0  0
    6.7954   -1.3549   21.1069 C   0  0  0  0  0  0  0  0  0  0  0  0
    8.1018   -1.4531   21.8891 C   0  0  2  0  0  0  0  0  0  0  0  0
    8.1320   -2.6405   22.8532 C   0  0  0  0  0  0  0  0  0  0  0  0
    7.7479   -3.9082   22.2310 N   0  0  0  0  0  0  0  0  0  0  0  0
    7.9848   -5.0656   22.9245 C   0  0  0  0  0  0  0  0  0  0  0  0
    7.9713   -6.3163   22.2651 C   0  0  0  0  0  0  0  0  0  0  0  0
    8.4345   -7.3831   22.9993 C   0  0  0  0  0  0  0  0  0  0  0  0
    8.7889   -7.2866   24.2908 N   0  0  0  0  0  0  0  0  0  0  0  0
    8.6438   -6.0936   24.8403 C   0  0  0  0  0  0  0  0  0  0  0  0
    8.2674   -4.9659   24.2314 N   0  0  0  0  0  0  0  0  0  0  0  0
    8.8815   -6.0369   25.9085 H   0  0  0  0  0  0  0  0  0  0  0  0
    8.5544   -8.3762   22.5653 H   0  0  0  0  0  0  0  0  0  0  0  0
    7.6483   -6.4031   21.2265 H   0  0  0  0  0  0  0  0  0  0  0  0
    7.8581   -3.9714   21.2251 H   0  0  0  0  0  0  0  0  0  0  0  0
    9.1353   -2.7302   23.2825 H   0  0  0  0  0  0  0  0  0  0  0  0
    7.4579   -2.4913   23.7018 H   0  0  0  0  0  0  0  0  0  0  0  0
    8.8965   -1.5969   21.1471 H   0  0  0  0  0  0  0  0  0  0  0  0
    6.7241   -2.0697   20.2846 H   0  0  0  0  0  0  0  0  0  0  0  0
    5.9359   -1.5207   21.7785 H   0  0  0  0  0  0  0  0  0  0  0  0
    9.6895    0.4499   22.8176 C   0  0  0  0  0  0  0  0  0  0  0  0
   10.8053   -0.0483   22.1465 C   0  0  0  0  0  0  0  0  0  0  0  0
   12.0448    0.5227   22.3734 C   0  0  0  0  0  0  0  0  0  0  0  0
   13.4012   -0.0255   21.4727 Cl  0  0  0  0  0  0  0  0  0  0  0  0
   12.2566    1.5721   23.2611 C   0  0  0  0  0  0  0  0  0  0  0  0
   11.1660    2.0705   23.9285 C   0  0  0  0  0  0  0  0  0  0  0  0
    9.9073    1.5148   23.7128 C   0  0  0  0  0  0  0  0  0  0  0  0
    8.7873    2.1285   24.4729 C   0  0  0  0  0  0  0  0  0  0  0  0
    8.9251    3.1530   25.1305 O   0  0  0  0  0  0  0  0  0  0  0  0
   11.2567    2.9138   24.6048 H   0  0  0  0  0  0  0  0  0  0  0  0
   13.2563    1.9731   23.3950 H   0  0  0  0  0  0  0  0  0  0  0  0
   10.7271   -0.8735   21.4459 H   0  0  0  0  0  0  0  0  0  0  0  0
    6.4027   -0.0330   23.6055 H   0  0  0  0  0  0  0  0  0  0  0  0
    7.8163   -0.6050   24.5227 H   0  0  0  0  0  0  0  0  0  0  0  0
    5.7217    1.3460   25.3134 H   0  0  0  0  0  0  0  0  0  0  0  0
    6.8537    2.5135   26.0085 H   0  0  0  0  0  0  0  0  0  0  0  0
    6.6581    3.6459   23.2013 O   0  0  0  0  0  0  0  0  0  0  0  0
    7.6303    5.4216   21.7075 H   0  0  0  0  0  0  0  0  0  0  0  0
    6.2179    6.5106   21.6371 H   0  0  0  0  0  0  0  0  0  0  0  0
    6.2651    5.0261   20.6552 H   0  0  0  0  0  0  0  0  0  0  0  0
  1  2  1  0
  2  3  2  0
  3  4  1  0
  4  5  2  0
  5  6  1  0
  6  7  1  0
  7  8  1  0
  9  8  1  1
  9 10  1  0
 10 11  2  0
 10 12  1  0
 12 13  1  0
 13 14  2  0
 14 15  1  0
 15 16  2  0
 16 17  1  0
 17 18  2  0
 18 19  1  0
 19 20  2  0
 20 21  1  0
 21 22  2  0
 21 23  1  0
 20 24  1  0
 19 25  1  0
 18 26  1  0
 16 27  1  0
 14 28  1  0
 12 29  1  0
 29 30  1  0
 30 31  1  0
 31 32  1  0
 32 33  1  0
 33 34  2  0
 34 35  1  0
 35 36  2  0
 36 37  1  0
 37 38  2  0
 37 39  1  0
 35 40  1  0
 34 41  1  0
 32 42  1  0
 31 43  1  0
 31 44  1  0
 30 45  1  6
 29 46  1  0
 29 47  1  0
  9 48  1  0
 48 49  2  0
 49 50  1  0
 50 51  1  0
 50 52  2  0
 52 53  1  0
 53 54  2  0
 54 55  1  0
 55 56  2  0
 53 57  1  0
 52 58  1  0
 49 59  1  0
  8 60  1  0
  8 61  1  0
  6 62  1  0
  6 63  1  0
  5 64  1  0
  1 65  1  0
  1 66  1  0
  1 67  1  0
 64  2  1  0
 55  7  1  0
 30  9  1  0
 38 33  1  0
 54 48  1  0
 22 13  1  0
 22 17  1  0
M  END
>  <cnnaffinities>  (52) 
[6.75814]

>  <score>  (52) 
6.75814

>  <index>  (52) 
51

>  <Smiles>  (52) 
C(c1nnc(C(N2C([C@@]3(C(=O)N(c4c(nc(c5c(c(c(c(c45)[H])[H])[H])[H])[H])[H])C([C@@]3(C(N(c3c(c(nc(n3)[H])[H])[H])[H])([H])[H])[H])([H])[H])c3c(c(Cl)c(c(c3C2=O)[H])[H])[H])([H])[H])([H])[H])o1)([H])([H])[H]

>  <h>  (52) 
<NA>

>  <Training>  (52) 
True

>  <Success>  (52) 
True

>  <enamine_searched>  (52) 
False

>  <enamine_id>  (52) 
nan

$$$$

     RDKit          3D

 66 71  0  0  0  0  0  0  0  0999 V2000
    6.5102    4.2643   21.2685 C   0  0  0  0  0  0  0  0  0  0  0  0
    7.5012    3.8954   22.2662 N   0  0  0  0  0  0  0  0  0  0  0  0
    7.0529    3.2916   23.4058 C   0  0  0  0  0  0  0  0  0  0  0  0
    5.8626    3.1019   23.6011 O   0  0  0  0  0  0  0  0  0  0  0  0
    8.0874    2.8469   24.4443 C   0  0  0  0  0  0  0  0  0  0  0  0
    8.7471    1.6219   24.0162 N   0  0  0  0  0  0  0  0  0  0  0  0
    7.9901    0.3798   23.8648 C   0  0  0  0  0  0  0  0  0  0  0  0
    8.4065   -0.4274   22.5995 C   0  0  2  0  0  0  0  0  0  0  0  0
    7.9412    0.2757   21.3017 C   0  0  0  0  0  0  0  0  0  0  0  0
    8.4522    1.2336   20.7564 O   0  0  0  0  0  0  0  0  0  0  0  0
    6.8510   -0.4060   20.8187 N   0  0  0  0  0  0  0  0  0  0  0  0
    6.0987    0.1083   19.7438 C   0  0  0  0  0  0  0  0  0  0  0  0
    6.4585   -0.1784   18.4522 C   0  0  0  0  0  0  0  0  0  0  0  0
    5.7814    0.2649   17.3708 N   0  0  0  0  0  0  0  0  0  0  0  0
    4.7366    1.0281   17.5820 C   0  0  0  0  0  0  0  0  0  0  0  0
    4.2773    1.4188   18.8722 C   0  0  0  0  0  0  0  0  0  0  0  0
    3.1692    2.2858   19.0516 C   0  0  0  0  0  0  0  0  0  0  0  0
    2.7736    2.6537   20.3096 C   0  0  0  0  0  0  0  0  0  0  0  0
    3.4656    2.1826   21.4459 C   0  0  0  0  0  0  0  0  0  0  0  0
    4.5438    1.3398   21.2980 C   0  0  0  0  0  0  0  0  0  0  0  0
    4.9713    0.9379   20.0003 C   0  0  0  0  0  0  0  0  0  0  0  0
    5.1140    1.0424   22.1724 H   0  0  0  0  0  0  0  0  0  0  0  0
    3.1721    2.5097   22.4387 H   0  0  0  0  0  0  0  0  0  0  0  0
    1.9270    3.3209   20.4394 H   0  0  0  0  0  0  0  0  0  0  0  0
    2.6620    2.6561   18.1674 H   0  0  0  0  0  0  0  0  0  0  0  0
    4.1967    1.3831   16.7058 H   0  0  0  0  0  0  0  0  0  0  0  0
    7.3342   -0.7962   18.2632 H   0  0  0  0  0  0  0  0  0  0  0  0
    6.4308   -1.5345   21.6170 C   0  0  0  0  0  0  0  0  0  0  0  0
    7.6780   -1.7986   22.4661 C   0  0  2  0  0  0  0  0  0  0  0  0
    7.4454   -2.5689   23.7694 C   0  0  0  0  0  0  0  0  0  0  0  0
    6.9693   -3.9245   23.5833 N   0  0  0  0  0  0  0  0  0  0  0  0
    5.6766   -4.2778   23.3407 C   0  0  0  0  0  0  0  0  0  0  0  0
    4.5711   -3.4861   23.7122 C   0  0  0  0  0  0  0  0  0  0  0  0
    3.3288   -4.0037   23.4088 C   0  0  0  0  0  0  0  0  0  0  0  0
    3.1467   -5.1683   22.7734 N   0  0  0  0  0  0  0  0  0  0  0  0
    4.2598   -5.8248   22.4754 C   0  0  0  0  0  0  0  0  0  0  0  0
    5.5096   -5.4682   22.7377 N   0  0  0  0  0  0  0  0  0  0  0  0
    4.1362   -6.7721   21.9492 H   0  0  0  0  0  0  0  0  0  0  0  0
    2.4259   -3.4619   23.6832 H   0  0  0  0  0  0  0  0  0  0  0  0
    4.6641   -2.5199   24.2065 H   0  0  0  0  0  0  0  0  0  0  0  0
    7.6342   -4.5841   23.2062 H   0  0  0  0  0  0  0  0  0  0  0  0
    6.7301   -2.0268   24.3934 H   0  0  0  0  0  0  0  0  0  0  0  0
    8.3962   -2.6007   24.3189 H   0  0  0  0  0  0  0  0  0  0  0  0
    8.3146   -2.4225   21.8368 H   0  0  0  0  0  0  0  0  0  0  0  0
    6.1662   -2.3807   20.9756 H   0  0  0  0  0  0  0  0  0  0  0  0
    5.5478   -1.2955   22.2266 H   0  0  0  0  0  0  0  0  0  0  0  0
    9.9159   -0.5052   22.5612 C   0  0  0  0  0  0  0  0  0  0  0  0
   10.5456   -1.4165   21.7077 C   0  0  0  0  0  0  0  0  0  0  0  0
   11.8993   -1.3304   21.4600 C   0  0  0  0  0  0  0  0  0  0  0  0
   12.5506   -2.4041   20.2488 Cl  0  0  0  0  0  0  0  0  0  0  0  0
   12.6923   -0.3691   22.0923 C   0  0  0  0  0  0  0  0  0  0  0  0
   12.0893    0.4942   22.9811 C   0  0  0  0  0  0  0  0  0  0  0  0
   10.7068    0.4812   23.1552 C   0  0  0  0  0  0  0  0  0  0  0  0
   10.0996    1.6718   23.8240 C   0  0  0  0  0  0  0  0  0  0  0  0
   10.7752    2.6478   24.1311 O   0  0  0  0  0  0  0  0  0  0  0  0
   12.6700    1.2329   23.5205 H   0  0  0  0  0  0  0  0  0  0  0  0
   13.7434   -0.2498   21.8511 H   0  0  0  0  0  0  0  0  0  0  0  0
   10.0003   -2.1635   21.1484 H   0  0  0  0  0  0  0  0  0  0  0  0
    8.1553   -0.2463   24.7524 H   0  0  0  0  0  0  0  0  0  0  0  0
    6.9237    0.6243   23.8192 H   0  0  0  0  0  0  0  0  0  0  0  0
    8.8831    3.5881   24.5712 H   0  0  0  0  0  0  0  0  0  0  0  0
    7.5845    2.7185   25.4165 H   0  0  0  0  0  0  0  0  0  0  0  0
    8.4203    3.6618   21.9190 H   0  0  0  0  0  0  0  0  0  0  0  0
    5.8004    4.9785   21.6917 H   0  0  0  0  0  0  0  0  0  0  0  0
    7.0141    4.7328   20.4251 H   0  0  0  0  0  0  0  0  0  0  0  0
    5.9585    3.3857   20.9191 H   0  0  0  0  0  0  0  0  0  0  0  0
  1  2  1  0
  2  3  1  0
  3  4  2  0
  3  5  1  0
  5  6  1  0
  6  7  1  0
  8  7  1  1
  8  9  1  0
  9 10  2  0
  9 11  1  0
 11 12  1  0
 12 13  2  0
 13 14  1  0
 14 15  2  0
 15 16  1  0
 16 17  2  0
 17 18  1  0
 18 19  2  0
 19 20  1  0
 20 21  2  0
 20 22  1  0
 19 23  1  0
 18 24  1  0
 17 25  1  0
 15 26  1  0
 13 27  1  0
 11 28  1  0
 28 29  1  0
 29 30  1  0
 30 31  1  0
 31 32  1  0
 32 33  2  0
 33 34  1  0
 34 35  2  0
 35 36  1  0
 36 37  2  0
 36 38  1  0
 34 39  1  0
 33 40  1  0
 31 41  1  0
 30 42  1  0
 30 43  1  0
 29 44  1  6
 28 45  1  0
 28 46  1  0
  8 47  1  0
 47 48  2  0
 48 49  1  0
 49 50  1  0
 49 51  2  0
 51 52  1  0
 52 53  2  0
 53 54  1  0
 54 55  2  0
 52 56  1  0
 51 57  1  0
 48 58  1  0
  7 59  1  0
  7 60  1  0
  5 61  1  0
  5 62  1  0
  2 63  1  0
  1 64  1  0
  1 65  1  0
  1 66  1  0
 54  6  1  0
 29  8  1  0
 37 32  1  0
 53 47  1  0
 21 12  1  0
 21 16  1  0
M  END
>  <cnnaffinities>  (53) 
[6.79009, 6.33848]

>  <score>  (53) 
6.79009

>  <index>  (53) 
52

>  <Smiles>  (53) 
C(N(C(=O)C(N1C([C@@]2(C(=O)N(c3c(nc(c4c(c(c(c(c34)[H])[H])[H])[H])[H])[H])C([C@@]2(C(N(c2c(c(nc(n2)[H])[H])[H])[H])([H])[H])[H])([H])[H])c2c(c(Cl)c(c(c2C1=O)[H])[H])[H])([H])[H])([H])[H])[H])([H])([H])[H]

>  <h>  (53) 
<NA>

>  <Training>  (53) 
True

>  <Success>  (53) 
True

>  <enamine_searched>  (53) 
False

>  <enamine_id>  (53) 
nan

$$$$

     RDKit          3D

 77 84  0  0  0  0  0  0  0  0999 V2000
   10.1062    2.9666   24.1971 O   0  0  0  0  0  0  0  0  0  0  0  0
    9.6987    1.8190   24.0162 C   0  0  0  0  0  0  0  0  0  0  0  0
   10.5274    0.7836   23.3013 C   0  0  0  0  0  0  0  0  0  0  0  0
   11.9182    0.9172   23.2215 C   0  0  0  0  0  0  0  0  0  0  0  0
   12.6538    0.1145   22.3602 C   0  0  0  0  0  0  0  0  0  0  0  0
   11.9770   -0.7992   21.5480 C   0  0  0  0  0  0  0  0  0  0  0  0
   12.7243   -1.5839   20.1675 Cl  0  0  0  0  0  0  0  0  0  0  0  0
   10.6157   -0.9887   21.6782 C   0  0  0  0  0  0  0  0  0  0  0  0
    9.8865   -0.2569   22.6201 C   0  0  0  0  0  0  0  0  0  0  0  0
    8.3779   -0.4023   22.6928 C   0  0  1  0  0  0  0  0  0  0  0  0
    7.8590    0.1688   24.0332 C   0  0  0  0  0  0  0  0  0  0  0  0
    8.4379    1.4573   24.3756 N   0  0  0  0  0  0  0  0  0  0  0  0
    7.5380    2.4651   24.9353 C   0  0  0  0  0  0  0  0  0  0  0  0
    6.7979    3.2486   23.8573 C   0  0  0  0  0  0  0  0  0  0  0  0
    7.7264    4.1976   23.1776 N   0  0  0  0  0  4  0  0  0  0  0  0
    8.1968    5.4560   23.9268 C   0  0  0  0  0  0  0  0  0  0  0  0
    7.6972    6.3739   22.7911 C   0  0  0  0  0  0  0  0  0  0  0  0
    8.6243    7.3285   22.0551 C   0  0  0  0  0  0  0  0  0  0  0  0
    7.7071    8.4160   22.2212 O   0  0  0  0  0  0  0  0  0  0  0  0
    6.7965    7.5950   22.9620 C   0  0  0  0  0  0  0  0  0  0  0  0
    5.8194    7.5106   22.4669 H   0  0  0  0  0  0  0  0  0  0  0  0
    6.6444    7.9618   23.9859 H   0  0  0  0  0  0  0  0  0  0  0  0
    8.7941    7.0577   21.0062 H   0  0  0  0  0  0  0  0  0  0  0  0
    9.5899    7.5280   22.5373 H   0  0  0  0  0  0  0  0  0  0  0  0
    7.1577    5.1042   22.0988 C   0  0  0  0  0  0  0  0  0  0  0  0
    6.0711    5.0339   22.0503 H   0  0  0  0  0  0  0  0  0  0  0  0
    7.5795    4.8620   21.1273 H   0  0  0  0  0  0  0  0  0  0  0  0
    9.2751    5.4141   24.0629 H   0  0  0  0  0  0  0  0  0  0  0  0
    7.6956    5.5661   24.8866 H   0  0  0  0  0  0  0  0  0  0  0  0
    8.5338    3.6744   22.8061 H   0  0  0  0  0  0  0  0  0  0  0  0
    5.9432    3.8057   24.2623 H   0  0  0  0  0  0  0  0  0  0  0  0
    6.4364    2.5640   23.0885 H   0  0  0  0  0  0  0  0  0  0  0  0
    6.8099    1.9535   25.5721 H   0  0  0  0  0  0  0  0  0  0  0  0
    8.1206    3.1362   25.5742 H   0  0  0  0  0  0  0  0  0  0  0  0
    6.7718    0.2883   23.9465 H   0  0  0  0  0  0  0  0  0  0  0  0
    8.0639   -0.5541   24.8288 H   0  0  0  0  0  0  0  0  0  0  0  0
    7.7850    0.4109   21.5210 C   0  0  0  0  0  0  0  0  0  0  0  0
    8.0176    1.5702   21.2280 O   0  0  0  0  0  0  0  0  0  0  0  0
    6.9397   -0.4010   20.8141 N   0  0  0  0  0  0  0  0  0  0  0  0
    6.1506    0.1086   19.7651 C   0  0  0  0  0  0  0  0  0  0  0  0
    6.4618   -0.2358   18.4798 C   0  0  0  0  0  0  0  0  0  0  0  0
    5.7785    0.1989   17.3986 N   0  0  0  0  0  0  0  0  0  0  0  0
    4.7663    1.0002   17.6136 C   0  0  0  0  0  0  0  0  0  0  0  0
    4.3361    1.4243   18.9016 C   0  0  0  0  0  0  0  0  0  0  0  0
    3.2312    2.2964   19.0699 C   0  0  0  0  0  0  0  0  0  0  0  0
    2.8142    2.6550   20.3200 C   0  0  0  0  0  0  0  0  0  0  0  0
    3.4793    2.1559   21.4641 C   0  0  0  0  0  0  0  0  0  0  0  0
    4.5578    1.3147   21.3269 C   0  0  0  0  0  0  0  0  0  0  0  0
    5.0323    0.9503   20.0328 C   0  0  0  0  0  0  0  0  0  0  0  0
    5.0489    0.9216   22.2144 H   0  0  0  0  0  0  0  0  0  0  0  0
    3.1288    2.4403   22.4516 H   0  0  0  0  0  0  0  0  0  0  0  0
    1.9652    3.3213   20.4402 H   0  0  0  0  0  0  0  0  0  0  0  0
    2.7400    2.6677   18.1749 H   0  0  0  0  0  0  0  0  0  0  0  0
    4.2267    1.3527   16.7361 H   0  0  0  0  0  0  0  0  0  0  0  0
    7.3107   -0.8922   18.2934 H   0  0  0  0  0  0  0  0  0  0  0  0
    6.6654   -1.6695   21.4367 C   0  0  0  0  0  0  0  0  0  0  0  0
    7.8254   -1.8360   22.4202 C   0  0  2  0  0  0  0  0  0  0  0  0
    7.3720   -2.6779   23.6046 C   0  0  0  0  0  0  0  0  0  0  0  0
    8.4689   -2.9728   24.4909 N   0  0  0  0  0  0  0  0  0  0  0  0
    8.3295   -3.8326   25.5308 C   0  0  0  0  0  0  0  0  0  0  0  0
    9.4538   -4.2533   26.1360 N   0  0  0  0  0  0  0  0  0  0  0  0
    9.2828   -5.0717   27.1686 C   0  0  0  0  0  0  0  0  0  0  0  0
    8.0299   -5.4614   27.6275 C   0  0  0  0  0  0  0  0  0  0  0  0
    6.9487   -4.9698   26.9114 C   0  0  0  0  0  0  0  0  0  0  0  0
    7.0703   -4.1789   25.8505 N   0  0  0  0  0  0  0  0  0  0  0  0
    5.9322   -5.2283   27.1985 H   0  0  0  0  0  0  0  0  0  0  0  0
    7.8963   -6.1198   28.4784 H   0  0  0  0  0  0  0  0  0  0  0  0
   10.1960   -5.4381   27.6393 H   0  0  0  0  0  0  0  0  0  0  0  0
    9.4014   -2.7025   24.2250 H   0  0  0  0  0  0  0  0  0  0  0  0
    6.9231   -3.6072   23.2390 H   0  0  0  0  0  0  0  0  0  0  0  0
    6.5780   -2.1700   24.1624 H   0  0  0  0  0  0  0  0  0  0  0  0
    8.6271   -2.3875   21.9257 H   0  0  0  0  0  0  0  0  0  0  0  0
    5.6997   -1.6571   21.9701 H   0  0  0  0  0  0  0  0  0  0  0  0
    6.6196   -2.4665   20.6892 H   0  0  0  0  0  0  0  0  0  0  0  0
   10.1278   -1.6254   20.9506 H   0  0  0  0  0  0  0  0  0  0  0  0
   13.7270    0.2435   22.2687 H   0  0  0  0  0  0  0  0  0  0  0  0
   12.4071    1.6844   23.8123 H   0  0  0  0  0  0  0  0  0  0  0  0
  1  2  2  0
  2  3  1  0
  3  4  2  0
  4  5  1  0
  5  6  2  0
  6  7  1  0
  6  8  1  0
  8  9  2  0
  9 10  1  0
 10 11  1  1
 11 12  1  0
 12 13  1  0
 13 14  1  0
 14 15  1  0
 15 16  1  0
 16 17  1  0
 17 18  1  0
 18 19  1  0
 19 20  1  0
 20 21  1  0
 20 22  1  0
 18 23  1  0
 18 24  1  0
 17 25  1  0
 25 26  1  0
 25 27  1  0
 16 28  1  0
 16 29  1  0
 15 30  1  0
 14 31  1  0
 14 32  1  0
 13 33  1  0
 13 34  1  0
 11 35  1  0
 11 36  1  0
 10 37  1  0
 37 38  2  0
 37 39  1  0
 39 40  1  0
 40 41  2  0
 41 42  1  0
 42 43  2  0
 43 44  1  0
 44 45  2  0
 45 46  1  0
 46 47  2  0
 47 48  1  0
 48 49  2  0
 48 50  1  0
 47 51  1  0
 46 52  1  0
 45 53  1  0
 43 54  1  0
 41 55  1  0
 39 56  1  0
 56 57  1  0
 57 58  1  0
 58 59  1  0
 59 60  1  0
 60 61  2  0
 61 62  1  0
 62 63  2  0
 63 64  1  0
 64 65  2  0
 64 66  1  0
 63 67  1  0
 62 68  1  0
 59 69  1  0
 58 70  1  0
 58 71  1  0
 57 72  1  6
 56 73  1  0
 56 74  1  0
  8 75  1  0
  5 76  1  0
  4 77  1  0
 12  2  1  0
 25 15  1  0
 49 40  1  0
 65 60  1  0
  9  3  1  0
 57 10  1  0
 20 17  1  0
 49 44  1  0
M  CHG  1  15   1
M  END
>  <cnnaffinities>  (54) 
[6.40217]

>  <score>  (54) 
6.40217

>  <index>  (54) 
53

>  <Smiles>  (54) 
O=C1c2c(c(c(Cl)c(c2[C@@]2(C(N1C(C([N+]1(C(C3(C(OC3([H])[H])([H])[H])C1([H])[H])([H])[H])[H])([H])[H])([H])[H])([H])[H])C(=O)N(c1c(nc(c3c(c(c(c(c13)[H])[H])[H])[H])[H])[H])C([C@@]2(C(N(c1nc(c(c(n1)[H])[H])[H])[H])([H])[H])[H])([H])[H])[H])[H])[H]

>  <h>  (54) 
<NA>

>  <Training>  (54) 
True

>  <Success>  (54) 
True

>  <enamine_searched>  (54) 
False

>  <enamine_id>  (54) 
nan

$$$$

     RDKit          3D

 66 71  0  0  0  0  0  0  0  0999 V2000
    6.4737    4.3073   21.2488 C   0  0  0  0  0  0  0  0  0  0  0  0
    7.4260    3.9126   22.2681 N   0  0  0  0  0  0  0  0  0  0  0  0
    7.0017    3.3460   23.4229 C   0  0  0  0  0  0  0  0  0  0  0  0
    5.8178    3.1707   23.6840 O   0  0  0  0  0  0  0  0  0  0  0  0
    8.1049    2.9279   24.3985 C   0  0  0  0  0  0  0  0  0  0  0  0
    8.7680    1.6981   23.9896 N   0  0  0  0  0  0  0  0  0  0  0  0
    7.9606    0.5023   23.8103 C   0  0  0  0  0  0  0  0  0  0  0  0
    8.3743   -0.3381   22.5709 C   0  0  2  0  0  0  0  0  0  0  0  0
    7.9446    0.3771   21.2691 C   0  0  0  0  0  0  0  0  0  0  0  0
    8.4389    1.3834   20.8044 O   0  0  0  0  0  0  0  0  0  0  0  0
    6.8979   -0.3237   20.7126 N   0  0  0  0  0  0  0  0  0  0  0  0
    6.1226    0.1926   19.6512 C   0  0  0  0  0  0  0  0  0  0  0  0
    6.4387   -0.1184   18.3559 C   0  0  0  0  0  0  0  0  0  0  0  0
    5.7270    0.3136   17.2902 N   0  0  0  0  0  0  0  0  0  0  0  0
    4.6849    1.0744   17.5198 C   0  0  0  0  0  0  0  0  0  0  0  0
    4.2469    1.4644   18.8192 C   0  0  0  0  0  0  0  0  0  0  0  0
    3.1325    2.3168   19.0326 C   0  0  0  0  0  0  0  0  0  0  0  0
    2.7550    2.6686   20.3002 C   0  0  0  0  0  0  0  0  0  0  0  0
    3.4655    2.1819   21.4180 C   0  0  0  0  0  0  0  0  0  0  0  0
    4.5439    1.3510   21.2370 C   0  0  0  0  0  0  0  0  0  0  0  0
    4.9713    0.9843   19.9298 C   0  0  0  0  0  0  0  0  0  0  0  0
    5.1113    1.0247   22.1026 H   0  0  0  0  0  0  0  0  0  0  0  0
    3.1913    2.4874   22.4225 H   0  0  0  0  0  0  0  0  0  0  0  0
    1.9175    3.3412   20.4535 H   0  0  0  0  0  0  0  0  0  0  0  0
    2.6024    2.6951   18.1651 H   0  0  0  0  0  0  0  0  0  0  0  0
    4.1263    1.4225   16.6512 H   0  0  0  0  0  0  0  0  0  0  0  0
    7.3051   -0.7454   18.1488 H   0  0  0  0  0  0  0  0  0  0  0  0
    6.4094   -1.4181   21.5180 C   0  0  0  0  0  0  0  0  0  0  0  0
    7.5860   -1.6772   22.4576 C   0  0  2  0  0  0  0  0  0  0  0  0
    7.1828   -2.3856   23.7417 C   0  0  0  0  0  0  0  0  0  0  0  0
    8.3763   -2.8439   24.4078 N   0  0  0  0  0  0  0  0  0  0  0  0
    8.3017   -3.5612   25.5625 C   0  0  0  0  0  0  0  0  0  0  0  0
    9.4144   -4.3370   25.9695 C   0  0  0  0  0  0  0  0  0  0  0  0
    9.3893   -5.0647   27.0662 N   0  0  0  0  0  0  0  0  0  0  0  0
    8.2507   -5.0261   27.7788 C   0  0  0  0  0  0  0  0  0  0  0  0
    7.1660   -4.2601   27.3845 C   0  0  0  0  0  0  0  0  0  0  0  0
    7.1665   -3.5251   26.2645 N   0  0  0  0  0  0  0  0  0  0  0  0
    6.2414   -4.2466   27.9604 H   0  0  0  0  0  0  0  0  0  0  0  0
    8.2229   -5.6023   28.6965 H   0  0  0  0  0  0  0  0  0  0  0  0
   10.3201   -4.3537   25.3573 H   0  0  0  0  0  0  0  0  0  0  0  0
    9.2787   -2.7033   23.9684 H   0  0  0  0  0  0  0  0  0  0  0  0
    6.5170   -3.2346   23.5137 H   0  0  0  0  0  0  0  0  0  0  0  0
    6.6129   -1.7322   24.4209 H   0  0  0  0  0  0  0  0  0  0  0  0
    8.2508   -2.3554   21.9182 H   0  0  0  0  0  0  0  0  0  0  0  0
    6.1971   -2.2804   20.8765 H   0  0  0  0  0  0  0  0  0  0  0  0
    5.4748   -1.1655   22.0479 H   0  0  0  0  0  0  0  0  0  0  0  0
    9.8888   -0.4618   22.5299 C   0  0  0  0  0  0  0  0  0  0  0  0
   10.4991   -1.3969   21.6815 C   0  0  0  0  0  0  0  0  0  0  0  0
   11.8549   -1.3176   21.4132 C   0  0  0  0  0  0  0  0  0  0  0  0
   12.5418   -2.3979   20.2267 Cl  0  0  0  0  0  0  0  0  0  0  0  0
   12.6600   -0.3510   22.0241 C   0  0  0  0  0  0  0  0  0  0  0  0
   12.0782    0.5363   22.8999 C   0  0  0  0  0  0  0  0  0  0  0  0
   10.7009    0.5184   23.1124 C   0  0  0  0  0  0  0  0  0  0  0  0
   10.1252    1.7021   23.8255 C   0  0  0  0  0  0  0  0  0  0  0  0
   10.8317    2.6348   24.1790 O   0  0  0  0  0  0  0  0  0  0  0  0
   12.6601    1.3051   23.3971 H   0  0  0  0  0  0  0  0  0  0  0  0
   13.7140   -0.2607   21.7825 H   0  0  0  0  0  0  0  0  0  0  0  0
    9.9270   -2.1669   21.1767 H   0  0  0  0  0  0  0  0  0  0  0  0
    6.9243    0.8341   23.7112 H   0  0  0  0  0  0  0  0  0  0  0  0
    8.0299   -0.1227   24.7099 H   0  0  0  0  0  0  0  0  0  0  0  0
    8.8841    3.6941   24.4438 H   0  0  0  0  0  0  0  0  0  0  0  0
    7.6354    2.8292   25.3853 H   0  0  0  0  0  0  0  0  0  0  0  0
    8.3719    3.7233   21.9687 H   0  0  0  0  0  0  0  0  0  0  0  0
    6.9884    4.8496   20.4542 H   0  0  0  0  0  0  0  0  0  0  0  0
    5.7246    4.9698   21.6883 H   0  0  0  0  0  0  0  0  0  0  0  0
    5.9657    3.4361   20.8165 H   0  0  0  0  0  0  0  0  0  0  0  0
  1  2  1  0
  2  3  1  0
  3  4  2  0
  3  5  1  0
  5  6  1  0
  6  7  1  0
  8  7  1  1
  8  9  1  0
  9 10  2  0
  9 11  1  0
 11 12  1  0
 12 13  2  0
 13 14  1  0
 14 15  2  0
 15 16  1  0
 16 17  2  0
 17 18  1  0
 18 19  2  0
 19 20  1  0
 20 21  2  0
 20 22  1  0
 19 23  1  0
 18 24  1  0
 17 25  1  0
 15 26  1  0
 13 27  1  0
 11 28  1  0
 28 29  1  0
 29 30  1  0
 30 31  1  0
 31 32  1  0
 32 33  2  0
 33 34  1  0
 34 35  2  0
 35 36  1  0
 36 37  2  0
 36 38  1  0
 35 39  1  0
 33 40  1  0
 31 41  1  0
 30 42  1  0
 30 43  1  0
 29 44  1  6
 28 45  1  0
 28 46  1  0
  8 47  1  0
 47 48  2  0
 48 49  1  0
 49 50  1  0
 49 51  2  0
 51 52  1  0
 52 53  2  0
 53 54  1  0
 54 55  2  0
 52 56  1  0
 51 57  1  0
 48 58  1  0
  7 59  1  0
  7 60  1  0
  5 61  1  0
  5 62  1  0
  2 63  1  0
  1 64  1  0
  1 65  1  0
  1 66  1  0
 54  6  1  0
 29  8  1  0
 37 32  1  0
 53 47  1  0
 21 12  1  0
 21 16  1  0
M  END
>  <cnnaffinities>  (55) 
[6.51225]

>  <score>  (55) 
6.51225

>  <index>  (55) 
54

>  <Smiles>  (55) 
C(N(C(=O)C(N1C([C@@]2(C(=O)N(c3c(nc(c4c(c(c(c(c34)[H])[H])[H])[H])[H])[H])C([C@@]2(C(N(c2c(nc(c(n2)[H])[H])[H])[H])([H])[H])[H])([H])[H])c2c(c(Cl)c(c(c2C1=O)[H])[H])[H])([H])[H])([H])[H])[H])([H])([H])[H]

>  <h>  (55) 
<NA>

>  <Training>  (55) 
True

>  <Success>  (55) 
True

>  <enamine_searched>  (55) 
False

>  <enamine_id>  (55) 
nan

$$$$

     RDKit          3D

 56 61  0  0  0  0  0  0  0  0999 V2000
    5.5669    4.8333   21.4504 C   0  0  0  0  0  0  0  0  0  0  0  0
    6.5729    4.5688   22.4578 N   0  0  0  0  0  0  0  0  0  0  0  0
    7.7720    5.1792   22.5717 C   0  0  0  0  0  0  0  0  0  0  0  0
    8.4572    4.5443   23.5750 C   0  0  0  0  0  0  0  0  0  0  0  0
    7.5823    3.5208   24.0005 C   0  0  0  0  0  0  0  0  0  0  0  0
    7.9084    2.4519   25.0086 C   0  0  0  0  0  0  0  0  0  0  0  0
    8.6886    1.3391   24.4503 N   0  0  0  0  0  0  0  0  0  0  0  0
    8.0220    0.0868   24.1437 C   0  0  0  0  0  0  0  0  0  0  0  0
    8.3705   -0.4541   22.7295 C   0  0  1  0  0  0  0  0  0  0  0  0
    7.7268   -1.8432   22.5307 C   0  0  0  0  0  0  0  0  0  0  0  0
    6.9839   -1.8082   21.1825 C   0  0  0  0  0  0  0  0  0  0  0  0
    6.8684   -0.3963   20.8853 N   0  0  0  0  0  0  0  0  0  0  0  0
    6.1287    0.1100   19.7851 C   0  0  0  0  0  0  0  0  0  0  0  0
    6.4434   -0.2241   18.4907 C   0  0  0  0  0  0  0  0  0  0  0  0
    5.7728    0.2290   17.4030 N   0  0  0  0  0  0  0  0  0  0  0  0
    4.7502    1.0229   17.5986 C   0  0  0  0  0  0  0  0  0  0  0  0
    4.2946    1.4274   18.8834 C   0  0  0  0  0  0  0  0  0  0  0  0
    3.1648    2.2709   19.0592 C   0  0  0  0  0  0  0  0  0  0  0  0
    2.7379    2.6112   20.3129 C   0  0  0  0  0  0  0  0  0  0  0  0
    3.4227    2.1244   21.4508 C   0  0  0  0  0  0  0  0  0  0  0  0
    4.5213    1.3169   21.3065 C   0  0  0  0  0  0  0  0  0  0  0  0
    4.9993    0.9554   20.0187 C   0  0  0  0  0  0  0  0  0  0  0  0
    5.0282    0.9385   22.1890 H   0  0  0  0  0  0  0  0  0  0  0  0
    3.0813    2.3946   22.4459 H   0  0  0  0  0  0  0  0  0  0  0  0
    1.8741    3.2553   20.4458 H   0  0  0  0  0  0  0  0  0  0  0  0
    2.6512    2.6384   18.1741 H   0  0  0  0  0  0  0  0  0  0  0  0
    4.2208    1.3829   16.7147 H   0  0  0  0  0  0  0  0  0  0  0  0
    7.2885   -0.8753   18.2705 H   0  0  0  0  0  0  0  0  0  0  0  0
    7.7208    0.4001   21.6185 C   0  0  0  0  0  0  0  0  0  0  0  0
    7.9194    1.5738   21.4073 O   0  0  0  0  0  0  0  0  0  0  0  0
    5.9869   -2.2624   21.2318 H   0  0  0  0  0  0  0  0  0  0  0  0
    7.5607   -2.3096   20.4036 H   0  0  0  0  0  0  0  0  0  0  0  0
    8.4782   -2.6373   22.5683 H   0  0  0  0  0  0  0  0  0  0  0  0
    7.0144   -2.0431   23.3398 H   0  0  0  0  0  0  0  0  0  0  0  0
    9.8720   -0.4182   22.5475 C   0  0  0  0  0  0  0  0  0  0  0  0
   10.4955   -1.2305   21.5961 C   0  0  0  0  0  0  0  0  0  0  0  0
   11.8623   -1.1566   21.4075 C   0  0  0  0  0  0  0  0  0  0  0  0
   12.5976   -2.0778   20.1180 Cl  0  0  0  0  0  0  0  0  0  0  0  0
   12.6358   -0.2701   22.1595 C   0  0  0  0  0  0  0  0  0  0  0  0
   12.0207    0.5671   23.0684 C   0  0  0  0  0  0  0  0  0  0  0  0
   10.6396    0.5157   23.2443 C   0  0  0  0  0  0  0  0  0  0  0  0
    9.9821    1.5835   24.0607 C   0  0  0  0  0  0  0  0  0  0  0  0
   10.5649    2.6314   24.3090 O   0  0  0  0  0  0  0  0  0  0  0  0
   12.5969    1.2704   23.6609 H   0  0  0  0  0  0  0  0  0  0  0  0
   13.6959   -0.1861   21.9710 H   0  0  0  0  0  0  0  0  0  0  0  0
    9.9258   -1.8670   20.9294 H   0  0  0  0  0  0  0  0  0  0  0  0
    8.2871   -0.6884   24.8819 H   0  0  0  0  0  0  0  0  0  0  0  0
    6.9433    0.2674   24.1879 H   0  0  0  0  0  0  0  0  0  0  0  0
    6.9882    2.0344   25.4345 H   0  0  0  0  0  0  0  0  0  0  0  0
    8.5005    2.8874   25.8195 H   0  0  0  0  0  0  0  0  0  0  0  0
    6.4303    3.5548   23.3346 N   0  0  0  0  0  0  0  0  0  0  0  0
    9.4578    4.7136   23.9491 H   0  0  0  0  0  0  0  0  0  0  0  0
    8.0508    5.9843   21.9024 H   0  0  0  0  0  0  0  0  0  0  0  0
    4.5783    4.7736   21.9104 H   0  0  0  0  0  0  0  0  0  0  0  0
    5.7261    5.8456   21.0670 H   0  0  0  0  0  0  0  0  0  0  0  0
    5.6219    4.1112   20.6245 H   0  0  0  0  0  0  0  0  0  0  0  0
  1  2  1  0
  2  3  1  0
  3  4  2  0
  4  5  1  0
  5  6  1  0
  6  7  1  0
  7  8  1  0
  9  8  1  1
  9 10  1  0
 10 11  1  0
 11 12  1  0
 12 13  1  0
 13 14  2  0
 14 15  1  0
 15 16  2  0
 16 17  1  0
 17 18  2  0
 18 19  1  0
 19 20  2  0
 20 21  1  0
 21 22  2  0
 21 23  1  0
 20 24  1  0
 19 25  1  0
 18 26  1  0
 16 27  1  0
 14 28  1  0
 12 29  1  0
 29 30  2  0
 11 31  1  0
 11 32  1  0
 10 33  1  0
 10 34  1  0
  9 35  1  0
 35 36  2  0
 36 37  1  0
 37 38  1  0
 37 39  2  0
 39 40  1  0
 40 41  2  0
 41 42  1  0
 42 43  2  0
 40 44  1  0
 39 45  1  0
 36 46  1  0
  8 47  1  0
  8 48  1  0
  6 49  1  0
  6 50  1  0
  5 51  2  0
  4 52  1  0
  3 53  1  0
  1 54  1  0
  1 55  1  0
  1 56  1  0
 51  2  1  0
 42  7  1  0
 29  9  1  0
 41 35  1  0
 22 13  1  0
 22 17  1  0
M  END
>  <cnnaffinities>  (56) 
[6.26365]

>  <score>  (56) 
6.26365

>  <index>  (56) 
55

>  <Smiles>  (56) 
C(n1c(c(c(C(N2C([C@]3(C(C(N(c4c(nc(c5c(c(c(c(c45)[H])[H])[H])[H])[H])[H])C3=O)([H])[H])([H])[H])c3c(c(Cl)c(c(c3C2=O)[H])[H])[H])([H])[H])([H])[H])n1)[H])[H])([H])([H])[H]

>  <h>  (56) 
<NA>

>  <Training>  (56) 
True

>  <Success>  (56) 
True

>  <enamine_searched>  (56) 
False

>  <enamine_id>  (56) 
nan

$$$$

     RDKit          3D

 41 43  0  0  0  0  0  0  0  0999 V2000
    8.3905    1.4743   20.6695 O   0  0  0  0  0  0  0  0  0  0  0  0
    7.9656    0.6265   21.4265 C   0  0  0  0  0  0  0  0  0  0  0  0
    6.9666   -0.4306   20.9091 C   0  0  0  0  0  0  0  0  0  0  0  0
    6.1113    0.0842   19.7711 C   0  0  0  0  0  0  0  0  0  0  0  0
    6.4257   -0.2074   18.4662 C   0  0  0  0  0  0  0  0  0  0  0  0
    5.7590    0.2456   17.3727 N   0  0  0  0  0  0  0  0  0  0  0  0
    4.7310    1.0312   17.5773 C   0  0  0  0  0  0  0  0  0  0  0  0
    4.2855    1.4252   18.8684 C   0  0  0  0  0  0  0  0  0  0  0  0
    3.1708    2.2845   19.0418 C   0  0  0  0  0  0  0  0  0  0  0  0
    2.7671    2.6505   20.2988 C   0  0  0  0  0  0  0  0  0  0  0  0
    3.4661    2.1719   21.4289 C   0  0  0  0  0  0  0  0  0  0  0  0
    4.5520    1.3382   21.2880 C   0  0  0  0  0  0  0  0  0  0  0  0
    4.9916    0.9404   19.9977 C   0  0  0  0  0  0  0  0  0  0  0  0
    5.0751    0.9854   22.1726 H   0  0  0  0  0  0  0  0  0  0  0  0
    3.1354    2.4670   22.4197 H   0  0  0  0  0  0  0  0  0  0  0  0
    1.9165    3.3125   20.4350 H   0  0  0  0  0  0  0  0  0  0  0  0
    2.6482    2.6528   18.1621 H   0  0  0  0  0  0  0  0  0  0  0  0
    4.1987    1.3988   16.6984 H   0  0  0  0  0  0  0  0  0  0  0  0
    7.2733   -0.8530   18.2421 H   0  0  0  0  0  0  0  0  0  0  0  0
    6.3331   -0.8096   21.7224 H   0  0  0  0  0  0  0  0  0  0  0  0
    7.5525   -1.2858   20.5414 H   0  0  0  0  0  0  0  0  0  0  0  0
    8.3506    0.5371   22.7726 N   0  0  0  0  0  0  0  0  0  0  0  0
    8.7802   -0.7586   23.3043 C   0  0  0  0  0  0  0  0  0  0  0  0
   10.0260   -1.3671   22.6266 C   0  0  0  0  0  0  0  0  0  0  0  0
   11.0884   -0.3445   22.2242 C   0  0  0  0  0  0  0  0  0  0  0  0
   11.5080    0.8823   23.4946 S   0  0  0  0  0  0  0  0  0  0  0  0
   10.2795    2.1499   23.0881 C   0  0  0  0  0  0  0  0  0  0  0  0
    8.8598    1.7255   23.4591 C   0  0  1  0  0  0  0  0  0  0  0  0
    7.8727    2.8903   23.3739 C   0  0  0  0  0  0  0  0  0  0  0  0
    8.1701    3.8173   24.3133 F   0  0  0  0  0  0  0  0  0  0  0  0
    6.6209    2.4719   23.6212 F   0  0  0  0  0  0  0  0  0  0  0  0
    7.8744    3.5131   22.1959 F   0  0  0  0  0  0  0  0  0  0  0  0
    8.8733    1.4802   24.5235 H   0  0  0  0  0  0  0  0  0  0  0  0
   10.5732    3.0528   23.6394 H   0  0  0  0  0  0  0  0  0  0  0  0
   10.3424    2.3618   22.0215 H   0  0  0  0  0  0  0  0  0  0  0  0
   10.7575    0.2186   21.3502 H   0  0  0  0  0  0  0  0  0  0  0  0
   12.0191   -0.8549   21.9515 H   0  0  0  0  0  0  0  0  0  0  0  0
   10.4787   -2.1020   23.3034 H   0  0  0  0  0  0  0  0  0  0  0  0
    9.7283   -1.9222   21.7251 H   0  0  0  0  0  0  0  0  0  0  0  0
    7.9455   -1.4604   23.2321 H   0  0  0  0  0  0  0  0  0  0  0  0
    8.9817   -0.6313   24.3713 H   0  0  0  0  0  0  0  0  0  0  0  0
  1  2  2  0
  2  3  1  0
  3  4  1  0
  4  5  2  0
  5  6  1  0
  6  7  2  0
  7  8  1  0
  8  9  2  0
  9 10  1  0
 10 11  2  0
 11 12  1  0
 12 13  2  0
 12 14  1  0
 11 15  1  0
 10 16  1  0
  9 17  1  0
  7 18  1  0
  5 19  1  0
  3 20  1  0
  3 21  1  0
  2 22  1  0
 22 23  1  0
 23 24  1  0
 24 25  1  0
 25 26  1  0
 26 27  1  0
 27 28  1  0
 28 29  1  0
 29 30  1  0
 29 31  1  0
 29 32  1  0
 28 33  1  1
 27 34  1  0
 27 35  1  0
 25 36  1  0
 25 37  1  0
 24 38  1  0
 24 39  1  0
 23 40  1  0
 23 41  1  0
 13  4  1  0
 28 22  1  0
 13  8  1  0
M  END
>  <cnnaffinities>  (57) 
[5.6947, 5.69377, 5.71229, 5.71233, 5.71228, 5.30176, 5.30176]

>  <score>  (57) 
5.6947

>  <index>  (57) 
56

>  <Smiles>  (57) 
O=C(C(c1c(nc(c2c(c(c(c(c12)[H])[H])[H])[H])[H])[H])([H])[H])N1C(C(C(SC([C@]1(C(F)(F)F)[H])([H])[H])([H])[H])([H])[H])([H])[H]

>  <h>  (57) 
<NA>

>  <Training>  (57) 
True

>  <Success>  (57) 
True

>  <enamine_searched>  (57) 
False

>  <enamine_id>  (57) 
nan

$$$$

     RDKit          3D

 67 72  0  0  0  0  0  0  0  0999 V2000
    6.4229    4.5126   22.4023 C   0  0  0  0  0  0  0  0  0  0  0  0
    7.2680    4.0267   23.4789 N   0  0  0  0  0  0  0  0  0  0  0  0
    6.8609    2.9723   24.2233 C   0  0  0  0  0  0  0  0  0  0  0  0
    5.7252    2.5115   24.1687 O   0  0  0  0  0  0  0  0  0  0  0  0
    7.9374    2.3651   25.1281 C   0  0  0  0  0  0  0  0  0  0  0  0
    8.7262    1.3845   24.4078 N   0  0  0  0  0  0  0  0  0  0  0  0
    8.1316    0.0821   24.1702 C   0  0  0  0  0  0  0  0  0  0  0  0
    8.3929   -0.4309   22.7367 C   0  0  2  0  0  0  0  0  0  0  0  0
    7.6591    0.4586   21.6910 C   0  0  0  0  0  0  0  0  0  0  0  0
    7.7214    1.6665   21.6050 O   0  0  0  0  0  0  0  0  0  0  0  0
    6.9131   -0.3543   20.8577 N   0  0  0  0  0  0  0  0  0  0  0  0
    6.1255    0.1438   19.7885 C   0  0  0  0  0  0  0  0  0  0  0  0
    6.3997   -0.2168   18.4900 C   0  0  0  0  0  0  0  0  0  0  0  0
    5.7180    0.2232   17.4055 N   0  0  0  0  0  0  0  0  0  0  0  0
    4.7130    1.0367   17.6046 C   0  0  0  0  0  0  0  0  0  0  0  0
    4.2948    1.4722   18.8913 C   0  0  0  0  0  0  0  0  0  0  0  0
    3.1783    2.3390   19.0460 C   0  0  0  0  0  0  0  0  0  0  0  0
    2.7661    2.7238   20.2919 C   0  0  0  0  0  0  0  0  0  0  0  0
    3.4658    2.2707   21.4325 C   0  0  0  0  0  0  0  0  0  0  0  0
    4.5570    1.4460   21.3070 C   0  0  0  0  0  0  0  0  0  0  0  0
    5.0096    1.0193   20.0255 C   0  0  0  0  0  0  0  0  0  0  0  0
    5.0988    1.1536   22.1996 H   0  0  0  0  0  0  0  0  0  0  0  0
    3.1552    2.5871   22.4245 H   0  0  0  0  0  0  0  0  0  0  0  0
    1.9093    3.3815   20.4083 H   0  0  0  0  0  0  0  0  0  0  0  0
    2.6689    2.6884   18.1516 H   0  0  0  0  0  0  0  0  0  0  0  0
    4.1688    1.3855   16.7262 H   0  0  0  0  0  0  0  0  0  0  0  0
    7.2330   -0.8829   18.2729 H   0  0  0  0  0  0  0  0  0  0  0  0
    7.3303   -1.7434   20.9910 C   0  0  0  0  0  0  0  0  0  0  0  0
    7.7785   -1.8277   22.4665 C   0  0  2  0  0  0  0  0  0  0  0  0
    6.6290   -2.2145   23.4170 C   0  0  0  0  0  0  0  0  0  0  0  0
    6.2018   -3.5728   23.1796 N   0  0  0  0  0  0  0  0  0  0  0  0
    7.0634   -4.6017   23.5184 C   0  0  0  0  0  0  0  0  0  0  0  0
    7.8014   -4.7755   24.6501 C   0  0  0  0  0  0  0  0  0  0  0  0
    8.5589   -5.9206   24.7212 N   0  0  0  0  0  0  0  0  0  0  0  0
    8.4380   -6.6249   23.6420 C   0  0  0  0  0  0  0  0  0  0  0  0
    9.1818   -7.8932   23.3911 C   0  0  0  0  0  0  0  0  0  0  0  0
    9.4011   -8.3176   24.3624 H   0  0  0  0  0  0  0  0  0  0  0  0
    8.5968   -8.6112   22.8112 H   0  0  0  0  0  0  0  0  0  0  0  0
   10.1453   -7.6964   22.8995 H   0  0  0  0  0  0  0  0  0  0  0  0
    7.3542   -5.9602   22.4541 S   0  0  0  0  0  0  0  0  0  0  0  0
    7.8073   -4.1032   25.5017 H   0  0  0  0  0  0  0  0  0  0  0  0
    5.6321   -3.7321   22.3633 H   0  0  0  0  0  0  0  0  0  0  0  0
    5.7747   -1.5361   23.3084 H   0  0  0  0  0  0  0  0  0  0  0  0
    6.9637   -2.1580   24.4601 H   0  0  0  0  0  0  0  0  0  0  0  0
    8.5261   -2.6141   22.6023 H   0  0  0  0  0  0  0  0  0  0  0  0
    8.1853   -1.9529   20.3313 H   0  0  0  0  0  0  0  0  0  0  0  0
    6.5165   -2.4164   20.7126 H   0  0  0  0  0  0  0  0  0  0  0  0
    9.9016   -0.3568   22.5166 C   0  0  0  0  0  0  0  0  0  0  0  0
   10.5771   -1.2425   21.6727 C   0  0  0  0  0  0  0  0  0  0  0  0
   11.9248   -1.0682   21.4199 C   0  0  0  0  0  0  0  0  0  0  0  0
   12.6464   -2.0197   20.1501 Cl  0  0  0  0  0  0  0  0  0  0  0  0
   12.6590   -0.0567   22.0423 C   0  0  0  0  0  0  0  0  0  0  0  0
   11.9987    0.8251   22.8791 C   0  0  0  0  0  0  0  0  0  0  0  0
   10.6233    0.7045   23.0773 C   0  0  0  0  0  0  0  0  0  0  0  0
    9.9040    1.7732   23.8443 C   0  0  0  0  0  0  0  0  0  0  0  0
   10.3287    2.9213   23.9351 O   0  0  0  0  0  0  0  0  0  0  0  0
   12.5317    1.6280   23.3828 H   0  0  0  0  0  0  0  0  0  0  0  0
   13.7161    0.0623   21.8346 H   0  0  0  0  0  0  0  0  0  0  0  0
   10.0702   -2.0453   21.1552 H   0  0  0  0  0  0  0  0  0  0  0  0
    7.0619    0.1871   24.3526 H   0  0  0  0  0  0  0  0  0  0  0  0
    8.5389   -0.6428   24.8884 H   0  0  0  0  0  0  0  0  0  0  0  0
    8.6176    3.1286   25.5068 H   0  0  0  0  0  0  0  0  0  0  0  0
    7.4420    1.8685   25.9664 H   0  0  0  0  0  0  0  0  0  0  0  0
    8.2622    4.1860   23.4099 H   0  0  0  0  0  0  0  0  0  0  0  0
    5.4469    4.7978   22.8056 H   0  0  0  0  0  0  0  0  0  0  0  0
    6.8986    5.3876   21.9510 H   0  0  0  0  0  0  0  0  0  0  0  0
    6.2608    3.7399   21.6372 H   0  0  0  0  0  0  0  0  0  0  0  0
  1  2  1  0
  2  3  1  0
  3  4  2  0
  3  5  1  0
  5  6  1  0
  6  7  1  0
  8  7  1  1
  8  9  1  0
  9 10  2  0
  9 11  1  0
 11 12  1  0
 12 13  2  0
 13 14  1  0
 14 15  2  0
 15 16  1  0
 16 17  2  0
 17 18  1  0
 18 19  2  0
 19 20  1  0
 20 21  2  0
 20 22  1  0
 19 23  1  0
 18 24  1  0
 17 25  1  0
 15 26  1  0
 13 27  1  0
 11 28  1  0
 28 29  1  0
 29 30  1  0
 30 31  1  0
 31 32  1  0
 32 33  2  0
 33 34  1  0
 34 35  2  0
 35 36  1  0
 36 37  1  0
 36 38  1  0
 36 39  1  0
 35 40  1  0
 33 41  1  0
 31 42  1  0
 30 43  1  0
 30 44  1  0
 29 45  1  6
 28 46  1  0
 28 47  1  0
  8 48  1  0
 48 49  2  0
 49 50  1  0
 50 51  1  0
 50 52  2  0
 52 53  1  0
 53 54  2  0
 54 55  1  0
 55 56  2  0
 53 57  1  0
 52 58  1  0
 49 59  1  0
  7 60  1  0
  7 61  1  0
  5 62  1  0
  5 63  1  0
  2 64  1  0
  1 65  1  0
  1 66  1  0
  1 67  1  0
 55  6  1  0
 29  8  1  0
 40 32  1  0
 54 48  1  0
 21 12  1  0
 21 16  1  0
M  END
>  <cnnaffinities>  (58) 
[7.05968]

>  <score>  (58) 
7.05968

>  <index>  (58) 
57

>  <Smiles>  (58) 
C(N(C(=O)C(N1C([C@@]2(C(=O)N(c3c(nc(c4c(c(c(c(c34)[H])[H])[H])[H])[H])[H])C([C@@]2(C(N(c2c(nc(C([H])([H])[H])s2)[H])[H])([H])[H])[H])([H])[H])c2c(c(Cl)c(c(c2C1=O)[H])[H])[H])([H])[H])([H])[H])[H])([H])([H])[H]

>  <h>  (58) 
<NA>

>  <Training>  (58) 
True

>  <Success>  (58) 
True

>  <enamine_searched>  (58) 
False

>  <enamine_id>  (58) 
nan

$$$$

     RDKit          3D

 57 62  0  0  0  0  0  0  0  0999 V2000
   10.0192   -1.5048   22.4200 C   0  0  0  0  0  0  0  0  0  0  0  0
    8.6140   -0.9048   22.3493 C   0  0  1  0  0  0  0  0  0  0  0  0
    8.2964   -0.3472   20.9504 C   0  0  0  0  0  0  0  0  0  0  0  0
    6.8534   -0.4603   20.8563 N   0  0  0  0  0  0  0  0  0  0  0  0
    6.1062    0.0753   19.7843 C   0  0  0  0  0  0  0  0  0  0  0  0
    6.4528   -0.2093   18.4875 C   0  0  0  0  0  0  0  0  0  0  0  0
    5.7880    0.2460   17.4000 N   0  0  0  0  0  0  0  0  0  0  0  0
    4.7532    1.0225   17.6007 C   0  0  0  0  0  0  0  0  0  0  0  0
    4.2987    1.4159   18.8906 C   0  0  0  0  0  0  0  0  0  0  0  0
    3.1820    2.2780   19.0512 C   0  0  0  0  0  0  0  0  0  0  0  0
    2.7806    2.6634   20.3006 C   0  0  0  0  0  0  0  0  0  0  0  0
    3.4789    2.2111   21.4421 C   0  0  0  0  0  0  0  0  0  0  0  0
    4.5604    1.3759   21.3122 C   0  0  0  0  0  0  0  0  0  0  0  0
    4.9915    0.9430   20.0257 C   0  0  0  0  0  0  0  0  0  0  0  0
    5.0919    1.0343   22.1944 H   0  0  0  0  0  0  0  0  0  0  0  0
    3.1557    2.5293   22.4292 H   0  0  0  0  0  0  0  0  0  0  0  0
    1.9298    3.3281   20.4234 H   0  0  0  0  0  0  0  0  0  0  0  0
    2.6692    2.6318   18.1608 H   0  0  0  0  0  0  0  0  0  0  0  0
    4.2207    1.3847   16.7206 H   0  0  0  0  0  0  0  0  0  0  0  0
    7.2968   -0.8668   18.2819 H   0  0  0  0  0  0  0  0  0  0  0  0
    6.3325   -1.4161   21.7018 C   0  0  0  0  0  0  0  0  0  0  0  0
    5.2000   -1.8481   21.6496 O   0  0  0  0  0  0  0  0  0  0  0  0
    7.4326   -1.8650   22.6922 C   0  0  1  0  0  0  0  0  0  0  0  0
    7.8134   -3.3394   22.3840 C   0  0  0  0  0  0  0  0  0  0  0  0
    6.7954   -4.3106   22.7407 N   0  0  0  0  0  0  0  0  0  0  0  0
    6.4125   -5.3928   21.8049 C   0  0  0  0  0  0  0  0  0  0  0  0
    7.1412   -6.7601   21.8525 C   0  0  0  0  0  0  0  0  0  0  0  0
    8.1834   -6.9555   20.8144 C   0  0  0  0  0  0  0  0  0  0  0  0
    8.5255   -6.9314   20.9472 C   0  0  0  0  0  0  0  0  0  0  0  0
    7.2314   -9.0357   22.4662 N   0  0  0  0  0  0  0  0  0  0  0  0
    7.5606   -9.0131   22.6392 C   0  0  0  0  0  0  0  0  0  0  0  0
    6.5931   -7.5569   22.6147 N   0  0  0  0  0  0  0  0  0  0  0  0
    6.6268   -9.4304   23.2325 H   0  0  0  0  0  0  0  0  0  0  0  0
    9.4842   -7.2563   21.3915 H   0  0  0  0  0  0  0  0  0  0  0  0
    8.5263   -5.9383   20.3026 H   0  0  0  0  0  0  0  0  0  0  0  0
    5.3488   -5.5517   22.0572 H   0  0  0  0  0  0  0  0  0  0  0  0
    6.3749   -4.9378   20.8012 H   0  0  0  0  0  0  0  0  0  0  0  0
    6.0444   -4.1392   23.8813 C   0  0  0  0  0  0  0  0  0  0  0  0
    5.1473   -4.9060   24.2023 O   0  0  0  0  0  0  0  0  0  0  0  0
    6.3517   -2.9262   24.7021 C   0  0  0  0  0  0  0  0  0  0  0  0
    5.9255   -2.9133   26.0299 C   0  0  0  0  0  0  0  0  0  0  0  0
    5.9539   -1.7438   26.7620 C   0  0  0  0  0  0  0  0  0  0  0  0
    6.3895   -0.5890   26.1217 C   0  0  0  0  0  0  0  0  0  0  0  0
    6.3326    0.5722   26.7934 F   0  0  0  0  0  0  0  0  0  0  0  0
    6.8763   -0.5866   24.8308 C   0  0  0  0  0  0  0  0  0  0  0  0
    6.9196   -1.7899   24.1156 C   0  0  0  0  0  0  0  0  0  0  0  0
    7.1857    0.3564   24.3939 H   0  0  0  0  0  0  0  0  0  0  0  0
    5.6051   -1.6956   27.7877 H   0  0  0  0  0  0  0  0  0  0  0  0
    5.5525   -3.8388   26.4568 H   0  0  0  0  0  0  0  0  0  0  0  0
    7.9988   -3.3707   21.3130 H   0  0  0  0  0  0  0  0  0  0  0  0
    8.7482   -3.5716   22.9054 H   0  0  0  0  0  0  0  0  0  0  0  0
    8.8073   -0.9334   20.1719 H   0  0  0  0  0  0  0  0  0  0  0  0
    8.6036    0.6970   20.8381 H   0  0  0  0  0  0  0  0  0  0  0  0
    8.5654   -0.0711   23.0528 H   0  0  0  0  0  0  0  0  0  0  0  0
   10.1529   -2.2800   21.6556 H   0  0  0  0  0  0  0  0  0  0  0  0
   10.2210   -1.9628   23.3948 H   0  0  0  0  0  0  0  0  0  0  0  0
   10.7837   -0.7415   22.2438 H   0  0  0  0  0  0  0  0  0  0  0  0
  1  2  1  0
  2  3  1  0
  3  4  1  0
  4  5  1  0
  5  6  2  0
  6  7  1  0
  7  8  2  0
  8  9  1  0
  9 10  2  0
 10 11  1  0
 11 12  2  0
 12 13  1  0
 13 14  2  0
 13 15  1  0
 12 16  1  0
 11 17  1  0
 10 18  1  0
  8 19  1  0
  6 20  1  0
  4 21  1  0
 21 22  2  0
 21 23  1  0
 23 24  1  6
 24 25  1  0
 25 26  1  0
 26 27  1  0
 27 28  2  0
 28 29  1  0
 29 30  2  0
 30 31  1  0
 31 32  2  0
 31 33  1  0
 29 34  1  0
 28 35  1  0
 26 36  1  0
 26 37  1  0
 25 38  1  0
 38 39  2  0
 38 40  1  0
 40 41  2  0
 41 42  1  0
 42 43  2  0
 43 44  1  0
 43 45  1  0
 45 46  2  0
 45 47  1  0
 42 48  1  0
 41 49  1  0
 24 50  1  0
 24 51  1  0
  3 52  1  0
  3 53  1  0
  2 54  1  1
  1 55  1  0
  1 56  1  0
  1 57  1  0
 23  2  1  0
 32 27  1  0
 46 40  1  0
 14  5  1  0
 46 23  1  0
 14  9  1  0
M  END
>  <cnnaffinities>  (59) 
[6.39895]

>  <score>  (59) 
6.39895

>  <index>  (59) 
58

>  <Smiles>  (59) 
C([C@]1(C(N(c2c(nc(c3c(c(c(c(c23)[H])[H])[H])[H])[H])[H])C(=O)[C@]21C(N(C(c1c(c(nc(n1)[H])[H])[H])([H])[H])C(=O)c1c(c(c(F)c(c21)[H])[H])[H])([H])[H])([H])[H])[H])([H])([H])[H]

>  <h>  (59) 
<NA>

>  <Training>  (59) 
True

>  <Success>  (59) 
True

>  <enamine_searched>  (59) 
False

>  <enamine_id>  (59) 
nan

$$$$

     RDKit          3D

 60 65  0  0  0  0  0  0  0  0999 V2000
   12.1874   -0.9526   22.2776 C   0  0  0  0  0  0  0  0  0  0  0  0
   10.8811   -0.4453   22.3564 O   0  0  0  0  0  0  0  0  0  0  0  0
    9.9267   -1.4653   22.5119 C   0  0  0  0  0  0  0  0  0  0  0  0
    8.5469   -0.8452   22.3635 C   0  0  1  0  0  0  0  0  0  0  0  0
    8.3002   -0.3276   20.9325 C   0  0  0  0  0  0  0  0  0  0  0  0
    6.8547   -0.3611   20.8411 N   0  0  0  0  0  0  0  0  0  0  0  0
    6.1255    0.1529   19.7563 C   0  0  0  0  0  0  0  0  0  0  0  0
    6.4697   -0.1593   18.4673 C   0  0  0  0  0  0  0  0  0  0  0  0
    5.7922    0.2725   17.3802 N   0  0  0  0  0  0  0  0  0  0  0  0
    4.7490    1.0397   17.5798 C   0  0  0  0  0  0  0  0  0  0  0  0
    4.2958    1.4456   18.8663 C   0  0  0  0  0  0  0  0  0  0  0  0
    3.1724    2.2961   19.0294 C   0  0  0  0  0  0  0  0  0  0  0  0
    2.7720    2.6830   20.2790 C   0  0  0  0  0  0  0  0  0  0  0  0
    3.4727    2.2356   21.4220 C   0  0  0  0  0  0  0  0  0  0  0  0
    4.5602    1.4101   21.2901 C   0  0  0  0  0  0  0  0  0  0  0  0
    4.9964    0.9920   20.0001 C   0  0  0  0  0  0  0  0  0  0  0  0
    5.0893    1.0554   22.1688 H   0  0  0  0  0  0  0  0  0  0  0  0
    3.1438    2.5479   22.4092 H   0  0  0  0  0  0  0  0  0  0  0  0
    1.9188    3.3449   20.3997 H   0  0  0  0  0  0  0  0  0  0  0  0
    2.6541    2.6360   18.1373 H   0  0  0  0  0  0  0  0  0  0  0  0
    4.2075    1.3811   16.6975 H   0  0  0  0  0  0  0  0  0  0  0  0
    7.3174   -0.8148   18.2692 H   0  0  0  0  0  0  0  0  0  0  0  0
    6.2847   -1.3045   21.6709 C   0  0  0  0  0  0  0  0  0  0  0  0
    5.1607   -1.7420   21.5274 O   0  0  0  0  0  0  0  0  0  0  0  0
    7.3349   -1.7609   22.7108 C   0  0  1  0  0  0  0  0  0  0  0  0
    7.5778   -3.2594   22.4127 C   0  0  0  0  0  0  0  0  0  0  0  0
    6.3496   -3.9914   22.6737 N   0  0  0  0  0  0  0  0  0  0  0  0
    5.7806   -4.9003   21.6817 C   0  0  0  0  0  0  0  0  0  0  0  0
    6.6402   -6.1110   21.6210 C   0  0  0  0  0  0  0  0  0  0  0  0
    7.7720   -6.1816   20.9654 N   0  0  0  0  0  0  0  0  0  0  0  0
    8.4324   -7.2382   21.5282 C   0  0  0  0  0  0  0  0  0  0  0  0
    7.6855   -7.8257   22.5108 C   0  0  0  0  0  0  0  0  0  0  0  0
    6.5079   -7.1087   22.5287 N   0  0  0  0  0  0  0  0  0  0  0  0
    5.7342   -7.2051   23.1682 H   0  0  0  0  0  0  0  0  0  0  0  0
    7.8556   -8.6649   23.1620 H   0  0  0  0  0  0  0  0  0  0  0  0
    9.4475   -7.3986   21.2192 H   0  0  0  0  0  0  0  0  0  0  0  0
    4.7675   -5.1561   22.0111 H   0  0  0  0  0  0  0  0  0  0  0  0
    5.7543   -4.3948   20.7128 H   0  0  0  0  0  0  0  0  0  0  0  0
    5.8157   -3.9792   23.9254 C   0  0  0  0  0  0  0  0  0  0  0  0
    5.0326   -4.8419   24.3084 O   0  0  0  0  0  0  0  0  0  0  0  0
    6.2280   -2.8045   24.7596 C   0  0  0  0  0  0  0  0  0  0  0  0
    5.9047   -2.8044   26.1172 C   0  0  0  0  0  0  0  0  0  0  0  0
    6.0000   -1.6403   26.8539 C   0  0  0  0  0  0  0  0  0  0  0  0
    6.4296   -0.4853   26.2038 C   0  0  0  0  0  0  0  0  0  0  0  0
    6.3530    1.0316   27.0496 Cl  0  0  0  0  0  0  0  0  0  0  0  0
    6.8834   -0.5035   24.8970 C   0  0  0  0  0  0  0  0  0  0  0  0
    6.8266   -1.6864   24.1507 C   0  0  0  0  0  0  0  0  0  0  0  0
    7.2660    0.4133   24.4663 H   0  0  0  0  0  0  0  0  0  0  0  0
    5.7269   -1.6063   27.9032 H   0  0  0  0  0  0  0  0  0  0  0  0
    5.5631   -3.7247   26.5801 H   0  0  0  0  0  0  0  0  0  0  0  0
    8.3959   -3.6533   23.0351 H   0  0  0  0  0  0  0  0  0  0  0  0
    7.8569   -3.4110   21.3719 H   0  0  0  0  0  0  0  0  0  0  0  0
    8.6721    0.6887   20.7816 H   0  0  0  0  0  0  0  0  0  0  0  0
    8.7737   -0.9729   20.1765 H   0  0  0  0  0  0  0  0  0  0  0  0
    8.5125    0.0285   23.0140 H   0  0  0  0  0  0  0  0  0  0  0  0
   10.0337   -1.9571   23.4935 H   0  0  0  0  0  0  0  0  0  0  0  0
   10.0681   -2.2410   21.7365 H   0  0  0  0  0  0  0  0  0  0  0  0
   12.4972   -1.4584   23.2062 H   0  0  0  0  0  0  0  0  0  0  0  0
   12.2810   -1.6719   21.4496 H   0  0  0  0  0  0  0  0  0  0  0  0
   12.8642   -0.1149   22.0949 H   0  0  0  0  0  0  0  0  0  0  0  0
  1  2  1  0
  2  3  1  0
  3  4  1  0
  4  5  1  0
  5  6  1  0
  6  7  1  0
  7  8  2  0
  8  9  1  0
  9 10  2  0
 10 11  1  0
 11 12  2  0
 12 13  1  0
 13 14  2  0
 14 15  1  0
 15 16  2  0
 15 17  1  0
 14 18  1  0
 13 19  1  0
 12 20  1  0
 10 21  1  0
  8 22  1  0
  6 23  1  0
 23 24  2  0
 23 25  1  0
 25 26  1  6
 26 27  1  0
 27 28  1  0
 28 29  1  0
 29 30  2  0
 30 31  1  0
 31 32  2  0
 32 33  1  0
 33 34  1  0
 32 35  1  0
 31 36  1  0
 28 37  1  0
 28 38  1  0
 27 39  1  0
 39 40  2  0
 39 41  1  0
 41 42  2  0
 42 43  1  0
 43 44  2  0
 44 45  1  0
 44 46  1  0
 46 47  2  0
 46 48  1  0
 43 49  1  0
 42 50  1  0
 26 51  1  0
 26 52  1  0
  5 53  1  0
  5 54  1  0
  4 55  1  1
  3 56  1  0
  3 57  1  0
  1 58  1  0
  1 59  1  0
  1 60  1  0
 25  4  1  0
 33 29  1  0
 47 41  1  0
 16  7  1  0
 47 25  1  0
 16 11  1  0
M  END
>  <cnnaffinities>  (60) 
[6.61088, 6.5217, 6.47759]

>  <score>  (60) 
6.61088

>  <index>  (60) 
59

>  <Smiles>  (60) 
C(OC([C@]1(C(N(c2c(nc(c3c(c(c(c(c23)[H])[H])[H])[H])[H])[H])C(=O)[C@]21C(N(C(c1nc(c(n1[H])[H])[H])([H])[H])C(=O)c1c(c(c(Cl)c(c21)[H])[H])[H])([H])[H])([H])[H])[H])([H])[H])([H])([H])[H]

>  <h>  (60) 
<NA>

>  <Training>  (60) 
True

>  <Success>  (60) 
True

>  <enamine_searched>  (60) 
False

>  <enamine_id>  (60) 
nan

$$$$

     RDKit          3D

 38 41  0  0  0  0  0  0  0  0999 V2000
    8.5192    1.0486   20.1595 O   0  0  0  0  0  0  0  0  0  0  0  0
    7.9114    0.5114   21.0692 C   0  0  0  0  0  0  0  0  0  0  0  0
    6.8172   -0.5229   20.7560 C   0  0  0  0  0  0  0  0  0  0  0  0
    5.9653    0.0205   19.6518 C   0  0  0  0  0  0  0  0  0  0  0  0
    6.3131   -0.2167   18.3474 C   0  0  0  0  0  0  0  0  0  0  0  0
    5.6616    0.2856   17.2726 N   0  0  0  0  0  0  0  0  0  0  0  0
    4.6485    1.0791   17.5066 C   0  0  0  0  0  0  0  0  0  0  0  0
    4.1974    1.4362   18.8041 C   0  0  0  0  0  0  0  0  0  0  0  0
    3.1140    2.3253   18.9998 C   0  0  0  0  0  0  0  0  0  0  0  0
    2.7348    2.6903   20.2566 C   0  0  0  0  0  0  0  0  0  0  0  0
    3.4314    2.1919   21.3780 C   0  0  0  0  0  0  0  0  0  0  0  0
    4.4856    1.3226   21.2193 C   0  0  0  0  0  0  0  0  0  0  0  0
    4.8874    0.9117   19.9214 C   0  0  0  0  0  0  0  0  0  0  0  0
    5.0102    0.9745   22.1024 H   0  0  0  0  0  0  0  0  0  0  0  0
    3.1393    2.4947   22.3773 H   0  0  0  0  0  0  0  0  0  0  0  0
    1.9016    3.3735   20.4064 H   0  0  0  0  0  0  0  0  0  0  0  0
    2.6168    2.7180   18.1167 H   0  0  0  0  0  0  0  0  0  0  0  0
    4.1390    1.4988   16.6397 H   0  0  0  0  0  0  0  0  0  0  0  0
    7.1787   -0.8373   18.1114 H   0  0  0  0  0  0  0  0  0  0  0  0
    7.3357   -1.4315   20.4184 H   0  0  0  0  0  0  0  0  0  0  0  0
    6.2314   -0.8306   21.6263 H   0  0  0  0  0  0  0  0  0  0  0  0
    8.2313    0.7833   22.3679 N   0  0  0  0  0  0  0  0  0  0  0  0
    7.4226    0.4553   23.5333 C   0  0  0  0  0  0  0  0  0  0  0  0
    8.0652   -0.7230   24.2496 C   0  0  0  0  0  0  0  0  0  0  0  0
    9.5310   -0.4224   24.3933 C   0  0  0  0  0  0  0  0  0  0  0  0
   10.5299   -1.1762   25.5598 S   0  0  0  0  0  0  0  0  0  0  0  0
   11.9064   -0.2496   25.0984 C   0  0  0  0  0  0  0  0  0  0  0  0
   11.6117    0.5751   24.0540 C   0  0  0  0  0  0  0  0  0  0  0  0
   10.2410    0.4844   23.6676 C   0  0  0  0  0  0  0  0  0  0  0  0
    9.5659    1.3221   22.6286 C   0  0  0  0  0  0  0  0  0  0  0  0
   10.1552    1.3090   21.7044 H   0  0  0  0  0  0  0  0  0  0  0  0
    9.5119    2.3777   22.9424 H   0  0  0  0  0  0  0  0  0  0  0  0
   12.3381    1.2132   23.5604 H   0  0  0  0  0  0  0  0  0  0  0  0
   12.8161   -0.3425   25.6791 H   0  0  0  0  0  0  0  0  0  0  0  0
    7.5725   -0.9128   25.2073 H   0  0  0  0  0  0  0  0  0  0  0  0
    7.9589   -1.6299   23.6390 H   0  0  0  0  0  0  0  0  0  0  0  0
    6.3897    0.2362   23.2481 H   0  0  0  0  0  0  0  0  0  0  0  0
    7.3783    1.3356   24.1932 H   0  0  0  0  0  0  0  0  0  0  0  0
  1  2  2  0
  2  3  1  0
  3  4  1  0
  4  5  2  0
  5  6  1  0
  6  7  2  0
  7  8  1  0
  8  9  2  0
  9 10  1  0
 10 11  2  0
 11 12  1  0
 12 13  2  0
 12 14  1  0
 11 15  1  0
 10 16  1  0
  9 17  1  0
  7 18  1  0
  5 19  1  0
  3 20  1  0
  3 21  1  0
  2 22  1  0
 22 23  1  0
 23 24  1  0
 24 25  1  0
 25 26  1  0
 26 27  1  0
 27 28  2  0
 28 29  1  0
 29 30  1  0
 30 31  1  0
 30 32  1  0
 28 33  1  0
 27 34  1  0
 24 35  1  0
 24 36  1  0
 23 37  1  0
 23 38  1  0
 13  4  1  0
 30 22  1  0
 13  8  1  0
 29 25  2  0
M  END
>  <cnnaffinities>  (61) 
[5.29611, 5.19085]

>  <score>  (61) 
5.29611

>  <index>  (61) 
60

>  <Smiles>  (61) 
O=C(C(c1c(nc(c2c(c(c(c(c12)[H])[H])[H])[H])[H])[H])([H])[H])N1C(C(c2sc(c(c2C1([H])[H])[H])[H])([H])[H])([H])[H]

>  <h>  (61) 
<NA>

>  <Training>  (61) 
True

>  <Success>  (61) 
True

>  <enamine_searched>  (61) 
False

>  <enamine_id>  (61) 
nan

$$$$

     RDKit          3D

 64 70  0  0  0  0  0  0  0  0999 V2000
   10.9610    2.6270   23.9984 O   0  0  0  0  0  0  0  0  0  0  0  0
   10.3112    1.6292   23.7059 C   0  0  0  0  0  0  0  0  0  0  0  0
   10.8488    0.5907   22.7799 C   0  0  0  0  0  0  0  0  0  0  0  0
   12.1999    0.6651   22.4520 C   0  0  0  0  0  0  0  0  0  0  0  0
   12.7828   -0.2976   21.6567 C   0  0  0  0  0  0  0  0  0  0  0  0
   11.9837   -1.3374   21.1707 C   0  0  0  0  0  0  0  0  0  0  0  0
   12.6290   -2.6189   20.1751 Cl  0  0  0  0  0  0  0  0  0  0  0  0
   10.6279   -1.3772   21.4340 C   0  0  0  0  0  0  0  0  0  0  0  0
   10.0361   -0.4315   22.2722 C   0  0  0  0  0  0  0  0  0  0  0  0
    8.5475   -0.4708   22.6053 C   0  0  1  0  0  0  0  0  0  0  0  0
    8.4099    0.0924   24.0502 C   0  0  0  0  0  0  0  0  0  0  0  0
    9.0725    1.3773   24.2248 N   0  0  0  0  0  0  0  0  0  0  0  0
    8.4045    2.4700   24.9248 C   0  0  0  0  0  0  0  0  0  0  0  0
    7.6750    3.4053   23.9958 C   0  0  0  0  0  0  0  0  0  0  0  0
    8.3112    4.4419   23.3521 C   0  0  0  0  0  0  0  0  0  0  0  0
    7.5315    5.2520   22.5285 C   0  0  0  0  0  0  0  0  0  0  0  0
    6.2263    5.0787   22.3342 N   0  0  0  0  0  0  0  0  0  0  0  0
    5.6204    4.0747   22.9469 N   0  0  0  0  0  0  0  0  0  0  0  0
    6.3137    3.2591   23.7316 C   0  0  0  0  0  0  0  0  0  0  0  0
    5.7429    2.4524   24.1836 H   0  0  0  0  0  0  0  0  0  0  0  0
    7.9758    6.0888   22.0022 H   0  0  0  0  0  0  0  0  0  0  0  0
    9.3797    4.6200   23.4773 H   0  0  0  0  0  0  0  0  0  0  0  0
    7.7116    2.0590   25.6677 H   0  0  0  0  0  0  0  0  0  0  0  0
    9.1678    3.0420   25.4546 H   0  0  0  0  0  0  0  0  0  0  0  0
    8.8560   -0.6460   24.7389 H   0  0  0  0  0  0  0  0  0  0  0  0
    7.3536    0.2285   24.2977 H   0  0  0  0  0  0  0  0  0  0  0  0
    7.7804    0.4103   21.5915 C   0  0  0  0  0  0  0  0  0  0  0  0
    7.9637    1.5911   21.3841 O   0  0  0  0  0  0  0  0  0  0  0  0
    6.8762   -0.3770   20.9073 N   0  0  0  0  0  0  0  0  0  0  0  0
    6.1236    0.1156   19.8136 C   0  0  0  0  0  0  0  0  0  0  0  0
    6.4421   -0.2261   18.5227 C   0  0  0  0  0  0  0  0  0  0  0  0
    5.7777    0.2157   17.4293 N   0  0  0  0  0  0  0  0  0  0  0  0
    4.7521    1.0069   17.6188 C   0  0  0  0  0  0  0  0  0  0  0  0
    4.2947    1.4131   18.9023 C   0  0  0  0  0  0  0  0  0  0  0  0
    3.1706    2.2657   19.0581 C   0  0  0  0  0  0  0  0  0  0  0  0
    2.7494    2.6340   20.3049 C   0  0  0  0  0  0  0  0  0  0  0  0
    3.4339    2.1731   21.4497 C   0  0  0  0  0  0  0  0  0  0  0  0
    4.5295    1.3548   21.3257 C   0  0  0  0  0  0  0  0  0  0  0  0
    4.9910    0.9569   20.0425 C   0  0  0  0  0  0  0  0  0  0  0  0
    5.0723    1.0406   22.2130 H   0  0  0  0  0  0  0  0  0  0  0  0
    3.1431    2.5232   22.4359 H   0  0  0  0  0  0  0  0  0  0  0  0
    1.8920    3.2905   20.4226 H   0  0  0  0  0  0  0  0  0  0  0  0
    2.6648    2.6230   18.1653 H   0  0  0  0  0  0  0  0  0  0  0  0
    4.2292    1.3680   16.7335 H   0  0  0  0  0  0  0  0  0  0  0  0
    7.2946   -0.8727   18.3185 H   0  0  0  0  0  0  0  0  0  0  0  0
    7.1084   -1.7915   21.0944 C   0  0  0  0  0  0  0  0  0  0  0  0
    7.8822   -1.8820   22.4276 C   0  0  2  0  0  0  0  0  0  0  0  0
    6.9817   -2.3431   23.6070 C   0  0  0  0  0  0  0  0  0  0  0  0
    6.4381   -3.6884   23.4594 N   0  0  0  0  0  0  0  0  0  0  0  0
    7.1895   -4.8262   23.5969 C   0  0  0  0  0  0  0  0  0  0  0  0
    6.9713   -5.9373   22.9464 N   0  0  0  0  0  0  0  0  0  0  0  0
    7.8822   -6.9128   23.2569 N   0  0  0  0  0  0  0  0  0  0  0  0
    8.7426   -6.5489   24.1470 C   0  0  0  0  0  0  0  0  0  0  0  0
    8.5153   -4.9155   24.7186 S   0  0  0  0  0  0  0  0  0  0  0  0
    9.5497   -7.1870   24.5035 H   0  0  0  0  0  0  0  0  0  0  0  0
    5.6507   -3.8058   22.8384 H   0  0  0  0  0  0  0  0  0  0  0  0
    7.5633   -2.3160   24.5345 H   0  0  0  0  0  0  0  0  0  0  0  0
    6.1369   -1.6573   23.7372 H   0  0  0  0  0  0  0  0  0  0  0  0
    8.6543   -2.6586   22.3679 H   0  0  0  0  0  0  0  0  0  0  0  0
    6.1508   -2.3267   21.0860 H   0  0  0  0  0  0  0  0  0  0  0  0
    7.7249   -2.1814   20.2772 H   0  0  0  0  0  0  0  0  0  0  0  0
   10.0606   -2.1596   20.9457 H   0  0  0  0  0  0  0  0  0  0  0  0
   13.8349   -0.2097   21.4094 H   0  0  0  0  0  0  0  0  0  0  0  0
   12.7946    1.4807   22.8518 H   0  0  0  0  0  0  0  0  0  0  0  0
  1  2  2  0
  2  3  1  0
  3  4  2  0
  4  5  1  0
  5  6  2  0
  6  7  1  0
  6  8  1  0
  8  9  2  0
  9 10  1  0
 10 11  1  1
 11 12  1  0
 12 13  1  0
 13 14  1  0
 14 15  2  0
 15 16  1  0
 16 17  2  0
 17 18  1  0
 18 19  2  0
 19 20  1  0
 16 21  1  0
 15 22  1  0
 13 23  1  0
 13 24  1  0
 11 25  1  0
 11 26  1  0
 10 27  1  0
 27 28  2  0
 27 29  1  0
 29 30  1  0
 30 31  2  0
 31 32  1  0
 32 33  2  0
 33 34  1  0
 34 35  2  0
 35 36  1  0
 36 37  2  0
 37 38  1  0
 38 39  2  0
 38 40  1  0
 37 41  1  0
 36 42  1  0
 35 43  1  0
 33 44  1  0
 31 45  1  0
 29 46  1  0
 46 47  1  0
 47 48  1  0
 48 49  1  0
 49 50  1  0
 50 51  2  0
 51 52  1  0
 52 53  2  0
 53 54  1  0
 53 55  1  0
 49 56  1  0
 48 57  1  0
 48 58  1  0
 47 59  1  6
 46 60  1  0
 46 61  1  0
  8 62  1  0
  5 63  1  0
  4 64  1  0
 12  2  1  0
 19 14  1  0
 39 30  1  0
 54 50  1  0
  9  3  1  0
 47 10  1  0
 39 34  1  0
M  END
>  <cnnaffinities>  (62) 
[6.94779, 6.53597]

>  <score>  (62) 
6.94779

>  <index>  (62) 
61

>  <Smiles>  (62) 
O=C1c2c(c(c(Cl)c(c2[C@@]2(C(N1C(c1c(c(nnc1[H])[H])[H])([H])[H])([H])[H])C(=O)N(c1c(nc(c3c(c(c(c(c13)[H])[H])[H])[H])[H])[H])C([C@@]2(C(N(c1nnc(s1)[H])[H])([H])[H])[H])([H])[H])[H])[H])[H]

>  <h>  (62) 
<NA>

>  <Training>  (62) 
True

>  <Success>  (62) 
True

>  <enamine_searched>  (62) 
False

>  <enamine_id>  (62) 
nan

$$$$

     RDKit          3D

 70 76  0  0  0  0  0  0  0  0999 V2000
    7.0263   -2.5599   23.8634 C   0  0  0  0  0  0  0  0  0  0  0  0
    7.5107   -1.9243   22.5617 C   0  0  1  0  0  0  0  0  0  0  0  0
    6.3627   -1.6372   21.5827 C   0  0  0  0  0  0  0  0  0  0  0  0
    6.8423   -0.5065   20.8216 N   0  0  0  0  0  0  0  0  0  0  0  0
    6.1074    0.0733   19.7610 C   0  0  0  0  0  0  0  0  0  0  0  0
    6.4504   -0.2162   18.4681 C   0  0  0  0  0  0  0  0  0  0  0  0
    5.7820    0.2467   17.3831 N   0  0  0  0  0  0  0  0  0  0  0  0
    4.7486    1.0213   17.5932 C   0  0  0  0  0  0  0  0  0  0  0  0
    4.2951    1.4112   18.8863 C   0  0  0  0  0  0  0  0  0  0  0  0
    3.1780    2.2669   19.0605 C   0  0  0  0  0  0  0  0  0  0  0  0
    2.7739    2.6326   20.3139 C   0  0  0  0  0  0  0  0  0  0  0  0
    3.4703    2.1673   21.4536 C   0  0  0  0  0  0  0  0  0  0  0  0
    4.5542    1.3364   21.3140 C   0  0  0  0  0  0  0  0  0  0  0  0
    4.9920    0.9320   20.0183 C   0  0  0  0  0  0  0  0  0  0  0  0
    5.0848    0.9961   22.2005 H   0  0  0  0  0  0  0  0  0  0  0  0
    3.1414    2.4690   22.4439 H   0  0  0  0  0  0  0  0  0  0  0  0
    1.9199    3.2909   20.4458 H   0  0  0  0  0  0  0  0  0  0  0  0
    2.6632    2.6274   18.1737 H   0  0  0  0  0  0  0  0  0  0  0  0
    4.2076    1.3869   16.7179 H   0  0  0  0  0  0  0  0  0  0  0  0
    7.3102   -0.8561   18.2736 H   0  0  0  0  0  0  0  0  0  0  0  0
    7.9226    0.1409   21.3720 C   0  0  0  0  0  0  0  0  0  0  0  0
    8.4585    1.1154   20.8855 O   0  0  0  0  0  0  0  0  0  0  0  0
    8.3072   -0.5858   22.6733 C   0  0  1  0  0  0  0  0  0  0  0  0
    7.8910    0.2295   23.9258 C   0  0  0  0  0  0  0  0  0  0  0  0
    8.6747    1.4354   24.1364 N   0  0  0  0  0  0  0  0  0  0  0  0
    8.0216    2.7390   24.1210 C   0  0  0  0  0  0  0  0  0  0  0  0
    8.0464    3.4265   25.4825 C   0  0  0  0  0  0  0  0  0  0  0  0
    7.5293    2.4975   26.5516 N   0  0  2  0  0  4  0  0  0  0  0  0
    6.0367    2.2365   26.5555 C   0  0  0  0  0  0  0  0  0  0  0  0
    5.4377    3.2434   27.5516 C   0  0  0  0  0  0  0  0  0  0  0  0
    6.5977    3.7686   28.4027 C   0  0  0  0  0  0  0  0  0  0  0  0
    6.4397    3.8827   29.9255 C   0  0  0  0  0  0  0  0  0  0  0  0
    6.6537    5.2975   29.9062 O   0  0  0  0  0  0  0  0  0  0  0  0
    6.8163    5.2895   28.4863 C   0  0  0  0  0  0  0  0  0  0  0  0
    7.8218    5.6173   28.1933 H   0  0  0  0  0  0  0  0  0  0  0  0
    6.0652    5.9145   27.9901 H   0  0  0  0  0  0  0  0  0  0  0  0
    7.2170    3.3699   30.5064 H   0  0  0  0  0  0  0  0  0  0  0  0
    5.4543    3.6265   30.3314 H   0  0  0  0  0  0  0  0  0  0  0  0
    7.7938    2.9400   27.9578 C   0  0  0  0  0  0  0  0  0  0  0  0
    7.8720    2.0550   28.5923 H   0  0  0  0  0  0  0  0  0  0  0  0
    8.7340    3.4866   28.0260 H   0  0  0  0  0  0  0  0  0  0  0  0
    4.6807    2.7595   28.1709 H   0  0  0  0  0  0  0  0  0  0  0  0
    4.9452    4.0597   27.0189 H   0  0  0  0  0  0  0  0  0  0  0  0
    5.6335    2.3460   25.5512 H   0  0  0  0  0  0  0  0  0  0  0  0
    5.8822    1.2024   26.8782 H   0  0  0  0  0  0  0  0  0  0  0  0
    8.0215    1.6152   26.3753 H   0  0  0  0  0  0  0  0  0  0  0  0
    7.4550    4.3437   25.4674 H   0  0  0  0  0  0  0  0  0  0  0  0
    9.0752    3.6938   25.7359 H   0  0  0  0  0  0  0  0  0  0  0  0
    6.9926    2.5872   23.7770 H   0  0  0  0  0  0  0  0  0  0  0  0
    8.5364    3.3606   23.3827 H   0  0  0  0  0  0  0  0  0  0  0  0
   10.0239    1.4555   23.9097 C   0  0  0  0  0  0  0  0  0  0  0  0
   10.7038    2.4619   24.0980 O   0  0  0  0  0  0  0  0  0  0  0  0
   10.6050    0.1898   23.3982 C   0  0  0  0  0  0  0  0  0  0  0  0
   11.9715    0.0032   23.5273 C   0  0  0  0  0  0  0  0  0  0  0  0
   12.5612   -1.1007   22.9487 C   0  0  0  0  0  0  0  0  0  0  0  0
   11.7960   -1.9611   22.1467 C   0  0  0  0  0  0  0  0  0  0  0  0
   12.4636   -3.2904   21.2202 Cl  0  0  0  0  0  0  0  0  0  0  0  0
   10.4350   -1.7754   22.0302 C   0  0  0  0  0  0  0  0  0  0  0  0
    9.8077   -0.7459   22.7307 C   0  0  0  0  0  0  0  0  0  0  0  0
    9.8846   -2.4284   21.3617 H   0  0  0  0  0  0  0  0  0  0  0  0
   13.6135   -1.2429   23.1309 H   0  0  0  0  0  0  0  0  0  0  0  0
   12.5336    0.7504   24.0855 H   0  0  0  0  0  0  0  0  0  0  0  0
    6.8310    0.5089   23.8796 H   0  0  0  0  0  0  0  0  0  0  0  0
    8.0292   -0.4304   24.7887 H   0  0  0  0  0  0  0  0  0  0  0  0
    6.1490   -2.4808   20.9150 H   0  0  0  0  0  0  0  0  0  0  0  0
    5.4360   -1.3980   22.1248 H   0  0  0  0  0  0  0  0  0  0  0  0
    8.1720   -2.6438   22.0796 H   0  0  0  0  0  0  0  0  0  0  0  0
    6.3021   -1.9092   24.3646 H   0  0  0  0  0  0  0  0  0  0  0  0
    7.8459   -2.7558   24.5641 H   0  0  0  0  0  0  0  0  0  0  0  0
    6.5240   -3.5152   23.6746 H   0  0  0  0  0  0  0  0  0  0  0  0
  1  2  1  0
  2  3  1  0
  3  4  1  0
  4  5  1  0
  5  6  2  0
  6  7  1  0
  7  8  2  0
  8  9  1  0
  9 10  2  0
 10 11  1  0
 11 12  2  0
 12 13  1  0
 13 14  2  0
 13 15  1  0
 12 16  1  0
 11 17  1  0
 10 18  1  0
  8 19  1  0
  6 20  1  0
  4 21  1  0
 21 22  2  0
 21 23  1  0
 23 24  1  1
 24 25  1  0
 25 26  1  0
 26 27  1  0
 27 28  1  0
 28 29  1  0
 29 30  1  0
 30 31  1  0
 31 32  1  0
 32 33  1  0
 33 34  1  0
 34 35  1  0
 34 36  1  0
 32 37  1  0
 32 38  1  0
 31 39  1  0
 39 40  1  0
 39 41  1  0
 30 42  1  0
 30 43  1  0
 29 44  1  0
 29 45  1  0
 28 46  1  6
 27 47  1  0
 27 48  1  0
 26 49  1  0
 26 50  1  0
 25 51  1  0
 51 52  2  0
 51 53  1  0
 53 54  2  0
 54 55  1  0
 55 56  2  0
 56 57  1  0
 56 58  1  0
 58 59  2  0
 58 60  1  0
 55 61  1  0
 54 62  1  0
 24 63  1  0
 24 64  1  0
  3 65  1  0
  3 66  1  0
  2 67  1  6
  1 68  1  0
  1 69  1  0
  1 70  1  0
 23  2  1  0
 39 28  1  0
 59 53  1  0
 14  5  1  0
 59 23  1  0
 14  9  1  0
 34 31  1  0
M  CHG  1  28   1
M  END
>  <cnnaffinities>  (63) 
[5.91047, 6.24449]

>  <score>  (63) 
5.91047

>  <index>  (63) 
62

>  <Smiles>  (63) 
C([C@]1(C(N(c2c(nc(c3c(c(c(c(c23)[H])[H])[H])[H])[H])[H])C(=O)[C@]21C(N(C(C([N@@+]1(C(C(C3(C(OC3([H])[H])([H])[H])C1([H])[H])([H])[H])([H])[H])[H])([H])[H])([H])[H])C(=O)c1c(c(c(Cl)c(c21)[H])[H])[H])([H])[H])([H])[H])[H])([H])([H])[H]

>  <h>  (63) 
<NA>

>  <Training>  (63) 
True

>  <Success>  (63) 
True

>  <enamine_searched>  (63) 
False

>  <enamine_id>  (63) 
nan

$$$$

     RDKit          3D

 56 61  0  0  0  0  0  0  0  0999 V2000
    5.5669    4.8333   21.4504 C   0  0  0  0  0  0  0  0  0  0  0  0
    6.5729    4.5688   22.4578 N   0  0  0  0  0  0  0  0  0  0  0  0
    7.7720    5.1792   22.5717 C   0  0  0  0  0  0  0  0  0  0  0  0
    8.4572    4.5443   23.5750 C   0  0  0  0  0  0  0  0  0  0  0  0
    7.5823    3.5208   24.0005 C   0  0  0  0  0  0  0  0  0  0  0  0
    7.9084    2.4519   25.0086 C   0  0  0  0  0  0  0  0  0  0  0  0
    8.6886    1.3391   24.4503 N   0  0  0  0  0  0  0  0  0  0  0  0
    8.0220    0.0868   24.1437 C   0  0  0  0  0  0  0  0  0  0  0  0
    8.3705   -0.4541   22.7295 C   0  0  1  0  0  0  0  0  0  0  0  0
    7.7268   -1.8432   22.5307 C   0  0  0  0  0  0  0  0  0  0  0  0
    6.9839   -1.8082   21.1825 C   0  0  0  0  0  0  0  0  0  0  0  0
    6.8684   -0.3963   20.8853 N   0  0  0  0  0  0  0  0  0  0  0  0
    6.1287    0.1099   19.7851 C   0  0  0  0  0  0  0  0  0  0  0  0
    6.4434   -0.2241   18.4907 C   0  0  0  0  0  0  0  0  0  0  0  0
    5.7728    0.2290   17.4030 N   0  0  0  0  0  0  0  0  0  0  0  0
    4.7502    1.0229   17.5986 C   0  0  0  0  0  0  0  0  0  0  0  0
    4.2946    1.4274   18.8834 C   0  0  0  0  0  0  0  0  0  0  0  0
    3.1648    2.2709   19.0592 C   0  0  0  0  0  0  0  0  0  0  0  0
    2.7379    2.6112   20.3129 C   0  0  0  0  0  0  0  0  0  0  0  0
    3.4227    2.1244   21.4508 C   0  0  0  0  0  0  0  0  0  0  0  0
    4.5213    1.3169   21.3064 C   0  0  0  0  0  0  0  0  0  0  0  0
    4.9993    0.9554   20.0187 C   0  0  0  0  0  0  0  0  0  0  0  0
    5.0282    0.9385   22.1890 H   0  0  0  0  0  0  0  0  0  0  0  0
    3.0813    2.3946   22.4459 H   0  0  0  0  0  0  0  0  0  0  0  0
    1.8741    3.2553   20.4458 H   0  0  0  0  0  0  0  0  0  0  0  0
    2.6512    2.6384   18.1741 H   0  0  0  0  0  0  0  0  0  0  0  0
    4.2208    1.3829   16.7147 H   0  0  0  0  0  0  0  0  0  0  0  0
    7.2885   -0.8753   18.2705 H   0  0  0  0  0  0  0  0  0  0  0  0
    7.7208    0.4001   21.6186 C   0  0  0  0  0  0  0  0  0  0  0  0
    7.9194    1.5738   21.4073 O   0  0  0  0  0  0  0  0  0  0  0  0
    5.9869   -2.2624   21.2318 H   0  0  0  0  0  0  0  0  0  0  0  0
    7.5607   -2.3096   20.4036 H   0  0  0  0  0  0  0  0  0  0  0  0
    8.4782   -2.6373   22.5683 H   0  0  0  0  0  0  0  0  0  0  0  0
    7.0144   -2.0431   23.3398 H   0  0  0  0  0  0  0  0  0  0  0  0
    9.8720   -0.4182   22.5475 C   0  0  0  0  0  0  0  0  0  0  0  0
   10.4955   -1.2305   21.5961 C   0  0  0  0  0  0  0  0  0  0  0  0
   11.8623   -1.1566   21.4075 C   0  0  0  0  0  0  0  0  0  0  0  0
   12.5976   -2.0778   20.1180 Cl  0  0  0  0  0  0  0  0  0  0  0  0
   12.6358   -0.2701   22.1595 C   0  0  0  0  0  0  0  0  0  0  0  0
   12.0207    0.5671   23.0684 C   0  0  0  0  0  0  0  0  0  0  0  0
   10.6396    0.5157   23.2443 C   0  0  0  0  0  0  0  0  0  0  0  0
    9.9821    1.5835   24.0607 C   0  0  0  0  0  0  0  0  0  0  0  0
   10.5649    2.6314   24.3090 O   0  0  0  0  0  0  0  0  0  0  0  0
   12.5969    1.2704   23.6609 H   0  0  0  0  0  0  0  0  0  0  0  0
   13.6959   -0.1861   21.9710 H   0  0  0  0  0  0  0  0  0  0  0  0
    9.9258   -1.8670   20.9294 H   0  0  0  0  0  0  0  0  0  0  0  0
    8.2871   -0.6884   24.8819 H   0  0  0  0  0  0  0  0  0  0  0  0
    6.9433    0.2674   24.1879 H   0  0  0  0  0  0  0  0  0  0  0  0
    6.9882    2.0344   25.4345 H   0  0  0  0  0  0  0  0  0  0  0  0
    8.5005    2.8874   25.8195 H   0  0  0  0  0  0  0  0  0  0  0  0
    6.4303    3.5548   23.3346 N   0  0  0  0  0  0  0  0  0  0  0  0
    9.4578    4.7136   23.9491 H   0  0  0  0  0  0  0  0  0  0  0  0
    8.0508    5.9843   21.9024 H   0  0  0  0  0  0  0  0  0  0  0  0
    4.5783    4.7736   21.9104 H   0  0  0  0  0  0  0  0  0  0  0  0
    5.7261    5.8456   21.0670 H   0  0  0  0  0  0  0  0  0  0  0  0
    5.6219    4.1112   20.6245 H   0  0  0  0  0  0  0  0  0  0  0  0
  1  2  1  0
  2  3  1  0
  3  4  2  0
  4  5  1  0
  5  6  1  0
  6  7  1  0
  7  8  1  0
  9  8  1  1
  9 10  1  0
 10 11  1  0
 11 12  1  0
 12 13  1  0
 13 14  2  0
 14 15  1  0
 15 16  2  0
 16 17  1  0
 17 18  2  0
 18 19  1  0
 19 20  2  0
 20 21  1  0
 21 22  2  0
 21 23  1  0
 20 24  1  0
 19 25  1  0
 18 26  1  0
 16 27  1  0
 14 28  1  0
 12 29  1  0
 29 30  2  0
 11 31  1  0
 11 32  1  0
 10 33  1  0
 10 34  1  0
  9 35  1  0
 35 36  2  0
 36 37  1  0
 37 38  1  0
 37 39  2  0
 39 40  1  0
 40 41  2  0
 41 42  1  0
 42 43  2  0
 40 44  1  0
 39 45  1  0
 36 46  1  0
  8 47  1  0
  8 48  1  0
  6 49  1  0
  6 50  1  0
  5 51  2  0
  4 52  1  0
  3 53  1  0
  1 54  1  0
  1 55  1  0
  1 56  1  0
 51  2  1  0
 42  7  1  0
 29  9  1  0
 41 35  1  0
 22 13  1  0
 22 17  1  0
M  END
>  <cnnaffinities>  (64) 
[6.26365]

>  <score>  (64) 
6.26365

>  <index>  (64) 
63

>  <Smiles>  (64) 
C(n1c(c(c(C(N2C([C@]3(C(C(N(c4c(nc(c5c(c(c(c(c45)[H])[H])[H])[H])[H])[H])C3=O)([H])[H])([H])[H])c3c(c(Cl)c(c(c3C2=O)[H])[H])[H])([H])[H])([H])[H])n1)[H])[H])([H])([H])[H]

>  <h>  (64) 
<NA>

>  <Training>  (64) 
True

>  <Success>  (64) 
True

>  <enamine_searched>  (64) 
False

>  <enamine_id>  (64) 
nan

$$$$

     RDKit          3D

 66 71  0  0  0  0  0  0  0  0999 V2000
    7.1515   -2.4791   23.4303 C   0  0  0  0  0  0  0  0  0  0  0  0
    8.0267   -1.7776   22.3854 C   0  0  1  0  0  0  0  0  0  0  0  0
    7.3309   -1.7078   21.0088 C   0  0  0  0  0  0  0  0  0  0  0  0
    6.9497   -0.3185   20.8557 N   0  0  0  0  0  0  0  0  0  0  0  0
    6.1511    0.1314   19.7838 C   0  0  0  0  0  0  0  0  0  0  0  0
    6.4455   -0.2273   18.4909 C   0  0  0  0  0  0  0  0  0  0  0  0
    5.7706    0.2160   17.4068 N   0  0  0  0  0  0  0  0  0  0  0  0
    4.7550    1.0172   17.6078 C   0  0  0  0  0  0  0  0  0  0  0  0
    4.3082    1.4220   18.8967 C   0  0  0  0  0  0  0  0  0  0  0  0
    3.1878    2.2796   19.0606 C   0  0  0  0  0  0  0  0  0  0  0  0
    2.7558    2.6274   20.3114 C   0  0  0  0  0  0  0  0  0  0  0  0
    3.4206    2.1284   21.4544 C   0  0  0  0  0  0  0  0  0  0  0  0
    4.5119    1.3064   21.3211 C   0  0  0  0  0  0  0  0  0  0  0  0
    5.0046    0.9519   20.0305 C   0  0  0  0  0  0  0  0  0  0  0  0
    5.0114    0.9261   22.2064 H   0  0  0  0  0  0  0  0  0  0  0  0
    3.0724    2.4084   22.4464 H   0  0  0  0  0  0  0  0  0  0  0  0
    1.9044    3.2914   20.4355 H   0  0  0  0  0  0  0  0  0  0  0  0
    2.6901    2.6522   18.1692 H   0  0  0  0  0  0  0  0  0  0  0  0
    4.2238    1.3783   16.7270 H   0  0  0  0  0  0  0  0  0  0  0  0
    7.2919   -0.8806   18.2809 H   0  0  0  0  0  0  0  0  0  0  0  0
    7.6233    0.5323   21.7008 C   0  0  0  0  0  0  0  0  0  0  0  0
    7.5746    1.7448   21.6602 O   0  0  0  0  0  0  0  0  0  0  0  0
    8.4432   -0.3096   22.7050 C   0  0  1  0  0  0  0  0  0  0  0  0
    8.1158    0.1211   24.1452 C   0  0  0  0  0  0  0  0  0  0  0  0
    8.5784    1.4604   24.4420 N   0  0  0  0  0  0  0  0  0  0  0  0
    7.7515    2.2884   25.2956 C   0  0  0  0  0  0  0  0  0  0  0  0
    6.6947    3.0724   24.5277 C   0  0  0  0  0  0  0  0  0  0  0  0
    7.2745    4.1342   23.6642 N   0  0  0  0  0  4  0  0  0  0  0  0
    7.7898    5.3123   24.4594 C   0  0  0  0  0  0  0  0  0  0  0  0
    8.2628    6.4239   23.5340 C   0  0  0  0  0  0  0  0  0  0  0  0
    7.2403    6.8433   22.6555 O   0  0  0  0  0  0  0  0  0  0  0  0
    6.8232    5.7672   21.8417 C   0  0  0  0  0  0  0  0  0  0  0  0
    6.2562    4.6218   22.6633 C   0  0  0  0  0  0  0  0  0  0  0  0
    5.9930    3.7840   22.0135 H   0  0  0  0  0  0  0  0  0  0  0  0
    5.3607    4.9566   23.2013 H   0  0  0  0  0  0  0  0  0  0  0  0
    7.6737    5.3939   21.2541 H   0  0  0  0  0  0  0  0  0  0  0  0
    6.0734    6.1619   21.1508 H   0  0  0  0  0  0  0  0  0  0  0  0
    8.5564    7.3062   24.1103 H   0  0  0  0  0  0  0  0  0  0  0  0
    9.1419    6.0809   22.9598 H   0  0  0  0  0  0  0  0  0  0  0  0
    6.9757    5.6896   25.0917 H   0  0  0  0  0  0  0  0  0  0  0  0
    8.6172    4.9886   25.0896 H   0  0  0  0  0  0  0  0  0  0  0  0
    8.0447    3.7003   23.1210 H   0  0  0  0  0  0  0  0  0  0  0  0
    6.1226    2.3899   23.8857 H   0  0  0  0  0  0  0  0  0  0  0  0
    5.9959    3.5246   25.2423 H   0  0  0  0  0  0  0  0  0  0  0  0
    7.2544    1.6289   26.0117 H   0  0  0  0  0  0  0  0  0  0  0  0
    8.4156    2.9570   25.8455 H   0  0  0  0  0  0  0  0  0  0  0  0
    9.7545    1.9559   23.9804 C   0  0  0  0  0  0  0  0  0  0  0  0
   10.0998    3.1166   24.2042 O   0  0  0  0  0  0  0  0  0  0  0  0
   10.5660    1.0170   23.1487 C   0  0  0  0  0  0  0  0  0  0  0  0
   11.9130    1.2977   22.9205 C   0  0  0  0  0  0  0  0  0  0  0  0
   12.6764    0.4610   22.1126 C   0  0  0  0  0  0  0  0  0  0  0  0
   12.0430   -0.6189   21.5011 C   0  0  0  0  0  0  0  0  0  0  0  0
   12.7627   -1.5208   20.1656 Cl  0  0  0  0  0  0  0  0  0  0  0  0
   10.6924   -0.8517   21.6544 C   0  0  0  0  0  0  0  0  0  0  0  0
    9.9353   -0.0697   22.5236 C   0  0  0  0  0  0  0  0  0  0  0  0
   10.2501   -1.5894   20.9912 H   0  0  0  0  0  0  0  0  0  0  0  0
   13.7141    0.6965   21.8903 H   0  0  0  0  0  0  0  0  0  0  0  0
   12.3116    2.2134   23.3563 H   0  0  0  0  0  0  0  0  0  0  0  0
    7.0346    0.1158   24.2944 H   0  0  0  0  0  0  0  0  0  0  0  0
    8.5929   -0.6043   24.8208 H   0  0  0  0  0  0  0  0  0  0  0  0
    8.0103   -2.0031   20.2002 H   0  0  0  0  0  0  0  0  0  0  0  0
    6.4418   -2.3450   20.9614 H   0  0  0  0  0  0  0  0  0  0  0  0
    8.9332   -2.3829   22.3081 H   0  0  0  0  0  0  0  0  0  0  0  0
    6.1979   -1.9612   23.5840 H   0  0  0  0  0  0  0  0  0  0  0  0
    7.6658   -2.5568   24.3939 H   0  0  0  0  0  0  0  0  0  0  0  0
    6.9342   -3.5007   23.1017 H   0  0  0  0  0  0  0  0  0  0  0  0
  1  2  1  0
  2  3  1  0
  3  4  1  0
  4  5  1  0
  5  6  2  0
  6  7  1  0
  7  8  2  0
  8  9  1  0
  9 10  2  0
 10 11  1  0
 11 12  2  0
 12 13  1  0
 13 14  2  0
 13 15  1  0
 12 16  1  0
 11 17  1  0
 10 18  1  0
  8 19  1  0
  6 20  1  0
  4 21  1  0
 21 22  2  0
 21 23  1  0
 23 24  1  1
 24 25  1  0
 25 26  1  0
 26 27  1  0
 27 28  1  0
 28 29  1  0
 29 30  1  0
 30 31  1  0
 31 32  1  0
 32 33  1  0
 33 34  1  0
 33 35  1  0
 32 36  1  0
 32 37  1  0
 30 38  1  0
 30 39  1  0
 29 40  1  0
 29 41  1  0
 28 42  1  0
 27 43  1  0
 27 44  1  0
 26 45  1  0
 26 46  1  0
 25 47  1  0
 47 48  2  0
 47 49  1  0
 49 50  2  0
 50 51  1  0
 51 52  2  0
 52 53  1  0
 52 54  1  0
 54 55  2  0
 54 56  1  0
 51 57  1  0
 50 58  1  0
 24 59  1  0
 24 60  1  0
  3 61  1  0
  3 62  1  0
  2 63  1  6
  1 64  1  0
  1 65  1  0
  1 66  1  0
 23  2  1  0
 33 28  1  0
 55 49  1  0
 14  5  1  0
 55 23  1  0
 14  9  1  0
M  CHG  1  28   1
M  END
>  <cnnaffinities>  (65) 
[6.39916, 6.45502]

>  <score>  (65) 
6.39916

>  <index>  (65) 
64

>  <Smiles>  (65) 
C([C@]1(C(N(c2c(nc(c3c(c(c(c(c23)[H])[H])[H])[H])[H])[H])C(=O)[C@]21C(N(C(C([N+]1(C(C(OC(C1([H])[H])([H])[H])([H])[H])([H])[H])[H])([H])[H])([H])[H])C(=O)c1c(c(c(Cl)c(c21)[H])[H])[H])([H])[H])([H])[H])[H])([H])([H])[H]

>  <h>  (65) 
<NA>

>  <Training>  (65) 
True

>  <Success>  (65) 
True

>  <enamine_searched>  (65) 
False

>  <enamine_id>  (65) 
nan

$$$$

     RDKit          3D

 54 59  0  0  0  0  0  0  0  0999 V2000
   12.1383   -3.1789   21.2795 C   0  0  0  0  0  0  0  0  0  0  0  0
   11.9301   -2.0068   22.0965 N   0  0  0  0  0  0  0  0  0  0  0  0
   12.2165   -2.0312   23.4236 C   0  0  0  0  0  0  0  0  0  0  0  0
   12.7962   -2.9500   23.9723 O   0  0  0  0  0  0  0  0  0  0  0  0
   11.7014   -0.7895   24.1619 C   0  0  0  0  0  0  0  0  0  0  0  0
   10.2555   -0.7709   24.2575 N   0  0  0  0  0  0  0  0  0  0  0  0
    9.5635   -1.6318   25.0970 C   0  0  0  0  0  0  0  0  0  0  0  0
   10.0190   -2.6604   25.5545 O   0  0  0  0  0  0  0  0  0  0  0  0
    8.1809   -1.0634   25.2053 C   0  0  0  0  0  0  0  0  0  0  0  0
    7.2203   -1.3691   26.1344 C   0  0  0  0  0  0  0  0  0  0  0  0
    6.0428   -0.5856   26.1685 C   0  0  0  0  0  0  0  0  0  0  0  0
    5.9221    0.5254   25.3739 C   0  0  0  0  0  0  0  0  0  0  0  0
    4.4570    1.4588   25.3734 Cl  0  0  0  0  0  0  0  0  0  0  0  0
    7.0452    1.0907   24.5807 C   0  0  0  0  0  0  0  0  0  0  0  0
    8.0430    0.0072   24.2291 C   0  0  1  0  0  0  0  0  0  0  0  0
    9.3967    0.1579   23.5886 C   0  0  2  0  0  0  0  0  0  0  0  0
    8.2743   -0.3836   22.7463 C   0  0  2  0  0  0  0  0  0  0  0  0
    7.7131    0.4896   21.6493 C   0  0  0  0  0  0  0  0  0  0  0  0
    7.8748    1.6759   21.4643 O   0  0  0  0  0  0  0  0  0  0  0  0
    6.9353   -0.3265   20.8516 N   0  0  0  0  0  0  0  0  0  0  0  0
    6.1542    0.1493   19.7782 C   0  0  0  0  0  0  0  0  0  0  0  0
    6.4560   -0.2097   18.4890 C   0  0  0  0  0  0  0  0  0  0  0  0
    5.7797    0.2276   17.4038 N   0  0  0  0  0  0  0  0  0  0  0  0
    4.7580    1.0226   17.6068 C   0  0  0  0  0  0  0  0  0  0  0  0
    4.3109    1.4287   18.8953 C   0  0  0  0  0  0  0  0  0  0  0  0
    3.1844    2.2737   19.0667 C   0  0  0  0  0  0  0  0  0  0  0  0
    2.7571    2.6156   20.3206 C   0  0  0  0  0  0  0  0  0  0  0  0
    3.4279    2.1215   21.4634 C   0  0  0  0  0  0  0  0  0  0  0  0
    4.5181    1.3006   21.3227 C   0  0  0  0  0  0  0  0  0  0  0  0
    5.0074    0.9629   20.0284 C   0  0  0  0  0  0  0  0  0  0  0  0
    5.0022    0.8968   22.2078 H   0  0  0  0  0  0  0  0  0  0  0  0
    3.0846    2.3827   22.4622 H   0  0  0  0  0  0  0  0  0  0  0  0
    1.8993    3.2695   20.4447 H   0  0  0  0  0  0  0  0  0  0  0  0
    2.6786    2.6394   18.1781 H   0  0  0  0  0  0  0  0  0  0  0  0
    4.2197    1.3741   16.7276 H   0  0  0  0  0  0  0  0  0  0  0  0
    7.3067   -0.8626   18.2916 H   0  0  0  0  0  0  0  0  0  0  0  0
    7.1028   -1.7368   21.1227 C   0  0  0  0  0  0  0  0  0  0  0  0
    8.1121   -1.7612   22.2341 C   0  0  0  0  0  0  0  0  0  0  0  0
    8.6872   -2.9101   22.6152 C   0  0  0  0  0  0  0  0  0  0  0  0
    8.3046   -4.0715   22.0538 F   0  0  0  0  0  0  0  0  0  0  0  0
    9.4697   -3.0469   23.3484 H   0  0  0  0  0  0  0  0  0  0  0  0
    7.4663   -2.2391   20.2291 H   0  0  0  0  0  0  0  0  0  0  0  0
    6.1559   -2.1957   21.4358 H   0  0  0  0  0  0  0  0  0  0  0  0
    9.8244    1.1065   23.2724 H   0  0  0  0  0  0  0  0  0  0  0  0
    6.6825    1.6127   23.6858 H   0  0  0  0  0  0  0  0  0  0  0  0
    7.5517    1.8817   25.1645 H   0  0  0  0  0  0  0  0  0  0  0  0
    5.2420   -0.8306   26.8593 H   0  0  0  0  0  0  0  0  0  0  0  0
    7.3571   -2.2006   26.8185 H   0  0  0  0  0  0  0  0  0  0  0  0
   12.0104    0.1093   23.6118 H   0  0  0  0  0  0  0  0  0  0  0  0
   12.1545   -0.7773   25.1565 H   0  0  0  0  0  0  0  0  0  0  0  0
   11.4998   -1.1953   21.6899 H   0  0  0  0  0  0  0  0  0  0  0  0
   11.3405   -3.8976   21.4449 H   0  0  0  0  0  0  0  0  0  0  0  0
   13.0825   -3.6525   21.5479 H   0  0  0  0  0  0  0  0  0  0  0  0
   12.1457   -2.8975   20.2267 H   0  0  0  0  0  0  0  0  0  0  0  0
  1  2  1  0
  2  3  1  0
  3  4  2  0
  3  5  1  0
  5  6  1  0
  6  7  1  0
  7  8  2  0
  7  9  1  0
  9 10  2  0
 10 11  1  0
 11 12  2  0
 12 13  1  0
 12 14  1  0
 15 14  1  6
 15 16  1  0
 16 17  1  0
 17 18  1  6
 18 19  2  0
 18 20  1  0
 20 21  1  0
 21 22  2  0
 22 23  1  0
 23 24  2  0
 24 25  1  0
 25 26  2  0
 26 27  1  0
 27 28  2  0
 28 29  1  0
 29 30  2  0
 29 31  1  0
 28 32  1  0
 27 33  1  0
 26 34  1  0
 24 35  1  0
 22 36  1  0
 20 37  1  0
 37 38  1  0
 38 39  2  0
 39 40  1  0
 39 41  1  0
 37 42  1  0
 37 43  1  0
 16 44  1  6
 14 45  1  0
 14 46  1  0
 11 47  1  0
 10 48  1  0
  5 49  1  0
  5 50  1  0
  2 51  1  0
  1 52  1  0
  1 53  1  0
  1 54  1  0
 16  6  1  0
 38 17  1  0
 15  9  1  0
 30 21  1  0
 17 15  1  0
 30 25  1  0
M  END
>  <cnnaffinities>  (66) 
[6.6941]

>  <score>  (66) 
6.6941

>  <index>  (66) 
65

>  <Smiles>  (66) 
C(N(C(=O)C(N1C(=O)C2=C(C(=C(Cl)C([C@]32[C@@]1([C@@]13C(=O)N(c2c(nc(c3c(c(c(c(c23)[H])[H])[H])[H])[H])[H])C(/C/1=C(\F)/[H])([H])[H])[H])([H])[H])[H])[H])([H])[H])[H])([H])([H])[H]

>  <h>  (66) 
<NA>

>  <Training>  (66) 
True

>  <Success>  (66) 
True

>  <enamine_searched>  (66) 
False

>  <enamine_id>  (66) 
nan

$$$$

     RDKit          3D

 47 50  0  0  0  0  0  0  0  0999 V2000
    5.4683   -2.4326   20.9151 O   0  0  0  0  0  0  0  0  0  0  0  0
    6.1366   -1.6667   21.5837 C   0  0  0  0  0  0  0  0  0  0  0  0
    6.9050   -0.5053   20.9151 C   0  0  0  0  0  0  0  0  0  0  0  0
    6.1171    0.0892   19.7681 C   0  0  0  0  0  0  0  0  0  0  0  0
    6.4226   -0.2137   18.4665 C   0  0  0  0  0  0  0  0  0  0  0  0
    5.7571    0.2444   17.3739 N   0  0  0  0  0  0  0  0  0  0  0  0
    4.7333    1.0319   17.5787 C   0  0  0  0  0  0  0  0  0  0  0  0
    4.2848    1.4224   18.8691 C   0  0  0  0  0  0  0  0  0  0  0  0
    3.1624    2.2715   19.0462 C   0  0  0  0  0  0  0  0  0  0  0  0
    2.7480    2.6230   20.3020 C   0  0  0  0  0  0  0  0  0  0  0  0
    3.4441    2.1408   21.4339 C   0  0  0  0  0  0  0  0  0  0  0  0
    4.5359    1.3203   21.2847 C   0  0  0  0  0  0  0  0  0  0  0  0
    4.9915    0.9376   19.9975 C   0  0  0  0  0  0  0  0  0  0  0  0
    5.0616    0.9621   22.1643 H   0  0  0  0  0  0  0  0  0  0  0  0
    3.1073    2.4227   22.4280 H   0  0  0  0  0  0  0  0  0  0  0  0
    1.8888    3.2753   20.4389 H   0  0  0  0  0  0  0  0  0  0  0  0
    2.6412    2.6417   18.1654 H   0  0  0  0  0  0  0  0  0  0  0  0
    4.1996    1.3981   16.6985 H   0  0  0  0  0  0  0  0  0  0  0  0
    7.2649   -0.8682   18.2418 H   0  0  0  0  0  0  0  0  0  0  0  0
    7.8522   -0.9033   20.5239 H   0  0  0  0  0  0  0  0  0  0  0  0
    7.1649    0.2744   21.6462 H   0  0  0  0  0  0  0  0  0  0  0  0
    6.1911   -1.7441   22.9672 N   0  0  0  0  0  0  0  0  0  0  0  0
    7.4433   -1.6674   23.7139 C   0  0  0  0  0  0  0  0  0  0  0  0
    7.2187   -1.0325   25.0741 C   0  0  0  0  0  0  0  0  0  0  0  0
    6.1364   -1.7613   25.8672 C   0  0  1  0  0  0  0  0  0  0  0  0
    5.8697   -1.1105   27.2362 C   0  0  0  0  0  0  0  0  0  0  0  0
    5.1189    0.2183   27.1460 C   0  0  0  0  0  0  0  0  0  0  0  0
    3.8594    0.0736   26.3217 C   0  0  0  0  0  0  0  0  0  0  0  0
    3.2391    1.2891   26.1829 F   0  0  0  0  0  0  0  0  0  0  0  0
    2.9674   -0.7134   27.0058 F   0  0  0  0  0  0  0  0  0  0  0  0
    4.1016   -0.5395   24.9584 C   0  0  0  0  0  0  0  0  0  0  0  0
    4.8425   -1.8786   25.0487 C   0  0  1  0  0  0  0  0  0  0  0  0
    5.1295   -2.4695   23.6632 C   0  0  0  0  0  0  0  0  0  0  0  0
    5.3647   -3.5410   23.7617 H   0  0  0  0  0  0  0  0  0  0  0  0
    4.2340   -2.4181   23.0421 H   0  0  0  0  0  0  0  0  0  0  0  0
    4.1704   -2.5627   25.5774 H   0  0  0  0  0  0  0  0  0  0  0  0
    4.6726    0.1798   24.3671 H   0  0  0  0  0  0  0  0  0  0  0  0
    3.1315   -0.6632   24.4723 H   0  0  0  0  0  0  0  0  0  0  0  0
    4.8537    0.5979   28.1378 H   0  0  0  0  0  0  0  0  0  0  0  0
    5.7351    0.9798   26.6628 H   0  0  0  0  0  0  0  0  0  0  0  0
    6.8165   -0.9556   27.7644 H   0  0  0  0  0  0  0  0  0  0  0  0
    5.2845   -1.7989   27.8556 H   0  0  0  0  0  0  0  0  0  0  0  0
    6.5065   -2.7795   26.0506 H   0  0  0  0  0  0  0  0  0  0  0  0
    6.9608    0.0211   24.9438 H   0  0  0  0  0  0  0  0  0  0  0  0
    8.1573   -1.0575   25.6321 H   0  0  0  0  0  0  0  0  0  0  0  0
    7.8828   -2.6683   23.8601 H   0  0  0  0  0  0  0  0  0  0  0  0
    8.1733   -1.0990   23.1362 H   0  0  0  0  0  0  0  0  0  0  0  0
  1  2  2  0
  2  3  1  0
  3  4  1  0
  4  5  2  0
  5  6  1  0
  6  7  2  0
  7  8  1  0
  8  9  2  0
  9 10  1  0
 10 11  2  0
 11 12  1  0
 12 13  2  0
 12 14  1  0
 11 15  1  0
 10 16  1  0
  9 17  1  0
  7 18  1  0
  5 19  1  0
  3 20  1  0
  3 21  1  0
  2 22  1  0
 22 23  1  0
 23 24  1  0
 24 25  1  0
 25 26  1  0
 26 27  1  0
 27 28  1  0
 28 29  1  0
 28 30  1  0
 28 31  1  0
 31 32  1  0
 32 33  1  0
 33 34  1  0
 33 35  1  0
 32 36  1  1
 31 37  1  0
 31 38  1  0
 27 39  1  0
 27 40  1  0
 26 41  1  0
 26 42  1  0
 25 43  1  1
 24 44  1  0
 24 45  1  0
 23 46  1  0
 23 47  1  0
 13  4  1  0
 33 22  1  0
 13  8  1  0
 32 25  1  0
M  END
>  <cnnaffinities>  (67) 
[5.28965, 5.28972]

>  <score>  (67) 
5.28965

>  <index>  (67) 
66

>  <Smiles>  (67) 
O=C(C(c1c(nc(c2c(c(c(c(c12)[H])[H])[H])[H])[H])[H])([H])[H])N1C(C([C@]2(C(C(C(F)(F)C([C@]2(C1([H])[H])[H])([H])[H])([H])[H])([H])[H])[H])([H])[H])([H])[H]

>  <h>  (67) 
<NA>

>  <Training>  (67) 
True

>  <Success>  (67) 
True

>  <enamine_searched>  (67) 
False

>  <enamine_id>  (67) 
nan

$$$$

     RDKit          3D

 69 74  0  0  0  0  0  0  0  0999 V2000
    8.4851   -6.9743   23.3059 C   0  0  0  0  0  0  0  0  0  0  0  0
    7.1640   -7.0824   22.6402 N   0  0  0  0  0  4  0  0  0  0  0  0
    7.0175   -6.2575   21.3913 C   0  0  0  0  0  0  0  0  0  0  0  0
    6.1200   -5.0404   21.6179 C   0  0  0  0  0  0  0  0  0  0  0  0
    6.5916   -4.1585   22.6714 N   0  0  0  0  0  0  0  0  0  0  0  0
    7.5805   -3.1331   22.4145 C   0  0  0  0  0  0  0  0  0  0  0  0
    7.0088   -1.7158   22.7283 C   0  0  2  0  0  0  0  0  0  0  0  0
    5.8784   -1.4546   21.6914 C   0  0  0  0  0  0  0  0  0  0  0  0
    4.7656   -1.9167   21.7046 O   0  0  0  0  0  0  0  0  0  0  0  0
    6.3830   -0.6414   20.6882 N   0  0  0  0  0  0  0  0  0  0  0  0
    5.6332   -0.0711   19.6404 C   0  0  0  0  0  0  0  0  0  0  0  0
    5.9854   -0.3484   18.3438 C   0  0  0  0  0  0  0  0  0  0  0  0
    5.4171    0.2188   17.2576 N   0  0  0  0  0  0  0  0  0  0  0  0
    4.4823    1.1115   17.4591 C   0  0  0  0  0  0  0  0  0  0  0  0
    4.0167    1.4880   18.7485 C   0  0  0  0  0  0  0  0  0  0  0  0
    3.0122    2.4786   18.9045 C   0  0  0  0  0  0  0  0  0  0  0  0
    2.5987    2.8557   20.1514 C   0  0  0  0  0  0  0  0  0  0  0  0
    3.1599    2.2483   21.2981 C   0  0  0  0  0  0  0  0  0  0  0  0
    4.1241    1.2792   21.1724 C   0  0  0  0  0  0  0  0  0  0  0  0
    4.5878    0.8783   19.8867 C   0  0  0  0  0  0  0  0  0  0  0  0
    4.5247    0.8051   22.0615 H   0  0  0  0  0  0  0  0  0  0  0  0
    2.8271    2.5568   22.2863 H   0  0  0  0  0  0  0  0  0  0  0  0
    1.8444    3.6308   20.2728 H   0  0  0  0  0  0  0  0  0  0  0  0
    2.5950    2.9380   18.0124 H   0  0  0  0  0  0  0  0  0  0  0  0
    4.0521    1.5963   16.5808 H   0  0  0  0  0  0  0  0  0  0  0  0
    6.7663   -1.0797   18.1444 H   0  0  0  0  0  0  0  0  0  0  0  0
    7.8133   -0.4490   20.8124 C   0  0  0  0  0  0  0  0  0  0  0  0
    7.9929   -0.6083   22.3225 C   0  0  2  0  0  0  0  0  0  0  0  0
    9.4551   -0.7724   22.6623 C   0  0  0  0  0  0  0  0  0  0  0  0
   10.0832    0.4205   22.3350 O   0  0  0  0  0  0  0  0  0  0  0  0
   12.2593   -0.9025   21.3778 C   0  0  0  0  0  0  0  0  0  0  0  0
   12.8318   -1.5152   20.1121 C   0  0  0  0  0  0  0  0  0  0  0  0
   12.5824   -2.9122   20.0964 F   0  0  0  0  0  0  0  0  0  0  0  0
   14.0733   -1.0406   19.6635 C   0  0  0  0  0  0  0  0  0  0  0  0
   12.8128   -1.5674   20.2432 C   0  0  0  0  0  0  0  0  0  0  0  0
   13.7113   -0.5360   18.7546 H   0  0  0  0  0  0  0  0  0  0  0  0
   11.3264   -0.2726   21.3918 H   0  0  0  0  0  0  0  0  0  0  0  0
   14.8236   -0.5309   20.2746 H   0  0  0  0  0  0  0  0  0  0  0  0
   14.4855   -1.8275   19.1178 H   0  0  0  0  0  0  0  0  0  0  0  0
   12.0515   -1.8905   21.7105 H   0  0  0  0  0  0  0  0  0  0  0  0
   12.9555   -0.4717   22.1469 H   0  0  0  0  0  0  0  0  0  0  0  0
    9.6084   -1.0207   23.7284 H   0  0  0  0  0  0  0  0  0  0  0  0
    9.8603   -1.6101   22.0740 H   0  0  0  0  0  0  0  0  0  0  0  0
    7.7005    0.3376   22.7655 H   0  0  0  0  0  0  0  0  0  0  0  0
    8.1351    0.5223   20.4270 H   0  0  0  0  0  0  0  0  0  0  0  0
    8.3813   -1.2148   20.2548 H   0  0  0  0  0  0  0  0  0  0  0  0
    6.5374   -1.7227   24.1759 C   0  0  0  0  0  0  0  0  0  0  0  0
    6.5637   -0.6093   25.0341 C   0  0  0  0  0  0  0  0  0  0  0  0
    6.1081   -0.7362   26.3376 C   0  0  0  0  0  0  0  0  0  0  0  0
    6.1633    0.6356   27.4048 Cl  0  0  0  0  0  0  0  0  0  0  0  0
    5.5891   -1.9313   26.8315 C   0  0  0  0  0  0  0  0  0  0  0  0
    5.5248   -3.0121   25.9814 C   0  0  0  0  0  0  0  0  0  0  0  0
    6.0032   -2.9152   24.6814 C   0  0  0  0  0  0  0  0  0  0  0  0
    5.8472   -4.1159   23.8091 C   0  0  0  0  0  0  0  0  0  0  0  0
    5.0823   -5.0286   24.0991 O   0  0  0  0  0  0  0  0  0  0  0  0
    5.1008   -3.9584   26.2885 H   0  0  0  0  0  0  0  0  0  0  0  0
    5.2253   -1.9958   27.8506 H   0  0  0  0  0  0  0  0  0  0  0  0
    6.9051    0.3645   24.6955 H   0  0  0  0  0  0  0  0  0  0  0  0
    7.8907   -3.1842   21.3693 H   0  0  0  0  0  0  0  0  0  0  0  0
    8.4703   -3.3020   23.0392 H   0  0  0  0  0  0  0  0  0  0  0  0
    5.1439   -5.3962   21.9537 H   0  0  0  0  0  0  0  0  0  0  0  0
    5.9645   -4.4694   20.6992 H   0  0  0  0  0  0  0  0  0  0  0  0
    8.0110   -5.9574   21.0600 H   0  0  0  0  0  0  0  0  0  0  0  0
    6.5762   -6.8857   20.6207 H   0  0  0  0  0  0  0  0  0  0  0  0
    6.4309   -6.7739   23.3181 H   0  0  0  0  0  0  0  0  0  0  0  0
    7.0065   -8.0874   22.4010 H   0  0  0  0  0  0  0  0  0  0  0  0
    9.2993   -7.1092   22.5895 H   0  0  0  0  0  0  0  0  0  0  0  0
    8.5965   -5.9890   23.7596 H   0  0  0  0  0  0  0  0  0  0  0  0
    8.5817   -7.7314   24.0821 H   0  0  0  0  0  0  0  0  0  0  0  0
  1  2  1  0
  2  3  1  0
  3  4  1  0
  4  5  1  0
  5  6  1  0
  7  6  1  6
  7  8  1  0
  8  9  2  0
  8 10  1  0
 10 11  1  0
 11 12  2  0
 12 13  1  0
 13 14  2  0
 14 15  1  0
 15 16  2  0
 16 17  1  0
 17 18  2  0
 18 19  1  0
 19 20  2  0
 19 21  1  0
 18 22  1  0
 17 23  1  0
 16 24  1  0
 14 25  1  0
 12 26  1  0
 10 27  1  0
 27 28  1  0
 28 29  1  0
 29 30  1  0
 30 31  1  0
 31 32  1  0
 32 33  1  0
 32 34  1  0
 34 35  1  0
 35 36  1  0
 35 37  1  0
 34 38  1  0
 34 39  1  0
 31 40  1  0
 31 41  1  0
 29 42  1  0
 29 43  1  0
 28 44  1  1
 27 45  1  0
 27 46  1  0
  7 47  1  0
 47 48  2  0
 48 49  1  0
 49 50  1  0
 49 51  2  0
 51 52  1  0
 52 53  2  0
 53 54  1  0
 54 55  2  0
 52 56  1  0
 51 57  1  0
 48 58  1  0
  6 59  1  0
  6 60  1  0
  4 61  1  0
  4 62  1  0
  3 63  1  0
  3 64  1  0
  2 65  1  0
  2 66  1  0
  1 67  1  0
  1 68  1  0
  1 69  1  0
 54  5  1  0
 28  7  1  0
 35 32  1  0
 53 47  1  0
 20 11  1  0
 20 15  1  0
M  CHG  1   2   1
M  END
>  <cnnaffinities>  (68) 
[6.57187]

>  <score>  (68) 
6.57187

>  <index>  (68) 
67

>  <Smiles>  (68) 
C([N+](C(C(N1C([C@@]2(C(=O)N(c3c(nc(c4c(c(c(c(c34)[H])[H])[H])[H])[H])[H])C([C@@]2(C(OC(C2(F)C(C2([H])[H])([H])[H])([H])[H])([H])[H])[H])([H])[H])c2c(c(Cl)c(c(c2C1=O)[H])[H])[H])([H])[H])([H])[H])([H])[H])([H])[H])([H])([H])[H]

>  <h>  (68) 
<NA>

>  <Training>  (68) 
True

>  <Success>  (68) 
True

>  <enamine_searched>  (68) 
False

>  <enamine_id>  (68) 
nan

$$$$

     RDKit          3D

 57 62  0  0  0  0  0  0  0  0999 V2000
    5.4025    4.9795   21.5225 C   0  0  0  0  0  0  0  0  0  0  0  0
    6.3757    4.5192   22.5542 C   0  0  0  0  0  0  0  0  0  0  0  0
    6.2983    3.5114   23.3770 N   0  0  0  0  0  0  0  0  0  0  0  0
    7.5232    3.5485   24.0008 C   0  0  0  0  0  0  0  0  0  0  0  0
    7.9630    2.5157   25.0009 C   0  0  0  0  0  0  0  0  0  0  0  0
    8.7284    1.4324   24.3918 N   0  0  0  0  0  0  0  0  0  0  0  0
    8.0964    0.1416   24.1504 C   0  0  0  0  0  0  0  0  0  0  0  0
    8.3796   -0.4134   22.7309 C   0  0  2  0  0  0  0  0  0  0  0  0
    7.6686    0.4452   21.6465 C   0  0  0  0  0  0  0  0  0  0  0  0
    7.7950    1.6348   21.4706 O   0  0  0  0  0  0  0  0  0  0  0  0
    6.8821   -0.3818   20.8720 N   0  0  0  0  0  0  0  0  0  0  0  0
    6.1255    0.1052   19.7781 C   0  0  0  0  0  0  0  0  0  0  0  0
    6.4410   -0.2257   18.4828 C   0  0  0  0  0  0  0  0  0  0  0  0
    5.7706    0.2277   17.3979 N   0  0  0  0  0  0  0  0  0  0  0  0
    4.7478    1.0216   17.5984 C   0  0  0  0  0  0  0  0  0  0  0  0
    4.2918    1.4235   18.8849 C   0  0  0  0  0  0  0  0  0  0  0  0
    3.1641    2.2729   19.0586 C   0  0  0  0  0  0  0  0  0  0  0  0
    2.7368    2.6120   20.3142 C   0  0  0  0  0  0  0  0  0  0  0  0
    3.4189    2.1201   21.4481 C   0  0  0  0  0  0  0  0  0  0  0  0
    4.5129    1.3058   21.3058 C   0  0  0  0  0  0  0  0  0  0  0  0
    4.9915    0.9464   20.0151 C   0  0  0  0  0  0  0  0  0  0  0  0
    5.0197    0.9247   22.1849 H   0  0  0  0  0  0  0  0  0  0  0  0
    3.0820    2.3943   22.4451 H   0  0  0  0  0  0  0  0  0  0  0  0
    1.8769    3.2643   20.4431 H   0  0  0  0  0  0  0  0  0  0  0  0
    2.6586    2.6435   18.1721 H   0  0  0  0  0  0  0  0  0  0  0  0
    4.2224    1.3836   16.7160 H   0  0  0  0  0  0  0  0  0  0  0  0
    7.2894   -0.8726   18.2626 H   0  0  0  0  0  0  0  0  0  0  0  0
    7.1172   -1.7890   21.1079 C   0  0  0  0  0  0  0  0  0  0  0  0
    7.7980   -1.8483   22.4970 C   0  0  2  0  0  0  0  0  0  0  0  0
    6.8270   -2.3828   23.5622 C   0  0  0  0  0  0  0  0  0  0  0  0
    7.3052   -2.4639   24.5433 H   0  0  0  0  0  0  0  0  0  0  0  0
    5.9403   -1.7457   23.6591 H   0  0  0  0  0  0  0  0  0  0  0  0
    6.4903   -3.3882   23.2836 H   0  0  0  0  0  0  0  0  0  0  0  0
    8.6383   -2.5504   22.4652 H   0  0  0  0  0  0  0  0  0  0  0  0
    6.1659   -2.3343   21.0885 H   0  0  0  0  0  0  0  0  0  0  0  0
    7.7742   -2.1994   20.3328 H   0  0  0  0  0  0  0  0  0  0  0  0
    9.8893   -0.3370   22.5130 C   0  0  0  0  0  0  0  0  0  0  0  0
   10.5150   -1.1484   21.5596 C   0  0  0  0  0  0  0  0  0  0  0  0
   11.8723   -1.0136   21.3503 C   0  0  0  0  0  0  0  0  0  0  0  0
   12.4508   -1.7550   20.3887 F   0  0  0  0  0  0  0  0  0  0  0  0
   12.6446   -0.0614   22.0075 C   0  0  0  0  0  0  0  0  0  0  0  0
   12.0184    0.7792   22.9042 C   0  0  0  0  0  0  0  0  0  0  0  0
   10.6477    0.6626   23.1312 C   0  0  0  0  0  0  0  0  0  0  0  0
    9.9996    1.7104   23.9721 C   0  0  0  0  0  0  0  0  0  0  0  0
   10.5667    2.7598   24.2480 O   0  0  0  0  0  0  0  0  0  0  0  0
   12.5451    1.5838   23.4076 H   0  0  0  0  0  0  0  0  0  0  0  0
   13.6874    0.0554   21.7401 H   0  0  0  0  0  0  0  0  0  0  0  0
    9.9675   -1.8154   20.9018 H   0  0  0  0  0  0  0  0  0  0  0  0
    7.0209    0.2830   24.2746 H   0  0  0  0  0  0  0  0  0  0  0  0
    8.4474   -0.6111   24.8734 H   0  0  0  0  0  0  0  0  0  0  0  0
    8.5695    2.9916   25.7767 H   0  0  0  0  0  0  0  0  0  0  0  0
    7.0688    2.0826   25.4563 H   0  0  0  0  0  0  0  0  0  0  0  0
    8.2778    4.5466   23.6450 N   0  0  0  0  0  0  0  0  0  0  0  0
    7.5268    5.1939   22.6792 O   0  0  0  0  0  0  0  0  0  0  0  0
    5.6396    5.9938   21.1992 H   0  0  0  0  0  0  0  0  0  0  0  0
    4.3940    4.9464   21.9359 H   0  0  0  0  0  0  0  0  0  0  0  0
    5.4270    4.3061   20.6602 H   0  0  0  0  0  0  0  0  0  0  0  0
  1  2  1  0
  2  3  2  0
  3  4  1  0
  4  5  1  0
  5  6  1  0
  6  7  1  0
  8  7  1  1
  8  9  1  0
  9 10  2  0
  9 11  1  0
 11 12  1  0
 12 13  2  0
 13 14  1  0
 14 15  2  0
 15 16  1  0
 16 17  2  0
 17 18  1  0
 18 19  2  0
 19 20  1  0
 20 21  2  0
 20 22  1  0
 19 23  1  0
 18 24  1  0
 17 25  1  0
 15 26  1  0
 13 27  1  0
 11 28  1  0
 28 29  1  0
 29 30  1  0
 30 31  1  0
 30 32  1  0
 30 33  1  0
 29 34  1  6
 28 35  1  0
 28 36  1  0
  8 37  1  0
 37 38  2  0
 38 39  1  0
 39 40  1  0
 39 41  2  0
 41 42  1  0
 42 43  2  0
 43 44  1  0
 44 45  2  0
 42 46  1  0
 41 47  1  0
 38 48  1  0
  7 49  1  0
  7 50  1  0
  5 51  1  0
  5 52  1  0
  4 53  2  0
 53 54  1  0
  1 55  1  0
  1 56  1  0
  1 57  1  0
 54  2  1  0
 44  6  1  0
 29  8  1  0
 43 37  1  0
 21 12  1  0
 21 16  1  0
M  END
>  <cnnaffinities>  (69) 
[6.30786]

>  <score>  (69) 
6.30786

>  <index>  (69) 
68

>  <Smiles>  (69) 
C(c1nc(C(N2C([C@@]3(C(=O)N(c4c(nc(c5c(c(c(c(c45)[H])[H])[H])[H])[H])[H])C([C@@]3(C([H])([H])[H])[H])([H])[H])c3c(c(F)c(c(c3C2=O)[H])[H])[H])([H])[H])([H])[H])no1)([H])([H])[H]

>  <h>  (69) 
<NA>

>  <Training>  (69) 
True

>  <Success>  (69) 
True

>  <enamine_searched>  (69) 
False

>  <enamine_id>  (69) 
nan

$$$$

     RDKit          3D

 64 68  0  0  0  0  0  0  0  0999 V2000
    2.4754   -1.8868   27.4711 C   0  0  0  0  0  0  0  0  0  0  0  0
    3.1721   -1.8203   26.1137 C   0  0  0  0  0  0  0  0  0  0  0  0
    4.6538   -1.5241   26.1857 C   0  0  0  0  0  0  0  0  0  0  0  0
    5.0432   -0.4242   26.5304 O   0  0  0  0  0  0  0  0  0  0  0  0
    5.5225   -2.5401   25.7903 N   0  0  0  0  0  0  0  0  0  0  0  0
    5.2568   -3.9345   26.1372 C   0  0  0  0  0  0  0  0  0  0  0  0
    6.5301   -4.5881   26.6543 C   0  0  0  0  0  0  0  0  0  0  0  0
    7.5879   -4.5464   25.5562 C   0  0  0  0  0  0  0  0  0  0  0  0
    7.7089   -3.1709   24.9376 C   0  0  0  0  0  0  0  0  0  0  0  0
    8.8438   -2.8257   24.2116 C   0  0  0  0  0  0  0  0  0  0  0  0
    8.9489   -1.6090   23.5498 C   0  0  0  0  0  0  0  0  0  0  0  0
    7.9018   -0.6891   23.6446 C   0  0  0  0  0  0  0  0  0  0  0  0
    7.9655    0.5665   22.9481 N   0  0  0  0  0  0  0  0  0  0  0  0
    8.3893    1.7645   23.6835 C   0  0  0  0  0  0  0  0  0  0  0  0
    7.2490    2.4547   24.4107 C   0  0  0  0  0  0  0  0  0  0  0  0
    6.2580    3.1379   23.7007 C   0  0  0  0  0  0  0  0  0  0  0  0
    5.1613    3.6690   24.3651 C   0  0  0  0  0  0  0  0  0  0  0  0
    4.9911    3.4853   25.7289 C   0  0  0  0  0  0  0  0  0  0  0  0
    5.9859    2.8225   26.4316 C   0  0  0  0  0  0  0  0  0  0  0  0
    5.8209    2.5263   28.1387 Cl  0  0  0  0  0  0  0  0  0  0  0  0
    7.1409    2.3935   25.7970 C   0  0  0  0  0  0  0  0  0  0  0  0
    7.9606    2.0798   26.4172 H   0  0  0  0  0  0  0  0  0  0  0  0
    4.1240    3.8725   26.2453 H   0  0  0  0  0  0  0  0  0  0  0  0
    4.4296    4.2511   23.8125 H   0  0  0  0  0  0  0  0  0  0  0  0
    6.3374    3.2811   22.6277 H   0  0  0  0  0  0  0  0  0  0  0  0
    9.1553    1.4536   24.4017 H   0  0  0  0  0  0  0  0  0  0  0  0
    8.8449    2.4198   22.9321 H   0  0  0  0  0  0  0  0  0  0  0  0
    7.7525    0.6980   21.5836 C   0  0  0  0  0  0  0  0  0  0  0  0
    8.1497    1.6568   20.9508 O   0  0  0  0  0  0  0  0  0  0  0  0
    6.9583   -0.4194   20.9025 C   0  0  0  0  0  0  0  0  0  0  0  0
    6.1192    0.1018   19.7740 C   0  0  0  0  0  0  0  0  0  0  0  0
    6.4363   -0.1891   18.4735 C   0  0  0  0  0  0  0  0  0  0  0  0
    5.7695    0.2607   17.3829 N   0  0  0  0  0  0  0  0  0  0  0  0
    4.7370    1.0413   17.5909 C   0  0  0  0  0  0  0  0  0  0  0  0
    4.3021    1.4256   18.8850 C   0  0  0  0  0  0  0  0  0  0  0  0
    3.1886    2.2711   19.0785 C   0  0  0  0  0  0  0  0  0  0  0  0
    2.5440    2.7090   17.9809 F   0  0  0  0  0  0  0  0  0  0  0  0
    2.7480    2.6374   20.3145 C   0  0  0  0  0  0  0  0  0  0  0  0
    3.4383    2.1435   21.4418 C   0  0  0  0  0  0  0  0  0  0  0  0
    4.5359    1.3295   21.3117 C   0  0  0  0  0  0  0  0  0  0  0  0
    5.0009    0.9489   20.0224 C   0  0  0  0  0  0  0  0  0  0  0  0
    5.0449    0.9709   22.2040 H   0  0  0  0  0  0  0  0  0  0  0  0
    3.0724    2.4122   22.4279 H   0  0  0  0  0  0  0  0  0  0  0  0
    1.8905    3.2945   20.4055 H   0  0  0  0  0  0  0  0  0  0  0  0
    4.1901    1.4079   16.7243 H   0  0  0  0  0  0  0  0  0  0  0  0
    7.2874   -0.8349   18.2557 H   0  0  0  0  0  0  0  0  0  0  0  0
    7.6813   -1.1559   20.5268 H   0  0  0  0  0  0  0  0  0  0  0  0
    6.3477   -0.9176   21.6598 H   0  0  0  0  0  0  0  0  0  0  0  0
    6.7972   -0.9744   24.4292 C   0  0  0  0  0  0  0  0  0  0  0  0
    6.6859   -2.2196   25.0651 C   0  0  0  0  0  0  0  0  0  0  0  0
    6.0111   -0.2312   24.5044 H   0  0  0  0  0  0  0  0  0  0  0  0
    9.8258   -1.3752   22.9538 H   0  0  0  0  0  0  0  0  0  0  0  0
    9.6689   -3.5300   24.1651 H   0  0  0  0  0  0  0  0  0  0  0  0
    8.5679   -4.8616   25.9377 H   0  0  0  0  0  0  0  0  0  0  0  0
    7.3195   -5.2706   24.7722 H   0  0  0  0  0  0  0  0  0  0  0  0
    6.3215   -5.6177   26.9661 H   0  0  0  0  0  0  0  0  0  0  0  0
    6.8863   -4.0448   27.5359 H   0  0  0  0  0  0  0  0  0  0  0  0
    4.4739   -3.9419   26.8992 H   0  0  0  0  0  0  0  0  0  0  0  0
    4.8836   -4.4884   25.2633 H   0  0  0  0  0  0  0  0  0  0  0  0
    2.9996   -2.7226   25.5218 H   0  0  0  0  0  0  0  0  0  0  0  0
    2.7552   -0.9739   25.5574 H   0  0  0  0  0  0  0  0  0  0  0  0
    2.6429   -0.9599   28.0269 H   0  0  0  0  0  0  0  0  0  0  0  0
    2.8189   -2.7218   28.0920 H   0  0  0  0  0  0  0  0  0  0  0  0
    1.3963   -2.0040   27.3237 H   0  0  0  0  0  0  0  0  0  0  0  0
  1  2  1  0
  2  3  1  0
  3  4  2  0
  3  5  1  0
  5  6  1  0
  6  7  1  0
  7  8  1  0
  8  9  1  0
  9 10  2  0
 10 11  1  0
 11 12  2  0
 12 13  1  0
 13 14  1  0
 14 15  1  0
 15 16  2  0
 16 17  1  0
 17 18  2  0
 18 19  1  0
 19 20  1  0
 19 21  2  0
 21 22  1  0
 18 23  1  0
 17 24  1  0
 16 25  1  0
 14 26  1  0
 14 27  1  0
 13 28  1  0
 28 29  2  0
 28 30  1  0
 30 31  1  0
 31 32  2  0
 32 33  1  0
 33 34  2  0
 34 35  1  0
 35 36  2  0
 36 37  1  0
 36 38  1  0
 38 39  2  0
 39 40  1  0
 40 41  2  0
 40 42  1  0
 39 43  1  0
 38 44  1  0
 34 45  1  0
 32 46  1  0
 30 47  1  0
 30 48  1  0
 12 49  1  0
 49 50  2  0
 49 51  1  0
 11 52  1  0
 10 53  1  0
  8 54  1  0
  8 55  1  0
  7 56  1  0
  7 57  1  0
  6 58  1  0
  6 59  1  0
  2 60  1  0
  2 61  1  0
  1 62  1  0
  1 63  1  0
  1 64  1  0
 50  5  1  0
 50  9  1  0
 21 15  1  0
 41 31  1  0
 41 35  1  0
M  END
>  <cnnaffinities>  (70) 
[6.36002]

>  <score>  (70) 
6.36002

>  <index>  (70) 
69

>  <Smiles>  (70) 
C(C(C(=O)N1C(C(C(c2c(c(c(N(C(c3c(c(c(c(Cl)c3[H])[H])[H])[H])([H])[H])C(=O)C(c3c(nc(c4c(F)c(c(c(c34)[H])[H])[H])[H])[H])([H])[H])c(c12)[H])[H])[H])([H])[H])([H])[H])([H])[H])([H])[H])([H])([H])[H]

>  <h>  (70) 
<NA>

>  <Training>  (70) 
True

>  <Success>  (70) 
True

>  <enamine_searched>  (70) 
False

>  <enamine_id>  (70) 
nan

$$$$

     RDKit          3D

 57 62  0  0  0  0  0  0  0  0999 V2000
    7.8548   -3.1760   22.8010 C   0  0  0  0  0  0  0  0  0  0  0  0
    7.8968   -1.9544   21.8963 C   0  0  1  0  0  0  0  0  0  0  0  0
    6.6023   -1.7163   21.1126 C   0  0  0  0  0  0  0  0  0  0  0  0
    6.7729   -0.3614   20.6330 N   0  0  0  0  0  0  0  0  0  0  0  0
    5.9898    0.1997   19.5902 C   0  0  0  0  0  0  0  0  0  0  0  0
    6.2576   -0.1353   18.2867 C   0  0  0  0  0  0  0  0  0  0  0  0
    5.5842    0.3431   17.2131 N   0  0  0  0  0  0  0  0  0  0  0  0
    4.5934    1.1662   17.4389 C   0  0  0  0  0  0  0  0  0  0  0  0
    4.1728    1.5608   18.7376 C   0  0  0  0  0  0  0  0  0  0  0  0
    3.0584    2.4202   18.9235 C   0  0  0  0  0  0  0  0  0  0  0  0
    2.6449    2.7547   20.1825 C   0  0  0  0  0  0  0  0  0  0  0  0
    3.3243    2.2428   21.3093 C   0  0  0  0  0  0  0  0  0  0  0  0
    4.4105    1.4165   21.1526 C   0  0  0  0  0  0  0  0  0  0  0  0
    4.8756    1.0617   19.8566 C   0  0  0  0  0  0  0  0  0  0  0  0
    4.9137    1.0103   22.0227 H   0  0  0  0  0  0  0  0  0  0  0  0
    2.9788    2.5050   22.3042 H   0  0  0  0  0  0  0  0  0  0  0  0
    1.8002    3.4236   20.3247 H   0  0  0  0  0  0  0  0  0  0  0  0
    2.5506    2.8029   18.0433 H   0  0  0  0  0  0  0  0  0  0  0  0
    4.0599    1.5568   16.5727 H   0  0  0  0  0  0  0  0  0  0  0  0
    7.0766   -0.8177   18.0680 H   0  0  0  0  0  0  0  0  0  0  0  0
    7.6405    0.3713   21.4173 C   0  0  0  0  0  0  0  0  0  0  0  0
    7.9020    1.5442   21.2369 O   0  0  0  0  0  0  0  0  0  0  0  0
    8.1954   -0.5444   22.5247 C   0  0  1  0  0  0  0  0  0  0  0  0
    7.4327   -0.2592   23.8500 C   0  0  0  0  0  0  0  0  0  0  0  0
    7.9164   -1.1054   24.9353 N   0  0  0  0  0  0  0  0  0  0  0  0
    6.9679   -1.4635   25.9887 C   0  0  0  0  0  0  0  0  0  0  0  0
    6.5244   -0.2862   26.7977 C   0  0  0  0  0  0  0  0  0  0  0  0
    5.8412    0.7680   26.2939 N   0  0  0  0  0  0  0  0  0  0  0  0
    5.7027    1.6196   27.2751 N   0  0  0  0  0  0  0  0  0  0  0  0
    6.2889    1.0739   28.3142 N   0  0  0  0  0  0  0  0  0  0  0  0
    6.3993    1.7146   29.6023 C   0  0  0  0  0  0  0  0  0  0  0  0
    7.4539    1.8203   29.8556 H   0  0  0  0  0  0  0  0  0  0  0  0
    5.9342    2.6971   29.5311 H   0  0  0  0  0  0  0  0  0  0  0  0
    5.9007    1.1023   30.3563 H   0  0  0  0  0  0  0  0  0  0  0  0
    6.8055   -0.1212   28.0791 N   0  0  0  0  0  0  0  0  0  0  0  0
    6.0576   -1.8898   25.5405 H   0  0  0  0  0  0  0  0  0  0  0  0
    7.4300   -2.2079   26.6477 H   0  0  0  0  0  0  0  0  0  0  0  0
    9.2258   -1.5259   24.9417 C   0  0  0  0  0  0  0  0  0  0  0  0
    9.6344   -2.5017   25.5488 O   0  0  0  0  0  0  0  0  0  0  0  0
   10.1242   -0.6693   24.0996 C   0  0  0  0  0  0  0  0  0  0  0  0
   11.4066   -0.3300   24.5197 C   0  0  0  0  0  0  0  0  0  0  0  0
   12.2124    0.4693   23.7225 C   0  0  0  0  0  0  0  0  0  0  0  0
   11.7459    0.8174   22.4586 C   0  0  0  0  0  0  0  0  0  0  0  0
   12.5313    1.5859   21.6829 F   0  0  0  0  0  0  0  0  0  0  0  0
   10.5031    0.4315   21.9962 C   0  0  0  0  0  0  0  0  0  0  0  0
    9.6445   -0.2626   22.8498 C   0  0  0  0  0  0  0  0  0  0  0  0
   10.1948    0.6620   20.9885 H   0  0  0  0  0  0  0  0  0  0  0  0
   13.1945    0.7993   24.0429 H   0  0  0  0  0  0  0  0  0  0  0  0
   11.7445   -0.6959   25.4842 H   0  0  0  0  0  0  0  0  0  0  0  0
    7.5791    0.7950   24.1316 H   0  0  0  0  0  0  0  0  0  0  0  0
    6.3548   -0.4276   23.7473 H   0  0  0  0  0  0  0  0  0  0  0  0
    6.4632   -2.4091   20.2803 H   0  0  0  0  0  0  0  0  0  0  0  0
    5.7257   -1.7926   21.7795 H   0  0  0  0  0  0  0  0  0  0  0  0
    8.7090   -2.1099   21.1746 H   0  0  0  0  0  0  0  0  0  0  0  0
    7.0813   -3.0864   23.5665 H   0  0  0  0  0  0  0  0  0  0  0  0
    7.6286   -4.0688   22.2137 H   0  0  0  0  0  0  0  0  0  0  0  0
    8.8151   -3.3211   23.3039 H   0  0  0  0  0  0  0  0  0  0  0  0
  1  2  1  0
  2  3  1  0
  3  4  1  0
  4  5  1  0
  5  6  2  0
  6  7  1  0
  7  8  2  0
  8  9  1  0
  9 10  2  0
 10 11  1  0
 11 12  2  0
 12 13  1  0
 13 14  2  0
 13 15  1  0
 12 16  1  0
 11 17  1  0
 10 18  1  0
  8 19  1  0
  6 20  1  0
  4 21  1  0
 21 22  2  0
 21 23  1  0
 23 24  1  1
 24 25  1  0
 25 26  1  0
 26 27  1  0
 27 28  1  0
 28 29  2  0
 29 30  1  0
 30 31  1  0
 31 32  1  0
 31 33  1  0
 31 34  1  0
 30 35  1  0
 26 36  1  0
 26 37  1  0
 25 38  1  0
 38 39  2  0
 38 40  1  0
 40 41  2  0
 41 42  1  0
 42 43  2  0
 43 44  1  0
 43 45  1  0
 45 46  2  0
 45 47  1  0
 42 48  1  0
 41 49  1  0
 24 50  1  0
 24 51  1  0
  3 52  1  0
  3 53  1  0
  2 54  1  6
  1 55  1  0
  1 56  1  0
  1 57  1  0
 23  2  1  0
 35 27  2  0
 46 40  1  0
 14  5  1  0
 46 23  1  0
 14  9  1  0
M  END
>  <cnnaffinities>  (71) 
[6.24039, 6.27121]

>  <score>  (71) 
6.24039

>  <index>  (71) 
70

>  <Smiles>  (71) 
C([C@]1(C(N(c2c(nc(c3c(c(c(c(c23)[H])[H])[H])[H])[H])[H])C(=O)[C@]21C(N(C(c1nnn(C([H])([H])[H])n1)([H])[H])C(=O)c1c(c(c(F)c(c21)[H])[H])[H])([H])[H])([H])[H])[H])([H])([H])[H]

>  <h>  (71) 
<NA>

>  <Training>  (71) 
True

>  <Success>  (71) 
True

>  <enamine_searched>  (71) 
False

>  <enamine_id>  (71) 
nan

$$$$

     RDKit          3D

 59 64  0  0  0  0  0  0  0  0999 V2000
    7.8397   -2.9844   23.2511 C   0  0  0  0  0  0  0  0  0  0  0  0
    8.0129   -1.8765   22.2207 C   0  0  1  0  0  0  0  0  0  0  0  0
    6.8461   -1.7793   21.2295 C   0  0  0  0  0  0  0  0  0  0  0  0
    6.8778   -0.3958   20.8179 N   0  0  0  0  0  0  0  0  0  0  0  0
    6.1058    0.1124   19.7589 C   0  0  0  0  0  0  0  0  0  0  0  0
    6.4224   -0.2229   18.4691 C   0  0  0  0  0  0  0  0  0  0  0  0
    5.7587    0.2288   17.3825 N   0  0  0  0  0  0  0  0  0  0  0  0
    4.7421    1.0262   17.5904 C   0  0  0  0  0  0  0  0  0  0  0  0
    4.2952    1.4286   18.8795 C   0  0  0  0  0  0  0  0  0  0  0  0
    3.1793    2.2865   19.0425 C   0  0  0  0  0  0  0  0  0  0  0  0
    2.7456    2.6307   20.2907 C   0  0  0  0  0  0  0  0  0  0  0  0
    3.4085    2.1356   21.4372 C   0  0  0  0  0  0  0  0  0  0  0  0
    4.4962    1.3132   21.3068 C   0  0  0  0  0  0  0  0  0  0  0  0
    4.9798    0.9499   20.0156 C   0  0  0  0  0  0  0  0  0  0  0  0
    5.0014    0.9441   22.1966 H   0  0  0  0  0  0  0  0  0  0  0  0
    3.0446    2.4064   22.4231 H   0  0  0  0  0  0  0  0  0  0  0  0
    1.8852    3.2810   20.4113 H   0  0  0  0  0  0  0  0  0  0  0  0
    2.6824    2.6545   18.1490 H   0  0  0  0  0  0  0  0  0  0  0  0
    4.2106    1.3929   16.7117 H   0  0  0  0  0  0  0  0  0  0  0  0
    7.2745   -0.8756   18.2841 H   0  0  0  0  0  0  0  0  0  0  0  0
    7.5917    0.4302   21.6475 C   0  0  0  0  0  0  0  0  0  0  0  0
    7.7079    1.6273   21.4941 O   0  0  0  0  0  0  0  0  0  0  0  0
    8.2064   -0.4345   22.7682 C   0  0  1  0  0  0  0  0  0  0  0  0
    7.4167   -0.1819   24.0784 C   0  0  0  0  0  0  0  0  0  0  0  0
    7.5540    1.2026   24.5003 N   0  0  0  0  0  0  0  0  0  0  0  0
    6.4004    1.8982   25.0374 C   0  0  0  0  0  0  0  0  0  0  0  0
    6.2176    1.7074   26.5165 C   0  0  0  0  0  0  0  0  0  0  0  0
    6.0130    0.5385   27.0911 N   0  0  0  0  0  0  0  0  0  0  0  0
    5.8011    0.8248   28.4203 C   0  0  0  0  0  0  0  0  0  0  0  0
    5.8749    2.1714   28.6369 C   0  0  0  0  0  0  0  0  0  0  0  0
    6.1417    2.7367   27.4107 N   0  0  0  0  0  0  0  0  0  0  0  0
    6.3411    4.1460   27.1348 C   0  0  0  0  0  0  0  0  0  0  0  0
    6.2653    4.6895   28.0793 H   0  0  0  0  0  0  0  0  0  0  0  0
    7.3292    4.3016   26.6935 H   0  0  0  0  0  0  0  0  0  0  0  0
    5.5701    4.5254   26.4545 H   0  0  0  0  0  0  0  0  0  0  0  0
    5.7573    2.7648   29.5355 H   0  0  0  0  0  0  0  0  0  0  0  0
    5.5961    0.0417   29.1420 H   0  0  0  0  0  0  0  0  0  0  0  0
    6.4629    2.9592   24.7676 H   0  0  0  0  0  0  0  0  0  0  0  0
    5.5103    1.4889   24.5419 H   0  0  0  0  0  0  0  0  0  0  0  0
    8.7560    1.8461   24.4746 C   0  0  0  0  0  0  0  0  0  0  0  0
    8.9131    2.9741   24.9333 O   0  0  0  0  0  0  0  0  0  0  0  0
    9.8941    1.0901   23.8475 C   0  0  0  0  0  0  0  0  0  0  0  0
   11.2056    1.5199   24.0408 C   0  0  0  0  0  0  0  0  0  0  0  0
   12.2551    0.9299   23.3624 C   0  0  0  0  0  0  0  0  0  0  0  0
   11.9480    0.0169   22.3588 C   0  0  0  0  0  0  0  0  0  0  0  0
   12.9227   -0.3854   21.5315 F   0  0  0  0  0  0  0  0  0  0  0  0
   10.6656   -0.4412   22.1506 C   0  0  0  0  0  0  0  0  0  0  0  0
    9.6330    0.0270   22.9729 C   0  0  0  0  0  0  0  0  0  0  0  0
   10.4991   -1.1196   21.3195 H   0  0  0  0  0  0  0  0  0  0  0  0
   13.2949    1.1861   23.5430 H   0  0  0  0  0  0  0  0  0  0  0  0
   11.3664    2.3672   24.6890 H   0  0  0  0  0  0  0  0  0  0  0  0
    6.3464   -0.3658   23.9382 H   0  0  0  0  0  0  0  0  0  0  0  0
    7.7605   -0.8564   24.8772 H   0  0  0  0  0  0  0  0  0  0  0  0
    6.9805   -2.4170   20.3592 H   0  0  0  0  0  0  0  0  0  0  0  0
    5.8825   -2.0476   21.6899 H   0  0  0  0  0  0  0  0  0  0  0  0
    8.8996   -2.1079   21.6287 H   0  0  0  0  0  0  0  0  0  0  0  0
    7.8142   -3.9591   22.7510 H   0  0  0  0  0  0  0  0  0  0  0  0
    8.6688   -2.9745   23.9673 H   0  0  0  0  0  0  0  0  0  0  0  0
    6.9023   -2.8592   23.8070 H   0  0  0  0  0  0  0  0  0  0  0  0
  1  2  1  0
  2  3  1  0
  3  4  1  0
  4  5  1  0
  5  6  2  0
  6  7  1  0
  7  8  2  0
  8  9  1  0
  9 10  2  0
 10 11  1  0
 11 12  2  0
 12 13  1  0
 13 14  2  0
 13 15  1  0
 12 16  1  0
 11 17  1  0
 10 18  1  0
  8 19  1  0
  6 20  1  0
  4 21  1  0
 21 22  2  0
 21 23  1  0
 23 24  1  1
 24 25  1  0
 25 26  1  0
 26 27  1  0
 27 28  2  0
 28 29  1  0
 29 30  2  0
 30 31  1  0
 31 32  1  0
 32 33  1  0
 32 34  1  0
 32 35  1  0
 30 36  1  0
 29 37  1  0
 26 38  1  0
 26 39  1  0
 25 40  1  0
 40 41  2  0
 40 42  1  0
 42 43  2  0
 43 44  1  0
 44 45  2  0
 45 46  1  0
 45 47  1  0
 47 48  2  0
 47 49  1  0
 44 50  1  0
 43 51  1  0
 24 52  1  0
 24 53  1  0
  3 54  1  0
  3 55  1  0
  2 56  1  6
  1 57  1  0
  1 58  1  0
  1 59  1  0
 23  2  1  0
 31 27  1  0
 48 42  1  0
 14  5  1  0
 48 23  1  0
 14  9  1  0
M  END
>  <cnnaffinities>  (72) 
[6.30672, 6.24403]

>  <score>  (72) 
6.30672

>  <index>  (72) 
71

>  <Smiles>  (72) 
C([C@]1(C(N(c2c(nc(c3c(c(c(c(c23)[H])[H])[H])[H])[H])[H])C(=O)[C@]21C(N(C(c1nc(c(n1C([H])([H])[H])[H])[H])([H])[H])C(=O)c1c(c(c(F)c(c21)[H])[H])[H])([H])[H])([H])[H])[H])([H])([H])[H]

>  <h>  (72) 
<NA>

>  <Training>  (72) 
True

>  <Success>  (72) 
True

>  <enamine_searched>  (72) 
False

>  <enamine_id>  (72) 
nan

$$$$

     RDKit          3D

 60 64  0  0  0  0  0  0  0  0999 V2000
    7.8164   -8.4593   22.8211 C   0  0  0  0  0  0  0  0  0  0  0  0
    6.9651   -7.2991   22.6925 N   0  0  0  0  0  0  0  0  0  0  0  0
    7.1880   -6.3932   21.7107 C   0  0  0  0  0  0  0  0  0  0  0  0
    8.0975   -6.4918   20.9055 O   0  0  0  0  0  0  0  0  0  0  0  0
    6.2269   -5.2100   21.7436 C   0  0  0  0  0  0  0  0  0  0  0  0
    6.6912   -4.2157   22.6912 N   0  0  0  0  0  0  0  0  0  0  0  0
    7.8108   -3.3398   22.3743 C   0  0  0  0  0  0  0  0  0  0  0  0
    7.4564   -1.8571   22.6746 C   0  0  2  0  0  0  0  0  0  0  0  0
    6.3753   -1.3936   21.6836 C   0  0  0  0  0  0  0  0  0  0  0  0
    5.2474   -1.8346   21.5916 O   0  0  0  0  0  0  0  0  0  0  0  0
    6.9018   -0.4051   20.8768 N   0  0  0  0  0  0  0  0  0  0  0  0
    6.1511    0.1151   19.8000 C   0  0  0  0  0  0  0  0  0  0  0  0
    6.4824   -0.2001   18.5055 C   0  0  0  0  0  0  0  0  0  0  0  0
    5.8101    0.2353   17.4155 N   0  0  0  0  0  0  0  0  0  0  0  0
    4.7754    1.0137   17.6151 C   0  0  0  0  0  0  0  0  0  0  0  0
    4.3243    1.4129   18.9036 C   0  0  0  0  0  0  0  0  0  0  0  0
    3.2026    2.2670   19.0535 C   0  0  0  0  0  0  0  0  0  0  0  0
    2.7928    2.6558   20.2992 C   0  0  0  0  0  0  0  0  0  0  0  0
    3.4845    2.2123   21.4456 C   0  0  0  0  0  0  0  0  0  0  0  0
    4.5726    1.3839   21.3269 C   0  0  0  0  0  0  0  0  0  0  0  0
    5.0201    0.9589   20.0415 C   0  0  0  0  0  0  0  0  0  0  0  0
    5.0869    1.0459   22.2195 H   0  0  0  0  0  0  0  0  0  0  0  0
    3.1520    2.5372   22.4279 H   0  0  0  0  0  0  0  0  0  0  0  0
    1.9422    3.3216   20.4110 H   0  0  0  0  0  0  0  0  0  0  0  0
    2.6929    2.6106   18.1592 H   0  0  0  0  0  0  0  0  0  0  0  0
    4.2318    1.3680   16.7392 H   0  0  0  0  0  0  0  0  0  0  0  0
    7.3243   -0.8630   18.3089 H   0  0  0  0  0  0  0  0  0  0  0  0
    8.3518   -0.3515   20.9499 C   0  0  0  0  0  0  0  0  0  0  0  0
    8.6401   -0.8991   22.3553 C   0  0  2  0  0  0  0  0  0  0  0  0
    9.9649   -1.4662   22.4489 N   0  0  0  0  0  0  0  0  0  0  0  0
   10.5687   -1.7090   23.6564 C   0  0  0  0  0  0  0  0  0  0  0  0
   10.0582   -1.3727   24.7088 O   0  0  0  0  0  0  0  0  0  0  0  0
   11.8944   -2.4312   23.5596 C   0  0  0  0  0  0  0  0  0  0  0  0
   11.7686   -3.4210   23.1131 H   0  0  0  0  0  0  0  0  0  0  0  0
   12.3105   -2.5513   24.5580 H   0  0  0  0  0  0  0  0  0  0  0  0
   12.5984   -1.8717   22.9381 H   0  0  0  0  0  0  0  0  0  0  0  0
   10.3988   -1.7917   21.5969 H   0  0  0  0  0  0  0  0  0  0  0  0
    8.6020   -0.0742   23.0657 H   0  0  0  0  0  0  0  0  0  0  0  0
    8.7035    0.6753   20.8278 H   0  0  0  0  0  0  0  0  0  0  0  0
    8.8379   -0.9825   20.1867 H   0  0  0  0  0  0  0  0  0  0  0  0
    6.9235   -1.7862   24.0943 C   0  0  0  0  0  0  0  0  0  0  0  0
    6.8793   -0.5834   24.8104 C   0  0  0  0  0  0  0  0  0  0  0  0
    6.4049   -0.5809   26.1116 C   0  0  0  0  0  0  0  0  0  0  0  0
    6.2751    0.9231   26.9722 Cl  0  0  0  0  0  0  0  0  0  0  0  0
    5.9938   -1.7453   26.7599 C   0  0  0  0  0  0  0  0  0  0  0  0
    5.9650   -2.9141   26.0290 C   0  0  0  0  0  0  0  0  0  0  0  0
    6.3476   -2.9152   24.6915 C   0  0  0  0  0  0  0  0  0  0  0  0
    6.0125   -4.1130   23.8661 C   0  0  0  0  0  0  0  0  0  0  0  0
    5.1508   -4.9252   24.1929 O   0  0  0  0  0  0  0  0  0  0  0  0
    5.6182   -3.8458   26.4592 H   0  0  0  0  0  0  0  0  0  0  0  0
    5.6458   -1.7173   27.7886 H   0  0  0  0  0  0  0  0  0  0  0  0
    7.1913    0.3562   24.3686 H   0  0  0  0  0  0  0  0  0  0  0  0
    8.0254   -3.4584   21.3164 H   0  0  0  0  0  0  0  0  0  0  0  0
    8.7106   -3.6232   22.9362 H   0  0  0  0  0  0  0  0  0  0  0  0
    6.1081   -4.7494   20.7604 H   0  0  0  0  0  0  0  0  0  0  0  0
    5.2452   -5.5410   22.0907 H   0  0  0  0  0  0  0  0  0  0  0  0
    6.2046   -7.1519   23.3388 H   0  0  0  0  0  0  0  0  0  0  0  0
    8.6880   -8.2856   23.4745 H   0  0  0  0  0  0  0  0  0  0  0  0
    8.1607   -8.6871   21.8203 H   0  0  0  0  0  0  0  0  0  0  0  0
    7.2274   -9.3055   23.1832 H   0  0  0  0  0  0  0  0  0  0  0  0
  1  2  1  0
  2  3  1  0
  3  4  2  0
  3  5  1  0
  5  6  1  0
  6  7  1  0
  8  7  1  6
  8  9  1  0
  9 10  2  0
  9 11  1  0
 11 12  1  0
 12 13  2  0
 13 14  1  0
 14 15  2  0
 15 16  1  0
 16 17  2  0
 17 18  1  0
 18 19  2  0
 19 20  1  0
 20 21  2  0
 20 22  1  0
 19 23  1  0
 18 24  1  0
 17 25  1  0
 15 26  1  0
 13 27  1  0
 11 28  1  0
 28 29  1  0
 29 30  1  0
 30 31  1  0
 31 32  2  0
 31 33  1  0
 33 34  1  0
 33 35  1  0
 33 36  1  0
 30 37  1  0
 29 38  1  1
 28 39  1  0
 28 40  1  0
  8 41  1  0
 41 42  2  0
 42 43  1  0
 43 44  1  0
 43 45  2  0
 45 46  1  0
 46 47  2  0
 47 48  1  0
 48 49  2  0
 46 50  1  0
 45 51  1  0
 42 52  1  0
  7 53  1  0
  7 54  1  0
  5 55  1  0
  5 56  1  0
  2 57  1  0
  1 58  1  0
  1 59  1  0
  1 60  1  0
 48  6  1  0
 29  8  1  0
 47 41  1  0
 21 12  1  0
 21 16  1  0
M  END
>  <cnnaffinities>  (73) 
[6.75639]

>  <score>  (73) 
6.75639

>  <index>  (73) 
72

>  <Smiles>  (73) 
C(N(C(=O)C(N1C([C@@]2(C(=O)N(c3c(nc(c4c(c(c(c(c34)[H])[H])[H])[H])[H])[H])C([C@@]2(N(C(=O)C([H])([H])[H])[H])[H])([H])[H])c2c(c(Cl)c(c(c2C1=O)[H])[H])[H])([H])[H])([H])[H])[H])([H])([H])[H]

>  <h>  (73) 
<NA>

>  <Training>  (73) 
True

>  <Success>  (73) 
True

>  <enamine_searched>  (73) 
False

>  <enamine_id>  (73) 
nan

$$$$

     RDKit          3D

 56 61  0  0  0  0  0  0  0  0999 V2000
    8.0355   -2.9585   23.1494 C   0  0  0  0  0  0  0  0  0  0  0  0
    8.0811   -1.8012   22.1495 C   0  0  1  0  0  0  0  0  0  0  0  0
    6.8375   -1.7404   21.2409 C   0  0  0  0  0  0  0  0  0  0  0  0
    6.8118   -0.3590   20.8224 N   0  0  0  0  0  0  0  0  0  0  0  0
    6.0562    0.1235   19.7376 C   0  0  0  0  0  0  0  0  0  0  0  0
    6.3841   -0.2126   18.4510 C   0  0  0  0  0  0  0  0  0  0  0  0
    5.7299    0.2468   17.3593 N   0  0  0  0  0  0  0  0  0  0  0  0
    4.7143    1.0516   17.5592 C   0  0  0  0  0  0  0  0  0  0  0  0
    4.2605    1.4633   18.8434 C   0  0  0  0  0  0  0  0  0  0  0  0
    3.1523    2.3348   19.0143 C   0  0  0  0  0  0  0  0  0  0  0  0
    2.7311    2.6883   20.2663 C   0  0  0  0  0  0  0  0  0  0  0  0
    3.3943    2.1860   21.4092 C   0  0  0  0  0  0  0  0  0  0  0  0
    4.4645    1.3443   21.2714 C   0  0  0  0  0  0  0  0  0  0  0  0
    4.9382    0.9758   19.9796 C   0  0  0  0  0  0  0  0  0  0  0  0
    4.9710    0.9526   22.1495 H   0  0  0  0  0  0  0  0  0  0  0  0
    3.0464    2.4695   22.4008 H   0  0  0  0  0  0  0  0  0  0  0  0
    1.8901    3.3633   20.3946 H   0  0  0  0  0  0  0  0  0  0  0  0
    2.6558    2.7184   18.1263 H   0  0  0  0  0  0  0  0  0  0  0  0
    4.1924    1.4097   16.6728 H   0  0  0  0  0  0  0  0  0  0  0  0
    7.2418   -0.8617   18.2691 H   0  0  0  0  0  0  0  0  0  0  0  0
    7.5672    0.4850   21.5973 C   0  0  0  0  0  0  0  0  0  0  0  0
    7.7040    1.6749   21.3825 O   0  0  0  0  0  0  0  0  0  0  0  0
    8.2198   -0.3556   22.7201 C   0  0  1  0  0  0  0  0  0  0  0  0
    7.4399   -0.1696   24.0323 C   0  0  0  0  0  0  0  0  0  0  0  0
    7.4212    1.2374   24.4070 N   0  0  0  0  0  0  0  0  0  0  0  0
    6.1465    1.8201   24.8100 C   0  0  0  0  0  0  0  0  0  0  0  0
    5.8795    3.2887   24.4023 C   0  0  0  0  0  0  0  0  0  0  0  0
    6.2942    3.7219   25.7853 N   0  0  0  0  0  4  0  0  0  0  0  0
    6.0603    2.3203   26.2695 C   0  0  0  0  0  0  0  0  0  0  0  0
    5.0727    2.1820   26.7084 H   0  0  0  0  0  0  0  0  0  0  0  0
    6.8410    1.9797   26.9426 H   0  0  0  0  0  0  0  0  0  0  0  0
    5.9179    4.5515   26.2654 H   0  0  0  0  0  0  0  0  0  0  0  0
    7.3349    3.8101   25.7119 H   0  0  0  0  0  0  0  0  0  0  0  0
    4.8237    3.4897   24.2034 H   0  0  0  0  0  0  0  0  0  0  0  0
    6.5054    3.7018   23.6111 H   0  0  0  0  0  0  0  0  0  0  0  0
    5.3900    1.0975   24.4895 H   0  0  0  0  0  0  0  0  0  0  0  0
    8.5808    1.9538   24.4654 C   0  0  0  0  0  0  0  0  0  0  0  0
    8.7019    3.0298   25.0683 O   0  0  0  0  0  0  0  0  0  0  0  0
    9.7497    1.3462   23.7746 C   0  0  0  0  0  0  0  0  0  0  0  0
   10.9863    1.9797   23.9020 C   0  0  0  0  0  0  0  0  0  0  0  0
   12.0793    1.5034   23.2174 C   0  0  0  0  0  0  0  0  0  0  0  0
   11.9138    0.4115   22.3748 C   0  0  0  0  0  0  0  0  0  0  0  0
   13.2445   -0.0896   21.4035 Cl  0  0  0  0  0  0  0  0  0  0  0  0
   10.7071   -0.2443   22.2516 C   0  0  0  0  0  0  0  0  0  0  0  0
    9.6010    0.2073   22.9655 C   0  0  0  0  0  0  0  0  0  0  0  0
   10.6542   -1.1173   21.6120 H   0  0  0  0  0  0  0  0  0  0  0  0
   13.0589    1.9579   23.3107 H   0  0  0  0  0  0  0  0  0  0  0  0
   11.0896    2.8677   24.5117 H   0  0  0  0  0  0  0  0  0  0  0  0
    6.4113   -0.5242   23.9026 H   0  0  0  0  0  0  0  0  0  0  0  0
    7.9272   -0.7656   24.8208 H   0  0  0  0  0  0  0  0  0  0  0  0
    5.9148   -2.0281   21.7725 H   0  0  0  0  0  0  0  0  0  0  0  0
    6.9105   -2.3774   20.3591 H   0  0  0  0  0  0  0  0  0  0  0  0
    8.9306   -1.9460   21.4780 H   0  0  0  0  0  0  0  0  0  0  0  0
    8.0303   -3.9228   22.6267 H   0  0  0  0  0  0  0  0  0  0  0  0
    7.1268   -2.9118   23.7626 H   0  0  0  0  0  0  0  0  0  0  0  0
    8.8960   -2.9527   23.8281 H   0  0  0  0  0  0  0  0  0  0  0  0
  1  2  1  0
  2  3  1  0
  3  4  1  0
  4  5  1  0
  5  6  2  0
  6  7  1  0
  7  8  2  0
  8  9  1  0
  9 10  2  0
 10 11  1  0
 11 12  2  0
 12 13  1  0
 13 14  2  0
 13 15  1  0
 12 16  1  0
 11 17  1  0
 10 18  1  0
  8 19  1  0
  6 20  1  0
  4 21  1  0
 21 22  2  0
 21 23  1  0
 23 24  1  1
 24 25  1  0
 25 26  1  0
 26 27  1  0
 27 28  1  0
 28 29  1  0
 29 30  1  0
 29 31  1  0
 28 32  1  0
 28 33  1  0
 27 34  1  0
 27 35  1  0
 26 36  1  0
 25 37  1  0
 37 38  2  0
 37 39  1  0
 39 40  2  0
 40 41  1  0
 41 42  2  0
 42 43  1  0
 42 44  1  0
 44 45  2  0
 44 46  1  0
 41 47  1  0
 40 48  1  0
 24 49  1  0
 24 50  1  0
  3 51  1  0
  3 52  1  0
  2 53  1  6
  1 54  1  0
  1 55  1  0
  1 56  1  0
 23  2  1  0
 29 26  1  0
 45 39  1  0
 14  5  1  0
 45 23  1  0
 14  9  1  0
M  CHG  1  28   1
M  END
>  <cnnaffinities>  (74) 
[5.82346, 5.81812]

>  <score>  (74) 
5.82346

>  <index>  (74) 
73

>  <Smiles>  (74) 
C([C@]1(C(N(c2c(nc(c3c(c(c(c(c23)[H])[H])[H])[H])[H])[H])C(=O)[C@]21C(N(C1(C([N+](C1([H])[H])([H])[H])([H])[H])[H])C(=O)c1c(c(c(Cl)c(c21)[H])[H])[H])([H])[H])([H])[H])[H])([H])([H])[H]

>  <h>  (74) 
<NA>

>  <Training>  (74) 
True

>  <Success>  (74) 
True

>  <enamine_searched>  (74) 
False

>  <enamine_id>  (74) 
nan

$$$$

     RDKit          3D

 55 60  0  0  0  0  0  0  0  0999 V2000
    7.0704   -2.4451   23.4812 C   0  0  0  0  0  0  0  0  0  0  0  0
    7.9537   -1.8416   22.3841 C   0  0  1  0  0  0  0  0  0  0  0  0
    7.2277   -1.7552   21.0257 C   0  0  0  0  0  0  0  0  0  0  0  0
    6.8895   -0.3558   20.8846 N   0  0  0  0  0  0  0  0  0  0  0  0
    6.1238    0.1153   19.7934 C   0  0  0  0  0  0  0  0  0  0  0  0
    6.4413   -0.2264   18.5016 C   0  0  0  0  0  0  0  0  0  0  0  0
    5.7760    0.2202   17.4100 N   0  0  0  0  0  0  0  0  0  0  0  0
    4.7543    1.0161   17.6060 C   0  0  0  0  0  0  0  0  0  0  0  0
    4.2970    1.4165   18.8920 C   0  0  0  0  0  0  0  0  0  0  0  0
    3.1784    2.2756   19.0562 C   0  0  0  0  0  0  0  0  0  0  0  0
    2.7511    2.6254   20.3063 C   0  0  0  0  0  0  0  0  0  0  0  0
    3.4064    2.1189   21.4497 C   0  0  0  0  0  0  0  0  0  0  0  0
    4.4800    1.2741   21.3173 C   0  0  0  0  0  0  0  0  0  0  0  0
    4.9781    0.9367   20.0302 C   0  0  0  0  0  0  0  0  0  0  0  0
    4.9608    0.8647   22.2008 H   0  0  0  0  0  0  0  0  0  0  0  0
    3.0638    2.4069   22.4383 H   0  0  0  0  0  0  0  0  0  0  0  0
    1.9013    3.2913   20.4258 H   0  0  0  0  0  0  0  0  0  0  0  0
    2.6830    2.6495   18.1646 H   0  0  0  0  0  0  0  0  0  0  0  0
    4.2293    1.3791   16.7231 H   0  0  0  0  0  0  0  0  0  0  0  0
    7.2920   -0.8764   18.2972 H   0  0  0  0  0  0  0  0  0  0  0  0
    7.7055    0.4717   21.6348 C   0  0  0  0  0  0  0  0  0  0  0  0
    7.7885    1.6718   21.4960 O   0  0  0  0  0  0  0  0  0  0  0  0
    8.4963   -0.3994   22.6425 C   0  0  1  0  0  0  0  0  0  0  0  0
    8.2721    0.0747   24.0980 C   0  0  0  0  0  0  0  0  0  0  0  0
    8.8743    1.3638   24.3749 N   0  0  0  0  0  0  0  0  0  0  0  0
    8.1044    2.3650   25.0948 C   0  0  0  0  0  0  0  0  0  0  0  0
    7.3387    3.2884   24.1817 C   0  0  0  0  0  0  0  0  0  0  0  0
    7.8222    4.4208   23.4634 C   0  0  0  0  0  0  0  0  0  0  0  0
    6.7257    4.8591   22.8020 C   0  0  0  0  0  0  0  0  0  0  0  0
    5.6650    4.1053   23.1051 O   0  0  0  0  0  0  0  0  0  0  0  0
    6.0588    3.1043   23.9681 N   0  0  0  0  0  0  0  0  0  0  0  0
    6.5359    5.6570   22.0961 H   0  0  0  0  0  0  0  0  0  0  0  0
    8.8299    4.8068   23.4592 H   0  0  0  0  0  0  0  0  0  0  0  0
    7.3966    1.8490   25.7503 H   0  0  0  0  0  0  0  0  0  0  0  0
    8.8073    2.9387   25.7020 H   0  0  0  0  0  0  0  0  0  0  0  0
   10.0739    1.7554   23.8483 C   0  0  0  0  0  0  0  0  0  0  0  0
   10.5777    2.8407   24.1125 O   0  0  0  0  0  0  0  0  0  0  0  0
   10.7269    0.7777   22.9383 C   0  0  0  0  0  0  0  0  0  0  0  0
   12.0861    0.9370   22.6670 C   0  0  0  0  0  0  0  0  0  0  0  0
   12.7436    0.0170   21.8708 C   0  0  0  0  0  0  0  0  0  0  0  0
   11.9967   -1.0188   21.3108 C   0  0  0  0  0  0  0  0  0  0  0  0
   12.5684   -1.9056   20.4764 F   0  0  0  0  0  0  0  0  0  0  0  0
   10.6400   -1.1343   21.5038 C   0  0  0  0  0  0  0  0  0  0  0  0
    9.9909   -0.2674   22.3760 C   0  0  0  0  0  0  0  0  0  0  0  0
   10.1079   -1.8889   20.9359 H   0  0  0  0  0  0  0  0  0  0  0  0
   13.7998    0.0995   21.6499 H   0  0  0  0  0  0  0  0  0  0  0  0
   12.5735    1.8186   23.0705 H   0  0  0  0  0  0  0  0  0  0  0  0
    8.7110   -0.6787   24.7635 H   0  0  0  0  0  0  0  0  0  0  0  0
    7.2050    0.1559   24.3170 H   0  0  0  0  0  0  0  0  0  0  0  0
    7.8932   -2.0797   20.2138 H   0  0  0  0  0  0  0  0  0  0  0  0
    6.3164   -2.3616   20.9898 H   0  0  0  0  0  0  0  0  0  0  0  0
    8.8026   -2.5248   22.3085 H   0  0  0  0  0  0  0  0  0  0  0  0
    6.7680   -3.4589   23.1993 H   0  0  0  0  0  0  0  0  0  0  0  0
    6.1650   -1.8572   23.6600 H   0  0  0  0  0  0  0  0  0  0  0  0
    7.6185   -2.5298   24.4248 H   0  0  0  0  0  0  0  0  0  0  0  0
  1  2  1  0
  2  3  1  0
  3  4  1  0
  4  5  1  0
  5  6  2  0
  6  7  1  0
  7  8  2  0
  8  9  1  0
  9 10  2  0
 10 11  1  0
 11 12  2  0
 12 13  1  0
 13 14  2  0
 13 15  1  0
 12 16  1  0
 11 17  1  0
 10 18  1  0
  8 19  1  0
  6 20  1  0
  4 21  1  0
 21 22  2  0
 21 23  1  0
 23 24  1  1
 24 25  1  0
 25 26  1  0
 26 27  1  0
 27 28  1  0
 28 29  2  0
 29 30  1  0
 30 31  1  0
 29 32  1  0
 28 33  1  0
 26 34  1  0
 26 35  1  0
 25 36  1  0
 36 37  2  0
 36 38  1  0
 38 39  2  0
 39 40  1  0
 40 41  2  0
 41 42  1  0
 41 43  1  0
 43 44  2  0
 43 45  1  0
 40 46  1  0
 39 47  1  0
 24 48  1  0
 24 49  1  0
  3 50  1  0
  3 51  1  0
  2 52  1  6
  1 53  1  0
  1 54  1  0
  1 55  1  0
 23  2  1  0
 31 27  2  0
 44 38  1  0
 14  5  1  0
 44 23  1  0
 14  9  1  0
M  END
>  <cnnaffinities>  (75) 
[6.18488, 5.90575]

>  <score>  (75) 
6.18488

>  <index>  (75) 
74

>  <Smiles>  (75) 
C([C@]1(C(N(c2c(nc(c3c(c(c(c(c23)[H])[H])[H])[H])[H])[H])C(=O)[C@]21C(N(C(c1c(c(on1)[H])[H])([H])[H])C(=O)c1c(c(c(F)c(c21)[H])[H])[H])([H])[H])([H])[H])[H])([H])([H])[H]

>  <h>  (75) 
<NA>

>  <Training>  (75) 
True

>  <Success>  (75) 
True

>  <enamine_searched>  (75) 
False

>  <enamine_id>  (75) 
nan

$$$$

     RDKit          3D

 70 75  0  0  0  0  0  0  0  0999 V2000
    2.0681   -2.1632   28.9449 C   0  0  0  0  0  0  0  0  0  0  0  0
    2.3272   -2.9964   27.8311 O   0  0  0  0  0  0  0  0  0  0  0  0
    2.5298   -2.3724   26.6232 C   0  0  0  0  0  0  0  0  0  0  0  0
    2.5555   -1.0548   26.2578 C   0  0  0  0  0  0  0  0  0  0  0  0
    2.3256   -0.9734   26.1829 C   0  0  0  0  0  0  0  0  0  0  0  0
    3.5132   -2.7820   24.4038 C   0  0  0  0  0  0  0  0  0  0  0  0
    2.4936   -3.5211   24.1987 C   0  0  0  0  0  0  0  0  0  0  0  0
    2.1849   -4.4853   23.0455 C   0  0  0  0  0  0  0  0  0  0  0  0
    3.4353   -4.6438   22.3305 N   0  0  0  0  0  0  0  0  0  0  0  0
    4.3141   -5.5012   22.9619 C   0  0  0  0  0  0  0  0  0  0  0  0
    3.8771   -6.4322   23.6098 O   0  0  0  0  0  0  0  0  0  0  0  0
    5.8270   -5.2883   22.7925 C   0  0  0  0  0  0  0  0  0  0  0  0
    6.3205   -4.0041   23.3074 N   0  0  0  0  0  0  0  0  0  0  0  0
    7.5605   -3.4439   22.7447 C   0  0  0  0  0  0  0  0  0  0  0  0
    7.4389   -1.9089   22.6770 C   0  0  2  0  0  0  0  0  0  0  0  0
    6.4721   -1.5592   21.5920 C   0  0  0  0  0  0  0  0  0  0  0  0
    5.3223   -2.1747   21.4523 O   0  0  0  0  0  0  0  0  0  0  0  0
    6.8963   -0.5967   20.7826 N   0  0  0  0  0  0  0  0  0  0  0  0
    6.1592   -0.0061   19.7053 C   0  0  0  0  0  0  0  0  0  0  0  0
    6.5007   -0.3080   18.4142 C   0  0  0  0  0  0  0  0  0  0  0  0
    5.8575    0.1779   17.3265 N   0  0  0  0  0  0  0  0  0  0  0  0
    4.8531    0.9924   17.5246 C   0  0  0  0  0  0  0  0  0  0  0  0
    4.4134    1.4103   18.8132 C   0  0  0  0  0  0  0  0  0  0  0  0
    3.3269    2.3092   18.9783 C   0  0  0  0  0  0  0  0  0  0  0  0
    2.9680    2.7370   20.2265 C   0  0  0  0  0  0  0  0  0  0  0  0
    3.6847    2.2984   21.3634 C   0  0  0  0  0  0  0  0  0  0  0  0
    4.7279    1.4167   21.2318 C   0  0  0  0  0  0  0  0  0  0  0  0
    5.1045    0.9294   19.9478 C   0  0  0  0  0  0  0  0  0  0  0  0
    5.2803    1.0953   22.1124 H   0  0  0  0  0  0  0  0  0  0  0  0
    3.4138    2.6694   22.3477 H   0  0  0  0  0  0  0  0  0  0  0  0
    2.1397    3.4295   20.3519 H   0  0  0  0  0  0  0  0  0  0  0  0
    2.8060    2.6619   18.0918 H   0  0  0  0  0  0  0  0  0  0  0  0
    4.3421    1.3746   16.6398 H   0  0  0  0  0  0  0  0  0  0  0  0
    7.3269   -0.9897   18.2156 H   0  0  0  0  0  0  0  0  0  0  0  0
    8.1991   -0.0744   21.2051 C   0  0  0  0  0  0  0  0  0  0  0  0
    8.7264   -1.1526   22.1894 C   0  0  2  0  0  0  0  0  0  0  0  0
    9.7671   -2.0370   21.4985 C   0  0  0  0  0  0  0  0  0  0  0  0
   10.6083   -1.4305   21.1435 H   0  0  0  0  0  0  0  0  0  0  0  0
    9.3439   -2.5522   20.6317 H   0  0  0  0  0  0  0  0  0  0  0  0
   10.1765   -2.7897   22.1780 H   0  0  0  0  0  0  0  0  0  0  0  0
    9.2155   -0.6807   23.0472 H   0  0  0  0  0  0  0  0  0  0  0  0
    8.8495    0.0548   20.3418 H   0  0  0  0  0  0  0  0  0  0  0  0
    8.1000    0.9154   21.6728 H   0  0  0  0  0  0  0  0  0  0  0  0
    6.9358   -1.3910   24.0290 C   0  0  0  0  0  0  0  0  0  0  0  0
    7.0026   -0.0149   24.3006 C   0  0  0  0  0  0  0  0  0  0  0  0
    6.3202    0.5134   25.3790 C   0  0  0  0  0  0  0  0  0  0  0  0
    6.3575    2.2347   25.6406 Cl  0  0  0  0  0  0  0  0  0  0  0  0
    5.5947   -0.2978   26.2518 C   0  0  0  0  0  0  0  0  0  0  0  0
    5.5958   -1.6632   26.0386 C   0  0  0  0  0  0  0  0  0  0  0  0
    6.2540   -2.2138   24.9270 C   0  0  0  0  0  0  0  0  0  0  0  0
    6.0664   -3.6761   24.6376 C   0  0  0  0  0  0  0  0  0  0  0  0
    5.6715   -4.4859   25.4528 O   0  0  0  0  0  0  0  0  0  0  0  0
    5.1269   -2.3171   26.7628 H   0  0  0  0  0  0  0  0  0  0  0  0
    5.0898    0.1534   27.0959 H   0  0  0  0  0  0  0  0  0  0  0  0
    7.5635    0.6640   23.6678 H   0  0  0  0  0  0  0  0  0  0  0  0
    8.4304   -3.7297   23.3531 H   0  0  0  0  0  0  0  0  0  0  0  0
    7.7001   -3.8407   21.7380 H   0  0  0  0  0  0  0  0  0  0  0  0
    6.3250   -6.1332   23.2820 H   0  0  0  0  0  0  0  0  0  0  0  0
    6.0650   -5.3108   21.7205 H   0  0  0  0  0  0  0  0  0  0  0  0
    3.7830   -3.8230   21.8435 H   0  0  0  0  0  0  0  0  0  0  0  0
    1.3872   -4.1446   22.3863 H   0  0  0  0  0  0  0  0  0  0  0  0
    1.8879   -5.4510   23.4562 H   0  0  0  0  0  0  0  0  0  0  0  0
    3.0154   -3.3610   25.6420 C   0  0  0  0  0  0  0  0  0  0  0  0
    3.3859   -4.2851   26.1296 H   0  0  0  0  0  0  0  0  0  0  0  0
    5.3200   -2.8441   22.1926 H   0  0  0  0  0  0  0  0  0  0  0  0
    1.8786   -0.5698   25.1711 H   0  0  0  0  0  0  0  0  0  0  0  0
    2.8007   -0.0451   26.8505 H   0  0  0  0  0  0  0  0  0  0  0  0
    1.1949   -1.5323   28.7423 H   0  0  0  0  0  0  0  0  0  0  0  0
    2.9338   -1.5331   29.1760 H   0  0  0  0  0  0  0  0  0  0  0  0
    1.8740   -2.8362   29.7829 H   0  0  0  0  0  0  0  0  0  0  0  0
  1  2  1  0
  2  3  1  0
  3  4  2  0
  4  5  1  0
  5  6  2  0
  6  7  1  0
  7  8  1  0
  8  9  1  0
  9 10  1  0
 10 11  2  0
 10 12  1  0
 12 13  1  0
 13 14  1  0
 15 14  1  1
 15 16  1  0
 16 17  2  0
 16 18  1  0
 18 19  1  0
 19 20  2  0
 20 21  1  0
 21 22  2  0
 22 23  1  0
 23 24  2  0
 24 25  1  0
 25 26  2  0
 26 27  1  0
 27 28  2  0
 27 29  1  0
 26 30  1  0
 25 31  1  0
 24 32  1  0
 22 33  1  0
 20 34  1  0
 18 35  1  0
 35 36  1  0
 36 37  1  0
 37 38  1  0
 37 39  1  0
 37 40  1  0
 36 41  1  1
 35 42  1  0
 35 43  1  0
 15 44  1  0
 44 45  2  0
 45 46  1  0
 46 47  1  0
 46 48  2  0
 48 49  1  0
 49 50  2  0
 50 51  1  0
 51 52  2  0
 49 53  1  0
 48 54  1  0
 45 55  1  0
 14 56  1  0
 14 57  1  0
 12 58  1  0
 12 59  1  0
  9 60  1  0
  8 61  1  0
  8 62  1  0
  7 63  2  0
 63 64  1  0
  6 65  1  0
  5 66  1  0
  4 67  1  0
  1 68  1  0
  1 69  1  0
  1 70  1  0
 63  3  1  0
 51 13  1  0
 36 15  1  0
 50 44  1  0
 28 19  1  0
 28 23  1  0
M  END
>  <cnnaffinities>  (76) 
[5.98703]

>  <score>  (76) 
5.98703

>  <index>  (76) 
75

>  <Smiles>  (76) 
C(Oc1c(c(c(c(C(N(C(=O)C(N2C([C@@]3(C(=O)N(c4c(nc(c5c(c(c(c(c45)[H])[H])[H])[H])[H])[H])C([C@@]3(C([H])([H])[H])[H])([H])[H])c3c(c(Cl)c(c(c3C2=O)[H])[H])[H])([H])[H])([H])[H])[H])([H])[H])c1[H])[H])[H])[H])([H])([H])[H]

>  <h>  (76) 
<NA>

>  <Training>  (76) 
True

>  <Success>  (76) 
True

>  <enamine_searched>  (76) 
False

>  <enamine_id>  (76) 
nan

$$$$

     RDKit          3D

 61 65  0  0  0  0  0  0  0  0999 V2000
    7.4734   -2.5237   23.7803 C   0  0  0  0  0  0  0  0  0  0  0  0
    7.8497   -1.7407   22.5199 C   0  0  1  0  0  0  0  0  0  0  0  0
    6.6827   -1.6150   21.5239 C   0  0  0  0  0  0  0  0  0  0  0  0
    6.9495   -0.3705   20.8293 N   0  0  0  0  0  0  0  0  0  0  0  0
    6.1515    0.1212   19.7650 C   0  0  0  0  0  0  0  0  0  0  0  0
    6.4520   -0.2176   18.4705 C   0  0  0  0  0  0  0  0  0  0  0  0
    5.7635    0.2245   17.3919 N   0  0  0  0  0  0  0  0  0  0  0  0
    4.7461    1.0212   17.5981 C   0  0  0  0  0  0  0  0  0  0  0  0
    4.3107    1.4321   18.8903 C   0  0  0  0  0  0  0  0  0  0  0  0
    3.1937    2.2925   19.0653 C   0  0  0  0  0  0  0  0  0  0  0  0
    2.7861    2.6561   20.3178 C   0  0  0  0  0  0  0  0  0  0  0  0
    3.4703    2.1713   21.4557 C   0  0  0  0  0  0  0  0  0  0  0  0
    4.5535    1.3356   21.3113 C   0  0  0  0  0  0  0  0  0  0  0  0
    5.0198    0.9604   20.0176 C   0  0  0  0  0  0  0  0  0  0  0  0
    5.0557    0.9560   22.1967 H   0  0  0  0  0  0  0  0  0  0  0  0
    3.1362    2.4591   22.4473 H   0  0  0  0  0  0  0  0  0  0  0  0
    1.9381    3.3231   20.4472 H   0  0  0  0  0  0  0  0  0  0  0  0
    2.6799    2.6559   18.1790 H   0  0  0  0  0  0  0  0  0  0  0  0
    4.2065    1.3793   16.7202 H   0  0  0  0  0  0  0  0  0  0  0  0
    7.2969   -0.8690   18.2525 H   0  0  0  0  0  0  0  0  0  0  0  0
    7.8412    0.4471   21.4732 C   0  0  0  0  0  0  0  0  0  0  0  0
    8.1447    1.5693   21.1091 O   0  0  0  0  0  0  0  0  0  0  0  0
    8.3853   -0.2884   22.7146 C   0  0  1  0  0  0  0  0  0  0  0  0
    7.8528    0.3633   24.0056 C   0  0  0  0  0  0  0  0  0  0  0  0
    8.4311    1.6669   24.2498 N   0  0  0  0  0  0  0  0  0  0  0  0
    7.5547    2.7177   24.7343 C   0  0  0  0  0  0  0  0  0  0  0  0
    6.8935    3.5168   23.6167 C   0  0  0  0  0  0  0  0  0  0  0  0
    7.8607    4.3429   22.8292 N   0  0  0  0  0  4  0  0  0  0  0  0
    8.3702    5.5210   23.5816 C   0  0  0  0  0  0  0  0  0  0  0  0
    8.9577    5.2045   24.4402 H   0  0  0  0  0  0  0  0  0  0  0  0
    7.5242    6.1375   23.9090 H   0  0  0  0  0  0  0  0  0  0  0  0
    9.0015    6.1205   22.9202 H   0  0  0  0  0  0  0  0  0  0  0  0
    7.2005    4.8344   21.5912 C   0  0  0  0  0  0  0  0  0  0  0  0
    6.9494    3.9841   20.9572 H   0  0  0  0  0  0  0  0  0  0  0  0
    7.8680    5.5173   21.0646 H   0  0  0  0  0  0  0  0  0  0  0  0
    6.2877    5.3858   21.8478 H   0  0  0  0  0  0  0  0  0  0  0  0
    8.6497    3.7433   22.5468 H   0  0  0  0  0  0  0  0  0  0  0  0
    6.1354    4.1867   24.0386 H   0  0  0  0  0  0  0  0  0  0  0  0
    6.3919    2.8452   22.9122 H   0  0  0  0  0  0  0  0  0  0  0  0
    6.7778    2.2419   25.3401 H   0  0  0  0  0  0  0  0  0  0  0  0
    8.1466    3.3682   25.3794 H   0  0  0  0  0  0  0  0  0  0  0  0
    9.7417    1.9476   24.0251 C   0  0  0  0  0  0  0  0  0  0  0  0
   10.2137    3.0557   24.2683 O   0  0  0  0  0  0  0  0  0  0  0  0
   10.5560    0.8537   23.3968 C   0  0  0  0  0  0  0  0  0  0  0  0
   11.9564    0.9178   23.3841 C   0  0  0  0  0  0  0  0  0  0  0  0
   12.6726    0.0872   22.5363 C   0  0  0  0  0  0  0  0  0  0  0  0
   11.9736   -0.7714   21.6796 C   0  0  0  0  0  0  0  0  0  0  0  0
   12.7076   -1.5229   20.2738 Cl  0  0  0  0  0  0  0  0  0  0  0  0
   10.6139   -0.9421   21.8002 C   0  0  0  0  0  0  0  0  0  0  0  0
    9.8897   -0.1608   22.6972 C   0  0  0  0  0  0  0  0  0  0  0  0
   10.1498   -1.6497   21.1224 H   0  0  0  0  0  0  0  0  0  0  0  0
   13.7527    0.1509   22.4625 H   0  0  0  0  0  0  0  0  0  0  0  0
   12.4535    1.6583   24.0121 H   0  0  0  0  0  0  0  0  0  0  0  0
    6.7692    0.4912   23.9242 H   0  0  0  0  0  0  0  0  0  0  0  0
    8.0627   -0.3032   24.8511 H   0  0  0  0  0  0  0  0  0  0  0  0
    6.6456   -2.4442   20.8116 H   0  0  0  0  0  0  0  0  0  0  0  0
    5.7179   -1.5845   22.0538 H   0  0  0  0  0  0  0  0  0  0  0  0
    8.6497   -2.2929   22.0252 H   0  0  0  0  0  0  0  0  0  0  0  0
    6.6325   -2.0525   24.3025 H   0  0  0  0  0  0  0  0  0  0  0  0
    7.1704   -3.5456   23.5261 H   0  0  0  0  0  0  0  0  0  0  0  0
    8.3094   -2.5960   24.4860 H   0  0  0  0  0  0  0  0  0  0  0  0
  1  2  1  0
  2  3  1  0
  3  4  1  0
  4  5  1  0
  5  6  2  0
  6  7  1  0
  7  8  2  0
  8  9  1  0
  9 10  2  0
 10 11  1  0
 11 12  2  0
 12 13  1  0
 13 14  2  0
 13 15  1  0
 12 16  1  0
 11 17  1  0
 10 18  1  0
  8 19  1  0
  6 20  1  0
  4 21  1  0
 21 22  2  0
 21 23  1  0
 23 24  1  1
 24 25  1  0
 25 26  1  0
 26 27  1  0
 27 28  1  0
 28 29  1  0
 29 30  1  0
 29 31  1  0
 29 32  1  0
 28 33  1  0
 33 34  1  0
 33 35  1  0
 33 36  1  0
 28 37  1  0
 27 38  1  0
 27 39  1  0
 26 40  1  0
 26 41  1  0
 25 42  1  0
 42 43  2  0
 42 44  1  0
 44 45  2  0
 45 46  1  0
 46 47  2  0
 47 48  1  0
 47 49  1  0
 49 50  2  0
 49 51  1  0
 46 52  1  0
 45 53  1  0
 24 54  1  0
 24 55  1  0
  3 56  1  0
  3 57  1  0
  2 58  1  6
  1 59  1  0
  1 60  1  0
  1 61  1  0
 23  2  1  0
 50 44  1  0
 14  5  1  0
 50 23  1  0
 14  9  1  0
M  CHG  1  28   1
M  END
>  <cnnaffinities>  (77) 
[6.14774]

>  <score>  (77) 
6.14774

>  <index>  (77) 
76

>  <Smiles>  (77) 
C([C@]1(C(N(c2c(nc(c3c(c(c(c(c23)[H])[H])[H])[H])[H])[H])C(=O)[C@]21C(N(C(C([N+](C([H])([H])[H])(C([H])([H])[H])[H])([H])[H])([H])[H])C(=O)c1c(c(c(Cl)c(c21)[H])[H])[H])([H])[H])([H])[H])[H])([H])([H])[H]

>  <h>  (77) 
<NA>

>  <Training>  (77) 
True

>  <Success>  (77) 
True

>  <enamine_searched>  (77) 
False

>  <enamine_id>  (77) 
nan

$$$$

     RDKit          3D

 57 60  0  0  0  0  0  0  0  0999 V2000
    9.6904    7.0847   23.4722 C   0  0  0  0  0  0  0  0  0  0  0  0
    9.3198    6.1964   24.6799 C   0  0  0  0  0  0  0  0  0  0  0  0
    8.1264    6.8109   25.4438 C   0  0  0  0  0  0  0  0  0  0  0  0
    7.8406    6.1786   26.2852 H   0  0  0  0  0  0  0  0  0  0  0  0
    8.3758    7.8043   25.8209 H   0  0  0  0  0  0  0  0  0  0  0  0
    7.2627    6.9077   24.7855 H   0  0  0  0  0  0  0  0  0  0  0  0
   10.4789    6.2133   25.6012 C   0  0  0  0  0  0  0  0  0  0  0  0
   11.3792    6.2698   26.3236 N   0  0  0  0  0  0  0  0  0  0  0  0
    8.9935    4.7623   24.2216 C   0  0  0  0  0  0  0  0  0  0  0  0
    9.7185    3.6392   24.6172 C   0  0  0  0  0  0  0  0  0  0  0  0
    9.3729    2.3597   24.1839 C   0  0  0  0  0  0  0  0  0  0  0  0
    8.3123    2.1536   23.3028 C   0  0  0  0  0  0  0  0  0  0  0  0
    7.9611    0.8345   22.8612 N   0  0  0  0  0  0  0  0  0  0  0  0
    7.6587   -0.1922   23.8603 C   0  0  0  0  0  0  0  0  0  0  0  0
    6.2479   -0.1186   24.4155 C   0  0  0  0  0  0  0  0  0  0  0  0
    5.8456    1.0001   25.1464 C   0  0  0  0  0  0  0  0  0  0  0  0
    4.5364    1.1009   25.6029 C   0  0  0  0  0  0  0  0  0  0  0  0
    3.6122    0.0938   25.3522 C   0  0  0  0  0  0  0  0  0  0  0  0
    4.0283   -1.0279   24.6502 C   0  0  0  0  0  0  0  0  0  0  0  0
    2.8974   -2.3074   24.3330 Cl  0  0  0  0  0  0  0  0  0  0  0  0
    5.3329   -1.1450   24.1851 C   0  0  0  0  0  0  0  0  0  0  0  0
    5.6283   -2.0410   23.6437 H   0  0  0  0  0  0  0  0  0  0  0  0
    2.5891    0.1747   25.7032 H   0  0  0  0  0  0  0  0  0  0  0  0
    4.2287    1.9779   26.1628 H   0  0  0  0  0  0  0  0  0  0  0  0
    6.5565    1.7998   25.3562 H   0  0  0  0  0  0  0  0  0  0  0  0
    8.3663   -0.0953   24.6892 H   0  0  0  0  0  0  0  0  0  0  0  0
    7.8492   -1.1743   23.4262 H   0  0  0  0  0  0  0  0  0  0  0  0
    7.8757    0.6306   21.4803 C   0  0  0  0  0  0  0  0  0  0  0  0
    8.5268    1.3070   20.7057 O   0  0  0  0  0  0  0  0  0  0  0  0
    6.9397   -0.4531   20.9118 C   0  0  0  0  0  0  0  0  0  0  0  0
    6.1110    0.0792   19.7617 C   0  0  0  0  0  0  0  0  0  0  0  0
    6.4261   -0.2076   18.4593 C   0  0  0  0  0  0  0  0  0  0  0  0
    5.7571    0.2468   17.3664 N   0  0  0  0  0  0  0  0  0  0  0  0
    4.7309    1.0314   17.5766 C   0  0  0  0  0  0  0  0  0  0  0  0
    4.2834    1.4259   18.8688 C   0  0  0  0  0  0  0  0  0  0  0  0
    3.1654    2.2842   19.0452 C   0  0  0  0  0  0  0  0  0  0  0  0
    2.7629    2.6466   20.2987 C   0  0  0  0  0  0  0  0  0  0  0  0
    3.4646    2.1689   21.4279 C   0  0  0  0  0  0  0  0  0  0  0  0
    4.5529    1.3422   21.2863 C   0  0  0  0  0  0  0  0  0  0  0  0
    4.9938    0.9425   19.9951 C   0  0  0  0  0  0  0  0  0  0  0  0
    5.0743    0.9970   22.1768 H   0  0  0  0  0  0  0  0  0  0  0  0
    3.1382    2.4639   22.4212 H   0  0  0  0  0  0  0  0  0  0  0  0
    1.9104    3.3050   20.4375 H   0  0  0  0  0  0  0  0  0  0  0  0
    2.6418    2.6502   18.1651 H   0  0  0  0  0  0  0  0  0  0  0  0
    4.1968    1.4003   16.6991 H   0  0  0  0  0  0  0  0  0  0  0  0
    7.2740   -0.8582   18.2457 H   0  0  0  0  0  0  0  0  0  0  0  0
    6.2883   -0.8878   21.6716 H   0  0  0  0  0  0  0  0  0  0  0  0
    7.5794   -1.2589   20.5325 H   0  0  0  0  0  0  0  0  0  0  0  0
    7.5775    3.2786   22.9062 C   0  0  0  0  0  0  0  0  0  0  0  0
    7.9182    4.5504   23.3579 C   0  0  0  0  0  0  0  0  0  0  0  0
    7.3243    5.3895   23.0002 H   0  0  0  0  0  0  0  0  0  0  0  0
    6.7319    3.1568   22.2326 H   0  0  0  0  0  0  0  0  0  0  0  0
    9.9813    1.5179   24.5008 H   0  0  0  0  0  0  0  0  0  0  0  0
   10.5690    3.7686   25.2818 H   0  0  0  0  0  0  0  0  0  0  0  0
   10.5204    6.6501   22.9142 H   0  0  0  0  0  0  0  0  0  0  0  0
    8.8411    7.1787   22.7948 H   0  0  0  0  0  0  0  0  0  0  0  0
    9.9740    8.0868   23.7990 H   0  0  0  0  0  0  0  0  0  0  0  0
  1  2  1  0
  2  3  1  0
  3  4  1  0
  3  5  1  0
  3  6  1  0
  2  7  1  0
  7  8  3  0
  2  9  1  0
  9 10  2  0
 10 11  1  0
 11 12  2  0
 12 13  1  0
 13 14  1  0
 14 15  1  0
 15 16  2  0
 16 17  1  0
 17 18  2  0
 18 19  1  0
 19 20  1  0
 19 21  2  0
 21 22  1  0
 18 23  1  0
 17 24  1  0
 16 25  1  0
 14 26  1  0
 14 27  1  0
 13 28  1  0
 28 29  2  0
 28 30  1  0
 30 31  1  0
 31 32  2  0
 32 33  1  0
 33 34  2  0
 34 35  1  0
 35 36  2  0
 36 37  1  0
 37 38  2  0
 38 39  1  0
 39 40  2  0
 39 41  1  0
 38 42  1  0
 37 43  1  0
 36 44  1  0
 34 45  1  0
 32 46  1  0
 30 47  1  0
 30 48  1  0
 12 49  1  0
 49 50  2  0
 50 51  1  0
 49 52  1  0
 11 53  1  0
 10 54  1  0
  1 55  1  0
  1 56  1  0
  1 57  1  0
 50  9  1  0
 21 15  1  0
 40 31  1  0
 40 35  1  0
M  END
>  <cnnaffinities>  (78) 
[5.73208, 5.66705, 5.66492, 5.82247, 5.81966, 5.8181, 5.8152, 5.66309, 5.66004, 5.65558, 5.80102, 5.79298, 5.62889]

>  <score>  (78) 
5.73208

>  <index>  (78) 
77

>  <Smiles>  (78) 
C(C(C([H])([H])[H])(C#N)c1c(c(c(N(C(c2c(c(c(c(Cl)c2[H])[H])[H])[H])([H])[H])C(=O)C(c2c(nc(c3c(c(c(c(c23)[H])[H])[H])[H])[H])[H])([H])[H])c(c1[H])[H])[H])[H])([H])([H])[H]

>  <h>  (78) 
<NA>

>  <Training>  (78) 
True

>  <Success>  (78) 
True

>  <enamine_searched>  (78) 
False

>  <enamine_id>  (78) 
nan

$$$$

     RDKit          3D

 40 42  0  0  0  0  0  0  0  0999 V2000
   12.3643   -0.5417   24.8830 C   0  0  0  0  0  0  0  0  0  0  0  0
   11.5145   -0.5508   23.6135 C   0  0  0  0  0  0  0  0  0  0  0  0
   10.1724   -1.2597   23.8129 C   0  0  0  0  0  0  0  0  0  0  0  0
    9.3077   -1.2644   22.5492 C   0  0  0  0  0  0  0  0  0  0  0  0
    9.1031    0.1039   22.0969 N   0  0  0  0  0  0  0  0  0  0  0  0
    8.0076    0.5605   21.3969 C   0  0  0  0  0  0  0  0  0  0  0  0
    7.8689    1.7514   21.1556 O   0  0  0  0  0  0  0  0  0  0  0  0
    6.9616   -0.4635   20.8982 C   0  0  0  0  0  0  0  0  0  0  0  0
    6.1116    0.0799   19.7721 C   0  0  0  0  0  0  0  0  0  0  0  0
    6.4261   -0.2088   18.4726 C   0  0  0  0  0  0  0  0  0  0  0  0
    5.7639    0.2507   17.3799 N   0  0  0  0  0  0  0  0  0  0  0  0
    4.7363    1.0328   17.5868 C   0  0  0  0  0  0  0  0  0  0  0  0
    4.2887    1.4238   18.8734 C   0  0  0  0  0  0  0  0  0  0  0  0
    3.1722    2.2804   19.0454 C   0  0  0  0  0  0  0  0  0  0  0  0
    2.7679    2.6510   20.2980 C   0  0  0  0  0  0  0  0  0  0  0  0
    3.4729    2.1803   21.4298 C   0  0  0  0  0  0  0  0  0  0  0  0
    4.5578    1.3536   21.2888 C   0  0  0  0  0  0  0  0  0  0  0  0
    4.9965    0.9439   20.0024 C   0  0  0  0  0  0  0  0  0  0  0  0
    5.1024    1.0158   22.1655 H   0  0  0  0  0  0  0  0  0  0  0  0
    3.1461    2.4815   22.4217 H   0  0  0  0  0  0  0  0  0  0  0  0
    1.9164    3.3137   20.4278 H   0  0  0  0  0  0  0  0  0  0  0  0
    2.6591    2.6396   18.1567 H   0  0  0  0  0  0  0  0  0  0  0  0
    4.2058    1.3917   16.7031 H   0  0  0  0  0  0  0  0  0  0  0  0
    7.2710   -0.8572   18.2359 H   0  0  0  0  0  0  0  0  0  0  0  0
    6.3385   -0.7692   21.7497 H   0  0  0  0  0  0  0  0  0  0  0  0
    7.4818   -1.3690   20.5509 H   0  0  0  0  0  0  0  0  0  0  0  0
   10.3493    0.8363   21.9162 C   0  0  0  0  0  0  0  0  0  0  0  0
   11.2298    0.8774   23.1482 C   0  0  0  0  0  0  0  0  0  0  0  0
   12.1764    1.3506   22.8616 H   0  0  0  0  0  0  0  0  0  0  0  0
   10.7885    1.4719   23.9669 H   0  0  0  0  0  0  0  0  0  0  0  0
   10.9336    0.2720   21.1929 H   0  0  0  0  0  0  0  0  0  0  0  0
   10.0875    1.8281   21.5551 H   0  0  0  0  0  0  0  0  0  0  0  0
    8.3269   -1.6976   22.7578 H   0  0  0  0  0  0  0  0  0  0  0  0
    9.7995   -1.8963   21.7802 H   0  0  0  0  0  0  0  0  0  0  0  0
    9.6290   -0.7350   24.6092 H   0  0  0  0  0  0  0  0  0  0  0  0
   10.3369   -2.2914   24.1401 H   0  0  0  0  0  0  0  0  0  0  0  0
   12.0698   -1.0874   22.8206 H   0  0  0  0  0  0  0  0  0  0  0  0
   11.8423    0.0143   25.6723 H   0  0  0  0  0  0  0  0  0  0  0  0
   13.3309   -0.0497   24.7129 H   0  0  0  0  0  0  0  0  0  0  0  0
   12.5568   -1.5572   25.2495 H   0  0  0  0  0  0  0  0  0  0  0  0
  1  2  1  0
  2  3  1  0
  3  4  1  0
  4  5  1  0
  5  6  1  0
  6  7  2  0
  6  8  1  0
  8  9  1  0
  9 10  2  0
 10 11  1  0
 11 12  2  0
 12 13  1  0
 13 14  2  0
 14 15  1  0
 15 16  2  0
 16 17  1  0
 17 18  2  0
 17 19  1  0
 16 20  1  0
 15 21  1  0
 14 22  1  0
 12 23  1  0
 10 24  1  0
  8 25  1  0
  8 26  1  0
  5 27  1  0
 27 28  1  0
 28 29  1  0
 28 30  1  0
 27 31  1  0
 27 32  1  0
  4 33  1  0
  4 34  1  0
  3 35  1  0
  3 36  1  0
  2 37  1  0
  1 38  1  0
  1 39  1  0
  1 40  1  0
 28  2  1  0
 18  9  1  0
 18 13  1  0
M  END
>  <cnnaffinities>  (79) 
[5.27523, 5.27491, 5.15839, 5.15844, 4.574, 4.57448, 4.57061, 4.57089, 5.25087]

>  <score>  (79) 
5.27523

>  <index>  (79) 
79

>  <Smiles>  (79) 
C(C1(C(C(N(C(=O)C(c2c(nc(c3c(c(c(c(c23)[H])[H])[H])[H])[H])[H])([H])[H])C(C1([H])[H])([H])[H])([H])[H])([H])[H])[H])([H])([H])[H]

>  <h>  (79) 
<NA>

>  <Training>  (79) 
True

>  <Success>  (79) 
True

>  <enamine_searched>  (79) 
False

>  <enamine_id>  (79) 
nan

$$$$

     RDKit          3D

 59 64  0  0  0  0  0  0  0  0999 V2000
    6.8328   -2.2290   23.6731 C   0  0  0  0  0  0  0  0  0  0  0  0
    7.7570   -1.8454   22.5091 C   0  0  1  0  0  0  0  0  0  0  0  0
    6.9677   -1.7802   21.1882 C   0  0  0  0  0  0  0  0  0  0  0  0
    6.8590   -0.3766   20.8956 N   0  0  0  0  0  0  0  0  0  0  0  0
    6.1182    0.1113   19.7926 C   0  0  0  0  0  0  0  0  0  0  0  0
    6.4402   -0.2298   18.5010 C   0  0  0  0  0  0  0  0  0  0  0  0
    5.7786    0.2264   17.4096 N   0  0  0  0  0  0  0  0  0  0  0  0
    4.7541    1.0224   17.5986 C   0  0  0  0  0  0  0  0  0  0  0  0
    4.2948    1.4218   18.8861 C   0  0  0  0  0  0  0  0  0  0  0  0
    3.1704    2.2722   19.0528 C   0  0  0  0  0  0  0  0  0  0  0  0
    2.7374    2.6082   20.3078 C   0  0  0  0  0  0  0  0  0  0  0  0
    3.4026    2.1087   21.4482 C   0  0  0  0  0  0  0  0  0  0  0  0
    4.4977    1.2916   21.3134 C   0  0  0  0  0  0  0  0  0  0  0  0
    4.9815    0.9455   20.0224 C   0  0  0  0  0  0  0  0  0  0  0  0
    5.0017    0.8975   22.1894 H   0  0  0  0  0  0  0  0  0  0  0  0
    3.0502    2.3843   22.4394 H   0  0  0  0  0  0  0  0  0  0  0  0
    1.8830    3.2655   20.4414 H   0  0  0  0  0  0  0  0  0  0  0  0
    2.6632    2.6442   18.1685 H   0  0  0  0  0  0  0  0  0  0  0  0
    4.2238    1.3803   16.7145 H   0  0  0  0  0  0  0  0  0  0  0  0
    7.2929   -0.8784   18.2929 H   0  0  0  0  0  0  0  0  0  0  0  0
    7.7946    0.3936   21.5476 C   0  0  0  0  0  0  0  0  0  0  0  0
    8.0138    1.5549   21.2926 O   0  0  0  0  0  0  0  0  0  0  0  0
    8.4947   -0.4705   22.6193 C   0  0  1  0  0  0  0  0  0  0  0  0
    8.3685    0.1497   24.0264 C   0  0  0  0  0  0  0  0  0  0  0  0
    9.1748    1.3453   24.2163 N   0  0  0  0  0  0  0  0  0  0  0  0
    8.5681    2.5158   24.8430 C   0  0  0  0  0  0  0  0  0  0  0  0
    7.6654    3.3018   23.9361 C   0  0  0  0  0  0  0  0  0  0  0  0
    6.2912    3.2941   23.7987 C   0  0  0  0  0  0  0  0  0  0  0  0
    6.0314    4.2313   22.7805 C   0  0  0  0  0  0  0  0  0  0  0  0
    7.1468    4.7889   22.3376 N   0  0  0  0  0  0  0  0  0  0  0  0
    8.1272    4.2168   23.0468 N   0  0  0  0  0  0  0  0  0  0  0  0
    9.4919    4.5794   22.7448 C   0  0  0  0  0  0  0  0  0  0  0  0
    9.9918    3.7990   22.1692 H   0  0  0  0  0  0  0  0  0  0  0  0
   10.0617    4.7755   23.6523 H   0  0  0  0  0  0  0  0  0  0  0  0
    9.4559    5.4855   22.1463 H   0  0  0  0  0  0  0  0  0  0  0  0
    5.0952    4.5081   22.3195 H   0  0  0  0  0  0  0  0  0  0  0  0
    5.6002    2.6826   24.3709 H   0  0  0  0  0  0  0  0  0  0  0  0
    9.3879    3.1471   25.1925 H   0  0  0  0  0  0  0  0  0  0  0  0
    7.9965    2.1873   25.7212 H   0  0  0  0  0  0  0  0  0  0  0  0
   10.4772    1.4057   23.8191 C   0  0  0  0  0  0  0  0  0  0  0  0
   11.2560    2.2775   24.2020 O   0  0  0  0  0  0  0  0  0  0  0  0
   10.8964    0.3584   22.8506 C   0  0  0  0  0  0  0  0  0  0  0  0
   12.2297    0.3999   22.4555 C   0  0  0  0  0  0  0  0  0  0  0  0
   12.6967   -0.4772   21.5058 C   0  0  0  0  0  0  0  0  0  0  0  0
   11.8181   -1.4521   21.0415 C   0  0  0  0  0  0  0  0  0  0  0  0
   12.2883   -2.3925   20.2043 F   0  0  0  0  0  0  0  0  0  0  0  0
   10.4715   -1.4584   21.3591 C   0  0  0  0  0  0  0  0  0  0  0  0
    9.9851   -0.5540   22.3072 C   0  0  0  0  0  0  0  0  0  0  0  0
    9.8340   -2.1516   20.8204 H   0  0  0  0  0  0  0  0  0  0  0  0
   13.6939   -0.3959   21.0827 H   0  0  0  0  0  0  0  0  0  0  0  0
   12.8510    1.1503   22.9266 H   0  0  0  0  0  0  0  0  0  0  0  0
    8.6878   -0.6144   24.7430 H   0  0  0  0  0  0  0  0  0  0  0  0
    7.3325    0.4155   24.2359 H   0  0  0  0  0  0  0  0  0  0  0  0
    5.9717   -2.2264   21.2662 H   0  0  0  0  0  0  0  0  0  0  0  0
    7.4973   -2.2886   20.3827 H   0  0  0  0  0  0  0  0  0  0  0  0
    8.5110   -2.6353   22.4573 H   0  0  0  0  0  0  0  0  0  0  0  0
    6.3655   -3.1997   23.4778 H   0  0  0  0  0  0  0  0  0  0  0  0
    6.0268   -1.5033   23.8198 H   0  0  0  0  0  0  0  0  0  0  0  0
    7.3759   -2.3296   24.6164 H   0  0  0  0  0  0  0  0  0  0  0  0
  1  2  1  0
  2  3  1  0
  3  4  1  0
  4  5  1  0
  5  6  2  0
  6  7  1  0
  7  8  2  0
  8  9  1  0
  9 10  2  0
 10 11  1  0
 11 12  2  0
 12 13  1  0
 13 14  2  0
 13 15  1  0
 12 16  1  0
 11 17  1  0
 10 18  1  0
  8 19  1  0
  6 20  1  0
  4 21  1  0
 21 22  2  0
 21 23  1  0
 23 24  1  1
 24 25  1  0
 25 26  1  0
 26 27  1  0
 27 28  2  0
 28 29  1  0
 29 30  2  0
 30 31  1  0
 31 32  1  0
 32 33  1  0
 32 34  1  0
 32 35  1  0
 29 36  1  0
 28 37  1  0
 26 38  1  0
 26 39  1  0
 25 40  1  0
 40 41  2  0
 40 42  1  0
 42 43  2  0
 43 44  1  0
 44 45  2  0
 45 46  1  0
 45 47  1  0
 47 48  2  0
 47 49  1  0
 44 50  1  0
 43 51  1  0
 24 52  1  0
 24 53  1  0
  3 54  1  0
  3 55  1  0
  2 56  1  6
  1 57  1  0
  1 58  1  0
  1 59  1  0
 23  2  1  0
 31 27  1  0
 48 42  1  0
 14  5  1  0
 48 23  1  0
 14  9  1  0
M  END
>  <cnnaffinities>  (80) 
[6.53135, 6.33371, 6.19802]

>  <score>  (80) 
6.53135

>  <index>  (80) 
80

>  <Smiles>  (80) 
C([C@]1(C(N(c2c(nc(c3c(c(c(c(c23)[H])[H])[H])[H])[H])[H])C(=O)[C@]21C(N(C(c1c(c(nn1C([H])([H])[H])[H])[H])([H])[H])C(=O)c1c(c(c(F)c(c21)[H])[H])[H])([H])[H])([H])[H])[H])([H])([H])[H]

>  <h>  (80) 
<NA>

>  <Training>  (80) 
True

>  <Success>  (80) 
True

>  <enamine_searched>  (80) 
False

>  <enamine_id>  (80) 
nan

$$$$

     RDKit          3D

 58 63  0  0  0  0  0  0  0  0999 V2000
    5.4567    4.9483   21.4144 C   0  0  0  0  0  0  0  0  0  0  0  0
    6.4424    4.5411   22.4642 C   0  0  0  0  0  0  0  0  0  0  0  0
    6.3560    3.5792   23.3316 N   0  0  0  0  0  0  0  0  0  0  0  0
    7.5892    3.5770   23.9812 C   0  0  0  0  0  0  0  0  0  0  0  0
    7.9882    2.5361   24.9883 C   0  0  0  0  0  0  0  0  0  0  0  0
    8.7416    1.4221   24.4084 N   0  0  0  0  0  0  0  0  0  0  0  0
    8.0724    0.1550   24.1573 C   0  0  0  0  0  0  0  0  0  0  0  0
    8.3581   -0.4211   22.7459 C   0  0  2  0  0  0  0  0  0  0  0  0
    7.6838    0.4360   21.6355 C   0  0  0  0  0  0  0  0  0  0  0  0
    7.8543    1.6146   21.4259 O   0  0  0  0  0  0  0  0  0  0  0  0
    6.8777   -0.3837   20.8745 N   0  0  0  0  0  0  0  0  0  0  0  0
    6.1254    0.1061   19.7781 C   0  0  0  0  0  0  0  0  0  0  0  0
    6.4408   -0.2255   18.4832 C   0  0  0  0  0  0  0  0  0  0  0  0
    5.7704    0.2276   17.3976 N   0  0  0  0  0  0  0  0  0  0  0  0
    4.7478    1.0217   17.5973 C   0  0  0  0  0  0  0  0  0  0  0  0
    4.2917    1.4241   18.8838 C   0  0  0  0  0  0  0  0  0  0  0  0
    3.1636    2.2725   19.0591 C   0  0  0  0  0  0  0  0  0  0  0  0
    2.7360    2.6100   20.3146 C   0  0  0  0  0  0  0  0  0  0  0  0
    3.4186    2.1195   21.4490 C   0  0  0  0  0  0  0  0  0  0  0  0
    4.5144    1.3080   21.3052 C   0  0  0  0  0  0  0  0  0  0  0  0
    4.9923    0.9485   20.0143 C   0  0  0  0  0  0  0  0  0  0  0  0
    5.0218    0.9275   22.1844 H   0  0  0  0  0  0  0  0  0  0  0  0
    3.0810    2.3932   22.4458 H   0  0  0  0  0  0  0  0  0  0  0  0
    1.8752    3.2608   20.4446 H   0  0  0  0  0  0  0  0  0  0  0  0
    2.6567    2.6435   18.1735 H   0  0  0  0  0  0  0  0  0  0  0  0
    4.2218    1.3837   16.7149 H   0  0  0  0  0  0  0  0  0  0  0  0
    7.2886   -0.8736   18.2636 H   0  0  0  0  0  0  0  0  0  0  0  0
    7.0667   -1.7919   21.1397 C   0  0  0  0  0  0  0  0  0  0  0  0
    7.7397   -1.8444   22.5325 C   0  0  2  0  0  0  0  0  0  0  0  0
    6.7465   -2.3350   23.5999 C   0  0  0  0  0  0  0  0  0  0  0  0
    7.2146   -2.4142   24.5858 H   0  0  0  0  0  0  0  0  0  0  0  0
    5.8764   -1.6730   23.6808 H   0  0  0  0  0  0  0  0  0  0  0  0
    6.3830   -3.3347   23.3351 H   0  0  0  0  0  0  0  0  0  0  0  0
    8.5612   -2.5694   22.5192 H   0  0  0  0  0  0  0  0  0  0  0  0
    6.0984   -2.3069   21.1259 H   0  0  0  0  0  0  0  0  0  0  0  0
    7.7131   -2.2390   20.3774 H   0  0  0  0  0  0  0  0  0  0  0  0
    9.8697   -0.3797   22.5321 C   0  0  0  0  0  0  0  0  0  0  0  0
   10.4744   -1.2043   21.5755 C   0  0  0  0  0  0  0  0  0  0  0  0
   11.8335   -1.0981   21.3592 C   0  0  0  0  0  0  0  0  0  0  0  0
   12.3965   -1.8615   20.4067 F   0  0  0  0  0  0  0  0  0  0  0  0
   12.6287   -0.1722   22.0282 C   0  0  0  0  0  0  0  0  0  0  0  0
   12.0233    0.6788   22.9295 C   0  0  0  0  0  0  0  0  0  0  0  0
   10.6490    0.6024   23.1543 C   0  0  0  0  0  0  0  0  0  0  0  0
   10.0118    1.6771   23.9737 C   0  0  0  0  0  0  0  0  0  0  0  0
   10.5843    2.7369   24.2087 O   0  0  0  0  0  0  0  0  0  0  0  0
   12.5777    1.4547   23.4475 H   0  0  0  0  0  0  0  0  0  0  0  0
   13.6806   -0.0899   21.7820 H   0  0  0  0  0  0  0  0  0  0  0  0
    9.9130   -1.8796   20.9369 H   0  0  0  0  0  0  0  0  0  0  0  0
    7.0016    0.3370   24.2582 H   0  0  0  0  0  0  0  0  0  0  0  0
    8.3805   -0.6022   24.8938 H   0  0  0  0  0  0  0  0  0  0  0  0
    7.0867    2.1270   25.4528 H   0  0  0  0  0  0  0  0  0  0  0  0
    8.5991    2.9992   25.7702 H   0  0  0  0  0  0  0  0  0  0  0  0
    8.3297    4.5980   23.5032 C   0  0  0  0  0  0  0  0  0  0  0  0
    7.6146    5.2253   22.5287 O   0  0  0  0  0  0  0  0  0  0  0  0
    9.3165    4.9631   23.7435 H   0  0  0  0  0  0  0  0  0  0  0  0
    5.6679    5.9499   21.0350 H   0  0  0  0  0  0  0  0  0  0  0  0
    4.4535    4.9201   21.8402 H   0  0  0  0  0  0  0  0  0  0  0  0
    5.4732    4.2376   20.5812 H   0  0  0  0  0  0  0  0  0  0  0  0
  1  2  1  0
  2  3  2  0
  3  4  1  0
  4  5  1  0
  5  6  1  0
  6  7  1  0
  8  7  1  1
  8  9  1  0
  9 10  2  0
  9 11  1  0
 11 12  1  0
 12 13  2  0
 13 14  1  0
 14 15  2  0
 15 16  1  0
 16 17  2  0
 17 18  1  0
 18 19  2  0
 19 20  1  0
 20 21  2  0
 20 22  1  0
 19 23  1  0
 18 24  1  0
 17 25  1  0
 15 26  1  0
 13 27  1  0
 11 28  1  0
 28 29  1  0
 29 30  1  0
 30 31  1  0
 30 32  1  0
 30 33  1  0
 29 34  1  6
 28 35  1  0
 28 36  1  0
  8 37  1  0
 37 38  2  0
 38 39  1  0
 39 40  1  0
 39 41  2  0
 41 42  1  0
 42 43  2  0
 43 44  1  0
 44 45  2  0
 42 46  1  0
 41 47  1  0
 38 48  1  0
  7 49  1  0
  7 50  1  0
  5 51  1  0
  5 52  1  0
  4 53  2  0
 53 54  1  0
 53 55  1  0
  1 56  1  0
  1 57  1  0
  1 58  1  0
 54  2  1  0
 44  6  1  0
 29  8  1  0
 43 37  1  0
 21 12  1  0
 21 16  1  0
M  END
>  <cnnaffinities>  (81) 
[6.21409]

>  <score>  (81) 
6.21409

>  <index>  (81) 
81

>  <Smiles>  (81) 
C(c1nc(C(N2C([C@@]3(C(=O)N(c4c(nc(c5c(c(c(c(c45)[H])[H])[H])[H])[H])[H])C([C@@]3(C([H])([H])[H])[H])([H])[H])c3c(c(F)c(c(c3C2=O)[H])[H])[H])([H])[H])([H])[H])c(o1)[H])([H])([H])[H]

>  <h>  (81) 
<NA>

>  <Training>  (81) 
True

>  <Success>  (81) 
True

>  <enamine_searched>  (81) 
False

>  <enamine_id>  (81) 
nan

$$$$

     RDKit          3D

 55 60  0  0  0  0  0  0  0  0999 V2000
    6.9937   -2.4481   23.4784 C   0  0  0  0  0  0  0  0  0  0  0  0
    7.9062   -1.8488   22.4064 C   0  0  1  0  0  0  0  0  0  0  0  0
    7.2168   -1.7611   21.0296 C   0  0  0  0  0  0  0  0  0  0  0  0
    6.8867   -0.3628   20.8754 N   0  0  0  0  0  0  0  0  0  0  0  0
    6.1182    0.1165   19.7930 C   0  0  0  0  0  0  0  0  0  0  0  0
    6.4345   -0.2266   18.5027 C   0  0  0  0  0  0  0  0  0  0  0  0
    5.7743    0.2236   17.4095 N   0  0  0  0  0  0  0  0  0  0  0  0
    4.7535    1.0222   17.5983 C   0  0  0  0  0  0  0  0  0  0  0  0
    4.2948    1.4207   18.8855 C   0  0  0  0  0  0  0  0  0  0  0  0
    3.1766    2.2783   19.0465 C   0  0  0  0  0  0  0  0  0  0  0  0
    2.7380    2.6193   20.2954 C   0  0  0  0  0  0  0  0  0  0  0  0
    3.3870    2.1091   21.4394 C   0  0  0  0  0  0  0  0  0  0  0  0
    4.4703    1.2784   21.3134 C   0  0  0  0  0  0  0  0  0  0  0  0
    4.9752    0.9420   20.0267 C   0  0  0  0  0  0  0  0  0  0  0  0
    4.9406    0.8679   22.2000 H   0  0  0  0  0  0  0  0  0  0  0  0
    3.0303    2.3860   22.4272 H   0  0  0  0  0  0  0  0  0  0  0  0
    1.8861    3.2781   20.4227 H   0  0  0  0  0  0  0  0  0  0  0  0
    2.6805    2.6552   18.1577 H   0  0  0  0  0  0  0  0  0  0  0  0
    4.2235    1.3867   16.7159 H   0  0  0  0  0  0  0  0  0  0  0  0
    7.2864   -0.8761   18.3040 H   0  0  0  0  0  0  0  0  0  0  0  0
    7.6617    0.4604   21.6670 C   0  0  0  0  0  0  0  0  0  0  0  0
    7.7011    1.6660   21.5899 O   0  0  0  0  0  0  0  0  0  0  0  0
    8.4411   -0.4096   22.6764 C   0  0  1  0  0  0  0  0  0  0  0  0
    8.1815    0.0931   24.1172 C   0  0  0  0  0  0  0  0  0  0  0  0
    8.7500    1.4036   24.3590 N   0  0  0  0  0  0  0  0  0  0  0  0
    7.9993    2.4252   25.0660 C   0  0  0  0  0  0  0  0  0  0  0  0
    7.4536    3.4595   24.1275 C   0  0  0  0  0  0  0  0  0  0  0  0
    8.0363    4.5235   23.6844 N   0  0  0  0  0  0  0  0  0  0  0  0
    7.0973    5.0826   22.8240 C   0  0  0  0  0  0  0  0  0  0  0  0
    5.9845    4.3213   22.8217 C   0  0  0  0  0  0  0  0  0  0  0  0
    6.2030    3.2728   23.6659 O   0  0  0  0  0  0  0  0  0  0  0  0
    5.0284    4.3410   22.3215 H   0  0  0  0  0  0  0  0  0  0  0  0
    7.3031    5.9814   22.2652 H   0  0  0  0  0  0  0  0  0  0  0  0
    8.6815    2.9221   25.7567 H   0  0  0  0  0  0  0  0  0  0  0  0
    7.1837    1.9518   25.6192 H   0  0  0  0  0  0  0  0  0  0  0  0
    9.9904    1.7537   23.9067 C   0  0  0  0  0  0  0  0  0  0  0  0
   10.5067    2.8218   24.2060 O   0  0  0  0  0  0  0  0  0  0  0  0
   10.6664    0.7631   23.0190 C   0  0  0  0  0  0  0  0  0  0  0  0
   12.0311    0.9245   22.7711 C   0  0  0  0  0  0  0  0  0  0  0  0
   12.7091    0.0412   21.9523 C   0  0  0  0  0  0  0  0  0  0  0  0
   11.9606   -0.9774   21.3688 C   0  0  0  0  0  0  0  0  0  0  0  0
   12.5290   -1.8170   20.4852 F   0  0  0  0  0  0  0  0  0  0  0  0
   10.6014   -1.1105   21.5378 C   0  0  0  0  0  0  0  0  0  0  0  0
    9.9371   -0.2744   22.4284 C   0  0  0  0  0  0  0  0  0  0  0  0
   10.1042   -1.8936   20.9734 H   0  0  0  0  0  0  0  0  0  0  0  0
   13.7777    0.1178   21.7586 H   0  0  0  0  0  0  0  0  0  0  0  0
   12.5345    1.7686   23.2296 H   0  0  0  0  0  0  0  0  0  0  0  0
    7.1101    0.1389   24.3206 H   0  0  0  0  0  0  0  0  0  0  0  0
    8.6277   -0.6229   24.8143 H   0  0  0  0  0  0  0  0  0  0  0  0
    6.3082   -2.3660   20.9666 H   0  0  0  0  0  0  0  0  0  0  0  0
    7.8995   -2.0871   20.2363 H   0  0  0  0  0  0  0  0  0  0  0  0
    8.7542   -2.5342   22.3513 H   0  0  0  0  0  0  0  0  0  0  0  0
    6.0867   -1.8572   23.6309 H   0  0  0  0  0  0  0  0  0  0  0  0
    6.6941   -3.4606   23.1898 H   0  0  0  0  0  0  0  0  0  0  0  0
    7.5159   -2.5308   24.4358 H   0  0  0  0  0  0  0  0  0  0  0  0
  1  2  1  0
  2  3  1  0
  3  4  1  0
  4  5  1  0
  5  6  2  0
  6  7  1  0
  7  8  2  0
  8  9  1  0
  9 10  2  0
 10 11  1  0
 11 12  2  0
 12 13  1  0
 13 14  2  0
 13 15  1  0
 12 16  1  0
 11 17  1  0
 10 18  1  0
  8 19  1  0
  6 20  1  0
  4 21  1  0
 21 22  2  0
 21 23  1  0
 23 24  1  1
 24 25  1  0
 25 26  1  0
 26 27  1  0
 27 28  2  0
 28 29  1  0
 29 30  2  0
 30 31  1  0
 30 32  1  0
 29 33  1  0
 26 34  1  0
 26 35  1  0
 25 36  1  0
 36 37  2  0
 36 38  1  0
 38 39  2  0
 39 40  1  0
 40 41  2  0
 41 42  1  0
 41 43  1  0
 43 44  2  0
 43 45  1  0
 40 46  1  0
 39 47  1  0
 24 48  1  0
 24 49  1  0
  3 50  1  0
  3 51  1  0
  2 52  1  6
  1 53  1  0
  1 54  1  0
  1 55  1  0
 23  2  1  0
 31 27  1  0
 44 38  1  0
 14  5  1  0
 44 23  1  0
 14  9  1  0
M  END
>  <cnnaffinities>  (82) 
[6.20303, 6.20048]

>  <score>  (82) 
6.20303

>  <index>  (82) 
82

>  <Smiles>  (82) 
C([C@]1(C(N(c2c(nc(c3c(c(c(c(c23)[H])[H])[H])[H])[H])[H])C(=O)[C@]21C(N(C(c1nc(c(o1)[H])[H])([H])[H])C(=O)c1c(c(c(F)c(c21)[H])[H])[H])([H])[H])([H])[H])[H])([H])([H])[H]

>  <h>  (82) 
<NA>

>  <Training>  (82) 
True

>  <Success>  (82) 
True

>  <enamine_searched>  (82) 
False

>  <enamine_id>  (82) 
nan

$$$$

     RDKit          3D

 72 77  0  0  0  0  0  0  0  0999 V2000
    9.2312    6.0362   23.5464 C   0  0  0  0  0  0  0  0  0  0  0  0
    8.0154    6.0320   22.6303 C   0  0  2  0  0  0  0  0  0  0  0  0
    7.2497    7.3439   22.6908 C   0  0  0  0  0  0  0  0  0  0  0  0
    6.1073    7.3304   21.8604 O   0  0  0  0  0  0  0  0  0  0  0  0
    5.1872    6.3507   22.3015 C   0  0  0  0  0  0  0  0  0  0  0  0
    5.7592    4.9405   22.2436 C   0  0  1  0  0  0  0  0  0  0  0  0
    5.9509    4.4887   20.8113 C   0  0  0  0  0  0  0  0  0  0  0  0
    6.5066    3.5521   20.7555 H   0  0  0  0  0  0  0  0  0  0  0  0
    6.4869    5.2523   20.2553 H   0  0  0  0  0  0  0  0  0  0  0  0
    4.9850    4.3174   20.3386 H   0  0  0  0  0  0  0  0  0  0  0  0
    7.0641    4.9078   23.0108 N   0  0  0  0  0  4  0  0  0  0  0  0
    7.6882    3.5709   22.9254 C   0  0  0  0  0  0  0  0  0  0  0  0
    8.0443    2.9854   24.2800 C   0  0  0  0  0  0  0  0  0  0  0  0
    8.7044    1.7083   24.0702 N   0  0  0  0  0  0  0  0  0  0  0  0
    7.9156    0.5033   23.8528 C   0  0  0  0  0  0  0  0  0  0  0  0
    8.3556   -0.3427   22.6193 C   0  0  2  0  0  0  0  0  0  0  0  0
    7.9306    0.2695   21.2709 C   0  0  0  0  0  0  0  0  0  0  0  0
    8.4792    1.1727   20.6662 O   0  0  0  0  0  0  0  0  0  0  0  0
    6.8341   -0.4147   20.8003 N   0  0  0  0  0  0  0  0  0  0  0  0
    6.0919    0.1192   19.7267 C   0  0  0  0  0  0  0  0  0  0  0  0
    6.4518   -0.1606   18.4361 C   0  0  0  0  0  0  0  0  0  0  0  0
    5.7794    0.2994   17.3586 N   0  0  0  0  0  0  0  0  0  0  0  0
    4.7426    1.0702   17.5821 C   0  0  0  0  0  0  0  0  0  0  0  0
    4.2833    1.4545   18.8719 C   0  0  0  0  0  0  0  0  0  0  0  0
    3.1660    2.3087   19.0647 C   0  0  0  0  0  0  0  0  0  0  0  0
    2.7576    2.6562   20.3233 C   0  0  0  0  0  0  0  0  0  0  0  0
    3.4706    2.1957   21.4519 C   0  0  0  0  0  0  0  0  0  0  0  0
    4.5670    1.3835   21.2958 C   0  0  0  0  0  0  0  0  0  0  0  0
    4.9864    0.9736   19.9975 C   0  0  0  0  0  0  0  0  0  0  0  0
    5.1158    1.0518   22.1718 H   0  0  0  0  0  0  0  0  0  0  0  0
    3.1509    2.4855   22.4487 H   0  0  0  0  0  0  0  0  0  0  0  0
    1.8980    3.3072   20.4572 H   0  0  0  0  0  0  0  0  0  0  0  0
    2.6679    2.6944   18.1820 H   0  0  0  0  0  0  0  0  0  0  0  0
    4.2066    1.4345   16.7066 H   0  0  0  0  0  0  0  0  0  0  0  0
    7.3205   -0.7877   18.2415 H   0  0  0  0  0  0  0  0  0  0  0  0
    6.3788   -1.4833   21.6650 C   0  0  0  0  0  0  0  0  0  0  0  0
    7.6128   -1.7095   22.5499 C   0  0  2  0  0  0  0  0  0  0  0  0
    7.3597   -2.4110   23.8723 C   0  0  0  0  0  0  0  0  0  0  0  0
    8.3010   -2.5296   24.4220 H   0  0  0  0  0  0  0  0  0  0  0  0
    6.6673   -1.8435   24.5024 H   0  0  0  0  0  0  0  0  0  0  0  0
    6.9250   -3.4018   23.7060 H   0  0  0  0  0  0  0  0  0  0  0  0
    8.2483   -2.3636   21.9530 H   0  0  0  0  0  0  0  0  0  0  0  0
    6.1214   -2.3787   21.0829 H   0  0  0  0  0  0  0  0  0  0  0  0
    5.4873   -1.1945   22.2407 H   0  0  0  0  0  0  0  0  0  0  0  0
    9.8574   -0.4402   22.6185 C   0  0  0  0  0  0  0  0  0  0  0  0
   10.4820   -1.4316   21.8618 C   0  0  0  0  0  0  0  0  0  0  0  0
   11.8493   -1.4692   21.7276 C   0  0  0  0  0  0  0  0  0  0  0  0
   12.4261   -2.7704   20.6983 Cl  0  0  0  0  0  0  0  0  0  0  0  0
   12.6431   -0.4957   22.3526 C   0  0  0  0  0  0  0  0  0  0  0  0
   12.0346    0.5053   23.0754 C   0  0  0  0  0  0  0  0  0  0  0  0
   10.6523    0.5618   23.1797 C   0  0  0  0  0  0  0  0  0  0  0  0
   10.0398    1.7744   23.7956 C   0  0  0  0  0  0  0  0  0  0  0  0
   10.7061    2.7807   24.0072 O   0  0  0  0  0  0  0  0  0  0  0  0
   12.6311    1.2771   23.5530 H   0  0  0  0  0  0  0  0  0  0  0  0
   13.7167   -0.4424   22.2836 H   0  0  0  0  0  0  0  0  0  0  0  0
    9.9390   -2.1825   21.3046 H   0  0  0  0  0  0  0  0  0  0  0  0
    6.8581    0.7786   23.7436 H   0  0  0  0  0  0  0  0  0  0  0  0
    8.0273   -0.1296   24.7430 H   0  0  0  0  0  0  0  0  0  0  0  0
    8.7399    3.6293   24.8197 H   0  0  0  0  0  0  0  0  0  0  0  0
    7.1389    2.8672   24.8908 H   0  0  0  0  0  0  0  0  0  0  0  0
    8.5685    3.6101   22.2751 H   0  0  0  0  0  0  0  0  0  0  0  0
    6.9857    2.8758   22.4635 H   0  0  0  0  0  0  0  0  0  0  0  0
    6.8341    5.0565   24.0111 H   0  0  0  0  0  0  0  0  0  0  0  0
    5.0716    4.2400   22.7398 H   0  0  0  0  0  0  0  0  0  0  0  0
    4.3158    6.4204   21.6450 H   0  0  0  0  0  0  0  0  0  0  0  0
    4.8650    6.5710   23.3306 H   0  0  0  0  0  0  0  0  0  0  0  0
    6.9511    7.5322   23.7362 H   0  0  0  0  0  0  0  0  0  0  0  0
    7.8825    8.1645   22.3440 H   0  0  0  0  0  0  0  0  0  0  0  0
    8.3398    5.8668   21.5980 H   0  0  0  0  0  0  0  0  0  0  0  0
    9.8556    5.1512   23.3996 H   0  0  0  0  0  0  0  0  0  0  0  0
    9.8539    6.9159   23.3667 H   0  0  0  0  0  0  0  0  0  0  0  0
    8.9185    6.0542   24.5972 H   0  0  0  0  0  0  0  0  0  0  0  0
  1  2  1  0
  2  3  1  0
  3  4  1  0
  4  5  1  0
  5  6  1  0
  6  7  1  0
  7  8  1  0
  7  9  1  0
  7 10  1  0
  6 11  1  0
 11 12  1  0
 12 13  1  0
 13 14  1  0
 14 15  1  0
 16 15  1  1
 16 17  1  0
 17 18  2  0
 17 19  1  0
 19 20  1  0
 20 21  2  0
 21 22  1  0
 22 23  2  0
 23 24  1  0
 24 25  2  0
 25 26  1  0
 26 27  2  0
 27 28  1  0
 28 29  2  0
 28 30  1  0
 27 31  1  0
 26 32  1  0
 25 33  1  0
 23 34  1  0
 21 35  1  0
 19 36  1  0
 36 37  1  0
 37 38  1  0
 38 39  1  0
 38 40  1  0
 38 41  1  0
 37 42  1  6
 36 43  1  0
 36 44  1  0
 16 45  1  0
 45 46  2  0
 46 47  1  0
 47 48  1  0
 47 49  2  0
 49 50  1  0
 50 51  2  0
 51 52  1  0
 52 53  2  0
 50 54  1  0
 49 55  1  0
 46 56  1  0
 15 57  1  0
 15 58  1  0
 13 59  1  0
 13 60  1  0
 12 61  1  0
 12 62  1  0
 11 63  1  0
  6 64  1  1
  5 65  1  0
  5 66  1  0
  3 67  1  0
  3 68  1  0
  2 69  1  6
  1 70  1  0
  1 71  1  0
  1 72  1  0
 11  2  1  0
 52 14  1  0
 37 16  1  0
 51 45  1  0
 29 20  1  0
 29 24  1  0
M  CHG  1  11   1
M  END
>  <cnnaffinities>  (83) 
[6.3249]

>  <score>  (83) 
6.3249

>  <index>  (83) 
83

>  <Smiles>  (83) 
C([C@@]1(C(OC([C@@](C([H])([H])[H])([N+]1(C(C(N1C([C@@]2(C(=O)N(c3c(nc(c4c(c(c(c(c34)[H])[H])[H])[H])[H])[H])C([C@@]2(C([H])([H])[H])[H])([H])[H])c2c(c(Cl)c(c(c2C1=O)[H])[H])[H])([H])[H])([H])[H])([H])[H])[H])[H])([H])[H])([H])[H])[H])([H])([H])[H]

>  <h>  (83) 
<NA>

>  <Training>  (83) 
True

>  <Success>  (83) 
True

>  <enamine_searched>  (83) 
False

>  <enamine_id>  (83) 
nan

$$$$

     RDKit          3D

 60 65  0  0  0  0  0  0  0  0999 V2000
    7.5129   -8.6563   22.7816 C   0  0  0  0  0  0  0  0  0  0  0  0
    6.7691   -7.4602   22.4835 N   0  0  0  0  0  0  0  0  0  0  0  0
    7.2164   -6.5671   21.5663 C   0  0  0  0  0  0  0  0  0  0  0  0
    8.2308   -6.7419   20.9113 O   0  0  0  0  0  0  0  0  0  0  0  0
    6.3485   -5.3238   21.4956 C   0  0  0  0  0  0  0  0  0  0  0  0
    6.6996   -4.2830   22.4249 N   0  0  0  0  0  0  0  0  0  0  0  0
    7.8071   -3.3704   22.1977 C   0  0  0  0  0  0  0  0  0  0  0  0
    7.4507   -1.9233   22.6218 C   0  0  2  0  0  0  0  0  0  0  0  0
    6.3457   -1.4230   21.6728 C   0  0  0  0  0  0  0  0  0  0  0  0
    5.2065   -1.8439   21.6291 O   0  0  0  0  0  0  0  0  0  0  0  0
    6.8604   -0.4474   20.8503 N   0  0  0  0  0  0  0  0  0  0  0  0
    6.1138    0.0859   19.7766 C   0  0  0  0  0  0  0  0  0  0  0  0
    6.4541   -0.2059   18.4793 C   0  0  0  0  0  0  0  0  0  0  0  0
    5.7829    0.2434   17.3925 N   0  0  0  0  0  0  0  0  0  0  0  0
    4.7487    1.0214   17.5954 C   0  0  0  0  0  0  0  0  0  0  0  0
    4.2988    1.4144   18.8886 C   0  0  0  0  0  0  0  0  0  0  0  0
    3.1824    2.2756   19.0538 C   0  0  0  0  0  0  0  0  0  0  0  0
    2.7820    2.6559   20.3055 C   0  0  0  0  0  0  0  0  0  0  0  0
    3.4777    2.1982   21.4459 C   0  0  0  0  0  0  0  0  0  0  0  0
    4.5595    1.3631   21.3137 C   0  0  0  0  0  0  0  0  0  0  0  0
    4.9928    0.9413   20.0226 C   0  0  0  0  0  0  0  0  0  0  0  0
    5.0922    1.0208   22.1956 H   0  0  0  0  0  0  0  0  0  0  0  0
    3.1552    2.5173   22.4334 H   0  0  0  0  0  0  0  0  0  0  0  0
    1.9311    3.3194   20.4320 H   0  0  0  0  0  0  0  0  0  0  0  0
    2.6662    2.6338   18.1676 H   0  0  0  0  0  0  0  0  0  0  0  0
    4.2122    1.3913   16.7194 H   0  0  0  0  0  0  0  0  0  0  0  0
    7.2953   -0.8701   18.2817 H   0  0  0  0  0  0  0  0  0  0  0  0
    8.3022   -0.3226   20.9623 C   0  0  0  0  0  0  0  0  0  0  0  0
    8.6150   -0.9262   22.3433 C   0  0  2  0  0  0  0  0  0  0  0  0
   10.0314   -1.4940   22.4227 C   0  0  0  0  0  0  0  0  0  0  0  0
   10.7844   -0.7082   22.2968 H   0  0  0  0  0  0  0  0  0  0  0  0
   10.2196   -1.9861   23.3830 H   0  0  0  0  0  0  0  0  0  0  0  0
   10.1996   -2.2298   21.6290 H   0  0  0  0  0  0  0  0  0  0  0  0
    8.5363   -0.1194   23.0725 H   0  0  0  0  0  0  0  0  0  0  0  0
    8.8219   -0.8863   20.1756 H   0  0  0  0  0  0  0  0  0  0  0  0
    8.5931    0.7290   20.8840 H   0  0  0  0  0  0  0  0  0  0  0  0
    6.9379   -1.9664   24.0471 C   0  0  0  0  0  0  0  0  0  0  0  0
    6.8922   -0.8288   24.8611 C   0  0  0  0  0  0  0  0  0  0  0  0
    6.4046   -0.9297   26.1522 C   0  0  0  0  0  0  0  0  0  0  0  0
    6.2587    0.5057   27.1248 Cl  0  0  0  0  0  0  0  0  0  0  0  0
    5.9745   -2.1471   26.6822 C   0  0  0  0  0  0  0  0  0  0  0  0
    5.9561   -3.2529   25.8633 C   0  0  0  0  0  0  0  0  0  0  0  0
    6.3785   -3.1489   24.5421 C   0  0  0  0  0  0  0  0  0  0  0  0
    6.0718   -4.2869   23.6413 C   0  0  0  0  0  0  0  0  0  0  0  0
    5.2422   -5.1368   23.9421 O   0  0  0  0  0  0  0  0  0  0  0  0
    5.5968   -4.2151   26.2109 H   0  0  0  0  0  0  0  0  0  0  0  0
    5.5996   -2.1963   27.6969 H   0  0  0  0  0  0  0  0  0  0  0  0
    7.1863    0.1452   24.4857 H   0  0  0  0  0  0  0  0  0  0  0  0
    8.0857   -3.3532   21.1575 H   0  0  0  0  0  0  0  0  0  0  0  0
    8.6865   -3.7059   22.7523 H   0  0  0  0  0  0  0  0  0  0  0  0
    4.8913   -5.5931   21.2546 C   0  0  0  0  0  0  0  0  0  0  0  0
    5.6999   -4.9653   20.1841 C   0  0  0  0  0  0  0  0  0  0  0  0
    5.9888   -5.5603   19.3224 H   0  0  0  0  0  0  0  0  0  0  0  0
    5.5789   -3.8931   20.0400 H   0  0  0  0  0  0  0  0  0  0  0  0
    4.6172   -6.6421   21.1552 H   0  0  0  0  0  0  0  0  0  0  0  0
    4.1856   -4.9658   21.7849 H   0  0  0  0  0  0  0  0  0  0  0  0
    5.8664   -7.3368   22.9206 H   0  0  0  0  0  0  0  0  0  0  0  0
    7.7107   -9.1932   21.8742 H   0  0  0  0  0  0  0  0  0  0  0  0
    8.4757   -8.4304   23.2534 H   0  0  0  0  0  0  0  0  0  0  0  0
    6.8971   -9.3193   23.3887 H   0  0  0  0  0  0  0  0  0  0  0  0
  1  2  1  0
  2  3  1  0
  3  4  2  0
  3  5  1  0
  5  6  1  0
  6  7  1  0
  8  7  1  6
  8  9  1  0
  9 10  2  0
  9 11  1  0
 11 12  1  0
 12 13  2  0
 13 14  1  0
 14 15  2  0
 15 16  1  0
 16 17  2  0
 17 18  1  0
 18 19  2  0
 19 20  1  0
 20 21  2  0
 20 22  1  0
 19 23  1  0
 18 24  1  0
 17 25  1  0
 15 26  1  0
 13 27  1  0
 11 28  1  0
 28 29  1  0
 29 30  1  0
 30 31  1  0
 30 32  1  0
 30 33  1  0
 29 34  1  1
 28 35  1  0
 28 36  1  0
  8 37  1  0
 37 38  2  0
 38 39  1  0
 39 40  1  0
 39 41  2  0
 41 42  1  0
 42 43  2  0
 43 44  1  0
 44 45  2  0
 42 46  1  0
 41 47  1  0
 38 48  1  0
  7 49  1  0
  7 50  1  0
  5 51  1  0
 51 52  1  0
 52 53  1  0
 52 54  1  0
 51 55  1  0
 51 56  1  0
  2 57  1  0
  1 58  1  0
  1 59  1  0
  1 60  1  0
 52  5  1  0
 44  6  1  0
 29  8  1  0
 43 37  1  0
 21 12  1  0
 21 16  1  0
M  END
>  <cnnaffinities>  (84) 
[6.55008, 6.43145, 6.00881]

>  <score>  (84) 
6.55008

>  <index>  (84) 
84

>  <Smiles>  (84) 
C(N(C(=O)C1(N2C([C@@]3(C(=O)N(c4c(nc(c5c(c(c(c(c45)[H])[H])[H])[H])[H])[H])C([C@@]3(C([H])([H])[H])[H])([H])[H])c3c(c(Cl)c(c(c3C2=O)[H])[H])[H])([H])[H])C(C1([H])[H])([H])[H])[H])([H])([H])[H]

>  <h>  (84) 
<NA>

>  <Training>  (84) 
True

>  <Success>  (84) 
True

>  <enamine_searched>  (84) 
False

>  <enamine_id>  (84) 
nan

$$$$

     RDKit          3D

 55 60  0  0  0  0  0  0  0  0999 V2000
    7.0055   -2.4337   23.5065 C   0  0  0  0  0  0  0  0  0  0  0  0
    7.9109   -1.8513   22.4157 C   0  0  1  0  0  0  0  0  0  0  0  0
    7.1895   -1.7694   21.0539 C   0  0  0  0  0  0  0  0  0  0  0  0
    6.8937   -0.3661   20.8756 N   0  0  0  0  0  0  0  0  0  0  0  0
    6.1284    0.1116   19.7863 C   0  0  0  0  0  0  0  0  0  0  0  0
    6.4410   -0.2272   18.4914 C   0  0  0  0  0  0  0  0  0  0  0  0
    5.7746    0.2257   17.4027 N   0  0  0  0  0  0  0  0  0  0  0  0
    4.7513    1.0200   17.6014 C   0  0  0  0  0  0  0  0  0  0  0  0
    4.2959    1.4184   18.8912 C   0  0  0  0  0  0  0  0  0  0  0  0
    3.1702    2.2715   19.0559 C   0  0  0  0  0  0  0  0  0  0  0  0
    2.7391    2.6131   20.3091 C   0  0  0  0  0  0  0  0  0  0  0  0
    3.4070    2.1132   21.4479 C   0  0  0  0  0  0  0  0  0  0  0  0
    4.4951    1.2872   21.3151 C   0  0  0  0  0  0  0  0  0  0  0  0
    4.9846    0.9387   20.0254 C   0  0  0  0  0  0  0  0  0  0  0  0
    4.9899    0.8997   22.1975 H   0  0  0  0  0  0  0  0  0  0  0  0
    3.0747    2.4018   22.4415 H   0  0  0  0  0  0  0  0  0  0  0  0
    1.8891    3.2765   20.4367 H   0  0  0  0  0  0  0  0  0  0  0  0
    2.6714    2.6461   18.1659 H   0  0  0  0  0  0  0  0  0  0  0  0
    4.2234    1.3821   16.7191 H   0  0  0  0  0  0  0  0  0  0  0  0
    7.2922   -0.8732   18.2794 H   0  0  0  0  0  0  0  0  0  0  0  0
    7.6858    0.4605   21.6487 C   0  0  0  0  0  0  0  0  0  0  0  0
    7.7581    1.6632   21.5214 O   0  0  0  0  0  0  0  0  0  0  0  0
    8.4672   -0.4129   22.6683 C   0  0  1  0  0  0  0  0  0  0  0  0
    8.2394    0.0740   24.1172 C   0  0  0  0  0  0  0  0  0  0  0  0
    8.8497    1.3643   24.3848 N   0  0  0  0  0  0  0  0  0  0  0  0
    8.0825    2.3846   25.0837 C   0  0  0  0  0  0  0  0  0  0  0  0
    7.4382    3.3739   24.1544 C   0  0  0  0  0  0  0  0  0  0  0  0
    7.9990    4.4539   23.5645 C   0  0  0  0  0  0  0  0  0  0  0  0
    7.0649    5.0441   22.7712 O   0  0  0  0  0  0  0  0  0  0  0  0
    5.9740    4.2667   22.9088 C   0  0  0  0  0  0  0  0  0  0  0  0
    6.1173    3.2665   23.7182 N   0  0  0  0  0  0  0  0  0  0  0  0
    5.1119    4.5585   22.3242 H   0  0  0  0  0  0  0  0  0  0  0  0
    8.9730    4.9150   23.6059 H   0  0  0  0  0  0  0  0  0  0  0  0
    8.7699    2.9000   25.7602 H   0  0  0  0  0  0  0  0  0  0  0  0
    7.3197    1.8720   25.6780 H   0  0  0  0  0  0  0  0  0  0  0  0
   10.0721    1.7247   23.8920 C   0  0  0  0  0  0  0  0  0  0  0  0
   10.5875    2.8107   24.1403 O   0  0  0  0  0  0  0  0  0  0  0  0
   10.7244    0.7135   23.0140 C   0  0  0  0  0  0  0  0  0  0  0  0
   12.0746    0.8824   22.7088 C   0  0  0  0  0  0  0  0  0  0  0  0
   12.7075   -0.0106   21.8613 C   0  0  0  0  0  0  0  0  0  0  0  0
   11.9532   -1.0358   21.2933 C   0  0  0  0  0  0  0  0  0  0  0  0
   12.5352   -1.8696   20.4077 F   0  0  0  0  0  0  0  0  0  0  0  0
   10.5920   -1.1389   21.4850 C   0  0  0  0  0  0  0  0  0  0  0  0
    9.9667   -0.3002   22.4129 C   0  0  0  0  0  0  0  0  0  0  0  0
   10.0382   -1.8320   20.8586 H   0  0  0  0  0  0  0  0  0  0  0  0
   13.7506    0.0893   21.5838 H   0  0  0  0  0  0  0  0  0  0  0  0
   12.5729    1.7503   23.1290 H   0  0  0  0  0  0  0  0  0  0  0  0
    7.1688    0.1799   24.3100 H   0  0  0  0  0  0  0  0  0  0  0  0
    8.6645   -0.6938   24.7801 H   0  0  0  0  0  0  0  0  0  0  0  0
    6.2637   -2.3530   21.0379 H   0  0  0  0  0  0  0  0  0  0  0  0
    7.8386   -2.1227   20.2451 H   0  0  0  0  0  0  0  0  0  0  0  0
    8.7620   -2.5321   22.3399 H   0  0  0  0  0  0  0  0  0  0  0  0
    6.6912   -3.4419   23.2216 H   0  0  0  0  0  0  0  0  0  0  0  0
    7.5354   -2.5240   24.4592 H   0  0  0  0  0  0  0  0  0  0  0  0
    6.1080   -1.8257   23.6605 H   0  0  0  0  0  0  0  0  0  0  0  0
  1  2  1  0
  2  3  1  0
  3  4  1  0
  4  5  1  0
  5  6  2  0
  6  7  1  0
  7  8  2  0
  8  9  1  0
  9 10  2  0
 10 11  1  0
 11 12  2  0
 12 13  1  0
 13 14  2  0
 13 15  1  0
 12 16  1  0
 11 17  1  0
 10 18  1  0
  8 19  1  0
  6 20  1  0
  4 21  1  0
 21 22  2  0
 21 23  1  0
 23 24  1  1
 24 25  1  0
 25 26  1  0
 26 27  1  0
 27 28  2  0
 28 29  1  0
 29 30  1  0
 30 31  2  0
 30 32  1  0
 28 33  1  0
 26 34  1  0
 26 35  1  0
 25 36  1  0
 36 37  2  0
 36 38  1  0
 38 39  2  0
 39 40  1  0
 40 41  2  0
 41 42  1  0
 41 43  1  0
 43 44  2  0
 43 45  1  0
 40 46  1  0
 39 47  1  0
 24 48  1  0
 24 49  1  0
  3 50  1  0
  3 51  1  0
  2 52  1  6
  1 53  1  0
  1 54  1  0
  1 55  1  0
 23  2  1  0
 31 27  1  0
 44 38  1  0
 14  5  1  0
 44 23  1  0
 14  9  1  0
M  END
>  <cnnaffinities>  (85) 
[6.11087, 5.87175]

>  <score>  (85) 
6.11087

>  <index>  (85) 
85

>  <Smiles>  (85) 
C([C@]1(C(N(c2c(nc(c3c(c(c(c(c23)[H])[H])[H])[H])[H])[H])C(=O)[C@]21C(N(C(c1c(oc(n1)[H])[H])([H])[H])C(=O)c1c(c(c(F)c(c21)[H])[H])[H])([H])[H])([H])[H])[H])([H])([H])[H]

>  <h>  (85) 
<NA>

>  <Training>  (85) 
True

>  <Success>  (85) 
True

>  <enamine_searched>  (85) 
False

>  <enamine_id>  (85) 
nan

$$$$

     RDKit          3D

 65 70  0  0  0  0  0  0  0  0999 V2000
    6.4756    1.2587   28.7315 C   0  0  0  0  0  0  0  0  0  0  0  0
    6.7267    1.7440   27.3926 N   0  0  0  0  0  0  0  0  0  0  0  0
    5.9561    1.2885   26.3756 C   0  0  0  0  0  0  0  0  0  0  0  0
    5.0939    0.4365   26.5369 O   0  0  0  0  0  0  0  0  0  0  0  0
    6.2318    1.9253   25.0141 C   0  0  0  0  0  0  0  0  0  0  0  0
    7.3767    1.3569   24.3406 N   0  0  0  0  0  0  0  0  0  0  0  0
    7.2942    0.0091   23.8114 C   0  0  0  0  0  0  0  0  0  0  0  0
    8.0707   -0.1569   22.4739 C   0  0  2  0  0  0  0  0  0  0  0  0
    7.3647    0.5680   21.3085 C   0  0  0  0  0  0  0  0  0  0  0  0
    7.4726    1.7295   20.9844 O   0  0  0  0  0  0  0  0  0  0  0  0
    6.5720   -0.3397   20.6414 N   0  0  0  0  0  0  0  0  0  0  0  0
    5.7578    0.1177   19.5770 C   0  0  0  0  0  0  0  0  0  0  0  0
    6.0702   -0.2118   18.2811 C   0  0  0  0  0  0  0  0  0  0  0  0
    5.4515    0.2989   17.1886 N   0  0  0  0  0  0  0  0  0  0  0  0
    4.4856    1.1617   17.3893 C   0  0  0  0  0  0  0  0  0  0  0  0
    4.0277    1.5538   18.6766 C   0  0  0  0  0  0  0  0  0  0  0  0
    2.9643    2.4812   18.8229 C   0  0  0  0  0  0  0  0  0  0  0  0
    2.5211    2.8483   20.0643 C   0  0  0  0  0  0  0  0  0  0  0  0
    3.1248    2.2900   21.2136 C   0  0  0  0  0  0  0  0  0  0  0  0
    4.1570    1.3913   21.0970 C   0  0  0  0  0  0  0  0  0  0  0  0
    4.6590    1.0097   19.8162 C   0  0  0  0  0  0  0  0  0  0  0  0
    4.6091    0.9720   21.9925 H   0  0  0  0  0  0  0  0  0  0  0  0
    2.7702    2.5849   22.1969 H   0  0  0  0  0  0  0  0  0  0  0  0
    1.7134    3.5681   20.1723 H   0  0  0  0  0  0  0  0  0  0  0  0
    2.5210    2.8895   17.9201 H   0  0  0  0  0  0  0  0  0  0  0  0
    4.0152    1.6024   16.5092 H   0  0  0  0  0  0  0  0  0  0  0  0
    6.8931   -0.9003   18.0866 H   0  0  0  0  0  0  0  0  0  0  0  0
    6.6425   -1.6741   21.2052 C   0  0  0  0  0  0  0  0  0  0  0  0
    7.9837   -1.6387   21.9781 C   0  0  2  0  0  0  0  0  0  0  0  0
    8.0471   -2.7631   23.0230 C   0  0  0  0  0  0  0  0  0  0  0  0
    9.0585   -2.5951   24.0497 N   0  0  0  0  0  0  0  0  0  0  0  0
   10.3805   -2.7756   23.8701 C   0  0  0  0  0  0  0  0  0  0  0  0
   10.8649   -2.9555   22.6276 N   0  0  0  0  0  0  0  0  0  0  0  0
   12.1887   -3.1117   22.5876 C   0  0  0  0  0  0  0  0  0  0  0  0
   13.0140   -3.1246   23.6354 N   0  0  0  0  0  0  0  0  0  0  0  0
   12.4054   -2.9481   24.8032 C   0  0  0  0  0  0  0  0  0  0  0  0
   11.1130   -2.7865   25.0039 N   0  0  0  0  0  0  0  0  0  0  0  0
   13.0340   -2.9928   25.6864 H   0  0  0  0  0  0  0  0  0  0  0  0
   12.6357   -3.2551   21.6063 H   0  0  0  0  0  0  0  0  0  0  0  0
    8.7693   -2.6755   25.0130 H   0  0  0  0  0  0  0  0  0  0  0  0
    8.1899   -3.7277   22.5203 H   0  0  0  0  0  0  0  0  0  0  0  0
    7.0946   -2.7932   23.5580 H   0  0  0  0  0  0  0  0  0  0  0  0
    8.7932   -1.7882   21.2592 H   0  0  0  0  0  0  0  0  0  0  0  0
    6.5734   -2.4374   20.4253 H   0  0  0  0  0  0  0  0  0  0  0  0
    5.8083   -1.8496   21.9051 H   0  0  0  0  0  0  0  0  0  0  0  0
    9.4502    0.4464   22.6892 C   0  0  0  0  0  0  0  0  0  0  0  0
   10.5376    0.0682   21.9013 C   0  0  0  0  0  0  0  0  0  0  0  0
   11.7868    0.6243   22.1478 C   0  0  0  0  0  0  0  0  0  0  0  0
   13.1755   -0.0604   21.3759 Cl  0  0  0  0  0  0  0  0  0  0  0  0
   11.9923    1.6677   23.0497 C   0  0  0  0  0  0  0  0  0  0  0  0
   10.9072    2.0988   23.7755 C   0  0  0  0  0  0  0  0  0  0  0  0
    9.6698    1.4779   23.6218 C   0  0  0  0  0  0  0  0  0  0  0  0
    8.5660    1.9962   24.4755 C   0  0  0  0  0  0  0  0  0  0  0  0
    8.7046    2.9433   25.2497 O   0  0  0  0  0  0  0  0  0  0  0  0
   10.9795    2.9158   24.4868 H   0  0  0  0  0  0  0  0  0  0  0  0
   12.9700    2.1305   23.1650 H   0  0  0  0  0  0  0  0  0  0  0  0
   10.4519   -0.6991   21.1375 H   0  0  0  0  0  0  0  0  0  0  0  0
    6.2395   -0.2459   23.6883 H   0  0  0  0  0  0  0  0  0  0  0  0
    7.7217   -0.6933   24.5323 H   0  0  0  0  0  0  0  0  0  0  0  0
    6.4493    2.9871   25.1429 H   0  0  0  0  0  0  0  0  0  0  0  0
    5.3414    1.8127   24.3907 H   0  0  0  0  0  0  0  0  0  0  0  0
    7.5295    2.3209   27.1930 H   0  0  0  0  0  0  0  0  0  0  0  0
    6.9008    0.2634   28.8998 H   0  0  0  0  0  0  0  0  0  0  0  0
    6.8885    1.9563   29.4620 H   0  0  0  0  0  0  0  0  0  0  0  0
    5.3951    1.1864   28.8720 H   0  0  0  0  0  0  0  0  0  0  0  0
  1  2  1  0
  2  3  1  0
  3  4  2  0
  3  5  1  0
  5  6  1  0
  6  7  1  0
  8  7  1  1
  8  9  1  0
  9 10  2  0
  9 11  1  0
 11 12  1  0
 12 13  2  0
 13 14  1  0
 14 15  2  0
 15 16  1  0
 16 17  2  0
 17 18  1  0
 18 19  2  0
 19 20  1  0
 20 21  2  0
 20 22  1  0
 19 23  1  0
 18 24  1  0
 17 25  1  0
 15 26  1  0
 13 27  1  0
 11 28  1  0
 28 29  1  0
 29 30  1  0
 30 31  1  0
 31 32  1  0
 32 33  2  0
 33 34  1  0
 34 35  2  0
 35 36  1  0
 36 37  2  0
 36 38  1  0
 34 39  1  0
 31 40  1  0
 30 41  1  0
 30 42  1  0
 29 43  1  6
 28 44  1  0
 28 45  1  0
  8 46  1  0
 46 47  2  0
 47 48  1  0
 48 49  1  0
 48 50  2  0
 50 51  1  0
 51 52  2  0
 52 53  1  0
 53 54  2  0
 51 55  1  0
 50 56  1  0
 47 57  1  0
  7 58  1  0
  7 59  1  0
  5 60  1  0
  5 61  1  0
  2 62  1  0
  1 63  1  0
  1 64  1  0
  1 65  1  0
 53  6  1  0
 29  8  1  0
 37 32  1  0
 52 46  1  0
 21 12  1  0
 21 16  1  0
M  END
>  <cnnaffinities>  (86) 
[6.38235, 6.56683]

>  <score>  (86) 
6.38235

>  <index>  (86) 
86

>  <Smiles>  (86) 
C(N(C(=O)C(N1C([C@@]2(C(=O)N(c3c(nc(c4c(c(c(c(c34)[H])[H])[H])[H])[H])[H])C([C@@]2(C(N(c2nc(nc(n2)[H])[H])[H])([H])[H])[H])([H])[H])c2c(c(Cl)c(c(c2C1=O)[H])[H])[H])([H])[H])([H])[H])[H])([H])([H])[H]

>  <h>  (86) 
<NA>

>  <Training>  (86) 
True

>  <Success>  (86) 
True

>  <enamine_searched>  (86) 
False

>  <enamine_id>  (86) 
nan

$$$$

     RDKit          3D

 63 68  0  0  0  0  0  0  0  0999 V2000
    7.7146   -8.4127   22.8530 C   0  0  0  0  0  0  0  0  0  0  0  0
    6.8873   -7.2451   22.6488 N   0  0  0  0  0  0  0  0  0  0  0  0
    7.1524   -6.3515   21.6653 C   0  0  0  0  0  0  0  0  0  0  0  0
    8.0738   -6.4686   20.8676 O   0  0  0  0  0  0  0  0  0  0  0  0
    6.1920   -5.1591   21.6704 C   0  0  0  0  0  0  0  0  0  0  0  0
    6.6014   -4.1807   22.6557 N   0  0  0  0  0  0  0  0  0  0  0  0
    7.7421   -3.3270   22.3998 C   0  0  0  0  0  0  0  0  0  0  0  0
    7.3839   -1.8515   22.7174 C   0  0  2  0  0  0  0  0  0  0  0  0
    6.3573   -1.3976   21.6610 C   0  0  0  0  0  0  0  0  0  0  0  0
    5.2388   -1.8345   21.4991 O   0  0  0  0  0  0  0  0  0  0  0  0
    6.9470   -0.4411   20.8547 N   0  0  0  0  0  0  0  0  0  0  0  0
    6.2040    0.1232   19.7941 C   0  0  0  0  0  0  0  0  0  0  0  0
    6.5282   -0.1841   18.4971 C   0  0  0  0  0  0  0  0  0  0  0  0
    5.8435    0.2476   17.4134 N   0  0  0  0  0  0  0  0  0  0  0  0
    4.8015    1.0131   17.6185 C   0  0  0  0  0  0  0  0  0  0  0  0
    4.3577    1.4188   18.9071 C   0  0  0  0  0  0  0  0  0  0  0  0
    3.2274    2.2649   19.0547 C   0  0  0  0  0  0  0  0  0  0  0  0
    2.8101    2.6566   20.2967 C   0  0  0  0  0  0  0  0  0  0  0  0
    3.5068    2.2107   21.4421 C   0  0  0  0  0  0  0  0  0  0  0  0
    4.6023    1.3889   21.3239 C   0  0  0  0  0  0  0  0  0  0  0  0
    5.0653    0.9656   20.0425 C   0  0  0  0  0  0  0  0  0  0  0  0
    5.1137    1.0423   22.2160 H   0  0  0  0  0  0  0  0  0  0  0  0
    3.1641    2.5229   22.4249 H   0  0  0  0  0  0  0  0  0  0  0  0
    1.9503    3.3134   20.4067 H   0  0  0  0  0  0  0  0  0  0  0  0
    2.7143    2.5933   18.1545 H   0  0  0  0  0  0  0  0  0  0  0  0
    4.2489    1.3519   16.7405 H   0  0  0  0  0  0  0  0  0  0  0  0
    7.3681   -0.8459   18.2890 H   0  0  0  0  0  0  0  0  0  0  0  0
    8.4004   -0.4011   21.0078 C   0  0  0  0  0  0  0  0  0  0  0  0
    8.5596   -0.8916   22.4552 C   0  0  2  0  0  0  0  0  0  0  0  0
    9.9158   -1.4814   22.8536 C   0  0  0  0  0  0  0  0  0  0  0  0
   10.9606   -0.4847   22.9151 N   0  0  0  0  0  0  0  0  0  0  0  0
   11.2282    0.3339   23.9542 C   0  0  0  0  0  0  0  0  0  0  0  0
   12.1178    1.2769   23.4949 C   0  0  0  0  0  0  0  0  0  0  0  0
   12.3545    0.9077   22.1579 C   0  0  0  0  0  0  0  0  0  0  0  0
   11.6325   -0.1481   21.8148 N   0  0  0  0  0  0  0  0  0  0  0  0
   13.0300    1.3402   21.4335 H   0  0  0  0  0  0  0  0  0  0  0  0
   12.5637    2.1028   24.0162 H   0  0  0  0  0  0  0  0  0  0  0  0
   10.8009    0.1201   24.9211 H   0  0  0  0  0  0  0  0  0  0  0  0
    9.8384   -1.9153   23.8589 H   0  0  0  0  0  0  0  0  0  0  0  0
   10.2320   -2.2498   22.1430 H   0  0  0  0  0  0  0  0  0  0  0  0
    8.3889   -0.0172   23.0831 H   0  0  0  0  0  0  0  0  0  0  0  0
    8.7817    0.6132   20.8709 H   0  0  0  0  0  0  0  0  0  0  0  0
    8.9191   -1.0555   20.2889 H   0  0  0  0  0  0  0  0  0  0  0  0
    6.8491   -1.7989   24.1381 C   0  0  0  0  0  0  0  0  0  0  0  0
    6.8686   -0.6239   24.9039 C   0  0  0  0  0  0  0  0  0  0  0  0
    6.4050   -0.6411   26.2051 C   0  0  0  0  0  0  0  0  0  0  0  0
    6.3338    0.8544   27.0939 Cl  0  0  0  0  0  0  0  0  0  0  0  0
    5.9770   -1.8181   26.8150 C   0  0  0  0  0  0  0  0  0  0  0  0
    5.8983   -2.9640   26.0479 C   0  0  0  0  0  0  0  0  0  0  0  0
    6.2654   -2.9389   24.7040 C   0  0  0  0  0  0  0  0  0  0  0  0
    5.9327   -4.1169   23.8402 C   0  0  0  0  0  0  0  0  0  0  0  0
    5.0902   -4.9539   24.1528 O   0  0  0  0  0  0  0  0  0  0  0  0
    5.5337   -3.8915   26.4740 H   0  0  0  0  0  0  0  0  0  0  0  0
    5.6977   -1.8118   27.8622 H   0  0  0  0  0  0  0  0  0  0  0  0
    7.2308    0.3100   24.4921 H   0  0  0  0  0  0  0  0  0  0  0  0
    8.0253   -3.4231   21.3527 H   0  0  0  0  0  0  0  0  0  0  0  0
    8.6003   -3.6646   22.9977 H   0  0  0  0  0  0  0  0  0  0  0  0
    6.1659   -4.6903   20.6850 H   0  0  0  0  0  0  0  0  0  0  0  0
    5.1779   -5.4738   21.9412 H   0  0  0  0  0  0  0  0  0  0  0  0
    6.2174   -6.9854   23.3615 H   0  0  0  0  0  0  0  0  0  0  0  0
    8.1997   -8.6376   21.9137 H   0  0  0  0  0  0  0  0  0  0  0  0
    7.1071   -9.2798   23.1322 H   0  0  0  0  0  0  0  0  0  0  0  0
    8.4954   -8.2339   23.6039 H   0  0  0  0  0  0  0  0  0  0  0  0
  1  2  1  0
  2  3  1  0
  3  4  2  0
  3  5  1  0
  5  6  1  0
  6  7  1  0
  8  7  1  6
  8  9  1  0
  9 10  2  0
  9 11  1  0
 11 12  1  0
 12 13  2  0
 13 14  1  0
 14 15  2  0
 15 16  1  0
 16 17  2  0
 17 18  1  0
 18 19  2  0
 19 20  1  0
 20 21  2  0
 20 22  1  0
 19 23  1  0
 18 24  1  0
 17 25  1  0
 15 26  1  0
 13 27  1  0
 11 28  1  0
 28 29  1  0
 29 30  1  0
 30 31  1  0
 31 32  1  0
 32 33  2  0
 33 34  1  0
 34 35  2  0
 34 36  1  0
 33 37  1  0
 32 38  1  0
 30 39  1  0
 30 40  1  0
 29 41  1  1
 28 42  1  0
 28 43  1  0
  8 44  1  0
 44 45  2  0
 45 46  1  0
 46 47  1  0
 46 48  2  0
 48 49  1  0
 49 50  2  0
 50 51  1  0
 51 52  2  0
 49 53  1  0
 48 54  1  0
 45 55  1  0
  7 56  1  0
  7 57  1  0
  5 58  1  0
  5 59  1  0
  2 60  1  0
  1 61  1  0
  1 62  1  0
  1 63  1  0
 51  6  1  0
 29  8  1  0
 35 31  1  0
 50 44  1  0
 21 12  1  0
 21 16  1  0
M  END
>  <cnnaffinities>  (87) 
[7.18828, 6.54969]

>  <score>  (87) 
7.18828

>  <index>  (87) 
87

>  <Smiles>  (87) 
C(N(C(=O)C(N1C([C@@]2(C(=O)N(c3c(nc(c4c(c(c(c(c34)[H])[H])[H])[H])[H])[H])C([C@@]2(C(n2c(c(c(n2)[H])[H])[H])([H])[H])[H])([H])[H])c2c(c(Cl)c(c(c2C1=O)[H])[H])[H])([H])[H])([H])[H])[H])([H])([H])[H]

>  <h>  (87) 
<NA>

>  <Training>  (87) 
True

>  <Success>  (87) 
True

>  <enamine_searched>  (87) 
False

>  <enamine_id>  (87) 
nan

$$$$

     RDKit          3D

 64 68  0  0  0  0  0  0  0  0999 V2000
    1.9171    1.7493   27.5130 C   0  0  0  0  0  0  0  0  0  0  0  0
    3.4162    2.0032   27.3157 C   0  0  0  0  0  0  0  0  0  0  0  0
    4.0382    1.1848   26.1822 C   0  0  0  0  0  0  0  0  0  0  0  0
    3.9052    1.6051   25.0361 O   0  0  0  0  0  0  0  0  0  0  0  0
    4.9031    0.1323   26.4625 N   0  0  0  0  0  0  0  0  0  0  0  0
    4.7956   -0.5800   27.7370 C   0  0  0  0  0  0  0  0  0  0  0  0
    4.9069   -2.0859   27.4878 C   0  0  0  0  0  0  0  0  0  0  0  0
    6.2810   -2.4004   26.8856 C   0  0  0  0  0  0  0  0  0  0  0  0
    6.5986   -1.4703   25.7259 C   0  0  0  0  0  0  0  0  0  0  0  0
    7.6123   -1.8123   24.8157 C   0  0  0  0  0  0  0  0  0  0  0  0
    7.9139   -0.9651   23.7409 C   0  0  0  0  0  0  0  0  0  0  0  0
    7.2612    0.2603   23.5861 C   0  0  0  0  0  0  0  0  0  0  0  0
    7.6439    1.1199   22.5474 N   0  0  0  0  0  0  0  0  0  0  0  0
    8.4066    2.3389   22.8566 C   0  0  0  0  0  0  0  0  0  0  0  0
    9.8345    1.9564   23.1853 C   0  0  0  0  0  0  0  0  0  0  0  0
   10.0744    0.9219   24.1139 C   0  0  0  0  0  0  0  0  0  0  0  0
   11.3644    0.4906   24.4051 C   0  0  0  0  0  0  0  0  0  0  0  0
   12.4342    1.0743   23.7259 C   0  0  0  0  0  0  0  0  0  0  0  0
   12.2260    2.0889   22.7824 C   0  0  0  0  0  0  0  0  0  0  0  0
   13.7230    2.8611   21.8827 Br  0  0  0  0  0  0  0  0  0  0  0  0
   10.9273    2.5590   22.5251 C   0  0  0  0  0  0  0  0  0  0  0  0
   10.7707    3.3648   21.7988 H   0  0  0  0  0  0  0  0  0  0  0  0
   13.4388    0.7114   23.8905 H   0  0  0  0  0  0  0  0  0  0  0  0
   11.5313   -0.3082   25.1239 H   0  0  0  0  0  0  0  0  0  0  0  0
    9.2404    0.4188   24.5888 H   0  0  0  0  0  0  0  0  0  0  0  0
    7.9522    2.8911   23.6857 H   0  0  0  0  0  0  0  0  0  0  0  0
    8.3936    3.0162   21.9903 H   0  0  0  0  0  0  0  0  0  0  0  0
    7.7747    0.5751   21.2771 C   0  0  0  0  0  0  0  0  0  0  0  0
    8.4924    1.1354   20.4531 O   0  0  0  0  0  0  0  0  0  0  0  0
    6.8550   -0.5522   20.7933 C   0  0  0  0  0  0  0  0  0  0  0  0
    5.9981   -0.0461   19.6409 C   0  0  0  0  0  0  0  0  0  0  0  0
    6.3239   -0.3401   18.3038 C   0  0  0  0  0  0  0  0  0  0  0  0
    5.6585    0.1792   17.2587 N   0  0  0  0  0  0  0  0  0  0  0  0
    4.6425    1.0205   17.5059 C   0  0  0  0  0  0  0  0  0  0  0  0
    4.2387    1.3742   18.7996 C   0  0  0  0  0  0  0  0  0  0  0  0
    3.1777    2.2665   19.0233 C   0  0  0  0  0  0  0  0  0  0  0  0
    2.8264    2.6247   20.3299 C   0  0  0  0  0  0  0  0  0  0  0  0
    3.5388    2.1074   21.4164 C   0  0  0  0  0  0  0  0  0  0  0  0
    4.5912    1.2144   21.1960 C   0  0  0  0  0  0  0  0  0  0  0  0
    4.9382    0.8341   19.8916 C   0  0  0  0  0  0  0  0  0  0  0  0
    5.1484    0.8209   22.0415 H   0  0  0  0  0  0  0  0  0  0  0  0
    3.2783    2.3980   22.4304 H   0  0  0  0  0  0  0  0  0  0  0  0
    2.0098    3.3184   20.5040 H   0  0  0  0  0  0  0  0  0  0  0  0
    2.6362    2.7013   18.1876 H   0  0  0  0  0  0  0  0  0  0  0  0
    4.1213    1.4480   16.6555 H   0  0  0  0  0  0  0  0  0  0  0  0
    7.1799   -0.9814   18.1108 H   0  0  0  0  0  0  0  0  0  0  0  0
    6.2092   -0.8661   21.6204 H   0  0  0  0  0  0  0  0  0  0  0  0
    7.4638   -1.4087   20.4919 H   0  0  0  0  0  0  0  0  0  0  0  0
    6.2869    0.6213   24.5123 C   0  0  0  0  0  0  0  0  0  0  0  0
    5.9182   -0.2428   25.5609 C   0  0  0  0  0  0  0  0  0  0  0  0
    5.8111    1.5879   24.4083 H   0  0  0  0  0  0  0  0  0  0  0  0
    8.6974   -1.2264   23.0347 H   0  0  0  0  0  0  0  0  0  0  0  0
    8.1659   -2.7397   24.9381 H   0  0  0  0  0  0  0  0  0  0  0  0
    7.0448   -2.2899   27.6630 H   0  0  0  0  0  0  0  0  0  0  0  0
    6.3032   -3.4433   26.5531 H   0  0  0  0  0  0  0  0  0  0  0  0
    4.1170   -2.4088   26.8018 H   0  0  0  0  0  0  0  0  0  0  0  0
    4.7751   -2.6327   28.4264 H   0  0  0  0  0  0  0  0  0  0  0  0
    5.5924   -0.2516   28.4104 H   0  0  0  0  0  0  0  0  0  0  0  0
    3.8400   -0.3708   28.2287 H   0  0  0  0  0  0  0  0  0  0  0  0
    3.9499    1.7851   28.2444 H   0  0  0  0  0  0  0  0  0  0  0  0
    3.5785    3.0608   27.0913 H   0  0  0  0  0  0  0  0  0  0  0  0
    1.7419    0.7285   27.8642 H   0  0  0  0  0  0  0  0  0  0  0  0
    1.3745    1.8962   26.5734 H   0  0  0  0  0  0  0  0  0  0  0  0
    1.5134    2.4434   28.2591 H   0  0  0  0  0  0  0  0  0  0  0  0
  1  2  1  0
  2  3  1  0
  3  4  2  0
  3  5  1  0
  5  6  1  0
  6  7  1  0
  7  8  1  0
  8  9  1  0
  9 10  2  0
 10 11  1  0
 11 12  2  0
 12 13  1  0
 13 14  1  0
 14 15  1  0
 15 16  2  0
 16 17  1  0
 17 18  2  0
 18 19  1  0
 19 20  1  0
 19 21  2  0
 21 22  1  0
 18 23  1  0
 17 24  1  0
 16 25  1  0
 14 26  1  0
 14 27  1  0
 13 28  1  0
 28 29  2  0
 28 30  1  0
 30 31  1  0
 31 32  2  0
 32 33  1  0
 33 34  2  0
 34 35  1  0
 35 36  2  0
 36 37  1  0
 37 38  2  0
 38 39  1  0
 39 40  2  0
 39 41  1  0
 38 42  1  0
 37 43  1  0
 36 44  1  0
 34 45  1  0
 32 46  1  0
 30 47  1  0
 30 48  1  0
 12 49  1  0
 49 50  2  0
 49 51  1  0
 11 52  1  0
 10 53  1  0
  8 54  1  0
  8 55  1  0
  7 56  1  0
  7 57  1  0
  6 58  1  0
  6 59  1  0
  2 60  1  0
  2 61  1  0
  1 62  1  0
  1 63  1  0
  1 64  1  0
 50  5  1  0
 50  9  1  0
 21 15  1  0
 40 31  1  0
 40 35  1  0
M  END
>  <cnnaffinities>  (88) 
[6.39213, 6.27258]

>  <score>  (88) 
6.39213

>  <index>  (88) 
88

>  <Smiles>  (88) 
C(C(C(=O)N1C(C(C(c2c(c(c(N(C(c3c(c(c(c(Br)c3[H])[H])[H])[H])([H])[H])C(=O)C(c3c(nc(c4c(c(c(c(c34)[H])[H])[H])[H])[H])[H])([H])[H])c(c12)[H])[H])[H])([H])[H])([H])[H])([H])[H])([H])[H])([H])([H])[H]

>  <h>  (88) 
<NA>

>  <Training>  (88) 
True

>  <Success>  (88) 
True

>  <enamine_searched>  (88) 
False

>  <enamine_id>  (88) 
nan

$$$$

     RDKit          3D

 38 40  0  0  0  0  0  0  0  0999 V2000
    8.0563    1.6761   20.9676 O   0  0  0  0  0  0  0  0  0  0  0  0
    7.8876    0.6107   21.5301 C   0  0  0  0  0  0  0  0  0  0  0  0
    6.9520   -0.4561   20.9126 C   0  0  0  0  0  0  0  0  0  0  0  0
    6.1171    0.0869   19.7740 C   0  0  0  0  0  0  0  0  0  0  0  0
    6.4280   -0.2067   18.4723 C   0  0  0  0  0  0  0  0  0  0  0  0
    5.7612    0.2472   17.3783 N   0  0  0  0  0  0  0  0  0  0  0  0
    4.7335    1.0305   17.5809 C   0  0  0  0  0  0  0  0  0  0  0  0
    4.2885    1.4250   18.8696 C   0  0  0  0  0  0  0  0  0  0  0  0
    3.1709    2.2811   19.0442 C   0  0  0  0  0  0  0  0  0  0  0  0
    2.7671    2.6485   20.2989 C   0  0  0  0  0  0  0  0  0  0  0  0
    3.4690    2.1751   21.4296 C   0  0  0  0  0  0  0  0  0  0  0  0
    4.5548    1.3453   21.2868 C   0  0  0  0  0  0  0  0  0  0  0  0
    4.9981    0.9455   19.9995 C   0  0  0  0  0  0  0  0  0  0  0  0
    5.0836    0.9937   22.1670 H   0  0  0  0  0  0  0  0  0  0  0  0
    3.1419    2.4722   22.4215 H   0  0  0  0  0  0  0  0  0  0  0  0
    1.9137    3.3094   20.4349 H   0  0  0  0  0  0  0  0  0  0  0  0
    2.6479    2.6471   18.1631 H   0  0  0  0  0  0  0  0  0  0  0  0
    4.2001    1.3967   16.7000 H   0  0  0  0  0  0  0  0  0  0  0  0
    7.2731   -0.8552   18.2429 H   0  0  0  0  0  0  0  0  0  0  0  0
    6.2996   -0.8840   21.6865 H   0  0  0  0  0  0  0  0  0  0  0  0
    7.5689   -1.2877   20.5381 H   0  0  0  0  0  0  0  0  0  0  0  0
    8.4970    0.3266   22.7432 N   0  0  0  0  0  0  0  0  0  0  0  0
    8.8162   -1.0454   23.1446 C   0  0  0  0  0  0  0  0  0  0  0  0
    9.9940   -1.6536   22.4095 C   0  0  0  0  0  0  0  0  0  0  0  0
   11.2166   -1.1280   22.4437 C   0  0  0  0  0  0  0  0  0  0  0  0
   11.5859    0.1018   23.2432 C   0  0  0  0  0  0  0  0  0  0  0  0
   10.8024    1.3666   22.8561 C   0  0  0  0  0  0  0  0  0  0  0  0
    9.3456    1.3716   23.3243 C   0  0  0  0  0  0  0  0  0  0  0  0
    9.3357    1.2340   24.4097 H   0  0  0  0  0  0  0  0  0  0  0  0
    8.8845    2.3383   23.1143 H   0  0  0  0  0  0  0  0  0  0  0  0
   10.8167    1.4878   21.7711 H   0  0  0  0  0  0  0  0  0  0  0  0
   11.3143    2.2484   23.2711 H   0  0  0  0  0  0  0  0  0  0  0  0
   12.6582    0.2939   23.1278 H   0  0  0  0  0  0  0  0  0  0  0  0
   11.4272   -0.0904   24.3144 H   0  0  0  0  0  0  0  0  0  0  0  0
   11.9977   -1.5802   21.8308 H   0  0  0  0  0  0  0  0  0  0  0  0
    9.8151   -2.5468   21.8075 H   0  0  0  0  0  0  0  0  0  0  0  0
    9.0349   -1.0195   24.2176 H   0  0  0  0  0  0  0  0  0  0  0  0
    7.9271   -1.6684   23.0336 H   0  0  0  0  0  0  0  0  0  0  0  0
  1  2  2  0
  2  3  1  0
  3  4  1  0
  4  5  2  0
  5  6  1  0
  6  7  2  0
  7  8  1  0
  8  9  2  0
  9 10  1  0
 10 11  2  0
 11 12  1  0
 12 13  2  0
 12 14  1  0
 11 15  1  0
 10 16  1  0
  9 17  1  0
  7 18  1  0
  5 19  1  0
  3 20  1  0
  3 21  1  0
  2 22  1  0
 22 23  1  0
 23 24  1  0
 24 25  2  0
 25 26  1  0
 26 27  1  0
 27 28  1  0
 28 29  1  0
 28 30  1  0
 27 31  1  0
 27 32  1  0
 26 33  1  0
 26 34  1  0
 25 35  1  0
 24 36  1  0
 23 37  1  0
 23 38  1  0
 13  4  1  0
 28 22  1  0
 13  8  1  0
M  END
>  <cnnaffinities>  (89) 
[5.39712, 5.31038]

>  <score>  (89) 
5.39712

>  <index>  (89) 
89

>  <Smiles>  (89) 
O=C(C(c1c(nc(c2c(c(c(c(c12)[H])[H])[H])[H])[H])[H])([H])[H])N1C(C(=C(C(C(C1([H])[H])([H])[H])([H])[H])[H])[H])([H])[H]

>  <h>  (89) 
<NA>

>  <Training>  (89) 
True

>  <Success>  (89) 
True

>  <enamine_searched>  (89) 
False

>  <enamine_id>  (89) 
nan

$$$$

     RDKit          3D

 62 67  0  0  0  0  0  0  0  0999 V2000
    7.9802   -2.9779   23.0925 C   0  0  0  0  0  0  0  0  0  0  0  0
    7.9660   -1.8063   22.1079 C   0  0  1  0  0  0  0  0  0  0  0  0
    6.6962   -1.7348   21.2377 C   0  0  0  0  0  0  0  0  0  0  0  0
    6.7210   -0.3716   20.7445 N   0  0  0  0  0  0  0  0  0  0  0  0
    5.9551    0.1210   19.6508 C   0  0  0  0  0  0  0  0  0  0  0  0
    6.2657   -0.1931   18.3494 C   0  0  0  0  0  0  0  0  0  0  0  0
    5.6176    0.3064   17.2664 N   0  0  0  0  0  0  0  0  0  0  0  0
    4.6239    1.1373   17.4645 C   0  0  0  0  0  0  0  0  0  0  0  0
    4.1720    1.5226   18.7573 C   0  0  0  0  0  0  0  0  0  0  0  0
    3.0921    2.4305   18.9456 C   0  0  0  0  0  0  0  0  0  0  0  0
    2.6792    2.7620   20.2086 C   0  0  0  0  0  0  0  0  0  0  0  0
    3.3087    2.1883   21.3364 C   0  0  0  0  0  0  0  0  0  0  0  0
    4.3435    1.3041   21.1772 C   0  0  0  0  0  0  0  0  0  0  0  0
    4.8332    0.9787   19.8826 C   0  0  0  0  0  0  0  0  0  0  0  0
    4.8205    0.8480   22.0398 H   0  0  0  0  0  0  0  0  0  0  0  0
    2.9658    2.4472   22.3347 H   0  0  0  0  0  0  0  0  0  0  0  0
    1.8622    3.4632   20.3552 H   0  0  0  0  0  0  0  0  0  0  0  0
    2.6062    2.8595   18.0706 H   0  0  0  0  0  0  0  0  0  0  0  0
    4.1235    1.5408   16.5803 H   0  0  0  0  0  0  0  0  0  0  0  0
    7.0972   -0.8617   18.1272 H   0  0  0  0  0  0  0  0  0  0  0  0
    7.3989    0.4707   21.5924 C   0  0  0  0  0  0  0  0  0  0  0  0
    7.4234    1.6816   21.4805 O   0  0  0  0  0  0  0  0  0  0  0  0
    8.1086   -0.3655   22.6977 C   0  0  1  0  0  0  0  0  0  0  0  0
    7.3574   -0.1947   24.0437 C   0  0  0  0  0  0  0  0  0  0  0  0
    7.4734    1.1580   24.5698 N   0  0  0  0  0  0  0  0  0  0  0  0
    6.3119    1.9215   24.9986 C   0  0  0  0  0  0  0  0  0  0  0  0
    5.9781    3.0536   24.0224 C   0  0  0  0  0  0  0  0  0  0  0  0
    6.8721    4.2392   24.1739 N   0  0  0  0  0  4  0  0  0  0  0  0
    7.7616    4.6159   22.9849 C   0  0  0  0  0  0  0  0  0  0  0  0
    7.1357    6.0285   22.8867 C   0  0  0  0  0  0  0  0  0  0  0  0
    6.2086    5.5966   24.0580 C   0  0  0  0  0  0  0  0  0  0  0  0
    5.1635    5.4769   23.7602 H   0  0  0  0  0  0  0  0  0  0  0  0
    6.2603    6.1529   24.9933 H   0  0  0  0  0  0  0  0  0  0  0  0
    6.6252    6.2313   21.9377 H   0  0  0  0  0  0  0  0  0  0  0  0
    7.8225    6.8486   23.1161 H   0  0  0  0  0  0  0  0  0  0  0  0
    7.5737    3.9363   22.1566 H   0  0  0  0  0  0  0  0  0  0  0  0
    8.8137    4.5812   23.2678 H   0  0  0  0  0  0  0  0  0  0  0  0
    7.4831    4.0846   24.9952 H   0  0  0  0  0  0  0  0  0  0  0  0
    6.0822    2.6987   22.9921 H   0  0  0  0  0  0  0  0  0  0  0  0
    4.9481    3.3828   24.1892 H   0  0  0  0  0  0  0  0  0  0  0  0
    5.4683    1.2321   25.0513 H   0  0  0  0  0  0  0  0  0  0  0  0
    6.4938    2.3365   25.9994 H   0  0  0  0  0  0  0  0  0  0  0  0
    8.6513    1.8171   24.5992 C   0  0  0  0  0  0  0  0  0  0  0  0
    8.7899    2.8694   25.2391 O   0  0  0  0  0  0  0  0  0  0  0  0
    9.7576    1.2264   23.8035 C   0  0  0  0  0  0  0  0  0  0  0  0
   11.0055    1.8347   23.9274 C   0  0  0  0  0  0  0  0  0  0  0  0
   12.0616    1.4000   23.1648 C   0  0  0  0  0  0  0  0  0  0  0  0
   11.8402    0.3488   22.2825 C   0  0  0  0  0  0  0  0  0  0  0  0
   13.1688   -0.1610   21.3097 Cl  0  0  0  0  0  0  0  0  0  0  0  0
   10.6155   -0.2836   22.1586 C   0  0  0  0  0  0  0  0  0  0  0  0
    9.5275    0.1542   22.9199 C   0  0  0  0  0  0  0  0  0  0  0  0
   10.5272   -1.0960   21.4456 H   0  0  0  0  0  0  0  0  0  0  0  0
   13.0305    1.8825   23.2185 H   0  0  0  0  0  0  0  0  0  0  0  0
   11.1136    2.6831   24.5924 H   0  0  0  0  0  0  0  0  0  0  0  0
    7.7660   -0.9073   24.7737 H   0  0  0  0  0  0  0  0  0  0  0  0
    6.2931   -0.4102   23.9209 H   0  0  0  0  0  0  0  0  0  0  0  0
    6.6736   -2.4375   20.4045 H   0  0  0  0  0  0  0  0  0  0  0  0
    5.8026   -1.9251   21.8528 H   0  0  0  0  0  0  0  0  0  0  0  0
    8.7969   -1.9409   21.4112 H   0  0  0  0  0  0  0  0  0  0  0  0
    7.0955   -2.9814   23.7415 H   0  0  0  0  0  0  0  0  0  0  0  0
    7.9940   -3.9352   22.5582 H   0  0  0  0  0  0  0  0  0  0  0  0
    8.8666   -2.9580   23.7368 H   0  0  0  0  0  0  0  0  0  0  0  0
  1  2  1  0
  2  3  1  0
  3  4  1  0
  4  5  1  0
  5  6  2  0
  6  7  1  0
  7  8  2  0
  8  9  1  0
  9 10  2  0
 10 11  1  0
 11 12  2  0
 12 13  1  0
 13 14  2  0
 13 15  1  0
 12 16  1  0
 11 17  1  0
 10 18  1  0
  8 19  1  0
  6 20  1  0
  4 21  1  0
 21 22  2  0
 21 23  1  0
 23 24  1  1
 24 25  1  0
 25 26  1  0
 26 27  1  0
 27 28  1  0
 28 29  1  0
 29 30  1  0
 30 31  1  0
 31 32  1  0
 31 33  1  0
 30 34  1  0
 30 35  1  0
 29 36  1  0
 29 37  1  0
 28 38  1  0
 27 39  1  0
 27 40  1  0
 26 41  1  0
 26 42  1  0
 25 43  1  0
 43 44  2  0
 43 45  1  0
 45 46  2  0
 46 47  1  0
 47 48  2  0
 48 49  1  0
 48 50  1  0
 50 51  2  0
 50 52  1  0
 47 53  1  0
 46 54  1  0
 24 55  1  0
 24 56  1  0
  3 57  1  0
  3 58  1  0
  2 59  1  6
  1 60  1  0
  1 61  1  0
  1 62  1  0
 23  2  1  0
 31 28  1  0
 51 45  1  0
 14  5  1  0
 51 23  1  0
 14  9  1  0
M  CHG  1  28   1
M  END
>  <cnnaffinities>  (90) 
[6.30626]

>  <score>  (90) 
6.30626

>  <index>  (90) 
90

>  <Smiles>  (90) 
C([C@]1(C(N(c2c(nc(c3c(c(c(c(c23)[H])[H])[H])[H])[H])[H])C(=O)[C@]21C(N(C(C([N+]1(C(C(C1([H])[H])([H])[H])([H])[H])[H])([H])[H])([H])[H])C(=O)c1c(c(c(Cl)c(c21)[H])[H])[H])([H])[H])([H])[H])[H])([H])([H])[H]

>  <h>  (90) 
<NA>

>  <Training>  (90) 
True

>  <Success>  (90) 
True

>  <enamine_searched>  (90) 
False

>  <enamine_id>  (90) 
nan

$$$$

     RDKit          3D

 56 61  0  0  0  0  0  0  0  0999 V2000
   10.0518    0.0499   21.4706 C   0  0  0  0  0  0  0  0  0  0  0  0
    8.7745   -0.1861   22.2690 C   0  0  1  0  0  0  0  0  0  0  0  0
    7.6145    0.6537   21.7108 C   0  0  0  0  0  0  0  0  0  0  0  0
    6.9330   -0.2582   20.8069 N   0  0  0  0  0  0  0  0  0  0  0  0
    6.0943    0.1456   19.7316 C   0  0  0  0  0  0  0  0  0  0  0  0
    6.3733   -0.2181   18.4348 C   0  0  0  0  0  0  0  0  0  0  0  0
    5.6981    0.2469   17.3530 N   0  0  0  0  0  0  0  0  0  0  0  0
    4.7002    1.0704   17.5517 C   0  0  0  0  0  0  0  0  0  0  0  0
    4.2630    1.4838   18.8408 C   0  0  0  0  0  0  0  0  0  0  0  0
    3.1520    2.3509   19.0164 C   0  0  0  0  0  0  0  0  0  0  0  0
    2.7333    2.6926   20.2726 C   0  0  0  0  0  0  0  0  0  0  0  0
    3.4108    2.1885   21.4044 C   0  0  0  0  0  0  0  0  0  0  0  0
    4.4926    1.3581   21.2591 C   0  0  0  0  0  0  0  0  0  0  0  0
    4.9631    0.9981   19.9682 C   0  0  0  0  0  0  0  0  0  0  0  0
    4.9875    0.9603   22.1394 H   0  0  0  0  0  0  0  0  0  0  0  0
    3.0739    2.4564   22.3998 H   0  0  0  0  0  0  0  0  0  0  0  0
    1.8800    3.3497   20.4106 H   0  0  0  0  0  0  0  0  0  0  0  0
    2.6443    2.7301   18.1338 H   0  0  0  0  0  0  0  0  0  0  0  0
    4.1709    1.4396   16.6709 H   0  0  0  0  0  0  0  0  0  0  0  0
    7.1929   -0.8975   18.2098 H   0  0  0  0  0  0  0  0  0  0  0  0
    7.1159   -1.5790   21.1727 C   0  0  0  0  0  0  0  0  0  0  0  0
    6.4683   -2.5075   20.7394 O   0  0  0  0  0  0  0  0  0  0  0  0
    8.2297   -1.6572   22.2345 C   0  0  1  0  0  0  0  0  0  0  0  0
    9.2865   -2.7207   21.8493 C   0  0  0  0  0  0  0  0  0  0  0  0
   10.3203   -2.7813   22.8755 N   0  0  0  0  0  0  0  0  0  0  0  0
   11.7346   -2.6787   22.5282 C   0  0  0  0  0  0  0  0  0  0  0  0
   12.5759   -1.9271   23.5362 C   0  0  0  0  0  0  0  0  0  0  0  0
   13.6965   -2.4494   24.2165 C   0  0  0  0  0  0  0  0  0  0  0  0
   14.1644   -1.6061   25.1283 N   0  0  0  0  0  0  0  0  0  0  0  0
   13.3919   -0.5212   25.0032 N   0  0  0  0  0  0  0  0  0  0  0  0
   12.4315   -0.6611   24.0567 C   0  0  0  0  0  0  0  0  0  0  0  0
   11.7371    0.1526   23.8700 H   0  0  0  0  0  0  0  0  0  0  0  0
   13.4656    0.2127   25.6893 H   0  0  0  0  0  0  0  0  0  0  0  0
   14.1024   -3.4563   24.1368 H   0  0  0  0  0  0  0  0  0  0  0  0
   12.1660   -3.6730   22.3930 H   0  0  0  0  0  0  0  0  0  0  0  0
   11.7780   -2.1820   21.5535 H   0  0  0  0  0  0  0  0  0  0  0  0
    9.9727   -3.0314   24.1757 C   0  0  0  0  0  0  0  0  0  0  0  0
   10.7403   -3.4884   25.0154 O   0  0  0  0  0  0  0  0  0  0  0  0
    8.5520   -2.7441   24.5088 C   0  0  0  0  0  0  0  0  0  0  0  0
    8.1170   -3.1178   25.7807 C   0  0  0  0  0  0  0  0  0  0  0  0
    6.8145   -2.8684   26.1718 C   0  0  0  0  0  0  0  0  0  0  0  0
    5.9737   -2.2476   25.2529 C   0  0  0  0  0  0  0  0  0  0  0  0
    4.6985   -2.0199   25.6091 F   0  0  0  0  0  0  0  0  0  0  0  0
    6.3827   -1.8619   23.9881 C   0  0  0  0  0  0  0  0  0  0  0  0
    7.6995   -2.1060   23.5955 C   0  0  0  0  0  0  0  0  0  0  0  0
    5.6769   -1.4042   23.3000 H   0  0  0  0  0  0  0  0  0  0  0  0
    6.4383   -3.1412   27.1548 H   0  0  0  0  0  0  0  0  0  0  0  0
    8.8211   -3.6168   26.4452 H   0  0  0  0  0  0  0  0  0  0  0  0
    8.7654   -3.6852   21.7673 H   0  0  0  0  0  0  0  0  0  0  0  0
    9.7292   -2.5016   20.8760 H   0  0  0  0  0  0  0  0  0  0  0  0
    7.9570    1.5419   21.1717 H   0  0  0  0  0  0  0  0  0  0  0  0
    6.9722    0.9736   22.5419 H   0  0  0  0  0  0  0  0  0  0  0  0
    8.9827    0.0822   23.3095 H   0  0  0  0  0  0  0  0  0  0  0  0
    9.9701   -0.3339   20.4497 H   0  0  0  0  0  0  0  0  0  0  0  0
   10.2713    1.1203   21.4387 H   0  0  0  0  0  0  0  0  0  0  0  0
   10.9041   -0.4398   21.9366 H   0  0  0  0  0  0  0  0  0  0  0  0
  1  2  1  0
  2  3  1  0
  3  4  1  0
  4  5  1  0
  5  6  2  0
  6  7  1  0
  7  8  2  0
  8  9  1  0
  9 10  2  0
 10 11  1  0
 11 12  2  0
 12 13  1  0
 13 14  2  0
 13 15  1  0
 12 16  1  0
 11 17  1  0
 10 18  1  0
  8 19  1  0
  6 20  1  0
  4 21  1  0
 21 22  2  0
 21 23  1  0
 23 24  1  6
 24 25  1  0
 25 26  1  0
 26 27  1  0
 27 28  1  0
 28 29  2  0
 29 30  1  0
 30 31  1  0
 31 32  1  0
 30 33  1  0
 28 34  1  0
 26 35  1  0
 26 36  1  0
 25 37  1  0
 37 38  2  0
 37 39  1  0
 39 40  2  0
 40 41  1  0
 41 42  2  0
 42 43  1  0
 42 44  1  0
 44 45  2  0
 44 46  1  0
 41 47  1  0
 40 48  1  0
 24 49  1  0
 24 50  1  0
  3 51  1  0
  3 52  1  0
  2 53  1  1
  1 54  1  0
  1 55  1  0
  1 56  1  0
 23  2  1  0
 31 27  2  0
 45 39  1  0
 14  5  1  0
 45 23  1  0
 14  9  1  0
M  END
>  <cnnaffinities>  (91) 
[6.73492]

>  <score>  (91) 
6.73492

>  <index>  (91) 
91

>  <Smiles>  (91) 
C([C@]1(C(N(c2c(nc(c3c(c(c(c(c23)[H])[H])[H])[H])[H])[H])C(=O)[C@]21C(N(C(c1c(nn(c1[H])[H])[H])([H])[H])C(=O)c1c(c(c(F)c(c21)[H])[H])[H])([H])[H])([H])[H])[H])([H])([H])[H]

>  <h>  (91) 
<NA>

>  <Training>  (91) 
True

>  <Success>  (91) 
True

>  <enamine_searched>  (91) 
False

>  <enamine_id>  (91) 
nan

$$$$

     RDKit          3D

 47 50  0  0  0  0  0  0  0  0999 V2000
    5.5677   -2.4603   20.9434 O   0  0  0  0  0  0  0  0  0  0  0  0
    6.1403   -1.6121   21.5946 C   0  0  0  0  0  0  0  0  0  0  0  0
    6.9158   -0.4797   20.9101 C   0  0  0  0  0  0  0  0  0  0  0  0
    6.1183    0.0953   19.7654 C   0  0  0  0  0  0  0  0  0  0  0  0
    6.4229   -0.2129   18.4645 C   0  0  0  0  0  0  0  0  0  0  0  0
    5.7554    0.2439   17.3724 N   0  0  0  0  0  0  0  0  0  0  0  0
    4.7320    1.0328   17.5795 C   0  0  0  0  0  0  0  0  0  0  0  0
    4.2856    1.4232   18.8696 C   0  0  0  0  0  0  0  0  0  0  0  0
    3.1652    2.2732   19.0450 C   0  0  0  0  0  0  0  0  0  0  0  0
    2.7497    2.6281   20.3004 C   0  0  0  0  0  0  0  0  0  0  0  0
    3.4458    2.1429   21.4318 C   0  0  0  0  0  0  0  0  0  0  0  0
    4.5357    1.3190   21.2877 C   0  0  0  0  0  0  0  0  0  0  0  0
    4.9916    0.9394   19.9974 C   0  0  0  0  0  0  0  0  0  0  0  0
    5.0514    0.9526   22.1710 H   0  0  0  0  0  0  0  0  0  0  0  0
    3.1097    2.4274   22.4226 H   0  0  0  0  0  0  0  0  0  0  0  0
    1.8933    3.2831   20.4363 H   0  0  0  0  0  0  0  0  0  0  0  0
    2.6483    2.6428   18.1633 H   0  0  0  0  0  0  0  0  0  0  0  0
    4.2011    1.3975   16.6984 H   0  0  0  0  0  0  0  0  0  0  0  0
    7.2642   -0.8656   18.2387 H   0  0  0  0  0  0  0  0  0  0  0  0
    7.2032    0.2977   21.6254 H   0  0  0  0  0  0  0  0  0  0  0  0
    7.8432   -0.9214   20.5306 H   0  0  0  0  0  0  0  0  0  0  0  0
    6.0653   -1.6454   22.9937 N   0  0  0  0  0  0  0  0  0  0  0  0
    4.9000   -2.2928   23.4856 C   0  0  0  0  0  0  0  0  0  0  0  0
    4.8676   -3.4761   24.0995 C   0  0  0  0  0  0  0  0  0  0  0  0
    6.0434   -4.2444   24.5091 C   0  0  0  0  0  0  0  0  0  0  0  0
    6.9986   -3.7790   25.3318 C   0  0  0  0  0  0  0  0  0  0  0  0
    6.9518   -2.4596   25.9804 C   0  0  0  0  0  0  0  0  0  0  0  0
    6.8204   -1.2785   25.3672 C   0  0  0  0  0  0  0  0  0  0  0  0
    7.0374   -0.9798   23.8918 C   0  0  1  0  0  0  0  0  0  0  0  0
    8.4908   -1.2650   23.5066 C   0  0  0  0  0  0  0  0  0  0  0  0
    8.9004   -2.4793   22.9681 C   0  0  0  0  0  0  0  0  0  0  0  0
   10.2444   -2.6710   22.6606 C   0  0  0  0  0  0  0  0  0  0  0  0
   11.2082   -1.7064   22.9162 C   0  0  0  0  0  0  0  0  0  0  0  0
   10.8093   -0.5024   23.4760 C   0  0  0  0  0  0  0  0  0  0  0  0
    9.4631   -0.2963   23.7656 C   0  0  0  0  0  0  0  0  0  0  0  0
    9.1642    0.6465   24.2054 H   0  0  0  0  0  0  0  0  0  0  0  0
   11.5476    0.2700   23.6613 H   0  0  0  0  0  0  0  0  0  0  0  0
   12.2482   -1.9054   22.6596 H   0  0  0  0  0  0  0  0  0  0  0  0
   10.5635   -3.5545   22.1390 H   0  0  0  0  0  0  0  0  0  0  0  0
    8.1737   -3.2691   22.7860 H   0  0  0  0  0  0  0  0  0  0  0  0
    6.8874    0.1023   23.7799 H   0  0  0  0  0  0  0  0  0  0  0  0
    6.7325   -0.3951   25.9960 H   0  0  0  0  0  0  0  0  0  0  0  0
    6.9934   -2.5004   27.0730 H   0  0  0  0  0  0  0  0  0  0  0  0
    7.8314   -4.4249   25.6055 H   0  0  0  0  0  0  0  0  0  0  0  0
    6.0934   -5.2682   24.1429 H   0  0  0  0  0  0  0  0  0  0  0  0
    3.8937   -3.9106   24.3309 H   0  0  0  0  0  0  0  0  0  0  0  0
    3.9719   -1.7645   23.2677 H   0  0  0  0  0  0  0  0  0  0  0  0
  1  2  2  0
  2  3  1  0
  3  4  1  0
  4  5  2  0
  5  6  1  0
  6  7  2  0
  7  8  1  0
  8  9  2  0
  9 10  1  0
 10 11  2  0
 11 12  1  0
 12 13  2  0
 12 14  1  0
 11 15  1  0
 10 16  1  0
  9 17  1  0
  7 18  1  0
  5 19  1  0
  3 20  1  0
  3 21  1  0
  2 22  1  0
 22 23  1  0
 23 24  2  3
 24 25  1  0
 25 26  2  3
 26 27  1  0
 27 28  2  3
 28 29  1  0
 29 30  1  0
 30 31  2  0
 31 32  1  0
 32 33  2  0
 33 34  1  0
 34 35  2  0
 35 36  1  0
 34 37  1  0
 33 38  1  0
 32 39  1  0
 31 40  1  0
 29 41  1  1
 28 42  1  0
 27 43  1  0
 26 44  1  0
 25 45  1  0
 24 46  1  0
 23 47  1  0
 13  4  1  0
 29 22  1  0
 35 30  1  0
 13  8  1  0
M  END
>  <cnnaffinities>  (92) 
[6.01514, 6.01507, 5.56121, 5.56105]

>  <score>  (92) 
6.01514

>  <index>  (92) 
92

>  <Smiles>  (92) 
O=C(C(c1c(nc(c2c(c(c(c(c12)[H])[H])[H])[H])[H])[H])([H])[H])N1C(=C(C(=C(C(=C([C@]1(c1c(c(c(c(c1[H])[H])[H])[H])[H])[H])[H])[H])[H])[H])[H])[H]

>  <h>  (92) 
<NA>

>  <Training>  (92) 
True

>  <Success>  (92) 
True

>  <enamine_searched>  (92) 
False

>  <enamine_id>  (92) 
nan

$$$$

     RDKit          3D

 58 62  0  0  0  0  0  0  0  0999 V2000
    6.5481    4.4966   21.3926 C   0  0  0  0  0  0  0  0  0  0  0  0
    6.9104    3.5067   22.4088 N   0  0  0  0  0  4  0  0  0  0  0  0
    7.9139    3.9538   23.3987 C   0  0  0  0  0  0  0  0  0  0  0  0
    8.0836    2.9240   24.5140 C   0  0  0  0  0  0  0  0  0  0  0  0
    8.6932    1.7012   24.0074 N   0  0  0  0  0  0  0  0  0  0  0  0
    7.9560    0.4551   23.8673 C   0  0  0  0  0  0  0  0  0  0  0  0
    8.3706   -0.3439   22.6044 C   0  0  2  0  0  0  0  0  0  0  0  0
    7.8056    0.3668   21.3664 C   0  0  0  0  0  0  0  0  0  0  0  0
    8.0423    1.5135   21.0004 O   0  0  0  0  0  0  0  0  0  0  0  0
    6.8843   -0.4427   20.7698 N   0  0  0  0  0  0  0  0  0  0  0  0
    6.0989    0.0935   19.7217 C   0  0  0  0  0  0  0  0  0  0  0  0
    6.4432   -0.1883   18.4301 C   0  0  0  0  0  0  0  0  0  0  0  0
    5.7609    0.2641   17.3544 N   0  0  0  0  0  0  0  0  0  0  0  0
    4.7330    1.0407   17.5899 C   0  0  0  0  0  0  0  0  0  0  0  0
    4.3132    1.4499   18.8861 C   0  0  0  0  0  0  0  0  0  0  0  0
    3.2124    2.3244   19.0694 C   0  0  0  0  0  0  0  0  0  0  0  0
    2.8272    2.7025   20.3257 C   0  0  0  0  0  0  0  0  0  0  0  0
    3.5264    2.2345   21.4571 C   0  0  0  0  0  0  0  0  0  0  0  0
    4.6027    1.3916   21.3092 C   0  0  0  0  0  0  0  0  0  0  0  0
    5.0183    0.9698   20.0098 C   0  0  0  0  0  0  0  0  0  0  0  0
    5.1213    1.0313   22.1949 H   0  0  0  0  0  0  0  0  0  0  0  0
    3.2007    2.5399   22.4483 H   0  0  0  0  0  0  0  0  0  0  0  0
    1.9757    3.3614   20.4570 H   0  0  0  0  0  0  0  0  0  0  0  0
    2.6900    2.6721   18.1843 H   0  0  0  0  0  0  0  0  0  0  0  0
    4.1716    1.3944   16.7243 H   0  0  0  0  0  0  0  0  0  0  0  0
    7.3198   -0.8056   18.2430 H   0  0  0  0  0  0  0  0  0  0  0  0
    6.4424   -1.5224   21.6348 C   0  0  0  0  0  0  0  0  0  0  0  0
    7.6699   -1.7283   22.5203 C   0  0  2  0  0  0  0  0  0  0  0  0
    7.4041   -2.4140   23.8454 C   0  0  0  0  0  0  0  0  0  0  0  0
    6.9725   -3.4040   23.6811 H   0  0  0  0  0  0  0  0  0  0  0  0
    8.3370   -2.5295   24.4071 H   0  0  0  0  0  0  0  0  0  0  0  0
    6.7036   -1.8396   24.4593 H   0  0  0  0  0  0  0  0  0  0  0  0
    8.3145   -2.3841   21.9380 H   0  0  0  0  0  0  0  0  0  0  0  0
    6.1994   -2.4129   21.0516 H   0  0  0  0  0  0  0  0  0  0  0  0
    5.5522   -1.2535   22.2221 H   0  0  0  0  0  0  0  0  0  0  0  0
    9.8788   -0.4094   22.5385 C   0  0  0  0  0  0  0  0  0  0  0  0
   10.5319   -1.3791   21.7765 C   0  0  0  0  0  0  0  0  0  0  0  0
   11.8890   -1.3159   21.5839 C   0  0  0  0  0  0  0  0  0  0  0  0
   12.4058   -2.2168   20.7287 F   0  0  0  0  0  0  0  0  0  0  0  0
   12.6816   -0.3422   22.1911 C   0  0  0  0  0  0  0  0  0  0  0  0
   12.0438    0.5884   22.9840 C   0  0  0  0  0  0  0  0  0  0  0  0
   10.6583    0.5955   23.1163 C   0  0  0  0  0  0  0  0  0  0  0  0
   10.0411    1.7692   23.7969 C   0  0  0  0  0  0  0  0  0  0  0  0
   10.7115    2.7401   24.1294 O   0  0  0  0  0  0  0  0  0  0  0  0
   12.6246    1.3500   23.4867 H   0  0  0  0  0  0  0  0  0  0  0  0
   13.7500   -0.2823   22.0211 H   0  0  0  0  0  0  0  0  0  0  0  0
   10.0081   -2.1839   21.2787 H   0  0  0  0  0  0  0  0  0  0  0  0
    8.1429   -0.1682   24.7477 H   0  0  0  0  0  0  0  0  0  0  0  0
    6.8796    0.6645   23.8246 H   0  0  0  0  0  0  0  0  0  0  0  0
    7.1247    2.6910   24.9878 H   0  0  0  0  0  0  0  0  0  0  0  0
    8.7459    3.3182   25.2882 H   0  0  0  0  0  0  0  0  0  0  0  0
    8.8800    4.0767   22.9041 H   0  0  0  0  0  0  0  0  0  0  0  0
    7.6377    4.9247   23.8230 H   0  0  0  0  0  0  0  0  0  0  0  0
    6.0409    3.2503   22.9020 H   0  0  0  0  0  0  0  0  0  0  0  0
    7.2648    2.6606   21.9246 H   0  0  0  0  0  0  0  0  0  0  0  0
    5.6585    4.1578   20.8560 H   0  0  0  0  0  0  0  0  0  0  0  0
    7.3616    4.6347   20.6802 H   0  0  0  0  0  0  0  0  0  0  0  0
    6.3368    5.4667   21.8495 H   0  0  0  0  0  0  0  0  0  0  0  0
  1  2  1  0
  2  3  1  0
  3  4  1  0
  4  5  1  0
  5  6  1  0
  7  6  1  1
  7  8  1  0
  8  9  2  0
  8 10  1  0
 10 11  1  0
 11 12  2  0
 12 13  1  0
 13 14  2  0
 14 15  1  0
 15 16  2  0
 16 17  1  0
 17 18  2  0
 18 19  1  0
 19 20  2  0
 19 21  1  0
 18 22  1  0
 17 23  1  0
 16 24  1  0
 14 25  1  0
 12 26  1  0
 10 27  1  0
 27 28  1  0
 28 29  1  0
 29 30  1  0
 29 31  1  0
 29 32  1  0
 28 33  1  6
 27 34  1  0
 27 35  1  0
  7 36  1  0
 36 37  2  0
 37 38  1  0
 38 39  1  0
 38 40  2  0
 40 41  1  0
 41 42  2  0
 42 43  1  0
 43 44  2  0
 41 45  1  0
 40 46  1  0
 37 47  1  0
  6 48  1  0
  6 49  1  0
  4 50  1  0
  4 51  1  0
  3 52  1  0
  3 53  1  0
  2 54  1  0
  2 55  1  0
  1 56  1  0
  1 57  1  0
  1 58  1  0
 43  5  1  0
 28  7  1  0
 42 36  1  0
 20 11  1  0
 20 15  1  0
M  CHG  1   2   1
M  END
>  <cnnaffinities>  (93) 
[6.09442]

>  <score>  (93) 
6.09442

>  <index>  (93) 
93

>  <Smiles>  (93) 
C([N+](C(C(N1C([C@@]2(C(=O)N(c3c(nc(c4c(c(c(c(c34)[H])[H])[H])[H])[H])[H])C([C@@]2(C([H])([H])[H])[H])([H])[H])c2c(c(F)c(c(c2C1=O)[H])[H])[H])([H])[H])([H])[H])([H])[H])([H])[H])([H])([H])[H]

>  <h>  (93) 
<NA>

>  <Training>  (93) 
True

>  <Success>  (93) 
True

>  <enamine_searched>  (93) 
False

>  <enamine_id>  (93) 
nan

$$$$

     RDKit          3D

 65 69  0  0  0  0  0  0  0  0999 V2000
    3.8763   -3.8529   28.0528 C   0  0  0  0  0  0  0  0  0  0  0  0
    4.5485   -4.2177   26.7231 C   0  0  0  0  0  0  0  0  0  0  0  0
    4.7592   -2.9506   25.9322 C   0  0  0  0  0  0  0  0  0  0  0  0
    4.0613   -2.5662   25.0352 O   0  0  0  0  0  0  0  0  0  0  0  0
    5.9559   -2.1137   26.3847 N   0  0  2  0  0  4  0  0  0  0  0  0
    5.5418   -0.7509   26.9920 C   0  0  0  0  0  0  0  0  0  0  0  0
    5.2164    0.2300   25.8837 C   0  0  0  0  0  0  0  0  0  0  0  0
    6.4957    0.5171   25.1044 C   0  0  0  0  0  0  0  0  0  0  0  0
    7.2073   -0.7422   24.6480 C   0  0  0  0  0  0  0  0  0  0  0  0
    8.0845   -0.7190   23.5511 C   0  0  0  0  0  0  0  0  0  0  0  0
    8.2806    0.5115   22.8609 N   0  0  0  0  0  0  0  0  0  0  0  0
    9.1394    1.5053   23.5242 C   0  0  0  0  0  0  0  0  0  0  0  0
   10.6062    1.2752   23.2441 C   0  0  0  0  0  0  0  0  0  0  0  0
   11.2498    2.0299   22.2699 C   0  0  0  0  0  0  0  0  0  0  0  0
   12.5746    1.7718   21.9456 C   0  0  0  0  0  0  0  0  0  0  0  0
   13.2537    0.7140   22.5468 C   0  0  0  0  0  0  0  0  0  0  0  0
   12.6046   -0.0283   23.5257 C   0  0  0  0  0  0  0  0  0  0  0  0
   13.4149   -1.3714   24.2796 Cl  0  0  0  0  0  0  0  0  0  0  0  0
   11.2970    0.2543   23.8942 C   0  0  0  0  0  0  0  0  0  0  0  0
   10.7909   -0.3473   24.6450 H   0  0  0  0  0  0  0  0  0  0  0  0
   14.2588    0.4321   22.2478 H   0  0  0  0  0  0  0  0  0  0  0  0
   13.0726    2.3828   21.1987 H   0  0  0  0  0  0  0  0  0  0  0  0
   10.6859    2.7879   21.7302 H   0  0  0  0  0  0  0  0  0  0  0  0
    8.8342    2.5135   23.2142 H   0  0  0  0  0  0  0  0  0  0  0  0
    8.9661    1.4092   24.6032 H   0  0  0  0  0  0  0  0  0  0  0  0
    7.9732    0.6618   21.5203 C   0  0  0  0  0  0  0  0  0  0  0  0
    8.4195    1.5716   20.8524 O   0  0  0  0  0  0  0  0  0  0  0  0
    6.9973   -0.3780   20.9201 C   0  0  0  0  0  0  0  0  0  0  0  0
    6.1638    0.1431   19.7828 C   0  0  0  0  0  0  0  0  0  0  0  0
    6.4848   -0.1658   18.4875 C   0  0  0  0  0  0  0  0  0  0  0  0
    5.8071    0.2593   17.3909 N   0  0  0  0  0  0  0  0  0  0  0  0
    4.7693    1.0300   17.5896 C   0  0  0  0  0  0  0  0  0  0  0  0
    4.3169    1.4350   18.8741 C   0  0  0  0  0  0  0  0  0  0  0  0
    3.1967    2.2881   19.0409 C   0  0  0  0  0  0  0  0  0  0  0  0
    2.7848    2.6550   20.2929 C   0  0  0  0  0  0  0  0  0  0  0  0
    3.4721    2.1804   21.4333 C   0  0  0  0  0  0  0  0  0  0  0  0
    4.5616    1.3550   21.2967 C   0  0  0  0  0  0  0  0  0  0  0  0
    5.0232    0.9707   20.0086 C   0  0  0  0  0  0  0  0  0  0  0  0
    5.0753    0.9866   22.1806 H   0  0  0  0  0  0  0  0  0  0  0  0
    3.1297    2.4684   22.4238 H   0  0  0  0  0  0  0  0  0  0  0  0
    1.9321    3.3170   20.4195 H   0  0  0  0  0  0  0  0  0  0  0  0
    2.6856    2.6480   18.1514 H   0  0  0  0  0  0  0  0  0  0  0  0
    4.2269    1.3708   16.7064 H   0  0  0  0  0  0  0  0  0  0  0  0
    7.3406   -0.8052   18.2656 H   0  0  0  0  0  0  0  0  0  0  0  0
    7.6091   -1.2155   20.5556 H   0  0  0  0  0  0  0  0  0  0  0  0
    6.3683   -0.7890   21.7188 H   0  0  0  0  0  0  0  0  0  0  0  0
    8.7799   -1.8583   23.1609 C   0  0  0  0  0  0  0  0  0  0  0  0
    8.6181   -3.0388   23.8715 C   0  0  0  0  0  0  0  0  0  0  0  0
    7.7592   -3.0827   24.9580 C   0  0  0  0  0  0  0  0  0  0  0  0
    7.0236   -1.9531   25.3060 C   0  0  0  0  0  0  0  0  0  0  0  0
    7.6443   -3.9959   25.5301 H   0  0  0  0  0  0  0  0  0  0  0  0
    9.1341   -3.9316   23.5531 H   0  0  0  0  0  0  0  0  0  0  0  0
    9.4803   -1.8198   22.3279 H   0  0  0  0  0  0  0  0  0  0  0  0
    7.1678    1.0791   25.7676 H   0  0  0  0  0  0  0  0  0  0  0  0
    6.2892    1.1614   24.2438 H   0  0  0  0  0  0  0  0  0  0  0  0
    4.8358    1.1548   26.3266 H   0  0  0  0  0  0  0  0  0  0  0  0
    4.4459   -0.1892   25.2292 H   0  0  0  0  0  0  0  0  0  0  0  0
    4.7088   -0.8913   27.6868 H   0  0  0  0  0  0  0  0  0  0  0  0
    6.4050   -0.3930   27.5561 H   0  0  0  0  0  0  0  0  0  0  0  0
    6.3990   -2.6600   27.1476 H   0  0  0  0  0  0  0  0  0  0  0  0
    5.5258   -4.6895   26.8898 H   0  0  0  0  0  0  0  0  0  0  0  0
    3.9349   -4.8882   26.1206 H   0  0  0  0  0  0  0  0  0  0  0  0
    2.9595   -3.2824   27.8606 H   0  0  0  0  0  0  0  0  0  0  0  0
    4.5495   -3.2217   28.6483 H   0  0  0  0  0  0  0  0  0  0  0  0
    3.6310   -4.7430   28.6397 H   0  0  0  0  0  0  0  0  0  0  0  0
  1  2  1  0
  2  3  1  0
  3  4  2  0
  3  5  1  0
  5  6  1  0
  6  7  1  0
  7  8  1  0
  8  9  1  0
  9 10  2  0
 10 11  1  0
 11 12  1  0
 12 13  1  0
 13 14  2  0
 14 15  1  0
 15 16  2  0
 16 17  1  0
 17 18  1  0
 17 19  2  0
 19 20  1  0
 16 21  1  0
 15 22  1  0
 14 23  1  0
 12 24  1  0
 12 25  1  0
 11 26  1  0
 26 27  2  0
 26 28  1  0
 28 29  1  0
 29 30  2  0
 30 31  1  0
 31 32  2  0
 32 33  1  0
 33 34  2  0
 34 35  1  0
 35 36  2  0
 36 37  1  0
 37 38  2  0
 37 39  1  0
 36 40  1  0
 35 41  1  0
 34 42  1  0
 32 43  1  0
 30 44  1  0
 28 45  1  0
 28 46  1  0
 10 47  1  0
 47 48  2  0
 48 49  1  0
 49 50  2  0
 49 51  1  0
 48 52  1  0
 47 53  1  0
  8 54  1  0
  8 55  1  0
  7 56  1  0
  7 57  1  0
  6 58  1  0
  6 59  1  0
  5 60  1  1
  2 61  1  0
  2 62  1  0
  1 63  1  0
  1 64  1  0
  1 65  1  0
 50  5  1  0
 50  9  1  0
 19 13  1  0
 38 29  1  0
 38 33  1  0
M  CHG  1   5   1
M  END
>  <cnnaffinities>  (94) 
[6.72581, 6.64352]

>  <score>  (94) 
6.72581

>  <index>  (94) 
94

>  <Smiles>  (94) 
C(C(C(=O)[N@@+]1(C(C(C(c2c(N(C(c3c(c(c(c(Cl)c3[H])[H])[H])[H])([H])[H])C(=O)C(c3c(nc(c4c(c(c(c(c34)[H])[H])[H])[H])[H])[H])([H])[H])c(c(c(c12)[H])[H])[H])([H])[H])([H])[H])([H])[H])[H])([H])[H])([H])([H])[H]

>  <h>  (94) 
<NA>

>  <Training>  (94) 
True

>  <Success>  (94) 
True

>  <enamine_searched>  (94) 
False

>  <enamine_id>  (94) 
nan

$$$$

     RDKit          3D

 67 71  0  0  0  0  0  0  0  0999 V2000
    7.6811   -8.3447   22.8996 C   0  0  0  0  0  0  0  0  0  0  0  0
    6.7871   -7.2586   22.5697 N   0  0  0  0  0  0  0  0  0  0  0  0
    7.1017   -6.3843   21.5827 C   0  0  0  0  0  0  0  0  0  0  0  0
    8.0730   -6.5141   20.8573 O   0  0  0  0  0  0  0  0  0  0  0  0
    6.1625   -5.1782   21.4858 C   0  0  0  0  0  0  0  0  0  0  0  0
    6.5549   -4.1747   22.4596 N   0  0  0  0  0  0  0  0  0  0  0  0
    7.7352   -3.3368   22.2943 C   0  0  0  0  0  0  0  0  0  0  0  0
    7.4063   -1.8614   22.6533 C   0  0  2  0  0  0  0  0  0  0  0  0
    6.3202   -1.3845   21.6599 C   0  0  0  0  0  0  0  0  0  0  0  0
    5.1859   -1.8032   21.5654 O   0  0  0  0  0  0  0  0  0  0  0  0
    6.8624   -0.4183   20.8368 N   0  0  0  0  0  0  0  0  0  0  0  0
    6.1231    0.1184   19.7673 C   0  0  0  0  0  0  0  0  0  0  0  0
    6.4660   -0.1789   18.4743 C   0  0  0  0  0  0  0  0  0  0  0  0
    5.7946    0.2623   17.3875 N   0  0  0  0  0  0  0  0  0  0  0  0
    4.7536    1.0320   17.5911 C   0  0  0  0  0  0  0  0  0  0  0  0
    4.3024    1.4326   18.8804 C   0  0  0  0  0  0  0  0  0  0  0  0
    3.1806    2.2868   19.0408 C   0  0  0  0  0  0  0  0  0  0  0  0
    2.7787    2.6732   20.2916 C   0  0  0  0  0  0  0  0  0  0  0  0
    3.4791    2.2231   21.4340 C   0  0  0  0  0  0  0  0  0  0  0  0
    4.5652    1.3942   21.3049 C   0  0  0  0  0  0  0  0  0  0  0  0
    5.0005    0.9702   20.0149 C   0  0  0  0  0  0  0  0  0  0  0  0
    5.0951    1.0436   22.1860 H   0  0  0  0  0  0  0  0  0  0  0  0
    3.1495    2.5391   22.4209 H   0  0  0  0  0  0  0  0  0  0  0  0
    1.9259    3.3356   20.4113 H   0  0  0  0  0  0  0  0  0  0  0  0
    2.6652    2.6316   18.1484 H   0  0  0  0  0  0  0  0  0  0  0  0
    4.2156    1.3831   16.7108 H   0  0  0  0  0  0  0  0  0  0  0  0
    7.3130   -0.8351   18.2770 H   0  0  0  0  0  0  0  0  0  0  0  0
    8.3046   -0.3561   20.9221 C   0  0  0  0  0  0  0  0  0  0  0  0
    8.5686   -0.8612   22.3495 C   0  0  2  0  0  0  0  0  0  0  0  0
   10.0134   -1.3362   22.4863 C   0  0  0  0  0  0  0  0  0  0  0  0
   10.5296   -1.5180   24.1971 S   0  0  0  0  0  0  0  0  0  0  0  0
   10.3700   -0.2209   24.8409 O   0  0  0  0  0  0  0  0  0  0  0  0
    9.9348   -2.7265   24.7463 O   0  0  0  0  0  0  0  0  0  0  0  0
   12.1525   -1.8419   24.0934 N   0  0  0  0  0  0  0  0  0  0  0  0
   13.0375   -0.7789   23.6595 C   0  0  0  0  0  0  0  0  0  0  0  0
   14.0626   -1.1231   23.8103 H   0  0  0  0  0  0  0  0  0  0  0  0
   12.8764    0.0932   24.2919 H   0  0  0  0  0  0  0  0  0  0  0  0
   12.9205   -0.5082   22.5998 H   0  0  0  0  0  0  0  0  0  0  0  0
   12.4554   -3.1711   23.5988 C   0  0  0  0  0  0  0  0  0  0  0  0
   11.8674   -3.8618   24.1994 H   0  0  0  0  0  0  0  0  0  0  0  0
   12.2148   -3.3282   22.5368 H   0  0  0  0  0  0  0  0  0  0  0  0
   13.5180   -3.3613   23.7538 H   0  0  0  0  0  0  0  0  0  0  0  0
   10.1497   -2.2926   21.9697 H   0  0  0  0  0  0  0  0  0  0  0  0
   10.6953   -0.5986   22.0450 H   0  0  0  0  0  0  0  0  0  0  0  0
    8.4353   -0.0007   23.0039 H   0  0  0  0  0  0  0  0  0  0  0  0
    8.6506    0.6706   20.7658 H   0  0  0  0  0  0  0  0  0  0  0  0
    8.7903   -0.9964   20.1694 H   0  0  0  0  0  0  0  0  0  0  0  0
    6.8855   -1.8931   24.0859 C   0  0  0  0  0  0  0  0  0  0  0  0
    6.9355   -0.7869   24.9399 C   0  0  0  0  0  0  0  0  0  0  0  0
    6.4715   -0.9103   26.2376 C   0  0  0  0  0  0  0  0  0  0  0  0
    6.4762    0.1751   27.0288 F   0  0  0  0  0  0  0  0  0  0  0  0
    6.0104   -2.1102   26.7644 C   0  0  0  0  0  0  0  0  0  0  0  0
    5.9050   -3.1877   25.9110 C   0  0  0  0  0  0  0  0  0  0  0  0
    6.2671   -3.0598   24.5737 C   0  0  0  0  0  0  0  0  0  0  0  0
    5.9020   -4.1776   23.6510 C   0  0  0  0  0  0  0  0  0  0  0  0
    5.0588   -5.0255   23.9298 O   0  0  0  0  0  0  0  0  0  0  0  0
    5.5311   -4.1455   26.2527 H   0  0  0  0  0  0  0  0  0  0  0  0
    5.7294   -2.1721   27.8089 H   0  0  0  0  0  0  0  0  0  0  0  0
    7.3226    0.1725   24.6180 H   0  0  0  0  0  0  0  0  0  0  0  0
    8.5350   -3.6935   22.9552 H   0  0  0  0  0  0  0  0  0  0  0  0
    8.0924   -3.4142   21.2734 H   0  0  0  0  0  0  0  0  0  0  0  0
    6.1578   -4.7461   20.4836 H   0  0  0  0  0  0  0  0  0  0  0  0
    5.1349   -5.4628   21.7270 H   0  0  0  0  0  0  0  0  0  0  0  0
    6.0549   -7.0057   23.2204 H   0  0  0  0  0  0  0  0  0  0  0  0
    8.3983   -8.0591   23.6775 H   0  0  0  0  0  0  0  0  0  0  0  0
    8.2331   -8.6147   22.0104 H   0  0  0  0  0  0  0  0  0  0  0  0
    7.1074   -9.2147   23.2247 H   0  0  0  0  0  0  0  0  0  0  0  0
  1  2  1  0
  2  3  1  0
  3  4  2  0
  3  5  1  0
  5  6  1  0
  6  7  1  0
  8  7  1  6
  8  9  1  0
  9 10  2  0
  9 11  1  0
 11 12  1  0
 12 13  2  0
 13 14  1  0
 14 15  2  0
 15 16  1  0
 16 17  2  0
 17 18  1  0
 18 19  2  0
 19 20  1  0
 20 21  2  0
 20 22  1  0
 19 23  1  0
 18 24  1  0
 17 25  1  0
 15 26  1  0
 13 27  1  0
 11 28  1  0
 28 29  1  0
 29 30  1  0
 30 31  1  0
 31 32  2  0
 31 33  2  0
 31 34  1  0
 34 35  1  0
 35 36  1  0
 35 37  1  0
 35 38  1  0
 34 39  1  0
 39 40  1  0
 39 41  1  0
 39 42  1  0
 30 43  1  0
 30 44  1  0
 29 45  1  1
 28 46  1  0
 28 47  1  0
  8 48  1  0
 48 49  2  0
 49 50  1  0
 50 51  1  0
 50 52  2  0
 52 53  1  0
 53 54  2  0
 54 55  1  0
 55 56  2  0
 53 57  1  0
 52 58  1  0
 49 59  1  0
  7 60  1  0
  7 61  1  0
  5 62  1  0
  5 63  1  0
  2 64  1  0
  1 65  1  0
  1 66  1  0
  1 67  1  0
 55  6  1  0
 29  8  1  0
 54 48  1  0
 21 12  1  0
 21 16  1  0
M  END
>  <cnnaffinities>  (95) 
[7.01978]

>  <score>  (95) 
7.01978

>  <index>  (95) 
95

>  <Smiles>  (95) 
C(N(C(=O)C(N1C([C@@]2(C(=O)N(c3c(nc(c4c(c(c(c(c34)[H])[H])[H])[H])[H])[H])C([C@@]2(C(S(=O)(=O)N(C([H])([H])[H])C([H])([H])[H])([H])[H])[H])([H])[H])c2c(c(F)c(c(c2C1=O)[H])[H])[H])([H])[H])([H])[H])[H])([H])([H])[H]

>  <h>  (95) 
<NA>

>  <Training>  (95) 
True

>  <Success>  (95) 
True

>  <enamine_searched>  (95) 
False

>  <enamine_id>  (95) 
nan

$$$$

     RDKit          3D

 37 39  0  0  0  0  0  0  0  0999 V2000
    5.8604   -2.6596   20.8489 O   0  0  0  0  0  0  0  0  0  0  0  0
    6.1759   -1.7002   21.5303 C   0  0  0  0  0  0  0  0  0  0  0  0
    6.9016   -0.4908   20.9148 C   0  0  0  0  0  0  0  0  0  0  0  0
    6.1110    0.0956   19.7677 C   0  0  0  0  0  0  0  0  0  0  0  0
    6.4221   -0.2109   18.4676 C   0  0  0  0  0  0  0  0  0  0  0  0
    5.7559    0.2438   17.3745 N   0  0  0  0  0  0  0  0  0  0  0  0
    4.7330    1.0328   17.5791 C   0  0  0  0  0  0  0  0  0  0  0  0
    4.2839    1.4267   18.8666 C   0  0  0  0  0  0  0  0  0  0  0  0
    3.1630    2.2762   19.0425 C   0  0  0  0  0  0  0  0  0  0  0  0
    2.7491    2.6289   20.2978 C   0  0  0  0  0  0  0  0  0  0  0  0
    3.4419    2.1454   21.4297 C   0  0  0  0  0  0  0  0  0  0  0  0
    4.5319    1.3224   21.2862 C   0  0  0  0  0  0  0  0  0  0  0  0
    4.9869    0.9429   19.9970 C   0  0  0  0  0  0  0  0  0  0  0  0
    5.0450    0.9557   22.1700 H   0  0  0  0  0  0  0  0  0  0  0  0
    3.1050    2.4304   22.4216 H   0  0  0  0  0  0  0  0  0  0  0  0
    1.8920    3.2838   20.4334 H   0  0  0  0  0  0  0  0  0  0  0  0
    2.6445    2.6448   18.1606 H   0  0  0  0  0  0  0  0  0  0  0  0
    4.2001    1.3981   16.6984 H   0  0  0  0  0  0  0  0  0  0  0  0
    7.2649   -0.8652   18.2431 H   0  0  0  0  0  0  0  0  0  0  0  0
    7.8567   -0.8594   20.5176 H   0  0  0  0  0  0  0  0  0  0  0  0
    7.1495    0.2714   21.6666 H   0  0  0  0  0  0  0  0  0  0  0  0
    5.8683   -1.6492   22.8609 N   0  0  0  0  0  0  0  0  0  0  0  0
    5.2101   -2.7748   23.5130 C   0  0  0  0  0  0  0  0  0  0  0  0
    6.1037   -3.9840   23.6824 C   0  0  0  0  0  0  0  0  0  0  0  0
    5.9218   -5.1261   22.9061 C   0  0  0  0  0  0  0  0  0  0  0  0
    6.7931   -6.2025   23.0243 C   0  0  0  0  0  0  0  0  0  0  0  0
    7.8464   -6.1612   23.9291 C   0  0  0  0  0  0  0  0  0  0  0  0
    8.0152   -5.0196   24.7022 C   0  0  0  0  0  0  0  0  0  0  0  0
    9.3330   -4.9500   25.8355 Cl  0  0  0  0  0  0  0  0  0  0  0  0
    7.1604   -3.9327   24.5880 C   0  0  0  0  0  0  0  0  0  0  0  0
    7.3280   -3.0500   25.2002 H   0  0  0  0  0  0  0  0  0  0  0  0
    8.5283   -6.9991   24.0411 H   0  0  0  0  0  0  0  0  0  0  0  0
    6.6450   -7.0882   22.4152 H   0  0  0  0  0  0  0  0  0  0  0  0
    5.1128   -5.1526   22.1805 H   0  0  0  0  0  0  0  0  0  0  0  0
    4.8680   -2.4260   24.4900 H   0  0  0  0  0  0  0  0  0  0  0  0
    4.3188   -3.0414   22.9421 H   0  0  0  0  0  0  0  0  0  0  0  0
    6.1668   -0.8693   23.4201 H   0  0  0  0  0  0  0  0  0  0  0  0
  1  2  2  0
  2  3  1  0
  3  4  1  0
  4  5  2  0
  5  6  1  0
  6  7  2  0
  7  8  1  0
  8  9  2  0
  9 10  1  0
 10 11  2  0
 11 12  1  0
 12 13  2  0
 12 14  1  0
 11 15  1  0
 10 16  1  0
  9 17  1  0
  7 18  1  0
  5 19  1  0
  3 20  1  0
  3 21  1  0
  2 22  1  0
 22 23  1  0
 23 24  1  0
 24 25  2  0
 25 26  1  0
 26 27  2  0
 27 28  1  0
 28 29  1  0
 28 30  2  0
 30 31  1  0
 27 32  1  0
 26 33  1  0
 25 34  1  0
 23 35  1  0
 23 36  1  0
 22 37  1  0
 13  4  1  0
 30 24  1  0
 13  8  1  0
M  END
>  <cnnaffinities>  (96) 
[5.03034, 4.78045, 4.54435, 4.92725, 5.37248]

>  <score>  (96) 
5.03034

>  <index>  (96) 
96

>  <Smiles>  (96) 
O=C(C(c1c(nc(c2c(c(c(c(c12)[H])[H])[H])[H])[H])[H])([H])[H])N(C(c1c(c(c(c(Cl)c1[H])[H])[H])[H])([H])[H])[H]

>  <h>  (96) 
<NA>

>  <Training>  (96) 
True

>  <Success>  (96) 
True

>  <enamine_searched>  (96) 
False

>  <enamine_id>  (96) 
nan

$$$$
