
     RDKit          3D

 63 69  0  0  0  0  0  0  0  0999 V2000
    4.8684   -4.6438   24.5715 O   0  0  0  0  0  0  0  0  0  0  0  0
    5.7359   -3.9015   24.1359 C   0  0  0  0  0  0  0  0  0  0  0  0
    6.2168   -2.6980   24.8767 C   0  0  0  0  0  0  0  0  0  0  0  0
    5.9255   -2.6046   26.2363 C   0  0  0  0  0  0  0  0  0  0  0  0
    6.1148   -1.4144   26.9142 C   0  0  0  0  0  0  0  0  0  0  0  0
    6.5719   -0.3135   26.1899 C   0  0  0  0  0  0  0  0  0  0  0  0
    6.6553    1.2388   26.9779 Cl  0  0  0  0  0  0  0  0  0  0  0  0
    6.9707   -0.4221   24.8687 C   0  0  0  0  0  0  0  0  0  0  0  0
    6.8447   -1.6486   24.1975 C   0  0  0  0  0  0  0  0  0  0  0  0
    7.3096   -1.8360   22.7640 C   0  0  1  0  0  0  0  0  0  0  0  0
    7.4894   -3.3613   22.5085 C   0  0  0  0  0  0  0  0  0  0  0  0
    6.2898   -4.0785   22.8985 N   0  0  0  0  0  0  0  0  0  0  0  0
    5.7130   -5.1151   22.0666 C   0  0  0  0  0  0  0  0  0  0  0  0
    6.2431   -6.4712   22.4091 C   0  0  0  0  0  0  0  0  0  0  0  0
    7.1511   -7.1388   21.7894 N   0  0  0  0  0  0  0  0  0  0  0  0
    7.3997   -8.2687   22.5659 N   0  0  0  0  0  0  0  0  0  0  0  0
    6.5995   -8.1927   23.5684 C   0  0  0  0  0  0  0  0  0  0  0  0
    5.8351   -7.0776   23.5498 O   0  0  0  0  0  0  0  0  0  0  0  0
    6.4786   -8.9050   24.3751 H   0  0  0  0  0  0  0  0  0  0  0  0
    5.9311   -4.9100   21.0150 H   0  0  0  0  0  0  0  0  0  0  0  0
    4.6302   -5.0960   22.2150 H   0  0  0  0  0  0  0  0  0  0  0  0
    7.6462   -3.5255   21.4425 H   0  0  0  0  0  0  0  0  0  0  0  0
    8.3632   -3.7552   23.0490 H   0  0  0  0  0  0  0  0  0  0  0  0
    6.2567   -1.3408   21.7450 C   0  0  0  0  0  0  0  0  0  0  0  0
    5.1079   -1.7285   21.6483 O   0  0  0  0  0  0  0  0  0  0  0  0
    6.8536   -0.4416   20.8822 N   0  0  0  0  0  0  0  0  0  0  0  0
    6.1551    0.1022   19.7832 C   0  0  0  0  0  0  0  0  0  0  0  0
    6.5429   -0.1792   18.4976 C   0  0  0  0  0  0  0  0  0  0  0  0
    5.8919    0.2467   17.3870 N   0  0  0  0  0  0  0  0  0  0  0  0
    4.8351    1.0044   17.5644 C   0  0  0  0  0  0  0  0  0  0  0  0
    4.3489    1.4101   18.8404 C   0  0  0  0  0  0  0  0  0  0  0  0
    3.2217    2.2633   18.9816 C   0  0  0  0  0  0  0  0  0  0  0  0
    2.8035    2.6588   20.2224 C   0  0  0  0  0  0  0  0  0  0  0  0
    3.4928    2.2305   21.3788 C   0  0  0  0  0  0  0  0  0  0  0  0
    4.5857    1.4101   21.2695 C   0  0  0  0  0  0  0  0  0  0  0  0
    5.0302    0.9641   19.9926 C   0  0  0  0  0  0  0  0  0  0  0  0
    5.1159    1.0851   22.1594 H   0  0  0  0  0  0  0  0  0  0  0  0
    3.1550    2.5546   22.3587 H   0  0  0  0  0  0  0  0  0  0  0  0
    1.9466    3.3172   20.3292 H   0  0  0  0  0  0  0  0  0  0  0  0
    2.7127    2.6067   18.0848 H   0  0  0  0  0  0  0  0  0  0  0  0
    4.3102    1.3370   16.6687 H   0  0  0  0  0  0  0  0  0  0  0  0
    7.4125   -0.8113   18.3210 H   0  0  0  0  0  0  0  0  0  0  0  0
    8.3053   -0.4714   20.9738 C   0  0  0  0  0  0  0  0  0  0  0  0
    8.5556   -0.9841   22.3965 C   0  0  2  0  0  0  0  0  0  0  0  0
    9.9232   -1.6343   22.5437 C   0  0  0  0  0  0  0  0  0  0  0  0
   10.1346   -2.1251   23.8966 N   0  0  0  0  0  0  0  0  0  0  0  0
   11.3614   -2.5601   24.2577 C   0  0  0  0  0  0  0  0  0  0  0  0
   11.4304   -3.4032   25.3035 N   0  0  0  0  0  0  0  0  0  0  0  0
   12.6657   -3.7126   25.6546 C   0  0  0  0  0  0  0  0  0  0  0  0
   13.8039   -3.2803   25.0950 N   0  0  0  0  0  0  0  0  0  0  0  0
   13.5973   -2.5058   24.0302 C   0  0  0  0  0  0  0  0  0  0  0  0
   12.4243   -2.1122   23.5602 N   0  0  0  0  0  0  0  0  0  0  0  0
   14.4836   -2.1561   23.4948 H   0  0  0  0  0  0  0  0  0  0  0  0
   12.7808   -4.4396   26.4550 H   0  0  0  0  0  0  0  0  0  0  0  0
    9.3689   -2.5509   24.4039 H   0  0  0  0  0  0  0  0  0  0  0  0
   10.7162   -0.9041   22.3601 H   0  0  0  0  0  0  0  0  0  0  0  0
   10.0619   -2.4390   21.8031 H   0  0  0  0  0  0  0  0  0  0  0  0
    8.5542   -0.1158   23.0563 H   0  0  0  0  0  0  0  0  0  0  0  0
    8.7176    0.5300   20.8103 H   0  0  0  0  0  0  0  0  0  0  0  0
    8.7453   -1.1532   20.2299 H   0  0  0  0  0  0  0  0  0  0  0  0
    7.3719    0.4560   24.3746 H   0  0  0  0  0  0  0  0  0  0  0  0
    5.8927   -1.3204   27.9722 H   0  0  0  0  0  0  0  0  0  0  0  0
    5.5294   -3.4846   26.7282 H   0  0  0  0  0  0  0  0  0  0  0  0
  1  2  2  0
  2  3  1  0
  3  4  2  0
  4  5  1  0
  5  6  2  0
  6  7  1  0
  6  8  1  0
  8  9  2  0
  9 10  1  0
 10 11  1  6
 11 12  1  0
 12 13  1  0
 13 14  1  0
 14 15  2  0
 15 16  1  0
 16 17  2  0
 17 18  1  0
 17 19  1  0
 13 20  1  0
 13 21  1  0
 11 22  1  0
 11 23  1  0
 10 24  1  0
 24 25  2  0
 24 26  1  0
 26 27  1  0
 27 28  2  0
 28 29  1  0
 29 30  2  0
 30 31  1  0
 31 32  2  0
 32 33  1  0
 33 34  2  0
 34 35  1  0
 35 36  2  0
 35 37  1  0
 34 38  1  0
 33 39  1  0
 32 40  1  0
 30 41  1  0
 28 42  1  0
 26 43  1  0
 43 44  1  0
 44 45  1  0
 45 46  1  0
 46 47  1  0
 47 48  2  0
 48 49  1  0
 49 50  2  0
 50 51  1  0
 51 52  2  0
 51 53  1  0
 49 54  1  0
 46 55  1  0
 45 56  1  0
 45 57  1  0
 44 58  1  1
 43 59  1  0
 43 60  1  0
  8 61  1  0
  5 62  1  0
  4 63  1  0
 12  2  1  0
 18 14  1  0
 36 27  1  0
 52 47  1  0
  9  3  1  0
 44 10  1  0
 36 31  1  0
M  END
>  <cnnaffinities>  (1) 
[7.46225]

>  <score>  (1) 
7.46225

>  <index>  (1) 
0

>  <Smiles>  (1) 
O=C1c2c(c(c(Cl)c(c2[C@@]2(C(N1C(c1nnc(o1)[H])([H])[H])([H])[H])C(=O)N(c1c(nc(c3c(c(c(c(c13)[H])[H])[H])[H])[H])[H])C([C@@]2(C(N(c1nc(nc(n1)[H])[H])[H])([H])[H])[H])([H])[H])[H])[H])[H]

>  <h>  (1) 
<NA>

>  <Training>  (1) 
True

>  <Success>  (1) 
True

>  <enamine_searched>  (1) 
False

>  <enamine_id>  (1) 
nan

$$$$

     RDKit          3D

 51 54  0  0  0  0  0  0  0  0999 V2000
   12.7534   -0.3767   24.3368 C   0  0  0  0  0  0  0  0  0  0  0  0
   12.2748   -1.6637   23.9883 O   0  0  0  0  0  0  0  0  0  0  0  0
   10.9998   -1.8171   23.5008 C   0  0  0  0  0  0  0  0  0  0  0  0
   10.8170   -2.8208   22.5461 C   0  0  0  0  0  0  0  0  0  0  0  0
    9.5430   -3.1073   22.0755 C   0  0  0  0  0  0  0  0  0  0  0  0
    8.4361   -2.4013   22.5410 C   0  0  0  0  0  0  0  0  0  0  0  0
    7.1294   -2.7163   22.0494 N   0  0  0  0  0  0  0  0  0  0  0  0
    6.5461   -4.0104   22.4290 C   0  0  0  0  0  0  0  0  0  0  0  0
    5.9789   -4.0115   23.8395 C   0  0  0  0  0  0  0  0  0  0  0  0
    6.8194   -4.2074   24.9353 C   0  0  0  0  0  0  0  0  0  0  0  0
    6.3158   -4.1400   26.2286 C   0  0  0  0  0  0  0  0  0  0  0  0
    4.9661   -3.8903   26.4479 C   0  0  0  0  0  0  0  0  0  0  0  0
    4.1322   -3.7024   25.3530 C   0  0  0  0  0  0  0  0  0  0  0  0
    2.4408   -3.3710   25.6139 Cl  0  0  0  0  0  0  0  0  0  0  0  0
    4.6220   -3.7599   24.0540 C   0  0  0  0  0  0  0  0  0  0  0  0
    3.9496   -3.5919   23.2172 H   0  0  0  0  0  0  0  0  0  0  0  0
    4.5646   -3.8292   27.4550 H   0  0  0  0  0  0  0  0  0  0  0  0
    6.9830   -4.2832   27.0763 H   0  0  0  0  0  0  0  0  0  0  0  0
    7.8802   -4.4028   24.7739 H   0  0  0  0  0  0  0  0  0  0  0  0
    5.7637   -4.2408   21.7026 H   0  0  0  0  0  0  0  0  0  0  0  0
    7.3283   -4.7746   22.3421 H   0  0  0  0  0  0  0  0  0  0  0  0
    6.2865   -1.7863   21.4696 C   0  0  0  0  0  0  0  0  0  0  0  0
    5.0882   -1.9829   21.3706 O   0  0  0  0  0  0  0  0  0  0  0  0
    6.9280   -0.5142   20.8848 C   0  0  0  0  0  0  0  0  0  0  0  0
    6.1172    0.0807   19.7613 C   0  0  0  0  0  0  0  0  0  0  0  0
    6.4291   -0.2160   18.4620 C   0  0  0  0  0  0  0  0  0  0  0  0
    5.7641    0.2361   17.3627 N   0  0  0  0  0  0  0  0  0  0  0  0
    4.7403    1.0250   17.5776 C   0  0  0  0  0  0  0  0  0  0  0  0
    4.2912    1.4146   18.8660 C   0  0  0  0  0  0  0  0  0  0  0  0
    3.1711    2.2699   19.0407 C   0  0  0  0  0  0  0  0  0  0  0  0
    2.7554    2.6203   20.2964 C   0  0  0  0  0  0  0  0  0  0  0  0
    3.4413    2.1313   21.4290 C   0  0  0  0  0  0  0  0  0  0  0  0
    4.5265    1.3018   21.2873 C   0  0  0  0  0  0  0  0  0  0  0  0
    4.9896    0.9250   19.9972 C   0  0  0  0  0  0  0  0  0  0  0  0
    5.0274    0.9152   22.1695 H   0  0  0  0  0  0  0  0  0  0  0  0
    3.1003    2.4143   22.4223 H   0  0  0  0  0  0  0  0  0  0  0  0
    1.8974    3.2750   20.4288 H   0  0  0  0  0  0  0  0  0  0  0  0
    2.6599    2.6417   18.1565 H   0  0  0  0  0  0  0  0  0  0  0  0
    4.2030    1.3969   16.7012 H   0  0  0  0  0  0  0  0  0  0  0  0
    7.2755   -0.8677   18.2403 H   0  0  0  0  0  0  0  0  0  0  0  0
    7.0675    0.2126   21.6960 H   0  0  0  0  0  0  0  0  0  0  0  0
    7.9335   -0.7774   20.5396 H   0  0  0  0  0  0  0  0  0  0  0  0
    8.6203   -1.4161   23.5125 C   0  0  0  0  0  0  0  0  0  0  0  0
    9.8963   -1.1275   23.9869 C   0  0  0  0  0  0  0  0  0  0  0  0
   10.0415   -0.3691   24.7490 H   0  0  0  0  0  0  0  0  0  0  0  0
    7.7657   -0.8766   23.9129 H   0  0  0  0  0  0  0  0  0  0  0  0
    9.3760   -3.8658   21.3183 H   0  0  0  0  0  0  0  0  0  0  0  0
   11.7002   -3.3450   22.1949 H   0  0  0  0  0  0  0  0  0  0  0  0
   12.0633    0.1962   24.9725 H   0  0  0  0  0  0  0  0  0  0  0  0
   13.6911   -0.5266   24.8872 H   0  0  0  0  0  0  0  0  0  0  0  0
   12.9823    0.2026   23.4424 H   0  0  0  0  0  0  0  0  0  0  0  0
  1  2  1  0
  2  3  1  0
  3  4  2  0
  4  5  1  0
  5  6  2  0
  6  7  1  0
  7  8  1  0
  8  9  1  0
  9 10  2  0
 10 11  1  0
 11 12  2  0
 12 13  1  0
 13 14  1  0
 13 15  2  0
 15 16  1  0
 12 17  1  0
 11 18  1  0
 10 19  1  0
  8 20  1  0
  8 21  1  0
  7 22  1  0
 22 23  2  0
 22 24  1  0
 24 25  1  0
 25 26  2  0
 26 27  1  0
 27 28  2  0
 28 29  1  0
 29 30  2  0
 30 31  1  0
 31 32  2  0
 32 33  1  0
 33 34  2  0
 33 35  1  0
 32 36  1  0
 31 37  1  0
 30 38  1  0
 28 39  1  0
 26 40  1  0
 24 41  1  0
 24 42  1  0
  6 43  1  0
 43 44  2  0
 44 45  1  0
 43 46  1  0
  5 47  1  0
  4 48  1  0
  1 49  1  0
  1 50  1  0
  1 51  1  0
 44  3  1  0
 15  9  1  0
 34 25  1  0
 34 29  1  0
M  END
>  <cnnaffinities>  (2) 
[6.13046]

>  <score>  (2) 
6.13046

>  <index>  (2) 
1

>  <Smiles>  (2) 
C(Oc1c(c(c(N(C(c2c(c(c(c(Cl)c2[H])[H])[H])[H])([H])[H])C(=O)C(c2c(nc(c3c(c(c(c(c23)[H])[H])[H])[H])[H])[H])([H])[H])c(c1[H])[H])[H])[H])([H])([H])[H]

>  <h>  (2) 
<NA>

>  <Training>  (2) 
True

>  <Success>  (2) 
True

>  <enamine_searched>  (2) 
False

>  <enamine_id>  (2) 
nan

$$$$

     RDKit          3D

 56 60  0  0  0  0  0  0  0  0999 V2000
   13.7809   -0.0354   23.9409 C   0  0  0  0  0  0  0  0  0  0  0  0
   13.0821   -1.2663   23.6510 N   0  0  0  0  0  0  0  0  0  0  0  0
   12.2897   -1.3450   22.5603 C   0  0  0  0  0  0  0  0  0  0  0  0
   11.8410   -0.3501   22.0014 O   0  0  0  0  0  0  0  0  0  0  0  0
   11.8737   -2.7162   22.0672 C   0  0  0  0  0  0  0  0  0  0  0  0
   10.4747   -2.9164   22.4201 N   0  0  0  0  0  0  0  0  0  0  0  0
    9.4171   -2.4826   21.5152 C   0  0  0  0  0  0  0  0  0  0  0  0
    8.1981   -1.8282   22.1983 C   0  0  2  0  0  0  0  0  0  0  0  0
    7.0942   -1.7195   21.1165 C   0  0  0  0  0  0  0  0  0  0  0  0
    6.4658   -2.6297   20.6115 O   0  0  0  0  0  0  0  0  0  0  0  0
    6.8913   -0.3909   20.8109 N   0  0  0  0  0  0  0  0  0  0  0  0
    6.0994    0.0403   19.7200 C   0  0  0  0  0  0  0  0  0  0  0  0
    6.4082   -0.3049   18.4273 C   0  0  0  0  0  0  0  0  0  0  0  0
    5.7699    0.1898   17.3328 N   0  0  0  0  0  0  0  0  0  0  0  0
    4.7827    1.0301   17.5384 C   0  0  0  0  0  0  0  0  0  0  0  0
    4.3306    1.4395   18.8277 C   0  0  0  0  0  0  0  0  0  0  0  0
    3.2261    2.3142   19.0084 C   0  0  0  0  0  0  0  0  0  0  0  0
    2.8132    2.6562   20.2672 C   0  0  0  0  0  0  0  0  0  0  0  0
    3.4843    2.1517   21.4024 C   0  0  0  0  0  0  0  0  0  0  0  0
    4.5579    1.3097   21.2530 C   0  0  0  0  0  0  0  0  0  0  0  0
    5.0076    0.9361   19.9584 C   0  0  0  0  0  0  0  0  0  0  0  0
    5.0586    0.9077   22.1265 H   0  0  0  0  0  0  0  0  0  0  0  0
    3.1446    2.4231   22.3968 H   0  0  0  0  0  0  0  0  0  0  0  0
    1.9610    3.3146   20.4028 H   0  0  0  0  0  0  0  0  0  0  0  0
    2.7212    2.6985   18.1264 H   0  0  0  0  0  0  0  0  0  0  0  0
    4.2748    1.4220   16.6571 H   0  0  0  0  0  0  0  0  0  0  0  0
    7.2161   -1.0049   18.2242 H   0  0  0  0  0  0  0  0  0  0  0  0
    7.8268    0.5038   21.4589 C   0  0  0  0  0  0  0  0  0  0  0  0
    8.2859   -0.3255   22.6577 C   0  0  2  0  0  0  0  0  0  0  0  0
    9.5825    0.1599   23.2115 N   0  0  0  0  0  4  0  0  0  0  0  0
    9.9286   -0.5133   23.9188 H   0  0  0  0  0  0  0  0  0  0  0  0
   10.3179    0.2210   22.4658 H   0  0  0  0  0  0  0  0  0  0  0  0
    9.4749    1.0944   23.6691 H   0  0  0  0  0  0  0  0  0  0  0  0
    7.5464   -0.2259   23.4513 H   0  0  0  0  0  0  0  0  0  0  0  0
    8.6833    0.7330   20.8048 H   0  0  0  0  0  0  0  0  0  0  0  0
    7.3289    1.4457   21.7177 H   0  0  0  0  0  0  0  0  0  0  0  0
    7.8219   -2.7542   23.3387 C   0  0  0  0  0  0  0  0  0  0  0  0
    6.4918   -2.8460   23.7550 C   0  0  0  0  0  0  0  0  0  0  0  0
    6.1925   -3.4648   24.9572 C   0  0  0  0  0  0  0  0  0  0  0  0
    4.5397   -3.4861   25.5168 Cl  0  0  0  0  0  0  0  0  0  0  0  0
    7.1825   -4.0359   25.7546 C   0  0  0  0  0  0  0  0  0  0  0  0
    8.4890   -4.0312   25.2990 C   0  0  0  0  0  0  0  0  0  0  0  0
    8.8039   -3.4177   24.0887 C   0  0  0  0  0  0  0  0  0  0  0  0
   10.2331   -3.4293   23.6624 C   0  0  0  0  0  0  0  0  0  0  0  0
   11.1403   -3.8311   24.3883 O   0  0  0  0  0  0  0  0  0  0  0  0
    9.2870   -4.4891   25.8740 H   0  0  0  0  0  0  0  0  0  0  0  0
    6.9130   -4.4415   26.7227 H   0  0  0  0  0  0  0  0  0  0  0  0
    5.7100   -2.4109   23.1418 H   0  0  0  0  0  0  0  0  0  0  0  0
    9.8501   -1.8229   20.7597 H   0  0  0  0  0  0  0  0  0  0  0  0
    8.9977   -3.3608   21.0228 H   0  0  0  0  0  0  0  0  0  0  0  0
   12.4928   -3.5082   22.4906 H   0  0  0  0  0  0  0  0  0  0  0  0
   11.9930   -2.7093   20.9808 H   0  0  0  0  0  0  0  0  0  0  0  0
   13.2165   -2.0693   24.2402 H   0  0  0  0  0  0  0  0  0  0  0  0
   13.0999    0.8171   23.9503 H   0  0  0  0  0  0  0  0  0  0  0  0
   14.5320    0.1624   23.1732 H   0  0  0  0  0  0  0  0  0  0  0  0
   14.2540   -0.1322   24.9153 H   0  0  0  0  0  0  0  0  0  0  0  0
  1  2  1  0
  2  3  1  0
  3  4  2  0
  3  5  1  0
  5  6  1  0
  6  7  1  0
  8  7  1  6
  8  9  1  0
  9 10  2  0
  9 11  1  0
 11 12  1  0
 12 13  2  0
 13 14  1  0
 14 15  2  0
 15 16  1  0
 16 17  2  0
 17 18  1  0
 18 19  2  0
 19 20  1  0
 20 21  2  0
 20 22  1  0
 19 23  1  0
 18 24  1  0
 17 25  1  0
 15 26  1  0
 13 27  1  0
 11 28  1  0
 28 29  1  0
 29 30  1  0
 30 31  1  0
 30 32  1  0
 30 33  1  0
 29 34  1  1
 28 35  1  0
 28 36  1  0
  8 37  1  0
 37 38  2  0
 38 39  1  0
 39 40  1  0
 39 41  2  0
 41 42  1  0
 42 43  2  0
 43 44  1  0
 44 45  2  0
 42 46  1  0
 41 47  1  0
 38 48  1  0
  7 49  1  0
  7 50  1  0
  5 51  1  0
  5 52  1  0
  2 53  1  0
  1 54  1  0
  1 55  1  0
  1 56  1  0
 44  6  1  0
 29  8  1  0
 43 37  1  0
 21 12  1  0
 21 16  1  0
M  CHG  1  30   1
M  END
>  <cnnaffinities>  (3) 
[6.55885]

>  <score>  (3) 
6.55885

>  <index>  (3) 
2

>  <Smiles>  (3) 
C(N(C(=O)C(N1C([C@@]2(C(=O)N(c3c(nc(c4c(c(c(c(c34)[H])[H])[H])[H])[H])[H])C([C@@]2([N+]([H])([H])[H])[H])([H])[H])c2c(c(Cl)c(c(c2C1=O)[H])[H])[H])([H])[H])([H])[H])[H])([H])([H])[H]

>  <h>  (3) 
<NA>

>  <Training>  (3) 
True

>  <Success>  (3) 
True

>  <enamine_searched>  (3) 
False

>  <enamine_id>  (3) 
nan

$$$$

     RDKit          3D

 41 44  0  0  0  0  0  0  0  0999 V2000
    7.3413   -0.3133   24.4621 C   0  0  0  0  0  0  0  0  0  0  0  0
    7.7772   -1.4941   23.5888 C   0  0  1  0  0  0  0  0  0  0  0  0
    8.5019   -2.5204   24.4150 C   0  0  0  0  0  0  0  0  0  0  0  0
    9.8782   -2.4818   24.7851 C   0  0  0  0  0  0  0  0  0  0  0  0
   10.2024   -3.4832   25.6448 C   0  0  0  0  0  0  0  0  0  0  0  0
    8.8493   -4.4767   26.0410 S   0  0  0  0  0  0  0  0  0  0  0  0
    7.8227   -3.5218   25.0277 C   0  0  0  0  0  0  0  0  0  0  0  0
    6.3473   -3.6566   24.8563 C   0  0  0  0  0  0  0  0  0  0  0  0
    5.9155   -3.2473   23.4413 C   0  0  0  0  0  0  0  0  0  0  0  0
    6.6444   -2.0935   22.8723 N   0  0  0  0  0  0  0  0  0  0  0  0
    6.2029   -1.6616   21.6366 C   0  0  0  0  0  0  0  0  0  0  0  0
    5.2550   -2.2069   21.0974 O   0  0  0  0  0  0  0  0  0  0  0  0
    6.9218   -0.4896   20.9168 C   0  0  0  0  0  0  0  0  0  0  0  0
    6.1151    0.0830   19.7721 C   0  0  0  0  0  0  0  0  0  0  0  0
    6.4216   -0.2153   18.4679 C   0  0  0  0  0  0  0  0  0  0  0  0
    5.7609    0.2378   17.3656 N   0  0  0  0  0  0  0  0  0  0  0  0
    4.7362    1.0298   17.5754 C   0  0  0  0  0  0  0  0  0  0  0  0
    4.2875    1.4204   18.8680 C   0  0  0  0  0  0  0  0  0  0  0  0
    3.1659    2.2738   19.0439 C   0  0  0  0  0  0  0  0  0  0  0  0
    2.7503    2.6279   20.2999 C   0  0  0  0  0  0  0  0  0  0  0  0
    3.4418    2.1428   21.4313 C   0  0  0  0  0  0  0  0  0  0  0  0
    4.5300    1.3163   21.2863 C   0  0  0  0  0  0  0  0  0  0  0  0
    4.9887    0.9333   19.9978 C   0  0  0  0  0  0  0  0  0  0  0  0
    5.0414    0.9468   22.1690 H   0  0  0  0  0  0  0  0  0  0  0  0
    3.1030    2.4221   22.4233 H   0  0  0  0  0  0  0  0  0  0  0  0
    1.8929    3.2812   20.4366 H   0  0  0  0  0  0  0  0  0  0  0  0
    2.6451    2.6459   18.1644 H   0  0  0  0  0  0  0  0  0  0  0  0
    4.1994    1.3992   16.6993 H   0  0  0  0  0  0  0  0  0  0  0  0
    7.2650   -0.8670   18.2478 H   0  0  0  0  0  0  0  0  0  0  0  0
    7.8684   -0.8778   20.5152 H   0  0  0  0  0  0  0  0  0  0  0  0
    7.1950    0.3135   21.6145 H   0  0  0  0  0  0  0  0  0  0  0  0
    4.8434   -3.0251   23.4469 H   0  0  0  0  0  0  0  0  0  0  0  0
    6.0423   -4.1041   22.7723 H   0  0  0  0  0  0  0  0  0  0  0  0
    5.8453   -3.0309   25.6083 H   0  0  0  0  0  0  0  0  0  0  0  0
    6.0198   -4.6775   25.0708 H   0  0  0  0  0  0  0  0  0  0  0  0
   11.1833   -3.6924   26.0296 H   0  0  0  0  0  0  0  0  0  0  0  0
   10.5942   -1.7384   24.4438 H   0  0  0  0  0  0  0  0  0  0  0  0
    8.4987   -1.1358   22.8453 H   0  0  0  0  0  0  0  0  0  0  0  0
    6.8213    0.4519   23.8812 H   0  0  0  0  0  0  0  0  0  0  0  0
    8.2107    0.1432   24.9453 H   0  0  0  0  0  0  0  0  0  0  0  0
    6.6697   -0.6651   25.2483 H   0  0  0  0  0  0  0  0  0  0  0  0
  1  2  1  0
  2  3  1  0
  3  4  1  0
  4  5  2  0
  5  6  1  0
  6  7  1  0
  7  8  1  0
  8  9  1  0
  9 10  1  0
 10 11  1  0
 11 12  2  0
 11 13  1  0
 13 14  1  0
 14 15  2  0
 15 16  1  0
 16 17  2  0
 17 18  1  0
 18 19  2  0
 19 20  1  0
 20 21  2  0
 21 22  1  0
 22 23  2  0
 22 24  1  0
 21 25  1  0
 20 26  1  0
 19 27  1  0
 17 28  1  0
 15 29  1  0
 13 30  1  0
 13 31  1  0
  9 32  1  0
  9 33  1  0
  8 34  1  0
  8 35  1  0
  5 36  1  0
  4 37  1  0
  2 38  1  6
  1 39  1  0
  1 40  1  0
  1 41  1  0
 10  2  1  0
 23 14  1  0
  7  3  2  0
 23 18  1  0
M  END
>  <cnnaffinities>  (4) 
[5.33487, 5.36106, 5.38384]

>  <score>  (4) 
5.33487

>  <index>  (4) 
4

>  <Smiles>  (4) 
C([C@]1(c2c(c(sc2C(C(N1C(=O)C(c1c(nc(c2c(c(c(c(c12)[H])[H])[H])[H])[H])[H])([H])[H])([H])[H])([H])[H])[H])[H])[H])([H])([H])[H]

>  <h>  (4) 
<NA>

>  <Training>  (4) 
True

>  <Success>  (4) 
True

>  <enamine_searched>  (4) 
False

>  <enamine_id>  (4) 
nan

$$$$

     RDKit          3D

 50 54  0  0  0  0  0  0  0  0999 V2000
    9.7437   -1.9720   21.8261 C   0  0  0  0  0  0  0  0  0  0  0  0
    8.6630   -0.9844   22.3185 C   0  0  1  0  0  0  0  0  0  0  0  0
    8.2137   -0.0735   21.1505 C   0  0  0  0  0  0  0  0  0  0  0  0
    6.8638   -0.4964   20.8424 N   0  0  0  0  0  0  0  0  0  0  0  0
    6.1007    0.0532   19.7746 C   0  0  0  0  0  0  0  0  0  0  0  0
    6.4399   -0.2225   18.4748 C   0  0  0  0  0  0  0  0  0  0  0  0
    5.7789    0.2449   17.3868 N   0  0  0  0  0  0  0  0  0  0  0  0
    4.7456    1.0239   17.5942 C   0  0  0  0  0  0  0  0  0  0  0  0
    4.2952    1.4175   18.8837 C   0  0  0  0  0  0  0  0  0  0  0  0
    3.1782    2.2791   19.0559 C   0  0  0  0  0  0  0  0  0  0  0  0
    2.7812    2.6577   20.3070 C   0  0  0  0  0  0  0  0  0  0  0  0
    3.4915    2.2014   21.4429 C   0  0  0  0  0  0  0  0  0  0  0  0
    4.5741    1.3715   21.3057 C   0  0  0  0  0  0  0  0  0  0  0  0
    4.9940    0.9349   20.0162 C   0  0  0  0  0  0  0  0  0  0  0  0
    5.1073    1.0205   22.1903 H   0  0  0  0  0  0  0  0  0  0  0  0
    3.1665    2.5060   22.4351 H   0  0  0  0  0  0  0  0  0  0  0  0
    1.9258    3.3201   20.4400 H   0  0  0  0  0  0  0  0  0  0  0  0
    2.6590    2.6400   18.1706 H   0  0  0  0  0  0  0  0  0  0  0  0
    4.2154    1.3851   16.7127 H   0  0  0  0  0  0  0  0  0  0  0  0
    7.2876   -0.8731   18.2582 H   0  0  0  0  0  0  0  0  0  0  0  0
    6.3247   -1.3727   21.7557 C   0  0  0  0  0  0  0  0  0  0  0  0
    5.2071   -1.8373   21.6756 O   0  0  0  0  0  0  0  0  0  0  0  0
    7.3516   -1.6200   22.8843 C   0  0  1  0  0  0  0  0  0  0  0  0
    7.4845   -3.1303   23.1743 C   0  0  0  0  0  0  0  0  0  0  0  0
    6.2899   -3.6749   23.7887 N   0  0  0  0  0  0  0  0  0  0  0  0
    5.7559   -4.9597   23.3662 C   0  0  0  0  0  0  0  0  0  0  0  0
    4.4382   -4.8361   22.7143 C   0  0  0  0  0  0  0  0  0  0  0  0
    3.3990   -4.7473   22.2179 N   0  0  0  0  0  0  0  0  0  0  0  0
    6.4497   -5.4270   22.6603 H   0  0  0  0  0  0  0  0  0  0  0  0
    5.6535   -5.6353   24.2217 H   0  0  0  0  0  0  0  0  0  0  0  0
    5.7133   -3.0746   24.8757 C   0  0  0  0  0  0  0  0  0  0  0  0
    4.9222   -3.6804   25.5849 O   0  0  0  0  0  0  0  0  0  0  0  0
    6.0826   -1.6338   25.0887 C   0  0  0  0  0  0  0  0  0  0  0  0
    5.5812   -0.9886   26.2194 C   0  0  0  0  0  0  0  0  0  0  0  0
    5.8009    0.3563   26.4316 C   0  0  0  0  0  0  0  0  0  0  0  0
    6.5198    1.0491   25.4675 C   0  0  0  0  0  0  0  0  0  0  0  0
    6.7212    2.3664   25.6495 F   0  0  0  0  0  0  0  0  0  0  0  0
    7.0327    0.4430   24.3370 C   0  0  0  0  0  0  0  0  0  0  0  0
    6.8514   -0.9344   24.1492 C   0  0  0  0  0  0  0  0  0  0  0  0
    7.5591    1.0713   23.6234 H   0  0  0  0  0  0  0  0  0  0  0  0
    5.4263    0.8893   27.2999 H   0  0  0  0  0  0  0  0  0  0  0  0
    4.9987   -1.5633   26.9267 H   0  0  0  0  0  0  0  0  0  0  0  0
    8.3602   -3.2988   23.8212 H   0  0  0  0  0  0  0  0  0  0  0  0
    7.6349   -3.6613   22.2369 H   0  0  0  0  0  0  0  0  0  0  0  0
    8.2601    0.9964   21.4074 H   0  0  0  0  0  0  0  0  0  0  0  0
    8.8578   -0.2175   20.2824 H   0  0  0  0  0  0  0  0  0  0  0  0
    9.1450   -0.3848   23.1013 H   0  0  0  0  0  0  0  0  0  0  0  0
   10.6104   -1.4255   21.4241 H   0  0  0  0  0  0  0  0  0  0  0  0
    9.3717   -2.6251   21.0257 H   0  0  0  0  0  0  0  0  0  0  0  0
   10.1162   -2.6110   22.6347 H   0  0  0  0  0  0  0  0  0  0  0  0
  1  2  1  0
  2  3  1  0
  3  4  1  0
  4  5  1  0
  5  6  2  0
  6  7  1  0
  7  8  2  0
  8  9  1  0
  9 10  2  0
 10 11  1  0
 11 12  2  0
 12 13  1  0
 13 14  2  0
 13 15  1  0
 12 16  1  0
 11 17  1  0
 10 18  1  0
  8 19  1  0
  6 20  1  0
  4 21  1  0
 21 22  2  0
 21 23  1  0
 23 24  1  1
 24 25  1  0
 25 26  1  0
 26 27  1  0
 27 28  3  0
 26 29  1  0
 26 30  1  0
 25 31  1  0
 31 32  2  0
 31 33  1  0
 33 34  2  0
 34 35  1  0
 35 36  2  0
 36 37  1  0
 36 38  1  0
 38 39  2  0
 38 40  1  0
 35 41  1  0
 34 42  1  0
 24 43  1  0
 24 44  1  0
  3 45  1  0
  3 46  1  0
  2 47  1  1
  1 48  1  0
  1 49  1  0
  1 50  1  0
 23  2  1  0
 39 33  1  0
 14  5  1  0
 39 23  1  0
 14  9  1  0
M  END
>  <cnnaffinities>  (5) 
[6.04327, 6.19109]

>  <score>  (5) 
6.04327

>  <index>  (5) 
5

>  <Smiles>  (5) 
C([C@]1(C(N(c2c(nc(c3c(c(c(c(c23)[H])[H])[H])[H])[H])[H])C(=O)[C@]21C(N(C(C#N)([H])[H])C(=O)c1c(c(c(F)c(c21)[H])[H])[H])([H])[H])([H])[H])[H])([H])([H])[H]

>  <h>  (5) 
<NA>

>  <Training>  (5) 
True

>  <Success>  (5) 
True

>  <enamine_searched>  (5) 
False

>  <enamine_id>  (5) 
nan

$$$$

     RDKit          3D

 65 69  0  0  0  0  0  0  0  0999 V2000
    9.6033   -7.1476   24.9344 C   0  0  0  0  0  0  0  0  0  0  0  0
    8.6405   -6.0317   25.3255 C   0  0  0  0  0  0  0  0  0  0  0  0
    8.7876   -4.7909   24.4483 C   0  0  0  0  0  0  0  0  0  0  0  0
    8.4545   -4.7193   23.2996 O   0  0  0  0  0  0  0  0  0  0  0  0
    9.3133   -3.4772   25.1385 N   0  0  1  0  0  4  0  0  0  0  0  0
   10.7848   -3.0977   24.7904 C   0  0  0  0  0  0  0  0  0  0  0  0
   10.8480   -2.4490   23.4197 C   0  0  0  0  0  0  0  0  0  0  0  0
   10.0397   -1.1498   23.3759 C   0  0  0  0  0  0  0  0  0  0  0  0
    8.6622   -1.2654   24.0132 C   0  0  0  0  0  0  0  0  0  0  0  0
    7.6519   -0.3122   23.7719 C   0  0  0  0  0  0  0  0  0  0  0  0
    7.8827    0.7546   22.8459 N   0  0  0  0  0  0  0  0  0  0  0  0
    8.2377    2.0501   23.4170 C   0  0  0  0  0  0  0  0  0  0  0  0
    7.1066    3.0526   23.3604 C   0  0  0  0  0  0  0  0  0  0  0  0
    6.2572    3.2056   24.4558 C   0  0  0  0  0  0  0  0  0  0  0  0
    5.1646    4.0628   24.3901 C   0  0  0  0  0  0  0  0  0  0  0  0
    4.9182    4.7873   23.2307 C   0  0  0  0  0  0  0  0  0  0  0  0
    5.7907    4.6439   22.1558 C   0  0  0  0  0  0  0  0  0  0  0  0
    5.5030    5.5414   20.7004 Cl  0  0  0  0  0  0  0  0  0  0  0  0
    6.8797    3.7894   22.2026 C   0  0  0  0  0  0  0  0  0  0  0  0
    7.5319    3.6848   21.3378 H   0  0  0  0  0  0  0  0  0  0  0  0
    4.0518    5.4350   23.1383 H   0  0  0  0  0  0  0  0  0  0  0  0
    4.4967    4.1527   25.2425 H   0  0  0  0  0  0  0  0  0  0  0  0
    6.4582    2.6411   25.3642 H   0  0  0  0  0  0  0  0  0  0  0  0
    9.1143    2.4313   22.8773 H   0  0  0  0  0  0  0  0  0  0  0  0
    8.4806    1.8463   24.4619 H   0  0  0  0  0  0  0  0  0  0  0  0
    7.8407    0.6465   21.4721 C   0  0  0  0  0  0  0  0  0  0  0  0
    8.4835    1.3837   20.7409 O   0  0  0  0  0  0  0  0  0  0  0  0
    6.9423   -0.4448   20.8912 C   0  0  0  0  0  0  0  0  0  0  0  0
    6.1047    0.0777   19.7557 C   0  0  0  0  0  0  0  0  0  0  0  0
    6.4306   -0.2066   18.4577 C   0  0  0  0  0  0  0  0  0  0  0  0
    5.7691    0.2474   17.3585 N   0  0  0  0  0  0  0  0  0  0  0  0
    4.7415    1.0312   17.5742 C   0  0  0  0  0  0  0  0  0  0  0  0
    4.2908    1.4241   18.8646 C   0  0  0  0  0  0  0  0  0  0  0  0
    3.1745    2.2804   19.0418 C   0  0  0  0  0  0  0  0  0  0  0  0
    2.7649    2.6391   20.2953 C   0  0  0  0  0  0  0  0  0  0  0  0
    3.4572    2.1551   21.4308 C   0  0  0  0  0  0  0  0  0  0  0  0
    4.5443    1.3306   21.2841 C   0  0  0  0  0  0  0  0  0  0  0  0
    4.9930    0.9423   19.9939 C   0  0  0  0  0  0  0  0  0  0  0  0
    5.0675    0.9734   22.1677 H   0  0  0  0  0  0  0  0  0  0  0  0
    3.1107    2.4268   22.4256 H   0  0  0  0  0  0  0  0  0  0  0  0
    1.9105    3.2995   20.4209 H   0  0  0  0  0  0  0  0  0  0  0  0
    2.6597    2.6465   18.1567 H   0  0  0  0  0  0  0  0  0  0  0  0
    4.2051    1.3963   16.6976 H   0  0  0  0  0  0  0  0  0  0  0  0
    7.2800   -0.8553   18.2425 H   0  0  0  0  0  0  0  0  0  0  0  0
    7.6093   -1.2368   20.5301 H   0  0  0  0  0  0  0  0  0  0  0  0
    6.3334   -0.8709   21.6929 H   0  0  0  0  0  0  0  0  0  0  0  0
    6.4604   -0.3211   24.4878 C   0  0  0  0  0  0  0  0  0  0  0  0
    6.1888   -1.3469   25.3886 C   0  0  0  0  0  0  0  0  0  0  0  0
    7.1444   -2.3352   25.5894 C   0  0  0  0  0  0  0  0  0  0  0  0
    8.3637   -2.2913   24.9119 C   0  0  0  0  0  0  0  0  0  0  0  0
    6.9536   -3.1692   26.2580 H   0  0  0  0  0  0  0  0  0  0  0  0
    5.2361   -1.3866   25.9110 H   0  0  0  0  0  0  0  0  0  0  0  0
    5.7426    0.4764   24.3061 H   0  0  0  0  0  0  0  0  0  0  0  0
   10.5958   -0.3559   23.8943 H   0  0  0  0  0  0  0  0  0  0  0  0
    9.9402   -0.8179   22.3389 H   0  0  0  0  0  0  0  0  0  0  0  0
   11.8935   -2.2407   23.1732 H   0  0  0  0  0  0  0  0  0  0  0  0
   10.4663   -3.1580   22.6799 H   0  0  0  0  0  0  0  0  0  0  0  0
   11.4065   -3.9950   24.8456 H   0  0  0  0  0  0  0  0  0  0  0  0
   11.1231   -2.3986   25.5567 H   0  0  0  0  0  0  0  0  0  0  0  0
    9.2803   -3.6817   26.1540 H   0  0  0  0  0  0  0  0  0  0  0  0
    8.8242   -5.7182   26.3561 H   0  0  0  0  0  0  0  0  0  0  0  0
    7.5928   -6.3237   25.2302 H   0  0  0  0  0  0  0  0  0  0  0  0
    9.4572   -7.5000   23.9104 H   0  0  0  0  0  0  0  0  0  0  0  0
   10.5939   -6.7249   25.0504 H   0  0  0  0  0  0  0  0  0  0  0  0
    9.6041   -8.0266   25.5682 H   0  0  0  0  0  0  0  0  0  0  0  0
  1  2  1  0
  2  3  1  0
  3  4  2  0
  3  5  1  0
  5  6  1  0
  6  7  1  0
  7  8  1  0
  8  9  1  0
  9 10  2  0
 10 11  1  0
 11 12  1  0
 12 13  1  0
 13 14  2  0
 14 15  1  0
 15 16  2  0
 16 17  1  0
 17 18  1  0
 17 19  2  0
 19 20  1  0
 16 21  1  0
 15 22  1  0
 14 23  1  0
 12 24  1  0
 12 25  1  0
 11 26  1  0
 26 27  2  0
 26 28  1  0
 28 29  1  0
 29 30  2  0
 30 31  1  0
 31 32  2  0
 32 33  1  0
 33 34  2  0
 34 35  1  0
 35 36  2  0
 36 37  1  0
 37 38  2  0
 37 39  1  0
 36 40  1  0
 35 41  1  0
 34 42  1  0
 32 43  1  0
 30 44  1  0
 28 45  1  0
 28 46  1  0
 10 47  1  0
 47 48  2  0
 48 49  1  0
 49 50  2  0
 49 51  1  0
 48 52  1  0
 47 53  1  0
  8 54  1  0
  8 55  1  0
  7 56  1  0
  7 57  1  0
  6 58  1  0
  6 59  1  0
  5 60  1  1
  2 61  1  0
  2 62  1  0
  1 63  1  0
  1 64  1  0
  1 65  1  0
 50  5  1  0
 50  9  1  0
 19 13  1  0
 38 29  1  0
 38 33  1  0
M  CHG  1   5   1
M  END
>  <cnnaffinities>  (6) 
[6.49271]

>  <score>  (6) 
6.49271

>  <index>  (6) 
6

>  <Smiles>  (6) 
C(C(C(=O)[N@+]1(C(C(C(c2c(N(C(c3c(c(c(c(Cl)c3[H])[H])[H])[H])([H])[H])C(=O)C(c3c(nc(c4c(c(c(c(c34)[H])[H])[H])[H])[H])[H])([H])[H])c(c(c(c12)[H])[H])[H])([H])[H])([H])[H])([H])[H])[H])([H])[H])([H])([H])[H]

>  <h>  (6) 
<NA>

>  <Training>  (6) 
True

>  <Success>  (6) 
True

>  <enamine_searched>  (6) 
False

>  <enamine_id>  (6) 
nan

$$$$

     RDKit          3D

 37 39  0  0  0  0  0  0  0  0999 V2000
    8.6816    1.2092   20.6537 O   0  0  0  0  0  0  0  0  0  0  0  0
    7.8835    0.6884   21.4022 C   0  0  0  0  0  0  0  0  0  0  0  0
    6.9597   -0.4381   20.9077 C   0  0  0  0  0  0  0  0  0  0  0  0
    6.1071    0.0785   19.7651 C   0  0  0  0  0  0  0  0  0  0  0  0
    6.4272   -0.2094   18.4640 C   0  0  0  0  0  0  0  0  0  0  0  0
    5.7634    0.2445   17.3653 N   0  0  0  0  0  0  0  0  0  0  0  0
    4.7349    1.0288   17.5777 C   0  0  0  0  0  0  0  0  0  0  0  0
    4.2886    1.4218   18.8669 C   0  0  0  0  0  0  0  0  0  0  0  0
    3.1753    2.2819   19.0450 C   0  0  0  0  0  0  0  0  0  0  0  0
    2.7698    2.6534   20.2980 C   0  0  0  0  0  0  0  0  0  0  0  0
    3.4682    2.1757   21.4304 C   0  0  0  0  0  0  0  0  0  0  0  0
    4.5476    1.3388   21.2849 C   0  0  0  0  0  0  0  0  0  0  0  0
    4.9930    0.9401   19.9973 C   0  0  0  0  0  0  0  0  0  0  0  0
    5.0615    0.9748   22.1676 H   0  0  0  0  0  0  0  0  0  0  0  0
    3.1377    2.4690   22.4230 H   0  0  0  0  0  0  0  0  0  0  0  0
    1.9182    3.3169   20.4311 H   0  0  0  0  0  0  0  0  0  0  0  0
    2.6575    2.6505   18.1627 H   0  0  0  0  0  0  0  0  0  0  0  0
    4.2015    1.3962   16.6984 H   0  0  0  0  0  0  0  0  0  0  0  0
    7.2734   -0.8568   18.2385 H   0  0  0  0  0  0  0  0  0  0  0  0
    6.3365   -0.8285   21.7232 H   0  0  0  0  0  0  0  0  0  0  0  0
    7.5898   -1.2535   20.5334 H   0  0  0  0  0  0  0  0  0  0  0  0
    7.6649    1.1403   22.7080 N   0  0  0  0  0  0  0  0  0  0  0  0
    7.8913    2.5545   22.9774 C   0  0  0  0  0  0  0  0  0  0  0  0
    6.9280    3.0405   24.0562 C   0  0  0  0  0  0  0  0  0  0  0  0
    7.0129    2.1794   25.3111 C   0  0  0  0  0  0  0  0  0  0  0  0
    6.8028    0.7104   24.9631 C   0  0  0  0  0  0  0  0  0  0  0  0
    7.7687    0.2670   23.8732 C   0  0  0  0  0  0  0  0  0  0  0  0
    8.7917    0.2632   24.2885 H   0  0  0  0  0  0  0  0  0  0  0  0
    7.5647   -0.7534   23.5552 H   0  0  0  0  0  0  0  0  0  0  0  0
    5.7798    0.5591   24.6041 H   0  0  0  0  0  0  0  0  0  0  0  0
    6.9225    0.0817   25.8513 H   0  0  0  0  0  0  0  0  0  0  0  0
    7.9960    2.3095   25.7793 H   0  0  0  0  0  0  0  0  0  0  0  0
    6.2786    2.5062   26.0562 H   0  0  0  0  0  0  0  0  0  0  0  0
    5.9082    3.0077   23.6537 H   0  0  0  0  0  0  0  0  0  0  0  0
    7.1285    4.0887   24.2946 H   0  0  0  0  0  0  0  0  0  0  0  0
    7.7373    3.0922   22.0435 H   0  0  0  0  0  0  0  0  0  0  0  0
    8.9280    2.7643   23.2659 H   0  0  0  0  0  0  0  0  0  0  0  0
  1  2  2  0
  2  3  1  0
  3  4  1  0
  4  5  2  0
  5  6  1  0
  6  7  2  0
  7  8  1  0
  8  9  2  0
  9 10  1  0
 10 11  2  0
 11 12  1  0
 12 13  2  0
 12 14  1  0
 11 15  1  0
 10 16  1  0
  9 17  1  0
  7 18  1  0
  5 19  1  0
  3 20  1  0
  3 21  1  0
  2 22  1  0
 22 23  1  0
 23 24  1  0
 24 25  1  0
 25 26  1  0
 26 27  1  0
 27 28  1  0
 27 29  1  0
 26 30  1  0
 26 31  1  0
 25 32  1  0
 25 33  1  0
 24 34  1  0
 24 35  1  0
 23 36  1  0
 23 37  1  0
 13  4  1  0
 27 22  1  0
 13  8  1  0
M  END
>  <cnnaffinities>  (7) 
[4.41103, 4.95556, 4.88365, 4.63562, 4.63605]

>  <score>  (7) 
4.41103

>  <index>  (7) 
7

>  <Smiles>  (7) 
O=C(C(c1c(nc(c2c(c(c(c(c12)[H])[H])[H])[H])[H])[H])([H])[H])N1C(C(C(C(C1([H])[H])([H])[H])([H])[H])([H])[H])([H])[H]

>  <h>  (7) 
<NA>

>  <Training>  (7) 
True

>  <Success>  (7) 
True

>  <enamine_searched>  (7) 
False

>  <enamine_id>  (7) 
nan

$$$$

     RDKit          3D

 54 57  0  0  0  0  0  0  0  0999 V2000
    1.9584   -5.0113   24.3408 C   0  0  0  0  0  0  0  0  0  0  0  0
    3.1335   -4.2594   24.1061 O   0  0  0  0  0  0  0  0  0  0  0  0
    3.1537   -2.9102   24.3430 C   0  0  0  0  0  0  0  0  0  0  0  0
    2.0451   -2.1980   24.8064 C   0  0  0  0  0  0  0  0  0  0  0  0
    2.1428   -0.8240   25.0253 C   0  0  0  0  0  0  0  0  0  0  0  0
    3.3307   -0.1538   24.7774 C   0  0  0  0  0  0  0  0  0  0  0  0
    4.4207   -0.8741   24.3006 C   0  0  0  0  0  0  0  0  0  0  0  0
    4.3716   -2.2429   24.0681 C   0  0  0  0  0  0  0  0  0  0  0  0
    5.5917   -3.0252   23.5534 C   0  0  2  0  0  0  0  0  0  0  0  0
    6.2436   -3.8930   24.6497 C   0  0  0  0  0  0  0  0  0  0  0  0
    7.3828   -3.2536   25.4450 C   0  0  2  0  0  0  0  0  0  0  0  0
    6.9243   -2.2275   26.4809 C   0  0  0  0  0  0  0  0  0  0  0  0
    7.7692   -1.8745   27.0842 H   0  0  0  0  0  0  0  0  0  0  0  0
    6.1835   -2.6601   27.1620 H   0  0  0  0  0  0  0  0  0  0  0  0
    6.4576   -1.3532   26.0208 H   0  0  0  0  0  0  0  0  0  0  0  0
    8.3892   -2.6923   24.4489 C   0  0  0  0  0  0  0  0  0  0  0  0
    7.7748   -1.6860   23.4846 C   0  0  0  0  0  0  0  0  0  0  0  0
    6.5767   -2.1985   22.8231 N   0  0  0  0  0  0  0  0  0  0  0  0
    6.1808   -1.7504   21.5712 C   0  0  0  0  0  0  0  0  0  0  0  0
    5.2726   -2.2982   20.9725 O   0  0  0  0  0  0  0  0  0  0  0  0
    6.8999   -0.5284   20.9187 C   0  0  0  0  0  0  0  0  0  0  0  0
    6.1103    0.0763   19.7742 C   0  0  0  0  0  0  0  0  0  0  0  0
    6.4214   -0.2161   18.4715 C   0  0  0  0  0  0  0  0  0  0  0  0
    5.7626    0.2409   17.3690 N   0  0  0  0  0  0  0  0  0  0  0  0
    4.7370    1.0295   17.5783 C   0  0  0  0  0  0  0  0  0  0  0  0
    4.2860    1.4187   18.8678 C   0  0  0  0  0  0  0  0  0  0  0  0
    3.1623    2.2657   19.0454 C   0  0  0  0  0  0  0  0  0  0  0  0
    2.7439    2.6193   20.2994 C   0  0  0  0  0  0  0  0  0  0  0  0
    3.4437    2.1383   21.4288 C   0  0  0  0  0  0  0  0  0  0  0  0
    4.5364    1.3198   21.2900 C   0  0  0  0  0  0  0  0  0  0  0  0
    4.9916    0.9341   20.0017 C   0  0  0  0  0  0  0  0  0  0  0  0
    5.0558    0.9582   22.1742 H   0  0  0  0  0  0  0  0  0  0  0  0
    3.1030    2.4258   22.4196 H   0  0  0  0  0  0  0  0  0  0  0  0
    1.8813    3.2689   20.4362 H   0  0  0  0  0  0  0  0  0  0  0  0
    2.6429    2.6364   18.1633 H   0  0  0  0  0  0  0  0  0  0  0  0
    4.2013    1.3976   16.6984 H   0  0  0  0  0  0  0  0  0  0  0  0
    7.2629   -0.8698   18.2448 H   0  0  0  0  0  0  0  0  0  0  0  0
    7.1421    0.2432   21.6649 H   0  0  0  0  0  0  0  0  0  0  0  0
    7.8635   -0.8791   20.5184 H   0  0  0  0  0  0  0  0  0  0  0  0
    8.5140   -1.4503   22.7140 H   0  0  0  0  0  0  0  0  0  0  0  0
    7.5818   -0.7418   24.0173 H   0  0  0  0  0  0  0  0  0  0  0  0
    8.8225   -3.5158   23.8739 H   0  0  0  0  0  0  0  0  0  0  0  0
    9.2187   -2.2168   24.9815 H   0  0  0  0  0  0  0  0  0  0  0  0
    7.8776   -4.0616   26.0064 H   0  0  0  0  0  0  0  0  0  0  0  0
    6.6308   -4.8031   24.1755 H   0  0  0  0  0  0  0  0  0  0  0  0
    5.4633   -4.2279   25.3368 H   0  0  0  0  0  0  0  0  0  0  0  0
    5.1888   -3.7193   22.8130 H   0  0  0  0  0  0  0  0  0  0  0  0
    5.3500   -0.3456   24.1246 H   0  0  0  0  0  0  0  0  0  0  0  0
    3.4110    0.9218   24.9280 H   0  0  0  0  0  0  0  0  0  0  0  0
    1.2752   -0.2713   25.3702 H   0  0  0  0  0  0  0  0  0  0  0  0
    1.0981   -2.6981   24.9994 H   0  0  0  0  0  0  0  0  0  0  0  0
    1.6329   -5.0007   25.3881 H   0  0  0  0  0  0  0  0  0  0  0  0
    2.2100   -6.0389   24.0856 H   0  0  0  0  0  0  0  0  0  0  0  0
    1.1119   -4.7118   23.7109 H   0  0  0  0  0  0  0  0  0  0  0  0
  1  2  1  0
  2  3  1  0
  3  4  2  0
  4  5  1  0
  5  6  2  0
  6  7  1  0
  7  8  2  0
  8  9  1  0
  9 10  1  0
 10 11  1  0
 11 12  1  0
 12 13  1  0
 12 14  1  0
 12 15  1  0
 11 16  1  0
 16 17  1  0
 17 18  1  0
 18 19  1  0
 19 20  2  0
 19 21  1  0
 21 22  1  0
 22 23  2  0
 23 24  1  0
 24 25  2  0
 25 26  1  0
 26 27  2  0
 27 28  1  0
 28 29  2  0
 29 30  1  0
 30 31  2  0
 30 32  1  0
 29 33  1  0
 28 34  1  0
 27 35  1  0
 25 36  1  0
 23 37  1  0
 21 38  1  0
 21 39  1  0
 17 40  1  0
 17 41  1  0
 16 42  1  0
 16 43  1  0
 11 44  1  1
 10 45  1  0
 10 46  1  0
  9 47  1  6
  7 48  1  0
  6 49  1  0
  5 50  1  0
  4 51  1  0
  1 52  1  0
  1 53  1  0
  1 54  1  0
  8  3  1  0
 18  9  1  0
 31 22  1  0
 31 26  1  0
M  END
>  <cnnaffinities>  (8) 
[5.60408]

>  <score>  (8) 
5.60408

>  <index>  (8) 
11

>  <Smiles>  (8) 
C(Oc1c(c(c(c(c1[C@@]1(C([C@](C([H])([H])[H])(C(C(N1C(=O)C(c1c(nc(c2c(c(c(c(c12)[H])[H])[H])[H])[H])[H])([H])[H])([H])[H])([H])[H])[H])([H])[H])[H])[H])[H])[H])[H])([H])([H])[H]

>  <h>  (8) 
<NA>

>  <Training>  (8) 
True

>  <Success>  (8) 
True

>  <enamine_searched>  (8) 
False

>  <enamine_id>  (8) 
nan

$$$$

     RDKit          3D

 47 50  0  0  0  0  0  0  0  0999 V2000
    5.5831   -2.4858   20.9638 O   0  0  0  0  0  0  0  0  0  0  0  0
    6.1366   -1.6233   21.6270 C   0  0  0  0  0  0  0  0  0  0  0  0
    6.9074   -0.4869   20.9187 C   0  0  0  0  0  0  0  0  0  0  0  0
    6.1151    0.0906   19.7661 C   0  0  0  0  0  0  0  0  0  0  0  0
    6.4216   -0.2146   18.4631 C   0  0  0  0  0  0  0  0  0  0  0  0
    5.7596    0.2388   17.3624 N   0  0  0  0  0  0  0  0  0  0  0  0
    4.7353    1.0304   17.5743 C   0  0  0  0  0  0  0  0  0  0  0  0
    4.2868    1.4234   18.8676 C   0  0  0  0  0  0  0  0  0  0  0  0
    3.1629    2.2736   19.0427 C   0  0  0  0  0  0  0  0  0  0  0  0
    2.7483    2.6265   20.2993 C   0  0  0  0  0  0  0  0  0  0  0  0
    3.4422    2.1445   21.4307 C   0  0  0  0  0  0  0  0  0  0  0  0
    4.5330    1.3211   21.2873 C   0  0  0  0  0  0  0  0  0  0  0  0
    4.9897    0.9410   19.9955 C   0  0  0  0  0  0  0  0  0  0  0  0
    5.0480    0.9584   22.1723 H   0  0  0  0  0  0  0  0  0  0  0  0
    3.1037    2.4262   22.4222 H   0  0  0  0  0  0  0  0  0  0  0  0
    1.8898    3.2776   20.4363 H   0  0  0  0  0  0  0  0  0  0  0  0
    2.6413    2.6439   18.1638 H   0  0  0  0  0  0  0  0  0  0  0  0
    4.1982    1.3994   16.6994 H   0  0  0  0  0  0  0  0  0  0  0  0
    7.2663   -0.8678   18.2478 H   0  0  0  0  0  0  0  0  0  0  0  0
    7.2144    0.3094   21.6073 H   0  0  0  0  0  0  0  0  0  0  0  0
    7.8303   -0.9242   20.5176 H   0  0  0  0  0  0  0  0  0  0  0  0
    6.0654   -1.6151   22.9911 N   0  0  0  0  0  0  0  0  0  0  0  0
    6.9011   -0.8567   23.9159 C   0  0  0  0  0  0  0  0  0  0  0  0
    6.6182   -1.4539   25.3067 C   0  0  2  0  0  0  0  0  0  0  0  0
    7.6574   -2.4967   25.7094 C   0  0  0  0  0  0  0  0  0  0  0  0
    8.9148   -1.9115   25.7569 F   0  0  0  0  0  0  0  0  0  0  0  0
    7.6950   -3.3152   24.9836 H   0  0  0  0  0  0  0  0  0  0  0  0
    7.4635   -2.9228   26.6999 H   0  0  0  0  0  0  0  0  0  0  0  0
    5.1947   -2.0374   25.1775 C   0  0  0  0  0  0  0  0  0  0  0  0
    4.0997   -0.9797   25.4622 C   0  0  0  0  0  0  0  0  0  0  0  0
    2.8227   -1.7522   25.8425 C   0  0  0  0  0  0  0  0  0  0  0  0
    3.2771   -3.1713   26.2313 C   0  0  0  0  0  0  0  0  0  0  0  0
    4.8109   -3.1500   26.1712 C   0  0  0  0  0  0  0  0  0  0  0  0
    5.2222   -4.1235   25.8858 H   0  0  0  0  0  0  0  0  0  0  0  0
    5.2103   -2.9197   27.1668 H   0  0  0  0  0  0  0  0  0  0  0  0
    2.8770   -3.9062   25.5262 H   0  0  0  0  0  0  0  0  0  0  0  0
    2.9231   -3.4582   27.2261 H   0  0  0  0  0  0  0  0  0  0  0  0
    2.1251   -1.7879   25.0024 H   0  0  0  0  0  0  0  0  0  0  0  0
    2.3028   -1.2531   26.6646 H   0  0  0  0  0  0  0  0  0  0  0  0
    3.9446   -0.3160   24.6059 H   0  0  0  0  0  0  0  0  0  0  0  0
    4.4121   -0.3451   26.2992 H   0  0  0  0  0  0  0  0  0  0  0  0
    5.1438   -2.4992   23.6998 C   0  0  0  0  0  0  0  0  0  0  0  0
    5.4371   -3.5509   23.5952 H   0  0  0  0  0  0  0  0  0  0  0  0
    4.1351   -2.4174   23.2874 H   0  0  0  0  0  0  0  0  0  0  0  0
    6.6550   -0.6760   26.0738 H   0  0  0  0  0  0  0  0  0  0  0  0
    6.6314    0.2060   23.9013 H   0  0  0  0  0  0  0  0  0  0  0  0
    7.9612   -0.9489   23.6691 H   0  0  0  0  0  0  0  0  0  0  0  0
  1  2  2  0
  2  3  1  0
  3  4  1  0
  4  5  2  0
  5  6  1  0
  6  7  2  0
  7  8  1  0
  8  9  2  0
  9 10  1  0
 10 11  2  0
 11 12  1  0
 12 13  2  0
 12 14  1  0
 11 15  1  0
 10 16  1  0
  9 17  1  0
  7 18  1  0
  5 19  1  0
  3 20  1  0
  3 21  1  0
  2 22  1  0
 22 23  1  0
 23 24  1  0
 24 25  1  0
 25 26  1  0
 25 27  1  0
 25 28  1  0
 24 29  1  0
 29 30  1  0
 30 31  1  0
 31 32  1  0
 32 33  1  0
 33 34  1  0
 33 35  1  0
 32 36  1  0
 32 37  1  0
 31 38  1  0
 31 39  1  0
 30 40  1  0
 30 41  1  0
 29 42  1  0
 42 43  1  0
 42 44  1  0
 24 45  1  1
 23 46  1  0
 23 47  1  0
 13  4  1  0
 42 22  1  0
 13  8  1  0
 33 29  1  0
M  END
>  <cnnaffinities>  (9) 
[5.62024, 5.61894, 5.62005, 5.58808, 5.58756, 5.58105, 5.58112, 5.56797, 5.56284, 5.5686, 5.56711, 5.48637]

>  <score>  (9) 
5.62024

>  <index>  (9) 
12

>  <Smiles>  (9) 
O=C(C(c1c(nc(c2c(c(c(c(c12)[H])[H])[H])[H])[H])[H])([H])[H])N1C([C@](C(F)([H])[H])(C2(C(C(C(C2([H])[H])([H])[H])([H])[H])([H])[H])C1([H])[H])[H])([H])[H]

>  <h>  (9) 
<NA>

>  <Training>  (9) 
True

>  <Success>  (9) 
True

>  <enamine_searched>  (9) 
False

>  <enamine_id>  (9) 
nan

$$$$

     RDKit          3D

 67 72  0  0  0  0  0  0  0  0999 V2000
    7.5554   -8.3990   23.0364 C   0  0  0  0  0  0  0  0  0  0  0  0
    6.6422   -7.3540   22.6373 N   0  0  0  0  0  0  0  0  0  0  0  0
    6.9450   -6.5211   21.6126 C   0  0  0  0  0  0  0  0  0  0  0  0
    7.8258   -6.7521   20.8041 O   0  0  0  0  0  0  0  0  0  0  0  0
    6.1487   -5.2150   21.5858 C   0  0  0  0  0  0  0  0  0  0  0  0
    6.6710   -4.2950   22.5783 N   0  0  0  0  0  0  0  0  0  0  0  0
    7.7644   -3.3919   22.2633 C   0  0  0  0  0  0  0  0  0  0  0  0
    7.4120   -1.9356   22.6441 C   0  0  2  0  0  0  0  0  0  0  0  0
    6.3095   -1.4345   21.6789 C   0  0  0  0  0  0  0  0  0  0  0  0
    5.1707   -1.8404   21.6016 O   0  0  0  0  0  0  0  0  0  0  0  0
    6.8500   -0.4670   20.8558 N   0  0  0  0  0  0  0  0  0  0  0  0
    6.1164    0.0771   19.7819 C   0  0  0  0  0  0  0  0  0  0  0  0
    6.4662   -0.2165   18.4880 C   0  0  0  0  0  0  0  0  0  0  0  0
    5.8080    0.2306   17.3918 N   0  0  0  0  0  0  0  0  0  0  0  0
    4.7711    1.0099   17.5998 C   0  0  0  0  0  0  0  0  0  0  0  0
    4.3142    1.4060   18.8895 C   0  0  0  0  0  0  0  0  0  0  0  0
    3.1975    2.2663   19.0457 C   0  0  0  0  0  0  0  0  0  0  0  0
    2.7899    2.6535   20.2937 C   0  0  0  0  0  0  0  0  0  0  0  0
    3.4846    2.2072   21.4396 C   0  0  0  0  0  0  0  0  0  0  0  0
    4.5678    1.3740   21.3154 C   0  0  0  0  0  0  0  0  0  0  0  0
    5.0021    0.9399   20.0283 C   0  0  0  0  0  0  0  0  0  0  0  0
    5.0916    1.0377   22.2049 H   0  0  0  0  0  0  0  0  0  0  0  0
    3.1554    2.5320   22.4226 H   0  0  0  0  0  0  0  0  0  0  0  0
    1.9389    3.3166   20.4087 H   0  0  0  0  0  0  0  0  0  0  0  0
    2.6891    2.6176   18.1528 H   0  0  0  0  0  0  0  0  0  0  0  0
    4.2350    1.3741   16.7246 H   0  0  0  0  0  0  0  0  0  0  0  0
    7.3123   -0.8763   18.2979 H   0  0  0  0  0  0  0  0  0  0  0  0
    8.2910   -0.3658   20.9642 C   0  0  0  0  0  0  0  0  0  0  0  0
    8.5778   -0.9412   22.3537 C   0  0  2  0  0  0  0  0  0  0  0  0
   10.0014   -1.4699   22.4378 C   0  0  0  0  0  0  0  0  0  0  0  0
   10.2221   -1.9905   23.7311 O   0  0  0  0  0  0  0  0  0  0  0  0
   11.5490   -2.4360   23.9420 C   0  0  0  0  0  0  0  0  0  0  0  0
   12.5014   -1.3285   24.3351 C   0  0  0  0  0  0  0  0  0  0  0  0
   13.3171   -0.6269   23.2971 C   0  0  0  0  0  0  0  0  0  0  0  0
   13.9657   -1.6373   24.2001 C   0  0  0  0  0  0  0  0  0  0  0  0
   14.6478   -1.2645   24.9590 H   0  0  0  0  0  0  0  0  0  0  0  0
   14.2218   -2.6078   23.7720 H   0  0  0  0  0  0  0  0  0  0  0  0
   13.1235   -0.8965   22.2647 H   0  0  0  0  0  0  0  0  0  0  0  0
   13.5565    0.4168   23.4810 H   0  0  0  0  0  0  0  0  0  0  0  0
   12.1971   -0.6830   25.1503 H   0  0  0  0  0  0  0  0  0  0  0  0
   11.4967   -3.1940   24.7386 H   0  0  0  0  0  0  0  0  0  0  0  0
   11.9565   -2.9357   23.0397 H   0  0  0  0  0  0  0  0  0  0  0  0
   10.1584   -2.2538   21.6763 H   0  0  0  0  0  0  0  0  0  0  0  0
   10.7160   -0.6597   22.2159 H   0  0  0  0  0  0  0  0  0  0  0  0
    8.4943   -0.1362   23.0832 H   0  0  0  0  0  0  0  0  0  0  0  0
    8.6069    0.6771   20.8680 H   0  0  0  0  0  0  0  0  0  0  0  0
    8.8115   -0.9536   20.1909 H   0  0  0  0  0  0  0  0  0  0  0  0
    6.9221   -1.9702   24.0807 C   0  0  0  0  0  0  0  0  0  0  0  0
    6.8791   -0.8058   24.8489 C   0  0  0  0  0  0  0  0  0  0  0  0
    6.4131   -0.8513   26.1486 C   0  0  0  0  0  0  0  0  0  0  0  0
    6.3556    0.6221   27.0618 Cl  0  0  0  0  0  0  0  0  0  0  0  0
    5.9871   -2.0359   26.7480 C   0  0  0  0  0  0  0  0  0  0  0  0
    5.9916   -3.1820   25.9843 C   0  0  0  0  0  0  0  0  0  0  0  0
    6.4167   -3.1434   24.6610 C   0  0  0  0  0  0  0  0  0  0  0  0
    6.1964   -4.3689   23.8491 C   0  0  0  0  0  0  0  0  0  0  0  0
    5.5741   -5.3413   24.2784 O   0  0  0  0  0  0  0  0  0  0  0  0
    5.6452   -4.1333   26.3684 H   0  0  0  0  0  0  0  0  0  0  0  0
    5.6431   -2.0453   27.7761 H   0  0  0  0  0  0  0  0  0  0  0  0
    7.1986    0.1464   24.4414 H   0  0  0  0  0  0  0  0  0  0  0  0
    8.6807   -3.6849   22.7935 H   0  0  0  0  0  0  0  0  0  0  0  0
    7.9606   -3.4509   21.2000 H   0  0  0  0  0  0  0  0  0  0  0  0
    5.1006   -5.3970   21.8328 H   0  0  0  0  0  0  0  0  0  0  0  0
    6.2004   -4.7304   20.6013 H   0  0  0  0  0  0  0  0  0  0  0  0
    5.9634   -7.0352   23.3152 H   0  0  0  0  0  0  0  0  0  0  0  0
    7.0583   -8.9765   23.8211 H   0  0  0  0  0  0  0  0  0  0  0  0
    8.5178   -8.0080   23.4007 H   0  0  0  0  0  0  0  0  0  0  0  0
    7.7493   -9.0644   22.1966 H   0  0  0  0  0  0  0  0  0  0  0  0
  1  2  1  0
  2  3  1  0
  3  4  2  0
  3  5  1  0
  5  6  1  0
  6  7  1  0
  8  7  1  6
  8  9  1  0
  9 10  2  0
  9 11  1  0
 11 12  1  0
 12 13  2  0
 13 14  1  0
 14 15  2  0
 15 16  1  0
 16 17  2  0
 17 18  1  0
 18 19  2  0
 19 20  1  0
 20 21  2  0
 20 22  1  0
 19 23  1  0
 18 24  1  0
 17 25  1  0
 15 26  1  0
 13 27  1  0
 11 28  1  0
 28 29  1  0
 29 30  1  0
 30 31  1  0
 31 32  1  0
 32 33  1  0
 33 34  1  0
 34 35  1  0
 35 36  1  0
 35 37  1  0
 34 38  1  0
 34 39  1  0
 33 40  1  0
 32 41  1  0
 32 42  1  0
 30 43  1  0
 30 44  1  0
 29 45  1  1
 28 46  1  0
 28 47  1  0
  8 48  1  0
 48 49  2  0
 49 50  1  0
 50 51  1  0
 50 52  2  0
 52 53  1  0
 53 54  2  0
 54 55  1  0
 55 56  2  0
 53 57  1  0
 52 58  1  0
 49 59  1  0
  7 60  1  0
  7 61  1  0
  5 62  1  0
  5 63  1  0
  2 64  1  0
  1 65  1  0
  1 66  1  0
  1 67  1  0
 55  6  1  0
 29  8  1  0
 35 33  1  0
 54 48  1  0
 21 12  1  0
 21 16  1  0
M  END
>  <cnnaffinities>  (10) 
[7.08871]

>  <score>  (10) 
7.08871

>  <index>  (10) 
13

>  <Smiles>  (10) 
C(N(C(=O)C(N1C([C@@]2(C(=O)N(c3c(nc(c4c(c(c(c(c34)[H])[H])[H])[H])[H])[H])C([C@@]2(C(OC(C2(C(C2([H])[H])([H])[H])[H])([H])[H])([H])[H])[H])([H])[H])c2c(c(Cl)c(c(c2C1=O)[H])[H])[H])([H])[H])([H])[H])[H])([H])([H])[H]

>  <h>  (10) 
<NA>

>  <Training>  (10) 
True

>  <Success>  (10) 
True

>  <enamine_searched>  (10) 
False

>  <enamine_id>  (10) 
nan

$$$$

     RDKit          3D

 72 77  0  0  0  0  0  0  0  0999 V2000
    6.7104    7.9186   21.5810 C   0  0  0  0  0  0  0  0  0  0  0  0
    5.6645    6.8326   21.3905 C   0  0  1  0  0  0  0  0  0  0  0  0
    6.2384    5.4347   21.0981 C   0  0  0  0  0  0  0  0  0  0  0  0
    6.6167    4.7225   22.3558 N   0  0  2  0  0  4  0  0  0  0  0  0
    7.2468    3.3839   22.1130 C   0  0  0  0  0  0  0  0  0  0  0  0
    7.8500    2.8197   23.4005 C   0  0  0  0  0  0  0  0  0  0  0  0
    8.5246    1.5550   23.2189 N   0  0  0  0  0  0  0  0  0  0  0  0
    7.8050    0.3089   23.3966 C   0  0  0  0  0  0  0  0  0  0  0  0
    8.1519   -0.6720   22.2482 C   0  0  2  0  0  0  0  0  0  0  0  0
    7.6637   -0.0857   20.9177 C   0  0  0  0  0  0  0  0  0  0  0  0
    8.1754    0.8114   20.2782 O   0  0  0  0  0  0  0  0  0  0  0  0
    6.5032   -0.7362   20.5488 N   0  0  0  0  0  0  0  0  0  0  0  0
    5.7607   -0.1234   19.5080 C   0  0  0  0  0  0  0  0  0  0  0  0
    6.1621   -0.2842   18.2063 C   0  0  0  0  0  0  0  0  0  0  0  0
    5.5581    0.3040   17.1440 N   0  0  0  0  0  0  0  0  0  0  0  0
    4.5662    1.1281   17.3940 C   0  0  0  0  0  0  0  0  0  0  0  0
    4.1003    1.4434   18.7046 C   0  0  0  0  0  0  0  0  0  0  0  0
    3.0647    2.3873   18.9387 C   0  0  0  0  0  0  0  0  0  0  0  0
    2.7092    2.7292   20.2154 C   0  0  0  0  0  0  0  0  0  0  0  0
    3.3603    2.1388   21.3185 C   0  0  0  0  0  0  0  0  0  0  0  0
    4.3424    1.2000   21.1192 C   0  0  0  0  0  0  0  0  0  0  0  0
    4.7300    0.8199   19.8040 C   0  0  0  0  0  0  0  0  0  0  0  0
    4.8581    0.7795   21.9734 H   0  0  0  0  0  0  0  0  0  0  0  0
    3.0791    2.4146   22.3300 H   0  0  0  0  0  0  0  0  0  0  0  0
    1.9341    3.4704   20.3895 H   0  0  0  0  0  0  0  0  0  0  0  0
    2.5847    2.8465   18.0805 H   0  0  0  0  0  0  0  0  0  0  0  0
    4.0968    1.6171   16.5390 H   0  0  0  0  0  0  0  0  0  0  0  0
    7.0263   -0.9043   17.9770 H   0  0  0  0  0  0  0  0  0  0  0  0
    6.0417   -1.6615   21.5871 C   0  0  0  0  0  0  0  0  0  0  0  0
    7.3630   -2.0034   22.2940 C   0  0  2  0  0  0  0  0  0  0  0  0
    7.2730   -2.6732   23.6574 C   0  0  0  0  0  0  0  0  0  0  0  0
    6.7919   -3.6539   23.5929 H   0  0  0  0  0  0  0  0  0  0  0  0
    8.2799   -2.8208   24.0644 H   0  0  0  0  0  0  0  0  0  0  0  0
    6.7096   -2.0681   24.3743 H   0  0  0  0  0  0  0  0  0  0  0  0
    7.8968   -2.6827   21.6245 H   0  0  0  0  0  0  0  0  0  0  0  0
    5.3465   -1.1895   22.2989 H   0  0  0  0  0  0  0  0  0  0  0  0
    5.5420   -2.5325   21.1585 H   0  0  0  0  0  0  0  0  0  0  0  0
    9.6462   -0.7997   22.2207 C   0  0  0  0  0  0  0  0  0  0  0  0
   10.2704   -1.7896   21.4734 C   0  0  0  0  0  0  0  0  0  0  0  0
   11.6481   -1.9011   21.5354 C   0  0  0  0  0  0  0  0  0  0  0  0
   12.4093   -2.8756   20.3103 Cl  0  0  0  0  0  0  0  0  0  0  0  0
   12.3757   -1.1667   22.4862 C   0  0  0  0  0  0  0  0  0  0  0  0
   11.7760   -0.0738   23.0777 C   0  0  0  0  0  0  0  0  0  0  0  0
   10.4373    0.1861   22.8042 C   0  0  0  0  0  0  0  0  0  0  0  0
    9.8446    1.5593   22.8811 C   0  0  0  0  0  0  0  0  0  0  0  0
   10.4735    2.5715   22.6012 O   0  0  0  0  0  0  0  0  0  0  0  0
   12.3434    0.6190   23.6923 H   0  0  0  0  0  0  0  0  0  0  0  0
   13.3980   -1.3965   22.7616 H   0  0  0  0  0  0  0  0  0  0  0  0
    9.7042   -2.4286   20.8093 H   0  0  0  0  0  0  0  0  0  0  0  0
    8.0847   -0.1368   24.3620 H   0  0  0  0  0  0  0  0  0  0  0  0
    6.7371    0.5482   23.4139 H   0  0  0  0  0  0  0  0  0  0  0  0
    8.5713    3.5460   23.7878 H   0  0  0  0  0  0  0  0  0  0  0  0
    7.0587    2.6710   24.1446 H   0  0  0  0  0  0  0  0  0  0  0  0
    8.0356    3.4916   21.3611 H   0  0  0  0  0  0  0  0  0  0  0  0
    6.4873    2.7085   21.7011 H   0  0  0  0  0  0  0  0  0  0  0  0
    5.4688    4.6735   23.3705 C   0  0  1  0  0  0  0  0  0  0  0  0
    5.9847    5.0970   24.7447 C   0  0  0  0  0  0  0  0  0  0  0  0
    5.1983    5.0152   25.4983 H   0  0  0  0  0  0  0  0  0  0  0  0
    6.3126    6.1377   24.6884 H   0  0  0  0  0  0  0  0  0  0  0  0
    6.8353    4.4923   25.0670 H   0  0  0  0  0  0  0  0  0  0  0  0
    4.3406    5.5885   22.9025 C   0  0  0  0  0  0  0  0  0  0  0  0
    4.8719    6.8492   22.5752 O   0  0  0  0  0  0  0  0  0  0  0  0
    3.6284    5.7494   23.7190 H   0  0  0  0  0  0  0  0  0  0  0  0
    3.7941    5.1448   22.0535 H   0  0  0  0  0  0  0  0  0  0  0  0
    5.1055    3.6429   23.3904 H   0  0  0  0  0  0  0  0  0  0  0  0
    7.3611    5.3049   22.7808 H   0  0  0  0  0  0  0  0  0  0  0  0
    7.1163    5.5153   20.4486 H   0  0  0  0  0  0  0  0  0  0  0  0
    5.5002    4.8282   20.5597 H   0  0  0  0  0  0  0  0  0  0  0  0
    5.0234    7.1029   20.5350 H   0  0  0  0  0  0  0  0  0  0  0  0
    6.2117    8.8736   21.7682 H   0  0  0  0  0  0  0  0  0  0  0  0
    7.3533    7.6927   22.4405 H   0  0  0  0  0  0  0  0  0  0  0  0
    7.3296    8.0146   20.6871 H   0  0  0  0  0  0  0  0  0  0  0  0
  1  2  1  0
  2  3  1  0
  3  4  1  0
  4  5  1  0
  5  6  1  0
  6  7  1  0
  7  8  1  0
  9  8  1  1
  9 10  1  0
 10 11  2  0
 10 12  1  0
 12 13  1  0
 13 14  2  0
 14 15  1  0
 15 16  2  0
 16 17  1  0
 17 18  2  0
 18 19  1  0
 19 20  2  0
 20 21  1  0
 21 22  2  0
 21 23  1  0
 20 24  1  0
 19 25  1  0
 18 26  1  0
 16 27  1  0
 14 28  1  0
 12 29  1  0
 29 30  1  0
 30 31  1  0
 31 32  1  0
 31 33  1  0
 31 34  1  0
 30 35  1  6
 29 36  1  0
 29 37  1  0
  9 38  1  0
 38 39  2  0
 39 40  1  0
 40 41  1  0
 40 42  2  0
 42 43  1  0
 43 44  2  0
 44 45  1  0
 45 46  2  0
 43 47  1  0
 42 48  1  0
 39 49  1  0
  8 50  1  0
  8 51  1  0
  6 52  1  0
  6 53  1  0
  5 54  1  0
  5 55  1  0
  4 56  1  0
 56 57  1  0
 57 58  1  0
 57 59  1  0
 57 60  1  0
 56 61  1  0
 61 62  1  0
 61 63  1  0
 61 64  1  0
 56 65  1  1
  4 66  1  1
  3 67  1  0
  3 68  1  0
  2 69  1  6
  1 70  1  0
  1 71  1  0
  1 72  1  0
 62  2  1  0
 45  7  1  0
 30  9  1  0
 44 38  1  0
 22 13  1  0
 22 17  1  0
M  CHG  1   4   1
M  END
>  <cnnaffinities>  (11) 
[6.33025]

>  <score>  (11) 
6.33025

>  <index>  (11) 
15

>  <Smiles>  (11) 
C([C@]1(C([N@+](C(C(N2C([C@@]3(C(=O)N(c4c(nc(c5c(c(c(c(c45)[H])[H])[H])[H])[H])[H])C([C@@]3(C([H])([H])[H])[H])([H])[H])c3c(c(Cl)c(c(c3C2=O)[H])[H])[H])([H])[H])([H])[H])([H])[H])([C@@](C([H])([H])[H])(C(O1)([H])[H])[H])[H])([H])[H])[H])([H])([H])[H]

>  <h>  (11) 
<NA>

>  <Training>  (11) 
True

>  <Success>  (11) 
True

>  <enamine_searched>  (11) 
False

>  <enamine_id>  (11) 
nan

$$$$

     RDKit          3D

 47 50  0  0  0  0  0  0  0  0999 V2000
    8.6373   -4.5029   23.9946 C   0  0  0  0  0  0  0  0  0  0  0  0
    7.3752   -3.7609   24.4118 C   0  0  1  0  0  0  0  0  0  0  0  0
    7.6864   -2.3575   24.9374 C   0  0  0  0  0  0  0  0  0  0  0  0
    7.4154   -1.3752   23.7816 C   0  0  2  0  0  0  0  0  0  0  0  0
    6.6546   -0.1516   24.2632 C   0  0  0  0  0  0  0  0  0  0  0  0
    5.3234   -0.2555   24.6718 C   0  0  0  0  0  0  0  0  0  0  0  0
    4.6286    0.8579   25.1246 C   0  0  0  0  0  0  0  0  0  0  0  0
    5.2620    2.0963   25.1905 C   0  0  0  0  0  0  0  0  0  0  0  0
    6.5984    2.2049   24.8153 C   0  0  0  0  0  0  0  0  0  0  0  0
    7.2895    1.0853   24.3616 C   0  0  0  0  0  0  0  0  0  0  0  0
    8.3358    1.1747   24.0729 H   0  0  0  0  0  0  0  0  0  0  0  0
    7.1029    3.1642   24.8549 H   0  0  0  0  0  0  0  0  0  0  0  0
    4.7167    2.9702   25.5297 H   0  0  0  0  0  0  0  0  0  0  0  0
    3.5897    0.7599   25.4274 H   0  0  0  0  0  0  0  0  0  0  0  0
    4.8202   -1.2176   24.6464 H   0  0  0  0  0  0  0  0  0  0  0  0
    6.6977   -2.1655   22.7885 N   0  0  0  0  0  0  0  0  0  0  0  0
    6.2514   -1.7382   21.5641 C   0  0  0  0  0  0  0  0  0  0  0  0
    5.3930   -2.3655   20.9570 O   0  0  0  0  0  0  0  0  0  0  0  0
    6.9129   -0.4922   20.9218 C   0  0  0  0  0  0  0  0  0  0  0  0
    6.1129    0.0833   19.7727 C   0  0  0  0  0  0  0  0  0  0  0  0
    6.4204   -0.2154   18.4698 C   0  0  0  0  0  0  0  0  0  0  0  0
    5.7594    0.2394   17.3656 N   0  0  0  0  0  0  0  0  0  0  0  0
    4.7367    1.0297   17.5771 C   0  0  0  0  0  0  0  0  0  0  0  0
    4.2860    1.4216   18.8684 C   0  0  0  0  0  0  0  0  0  0  0  0
    3.1668    2.2741   19.0454 C   0  0  0  0  0  0  0  0  0  0  0  0
    2.7526    2.6293   20.2966 C   0  0  0  0  0  0  0  0  0  0  0  0
    3.4498    2.1399   21.4290 C   0  0  0  0  0  0  0  0  0  0  0  0
    4.5349    1.3120   21.2961 C   0  0  0  0  0  0  0  0  0  0  0  0
    4.9890    0.9344   20.0040 C   0  0  0  0  0  0  0  0  0  0  0  0
    5.0475    0.9464   22.1895 H   0  0  0  0  0  0  0  0  0  0  0  0
    3.1091    2.4252   22.4173 H   0  0  0  0  0  0  0  0  0  0  0  0
    1.8960    3.2848   20.4378 H   0  0  0  0  0  0  0  0  0  0  0  0
    2.6478    2.6464   18.1625 H   0  0  0  0  0  0  0  0  0  0  0  0
    4.2008    1.3986   16.6975 H   0  0  0  0  0  0  0  0  0  0  0  0
    7.2641   -0.8663   18.2448 H   0  0  0  0  0  0  0  0  0  0  0  0
    7.1495    0.2852   21.6599 H   0  0  0  0  0  0  0  0  0  0  0  0
    7.8801   -0.8251   20.5204 H   0  0  0  0  0  0  0  0  0  0  0  0
    6.4168   -3.5234   23.2387 C   0  0  0  0  0  0  0  0  0  0  0  0
    5.3658   -3.6597   23.5264 H   0  0  0  0  0  0  0  0  0  0  0  0
    6.5958   -4.2129   22.4138 H   0  0  0  0  0  0  0  0  0  0  0  0
    8.3607   -1.0434   23.3433 H   0  0  0  0  0  0  0  0  0  0  0  0
    7.0664   -2.1229   25.8047 H   0  0  0  0  0  0  0  0  0  0  0  0
    8.7160   -2.2768   25.2909 H   0  0  0  0  0  0  0  0  0  0  0  0
    6.8876   -4.3572   25.1837 H   0  0  0  0  0  0  0  0  0  0  0  0
    9.1781   -3.9600   23.2161 H   0  0  0  0  0  0  0  0  0  0  0  0
    8.3856   -5.4933   23.6164 H   0  0  0  0  0  0  0  0  0  0  0  0
    9.3259   -4.6397   24.8333 H   0  0  0  0  0  0  0  0  0  0  0  0
  1  2  1  0
  2  3  1  0
  3  4  1  0
  4  5  1  0
  5  6  2  0
  6  7  1  0
  7  8  2  0
  8  9  1  0
  9 10  2  0
 10 11  1  0
  9 12  1  0
  8 13  1  0
  7 14  1  0
  6 15  1  0
  4 16  1  0
 16 17  1  0
 17 18  2  0
 17 19  1  0
 19 20  1  0
 20 21  2  0
 21 22  1  0
 22 23  2  0
 23 24  1  0
 24 25  2  0
 25 26  1  0
 26 27  2  0
 27 28  1  0
 28 29  2  0
 28 30  1  0
 27 31  1  0
 26 32  1  0
 25 33  1  0
 23 34  1  0
 21 35  1  0
 19 36  1  0
 19 37  1  0
 16 38  1  0
 38 39  1  0
 38 40  1  0
  4 41  1  6
  3 42  1  0
  3 43  1  0
  2 44  1  1
  1 45  1  0
  1 46  1  0
  1 47  1  0
 38  2  1  0
 10  5  1  0
 29 20  1  0
 29 24  1  0
M  END
>  <cnnaffinities>  (12) 
[5.50981, 5.55425]

>  <score>  (12) 
5.50981

>  <index>  (12) 
16

>  <Smiles>  (12) 
C([C@]1(C([C@](c2c(c(c(c(c2[H])[H])[H])[H])[H])(N(C(=O)C(c2c(nc(c3c(c(c(c(c23)[H])[H])[H])[H])[H])[H])([H])[H])C1([H])[H])[H])([H])[H])[H])([H])([H])[H]

>  <h>  (12) 
<NA>

>  <Training>  (12) 
True

>  <Success>  (12) 
True

>  <enamine_searched>  (12) 
False

>  <enamine_id>  (12) 
nan

$$$$

     RDKit          3D

 58 63  0  0  0  0  0  0  0  0999 V2000
    9.9357   -1.3022   22.0133 C   0  0  0  0  0  0  0  0  0  0  0  0
    8.6326   -0.6133   22.4518 C   0  0  1  0  0  0  0  0  0  0  0  0
    8.0875    0.2816   21.3123 C   0  0  0  0  0  0  0  0  0  0  0  0
    6.9271   -0.4251   20.8176 N   0  0  0  0  0  0  0  0  0  0  0  0
    6.1208    0.0758   19.7622 C   0  0  0  0  0  0  0  0  0  0  0  0
    6.4526   -0.2206   18.4649 C   0  0  0  0  0  0  0  0  0  0  0  0
    5.7847    0.2368   17.3770 N   0  0  0  0  0  0  0  0  0  0  0  0
    4.7545    1.0197   17.5964 C   0  0  0  0  0  0  0  0  0  0  0  0
    4.3003    1.4054   18.8907 C   0  0  0  0  0  0  0  0  0  0  0  0
    3.1852    2.2672   19.0604 C   0  0  0  0  0  0  0  0  0  0  0  0
    2.7800    2.6346   20.3143 C   0  0  0  0  0  0  0  0  0  0  0  0
    3.4708    2.1626   21.4519 C   0  0  0  0  0  0  0  0  0  0  0  0
    4.5519    1.3237   21.3203 C   0  0  0  0  0  0  0  0  0  0  0  0
    4.9946    0.9228   20.0218 C   0  0  0  0  0  0  0  0  0  0  0  0
    5.0712    0.9692   22.2110 H   0  0  0  0  0  0  0  0  0  0  0  0
    3.1349    2.4651   22.4397 H   0  0  0  0  0  0  0  0  0  0  0  0
    1.9256    3.2946   20.4416 H   0  0  0  0  0  0  0  0  0  0  0  0
    2.6763    2.6326   18.1735 H   0  0  0  0  0  0  0  0  0  0  0  0
    4.2185    1.3872   16.7222 H   0  0  0  0  0  0  0  0  0  0  0  0
    7.3000   -0.8737   18.2619 H   0  0  0  0  0  0  0  0  0  0  0  0
    6.4865   -1.4433   21.6318 C   0  0  0  0  0  0  0  0  0  0  0  0
    5.4952   -2.1058   21.4180 O   0  0  0  0  0  0  0  0  0  0  0  0
    7.4495   -1.5637   22.8362 C   0  0  1  0  0  0  0  0  0  0  0  0
    7.8691   -3.0364   23.0111 C   0  0  0  0  0  0  0  0  0  0  0  0
    6.7383   -3.8292   23.4427 N   0  0  0  0  0  0  0  0  0  0  0  0
    6.5629   -5.1494   22.9295 C   0  0  0  0  0  0  0  0  0  0  0  0
    7.3134   -6.1383   23.7530 C   0  0  0  0  0  0  0  0  0  0  0  0
    8.5252   -5.9920   24.2198 N   0  0  0  0  0  0  0  0  0  0  0  0
    8.9805   -7.2533   24.5348 N   0  0  0  0  0  0  0  0  0  0  0  0
    8.0164   -8.0857   24.2693 C   0  0  0  0  0  0  0  0  0  0  0  0
    6.8994   -7.4314   23.8428 N   0  0  0  0  0  0  0  0  0  0  0  0
    5.5116   -7.8513   23.9661 C   0  0  0  0  0  0  0  0  0  0  0  0
    5.0264   -7.9785   23.0071 H   0  0  0  0  0  0  0  0  0  0  0  0
    5.5047   -8.7753   24.5489 H   0  0  0  0  0  0  0  0  0  0  0  0
    4.9379   -7.0788   24.4857 H   0  0  0  0  0  0  0  0  0  0  0  0
    8.0606   -9.1595   24.3589 H   0  0  0  0  0  0  0  0  0  0  0  0
    6.9748   -5.1660   21.9103 H   0  0  0  0  0  0  0  0  0  0  0  0
    5.4872   -5.3631   22.9047 H   0  0  0  0  0  0  0  0  0  0  0  0
    6.0077   -3.5081   24.5449 C   0  0  0  0  0  0  0  0  0  0  0  0
    5.3324   -4.3348   25.1525 O   0  0  0  0  0  0  0  0  0  0  0  0
    6.0495   -2.0753   24.9226 C   0  0  0  0  0  0  0  0  0  0  0  0
    5.3552   -1.7026   26.0706 C   0  0  0  0  0  0  0  0  0  0  0  0
    5.2661   -0.3690   26.4097 C   0  0  0  0  0  0  0  0  0  0  0  0
    5.8774    0.5668   25.5775 C   0  0  0  0  0  0  0  0  0  0  0  0
    5.7680    1.8699   25.8933 F   0  0  0  0  0  0  0  0  0  0  0  0
    6.5878    0.2127   24.4446 C   0  0  0  0  0  0  0  0  0  0  0  0
    6.7113   -1.1396   24.1094 C   0  0  0  0  0  0  0  0  0  0  0  0
    7.0301    1.0008   23.8414 H   0  0  0  0  0  0  0  0  0  0  0  0
    4.7201   -0.0324   27.2808 H   0  0  0  0  0  0  0  0  0  0  0  0
    4.8819   -2.4989   26.6454 H   0  0  0  0  0  0  0  0  0  0  0  0
    8.6680   -3.1168   23.7637 H   0  0  0  0  0  0  0  0  0  0  0  0
    8.2362   -3.4406   22.0627 H   0  0  0  0  0  0  0  0  0  0  0  0
    7.8068    1.2829   21.6731 H   0  0  0  0  0  0  0  0  0  0  0  0
    8.8175    0.4160   20.5053 H   0  0  0  0  0  0  0  0  0  0  0  0
    8.8832   -0.0110   23.3334 H   0  0  0  0  0  0  0  0  0  0  0  0
   10.3583   -1.9152   22.8155 H   0  0  0  0  0  0  0  0  0  0  0  0
   10.6868   -0.5470   21.7531 H   0  0  0  0  0  0  0  0  0  0  0  0
    9.7823   -1.9386   21.1334 H   0  0  0  0  0  0  0  0  0  0  0  0
  1  2  1  0
  2  3  1  0
  3  4  1  0
  4  5  1  0
  5  6  2  0
  6  7  1  0
  7  8  2  0
  8  9  1  0
  9 10  2  0
 10 11  1  0
 11 12  2  0
 12 13  1  0
 13 14  2  0
 13 15  1  0
 12 16  1  0
 11 17  1  0
 10 18  1  0
  8 19  1  0
  6 20  1  0
  4 21  1  0
 21 22  2  0
 21 23  1  0
 23 24  1  1
 24 25  1  0
 25 26  1  0
 26 27  1  0
 27 28  2  0
 28 29  1  0
 29 30  2  0
 30 31  1  0
 31 32  1  0
 32 33  1  0
 32 34  1  0
 32 35  1  0
 30 36  1  0
 26 37  1  0
 26 38  1  0
 25 39  1  0
 39 40  2  0
 39 41  1  0
 41 42  2  0
 42 43  1  0
 43 44  2  0
 44 45  1  0
 44 46  1  0
 46 47  2  0
 46 48  1  0
 43 49  1  0
 42 50  1  0
 24 51  1  0
 24 52  1  0
  3 53  1  0
  3 54  1  0
  2 55  1  1
  1 56  1  0
  1 57  1  0
  1 58  1  0
 23  2  1  0
 31 27  1  0
 47 41  1  0
 14  5  1  0
 47 23  1  0
 14  9  1  0
M  END
>  <cnnaffinities>  (13) 
[6.47436]

>  <score>  (13) 
6.47436

>  <index>  (13) 
17

>  <Smiles>  (13) 
C([C@]1(C(N(c2c(nc(c3c(c(c(c(c23)[H])[H])[H])[H])[H])[H])C(=O)[C@]21C(N(C(c1nnc(n1C([H])([H])[H])[H])([H])[H])C(=O)c1c(c(c(F)c(c21)[H])[H])[H])([H])[H])([H])[H])[H])([H])([H])[H]

>  <h>  (13) 
<NA>

>  <Training>  (13) 
True

>  <Success>  (13) 
True

>  <enamine_searched>  (13) 
False

>  <enamine_id>  (13) 
nan

$$$$

     RDKit          3D

 50 53  0  0  0  0  0  0  0  0999 V2000
    6.0165   -1.0392   29.7335 C   0  0  0  0  0  0  0  0  0  0  0  0
    6.3574   -0.7189   28.2855 C   0  0  1  0  0  0  0  0  0  0  0  0
    7.4405   -1.6499   27.7418 C   0  0  0  0  0  0  0  0  0  0  0  0
    7.7903   -1.3208   26.2907 C   0  0  0  0  0  0  0  0  0  0  0  0
    6.5754   -1.3675   25.3449 C   0  0  2  0  0  0  0  0  0  0  0  0
    6.0808   -2.8101   25.1057 C   0  0  0  0  0  0  0  0  0  0  0  0
    5.5583   -2.8599   23.6677 C   0  0  0  0  0  0  0  0  0  0  0  0
    6.2190   -1.7444   22.9886 N   0  0  0  0  0  0  0  0  0  0  0  0
    6.1671   -1.6422   21.6261 C   0  0  0  0  0  0  0  0  0  0  0  0
    5.5433   -2.4535   20.9591 O   0  0  0  0  0  0  0  0  0  0  0  0
    6.9117   -0.4839   20.9195 C   0  0  0  0  0  0  0  0  0  0  0  0
    6.1144    0.0892   19.7678 C   0  0  0  0  0  0  0  0  0  0  0  0
    6.4214   -0.2143   18.4643 C   0  0  0  0  0  0  0  0  0  0  0  0
    5.7596    0.2386   17.3634 N   0  0  0  0  0  0  0  0  0  0  0  0
    4.7353    1.0304   17.5747 C   0  0  0  0  0  0  0  0  0  0  0  0
    4.2867    1.4234   18.8676 C   0  0  0  0  0  0  0  0  0  0  0  0
    3.1645    2.2750   19.0427 C   0  0  0  0  0  0  0  0  0  0  0  0
    2.7510    2.6285   20.2993 C   0  0  0  0  0  0  0  0  0  0  0  0
    3.4442    2.1440   21.4308 C   0  0  0  0  0  0  0  0  0  0  0  0
    4.5326    1.3180   21.2887 C   0  0  0  0  0  0  0  0  0  0  0  0
    4.9891    0.9396   19.9965 C   0  0  0  0  0  0  0  0  0  0  0  0
    5.0463    0.9538   22.1740 H   0  0  0  0  0  0  0  0  0  0  0  0
    3.1062    2.4267   22.4223 H   0  0  0  0  0  0  0  0  0  0  0  0
    1.8936    3.2817   20.4366 H   0  0  0  0  0  0  0  0  0  0  0  0
    2.6429    2.6460   18.1637 H   0  0  0  0  0  0  0  0  0  0  0  0
    4.1984    1.3995   16.6994 H   0  0  0  0  0  0  0  0  0  0  0  0
    7.2664   -0.8670   18.2481 H   0  0  0  0  0  0  0  0  0  0  0  0
    7.2128    0.3136   21.6089 H   0  0  0  0  0  0  0  0  0  0  0  0
    7.8423   -0.9046   20.5150 H   0  0  0  0  0  0  0  0  0  0  0  0
    6.9607   -0.9048   23.9183 C   0  0  0  0  0  0  0  0  0  0  0  0
    8.0402   -1.0076   23.7522 H   0  0  0  0  0  0  0  0  0  0  0  0
    6.7120    0.1516   23.7757 H   0  0  0  0  0  0  0  0  0  0  0  0
    4.4697   -2.7500   23.6303 H   0  0  0  0  0  0  0  0  0  0  0  0
    5.8061   -3.8071   23.1856 H   0  0  0  0  0  0  0  0  0  0  0  0
    5.3129   -3.1140   25.8228 H   0  0  0  0  0  0  0  0  0  0  0  0
    6.9082   -3.5155   25.2376 H   0  0  0  0  0  0  0  0  0  0  0  0
    5.4489   -0.4782   25.9218 C   0  0  0  0  0  0  0  0  0  0  0  0
    5.1187   -0.7580   27.3903 C   0  0  0  0  0  0  0  0  0  0  0  0
    4.3806   -0.0284   27.7489 H   0  0  0  0  0  0  0  0  0  0  0  0
    4.6339   -1.7374   27.4879 H   0  0  0  0  0  0  0  0  0  0  0  0
    4.5480   -0.5799   25.3053 H   0  0  0  0  0  0  0  0  0  0  0  0
    5.7567    0.5724   25.8415 H   0  0  0  0  0  0  0  0  0  0  0  0
    8.5678   -2.0062   25.9302 H   0  0  0  0  0  0  0  0  0  0  0  0
    8.2350   -0.3171   26.2540 H   0  0  0  0  0  0  0  0  0  0  0  0
    8.3362   -1.5873   28.3725 H   0  0  0  0  0  0  0  0  0  0  0  0
    7.0968   -2.6898   27.8123 H   0  0  0  0  0  0  0  0  0  0  0  0
    6.7571    0.3023   28.2470 H   0  0  0  0  0  0  0  0  0  0  0  0
    5.2603   -0.3537   30.1272 H   0  0  0  0  0  0  0  0  0  0  0  0
    5.6194   -2.0557   29.8168 H   0  0  0  0  0  0  0  0  0  0  0  0
    6.9012   -0.9774   30.3745 H   0  0  0  0  0  0  0  0  0  0  0  0
  1  2  1  0
  2  3  1  0
  3  4  1  0
  5  4  1  1
  5  6  1  0
  6  7  1  0
  7  8  1  0
  8  9  1  0
  9 10  2  0
  9 11  1  0
 11 12  1  0
 12 13  2  0
 13 14  1  0
 14 15  2  0
 15 16  1  0
 16 17  2  0
 17 18  1  0
 18 19  2  0
 19 20  1  0
 20 21  2  0
 20 22  1  0
 19 23  1  0
 18 24  1  0
 17 25  1  0
 15 26  1  0
 13 27  1  0
 11 28  1  0
 11 29  1  0
  8 30  1  0
 30 31  1  0
 30 32  1  0
  7 33  1  0
  7 34  1  0
  6 35  1  0
  6 36  1  0
  5 37  1  0
 37 38  1  0
 38 39  1  0
 38 40  1  0
 37 41  1  0
 37 42  1  0
  4 43  1  0
  4 44  1  0
  3 45  1  0
  3 46  1  0
  2 47  1  1
  1 48  1  0
  1 49  1  0
  1 50  1  0
 38  2  1  0
 30  5  1  0
 21 12  1  0
 21 16  1  0
M  END
>  <cnnaffinities>  (14) 
[5.56446, 5.37414]

>  <score>  (14) 
5.56446

>  <index>  (14) 
18

>  <Smiles>  (14) 
C([C@]1(C(C([C@@]2(C(C(N(C(=O)C(c3c(nc(c4c(c(c(c(c34)[H])[H])[H])[H])[H])[H])([H])[H])C2([H])[H])([H])[H])([H])[H])C(C1([H])[H])([H])[H])([H])[H])([H])[H])[H])([H])([H])[H]

>  <h>  (14) 
<NA>

>  <Training>  (14) 
True

>  <Success>  (14) 
True

>  <enamine_searched>  (14) 
False

>  <enamine_id>  (14) 
nan

$$$$

     RDKit          3D

 67 71  0  0  0  0  0  0  0  0999 V2000
    6.2465   -7.5415   23.5412 O   0  0  0  0  0  0  0  0  0  0  0  0
    5.9389   -6.4529   23.0901 C   0  0  0  0  0  0  0  0  0  0  0  0
    7.0151   -5.3940   22.8481 C   0  0  0  0  0  0  0  0  0  0  0  0
    6.6745   -4.0081   23.2259 N   0  0  1  0  0  4  0  0  0  0  0  0
    6.3588   -3.8849   24.6883 C   0  0  0  0  0  0  0  0  0  0  0  0
    6.0853   -2.4534   25.0939 C   0  0  0  0  0  0  0  0  0  0  0  0
    5.4288   -2.1669   26.2933 C   0  0  0  0  0  0  0  0  0  0  0  0
    5.1975   -0.8535   26.6851 C   0  0  0  0  0  0  0  0  0  0  0  0
    5.6378    0.1824   25.8652 C   0  0  0  0  0  0  0  0  0  0  0  0
    5.3293    1.8343   26.3312 Cl  0  0  0  0  0  0  0  0  0  0  0  0
    6.3128   -0.0819   24.6824 C   0  0  0  0  0  0  0  0  0  0  0  0
    6.5534   -1.4058   24.3042 C   0  0  0  0  0  0  0  0  0  0  0  0
    7.2712   -1.6805   23.0073 C   0  0  2  0  0  0  0  0  0  0  0  0
    6.3207   -1.5322   21.8254 C   0  0  0  0  0  0  0  0  0  0  0  0
    5.3387   -2.2532   21.6740 O   0  0  0  0  0  0  0  0  0  0  0  0
    6.7233   -0.5614   20.9494 N   0  0  0  0  0  0  0  0  0  0  0  0
    6.0080   -0.0314   19.8522 C   0  0  0  0  0  0  0  0  0  0  0  0
    6.4249   -0.3050   18.5766 C   0  0  0  0  0  0  0  0  0  0  0  0
    5.8189    0.1590   17.4555 N   0  0  0  0  0  0  0  0  0  0  0  0
    4.7829    0.9463   17.6182 C   0  0  0  0  0  0  0  0  0  0  0  0
    4.2853    1.3592   18.8860 C   0  0  0  0  0  0  0  0  0  0  0  0
    3.1976    2.2609   19.0190 C   0  0  0  0  0  0  0  0  0  0  0  0
    2.7953    2.6899   20.2542 C   0  0  0  0  0  0  0  0  0  0  0  0
    3.4684    2.2488   21.4188 C   0  0  0  0  0  0  0  0  0  0  0  0
    4.5128    1.3647   21.3201 C   0  0  0  0  0  0  0  0  0  0  0  0
    4.9296    0.8804   20.0488 C   0  0  0  0  0  0  0  0  0  0  0  0
    5.0392    1.0484   22.2160 H   0  0  0  0  0  0  0  0  0  0  0  0
    3.1563    2.6173   22.3910 H   0  0  0  0  0  0  0  0  0  0  0  0
    1.9637    3.3809   20.3512 H   0  0  0  0  0  0  0  0  0  0  0  0
    2.7055    2.6100   18.1150 H   0  0  0  0  0  0  0  0  0  0  0  0
    4.2962    1.3164   16.7145 H   0  0  0  0  0  0  0  0  0  0  0  0
    7.2962   -0.9414   18.4196 H   0  0  0  0  0  0  0  0  0  0  0  0
    7.6963   -0.2966   20.9998 H   0  0  0  0  0  0  0  0  0  0  0  0
    7.8202   -3.0937   22.9189 C   0  0  0  0  0  0  0  0  0  0  0  0
    8.6364   -3.2644   23.6268 H   0  0  0  0  0  0  0  0  0  0  0  0
    8.1955   -3.2871   21.9113 H   0  0  0  0  0  0  0  0  0  0  0  0
    8.0653   -0.9471   22.8742 H   0  0  0  0  0  0  0  0  0  0  0  0
    6.6657    0.7418   24.0620 H   0  0  0  0  0  0  0  0  0  0  0  0
    4.6941   -0.6220   27.6202 H   0  0  0  0  0  0  0  0  0  0  0  0
    5.1022   -2.9773   26.9438 H   0  0  0  0  0  0  0  0  0  0  0  0
    7.2187   -4.2721   25.2566 H   0  0  0  0  0  0  0  0  0  0  0  0
    5.5002   -4.5156   24.9379 H   0  0  0  0  0  0  0  0  0  0  0  0
    5.8867   -3.6095   22.6676 H   0  0  0  0  0  0  0  0  0  0  0  0
    7.8908   -5.7290   23.4153 H   0  0  0  0  0  0  0  0  0  0  0  0
    7.3125   -5.3925   21.7922 H   0  0  0  0  0  0  0  0  0  0  0  0
    4.6613   -6.1378   22.7197 N   0  0  0  0  0  0  0  0  0  0  0  0
    3.5491   -6.9527   23.1708 C   0  0  0  0  0  0  0  0  0  0  0  0
    2.4865   -7.1273   22.0881 C   0  0  0  0  0  0  0  0  0  0  0  0
    1.2741   -7.8957   22.5562 C   0  0  0  0  0  0  0  0  0  0  0  0
    0.2897   -7.2729   23.3251 C   0  0  0  0  0  0  0  0  0  0  0  0
   -0.8296   -7.9776   23.7589 C   0  0  0  0  0  0  0  0  0  0  0  0
   -0.9816   -9.3200   23.4244 C   0  0  0  0  0  0  0  0  0  0  0  0
   -2.2058  -10.0909   23.7983 C   0  0  0  0  0  0  0  0  0  0  0  0
   -2.9035  -10.4346   22.6734 F   0  0  0  0  0  0  0  0  0  0  0  0
   -1.8388  -11.2574   24.4056 F   0  0  0  0  0  0  0  0  0  0  0  0
   -2.8774   -9.5395   24.4673 H   0  0  0  0  0  0  0  0  0  0  0  0
    0.0087   -9.9582   22.6828 C   0  0  0  0  0  0  0  0  0  0  0  0
    1.1200   -9.2471   22.2458 C   0  0  0  0  0  0  0  0  0  0  0  0
    1.8798   -9.7437   21.6466 H   0  0  0  0  0  0  0  0  0  0  0  0
   -0.1207  -11.0064   22.4239 H   0  0  0  0  0  0  0  0  0  0  0  0
   -1.5779   -7.4752   24.3714 H   0  0  0  0  0  0  0  0  0  0  0  0
    0.4165   -6.2226   23.5816 H   0  0  0  0  0  0  0  0  0  0  0  0
    2.1761   -6.1321   21.7398 H   0  0  0  0  0  0  0  0  0  0  0  0
    2.9359   -7.6500   21.2380 H   0  0  0  0  0  0  0  0  0  0  0  0
    3.0970   -6.5207   24.0733 H   0  0  0  0  0  0  0  0  0  0  0  0
    3.9607   -7.9169   23.4736 H   0  0  0  0  0  0  0  0  0  0  0  0
    4.4812   -5.1903   22.3989 H   0  0  0  0  0  0  0  0  0  0  0  0
  1  2  2  0
  2  3  1  0
  3  4  1  0
  4  5  1  0
  5  6  1  0
  6  7  2  0
  7  8  1  0
  8  9  2  0
  9 10  1  0
  9 11  1  0
 11 12  2  0
 12 13  1  0
 13 14  1  0
 14 15  2  0
 14 16  1  0
 16 17  1  0
 17 18  2  0
 18 19  1  0
 19 20  2  0
 20 21  1  0
 21 22  2  0
 22 23  1  0
 23 24  2  0
 24 25  1  0
 25 26  2  0
 25 27  1  0
 24 28  1  0
 23 29  1  0
 22 30  1  0
 20 31  1  0
 18 32  1  0
 16 33  1  0
 13 34  1  0
 34 35  1  0
 34 36  1  0
 13 37  1  6
 11 38  1  0
  8 39  1  0
  7 40  1  0
  5 41  1  0
  5 42  1  0
  4 43  1  6
  3 44  1  0
  3 45  1  0
  2 46  1  0
 46 47  1  0
 47 48  1  0
 48 49  1  0
 49 50  2  0
 50 51  1  0
 51 52  2  0
 52 53  1  0
 53 54  1  0
 53 55  1  0
 53 56  1  0
 52 57  1  0
 57 58  2  0
 58 59  1  0
 57 60  1  0
 51 61  1  0
 50 62  1  0
 48 63  1  0
 48 64  1  0
 47 65  1  0
 47 66  1  0
 46 67  1  0
 34  4  1  0
 58 49  1  0
 12  6  1  0
 26 17  1  0
 26 21  1  0
M  CHG  1   4   1
M  END
>  <cnnaffinities>  (15) 
[6.25113, 5.91034]

>  <score>  (15) 
6.25113

>  <index>  (15) 
19

>  <Smiles>  (15) 
O=C(C([N@+]1(C(c2c(c(c(Cl)c(c2[C@](C(=O)N(c2c(nc(c3c(c(c(c(c23)[H])[H])[H])[H])[H])[H])[H])(C1([H])[H])[H])[H])[H])[H])([H])[H])[H])([H])[H])N(C(C(c1c(c(c(C(F)(F)[H])c(c1[H])[H])[H])[H])([H])[H])([H])[H])[H]

>  <h>  (15) 
<NA>

>  <Training>  (15) 
True

>  <Success>  (15) 
True

>  <enamine_searched>  (15) 
False

>  <enamine_id>  (15) 
nan

$$$$

     RDKit          3D

 66 70  0  0  0  0  0  0  0  0999 V2000
    6.6931    5.2068   27.9490 C   0  0  0  0  0  0  0  0  0  0  0  0
    6.5600    3.9844   27.0421 C   0  0  0  0  0  0  0  0  0  0  0  0
    7.0719    4.2301   25.6421 C   0  0  0  0  0  0  0  0  0  0  0  0
    8.2455    4.3312   25.3822 O   0  0  0  0  0  0  0  0  0  0  0  0
    6.1250    4.3589   24.6290 N   0  0  0  0  0  0  0  0  0  0  0  0
    5.1631    5.4587   24.7969 C   0  0  0  0  0  0  0  0  0  0  0  0
    4.2355    5.5788   23.6010 C   0  0  0  0  0  0  0  0  0  0  0  0
    5.0758    5.7282   22.3384 C   0  0  0  0  0  0  0  0  0  0  0  0
    6.0658    4.5868   22.2422 C   0  0  0  0  0  0  0  0  0  0  0  0
    6.4741    4.1356   21.0060 C   0  0  0  0  0  0  0  0  0  0  0  0
    7.3046    3.0242   20.8494 C   0  0  0  0  0  0  0  0  0  0  0  0
    7.7880    2.3623   21.9695 C   0  0  0  0  0  0  0  0  0  0  0  0
    8.6637    1.2337   21.8041 N   0  0  0  0  0  0  0  0  0  0  0  0
    8.4058    0.0793   21.0277 C   0  0  0  0  0  0  0  0  0  0  0  0
    9.3201   -0.5884   20.5914 O   0  0  0  0  0  0  0  0  0  0  0  0
    6.9578   -0.4191   20.8978 C   0  0  0  0  0  0  0  0  0  0  0  0
    6.1347    0.1472   19.7684 C   0  0  0  0  0  0  0  0  0  0  0  0
    6.4446   -0.1794   18.4714 C   0  0  0  0  0  0  0  0  0  0  0  0
    5.7712    0.2441   17.3765 N   0  0  0  0  0  0  0  0  0  0  0  0
    4.7393    1.0343   17.5740 C   0  0  0  0  0  0  0  0  0  0  0  0
    4.2803    1.4311   18.8615 C   0  0  0  0  0  0  0  0  0  0  0  0
    3.1645    2.2902   19.0301 C   0  0  0  0  0  0  0  0  0  0  0  0
    2.7478    2.6521   20.2844 C   0  0  0  0  0  0  0  0  0  0  0  0
    3.4263    2.1640   21.4181 C   0  0  0  0  0  0  0  0  0  0  0  0
    4.5123    1.3332   21.2817 C   0  0  0  0  0  0  0  0  0  0  0  0
    4.9838    0.9630   19.9955 C   0  0  0  0  0  0  0  0  0  0  0  0
    5.0454    0.9946   22.1623 H   0  0  0  0  0  0  0  0  0  0  0  0
    3.0871    2.4512   22.4119 H   0  0  0  0  0  0  0  0  0  0  0  0
    1.8969    3.3186   20.4077 H   0  0  0  0  0  0  0  0  0  0  0  0
    2.6598    2.6616   18.1427 H   0  0  0  0  0  0  0  0  0  0  0  0
    4.2083    1.3957   16.6912 H   0  0  0  0  0  0  0  0  0  0  0  0
    7.2790   -0.8497   18.2703 H   0  0  0  0  0  0  0  0  0  0  0  0
    6.4288   -0.3206   21.8484 H   0  0  0  0  0  0  0  0  0  0  0  0
    7.1062   -1.4931   20.7261 H   0  0  0  0  0  0  0  0  0  0  0  0
    9.8785    1.2514   22.4660 N   0  0  0  0  0  0  0  0  0  0  0  0
   10.7777    2.3579   22.2276 C   0  0  0  0  0  0  0  0  0  0  0  0
   10.1956    3.2288   21.9090 H   0  0  0  0  0  0  0  0  0  0  0  0
   11.5400    2.1402   21.4724 H   0  0  0  0  0  0  0  0  0  0  0  0
   11.2963    2.5881   23.1613 H   0  0  0  0  0  0  0  0  0  0  0  0
   10.2475    0.1461   23.2318 C   0  0  0  0  0  0  0  0  0  0  0  0
    9.2693   -0.6102   23.8914 C   0  0  0  0  0  0  0  0  0  0  0  0
    9.6371   -1.7269   24.6290 C   0  0  0  0  0  0  0  0  0  0  0  0
   10.9691   -2.1244   24.7120 C   0  0  0  0  0  0  0  0  0  0  0  0
   11.9303   -1.3562   24.0738 C   0  0  0  0  0  0  0  0  0  0  0  0
   13.6145   -1.7841   24.2087 Cl  0  0  0  0  0  0  0  0  0  0  0  0
   11.5903   -0.2210   23.3506 C   0  0  0  0  0  0  0  0  0  0  0  0
   12.3804    0.3616   22.8991 H   0  0  0  0  0  0  0  0  0  0  0  0
   11.2696   -2.9825   25.3065 H   0  0  0  0  0  0  0  0  0  0  0  0
    8.8742   -2.2939   25.1533 H   0  0  0  0  0  0  0  0  0  0  0  0
    8.2265   -0.3141   23.8167 H   0  0  0  0  0  0  0  0  0  0  0  0
    7.4562    2.8368   23.2311 C   0  0  0  0  0  0  0  0  0  0  0  0
    6.5690    3.9258   23.3625 C   0  0  0  0  0  0  0  0  0  0  0  0
    7.8919    2.3309   24.0847 H   0  0  0  0  0  0  0  0  0  0  0  0
    7.5234    2.6052   19.8769 H   0  0  0  0  0  0  0  0  0  0  0  0
    6.0180    4.6728   20.1737 H   0  0  0  0  0  0  0  0  0  0  0  0
    5.6082    6.6932   22.3227 H   0  0  0  0  0  0  0  0  0  0  0  0
    4.4419    5.7230   21.4397 H   0  0  0  0  0  0  0  0  0  0  0  0
    3.5487    6.4262   23.7251 H   0  0  0  0  0  0  0  0  0  0  0  0
    3.6296    4.6683   23.5251 H   0  0  0  0  0  0  0  0  0  0  0  0
    4.6048    5.2660   25.7179 H   0  0  0  0  0  0  0  0  0  0  0  0
    5.6943    6.4195   24.9213 H   0  0  0  0  0  0  0  0  0  0  0  0
    7.1689    3.1589   27.4287 H   0  0  0  0  0  0  0  0  0  0  0  0
    5.5264    3.6282   26.9928 H   0  0  0  0  0  0  0  0  0  0  0  0
    6.1293    6.0661   27.5691 H   0  0  0  0  0  0  0  0  0  0  0  0
    7.7413    5.5006   28.0459 H   0  0  0  0  0  0  0  0  0  0  0  0
    6.3162    4.9700   28.9480 H   0  0  0  0  0  0  0  0  0  0  0  0
  1  2  1  0
  2  3  1  0
  3  4  2  0
  3  5  1  0
  5  6  1  0
  6  7  1  0
  7  8  1  0
  8  9  1  0
  9 10  2  0
 10 11  1  0
 11 12  2  0
 12 13  1  0
 13 14  1  0
 14 15  2  0
 14 16  1  0
 16 17  1  0
 17 18  2  0
 18 19  1  0
 19 20  2  0
 20 21  1  0
 21 22  2  0
 22 23  1  0
 23 24  2  0
 24 25  1  0
 25 26  2  0
 25 27  1  0
 24 28  1  0
 23 29  1  0
 22 30  1  0
 20 31  1  0
 18 32  1  0
 16 33  1  0
 16 34  1  0
 13 35  1  0
 35 36  1  0
 36 37  1  0
 36 38  1  0
 36 39  1  0
 35 40  1  0
 40 41  2  0
 41 42  1  0
 42 43  2  0
 43 44  1  0
 44 45  1  0
 44 46  2  0
 46 47  1  0
 43 48  1  0
 42 49  1  0
 41 50  1  0
 12 51  1  0
 51 52  2  0
 51 53  1  0
 11 54  1  0
 10 55  1  0
  8 56  1  0
  8 57  1  0
  7 58  1  0
  7 59  1  0
  6 60  1  0
  6 61  1  0
  2 62  1  0
  2 63  1  0
  1 64  1  0
  1 65  1  0
  1 66  1  0
 52  5  1  0
 52  9  1  0
 26 17  1  0
 46 40  1  0
 26 21  1  0
M  END
>  <cnnaffinities>  (16) 
[6.68513]

>  <score>  (16) 
6.68513

>  <index>  (16) 
20

>  <Smiles>  (16) 
C(C(C(=O)N1C(C(C(c2c(c(c(N(C(=O)C(c3c(nc(c4c(c(c(c(c34)[H])[H])[H])[H])[H])[H])([H])[H])N(C([H])([H])[H])c3c(c(c(c(Cl)c3[H])[H])[H])[H])c(c12)[H])[H])[H])([H])[H])([H])[H])([H])[H])([H])[H])([H])([H])[H]

>  <h>  (16) 
<NA>

>  <Training>  (16) 
True

>  <Success>  (16) 
True

>  <enamine_searched>  (16) 
False

>  <enamine_id>  (16) 
nan

$$$$

     RDKit          3D

 41 44  0  0  0  0  0  0  0  0999 V2000
    5.0823   -2.0754   21.2474 O   0  0  0  0  0  0  0  0  0  0  0  0
    6.2713   -1.8582   21.4451 C   0  0  0  0  0  0  0  0  0  0  0  0
    6.9205   -0.5773   20.9013 C   0  0  0  0  0  0  0  0  0  0  0  0
    6.1184    0.0395   19.7800 C   0  0  0  0  0  0  0  0  0  0  0  0
    6.4422   -0.2410   18.4776 C   0  0  0  0  0  0  0  0  0  0  0  0
    5.7889    0.2199   17.3771 N   0  0  0  0  0  0  0  0  0  0  0  0
    4.7618    1.0068   17.5882 C   0  0  0  0  0  0  0  0  0  0  0  0
    4.3048    1.3877   18.8775 C   0  0  0  0  0  0  0  0  0  0  0  0
    3.1932    2.2533   19.0437 C   0  0  0  0  0  0  0  0  0  0  0  0
    2.7739    2.6110   20.2958 C   0  0  0  0  0  0  0  0  0  0  0  0
    3.4533    2.1195   21.4321 C   0  0  0  0  0  0  0  0  0  0  0  0
    4.5293    1.2752   21.2969 C   0  0  0  0  0  0  0  0  0  0  0  0
    4.9915    0.8881   20.0102 C   0  0  0  0  0  0  0  0  0  0  0  0
    5.0287    0.8943   22.1818 H   0  0  0  0  0  0  0  0  0  0  0  0
    3.1157    2.4136   22.4220 H   0  0  0  0  0  0  0  0  0  0  0  0
    1.9207    3.2727   20.4245 H   0  0  0  0  0  0  0  0  0  0  0  0
    2.6905    2.6321   18.1569 H   0  0  0  0  0  0  0  0  0  0  0  0
    4.2284    1.3852   16.7144 H   0  0  0  0  0  0  0  0  0  0  0  0
    7.2953   -0.8828   18.2579 H   0  0  0  0  0  0  0  0  0  0  0  0
    7.0436    0.1283   21.7346 H   0  0  0  0  0  0  0  0  0  0  0  0
    7.9306   -0.8173   20.5418 H   0  0  0  0  0  0  0  0  0  0  0  0
    7.0521   -2.7561   22.1356 N   0  0  0  0  0  0  0  0  0  0  0  0
    8.4072   -2.4925   22.6237 C   0  0  0  0  0  0  0  0  0  0  0  0
    8.7103   -3.2286   23.9323 C   0  0  0  0  0  0  0  0  0  0  0  0
    8.2913   -4.6782   23.9212 C   0  0  0  0  0  0  0  0  0  0  0  0
    8.9381   -5.6633   24.6733 C   0  0  0  0  0  0  0  0  0  0  0  0
   10.1310   -5.2250   25.8634 Cl  0  0  0  0  0  0  0  0  0  0  0  0
    8.6852   -7.0142   24.4742 C   0  0  0  0  0  0  0  0  0  0  0  0
    7.7060   -7.4033   23.5641 C   0  0  0  0  0  0  0  0  0  0  0  0
    6.9884   -6.4303   22.8826 C   0  0  0  0  0  0  0  0  0  0  0  0
    7.2399   -5.0739   23.0898 C   0  0  0  0  0  0  0  0  0  0  0  0
    6.3964   -4.0363   22.3863 C   0  0  0  0  0  0  0  0  0  0  0  0
    6.0495   -4.4551   21.4358 H   0  0  0  0  0  0  0  0  0  0  0  0
    5.4646   -3.8080   22.9176 H   0  0  0  0  0  0  0  0  0  0  0  0
    6.2102   -6.7468   22.1949 H   0  0  0  0  0  0  0  0  0  0  0  0
    7.5330   -8.4624   23.3835 H   0  0  0  0  0  0  0  0  0  0  0  0
    9.2989   -7.7363   25.0017 H   0  0  0  0  0  0  0  0  0  0  0  0
    9.7833   -3.1761   24.1373 H   0  0  0  0  0  0  0  0  0  0  0  0
    8.2223   -2.6899   24.7477 H   0  0  0  0  0  0  0  0  0  0  0  0
    8.4994   -1.4163   22.8083 H   0  0  0  0  0  0  0  0  0  0  0  0
    9.1587   -2.7550   21.8667 H   0  0  0  0  0  0  0  0  0  0  0  0
  1  2  2  0
  2  3  1  0
  3  4  1  0
  4  5  2  0
  5  6  1  0
  6  7  2  0
  7  8  1  0
  8  9  2  0
  9 10  1  0
 10 11  2  0
 11 12  1  0
 12 13  2  0
 12 14  1  0
 11 15  1  0
 10 16  1  0
  9 17  1  0
  7 18  1  0
  5 19  1  0
  3 20  1  0
  3 21  1  0
  2 22  1  0
 22 23  1  0
 23 24  1  0
 24 25  1  0
 25 26  2  0
 26 27  1  0
 26 28  1  0
 28 29  2  0
 29 30  1  0
 30 31  2  0
 31 32  1  0
 32 33  1  0
 32 34  1  0
 30 35  1  0
 29 36  1  0
 28 37  1  0
 24 38  1  0
 24 39  1  0
 23 40  1  0
 23 41  1  0
 13  4  1  0
 32 22  1  0
 13  8  1  0
 31 25  1  0
M  END
>  <cnnaffinities>  (17) 
[5.69962]

>  <score>  (17) 
5.69962

>  <index>  (17) 
22

>  <Smiles>  (17) 
O=C(C(c1c(nc(c2c(c(c(c(c12)[H])[H])[H])[H])[H])[H])([H])[H])N1C(C(c2c(Cl)c(c(c(c2C1([H])[H])[H])[H])[H])([H])[H])([H])[H]

>  <h>  (17) 
<NA>

>  <Training>  (17) 
True

>  <Success>  (17) 
True

>  <enamine_searched>  (17) 
False

>  <enamine_id>  (17) 
nan

$$$$

     RDKit          3D

 69 74  0  0  0  0  0  0  0  0999 V2000
    1.7867   -8.6902   24.3791 C   0  0  0  0  0  0  0  0  0  0  0  0
    2.2159   -7.9326   23.1386 C   0  0  1  0  0  0  0  0  0  0  0  0
    3.1477   -6.7779   23.5351 C   0  0  0  0  0  0  0  0  0  0  0  0
    3.7320   -6.1165   22.3248 N   0  0  1  0  0  4  0  0  0  0  0  0
    4.5159   -4.8686   22.5837 C   0  0  0  0  0  0  0  0  0  0  0  0
    5.7961   -5.0187   23.4162 C   0  0  0  0  0  0  0  0  0  0  0  0
    6.2964   -3.7028   23.8027 N   0  0  0  0  0  0  0  0  0  0  0  0
    7.4736   -3.1311   23.1726 C   0  0  0  0  0  0  0  0  0  0  0  0
    7.3255   -1.6185   22.8696 C   0  0  2  0  0  0  0  0  0  0  0  0
    6.3325   -1.4051   21.7106 C   0  0  0  0  0  0  0  0  0  0  0  0
    5.2371   -1.9201   21.5833 O   0  0  0  0  0  0  0  0  0  0  0  0
    6.8692   -0.5057   20.8271 N   0  0  0  0  0  0  0  0  0  0  0  0
    6.1107    0.0514   19.7699 C   0  0  0  0  0  0  0  0  0  0  0  0
    6.4609   -0.2192   18.4720 C   0  0  0  0  0  0  0  0  0  0  0  0
    5.7991    0.2411   17.3824 N   0  0  0  0  0  0  0  0  0  0  0  0
    4.7631    1.0170   17.5983 C   0  0  0  0  0  0  0  0  0  0  0  0
    4.3105    1.4023   18.8924 C   0  0  0  0  0  0  0  0  0  0  0  0
    3.1977    2.2682   19.0560 C   0  0  0  0  0  0  0  0  0  0  0  0
    2.7990    2.6532   20.3053 C   0  0  0  0  0  0  0  0  0  0  0  0
    3.4984    2.1959   21.4462 C   0  0  0  0  0  0  0  0  0  0  0  0
    4.5753    1.3537   21.3202 C   0  0  0  0  0  0  0  0  0  0  0  0
    5.0012    0.9209   20.0271 C   0  0  0  0  0  0  0  0  0  0  0  0
    5.1045    1.0152   22.2128 H   0  0  0  0  0  0  0  0  0  0  0  0
    3.1723    2.5160   22.4317 H   0  0  0  0  0  0  0  0  0  0  0  0
    1.9495    3.3192   20.4297 H   0  0  0  0  0  0  0  0  0  0  0  0
    2.6870    2.6262   18.1658 H   0  0  0  0  0  0  0  0  0  0  0  0
    4.2261    1.3882   16.7244 H   0  0  0  0  0  0  0  0  0  0  0  0
    7.3136   -0.8674   18.2730 H   0  0  0  0  0  0  0  0  0  0  0  0
    8.1988   -0.0520   21.1638 C   0  0  0  0  0  0  0  0  0  0  0  0
    8.6407   -0.9626   22.3307 C   0  0  2  0  0  0  0  0  0  0  0  0
    9.7289   -1.9363   21.8558 C   0  0  0  0  0  0  0  0  0  0  0  0
   10.5893   -1.3780   21.4694 H   0  0  0  0  0  0  0  0  0  0  0  0
    9.3670   -2.5850   21.0508 H   0  0  0  0  0  0  0  0  0  0  0  0
   10.0941   -2.5661   22.6716 H   0  0  0  0  0  0  0  0  0  0  0  0
    9.0910   -0.3650   23.1310 H   0  0  0  0  0  0  0  0  0  0  0  0
    8.1994    1.0147   21.4288 H   0  0  0  0  0  0  0  0  0  0  0  0
    8.8630   -0.1646   20.3067 H   0  0  0  0  0  0  0  0  0  0  0  0
    6.7893   -0.9205   24.1182 C   0  0  0  0  0  0  0  0  0  0  0  0
    6.9744    0.4563   24.3179 C   0  0  0  0  0  0  0  0  0  0  0  0
    6.4476    1.0747   25.4404 C   0  0  0  0  0  0  0  0  0  0  0  0
    6.7017    2.7824   25.6786 Cl  0  0  0  0  0  0  0  0  0  0  0  0
    5.7185    0.3608   26.3887 C   0  0  0  0  0  0  0  0  0  0  0  0
    5.5073   -0.9884   26.1801 C   0  0  0  0  0  0  0  0  0  0  0  0
    6.0214   -1.6264   25.0509 C   0  0  0  0  0  0  0  0  0  0  0  0
    5.6796   -3.0756   24.8460 C   0  0  0  0  0  0  0  0  0  0  0  0
    4.8596   -3.6466   25.5604 O   0  0  0  0  0  0  0  0  0  0  0  0
    4.9282   -1.5801   26.8809 H   0  0  0  0  0  0  0  0  0  0  0  0
    5.3173    0.8677   27.2599 H   0  0  0  0  0  0  0  0  0  0  0  0
    7.5305    1.0691   23.6141 H   0  0  0  0  0  0  0  0  0  0  0  0
    7.6626   -3.6669   22.2411 H   0  0  0  0  0  0  0  0  0  0  0  0
    8.3458   -3.2606   23.8284 H   0  0  0  0  0  0  0  0  0  0  0  0
    5.6070   -5.5836   24.3349 H   0  0  0  0  0  0  0  0  0  0  0  0
    6.5741   -5.5389   22.8442 H   0  0  0  0  0  0  0  0  0  0  0  0
    4.7643   -4.4191   21.6180 H   0  0  0  0  0  0  0  0  0  0  0  0
    3.8462   -4.1815   23.1058 H   0  0  0  0  0  0  0  0  0  0  0  0
    4.4072   -7.1829   21.5047 C   0  0  0  0  0  0  0  0  0  0  0  0
    3.3708   -8.2429   21.1174 C   0  0  0  0  0  0  0  0  0  0  0  0
    2.8132   -8.8652   22.2668 O   0  0  0  0  0  0  0  0  0  0  0  0
    3.8401   -9.0574   20.5633 H   0  0  0  0  0  0  0  0  0  0  0  0
    2.5687   -7.8294   20.4886 H   0  0  0  0  0  0  0  0  0  0  0  0
    4.8780   -6.7314   20.6279 H   0  0  0  0  0  0  0  0  0  0  0  0
    5.1748   -7.6568   22.1220 H   0  0  0  0  0  0  0  0  0  0  0  0
    2.9130   -5.7932   21.7778 H   0  0  0  0  0  0  0  0  0  0  0  0
    2.5879   -6.0471   24.1232 H   0  0  0  0  0  0  0  0  0  0  0  0
    3.9650   -7.1437   24.1604 H   0  0  0  0  0  0  0  0  0  0  0  0
    1.3524   -7.5054   22.5921 H   0  0  0  0  0  0  0  0  0  0  0  0
    1.2538   -9.6035   24.1081 H   0  0  0  0  0  0  0  0  0  0  0  0
    2.6460   -8.9565   25.0103 H   0  0  0  0  0  0  0  0  0  0  0  0
    1.1234   -8.0674   24.9786 H   0  0  0  0  0  0  0  0  0  0  0  0
  1  2  1  0
  2  3  1  0
  3  4  1  0
  4  5  1  0
  5  6  1  0
  6  7  1  0
  7  8  1  0
  9  8  1  1
  9 10  1  0
 10 11  2  0
 10 12  1  0
 12 13  1  0
 13 14  2  0
 14 15  1  0
 15 16  2  0
 16 17  1  0
 17 18  2  0
 18 19  1  0
 19 20  2  0
 20 21  1  0
 21 22  2  0
 21 23  1  0
 20 24  1  0
 19 25  1  0
 18 26  1  0
 16 27  1  0
 14 28  1  0
 12 29  1  0
 29 30  1  0
 30 31  1  0
 31 32  1  0
 31 33  1  0
 31 34  1  0
 30 35  1  1
 29 36  1  0
 29 37  1  0
  9 38  1  0
 38 39  2  0
 39 40  1  0
 40 41  1  0
 40 42  2  0
 42 43  1  0
 43 44  2  0
 44 45  1  0
 45 46  2  0
 43 47  1  0
 42 48  1  0
 39 49  1  0
  8 50  1  0
  8 51  1  0
  6 52  1  0
  6 53  1  0
  5 54  1  0
  5 55  1  0
  4 56  1  0
 56 57  1  0
 57 58  1  0
 57 59  1  0
 57 60  1  0
 56 61  1  0
 56 62  1  0
  4 63  1  6
  3 64  1  0
  3 65  1  0
  2 66  1  6
  1 67  1  0
  1 68  1  0
  1 69  1  0
 58  2  1  0
 45  7  1  0
 30  9  1  0
 44 38  1  0
 22 13  1  0
 22 17  1  0
M  CHG  1   4   1
M  END
>  <cnnaffinities>  (18) 
[6.51754]

>  <score>  (18) 
6.51754

>  <index>  (18) 
23

>  <Smiles>  (18) 
C([C@]1(C([N@@+](C(C(N2C([C@@]3(C(=O)N(c4c(nc(c5c(c(c(c(c45)[H])[H])[H])[H])[H])[H])C([C@@]3(C([H])([H])[H])[H])([H])[H])c3c(c(Cl)c(c(c3C2=O)[H])[H])[H])([H])[H])([H])[H])([H])[H])(C(C(O1)([H])[H])([H])[H])[H])([H])[H])[H])([H])([H])[H]

>  <h>  (18) 
<NA>

>  <Training>  (18) 
True

>  <Success>  (18) 
True

>  <enamine_searched>  (18) 
False

>  <enamine_id>  (18) 
nan

$$$$

     RDKit          3D

 70 75  0  0  0  0  0  0  0  0999 V2000
    6.8589   -8.5457   23.4471 C   0  0  0  0  0  0  0  0  0  0  0  0
    6.9138   -7.0772   23.2631 N   0  0  0  0  0  4  0  0  0  0  0  0
    6.5972   -6.6356   21.8664 C   0  0  0  0  0  0  0  0  0  0  0  0
    5.4476   -5.6159   21.8341 C   0  0  0  0  0  0  0  0  0  0  0  0
    5.7766   -4.3984   22.5717 N   0  0  0  0  0  0  0  0  0  0  0  0
    6.8187   -3.5890   21.9586 C   0  0  0  0  0  0  0  0  0  0  0  0
    6.8570   -2.1310   22.4991 C   0  0  2  0  0  0  0  0  0  0  0  0
    5.8998   -1.3385   21.6095 C   0  0  0  0  0  0  0  0  0  0  0  0
    4.6916   -1.4677   21.5852 O   0  0  0  0  0  0  0  0  0  0  0  0
    6.6316   -0.5589   20.7285 N   0  0  0  0  0  0  0  0  0  0  0  0
    5.9923    0.0363   19.6183 C   0  0  0  0  0  0  0  0  0  0  0  0
    6.3593   -0.2940   18.3359 C   0  0  0  0  0  0  0  0  0  0  0  0
    5.7617    0.1830   17.2169 N   0  0  0  0  0  0  0  0  0  0  0  0
    4.7703    1.0285   17.3787 C   0  0  0  0  0  0  0  0  0  0  0  0
    4.2906    1.4581   18.6462 C   0  0  0  0  0  0  0  0  0  0  0  0
    3.2166    2.3798   18.7561 C   0  0  0  0  0  0  0  0  0  0  0  0
    2.7362    2.7491   19.9851 C   0  0  0  0  0  0  0  0  0  0  0  0
    3.3392    2.2372   21.1541 C   0  0  0  0  0  0  0  0  0  0  0  0
    4.4058    1.3802   21.0755 C   0  0  0  0  0  0  0  0  0  0  0  0
    4.9032    0.9513   19.8087 C   0  0  0  0  0  0  0  0  0  0  0  0
    4.8573    1.0182   21.9907 H   0  0  0  0  0  0  0  0  0  0  0  0
    2.9452    2.5168   22.1280 H   0  0  0  0  0  0  0  0  0  0  0  0
    1.9053    3.4442   20.0667 H   0  0  0  0  0  0  0  0  0  0  0  0
    2.7908    2.7872   17.8448 H   0  0  0  0  0  0  0  0  0  0  0  0
    4.2879    1.4149   16.4808 H   0  0  0  0  0  0  0  0  0  0  0  0
    7.1577   -1.0139   18.1598 H   0  0  0  0  0  0  0  0  0  0  0  0
    8.0803   -0.7618   20.8499 C   0  0  0  0  0  0  0  0  0  0  0  0
    8.2187   -1.4746   22.2073 C   0  0  2  0  0  0  0  0  0  0  0  0
    9.3943   -2.4447   22.3723 C   0  0  0  0  0  0  0  0  0  0  0  0
   10.6302   -1.7940   22.3159 O   0  0  0  0  0  0  0  0  0  0  0  0
   11.0935   -1.2970   23.5552 C   0  0  0  0  0  0  0  0  0  0  0  0
   12.0529   -0.2031   23.1570 C   0  0  0  0  0  0  0  0  0  0  0  0
   11.3862    0.9612   22.4142 C   0  0  0  0  0  0  0  0  0  0  0  0
   12.1180    1.9234   23.1819 O   0  0  0  0  0  0  0  0  0  0  0  0
   12.5180    0.9011   24.1066 C   0  0  0  0  0  0  0  0  0  0  0  0
   11.9331    0.9598   25.0339 H   0  0  0  0  0  0  0  0  0  0  0  0
   13.5891    0.9533   24.3127 H   0  0  0  0  0  0  0  0  0  0  0  0
   11.5541    1.0410   21.3414 H   0  0  0  0  0  0  0  0  0  0  0  0
   10.3103    1.0331   22.6215 H   0  0  0  0  0  0  0  0  0  0  0  0
   12.8673   -0.6455   22.5789 H   0  0  0  0  0  0  0  0  0  0  0  0
   11.5568   -2.1082   24.1403 H   0  0  0  0  0  0  0  0  0  0  0  0
   10.2624   -0.8960   24.1638 H   0  0  0  0  0  0  0  0  0  0  0  0
    9.2914   -3.0061   23.3247 H   0  0  0  0  0  0  0  0  0  0  0  0
    9.4119   -3.1708   21.5519 H   0  0  0  0  0  0  0  0  0  0  0  0
    8.3641   -0.6859   22.9496 H   0  0  0  0  0  0  0  0  0  0  0  0
    8.6069    0.1980   20.8445 H   0  0  0  0  0  0  0  0  0  0  0  0
    8.4919   -1.3748   20.0394 H   0  0  0  0  0  0  0  0  0  0  0  0
    6.5244   -2.0668   23.9749 C   0  0  0  0  0  0  0  0  0  0  0  0
    6.7668   -0.8947   24.7157 C   0  0  0  0  0  0  0  0  0  0  0  0
    6.5857   -0.8976   26.0860 C   0  0  0  0  0  0  0  0  0  0  0  0
    6.9943    0.5231   27.0041 Cl  0  0  0  0  0  0  0  0  0  0  0  0
    6.1197   -2.0219   26.7668 C   0  0  0  0  0  0  0  0  0  0  0  0
    5.8141   -3.1473   26.0325 C   0  0  0  0  0  0  0  0  0  0  0  0
    6.0068   -3.1711   24.6535 C   0  0  0  0  0  0  0  0  0  0  0  0
    5.6414   -4.4161   23.9282 C   0  0  0  0  0  0  0  0  0  0  0  0
    5.2398   -5.4166   24.5316 O   0  0  0  0  0  0  0  0  0  0  0  0
    5.4195   -4.0465   26.4898 H   0  0  0  0  0  0  0  0  0  0  0  0
    5.9899   -2.0032   27.8436 H   0  0  0  0  0  0  0  0  0  0  0  0
    7.0886    0.0266   24.2373 H   0  0  0  0  0  0  0  0  0  0  0  0
    7.7926   -4.0641   22.1092 H   0  0  0  0  0  0  0  0  0  0  0  0
    6.6365   -3.5707   20.8793 H   0  0  0  0  0  0  0  0  0  0  0  0
    5.2329   -5.3344   20.7997 H   0  0  0  0  0  0  0  0  0  0  0  0
    4.5323   -6.0341   22.2629 H   0  0  0  0  0  0  0  0  0  0  0  0
    7.4819   -6.1816   21.4060 H   0  0  0  0  0  0  0  0  0  0  0  0
    6.3412   -7.5141   21.2716 H   0  0  0  0  0  0  0  0  0  0  0  0
    6.2068   -6.6488   23.8976 H   0  0  0  0  0  0  0  0  0  0  0  0
    7.8536   -6.7465   23.5581 H   0  0  0  0  0  0  0  0  0  0  0  0
    5.8241   -8.8598   23.6079 H   0  0  0  0  0  0  0  0  0  0  0  0
    7.2381   -9.0685   22.5606 H   0  0  0  0  0  0  0  0  0  0  0  0
    7.4673   -8.8335   24.3055 H   0  0  0  0  0  0  0  0  0  0  0  0
  1  2  1  0
  2  3  1  0
  3  4  1  0
  4  5  1  0
  5  6  1  0
  7  6  1  6
  7  8  1  0
  8  9  2  0
  8 10  1  0
 10 11  1  0
 11 12  2  0
 12 13  1  0
 13 14  2  0
 14 15  1  0
 15 16  2  0
 16 17  1  0
 17 18  2  0
 18 19  1  0
 19 20  2  0
 19 21  1  0
 18 22  1  0
 17 23  1  0
 16 24  1  0
 14 25  1  0
 12 26  1  0
 10 27  1  0
 27 28  1  0
 28 29  1  0
 29 30  1  0
 30 31  1  0
 31 32  1  0
 32 33  1  0
 33 34  1  0
 34 35  1  0
 35 36  1  0
 35 37  1  0
 33 38  1  0
 33 39  1  0
 32 40  1  0
 31 41  1  0
 31 42  1  0
 29 43  1  0
 29 44  1  0
 28 45  1  1
 27 46  1  0
 27 47  1  0
  7 48  1  0
 48 49  2  0
 49 50  1  0
 50 51  1  0
 50 52  2  0
 52 53  1  0
 53 54  2  0
 54 55  1  0
 55 56  2  0
 53 57  1  0
 52 58  1  0
 49 59  1  0
  6 60  1  0
  6 61  1  0
  4 62  1  0
  4 63  1  0
  3 64  1  0
  3 65  1  0
  2 66  1  0
  2 67  1  0
  1 68  1  0
  1 69  1  0
  1 70  1  0
 55  5  1  0
 28  7  1  0
 35 32  1  0
 54 48  1  0
 20 11  1  0
 20 15  1  0
M  CHG  1   2   1
M  END
>  <cnnaffinities>  (19) 
[6.42739]

>  <score>  (19) 
6.42739

>  <index>  (19) 
24

>  <Smiles>  (19) 
C([N+](C(C(N1C([C@@]2(C(=O)N(c3c(nc(c4c(c(c(c(c34)[H])[H])[H])[H])[H])[H])C([C@@]2(C(OC(C2(C(OC2([H])[H])([H])[H])[H])([H])[H])([H])[H])[H])([H])[H])c2c(c(Cl)c(c(c2C1=O)[H])[H])[H])([H])[H])([H])[H])([H])[H])([H])[H])([H])([H])[H]

>  <h>  (19) 
<NA>

>  <Training>  (19) 
True

>  <Success>  (19) 
True

>  <enamine_searched>  (19) 
False

>  <enamine_id>  (19) 
nan

$$$$

     RDKit          3D

 68 73  0  0  0  0  0  0  0  0999 V2000
    7.5464   -8.4303   23.0724 C   0  0  0  0  0  0  0  0  0  0  0  0
    6.6606   -7.3072   22.8391 N   0  0  0  0  0  0  0  0  0  0  0  0
    6.8641   -6.4974   21.7723 C   0  0  0  0  0  0  0  0  0  0  0  0
    7.6732   -6.7105   20.8846 O   0  0  0  0  0  0  0  0  0  0  0  0
    6.0550   -5.2088   21.7931 C   0  0  0  0  0  0  0  0  0  0  0  0
    6.6326   -4.2617   22.7213 N   0  0  0  0  0  0  0  0  0  0  0  0
    7.7350   -3.4047   22.3139 C   0  0  0  0  0  0  0  0  0  0  0  0
    7.4099   -1.9323   22.6596 C   0  0  2  0  0  0  0  0  0  0  0  0
    6.3137   -1.4610   21.6738 C   0  0  0  0  0  0  0  0  0  0  0  0
    5.1877   -1.9003   21.5679 O   0  0  0  0  0  0  0  0  0  0  0  0
    6.8442   -0.4768   20.8639 N   0  0  0  0  0  0  0  0  0  0  0  0
    6.1158    0.0697   19.7893 C   0  0  0  0  0  0  0  0  0  0  0  0
    6.4762   -0.2151   18.4952 C   0  0  0  0  0  0  0  0  0  0  0  0
    5.8216    0.2304   17.3967 N   0  0  0  0  0  0  0  0  0  0  0  0
    4.7840    1.0069   17.6001 C   0  0  0  0  0  0  0  0  0  0  0  0
    4.3242    1.4043   18.8877 C   0  0  0  0  0  0  0  0  0  0  0  0
    3.2043    2.2629   19.0357 C   0  0  0  0  0  0  0  0  0  0  0  0
    2.7975    2.6566   20.2807 C   0  0  0  0  0  0  0  0  0  0  0  0
    3.4882    2.2166   21.4304 C   0  0  0  0  0  0  0  0  0  0  0  0
    4.5710    1.3789   21.3142 C   0  0  0  0  0  0  0  0  0  0  0  0
    5.0064    0.9405   20.0289 C   0  0  0  0  0  0  0  0  0  0  0  0
    5.0964    1.0423   22.2017 H   0  0  0  0  0  0  0  0  0  0  0  0
    3.1575    2.5431   22.4127 H   0  0  0  0  0  0  0  0  0  0  0  0
    1.9459    3.3210   20.3926 H   0  0  0  0  0  0  0  0  0  0  0  0
    2.6992    2.6101   18.1398 H   0  0  0  0  0  0  0  0  0  0  0  0
    4.2485    1.3624   16.7213 H   0  0  0  0  0  0  0  0  0  0  0  0
    7.3276   -0.8684   18.3095 H   0  0  0  0  0  0  0  0  0  0  0  0
    8.2907   -0.4024   20.9441 C   0  0  0  0  0  0  0  0  0  0  0  0
    8.5868   -0.9719   22.3321 C   0  0  2  0  0  0  0  0  0  0  0  0
    9.9867   -1.5616   22.3987 C   0  0  0  0  0  0  0  0  0  0  0  0
   10.2290   -2.1878   23.6770 N   0  0  0  0  0  0  0  0  0  0  0  0
   11.5090   -2.6031   24.0077 C   0  0  0  0  0  0  0  0  0  0  0  0
   12.6903   -2.5742   23.2364 C   0  0  0  0  0  0  0  0  0  0  0  0
   13.7297   -3.0396   23.9193 N   0  0  0  0  0  0  0  0  0  0  0  0
   13.2419   -3.3808   25.1216 N   0  0  0  0  0  0  0  0  0  0  0  0
   14.1101   -4.1293   26.0195 C   0  0  0  0  0  0  0  0  0  0  0  0
   15.0776   -4.1900   25.5203 H   0  0  0  0  0  0  0  0  0  0  0  0
   13.7543   -5.1543   26.2011 H   0  0  0  0  0  0  0  0  0  0  0  0
   14.2386   -3.6227   26.9768 H   0  0  0  0  0  0  0  0  0  0  0  0
   11.8854   -3.2128   25.1805 C   0  0  0  0  0  0  0  0  0  0  0  0
   11.2736   -3.4660   26.0322 H   0  0  0  0  0  0  0  0  0  0  0  0
   12.7662   -2.2951   22.1956 H   0  0  0  0  0  0  0  0  0  0  0  0
    9.6720   -1.8841   24.4631 H   0  0  0  0  0  0  0  0  0  0  0  0
   10.7322   -0.7788   22.1843 H   0  0  0  0  0  0  0  0  0  0  0  0
   10.0970   -2.3190   21.6097 H   0  0  0  0  0  0  0  0  0  0  0  0
    8.5386   -0.1406   23.0398 H   0  0  0  0  0  0  0  0  0  0  0  0
    8.6284    0.6330   20.8418 H   0  0  0  0  0  0  0  0  0  0  0  0
    8.7805   -0.9982   20.1578 H   0  0  0  0  0  0  0  0  0  0  0  0
    6.9357   -1.8791   24.1067 C   0  0  0  0  0  0  0  0  0  0  0  0
    6.9037   -0.6673   24.8139 C   0  0  0  0  0  0  0  0  0  0  0  0
    6.4234   -0.6244   26.1121 C   0  0  0  0  0  0  0  0  0  0  0  0
    6.3753    0.9095   26.9434 Cl  0  0  0  0  0  0  0  0  0  0  0  0
    5.9757   -1.7708   26.7699 C   0  0  0  0  0  0  0  0  0  0  0  0
    5.9739   -2.9635   26.0735 C   0  0  0  0  0  0  0  0  0  0  0  0
    6.4160   -3.0130   24.7532 C   0  0  0  0  0  0  0  0  0  0  0  0
    6.2017   -4.2781   24.0060 C   0  0  0  0  0  0  0  0  0  0  0  0
    5.6062   -5.2468   24.4895 O   0  0  0  0  0  0  0  0  0  0  0  0
    5.6048   -3.8757   26.5299 H   0  0  0  0  0  0  0  0  0  0  0  0
    5.6160   -1.7145   27.7930 H   0  0  0  0  0  0  0  0  0  0  0  0
    7.2199    0.2645   24.3579 H   0  0  0  0  0  0  0  0  0  0  0  0
    7.8766   -3.5070   21.2412 H   0  0  0  0  0  0  0  0  0  0  0  0
    8.6748   -3.7028   22.7943 H   0  0  0  0  0  0  0  0  0  0  0  0
    6.0621   -4.7634   20.7990 H   0  0  0  0  0  0  0  0  0  0  0  0
    5.0238   -5.4095   22.0954 H   0  0  0  0  0  0  0  0  0  0  0  0
    6.2011   -6.8833   23.6368 H   0  0  0  0  0  0  0  0  0  0  0  0
    8.5671   -8.0938   23.2928 H   0  0  0  0  0  0  0  0  0  0  0  0
    7.5348   -9.0838   22.1993 H   0  0  0  0  0  0  0  0  0  0  0  0
    7.1887   -9.0060   23.9271 H   0  0  0  0  0  0  0  0  0  0  0  0
  1  2  1  0
  2  3  1  0
  3  4  2  0
  3  5  1  0
  5  6  1  0
  6  7  1  0
  8  7  1  6
  8  9  1  0
  9 10  2  0
  9 11  1  0
 11 12  1  0
 12 13  2  0
 13 14  1  0
 14 15  2  0
 15 16  1  0
 16 17  2  0
 17 18  1  0
 18 19  2  0
 19 20  1  0
 20 21  2  0
 20 22  1  0
 19 23  1  0
 18 24  1  0
 17 25  1  0
 15 26  1  0
 13 27  1  0
 11 28  1  0
 28 29  1  0
 29 30  1  0
 30 31  1  0
 31 32  1  0
 32 33  1  0
 33 34  2  0
 34 35  1  0
 35 36  1  0
 36 37  1  0
 36 38  1  0
 36 39  1  0
 35 40  1  0
 40 41  1  0
 33 42  1  0
 31 43  1  0
 30 44  1  0
 30 45  1  0
 29 46  1  1
 28 47  1  0
 28 48  1  0
  8 49  1  0
 49 50  2  0
 50 51  1  0
 51 52  1  0
 51 53  2  0
 53 54  1  0
 54 55  2  0
 55 56  1  0
 56 57  2  0
 54 58  1  0
 53 59  1  0
 50 60  1  0
  7 61  1  0
  7 62  1  0
  5 63  1  0
  5 64  1  0
  2 65  1  0
  1 66  1  0
  1 67  1  0
  1 68  1  0
 56  6  1  0
 29  8  1  0
 40 32  2  0
 55 49  1  0
 21 12  1  0
 21 16  1  0
M  END
>  <cnnaffinities>  (20) 
[7.54116]

>  <score>  (20) 
7.54116

>  <index>  (20) 
25

>  <Smiles>  (20) 
C(N(C(=O)C(N1C([C@@]2(C(=O)N(c3c(nc(c4c(c(c(c(c34)[H])[H])[H])[H])[H])[H])C([C@@]2(C(N(c2c(nn(C([H])([H])[H])c2[H])[H])[H])([H])[H])[H])([H])[H])c2c(c(Cl)c(c(c2C1=O)[H])[H])[H])([H])[H])([H])[H])[H])([H])([H])[H]

>  <h>  (20) 
<NA>

>  <Training>  (20) 
True

>  <Success>  (20) 
True

>  <enamine_searched>  (20) 
False

>  <enamine_id>  (20) 
nan

$$$$

     RDKit          3D

 43 47  0  0  0  0  0  0  0  0999 V2000
    8.8773    0.6210   20.6565 O   0  0  0  0  0  0  0  0  0  0  0  0
    8.2194   -0.2978   21.0845 C   0  0  0  0  0  0  0  0  0  0  0  0
    8.6396   -1.3756   21.8186 N   0  0  0  0  0  0  0  0  0  0  0  0
    7.5483   -2.0991   22.4373 C   0  0  1  0  0  0  0  0  0  0  0  0
    7.5714   -3.6338   22.4781 C   0  0  0  0  0  0  0  0  0  0  0  0
    7.5342   -3.6317   24.0366 C   0  0  2  0  0  0  0  0  0  0  0  0
    6.3609   -4.3358   24.6864 C   0  0  0  0  0  0  0  0  0  0  0  0
    5.6599   -3.7671   25.7581 C   0  0  0  0  0  0  0  0  0  0  0  0
    4.4928   -4.3373   26.2529 C   0  0  0  0  0  0  0  0  0  0  0  0
    3.9492   -5.4557   25.6251 C   0  0  0  0  0  0  0  0  0  0  0  0
    4.6439   -6.0689   24.5913 C   0  0  0  0  0  0  0  0  0  0  0  0
    5.8834   -5.5642   24.2088 C   0  0  0  0  0  0  0  0  0  0  0  0
    6.8708   -6.5274   23.1346 Cl  0  0  0  0  0  0  0  0  0  0  0  0
    4.2673   -6.9721   24.1194 H   0  0  0  0  0  0  0  0  0  0  0  0
    3.0063   -5.8683   25.9628 H   0  0  0  0  0  0  0  0  0  0  0  0
    3.9685   -3.8697   27.0796 H   0  0  0  0  0  0  0  0  0  0  0  0
    6.0232   -2.8449   26.2092 H   0  0  0  0  0  0  0  0  0  0  0  0
    7.4607   -2.0765   23.9806 C   0  0  0  0  0  0  0  0  0  0  0  0
    8.2937   -1.5446   24.4500 H   0  0  0  0  0  0  0  0  0  0  0  0
    6.5040   -1.6585   24.2971 H   0  0  0  0  0  0  0  0  0  0  0  0
    8.4702   -3.9996   24.4715 H   0  0  0  0  0  0  0  0  0  0  0  0
    8.4543   -4.0900   22.0276 H   0  0  0  0  0  0  0  0  0  0  0  0
    6.6644   -4.0383   22.0298 H   0  0  0  0  0  0  0  0  0  0  0  0
    6.3447   -1.5202   21.7071 C   0  0  0  0  0  0  0  0  0  0  0  0
    5.1947   -1.8650   21.7937 O   0  0  0  0  0  0  0  0  0  0  0  0
    6.8351   -0.4826   20.9029 N   0  0  0  0  0  0  0  0  0  0  0  0
    6.1220    0.0782   19.8095 C   0  0  0  0  0  0  0  0  0  0  0  0
    6.4833   -0.2178   18.5193 C   0  0  0  0  0  0  0  0  0  0  0  0
    5.8255    0.2259   17.4190 N   0  0  0  0  0  0  0  0  0  0  0  0
    4.7900    1.0032   17.6178 C   0  0  0  0  0  0  0  0  0  0  0  0
    4.3294    1.4035   18.9007 C   0  0  0  0  0  0  0  0  0  0  0  0
    3.2141    2.2603   19.0536 C   0  0  0  0  0  0  0  0  0  0  0  0
    2.8110    2.6409   20.3012 C   0  0  0  0  0  0  0  0  0  0  0  0
    3.5011    2.1932   21.4477 C   0  0  0  0  0  0  0  0  0  0  0  0
    4.5825    1.3606   21.3274 C   0  0  0  0  0  0  0  0  0  0  0  0
    5.0131    0.9394   20.0412 C   0  0  0  0  0  0  0  0  0  0  0  0
    5.1147    1.0157   22.2085 H   0  0  0  0  0  0  0  0  0  0  0  0
    3.1749    2.5152   22.4300 H   0  0  0  0  0  0  0  0  0  0  0  0
    1.9615    3.3035   20.4173 H   0  0  0  0  0  0  0  0  0  0  0  0
    2.7114    2.6100   18.1580 H   0  0  0  0  0  0  0  0  0  0  0  0
    4.2606    1.3621   16.7364 H   0  0  0  0  0  0  0  0  0  0  0  0
    7.3327   -0.8681   18.3275 H   0  0  0  0  0  0  0  0  0  0  0  0
    9.5861   -1.3815   22.1626 H   0  0  0  0  0  0  0  0  0  0  0  0
  1  2  2  0
  2  3  1  0
  4  3  1  1
  4  5  1  0
  5  6  1  0
  6  7  1  0
  7  8  2  0
  8  9  1  0
  9 10  2  0
 10 11  1  0
 11 12  2  0
 12 13  1  0
 11 14  1  0
 10 15  1  0
  9 16  1  0
  8 17  1  0
  6 18  1  0
 18 19  1  0
 18 20  1  0
  6 21  1  1
  5 22  1  0
  5 23  1  0
  4 24  1  0
 24 25  2  0
 24 26  1  0
 26 27  1  0
 27 28  2  0
 28 29  1  0
 29 30  2  0
 30 31  1  0
 31 32  2  0
 32 33  1  0
 33 34  2  0
 34 35  1  0
 35 36  2  0
 35 37  1  0
 34 38  1  0
 33 39  1  0
 32 40  1  0
 30 41  1  0
 28 42  1  0
  3 43  1  0
 26  2  1  0
 36 27  1  0
 18  4  1  0
 36 31  1  0
 12  7  1  0
M  END
>  <cnnaffinities>  (21) 
[5.77283]

>  <score>  (21) 
5.77283

>  <index>  (21) 
26

>  <Smiles>  (21) 
O=C1N([C@]2(C([C@](c3c(c(c(c(c3Cl)[H])[H])[H])[H])(C2([H])[H])[H])([H])[H])C(=O)N1c1c(nc(c2c(c(c(c(c12)[H])[H])[H])[H])[H])[H])[H]

>  <h>  (21) 
<NA>

>  <Training>  (21) 
True

>  <Success>  (21) 
True

>  <enamine_searched>  (21) 
False

>  <enamine_id>  (21) 
nan

$$$$

     RDKit          3D

 46 48  0  0  0  0  0  0  0  0999 V2000
    8.5425    0.5325   25.0979 C   0  0  0  0  0  0  0  0  0  0  0  0
    7.2294   -0.0593   24.6001 C   0  0  0  0  0  0  0  0  0  0  0  0
    7.3972   -1.3668   23.8121 C   0  0  1  0  0  0  0  0  0  0  0  0
    7.8179   -2.5860   24.6616 C   0  0  0  0  0  0  0  0  0  0  0  0
    6.7027   -3.3760   25.3600 C   0  0  1  0  0  0  0  0  0  0  0  0
    6.3314   -2.8803   26.7554 C   0  0  0  0  0  0  0  0  0  0  0  0
    5.6873   -3.8450   27.4501 F   0  0  0  0  0  0  0  0  0  0  0  0
    5.5065   -1.8117   26.7537 F   0  0  0  0  0  0  0  0  0  0  0  0
    7.4027   -2.5313   27.4910 F   0  0  0  0  0  0  0  0  0  0  0  0
    5.4776   -3.5422   24.4615 C   0  0  0  0  0  0  0  0  0  0  0  0
    5.0827   -2.2552   23.7458 C   0  0  0  0  0  0  0  0  0  0  0  0
    6.2105   -1.6833   23.0127 N   0  0  0  0  0  0  0  0  0  0  0  0
    6.1558   -1.6231   21.6258 C   0  0  0  0  0  0  0  0  0  0  0  0
    5.4851   -2.4014   20.9750 O   0  0  0  0  0  0  0  0  0  0  0  0
    6.9197   -0.4875   20.9093 C   0  0  0  0  0  0  0  0  0  0  0  0
    6.1179    0.0922   19.7638 C   0  0  0  0  0  0  0  0  0  0  0  0
    6.4224   -0.2137   18.4607 C   0  0  0  0  0  0  0  0  0  0  0  0
    5.7591    0.2384   17.3619 N   0  0  0  0  0  0  0  0  0  0  0  0
    4.7349    1.0308   17.5749 C   0  0  0  0  0  0  0  0  0  0  0  0
    4.2869    1.4229   18.8674 C   0  0  0  0  0  0  0  0  0  0  0  0
    3.1652    2.2744   19.0427 C   0  0  0  0  0  0  0  0  0  0  0  0
    2.7509    2.6285   20.3002 C   0  0  0  0  0  0  0  0  0  0  0  0
    3.4437    2.1441   21.4305 C   0  0  0  0  0  0  0  0  0  0  0  0
    4.5329    1.3173   21.2862 C   0  0  0  0  0  0  0  0  0  0  0  0
    4.9903    0.9379   19.9962 C   0  0  0  0  0  0  0  0  0  0  0  0
    5.0444    0.9520   22.1705 H   0  0  0  0  0  0  0  0  0  0  0  0
    3.1056    2.4256   22.4225 H   0  0  0  0  0  0  0  0  0  0  0  0
    1.8933    3.2816   20.4370 H   0  0  0  0  0  0  0  0  0  0  0  0
    2.6433    2.6459   18.1640 H   0  0  0  0  0  0  0  0  0  0  0  0
    4.1983    1.3997   16.6996 H   0  0  0  0  0  0  0  0  0  0  0  0
    7.2660   -0.8677   18.2464 H   0  0  0  0  0  0  0  0  0  0  0  0
    7.2086    0.3079   21.6105 H   0  0  0  0  0  0  0  0  0  0  0  0
    7.8491   -0.9146   20.5123 H   0  0  0  0  0  0  0  0  0  0  0  0
    4.7082   -1.5294   24.4755 H   0  0  0  0  0  0  0  0  0  0  0  0
    4.2734   -2.4528   23.0394 H   0  0  0  0  0  0  0  0  0  0  0  0
    4.6326   -3.9462   25.0316 H   0  0  0  0  0  0  0  0  0  0  0  0
    5.7156   -4.2801   23.6926 H   0  0  0  0  0  0  0  0  0  0  0  0
    7.1005   -4.3739   25.5801 H   0  0  0  0  0  0  0  0  0  0  0  0
    8.5820   -2.2950   25.3889 H   0  0  0  0  0  0  0  0  0  0  0  0
    8.3181   -3.2910   23.9896 H   0  0  0  0  0  0  0  0  0  0  0  0
    8.2155   -1.2089   23.1002 H   0  0  0  0  0  0  0  0  0  0  0  0
    6.7482    0.6719   23.9402 H   0  0  0  0  0  0  0  0  0  0  0  0
    6.5490   -0.2090   25.4405 H   0  0  0  0  0  0  0  0  0  0  0  0
    9.0136   -0.0960   25.8592 H   0  0  0  0  0  0  0  0  0  0  0  0
    8.3725    1.5152   25.5462 H   0  0  0  0  0  0  0  0  0  0  0  0
    9.2595    0.6644   24.2809 H   0  0  0  0  0  0  0  0  0  0  0  0
  1  2  1  0
  2  3  1  0
  3  4  1  0
  4  5  1  0
  5  6  1  0
  6  7  1  0
  6  8  1  0
  6  9  1  0
  5 10  1  0
 10 11  1  0
 11 12  1  0
 12 13  1  0
 13 14  2  0
 13 15  1  0
 15 16  1  0
 16 17  2  0
 17 18  1  0
 18 19  2  0
 19 20  1  0
 20 21  2  0
 21 22  1  0
 22 23  2  0
 23 24  1  0
 24 25  2  0
 24 26  1  0
 23 27  1  0
 22 28  1  0
 21 29  1  0
 19 30  1  0
 17 31  1  0
 15 32  1  0
 15 33  1  0
 11 34  1  0
 11 35  1  0
 10 36  1  0
 10 37  1  0
  5 38  1  1
  4 39  1  0
  4 40  1  0
  3 41  1  6
  2 42  1  0
  2 43  1  0
  1 44  1  0
  1 45  1  0
  1 46  1  0
 12  3  1  0
 25 16  1  0
 25 20  1  0
M  END
>  <cnnaffinities>  (22) 
[5.52907, 5.52903, 5.52915, 5.52916, 5.58251, 5.58245, 5.5825, 5.58239, 5.58247, 5.46972]

>  <score>  (22) 
5.52907

>  <index>  (22) 
27

>  <Smiles>  (22) 
C(C([C@]1(C([C@@](C(F)(F)F)(C(C(N1C(=O)C(c1c(nc(c2c(c(c(c(c12)[H])[H])[H])[H])[H])[H])([H])[H])([H])[H])([H])[H])[H])([H])[H])[H])([H])[H])([H])([H])[H]

>  <h>  (22) 
<NA>

>  <Training>  (22) 
True

>  <Success>  (22) 
True

>  <enamine_searched>  (22) 
False

>  <enamine_id>  (22) 
nan

$$$$

     RDKit          3D

 70 75  0  0  0  0  0  0  0  0999 V2000
    4.7906   -7.6186   20.2313 C   0  0  0  0  0  0  0  0  0  0  0  0
    5.2113   -6.2922   19.6985 N   0  0  0  0  0  4  0  0  0  0  0  0
    5.3469   -5.2719   20.7792 C   0  0  0  0  0  0  0  0  0  0  0  0
    6.6375   -5.4792   21.5717 C   0  0  0  0  0  0  0  0  0  0  0  0
    6.8039   -4.3852   22.5054 N   0  0  0  0  0  0  0  0  0  0  0  0
    7.7897   -3.3754   22.2452 C   0  0  0  0  0  0  0  0  0  0  0  0
    7.3396   -1.9473   22.6421 C   0  0  2  0  0  0  0  0  0  0  0  0
    6.2579   -1.4773   21.6462 C   0  0  0  0  0  0  0  0  0  0  0  0
    5.1236   -1.9031   21.5540 O   0  0  0  0  0  0  0  0  0  0  0  0
    6.7927   -0.5050   20.8284 N   0  0  0  0  0  0  0  0  0  0  0  0
    6.0774    0.0555   19.7562 C   0  0  0  0  0  0  0  0  0  0  0  0
    6.4505   -0.2088   18.4628 C   0  0  0  0  0  0  0  0  0  0  0  0
    5.7994    0.2519   17.3685 N   0  0  0  0  0  0  0  0  0  0  0  0
    4.7593    1.0253   17.5754 C   0  0  0  0  0  0  0  0  0  0  0  0
    4.2997    1.4137   18.8671 C   0  0  0  0  0  0  0  0  0  0  0  0
    3.1853    2.2753   19.0328 C   0  0  0  0  0  0  0  0  0  0  0  0
    2.7875    2.6588   20.2842 C   0  0  0  0  0  0  0  0  0  0  0  0
    3.4836    2.2060   21.4284 C   0  0  0  0  0  0  0  0  0  0  0  0
    4.5611    1.3651   21.2967 C   0  0  0  0  0  0  0  0  0  0  0  0
    4.9799    0.9341   20.0040 C   0  0  0  0  0  0  0  0  0  0  0  0
    5.1001    1.0191   22.1744 H   0  0  0  0  0  0  0  0  0  0  0  0
    3.1601    2.5240   22.4162 H   0  0  0  0  0  0  0  0  0  0  0  0
    1.9371    3.3235   20.4095 H   0  0  0  0  0  0  0  0  0  0  0  0
    2.6742    2.6337   18.1436 H   0  0  0  0  0  0  0  0  0  0  0  0
    4.2261    1.3918   16.6980 H   0  0  0  0  0  0  0  0  0  0  0  0
    7.3051   -0.8565   18.2705 H   0  0  0  0  0  0  0  0  0  0  0  0
    8.2259   -0.3656   20.9568 C   0  0  0  0  0  0  0  0  0  0  0  0
    8.4939   -0.9571   22.3476 C   0  0  2  0  0  0  0  0  0  0  0  0
    9.8452   -1.6220   22.3922 C   0  0  0  0  0  0  0  0  0  0  0  0
   10.8337   -0.6756   22.0633 O   0  0  0  0  0  0  0  0  0  0  0  0
   12.0983   -1.1816   22.4068 C   0  0  0  0  0  0  0  0  0  0  0  0
   12.4552   -0.7211   23.7986 C   0  0  0  0  0  0  0  0  0  0  0  0
   11.6106   -1.3127   24.7147 F   0  0  0  0  0  0  0  0  0  0  0  0
   13.9514   -0.7610   24.0602 C   0  0  0  0  0  0  0  0  0  0  0  0
   14.0369    0.5846   23.5585 O   0  0  0  0  0  0  0  0  0  0  0  0
   12.6482    0.7938   23.8779 C   0  0  0  0  0  0  0  0  0  0  0  0
   12.5459    1.1719   24.8998 H   0  0  0  0  0  0  0  0  0  0  0  0
   12.1370    1.4526   23.1711 H   0  0  0  0  0  0  0  0  0  0  0  0
   14.5534   -1.4837   23.5039 H   0  0  0  0  0  0  0  0  0  0  0  0
   14.1722   -0.8067   25.1315 H   0  0  0  0  0  0  0  0  0  0  0  0
   12.8349   -0.8290   21.6913 H   0  0  0  0  0  0  0  0  0  0  0  0
   12.1100   -2.2815   22.3735 H   0  0  0  0  0  0  0  0  0  0  0  0
    9.9145   -2.4318   21.6500 H   0  0  0  0  0  0  0  0  0  0  0  0
   10.0173   -2.0522   23.3860 H   0  0  0  0  0  0  0  0  0  0  0  0
    8.5046   -0.1349   23.0668 H   0  0  0  0  0  0  0  0  0  0  0  0
    8.5248    0.6825   20.8781 H   0  0  0  0  0  0  0  0  0  0  0  0
    8.7638   -0.9150   20.1701 H   0  0  0  0  0  0  0  0  0  0  0  0
    6.8613   -2.0168   24.0799 C   0  0  0  0  0  0  0  0  0  0  0  0
    6.8779   -0.9013   24.9300 C   0  0  0  0  0  0  0  0  0  0  0  0
    6.4082   -1.0125   26.2282 C   0  0  0  0  0  0  0  0  0  0  0  0
    6.3840    0.4033   27.2478 Cl  0  0  0  0  0  0  0  0  0  0  0  0
    5.9394   -2.2234   26.7369 C   0  0  0  0  0  0  0  0  0  0  0  0
    5.9107   -3.3205   25.9022 C   0  0  0  0  0  0  0  0  0  0  0  0
    6.3374   -3.2234   24.5802 C   0  0  0  0  0  0  0  0  0  0  0  0
    6.1892   -4.4452   23.7165 C   0  0  0  0  0  0  0  0  0  0  0  0
    5.5500   -5.4283   24.0758 O   0  0  0  0  0  0  0  0  0  0  0  0
    5.5486   -4.2792   26.2597 H   0  0  0  0  0  0  0  0  0  0  0  0
    5.5866   -2.2841   27.7620 H   0  0  0  0  0  0  0  0  0  0  0  0
    7.2423    0.0652   24.5949 H   0  0  0  0  0  0  0  0  0  0  0  0
    8.7003   -3.6412   22.7950 H   0  0  0  0  0  0  0  0  0  0  0  0
    7.9992   -3.3627   21.1799 H   0  0  0  0  0  0  0  0  0  0  0  0
    7.5012   -5.5034   20.8927 H   0  0  0  0  0  0  0  0  0  0  0  0
    6.6338   -6.4149   22.1426 H   0  0  0  0  0  0  0  0  0  0  0  0
    5.3298   -4.2691   20.3536 H   0  0  0  0  0  0  0  0  0  0  0  0
    4.5063   -5.3661   21.4695 H   0  0  0  0  0  0  0  0  0  0  0  0
    4.5685   -5.9649   18.9591 H   0  0  0  0  0  0  0  0  0  0  0  0
    6.1528   -6.3975   19.2619 H   0  0  0  0  0  0  0  0  0  0  0  0
    4.3139   -8.1979   19.4451 H   0  0  0  0  0  0  0  0  0  0  0  0
    5.6434   -8.1700   20.6275 H   0  0  0  0  0  0  0  0  0  0  0  0
    4.0830   -7.5015   21.0575 H   0  0  0  0  0  0  0  0  0  0  0  0
  1  2  1  0
  2  3  1  0
  3  4  1  0
  4  5  1  0
  5  6  1  0
  7  6  1  6
  7  8  1  0
  8  9  2  0
  8 10  1  0
 10 11  1  0
 11 12  2  0
 12 13  1  0
 13 14  2  0
 14 15  1  0
 15 16  2  0
 16 17  1  0
 17 18  2  0
 18 19  1  0
 19 20  2  0
 19 21  1  0
 18 22  1  0
 17 23  1  0
 16 24  1  0
 14 25  1  0
 12 26  1  0
 10 27  1  0
 27 28  1  0
 28 29  1  0
 29 30  1  0
 30 31  1  0
 31 32  1  0
 32 33  1  0
 32 34  1  0
 34 35  1  0
 35 36  1  0
 36 37  1  0
 36 38  1  0
 34 39  1  0
 34 40  1  0
 31 41  1  0
 31 42  1  0
 29 43  1  0
 29 44  1  0
 28 45  1  1
 27 46  1  0
 27 47  1  0
  7 48  1  0
 48 49  2  0
 49 50  1  0
 50 51  1  0
 50 52  2  0
 52 53  1  0
 53 54  2  0
 54 55  1  0
 55 56  2  0
 53 57  1  0
 52 58  1  0
 49 59  1  0
  6 60  1  0
  6 61  1  0
  4 62  1  0
  4 63  1  0
  3 64  1  0
  3 65  1  0
  2 66  1  0
  2 67  1  0
  1 68  1  0
  1 69  1  0
  1 70  1  0
 55  5  1  0
 28  7  1  0
 36 32  1  0
 54 48  1  0
 20 11  1  0
 20 15  1  0
M  CHG  1   2   1
M  END
>  <cnnaffinities>  (23) 
[6.29623]

>  <score>  (23) 
6.29623

>  <index>  (23) 
28

>  <Smiles>  (23) 
C([N+](C(C(N1C([C@@]2(C(=O)N(c3c(nc(c4c(c(c(c(c34)[H])[H])[H])[H])[H])[H])C([C@@]2(C(OC(C2(F)C(OC2([H])[H])([H])[H])([H])[H])([H])[H])[H])([H])[H])c2c(c(Cl)c(c(c2C1=O)[H])[H])[H])([H])[H])([H])[H])([H])[H])([H])[H])([H])([H])[H]

>  <h>  (23) 
<NA>

>  <Training>  (23) 
True

>  <Success>  (23) 
True

>  <enamine_searched>  (23) 
False

>  <enamine_id>  (23) 
nan

$$$$

     RDKit          3D

 67 72  0  0  0  0  0  0  0  0999 V2000
    6.6446   -0.2007   28.1077 C   0  0  0  0  0  0  0  0  0  0  0  0
    5.5250   -0.0767   27.1373 N   0  0  0  0  0  4  0  0  0  0  0  0
    5.4668    1.2361   26.4046 C   0  0  0  0  0  0  0  0  0  0  0  0
    5.8512    1.1412   24.9200 C   0  0  0  0  0  0  0  0  0  0  0  0
    7.0154    0.3177   24.6140 N   0  0  0  0  0  0  0  0  0  0  0  0
    6.8364   -0.8692   23.7833 C   0  0  0  0  0  0  0  0  0  0  0  0
    7.8869   -0.9489   22.6109 C   0  0  2  0  0  0  0  0  0  0  0  0
    7.4108   -0.0056   21.4598 C   0  0  0  0  0  0  0  0  0  0  0  0
    7.7121    1.1449   21.2556 O   0  0  0  0  0  0  0  0  0  0  0  0
    6.5562   -0.7422   20.6573 N   0  0  0  0  0  0  0  0  0  0  0  0
    5.9070   -0.1413   19.5623 C   0  0  0  0  0  0  0  0  0  0  0  0
    6.2594   -0.4594   18.2751 C   0  0  0  0  0  0  0  0  0  0  0  0
    5.6912    0.0866   17.1735 N   0  0  0  0  0  0  0  0  0  0  0  0
    4.7343    0.9661   17.3629 C   0  0  0  0  0  0  0  0  0  0  0  0
    4.2713    1.3766   18.6470 C   0  0  0  0  0  0  0  0  0  0  0  0
    3.2208    2.3181   18.8108 C   0  0  0  0  0  0  0  0  0  0  0  0
    2.7863    2.6801   20.0564 C   0  0  0  0  0  0  0  0  0  0  0  0
    3.3937    2.1229   21.2038 C   0  0  0  0  0  0  0  0  0  0  0  0
    4.4159    1.2193   21.0777 C   0  0  0  0  0  0  0  0  0  0  0  0
    4.8777    0.8203   19.7906 C   0  0  0  0  0  0  0  0  0  0  0  0
    4.8844    0.8037   21.9659 H   0  0  0  0  0  0  0  0  0  0  0  0
    3.0506    2.4123   22.1916 H   0  0  0  0  0  0  0  0  0  0  0  0
    1.9781    3.3986   20.1742 H   0  0  0  0  0  0  0  0  0  0  0  0
    2.7775    2.7513   17.9211 H   0  0  0  0  0  0  0  0  0  0  0  0
    4.2751    1.4032   16.4731 H   0  0  0  0  0  0  0  0  0  0  0  0
    7.0620   -1.1750   18.0946 H   0  0  0  0  0  0  0  0  0  0  0  0
    6.4905   -2.1439   21.0162 C   0  0  0  0  0  0  0  0  0  0  0  0
    7.7877   -2.2845   21.8228 C   0  0  2  0  0  0  0  0  0  0  0  0
    7.9739   -3.6139   22.5587 C   0  0  0  0  0  0  0  0  0  0  0  0
    6.8435   -4.0469   23.3573 N   0  0  0  0  0  0  0  0  0  0  0  0
    5.8596   -4.8655   22.9411 C   0  0  0  0  0  0  0  0  0  0  0  0
    5.9222   -5.3653   21.6899 N   0  0  0  0  0  0  0  0  0  0  0  0
    4.9404   -6.2066   21.4034 C   0  0  0  0  0  0  0  0  0  0  0  0
    3.9020   -6.5304   22.1739 N   0  0  0  0  0  0  0  0  0  0  0  0
    3.9343   -5.9326   23.3662 C   0  0  0  0  0  0  0  0  0  0  0  0
    4.8641   -5.1095   23.8206 N   0  0  0  0  0  0  0  0  0  0  0  0
    3.1130   -6.1392   24.0484 H   0  0  0  0  0  0  0  0  0  0  0  0
    4.9842   -6.6707   20.4215 H   0  0  0  0  0  0  0  0  0  0  0  0
    6.7924   -3.7735   24.3247 H   0  0  0  0  0  0  0  0  0  0  0  0
    8.1524   -4.3947   21.8207 H   0  0  0  0  0  0  0  0  0  0  0  0
    8.8494   -3.5776   23.2098 H   0  0  0  0  0  0  0  0  0  0  0  0
    8.5960   -2.2201   21.0821 H   0  0  0  0  0  0  0  0  0  0  0  0
    5.6050   -2.3658   21.6221 H   0  0  0  0  0  0  0  0  0  0  0  0
    6.4452   -2.7681   20.1245 H   0  0  0  0  0  0  0  0  0  0  0  0
    9.2552   -0.5783   23.1734 C   0  0  0  0  0  0  0  0  0  0  0  0
   10.5360   -1.1215   22.7715 C   0  0  0  0  0  0  0  0  0  0  0  0
   11.5786   -0.5001   23.3659 C   0  0  0  0  0  0  0  0  0  0  0  0
   13.0564   -1.3112   23.6184 Cl  0  0  0  0  0  0  0  0  0  0  0  0
   11.5458    0.9117   24.2728 C   0  0  0  0  0  0  0  0  0  0  0  0
   11.2714    0.5844   24.2582 C   0  0  0  0  0  0  0  0  0  0  0  0
    9.3670    0.3249   24.1855 C   0  0  0  0  0  0  0  0  0  0  0  0
    8.2866    0.7347   25.0588 C   0  0  0  0  0  0  0  0  0  0  0  0
    8.3936    1.3926   26.0833 O   0  0  0  0  0  0  0  0  0  0  0  0
   12.4057    0.7006   24.9236 H   0  0  0  0  0  0  0  0  0  0  0  0
   11.9779    1.8643   23.9007 H   0  0  0  0  0  0  0  0  0  0  0  0
   10.6385   -1.9716   22.1003 H   0  0  0  0  0  0  0  0  0  0  0  0
    5.8170   -0.8866   23.3761 H   0  0  0  0  0  0  0  0  0  0  0  0
    6.9296   -1.7654   24.4170 H   0  0  0  0  0  0  0  0  0  0  0  0
    5.9940    2.1605   24.5329 H   0  0  0  0  0  0  0  0  0  0  0  0
    5.0064    0.7167   24.3678 H   0  0  0  0  0  0  0  0  0  0  0  0
    6.1342    1.9295   26.9005 H   0  0  0  0  0  0  0  0  0  0  0  0
    4.4445    1.6080   26.4815 H   0  0  0  0  0  0  0  0  0  0  0  0
    4.6339   -0.2174   27.6526 H   0  0  0  0  0  0  0  0  0  0  0  0
    5.6409   -0.8183   26.4096 H   0  0  0  0  0  0  0  0  0  0  0  0
    6.8525    0.7578   28.5870 H   0  0  0  0  0  0  0  0  0  0  0  0
    7.5504   -0.5062   27.5915 H   0  0  0  0  0  0  0  0  0  0  0  0
    6.4109   -0.9414   28.8697 H   0  0  0  0  0  0  0  0  0  0  0  0
  1  2  1  0
  2  3  1  0
  3  4  1  0
  4  5  1  0
  5  6  1  0
  7  6  1  1
  7  8  1  0
  8  9  2  0
  8 10  1  0
 10 11  1  0
 11 12  2  0
 12 13  1  0
 13 14  2  0
 14 15  1  0
 15 16  2  0
 16 17  1  0
 17 18  2  0
 18 19  1  0
 19 20  2  0
 19 21  1  0
 18 22  1  0
 17 23  1  0
 16 24  1  0
 14 25  1  0
 12 26  1  0
 10 27  1  0
 27 28  1  0
 28 29  1  0
 29 30  1  0
 30 31  1  0
 31 32  2  0
 32 33  1  0
 33 34  2  0
 34 35  1  0
 35 36  2  0
 35 37  1  0
 33 38  1  0
 30 39  1  0
 29 40  1  0
 29 41  1  0
 28 42  1  6
 27 43  1  0
 27 44  1  0
  7 45  1  0
 45 46  2  0
 46 47  1  0
 47 48  1  0
 47 49  2  0
 49 50  1  0
 50 51  2  0
 51 52  1  0
 52 53  2  0
 50 54  1  0
 49 55  1  0
 46 56  1  0
  6 57  1  0
  6 58  1  0
  4 59  1  0
  4 60  1  0
  3 61  1  0
  3 62  1  0
  2 63  1  0
  2 64  1  0
  1 65  1  0
  1 66  1  0
  1 67  1  0
 52  5  1  0
 28  7  1  0
 36 31  1  0
 51 45  1  0
 20 11  1  0
 20 15  1  0
M  CHG  1   2   1
M  END
>  <cnnaffinities>  (24) 
[6.61473]

>  <score>  (24) 
6.61473

>  <index>  (24) 
29

>  <Smiles>  (24) 
C([N+](C(C(N1C([C@@]2(C(=O)N(c3c(nc(c4c(c(c(c(c34)[H])[H])[H])[H])[H])[H])C([C@@]2(C(N(c2nc(nc(n2)[H])[H])[H])([H])[H])[H])([H])[H])c2c(c(Cl)c(c(c2C1=O)[H])[H])[H])([H])[H])([H])[H])([H])[H])([H])[H])([H])([H])[H]

>  <h>  (24) 
<NA>

>  <Training>  (24) 
True

>  <Success>  (24) 
True

>  <enamine_searched>  (24) 
False

>  <enamine_id>  (24) 
nan

$$$$

     RDKit          3D

 64 70  0  0  0  0  0  0  0  0999 V2000
    6.3833    1.8005   25.1470 O   0  0  0  0  0  0  0  0  0  0  0  0
    8.7739    1.2934   25.1784 C   0  0  0  0  0  0  0  0  0  0  0  0
    9.9109    0.7668   24.1998 C   0  0  0  0  0  0  0  0  0  0  0  0
   11.4233    1.1047   24.3596 C   0  0  0  0  0  0  0  0  0  0  0  0
   12.4197    0.7760   23.5018 C   0  0  0  0  0  0  0  0  0  0  0  0
   11.8634   -0.1038   22.5262 C   0  0  0  0  0  0  0  0  0  0  0  0
   12.6085   -1.0691   21.0004 Cl  0  0  0  0  0  0  0  0  0  0  0  0
   10.5824   -0.3997   22.2693 C   0  0  0  0  0  0  0  0  0  0  0  0
    9.5875   -0.0720   23.1063 C   0  0  0  0  0  0  0  0  0  0  0  0
    8.2139   -0.5454   22.7889 C   0  0  1  0  0  0  0  0  0  0  0  0
    7.3097   -0.4076   24.0788 C   0  0  0  0  0  0  0  0  0  0  0  0
    7.5333    0.9255   24.6662 N   0  0  0  0  0  0  0  0  0  0  0  0
    6.3833    1.8006   25.1470 C   0  0  0  0  0  0  0  0  0  0  0  0
    6.2477    1.2764   26.5947 C   0  0  0  0  0  0  0  0  0  0  0  0
    6.4409    1.9414   27.6907 N   0  0  0  0  0  0  0  0  0  0  0  0
    5.8400    1.2176   28.7208 N   0  0  0  0  0  0  0  0  0  0  0  0
    5.1510    0.3081   28.1594 C   0  0  0  0  0  0  0  0  0  0  0  0
    5.1910    0.2594   26.8355 O   0  0  0  0  0  0  0  0  0  0  0  0
    4.5593   -0.4447   28.5958 H   0  0  0  0  0  0  0  0  0  0  0  0
    6.5336    3.0521   24.9805 H   0  0  0  0  0  0  0  0  0  0  0  0
    5.5822    2.0189   24.3721 H   0  0  0  0  0  0  0  0  0  0  0  0
    7.6769   -1.0279   24.9041 H   0  0  0  0  0  0  0  0  0  0  0  0
    6.2855   -0.5691   23.8239 H   0  0  0  0  0  0  0  0  0  0  0  0
    7.6285    0.3823   21.6847 C   0  0  0  0  0  0  0  0  0  0  0  0
    7.7565    1.5866   21.6668 O   0  0  0  0  0  0  0  0  0  0  0  0
    6.9253   -0.4073   20.8338 N   0  0  0  0  0  0  0  0  0  0  0  0
    6.1403    0.0974   19.7703 C   0  0  0  0  0  0  0  0  0  0  0  0
    6.4277   -0.2219   18.4745 C   0  0  0  0  0  0  0  0  0  0  0  0
    5.7582    0.2393   17.3713 N   0  0  0  0  0  0  0  0  0  0  0  0
    4.7376    1.0298   17.5736 C   0  0  0  0  0  0  0  0  0  0  0  0
    4.2907    1.4216   18.8728 C   0  0  0  0  0  0  0  0  0  0  0  0
    3.1566    2.2797   19.0543 C   0  0  0  0  0  0  0  0  0  0  0  0
    2.7467    2.6142   20.3046 C   0  0  0  0  0  0  0  0  0  0  0  0
    3.4294    2.1153   21.4399 C   0  0  0  0  0  0  0  0  0  0  0  0
    4.5010    1.2942   21.2902 C   0  0  0  0  0  0  0  0  0  0  0  0
    4.9868    0.9373   19.9963 C   0  0  0  0  0  0  0  0  0  0  0  0
    5.0242    0.8889   22.1508 H   0  0  0  0  0  0  0  0  0  0  0  0
    3.0847    2.3789   22.4327 H   0  0  0  0  0  0  0  0  0  0  0  0
    1.8917    3.2620   20.4523 H   0  0  0  0  0  0  0  0  0  0  0  0
    2.6365    2.6520   18.1743 H   0  0  0  0  0  0  0  0  0  0  0  0
    4.1944    1.4018   16.6995 H   0  0  0  0  0  0  0  0  0  0  0  0
    7.2829   -0.8642   18.2608 H   0  0  0  0  0  0  0  0  0  0  0  0
    6.9150   -1.8085   21.2336 C   0  0  0  0  0  0  0  0  0  0  0  0
    8.0581   -1.9372   22.2447 C   0  0  2  0  0  0  0  0  0  0  0  0
    7.8480   -3.0631   23.2785 C   0  0  0  0  0  0  0  0  0  0  0  0
    7.8506   -4.3771   22.6511 N   0  0  0  0  0  0  0  0  0  0  0  0
    6.7703   -5.0609   22.2319 C   0  0  0  0  0  0  0  0  0  0  0  0
    6.9175   -6.2499   21.4704 C   0  0  0  0  0  0  0  0  0  0  0  0
    5.7676   -6.8911   21.1036 C   0  0  0  0  0  0  0  0  0  0  0  0
    4.5416   -6.4879   21.4275 N   0  0  0  0  0  0  0  0  0  0  0  0
    4.5270   -5.3693   22.1135 C   0  0  0  0  0  0  0  0  0  0  0  0
    5.5463   -4.6139   22.5445 N   0  0  0  0  0  0  0  0  0  0  0  0
    3.5079   -5.0012   22.3659 H   0  0  0  0  0  0  0  0  0  0  0  0
    5.8014   -7.8009   20.5039 H   0  0  0  0  0  0  0  0  0  0  0  0
    7.8879   -6.6360   21.1732 H   0  0  0  0  0  0  0  0  0  0  0  0
    8.7706   -4.6866   22.4052 H   0  0  0  0  0  0  0  0  0  0  0  0
    8.6296   -3.0017   24.0504 H   0  0  0  0  0  0  0  0  0  0  0  0
    6.8931   -2.9512   23.7867 H   0  0  0  0  0  0  0  0  0  0  0  0
    8.9685   -2.1852   21.7055 H   0  0  0  0  0  0  0  0  0  0  0  0
    7.0862   -2.4480   20.3825 H   0  0  0  0  0  0  0  0  0  0  0  0
    5.9580   -2.0928   21.6765 H   0  0  0  0  0  0  0  0  0  0  0  0
   10.4997   -0.9364   21.3757 H   0  0  0  0  0  0  0  0  0  0  0  0
   13.4052    1.1664   23.7449 H   0  0  0  0  0  0  0  0  0  0  0  0
   11.6801    1.8052   25.1268 H   0  0  0  0  0  0  0  0  0  0  0  0
  1  2  2  0
  2  3  1  0
  3  4  2  0
  4  5  1  0
  5  6  2  0
  6  7  1  0
  6  8  1  0
  8  9  2  0
  9 10  1  0
 10 11  1  1
 11 12  1  0
 12 13  1  0
 13 14  1  0
 14 15  2  0
 15 16  1  0
 16 17  2  0
 17 18  1  0
 17 19  1  0
 13 20  1  0
 13 21  1  0
 11 22  1  0
 11 23  1  0
 10 24  1  0
 24 25  2  0
 24 26  1  0
 26 27  1  0
 27 28  2  0
 28 29  1  0
 29 30  2  0
 30 31  1  0
 31 32  2  0
 32 33  1  0
 33 34  2  0
 34 35  1  0
 35 36  2  0
 35 37  1  0
 34 38  1  0
 33 39  1  0
 32 40  1  0
 30 41  1  0
 28 42  1  0
 26 43  1  0
 43 44  1  0
 44 45  1  0
 45 46  1  0
 46 47  1  0
 47 48  2  0
 48 49  1  0
 49 50  2  0
 50 51  1  0
 51 52  2  0
 51 53  1  0
 49 54  1  0
 48 55  1  0
 46 56  1  0
 45 57  1  0
 45 58  1  0
 44 59  1  6
 43 60  1  0
 43 61  1  0
  8 62  1  0
  5 63  1  0
  4 64  1  0
 12  2  1  0
 18 14  1  0
 36 27  1  0
 52 47  1  0
  9  3  1  0
 44 10  1  0
 36 31  1  0
M  END
>  <cnnaffinities>  (25) 
[6.23892]

>  <score>  (25) 
6.23892

>  <index>  (25) 
31

>  <Smiles>  (25) 
O=C1c2c(c(c(Cl)c(c2[C@@]2(C(N1C(c1nnc(o1)[H])([H])[H])([H])[H])C(=O)N(c1c(nc(c3c(c(c(c(c13)[H])[H])[H])[H])[H])[H])C([C@@]2(C(N(c1c(c(nc(n1)[H])[H])[H])[H])([H])[H])[H])([H])[H])[H])[H])[H]

>  <h>  (25) 
<NA>

>  <Training>  (25) 
True

>  <Success>  (25) 
True

>  <enamine_searched>  (25) 
False

>  <enamine_id>  (25) 
nan

$$$$

     RDKit          3D

 72 77  0  0  0  0  0  0  0  0999 V2000
    9.7443   -1.9260   21.8862 C   0  0  0  0  0  0  0  0  0  0  0  0
    8.6161   -0.9874   22.3387 C   0  0  1  0  0  0  0  0  0  0  0  0
    8.1841   -0.0840   21.1653 C   0  0  0  0  0  0  0  0  0  0  0  0
    6.8500   -0.5199   20.8324 N   0  0  0  0  0  0  0  0  0  0  0  0
    6.1025    0.0459   19.7759 C   0  0  0  0  0  0  0  0  0  0  0  0
    6.4604   -0.2205   18.4780 C   0  0  0  0  0  0  0  0  0  0  0  0
    5.8014    0.2393   17.3880 N   0  0  0  0  0  0  0  0  0  0  0  0
    4.7632    1.0141   17.6037 C   0  0  0  0  0  0  0  0  0  0  0  0
    4.3079    1.3956   18.8992 C   0  0  0  0  0  0  0  0  0  0  0  0
    3.1954    2.2595   19.0608 C   0  0  0  0  0  0  0  0  0  0  0  0
    2.7890    2.6405   20.3093 C   0  0  0  0  0  0  0  0  0  0  0  0
    3.4822    2.1822   21.4541 C   0  0  0  0  0  0  0  0  0  0  0  0
    4.5623    1.3407   21.3301 C   0  0  0  0  0  0  0  0  0  0  0  0
    4.9929    0.9123   20.0362 C   0  0  0  0  0  0  0  0  0  0  0  0
    5.0915    1.0118   22.2265 H   0  0  0  0  0  0  0  0  0  0  0  0
    3.1532    2.5024   22.4382 H   0  0  0  0  0  0  0  0  0  0  0  0
    1.9363    3.3023   20.4323 H   0  0  0  0  0  0  0  0  0  0  0  0
    2.6891    2.6210   18.1703 H   0  0  0  0  0  0  0  0  0  0  0  0
    4.2274    1.3930   16.7334 H   0  0  0  0  0  0  0  0  0  0  0  0
    7.3125   -0.8724   18.2844 H   0  0  0  0  0  0  0  0  0  0  0  0
    6.3166   -1.4451   21.6892 C   0  0  0  0  0  0  0  0  0  0  0  0
    5.2338   -1.9811   21.5414 O   0  0  0  0  0  0  0  0  0  0  0  0
    7.3064   -1.6757   22.8447 C   0  0  1  0  0  0  0  0  0  0  0  0
    7.4960   -3.1812   23.0819 C   0  0  0  0  0  0  0  0  0  0  0  0
    6.3792   -3.7997   23.7697 N   0  0  0  0  0  0  0  0  0  0  0  0
    6.0242   -5.1603   23.4169 C   0  0  0  0  0  0  0  0  0  0  0  0
    4.8059   -5.2700   22.4933 C   0  0  0  0  0  0  0  0  0  0  0  0
    3.5071   -5.1716   23.2399 N   0  0  1  0  0  4  0  0  0  0  0  0
    2.9506   -3.7876   23.1966 C   0  0  0  0  0  0  0  0  0  0  0  0
    1.6139   -3.7310   23.9060 C   0  0  0  0  0  0  0  0  0  0  0  0
    0.6664   -4.5369   23.2401 O   0  0  0  0  0  0  0  0  0  0  0  0
    1.0445   -5.9217   23.2814 C   0  0  0  0  0  0  0  0  0  0  0  0
    0.0167   -6.6470   22.4201 C   0  0  0  0  0  0  0  0  0  0  0  0
    0.2288   -7.7212   22.3743 H   0  0  0  0  0  0  0  0  0  0  0  0
    0.0186   -6.2473   21.4009 H   0  0  0  0  0  0  0  0  0  0  0  0
   -0.9896   -6.5125   22.8320 H   0  0  0  0  0  0  0  0  0  0  0  0
    0.9871   -6.4218   24.7227 C   0  0  0  0  0  0  0  0  0  0  0  0
    1.1451   -7.5031   24.7770 H   0  0  0  0  0  0  0  0  0  0  0  0
    1.7594   -5.9518   25.3367 H   0  0  0  0  0  0  0  0  0  0  0  0
    0.0099   -6.1726   25.1500 H   0  0  0  0  0  0  0  0  0  0  0  0
    2.4482   -6.1017   22.6745 C   0  0  0  0  0  0  0  0  0  0  0  0
    2.3737   -5.8980   21.6028 H   0  0  0  0  0  0  0  0  0  0  0  0
    2.7679   -7.1385   22.8014 H   0  0  0  0  0  0  0  0  0  0  0  0
    1.2440   -2.7068   23.9331 H   0  0  0  0  0  0  0  0  0  0  0  0
    1.7416   -4.0443   24.9487 H   0  0  0  0  0  0  0  0  0  0  0  0
    2.7839   -3.5381   22.1433 H   0  0  0  0  0  0  0  0  0  0  0  0
    3.6451   -3.0662   23.6256 H   0  0  0  0  0  0  0  0  0  0  0  0
    3.7001   -5.3910   24.2350 H   0  0  0  0  0  0  0  0  0  0  0  0
    4.8304   -4.4887   21.7253 H   0  0  0  0  0  0  0  0  0  0  0  0
    4.8368   -6.2449   21.9988 H   0  0  0  0  0  0  0  0  0  0  0  0
    5.8145   -5.7038   24.3418 H   0  0  0  0  0  0  0  0  0  0  0  0
    6.8945   -5.6176   22.9388 H   0  0  0  0  0  0  0  0  0  0  0  0
    5.7608   -3.2375   24.8420 C   0  0  0  0  0  0  0  0  0  0  0  0
    4.9516   -3.8664   25.5255 O   0  0  0  0  0  0  0  0  0  0  0  0
    6.0580   -1.7874   25.0712 C   0  0  0  0  0  0  0  0  0  0  0  0
    5.5634   -1.1892   26.2294 C   0  0  0  0  0  0  0  0  0  0  0  0
    5.7098    0.1702   26.4309 C   0  0  0  0  0  0  0  0  0  0  0  0
    6.3531    0.9262   25.4512 C   0  0  0  0  0  0  0  0  0  0  0  0
    6.5088    2.6503   25.6662 Cl  0  0  0  0  0  0  0  0  0  0  0  0
    6.8717    0.3414   24.3087 C   0  0  0  0  0  0  0  0  0  0  0  0
    6.7574   -1.0409   24.1152 C   0  0  0  0  0  0  0  0  0  0  0  0
    7.3679    0.9720   23.5750 H   0  0  0  0  0  0  0  0  0  0  0  0
    5.3101    0.6601   27.3116 H   0  0  0  0  0  0  0  0  0  0  0  0
    5.0501   -1.8179   26.9511 H   0  0  0  0  0  0  0  0  0  0  0  0
    7.6256   -3.6820   22.1211 H   0  0  0  0  0  0  0  0  0  0  0  0
    8.4093   -3.3209   23.6715 H   0  0  0  0  0  0  0  0  0  0  0  0
    8.1930    0.9832   21.4240 H   0  0  0  0  0  0  0  0  0  0  0  0
    8.8482   -0.2093   20.3080 H   0  0  0  0  0  0  0  0  0  0  0  0
    9.0285   -0.3882   23.1566 H   0  0  0  0  0  0  0  0  0  0  0  0
   10.5875   -1.3404   21.5036 H   0  0  0  0  0  0  0  0  0  0  0  0
    9.4128   -2.5909   21.0811 H   0  0  0  0  0  0  0  0  0  0  0  0
   10.1307   -2.5358   22.7085 H   0  0  0  0  0  0  0  0  0  0  0  0
  1  2  1  0
  2  3  1  0
  3  4  1  0
  4  5  1  0
  5  6  2  0
  6  7  1  0
  7  8  2  0
  8  9  1  0
  9 10  2  0
 10 11  1  0
 11 12  2  0
 12 13  1  0
 13 14  2  0
 13 15  1  0
 12 16  1  0
 11 17  1  0
 10 18  1  0
  8 19  1  0
  6 20  1  0
  4 21  1  0
 21 22  2  0
 21 23  1  0
 23 24  1  1
 24 25  1  0
 25 26  1  0
 26 27  1  0
 27 28  1  0
 28 29  1  0
 29 30  1  0
 30 31  1  0
 31 32  1  0
 32 33  1  0
 33 34  1  0
 33 35  1  0
 33 36  1  0
 32 37  1  0
 37 38  1  0
 37 39  1  0
 37 40  1  0
 32 41  1  0
 41 42  1  0
 41 43  1  0
 30 44  1  0
 30 45  1  0
 29 46  1  0
 29 47  1  0
 28 48  1  1
 27 49  1  0
 27 50  1  0
 26 51  1  0
 26 52  1  0
 25 53  1  0
 53 54  2  0
 53 55  1  0
 55 56  2  0
 56 57  1  0
 57 58  2  0
 58 59  1  0
 58 60  1  0
 60 61  2  0
 60 62  1  0
 57 63  1  0
 56 64  1  0
 24 65  1  0
 24 66  1  0
  3 67  1  0
  3 68  1  0
  2 69  1  1
  1 70  1  0
  1 71  1  0
  1 72  1  0
 23  2  1  0
 41 28  1  0
 61 55  1  0
 14  5  1  0
 61 23  1  0
 14  9  1  0
M  CHG  1  28   1
M  END
>  <cnnaffinities>  (26) 
[6.37091, 6.34631]

>  <score>  (26) 
6.37091

>  <index>  (26) 
32

>  <Smiles>  (26) 
C([C@]1(C(N(c2c(nc(c3c(c(c(c(c23)[H])[H])[H])[H])[H])[H])C(=O)[C@]21C(N(C(C([N@+]1(C(C(OC(C([H])([H])[H])(C([H])([H])[H])C1([H])[H])([H])[H])([H])[H])[H])([H])[H])([H])[H])C(=O)c1c(c(c(Cl)c(c21)[H])[H])[H])([H])[H])([H])[H])[H])([H])([H])[H]

>  <h>  (26) 
<NA>

>  <Training>  (26) 
True

>  <Success>  (26) 
True

>  <enamine_searched>  (26) 
False

>  <enamine_id>  (26) 
nan

$$$$

     RDKit          3D

 44 47  0  0  0  0  0  0  0  0999 V2000
    5.4454   -2.3990   20.9430 O   0  0  0  0  0  0  0  0  0  0  0  0
    6.2318   -1.7168   21.5855 C   0  0  0  0  0  0  0  0  0  0  0  0
    6.9125   -0.4904   20.9241 C   0  0  0  0  0  0  0  0  0  0  0  0
    6.1132    0.0833   19.7718 C   0  0  0  0  0  0  0  0  0  0  0  0
    6.4210   -0.2153   18.4679 C   0  0  0  0  0  0  0  0  0  0  0  0
    5.7595    0.2392   17.3654 N   0  0  0  0  0  0  0  0  0  0  0  0
    4.7360    1.0301   17.5761 C   0  0  0  0  0  0  0  0  0  0  0  0
    4.2862    1.4226   18.8683 C   0  0  0  0  0  0  0  0  0  0  0  0
    3.1664    2.2752   19.0443 C   0  0  0  0  0  0  0  0  0  0  0  0
    2.7528    2.6304   20.2972 C   0  0  0  0  0  0  0  0  0  0  0  0
    3.4494    2.1416   21.4277 C   0  0  0  0  0  0  0  0  0  0  0  0
    4.5347    1.3133   21.2924 C   0  0  0  0  0  0  0  0  0  0  0  0
    4.9888    0.9358   20.0006 C   0  0  0  0  0  0  0  0  0  0  0  0
    5.0485    0.9469   22.1810 H   0  0  0  0  0  0  0  0  0  0  0  0
    3.1100    2.4292   22.4160 H   0  0  0  0  0  0  0  0  0  0  0  0
    1.8963    3.2861   20.4376 H   0  0  0  0  0  0  0  0  0  0  0  0
    2.6468    2.6472   18.1631 H   0  0  0  0  0  0  0  0  0  0  0  0
    4.2000    1.3991   16.6981 H   0  0  0  0  0  0  0  0  0  0  0  0
    7.2654   -0.8665   18.2450 H   0  0  0  0  0  0  0  0  0  0  0  0
    7.8734   -0.8395   20.5202 H   0  0  0  0  0  0  0  0  0  0  0  0
    7.1575    0.2946   21.6510 H   0  0  0  0  0  0  0  0  0  0  0  0
    6.5548   -2.0573   22.8728 N   0  0  0  0  0  0  0  0  0  0  0  0
    6.0865   -3.3289   23.4230 C   0  0  0  0  0  0  0  0  0  0  0  0
    6.5999   -3.3633   24.8648 C   0  0  0  0  0  0  0  0  0  0  0  0
    7.6637   -2.2665   24.9544 C   0  0  0  0  0  0  0  0  0  0  0  0
    7.3550   -1.2851   23.8124 C   0  0  2  0  0  0  0  0  0  0  0  0
    6.6484   -0.0320   24.2983 C   0  0  0  0  0  0  0  0  0  0  0  0
    7.3312    1.1830   24.3536 C   0  0  0  0  0  0  0  0  0  0  0  0
    6.6928    2.3320   24.8060 C   0  0  0  0  0  0  0  0  0  0  0  0
    5.3701    2.2930   25.2262 C   0  0  0  0  0  0  0  0  0  0  0  0
    4.7238    1.0678   25.1921 C   0  0  0  0  0  0  0  0  0  0  0  0
    3.4436    1.0105   25.5949 F   0  0  0  0  0  0  0  0  0  0  0  0
    5.3322   -0.0926   24.7461 C   0  0  0  0  0  0  0  0  0  0  0  0
    4.7627   -1.0178   24.7455 H   0  0  0  0  0  0  0  0  0  0  0  0
    4.8443    3.1793   25.5654 H   0  0  0  0  0  0  0  0  0  0  0  0
    7.2283    3.2719   24.8146 H   0  0  0  0  0  0  0  0  0  0  0  0
    8.3691    1.2332   24.0301 H   0  0  0  0  0  0  0  0  0  0  0  0
    8.2877   -0.9857   23.3319 H   0  0  0  0  0  0  0  0  0  0  0  0
    7.6550   -1.7675   25.9249 H   0  0  0  0  0  0  0  0  0  0  0  0
    8.6668   -2.6862   24.8394 H   0  0  0  0  0  0  0  0  0  0  0  0
    7.0161   -4.3381   25.1235 H   0  0  0  0  0  0  0  0  0  0  0  0
    5.7938   -3.1835   25.5807 H   0  0  0  0  0  0  0  0  0  0  0  0
    6.4903   -4.1490   22.8253 H   0  0  0  0  0  0  0  0  0  0  0  0
    4.9963   -3.4127   23.3740 H   0  0  0  0  0  0  0  0  0  0  0  0
  1  2  2  0
  2  3  1  0
  3  4  1  0
  4  5  2  0
  5  6  1  0
  6  7  2  0
  7  8  1  0
  8  9  2  0
  9 10  1  0
 10 11  2  0
 11 12  1  0
 12 13  2  0
 12 14  1  0
 11 15  1  0
 10 16  1  0
  9 17  1  0
  7 18  1  0
  5 19  1  0
  3 20  1  0
  3 21  1  0
  2 22  1  0
 22 23  1  0
 23 24  1  0
 24 25  1  0
 25 26  1  0
 26 27  1  0
 27 28  2  0
 28 29  1  0
 29 30  2  0
 30 31  1  0
 31 32  1  0
 31 33  2  0
 33 34  1  0
 30 35  1  0
 29 36  1  0
 28 37  1  0
 26 38  1  6
 25 39  1  0
 25 40  1  0
 24 41  1  0
 24 42  1  0
 23 43  1  0
 23 44  1  0
 13  4  1  0
 26 22  1  0
 33 27  1  0
 13  8  1  0
M  END
>  <cnnaffinities>  (27) 
[5.64567, 5.62393]

>  <score>  (27) 
5.64567

>  <index>  (27) 
33

>  <Smiles>  (27) 
O=C(C(c1c(nc(c2c(c(c(c(c12)[H])[H])[H])[H])[H])[H])([H])[H])N1C(C(C([C@@]1(c1c(c(c(c(F)c1[H])[H])[H])[H])[H])([H])[H])([H])[H])([H])[H]

>  <h>  (27) 
<NA>

>  <Training>  (27) 
True

>  <Success>  (27) 
True

>  <enamine_searched>  (27) 
False

>  <enamine_id>  (27) 
nan

$$$$

     RDKit          3D

 51 54  0  0  0  0  0  0  0  0999 V2000
   13.0897   -3.5534   25.6776 N   0  0  0  0  0  0  0  0  0  0  0  0
   12.8507   -2.7576   24.8758 C   0  0  0  0  0  0  0  0  0  0  0  0
   12.4312   -1.6710   23.9694 C   0  0  0  0  0  0  0  0  0  0  0  0
   11.0022   -1.8757   23.5012 C   0  0  0  0  0  0  0  0  0  0  0  0
    9.9100   -1.1565   23.9828 C   0  0  0  0  0  0  0  0  0  0  0  0
    8.6260   -1.4258   23.5191 C   0  0  0  0  0  0  0  0  0  0  0  0
    8.4177   -2.4138   22.5583 C   0  0  0  0  0  0  0  0  0  0  0  0
    7.1137   -2.7198   22.0607 N   0  0  0  0  0  0  0  0  0  0  0  0
    6.5262   -4.0162   22.4410 C   0  0  0  0  0  0  0  0  0  0  0  0
    5.9749   -4.0170   23.8566 C   0  0  0  0  0  0  0  0  0  0  0  0
    6.8213   -4.2218   24.9470 C   0  0  0  0  0  0  0  0  0  0  0  0
    6.3278   -4.1443   26.2446 C   0  0  0  0  0  0  0  0  0  0  0  0
    4.9832   -3.8760   26.4730 C   0  0  0  0  0  0  0  0  0  0  0  0
    4.1462   -3.6791   25.3830 C   0  0  0  0  0  0  0  0  0  0  0  0
    2.4618   -3.3268   25.6531 Cl  0  0  0  0  0  0  0  0  0  0  0  0
    4.6251   -3.7466   24.0812 C   0  0  0  0  0  0  0  0  0  0  0  0
    3.9546   -3.5661   23.2456 H   0  0  0  0  0  0  0  0  0  0  0  0
    4.5897   -3.8150   27.4831 H   0  0  0  0  0  0  0  0  0  0  0  0
    6.9965   -4.2955   27.0885 H   0  0  0  0  0  0  0  0  0  0  0  0
    7.8791   -4.4230   24.7812 H   0  0  0  0  0  0  0  0  0  0  0  0
    5.7391   -4.2659   21.7225 H   0  0  0  0  0  0  0  0  0  0  0  0
    7.3090   -4.7787   22.3579 H   0  0  0  0  0  0  0  0  0  0  0  0
    6.2814   -1.7783   21.4782 C   0  0  0  0  0  0  0  0  0  0  0  0
    5.0799   -1.9594   21.3885 O   0  0  0  0  0  0  0  0  0  0  0  0
    6.9279   -0.5063   20.8818 C   0  0  0  0  0  0  0  0  0  0  0  0
    6.1149    0.0884   19.7624 C   0  0  0  0  0  0  0  0  0  0  0  0
    6.4238   -0.2124   18.4626 C   0  0  0  0  0  0  0  0  0  0  0  0
    5.7590    0.2365   17.3645 N   0  0  0  0  0  0  0  0  0  0  0  0
    4.7355    1.0282   17.5780 C   0  0  0  0  0  0  0  0  0  0  0  0
    4.2861    1.4189   18.8676 C   0  0  0  0  0  0  0  0  0  0  0  0
    3.1654    2.2723   19.0428 C   0  0  0  0  0  0  0  0  0  0  0  0
    2.7498    2.6227   20.2975 C   0  0  0  0  0  0  0  0  0  0  0  0
    3.4377    2.1340   21.4300 C   0  0  0  0  0  0  0  0  0  0  0  0
    4.5242    1.3075   21.2874 C   0  0  0  0  0  0  0  0  0  0  0  0
    4.9861    0.9319   19.9974 C   0  0  0  0  0  0  0  0  0  0  0  0
    5.0257    0.9216   22.1693 H   0  0  0  0  0  0  0  0  0  0  0  0
    3.0946    2.4129   22.4227 H   0  0  0  0  0  0  0  0  0  0  0  0
    1.8910    3.2759   20.4315 H   0  0  0  0  0  0  0  0  0  0  0  0
    2.6510    2.6439   18.1597 H   0  0  0  0  0  0  0  0  0  0  0  0
    4.2015    1.3981   16.7013 H   0  0  0  0  0  0  0  0  0  0  0  0
    7.2683   -0.8675   18.2428 H   0  0  0  0  0  0  0  0  0  0  0  0
    7.9297   -0.7639   20.5306 H   0  0  0  0  0  0  0  0  0  0  0  0
    7.0780    0.2231   21.6850 H   0  0  0  0  0  0  0  0  0  0  0  0
    9.5036   -3.1428   22.0947 C   0  0  0  0  0  0  0  0  0  0  0  0
   10.7786   -2.8669   22.5573 C   0  0  0  0  0  0  0  0  0  0  0  0
   11.6456   -3.4128   22.2084 H   0  0  0  0  0  0  0  0  0  0  0  0
    9.3327   -3.9087   21.3532 H   0  0  0  0  0  0  0  0  0  0  0  0
    7.7753   -0.8822   23.9168 H   0  0  0  0  0  0  0  0  0  0  0  0
   10.0496   -0.3763   24.7276 H   0  0  0  0  0  0  0  0  0  0  0  0
   12.5499   -0.7084   24.4720 H   0  0  0  0  0  0  0  0  0  0  0  0
   13.1348   -1.6804   23.1359 H   0  0  0  0  0  0  0  0  0  0  0  0
  1  2  3  0
  2  3  1  0
  3  4  1  0
  4  5  2  0
  5  6  1  0
  6  7  2  0
  7  8  1  0
  8  9  1  0
  9 10  1  0
 10 11  2  0
 11 12  1  0
 12 13  2  0
 13 14  1  0
 14 15  1  0
 14 16  2  0
 16 17  1  0
 13 18  1  0
 12 19  1  0
 11 20  1  0
  9 21  1  0
  9 22  1  0
  8 23  1  0
 23 24  2  0
 23 25  1  0
 25 26  1  0
 26 27  2  0
 27 28  1  0
 28 29  2  0
 29 30  1  0
 30 31  2  0
 31 32  1  0
 32 33  2  0
 33 34  1  0
 34 35  2  0
 34 36  1  0
 33 37  1  0
 32 38  1  0
 31 39  1  0
 29 40  1  0
 27 41  1  0
 25 42  1  0
 25 43  1  0
  7 44  1  0
 44 45  2  0
 45 46  1  0
 44 47  1  0
  6 48  1  0
  5 49  1  0
  3 50  1  0
  3 51  1  0
 45  4  1  0
 16 10  1  0
 35 26  1  0
 35 30  1  0
M  END
>  <cnnaffinities>  (28) 
[6.43117]

>  <score>  (28) 
6.43117

>  <index>  (28) 
35

>  <Smiles>  (28) 
N#CC(c1c(c(c(N(C(c2c(c(c(c(Cl)c2[H])[H])[H])[H])([H])[H])C(=O)C(c2c(nc(c3c(c(c(c(c23)[H])[H])[H])[H])[H])[H])([H])[H])c(c1[H])[H])[H])[H])([H])[H]

>  <h>  (28) 
<NA>

>  <Training>  (28) 
True

>  <Success>  (28) 
True

>  <enamine_searched>  (28) 
False

>  <enamine_id>  (28) 
nan

$$$$

     RDKit          3D

 48 51  0  0  0  0  0  0  0  0999 V2000
   13.4256   -1.3690   24.3289 N   0  0  0  0  0  0  0  0  0  0  0  0
   12.3606   -1.6068   23.9406 C   0  0  0  0  0  0  0  0  0  0  0  0
   11.0226   -1.8904   23.4726 C   0  0  0  0  0  0  0  0  0  0  0  0
    9.9256   -1.1770   23.9591 C   0  0  0  0  0  0  0  0  0  0  0  0
    8.6458   -1.4532   23.4963 C   0  0  0  0  0  0  0  0  0  0  0  0
    8.4309   -2.4418   22.5343 C   0  0  0  0  0  0  0  0  0  0  0  0
    7.1243   -2.7419   22.0368 N   0  0  0  0  0  0  0  0  0  0  0  0
    6.5278   -4.0344   22.4241 C   0  0  0  0  0  0  0  0  0  0  0  0
    5.9678   -4.0422   23.8358 C   0  0  0  0  0  0  0  0  0  0  0  0
    6.8150   -4.2321   24.9280 C   0  0  0  0  0  0  0  0  0  0  0  0
    6.3151   -4.1535   26.2215 C   0  0  0  0  0  0  0  0  0  0  0  0
    4.9691   -3.8984   26.4462 C   0  0  0  0  0  0  0  0  0  0  0  0
    4.1353   -3.7079   25.3542 C   0  0  0  0  0  0  0  0  0  0  0  0
    2.4516   -3.3746   25.6177 Cl  0  0  0  0  0  0  0  0  0  0  0  0
    4.6164   -3.7784   24.0544 C   0  0  0  0  0  0  0  0  0  0  0  0
    3.9492   -3.6064   23.2150 H   0  0  0  0  0  0  0  0  0  0  0  0
    4.5764   -3.8439   27.4557 H   0  0  0  0  0  0  0  0  0  0  0  0
    6.9805   -4.3021   27.0652 H   0  0  0  0  0  0  0  0  0  0  0  0
    7.8764   -4.4202   24.7671 H   0  0  0  0  0  0  0  0  0  0  0  0
    7.3039   -4.8027   22.3447 H   0  0  0  0  0  0  0  0  0  0  0  0
    5.7508   -4.2964   21.7029 H   0  0  0  0  0  0  0  0  0  0  0  0
    6.2917   -1.7733   21.4888 C   0  0  0  0  0  0  0  0  0  0  0  0
    5.0893   -1.9402   21.4123 O   0  0  0  0  0  0  0  0  0  0  0  0
    6.9389   -0.5070   20.8860 C   0  0  0  0  0  0  0  0  0  0  0  0
    6.1184    0.0921   19.7662 C   0  0  0  0  0  0  0  0  0  0  0  0
    6.4207   -0.2104   18.4646 C   0  0  0  0  0  0  0  0  0  0  0  0
    5.7587    0.2376   17.3627 N   0  0  0  0  0  0  0  0  0  0  0  0
    4.7353    1.0307   17.5758 C   0  0  0  0  0  0  0  0  0  0  0  0
    4.2853    1.4230   18.8673 C   0  0  0  0  0  0  0  0  0  0  0  0
    3.1622    2.2755   19.0423 C   0  0  0  0  0  0  0  0  0  0  0  0
    2.7459    2.6244   20.2978 C   0  0  0  0  0  0  0  0  0  0  0  0
    3.4346    2.1371   21.4289 C   0  0  0  0  0  0  0  0  0  0  0  0
    4.5239    1.3136   21.2875 C   0  0  0  0  0  0  0  0  0  0  0  0
    4.9862    0.9349   19.9993 C   0  0  0  0  0  0  0  0  0  0  0  0
    5.0257    0.9274   22.1687 H   0  0  0  0  0  0  0  0  0  0  0  0
    3.0914    2.4115   22.4212 H   0  0  0  0  0  0  0  0  0  0  0  0
    1.8876    3.2762   20.4337 H   0  0  0  0  0  0  0  0  0  0  0  0
    2.6421    2.6471   18.1614 H   0  0  0  0  0  0  0  0  0  0  0  0
    4.1975    1.4001   16.6997 H   0  0  0  0  0  0  0  0  0  0  0  0
    7.2636   -0.8653   18.2480 H   0  0  0  0  0  0  0  0  0  0  0  0
    7.9423   -0.7518   20.5195 H   0  0  0  0  0  0  0  0  0  0  0  0
    7.0821    0.2326   21.6825 H   0  0  0  0  0  0  0  0  0  0  0  0
    9.5231   -3.1664   22.0720 C   0  0  0  0  0  0  0  0  0  0  0  0
   10.8060   -2.8869   22.5213 C   0  0  0  0  0  0  0  0  0  0  0  0
   11.6696   -3.4176   22.1500 H   0  0  0  0  0  0  0  0  0  0  0  0
    9.3526   -3.9241   21.3212 H   0  0  0  0  0  0  0  0  0  0  0  0
    7.8042   -0.9005   23.8972 H   0  0  0  0  0  0  0  0  0  0  0  0
   10.0834   -0.3968   24.6943 H   0  0  0  0  0  0  0  0  0  0  0  0
  1  2  3  0
  2  3  1  0
  3  4  2  0
  4  5  1  0
  5  6  2  0
  6  7  1  0
  7  8  1  0
  8  9  1  0
  9 10  2  0
 10 11  1  0
 11 12  2  0
 12 13  1  0
 13 14  1  0
 13 15  2  0
 15 16  1  0
 12 17  1  0
 11 18  1  0
 10 19  1  0
  8 20  1  0
  8 21  1  0
  7 22  1  0
 22 23  2  0
 22 24  1  0
 24 25  1  0
 25 26  2  0
 26 27  1  0
 27 28  2  0
 28 29  1  0
 29 30  2  0
 30 31  1  0
 31 32  2  0
 32 33  1  0
 33 34  2  0
 33 35  1  0
 32 36  1  0
 31 37  1  0
 30 38  1  0
 28 39  1  0
 26 40  1  0
 24 41  1  0
 24 42  1  0
  6 43  1  0
 43 44  2  0
 44 45  1  0
 43 46  1  0
  5 47  1  0
  4 48  1  0
 44  3  1  0
 15  9  1  0
 34 25  1  0
 34 29  1  0
M  END
>  <cnnaffinities>  (29) 
[6.50672]

>  <score>  (29) 
6.50672

>  <index>  (29) 
37

>  <Smiles>  (29) 
N#Cc1c(c(c(N(C(c2c(c(c(c(Cl)c2[H])[H])[H])[H])([H])[H])C(=O)C(c2c(nc(c3c(c(c(c(c23)[H])[H])[H])[H])[H])[H])([H])[H])c(c1[H])[H])[H])[H]

>  <h>  (29) 
<NA>

>  <Training>  (29) 
True

>  <Success>  (29) 
True

>  <enamine_searched>  (29) 
False

>  <enamine_id>  (29) 
nan

$$$$

     RDKit          3D

 72 77  0  0  0  0  0  0  0  0999 V2000
    6.5559   -8.3784   22.9225 C   0  0  0  0  0  0  0  0  0  0  0  0
    7.1831   -7.0663   22.7110 N   0  0  0  0  0  4  0  0  0  0  0  0
    6.8956   -6.4290   21.3832 C   0  0  0  0  0  0  0  0  0  0  0  0
    5.9118   -5.2659   21.5350 C   0  0  0  0  0  0  0  0  0  0  0  0
    6.3864   -4.2859   22.4935 N   0  0  0  0  0  0  0  0  0  0  0  0
    7.4588   -3.3813   22.1565 C   0  0  0  0  0  0  0  0  0  0  0  0
    7.0754   -1.9380   22.5410 C   0  0  2  0  0  0  0  0  0  0  0  0
    5.9270   -1.5004   21.5891 C   0  0  0  0  0  0  0  0  0  0  0  0
    4.7798   -1.8900   21.6108 O   0  0  0  0  0  0  0  0  0  0  0  0
    6.4557   -0.6644   20.6215 N   0  0  0  0  0  0  0  0  0  0  0  0
    5.7388   -0.0720   19.5645 C   0  0  0  0  0  0  0  0  0  0  0  0
    6.1205   -0.2979   18.2648 C   0  0  0  0  0  0  0  0  0  0  0  0
    5.5387    0.2644   17.1780 N   0  0  0  0  0  0  0  0  0  0  0  0
    4.5625    1.1136   17.3929 C   0  0  0  0  0  0  0  0  0  0  0  0
    4.0871    1.4615   18.6893 C   0  0  0  0  0  0  0  0  0  0  0  0
    3.0464    2.4127   18.8663 C   0  0  0  0  0  0  0  0  0  0  0  0
    2.6660    2.7927   20.1241 C   0  0  0  0  0  0  0  0  0  0  0  0
    3.2960    2.2389   21.2612 C   0  0  0  0  0  0  0  0  0  0  0  0
    4.2869    1.3011   21.1149 C   0  0  0  0  0  0  0  0  0  0  0  0
    4.6982    0.8767   19.8193 C   0  0  0  0  0  0  0  0  0  0  0  0
    4.7615    0.8729   21.9906 H   0  0  0  0  0  0  0  0  0  0  0  0
    2.9977    2.5596   22.2571 H   0  0  0  0  0  0  0  0  0  0  0  0
    1.8810    3.5309   20.2626 H   0  0  0  0  0  0  0  0  0  0  0  0
    2.5730    2.8406   17.9852 H   0  0  0  0  0  0  0  0  0  0  0  0
    4.1065    1.5795   16.5181 H   0  0  0  0  0  0  0  0  0  0  0  0
    6.9343   -0.9906   18.0565 H   0  0  0  0  0  0  0  0  0  0  0  0
    7.8835   -0.4651   20.7208 C   0  0  0  0  0  0  0  0  0  0  0  0
    8.2073   -0.9548   22.1377 C   0  0  2  0  0  0  0  0  0  0  0  0
    9.6202   -1.5195   22.1696 C   0  0  0  0  0  0  0  0  0  0  0  0
   10.5648   -0.5373   21.8021 O   0  0  0  0  0  0  0  0  0  0  0  0
   10.9738    0.3389   22.8225 C   0  0  0  0  0  0  0  0  0  0  0  0
   11.4297   -0.3857   24.0947 C   0  0  0  0  0  0  0  0  0  0  0  0
   12.6490    0.3205   24.7438 C   0  0  0  0  0  0  0  0  0  0  0  0
   13.7237   -1.0074   24.1809 S   0  0  0  0  0  0  0  0  0  0  0  0
   14.3570   -0.5011   22.9778 O   0  0  0  0  0  0  0  0  0  0  0  0
   14.4518   -1.7161   25.2230 O   0  0  0  0  0  0  0  0  0  0  0  0
   12.1342   -1.7533   23.8244 C   0  0  0  0  0  0  0  0  0  0  0  0
   11.9020   -2.5449   24.5454 H   0  0  0  0  0  0  0  0  0  0  0  0
   12.0930   -2.1142   22.7949 H   0  0  0  0  0  0  0  0  0  0  0  0
   12.6577    0.4359   25.8241 H   0  0  0  0  0  0  0  0  0  0  0  0
   12.9622    1.2344   24.2406 H   0  0  0  0  0  0  0  0  0  0  0  0
   10.5883   -0.4865   24.7813 H   0  0  0  0  0  0  0  0  0  0  0  0
   11.7940    0.9139   22.3864 H   0  0  0  0  0  0  0  0  0  0  0  0
   10.1798    1.0573   23.0791 H   0  0  0  0  0  0  0  0  0  0  0  0
    9.7406   -2.3079   21.4160 H   0  0  0  0  0  0  0  0  0  0  0  0
    9.8394   -1.9604   23.1515 H   0  0  0  0  0  0  0  0  0  0  0  0
    8.1690   -0.0804   22.7930 H   0  0  0  0  0  0  0  0  0  0  0  0
    8.4337   -1.0267   19.9515 H   0  0  0  0  0  0  0  0  0  0  0  0
    8.1300    0.5915   20.5751 H   0  0  0  0  0  0  0  0  0  0  0  0
    6.6793   -1.9792   24.0138 C   0  0  0  0  0  0  0  0  0  0  0  0
    6.7454   -0.8410   24.8294 C   0  0  0  0  0  0  0  0  0  0  0  0
    6.4329   -0.9329   26.1762 C   0  0  0  0  0  0  0  0  0  0  0  0
    6.5215    0.4925   27.1756 Cl  0  0  0  0  0  0  0  0  0  0  0  0
    6.0213   -2.1269   26.7665 C   0  0  0  0  0  0  0  0  0  0  0  0
    5.9058   -3.2455   25.9665 C   0  0  0  0  0  0  0  0  0  0  0  0
    6.2127   -3.1706   24.6075 C   0  0  0  0  0  0  0  0  0  0  0  0
    6.0202   -4.3975   23.7903 C   0  0  0  0  0  0  0  0  0  0  0  0
    5.5973   -5.4646   24.2463 O   0  0  0  0  0  0  0  0  0  0  0  0
    5.5678   -4.1968   26.3668 H   0  0  0  0  0  0  0  0  0  0  0  0
    5.7991   -2.1705   27.8279 H   0  0  0  0  0  0  0  0  0  0  0  0
    7.0288    0.1268   24.4301 H   0  0  0  0  0  0  0  0  0  0  0  0
    7.6355   -3.4248   21.0904 H   0  0  0  0  0  0  0  0  0  0  0  0
    8.3850   -3.6750   22.6761 H   0  0  0  0  0  0  0  0  0  0  0  0
    4.9584   -5.6357   21.9225 H   0  0  0  0  0  0  0  0  0  0  0  0
    5.7163   -4.7582   20.5819 H   0  0  0  0  0  0  0  0  0  0  0  0
    7.8335   -6.0675   20.9509 H   0  0  0  0  0  0  0  0  0  0  0  0
    6.4735   -7.1721   20.7052 H   0  0  0  0  0  0  0  0  0  0  0  0
    6.8357   -6.4471   23.4631 H   0  0  0  0  0  0  0  0  0  0  0  0
    8.1989   -7.1998   22.8521 H   0  0  0  0  0  0  0  0  0  0  0  0
    7.0402   -8.9188   23.7356 H   0  0  0  0  0  0  0  0  0  0  0  0
    6.6116   -8.9996   22.0213 H   0  0  0  0  0  0  0  0  0  0  0  0
    5.5015   -8.2381   23.1768 H   0  0  0  0  0  0  0  0  0  0  0  0
  1  2  1  0
  2  3  1  0
  3  4  1  0
  4  5  1  0
  5  6  1  0
  7  6  1  6
  7  8  1  0
  8  9  2  0
  8 10  1  0
 10 11  1  0
 11 12  2  0
 12 13  1  0
 13 14  2  0
 14 15  1  0
 15 16  2  0
 16 17  1  0
 17 18  2  0
 18 19  1  0
 19 20  2  0
 19 21  1  0
 18 22  1  0
 17 23  1  0
 16 24  1  0
 14 25  1  0
 12 26  1  0
 10 27  1  0
 27 28  1  0
 28 29  1  0
 29 30  1  0
 30 31  1  0
 31 32  1  0
 32 33  1  0
 33 34  1  0
 34 35  2  0
 34 36  2  0
 34 37  1  0
 37 38  1  0
 37 39  1  0
 33 40  1  0
 33 41  1  0
 32 42  1  0
 31 43  1  0
 31 44  1  0
 29 45  1  0
 29 46  1  0
 28 47  1  1
 27 48  1  0
 27 49  1  0
  7 50  1  0
 50 51  2  0
 51 52  1  0
 52 53  1  0
 52 54  2  0
 54 55  1  0
 55 56  2  0
 56 57  1  0
 57 58  2  0
 55 59  1  0
 54 60  1  0
 51 61  1  0
  6 62  1  0
  6 63  1  0
  4 64  1  0
  4 65  1  0
  3 66  1  0
  3 67  1  0
  2 68  1  0
  2 69  1  0
  1 70  1  0
  1 71  1  0
  1 72  1  0
 57  5  1  0
 28  7  1  0
 37 32  1  0
 56 50  1  0
 20 11  1  0
 20 15  1  0
M  CHG  1   2   1
M  END
>  <cnnaffinities>  (30) 
[6.83145]

>  <score>  (30) 
6.83145

>  <index>  (30) 
38

>  <Smiles>  (30) 
C([N+](C(C(N1C([C@@]2(C(=O)N(c3c(nc(c4c(c(c(c(c34)[H])[H])[H])[H])[H])[H])C([C@@]2(C(OC(C2(C(S(=O)(=O)C2([H])[H])([H])[H])[H])([H])[H])([H])[H])[H])([H])[H])c2c(c(Cl)c(c(c2C1=O)[H])[H])[H])([H])[H])([H])[H])([H])[H])([H])[H])([H])([H])[H]

>  <h>  (30) 
<NA>

>  <Training>  (30) 
True

>  <Success>  (30) 
True

>  <enamine_searched>  (30) 
False

>  <enamine_id>  (30) 
nan

$$$$

     RDKit          3D

 60 64  0  0  0  0  0  0  0  0999 V2000
   11.4747   -0.5176   23.7576 C   0  0  0  0  0  0  0  0  0  0  0  0
   10.4854   -1.6597   23.5662 C   0  0  0  0  0  0  0  0  0  0  0  0
    9.8272   -1.5538   22.3146 O   0  0  0  0  0  0  0  0  0  0  0  0
    8.5514   -0.9606   22.3399 C   0  0  1  0  0  0  0  0  0  0  0  0
    8.2775   -0.4119   20.9471 C   0  0  0  0  0  0  0  0  0  0  0  0
    6.8365   -0.4913   20.8416 N   0  0  0  0  0  0  0  0  0  0  0  0
    6.1087    0.0696   19.7738 C   0  0  0  0  0  0  0  0  0  0  0  0
    6.4638   -0.2140   18.4801 C   0  0  0  0  0  0  0  0  0  0  0  0
    5.8056    0.2367   17.3833 N   0  0  0  0  0  0  0  0  0  0  0  0
    4.7696    1.0110   17.5964 C   0  0  0  0  0  0  0  0  0  0  0  0
    4.3126    1.4055   18.8847 C   0  0  0  0  0  0  0  0  0  0  0  0
    3.1963    2.2663   19.0440 C   0  0  0  0  0  0  0  0  0  0  0  0
    2.7900    2.6540   20.2869 C   0  0  0  0  0  0  0  0  0  0  0  0
    3.4833    2.2097   21.4349 C   0  0  0  0  0  0  0  0  0  0  0  0
    4.5652    1.3754   21.3110 C   0  0  0  0  0  0  0  0  0  0  0  0
    4.9988    0.9369   20.0256 C   0  0  0  0  0  0  0  0  0  0  0  0
    5.0892    1.0451   22.2041 H   0  0  0  0  0  0  0  0  0  0  0  0
    3.1557    2.5382   22.4177 H   0  0  0  0  0  0  0  0  0  0  0  0
    1.9384    3.3197   20.4030 H   0  0  0  0  0  0  0  0  0  0  0  0
    2.6888    2.6170   18.1484 H   0  0  0  0  0  0  0  0  0  0  0  0
    4.2302    1.3786   16.7229 H   0  0  0  0  0  0  0  0  0  0  0  0
    7.3137   -0.8696   18.2927 H   0  0  0  0  0  0  0  0  0  0  0  0
    6.2894   -1.4513   21.6660 C   0  0  0  0  0  0  0  0  0  0  0  0
    5.1517   -1.8686   21.5721 O   0  0  0  0  0  0  0  0  0  0  0  0
    7.3710   -1.9231   22.6672 C   0  0  1  0  0  0  0  0  0  0  0  0
    7.7440   -3.3978   22.3677 C   0  0  0  0  0  0  0  0  0  0  0  0
    6.6872   -4.3047   22.7883 N   0  0  0  0  0  0  0  0  0  0  0  0
    6.0962   -5.2493   21.8554 C   0  0  0  0  0  0  0  0  0  0  0  0
    6.9254   -6.5293   21.7795 C   0  0  0  0  0  0  0  0  0  0  0  0
    7.6823   -6.7605   20.8531 O   0  0  0  0  0  0  0  0  0  0  0  0
    6.7397   -7.3579   22.8458 N   0  0  0  0  0  0  0  0  0  0  0  0
    7.5983   -8.5118   23.0154 C   0  0  0  0  0  0  0  0  0  0  0  0
    8.6321   -8.2285   23.2660 H   0  0  0  0  0  0  0  0  0  0  0  0
    7.6052   -9.0978   22.0940 H   0  0  0  0  0  0  0  0  0  0  0  0
    7.2012   -9.1391   23.8168 H   0  0  0  0  0  0  0  0  0  0  0  0
    6.1913   -7.0225   23.6325 H   0  0  0  0  0  0  0  0  0  0  0  0
    5.0810   -5.4811   22.2059 H   0  0  0  0  0  0  0  0  0  0  0  0
    6.0477   -4.7701   20.8709 H   0  0  0  0  0  0  0  0  0  0  0  0
    6.2093   -4.2726   24.0602 C   0  0  0  0  0  0  0  0  0  0  0  0
    5.6115   -5.2295   24.5545 O   0  0  0  0  0  0  0  0  0  0  0  0
    6.3814   -2.9729   24.7706 C   0  0  0  0  0  0  0  0  0  0  0  0
    5.9411   -2.8940   26.0898 C   0  0  0  0  0  0  0  0  0  0  0  0
    5.9378   -1.6854   26.7558 C   0  0  0  0  0  0  0  0  0  0  0  0
    6.3725   -0.5537   26.0681 C   0  0  0  0  0  0  0  0  0  0  0  0
    6.3336    0.9908   26.8654 Cl  0  0  0  0  0  0  0  0  0  0  0  0
    6.8357   -0.6178   24.7683 C   0  0  0  0  0  0  0  0  0  0  0  0
    6.8733   -1.8451   24.0983 C   0  0  0  0  0  0  0  0  0  0  0  0
    7.1561    0.2964   24.2817 H   0  0  0  0  0  0  0  0  0  0  0  0
    5.5904   -1.6016   27.7803 H   0  0  0  0  0  0  0  0  0  0  0  0
    5.5865   -3.8021   26.5631 H   0  0  0  0  0  0  0  0  0  0  0  0
    8.6993   -3.6239   22.8628 H   0  0  0  0  0  0  0  0  0  0  0  0
    7.9024   -3.5314   21.3030 H   0  0  0  0  0  0  0  0  0  0  0  0
    8.6148    0.6236   20.8400 H   0  0  0  0  0  0  0  0  0  0  0  0
    8.8100   -1.0411   20.2230 H   0  0  0  0  0  0  0  0  0  0  0  0
    8.5362   -0.1272   23.0519 H   0  0  0  0  0  0  0  0  0  0  0  0
    9.7532   -1.7042   24.3932 H   0  0  0  0  0  0  0  0  0  0  0  0
   11.0209   -2.6170   23.5430 H   0  0  0  0  0  0  0  0  0  0  0  0
   12.2123   -0.5235   22.9481 H   0  0  0  0  0  0  0  0  0  0  0  0
   12.0049   -0.6292   24.7090 H   0  0  0  0  0  0  0  0  0  0  0  0
   10.9690    0.4552   23.7551 H   0  0  0  0  0  0  0  0  0  0  0  0
  1  2  1  0
  2  3  1  0
  3  4  1  0
  4  5  1  0
  5  6  1  0
  6  7  1  0
  7  8  2  0
  8  9  1  0
  9 10  2  0
 10 11  1  0
 11 12  2  0
 12 13  1  0
 13 14  2  0
 14 15  1  0
 15 16  2  0
 15 17  1  0
 14 18  1  0
 13 19  1  0
 12 20  1  0
 10 21  1  0
  8 22  1  0
  6 23  1  0
 23 24  2  0
 23 25  1  0
 25 26  1  6
 26 27  1  0
 27 28  1  0
 28 29  1  0
 29 30  2  0
 29 31  1  0
 31 32  1  0
 32 33  1  0
 32 34  1  0
 32 35  1  0
 31 36  1  0
 28 37  1  0
 28 38  1  0
 27 39  1  0
 39 40  2  0
 39 41  1  0
 41 42  2  0
 42 43  1  0
 43 44  2  0
 44 45  1  0
 44 46  1  0
 46 47  2  0
 46 48  1  0
 43 49  1  0
 42 50  1  0
 26 51  1  0
 26 52  1  0
  5 53  1  0
  5 54  1  0
  4 55  1  1
  2 56  1  0
  2 57  1  0
  1 58  1  0
  1 59  1  0
  1 60  1  0
 25  4  1  0
 47 41  1  0
 16  7  1  0
 47 25  1  0
 16 11  1  0
M  END
>  <cnnaffinities>  (31) 
[6.59283]

>  <score>  (31) 
6.59283

>  <index>  (31) 
39

>  <Smiles>  (31) 
C(C(O[C@]1(C(N(c2c(nc(c3c(c(c(c(c23)[H])[H])[H])[H])[H])[H])C(=O)[C@]21C(N(C(C(=O)N(C([H])([H])[H])[H])([H])[H])C(=O)c1c(c(c(Cl)c(c21)[H])[H])[H])([H])[H])([H])[H])[H])([H])[H])([H])([H])[H]

>  <h>  (31) 
<NA>

>  <Training>  (31) 
True

>  <Success>  (31) 
True

>  <enamine_searched>  (31) 
False

>  <enamine_id>  (31) 
nan

$$$$

     RDKit          3D

 57 61  0  0  0  0  0  0  0  0999 V2000
    7.4784   -8.4715   23.0458 C   0  0  0  0  0  0  0  0  0  0  0  0
    6.5932   -7.3819   22.7004 N   0  0  0  0  0  0  0  0  0  0  0  0
    6.8921   -6.5405   21.6788 C   0  0  0  0  0  0  0  0  0  0  0  0
    7.7696   -6.7501   20.8594 O   0  0  0  0  0  0  0  0  0  0  0  0
    6.0747   -5.2501   21.6670 C   0  0  0  0  0  0  0  0  0  0  0  0
    6.6058   -4.3215   22.6430 N   0  0  0  0  0  0  0  0  0  0  0  0
    7.7013   -3.4349   22.2916 C   0  0  0  0  0  0  0  0  0  0  0  0
    7.3386   -1.9774   22.6435 C   0  0  2  0  0  0  0  0  0  0  0  0
    6.2582   -1.4805   21.6493 C   0  0  0  0  0  0  0  0  0  0  0  0
    5.1253   -1.8926   21.5319 O   0  0  0  0  0  0  0  0  0  0  0  0
    6.8138   -0.4965   20.8527 N   0  0  0  0  0  0  0  0  0  0  0  0
    6.1031    0.0676   19.7754 C   0  0  0  0  0  0  0  0  0  0  0  0
    6.4643   -0.2114   18.4821 C   0  0  0  0  0  0  0  0  0  0  0  0
    5.8097    0.2411   17.3847 N   0  0  0  0  0  0  0  0  0  0  0  0
    4.7723    1.0178   17.5910 C   0  0  0  0  0  0  0  0  0  0  0  0
    4.3132    1.4104   18.8797 C   0  0  0  0  0  0  0  0  0  0  0  0
    3.1946    2.2692   19.0353 C   0  0  0  0  0  0  0  0  0  0  0  0
    2.7897    2.6586   20.2818 C   0  0  0  0  0  0  0  0  0  0  0  0
    3.4843    2.2148   21.4291 C   0  0  0  0  0  0  0  0  0  0  0  0
    4.5662    1.3788   21.3061 C   0  0  0  0  0  0  0  0  0  0  0  0
    4.9984    0.9412   20.0200 C   0  0  0  0  0  0  0  0  0  0  0  0
    5.0958    1.0430   22.1926 H   0  0  0  0  0  0  0  0  0  0  0  0
    3.1556    2.5389   22.4133 H   0  0  0  0  0  0  0  0  0  0  0  0
    1.9374    3.3221   20.3989 H   0  0  0  0  0  0  0  0  0  0  0  0
    2.6855    2.6209   18.1416 H   0  0  0  0  0  0  0  0  0  0  0  0
    4.2346    1.3788   16.7134 H   0  0  0  0  0  0  0  0  0  0  0  0
    7.3135   -0.8665   18.2916 H   0  0  0  0  0  0  0  0  0  0  0  0
    8.2533   -0.4218   20.9697 C   0  0  0  0  0  0  0  0  0  0  0  0
    8.5056   -1.0034   22.3597 C   0  0  2  0  0  0  0  0  0  0  0  0
    9.9394   -1.5263   22.5254 C   0  0  0  0  0  0  0  0  0  0  0  0
   10.8515   -0.3780   22.5547 C   0  0  0  0  0  0  0  0  0  0  0  0
   11.4740    0.5958   22.5489 N   0  0  0  0  0  0  0  0  0  0  0  0
   10.2351   -2.1654   21.6890 H   0  0  0  0  0  0  0  0  0  0  0  0
   10.0568   -2.1063   23.4449 H   0  0  0  0  0  0  0  0  0  0  0  0
    8.4023   -0.1812   23.0624 H   0  0  0  0  0  0  0  0  0  0  0  0
    8.7680   -1.0079   20.1940 H   0  0  0  0  0  0  0  0  0  0  0  0
    8.6028    0.6120   20.8962 H   0  0  0  0  0  0  0  0  0  0  0  0
    6.8403   -1.9601   24.0809 C   0  0  0  0  0  0  0  0  0  0  0  0
    6.8210   -0.7692   24.8193 C   0  0  0  0  0  0  0  0  0  0  0  0
    6.3632   -0.7632   26.1232 C   0  0  0  0  0  0  0  0  0  0  0  0
    6.3395    0.7439   26.9997 Cl  0  0  0  0  0  0  0  0  0  0  0  0
    5.9307   -1.9305   26.7542 C   0  0  0  0  0  0  0  0  0  0  0  0
    5.9207   -3.1040   26.0269 C   0  0  0  0  0  0  0  0  0  0  0  0
    6.3333   -3.1146   24.6961 C   0  0  0  0  0  0  0  0  0  0  0  0
    6.1356   -4.3658   23.9156 C   0  0  0  0  0  0  0  0  0  0  0  0
    5.5317   -5.3417   24.3678 O   0  0  0  0  0  0  0  0  0  0  0  0
    5.5773   -4.0342   26.4663 H   0  0  0  0  0  0  0  0  0  0  0  0
    5.5950   -1.9018   27.7859 H   0  0  0  0  0  0  0  0  0  0  0  0
    7.1693    0.1668   24.3960 H   0  0  0  0  0  0  0  0  0  0  0  0
    8.6247   -3.7164   22.8198 H   0  0  0  0  0  0  0  0  0  0  0  0
    7.8900   -3.5287   21.2265 H   0  0  0  0  0  0  0  0  0  0  0  0
    5.0271   -5.4551   21.9070 H   0  0  0  0  0  0  0  0  0  0  0  0
    6.1211   -4.7795   20.6802 H   0  0  0  0  0  0  0  0  0  0  0  0
    6.0151   -7.0039   23.4410 H   0  0  0  0  0  0  0  0  0  0  0  0
    7.0033   -9.0676   23.8273 H   0  0  0  0  0  0  0  0  0  0  0  0
    7.6532   -9.1169   22.1861 H   0  0  0  0  0  0  0  0  0  0  0  0
    8.4437   -8.1119   23.4221 H   0  0  0  0  0  0  0  0  0  0  0  0
  1  2  1  0
  2  3  1  0
  3  4  2  0
  3  5  1  0
  5  6  1  0
  6  7  1  0
  8  7  1  6
  8  9  1  0
  9 10  2  0
  9 11  1  0
 11 12  1  0
 12 13  2  0
 13 14  1  0
 14 15  2  0
 15 16  1  0
 16 17  2  0
 17 18  1  0
 18 19  2  0
 19 20  1  0
 20 21  2  0
 20 22  1  0
 19 23  1  0
 18 24  1  0
 17 25  1  0
 15 26  1  0
 13 27  1  0
 11 28  1  0
 28 29  1  0
 29 30  1  0
 30 31  1  0
 31 32  3  0
 30 33  1  0
 30 34  1  0
 29 35  1  1
 28 36  1  0
 28 37  1  0
  8 38  1  0
 38 39  2  0
 39 40  1  0
 40 41  1  0
 40 42  2  0
 42 43  1  0
 43 44  2  0
 44 45  1  0
 45 46  2  0
 43 47  1  0
 42 48  1  0
 39 49  1  0
  7 50  1  0
  7 51  1  0
  5 52  1  0
  5 53  1  0
  2 54  1  0
  1 55  1  0
  1 56  1  0
  1 57  1  0
 45  6  1  0
 29  8  1  0
 44 38  1  0
 21 12  1  0
 21 16  1  0
M  END
>  <cnnaffinities>  (32) 
[7.01276]

>  <score>  (32) 
7.01276

>  <index>  (32) 
40

>  <Smiles>  (32) 
C(N(C(=O)C(N1C([C@@]2(C(=O)N(c3c(nc(c4c(c(c(c(c34)[H])[H])[H])[H])[H])[H])C([C@@]2(C(C#N)([H])[H])[H])([H])[H])c2c(c(Cl)c(c(c2C1=O)[H])[H])[H])([H])[H])([H])[H])[H])([H])([H])[H]

>  <h>  (32) 
<NA>

>  <Training>  (32) 
True

>  <Success>  (32) 
True

>  <enamine_searched>  (32) 
False

>  <enamine_id>  (32) 
nan

$$$$

     RDKit          3D

 60 65  0  0  0  0  0  0  0  0999 V2000
    5.8640    1.0681   28.7988 C   0  0  0  0  0  0  0  0  0  0  0  0
    6.3248    1.2742   27.4425 N   0  0  0  0  0  0  0  0  0  0  0  0
    5.6203    0.7626   26.3923 C   0  0  0  0  0  0  0  0  0  0  0  0
    4.6943   -0.0222   26.5113 O   0  0  0  0  0  0  0  0  0  0  0  0
    6.0219    1.3100   25.0121 C   0  0  0  0  0  0  0  0  0  0  0  0
    6.9714    0.4872   24.2773 N   0  0  0  0  0  0  0  0  0  0  0  0
    6.4747   -0.6984   23.5785 C   0  0  0  0  0  0  0  0  0  0  0  0
    7.2886   -1.0431   22.3047 C   0  0  2  0  0  0  0  0  0  0  0  0
    6.7994   -0.2343   21.0972 C   0  0  0  0  0  0  0  0  0  0  0  0
    7.1449    0.8720   20.7388 O   0  0  0  0  0  0  0  0  0  0  0  0
    5.8789   -1.0014   20.4180 N   0  0  0  0  0  0  0  0  0  0  0  0
    5.2302   -0.4166   19.3079 C   0  0  0  0  0  0  0  0  0  0  0  0
    5.5869   -0.7559   18.0294 C   0  0  0  0  0  0  0  0  0  0  0  0
    5.1525   -0.1022   16.9224 N   0  0  0  0  0  0  0  0  0  0  0  0
    4.3461    0.9211   17.0976 C   0  0  0  0  0  0  0  0  0  0  0  0
    3.8578    1.3464   18.3699 C   0  0  0  0  0  0  0  0  0  0  0  0
    2.9748    2.4466   18.5456 C   0  0  0  0  0  0  0  0  0  0  0  0
    2.5636    2.8341   19.7934 C   0  0  0  0  0  0  0  0  0  0  0  0
    2.9739    2.1086   20.9334 C   0  0  0  0  0  0  0  0  0  0  0  0
    3.8018    1.0272   20.7917 C   0  0  0  0  0  0  0  0  0  0  0  0
    4.3002    0.6464   19.5144 C   0  0  0  0  0  0  0  0  0  0  0  0
    4.0826    0.4442   21.6638 H   0  0  0  0  0  0  0  0  0  0  0  0
    2.6394    2.4035   21.9230 H   0  0  0  0  0  0  0  0  0  0  0  0
    1.9213    3.7018   19.9208 H   0  0  0  0  0  0  0  0  0  0  0  0
    2.6310    2.9833   17.6666 H   0  0  0  0  0  0  0  0  0  0  0  0
    4.0468    1.4719   16.2029 H   0  0  0  0  0  0  0  0  0  0  0  0
    6.2817   -1.5772   17.8494 H   0  0  0  0  0  0  0  0  0  0  0  0
    5.7318   -2.3487   20.9451 C   0  0  0  0  0  0  0  0  0  0  0  0
    7.0051   -2.4972   21.8074 C   0  0  2  0  0  0  0  0  0  0  0  0
    7.0478   -3.6252   22.8643 C   0  0  0  0  0  0  0  0  0  0  0  0
    8.2994   -3.5818   23.7163 C   0  0  0  0  0  0  0  0  0  0  0  0
    8.3610   -3.2164   24.9857 N   0  0  0  0  0  0  0  0  0  0  0  0
    9.6544   -3.3049   25.3144 N   0  0  0  0  0  0  0  0  0  0  0  0
   10.3272   -3.7143   24.2822 N   0  0  0  0  0  2  0  0  0  0  0  0
    9.4948   -3.9072   23.2555 N   0  0  0  0  0  0  0  0  0  0  0  0
    7.0543   -4.5940   22.3610 H   0  0  0  0  0  0  0  0  0  0  0  0
    6.1854   -3.5979   23.5325 H   0  0  0  0  0  0  0  0  0  0  0  0
    7.8178   -2.7383   21.1188 H   0  0  0  0  0  0  0  0  0  0  0  0
    4.8184   -2.4535   21.5517 H   0  0  0  0  0  0  0  0  0  0  0  0
    5.6861   -3.0624   20.1216 H   0  0  0  0  0  0  0  0  0  0  0  0
    8.7516   -0.7645   22.5674 C   0  0  0  0  0  0  0  0  0  0  0  0
    9.6644   -1.1610   21.5863 C   0  0  0  0  0  0  0  0  0  0  0  0
   11.0163   -1.0344   21.8048 C   0  0  0  0  0  0  0  0  0  0  0  0
   12.1060   -1.7439   20.6592 Cl  0  0  0  0  0  0  0  0  0  0  0  0
   11.5136   -0.3912   22.9365 C   0  0  0  0  0  0  0  0  0  0  0  0
   10.6124    0.0932   23.8634 C   0  0  0  0  0  0  0  0  0  0  0  0
    9.2405   -0.0856   23.6930 C   0  0  0  0  0  0  0  0  0  0  0  0
    8.2813    0.5166   24.6804 C   0  0  0  0  0  0  0  0  0  0  0  0
    8.6213    1.0265   25.7468 O   0  0  0  0  0  0  0  0  0  0  0  0
   10.9774    0.6636   24.7050 H   0  0  0  0  0  0  0  0  0  0  0  0
   12.5840   -0.2635   23.0587 H   0  0  0  0  0  0  0  0  0  0  0  0
    9.3141   -1.5892   20.6519 H   0  0  0  0  0  0  0  0  0  0  0  0
    6.5407   -1.5566   24.2611 H   0  0  0  0  0  0  0  0  0  0  0  0
    5.4212   -0.5395   23.3235 H   0  0  0  0  0  0  0  0  0  0  0  0
    6.4309    2.3207   25.1024 H   0  0  0  0  0  0  0  0  0  0  0  0
    5.1043    1.3803   24.4188 H   0  0  0  0  0  0  0  0  0  0  0  0
    7.2762    1.5748   27.2660 H   0  0  0  0  0  0  0  0  0  0  0  0
    4.7740    0.9881   28.7756 H   0  0  0  0  0  0  0  0  0  0  0  0
    6.1443    1.9306   29.4120 H   0  0  0  0  0  0  0  0  0  0  0  0
    6.2560    0.1496   29.2547 H   0  0  0  0  0  0  0  0  0  0  0  0
  1  2  1  0
  2  3  1  0
  3  4  2  0
  3  5  1  0
  5  6  1  0
  6  7  1  0
  8  7  1  1
  8  9  1  0
  9 10  2  0
  9 11  1  0
 11 12  1  0
 12 13  2  0
 13 14  1  0
 14 15  2  0
 15 16  1  0
 16 17  2  0
 17 18  1  0
 18 19  2  0
 19 20  1  0
 20 21  2  0
 20 22  1  0
 19 23  1  0
 18 24  1  0
 17 25  1  0
 15 26  1  0
 13 27  1  0
 11 28  1  0
 28 29  1  0
 29 30  1  0
 30 31  1  0
 31 32  1  0
 32 33  2  0
 33 34  1  0
 34 35  1  0
 30 36  1  0
 30 37  1  0
 29 38  1  6
 28 39  1  0
 28 40  1  0
  8 41  1  0
 41 42  2  0
 42 43  1  0
 43 44  1  0
 43 45  2  0
 45 46  1  0
 46 47  2  0
 47 48  1  0
 48 49  2  0
 46 50  1  0
 45 51  1  0
 42 52  1  0
  7 53  1  0
  7 54  1  0
  5 55  1  0
  5 56  1  0
  2 57  1  0
  1 58  1  0
  1 59  1  0
  1 60  1  0
 48  6  1  0
 29  8  1  0
 35 31  2  0
 47 41  1  0
 21 12  1  0
 21 16  1  0
M  CHG  1  34  -1
M  END
>  <cnnaffinities>  (33) 
[6.02873]

>  <score>  (33) 
6.02873

>  <index>  (33) 
42

>  <Smiles>  (33) 
C(N(C(=O)C(N1C([C@@]2(C(=O)N(c3c(nc(c4c(c(c(c(c34)[H])[H])[H])[H])[H])[H])C([C@@]2(C(c2nn[n-]n2)([H])[H])[H])([H])[H])c2c(c(Cl)c(c(c2C1=O)[H])[H])[H])([H])[H])([H])[H])[H])([H])([H])[H]

>  <h>  (33) 
<NA>

>  <Training>  (33) 
True

>  <Success>  (33) 
True

>  <enamine_searched>  (33) 
False

>  <enamine_id>  (33) 
nan

$$$$

     RDKit          3D

 56 60  0  0  0  0  0  0  0  0999 V2000
    7.5377   -8.4130   23.0305 C   0  0  0  0  0  0  0  0  0  0  0  0
    6.6114   -7.3861   22.6034 N   0  0  0  0  0  0  0  0  0  0  0  0
    6.9491   -6.5269   21.6016 C   0  0  0  0  0  0  0  0  0  0  0  0
    7.8524   -6.7238   20.8065 O   0  0  0  0  0  0  0  0  0  0  0  0
    6.1405   -5.2225   21.5912 C   0  0  0  0  0  0  0  0  0  0  0  0
    6.6634   -4.2992   22.5881 N   0  0  0  0  0  0  0  0  0  0  0  0
    7.7528   -3.3897   22.2753 C   0  0  0  0  0  0  0  0  0  0  0  0
    7.3943   -1.9327   22.6522 C   0  0  2  0  0  0  0  0  0  0  0  0
    6.3007   -1.4302   21.6816 C   0  0  0  0  0  0  0  0  0  0  0  0
    5.1596   -1.8297   21.6073 O   0  0  0  0  0  0  0  0  0  0  0  0
    6.8487   -0.4720   20.8525 N   0  0  0  0  0  0  0  0  0  0  0  0
    6.1171    0.0768   19.7800 C   0  0  0  0  0  0  0  0  0  0  0  0
    6.4666   -0.2146   18.4857 C   0  0  0  0  0  0  0  0  0  0  0  0
    5.8059    0.2324   17.3893 N   0  0  0  0  0  0  0  0  0  0  0  0
    4.7685    1.0098   17.5960 C   0  0  0  0  0  0  0  0  0  0  0  0
    4.3158    1.4076   18.8862 C   0  0  0  0  0  0  0  0  0  0  0  0
    3.1978    2.2666   19.0450 C   0  0  0  0  0  0  0  0  0  0  0  0
    2.7914    2.6525   20.2921 C   0  0  0  0  0  0  0  0  0  0  0  0
    3.4858    2.2064   21.4374 C   0  0  0  0  0  0  0  0  0  0  0  0
    4.5705    1.3752   21.3131 C   0  0  0  0  0  0  0  0  0  0  0  0
    5.0044    0.9420   20.0251 C   0  0  0  0  0  0  0  0  0  0  0  0
    5.0940    1.0397   22.2030 H   0  0  0  0  0  0  0  0  0  0  0  0
    3.1590    2.5322   22.4209 H   0  0  0  0  0  0  0  0  0  0  0  0
    1.9403    3.3166   20.4100 H   0  0  0  0  0  0  0  0  0  0  0  0
    2.6866    2.6184   18.1543 H   0  0  0  0  0  0  0  0  0  0  0  0
    4.2293    1.3784   16.7223 H   0  0  0  0  0  0  0  0  0  0  0  0
    7.3114   -0.8760   18.2951 H   0  0  0  0  0  0  0  0  0  0  0  0
    8.2910   -0.3896   20.9594 C   0  0  0  0  0  0  0  0  0  0  0  0
    8.5610   -0.9433   22.3655 C   0  0  2  0  0  0  0  0  0  0  0  0
    9.9893   -1.4652   22.4410 C   0  0  0  0  0  0  0  0  0  0  0  0
   10.4628   -2.0005   24.0779 Cl  0  0  0  0  0  0  0  0  0  0  0  0
   10.1363   -2.3163   21.7713 H   0  0  0  0  0  0  0  0  0  0  0  0
   10.6979   -0.6838   22.1601 H   0  0  0  0  0  0  0  0  0  0  0  0
    8.4800   -0.1107   23.0633 H   0  0  0  0  0  0  0  0  0  0  0  0
    8.6212    0.6478   20.8566 H   0  0  0  0  0  0  0  0  0  0  0  0
    8.8120   -0.9916   20.1981 H   0  0  0  0  0  0  0  0  0  0  0  0
    6.8974   -1.9554   24.0834 C   0  0  0  0  0  0  0  0  0  0  0  0
    6.8544   -0.7884   24.8488 C   0  0  0  0  0  0  0  0  0  0  0  0
    6.3935   -0.8290   26.1509 C   0  0  0  0  0  0  0  0  0  0  0  0
    6.3523    0.6488   27.0586 Cl  0  0  0  0  0  0  0  0  0  0  0  0
    5.9624   -2.0082   26.7542 C   0  0  0  0  0  0  0  0  0  0  0  0
    5.9625   -3.1536   25.9892 C   0  0  0  0  0  0  0  0  0  0  0  0
    6.3903   -3.1260   24.6659 C   0  0  0  0  0  0  0  0  0  0  0  0
    6.1822   -4.3618   23.8568 C   0  0  0  0  0  0  0  0  0  0  0  0
    5.5660   -5.3381   24.2854 O   0  0  0  0  0  0  0  0  0  0  0  0
    5.6124   -4.0948   26.3885 H   0  0  0  0  0  0  0  0  0  0  0  0
    5.6219   -2.0100   27.7849 H   0  0  0  0  0  0  0  0  0  0  0  0
    7.1798    0.1611   24.4404 H   0  0  0  0  0  0  0  0  0  0  0  0
    8.6709   -3.6845   22.8015 H   0  0  0  0  0  0  0  0  0  0  0  0
    7.9585   -3.4562   21.2144 H   0  0  0  0  0  0  0  0  0  0  0  0
    5.0902   -5.4111   21.8372 H   0  0  0  0  0  0  0  0  0  0  0  0
    6.1803   -4.7319   20.6091 H   0  0  0  0  0  0  0  0  0  0  0  0
    5.9314   -7.0790   23.2927 H   0  0  0  0  0  0  0  0  0  0  0  0
    8.4662   -7.9904   23.4488 H   0  0  0  0  0  0  0  0  0  0  0  0
    7.0231   -9.0276   23.7715 H   0  0  0  0  0  0  0  0  0  0  0  0
    7.7709   -9.0515   22.1774 H   0  0  0  0  0  0  0  0  0  0  0  0
  1  2  1  0
  2  3  1  0
  3  4  2  0
  3  5  1  0
  5  6  1  0
  6  7  1  0
  8  7  1  6
  8  9  1  0
  9 10  2  0
  9 11  1  0
 11 12  1  0
 12 13  2  0
 13 14  1  0
 14 15  2  0
 15 16  1  0
 16 17  2  0
 17 18  1  0
 18 19  2  0
 19 20  1  0
 20 21  2  0
 20 22  1  0
 19 23  1  0
 18 24  1  0
 17 25  1  0
 15 26  1  0
 13 27  1  0
 11 28  1  0
 28 29  1  0
 29 30  1  0
 30 31  1  0
 30 32  1  0
 30 33  1  0
 29 34  1  1
 28 35  1  0
 28 36  1  0
  8 37  1  0
 37 38  2  0
 38 39  1  0
 39 40  1  0
 39 41  2  0
 41 42  1  0
 42 43  2  0
 43 44  1  0
 44 45  2  0
 42 46  1  0
 41 47  1  0
 38 48  1  0
  7 49  1  0
  7 50  1  0
  5 51  1  0
  5 52  1  0
  2 53  1  0
  1 54  1  0
  1 55  1  0
  1 56  1  0
 44  6  1  0
 29  8  1  0
 43 37  1  0
 21 12  1  0
 21 16  1  0
M  END
>  <cnnaffinities>  (34) 
[6.79362, 6.5991]

>  <score>  (34) 
6.79362

>  <index>  (34) 
44

>  <Smiles>  (34) 
C(N(C(=O)C(N1C([C@@]2(C(=O)N(c3c(nc(c4c(c(c(c(c34)[H])[H])[H])[H])[H])[H])C([C@@]2(C(Cl)([H])[H])[H])([H])[H])c2c(c(Cl)c(c(c2C1=O)[H])[H])[H])([H])[H])([H])[H])[H])([H])([H])[H]

>  <h>  (34) 
<NA>

>  <Training>  (34) 
True

>  <Success>  (34) 
True

>  <enamine_searched>  (34) 
False

>  <enamine_id>  (34) 
nan

$$$$

     RDKit          3D

 60 64  0  0  0  0  0  0  0  0999 V2000
    7.6358   -8.4931   23.0222 C   0  0  0  0  0  0  0  0  0  0  0  0
    6.7595   -7.3473   22.8716 N   0  0  0  0  0  0  0  0  0  0  0  0
    6.9167   -6.5069   21.8146 C   0  0  0  0  0  0  0  0  0  0  0  0
    7.6719   -6.7157   20.8811 O   0  0  0  0  0  0  0  0  0  0  0  0
    6.0700   -5.2379   21.8922 C   0  0  0  0  0  0  0  0  0  0  0  0
    6.6529   -4.2762   22.8128 N   0  0  0  0  0  0  0  0  0  0  0  0
    7.7237   -3.3815   22.3883 C   0  0  0  0  0  0  0  0  0  0  0  0
    7.3517   -1.9001   22.6834 C   0  0  2  0  0  0  0  0  0  0  0  0
    6.2769   -1.4508   21.6614 C   0  0  0  0  0  0  0  0  0  0  0  0
    5.1486   -1.8926   21.5471 O   0  0  0  0  0  0  0  0  0  0  0  0
    6.8199   -0.4788   20.8456 N   0  0  0  0  0  0  0  0  0  0  0  0
    6.1005    0.0739   19.7710 C   0  0  0  0  0  0  0  0  0  0  0  0
    6.4585   -0.2137   18.4780 C   0  0  0  0  0  0  0  0  0  0  0  0
    5.8023    0.2366   17.3820 N   0  0  0  0  0  0  0  0  0  0  0  0
    4.7663    1.0151   17.5936 C   0  0  0  0  0  0  0  0  0  0  0  0
    4.3085    1.4090   18.8835 C   0  0  0  0  0  0  0  0  0  0  0  0
    3.1926    2.2697   19.0427 C   0  0  0  0  0  0  0  0  0  0  0  0
    2.7907    2.6535   20.2923 C   0  0  0  0  0  0  0  0  0  0  0  0
    3.4859    2.2086   21.4366 C   0  0  0  0  0  0  0  0  0  0  0  0
    4.5678    1.3746   21.3100 C   0  0  0  0  0  0  0  0  0  0  0  0
    4.9941    0.9415   20.0201 C   0  0  0  0  0  0  0  0  0  0  0  0
    5.0976    1.0399   22.1962 H   0  0  0  0  0  0  0  0  0  0  0  0
    3.1605    2.5344   22.4200 H   0  0  0  0  0  0  0  0  0  0  0  0
    1.9416    3.3187   20.4086 H   0  0  0  0  0  0  0  0  0  0  0  0
    2.6836    2.6216   18.1508 H   0  0  0  0  0  0  0  0  0  0  0  0
    4.2277    1.3800   16.7206 H   0  0  0  0  0  0  0  0  0  0  0  0
    7.3084   -0.8692   18.2914 H   0  0  0  0  0  0  0  0  0  0  0  0
    8.2559   -0.3492   20.9837 C   0  0  0  0  0  0  0  0  0  0  0  0
    8.5013   -0.8869   22.3899 C   0  0  2  0  0  0  0  0  0  0  0  0
    9.9257   -1.3703   22.5523 C   0  0  0  0  0  0  0  0  0  0  0  0
   10.2302   -2.2109   21.4671 O   0  0  0  0  0  0  0  0  0  0  0  0
   11.5516   -2.6666   21.5079 C   0  0  0  0  0  0  0  0  0  0  0  0
   11.6903   -3.3653   22.3452 H   0  0  0  0  0  0  0  0  0  0  0  0
   11.7574   -3.1446   20.5489 H   0  0  0  0  0  0  0  0  0  0  0  0
   12.2615   -1.8395   21.6305 H   0  0  0  0  0  0  0  0  0  0  0  0
   10.6081   -0.5044   22.5579 H   0  0  0  0  0  0  0  0  0  0  0  0
   10.0549   -1.9084   23.5051 H   0  0  0  0  0  0  0  0  0  0  0  0
    8.3710   -0.0563   23.0817 H   0  0  0  0  0  0  0  0  0  0  0  0
    8.5622    0.6980   20.8860 H   0  0  0  0  0  0  0  0  0  0  0  0
    8.8069   -0.9524   20.2544 H   0  0  0  0  0  0  0  0  0  0  0  0
    6.8284   -1.8218   24.1106 C   0  0  0  0  0  0  0  0  0  0  0  0
    6.7505   -0.5886   24.7679 C   0  0  0  0  0  0  0  0  0  0  0  0
    6.2872   -0.5153   26.0651 C   0  0  0  0  0  0  0  0  0  0  0  0
    6.2357    1.0375   26.8398 Cl  0  0  0  0  0  0  0  0  0  0  0  0
    5.8760   -1.6450   26.7676 C   0  0  0  0  0  0  0  0  0  0  0  0
    5.9031   -2.8586   26.1126 C   0  0  0  0  0  0  0  0  0  0  0  0
    6.3468   -2.9465   24.7943 C   0  0  0  0  0  0  0  0  0  0  0  0
    6.1881   -4.2524   24.0904 C   0  0  0  0  0  0  0  0  0  0  0  0
    5.6138   -5.2192   24.5870 O   0  0  0  0  0  0  0  0  0  0  0  0
    5.5609   -3.7656   26.5952 H   0  0  0  0  0  0  0  0  0  0  0  0
    5.5297   -1.5630   27.7922 H   0  0  0  0  0  0  0  0  0  0  0  0
    7.0449    0.3344   24.2824 H   0  0  0  0  0  0  0  0  0  0  0  0
    8.6756   -3.6257   22.8851 H   0  0  0  0  0  0  0  0  0  0  0  0
    7.8791   -3.5316   21.3255 H   0  0  0  0  0  0  0  0  0  0  0  0
    6.0026   -4.7727   20.9031 H   0  0  0  0  0  0  0  0  0  0  0  0
    5.0618   -5.4944   22.2447 H   0  0  0  0  0  0  0  0  0  0  0  0
    6.2213   -7.0202   23.6705 H   0  0  0  0  0  0  0  0  0  0  0  0
    7.6139   -9.0761   22.0984 H   0  0  0  0  0  0  0  0  0  0  0  0
    7.2735   -9.1275   23.8350 H   0  0  0  0  0  0  0  0  0  0  0  0
    8.6675   -8.1843   23.2486 H   0  0  0  0  0  0  0  0  0  0  0  0
  1  2  1  0
  2  3  1  0
  3  4  2  0
  3  5  1  0
  5  6  1  0
  6  7  1  0
  8  7  1  6
  8  9  1  0
  9 10  2  0
  9 11  1  0
 11 12  1  0
 12 13  2  0
 13 14  1  0
 14 15  2  0
 15 16  1  0
 16 17  2  0
 17 18  1  0
 18 19  2  0
 19 20  1  0
 20 21  2  0
 20 22  1  0
 19 23  1  0
 18 24  1  0
 17 25  1  0
 15 26  1  0
 13 27  1  0
 11 28  1  0
 28 29  1  0
 29 30  1  0
 30 31  1  0
 31 32  1  0
 32 33  1  0
 32 34  1  0
 32 35  1  0
 30 36  1  0
 30 37  1  0
 29 38  1  1
 28 39  1  0
 28 40  1  0
  8 41  1  0
 41 42  2  0
 42 43  1  0
 43 44  1  0
 43 45  2  0
 45 46  1  0
 46 47  2  0
 47 48  1  0
 48 49  2  0
 46 50  1  0
 45 51  1  0
 42 52  1  0
  7 53  1  0
  7 54  1  0
  5 55  1  0
  5 56  1  0
  2 57  1  0
  1 58  1  0
  1 59  1  0
  1 60  1  0
 48  6  1  0
 29  8  1  0
 47 41  1  0
 21 12  1  0
 21 16  1  0
M  END
>  <cnnaffinities>  (35) 
[6.80118, 6.77345, 6.80848]

>  <score>  (35) 
6.80118

>  <index>  (35) 
45

>  <Smiles>  (35) 
C(N(C(=O)C(N1C([C@@]2(C(=O)N(c3c(nc(c4c(c(c(c(c34)[H])[H])[H])[H])[H])[H])C([C@@]2(C(OC([H])([H])[H])([H])[H])[H])([H])[H])c2c(c(Cl)c(c(c2C1=O)[H])[H])[H])([H])[H])([H])[H])[H])([H])([H])[H]

>  <h>  (35) 
<NA>

>  <Training>  (35) 
True

>  <Success>  (35) 
True

>  <enamine_searched>  (35) 
False

>  <enamine_id>  (35) 
nan

$$$$

     RDKit          3D

 64 68  0  0  0  0  0  0  0  0999 V2000
   12.0946    0.1514   24.1992 C   0  0  0  0  0  0  0  0  0  0  0  0
   11.8546   -1.2638   23.6778 C   0  0  0  0  0  0  0  0  0  0  0  0
   11.1931   -1.2041   21.9996 S   0  0  0  0  0  0  0  0  0  0  0  0
   11.0457    0.2052   21.6566 O   0  0  0  0  0  0  0  0  0  0  0  0
   11.9030   -2.1286   21.1380 O   0  0  0  0  0  0  0  0  0  0  0  0
    9.6649   -1.8787   22.1720 N   0  0  0  0  0  0  0  0  0  0  0  0
    8.5593   -0.9319   22.3797 C   0  0  1  0  0  0  0  0  0  0  0  0
    8.1843   -0.1112   21.1267 C   0  0  0  0  0  0  0  0  0  0  0  0
    6.8292   -0.5046   20.8386 N   0  0  0  0  0  0  0  0  0  0  0  0
    6.0928    0.0533   19.7720 C   0  0  0  0  0  0  0  0  0  0  0  0
    6.4615   -0.2087   18.4777 C   0  0  0  0  0  0  0  0  0  0  0  0
    5.8087    0.2528   17.3837 N   0  0  0  0  0  0  0  0  0  0  0  0
    4.7666    1.0219   17.5943 C   0  0  0  0  0  0  0  0  0  0  0  0
    4.3053    1.4071   18.8857 C   0  0  0  0  0  0  0  0  0  0  0  0
    3.1894    2.2693   19.0437 C   0  0  0  0  0  0  0  0  0  0  0  0
    2.7905    2.6614   20.2904 C   0  0  0  0  0  0  0  0  0  0  0  0
    3.4935    2.2189   21.4359 C   0  0  0  0  0  0  0  0  0  0  0  0
    4.5743    1.3808   21.3159 C   0  0  0  0  0  0  0  0  0  0  0  0
    4.9912    0.9312   20.0249 C   0  0  0  0  0  0  0  0  0  0  0  0
    5.1144    1.0634   22.2108 H   0  0  0  0  0  0  0  0  0  0  0  0
    3.1667    2.5454   22.4192 H   0  0  0  0  0  0  0  0  0  0  0  0
    1.9386    3.3253   20.4100 H   0  0  0  0  0  0  0  0  0  0  0  0
    2.6799    2.6202   18.1494 H   0  0  0  0  0  0  0  0  0  0  0  0
    4.2332    1.3898   16.7170 H   0  0  0  0  0  0  0  0  0  0  0  0
    7.3214   -0.8490   18.2845 H   0  0  0  0  0  0  0  0  0  0  0  0
    6.2808   -1.4061   21.7169 C   0  0  0  0  0  0  0  0  0  0  0  0
    5.1876   -1.9155   21.5795 O   0  0  0  0  0  0  0  0  0  0  0  0
    7.2694   -1.6275   22.8783 C   0  0  1  0  0  0  0  0  0  0  0  0
    7.4896   -3.1454   23.1212 C   0  0  0  0  0  0  0  0  0  0  0  0
    6.4079   -3.7850   23.8586 N   0  0  0  0  0  0  0  0  0  0  0  0
    6.0384   -5.1531   23.5048 C   0  0  0  0  0  0  0  0  0  0  0  0
    4.7540   -5.1389   22.6665 C   0  0  0  0  0  0  0  0  0  0  0  0
    4.7860   -5.1732   21.4459 O   0  0  0  0  0  0  0  0  0  0  0  0
    3.5998   -5.0210   23.3803 N   0  0  0  0  0  0  0  0  0  0  0  0
    2.4086   -4.5585   22.6877 C   0  0  0  0  0  0  0  0  0  0  0  0
    2.6822   -3.7867   21.9615 H   0  0  0  0  0  0  0  0  0  0  0  0
    1.6953   -4.1508   23.4119 H   0  0  0  0  0  0  0  0  0  0  0  0
    1.9172   -5.3764   22.1550 H   0  0  0  0  0  0  0  0  0  0  0  0
    3.7167   -4.7572   24.3533 H   0  0  0  0  0  0  0  0  0  0  0  0
    5.9402   -5.7601   24.4095 H   0  0  0  0  0  0  0  0  0  0  0  0
    6.8341   -5.5747   22.8902 H   0  0  0  0  0  0  0  0  0  0  0  0
    5.7252   -3.1635   24.8559 C   0  0  0  0  0  0  0  0  0  0  0  0
    4.8749   -3.7548   25.5285 O   0  0  0  0  0  0  0  0  0  0  0  0
    6.0224   -1.7130   25.0834 C   0  0  0  0  0  0  0  0  0  0  0  0
    5.5462   -1.1099   26.2496 C   0  0  0  0  0  0  0  0  0  0  0  0
    5.7466    0.2359   26.4870 C   0  0  0  0  0  0  0  0  0  0  0  0
    6.4134    0.9913   25.5240 C   0  0  0  0  0  0  0  0  0  0  0  0
    6.6712    2.6928   25.7959 Cl  0  0  0  0  0  0  0  0  0  0  0  0
    6.8938    0.4114   24.3628 C   0  0  0  0  0  0  0  0  0  0  0  0
    6.7347   -0.9682   24.1417 C   0  0  0  0  0  0  0  0  0  0  0  0
    7.4025    1.0544   23.6473 H   0  0  0  0  0  0  0  0  0  0  0  0
    5.3879    0.7072   27.3965 H   0  0  0  0  0  0  0  0  0  0  0  0
    5.0214   -1.7236   26.9727 H   0  0  0  0  0  0  0  0  0  0  0  0
    7.5421   -3.6368   22.1450 H   0  0  0  0  0  0  0  0  0  0  0  0
    8.4390   -3.2863   23.6440 H   0  0  0  0  0  0  0  0  0  0  0  0
    8.8458   -0.3384   20.2926 H   0  0  0  0  0  0  0  0  0  0  0  0
    8.2511    0.9681   21.3156 H   0  0  0  0  0  0  0  0  0  0  0  0
    8.9296   -0.2610   23.1537 H   0  0  0  0  0  0  0  0  0  0  0  0
    9.5161   -2.5496   21.4168 H   0  0  0  0  0  0  0  0  0  0  0  0
   11.1053   -1.8092   24.2680 H   0  0  0  0  0  0  0  0  0  0  0  0
   12.7820   -1.8516   23.6313 H   0  0  0  0  0  0  0  0  0  0  0  0
   12.8378    0.6749   23.5886 H   0  0  0  0  0  0  0  0  0  0  0  0
   12.4520    0.1056   25.2295 H   0  0  0  0  0  0  0  0  0  0  0  0
   11.1736    0.7447   24.1742 H   0  0  0  0  0  0  0  0  0  0  0  0
  1  2  1  0
  2  3  1  0
  3  4  2  0
  3  5  2  0
  3  6  1  0
  6  7  1  0
  7  8  1  0
  8  9  1  0
  9 10  1  0
 10 11  2  0
 11 12  1  0
 12 13  2  0
 13 14  1  0
 14 15  2  0
 15 16  1  0
 16 17  2  0
 17 18  1  0
 18 19  2  0
 18 20  1  0
 17 21  1  0
 16 22  1  0
 15 23  1  0
 13 24  1  0
 11 25  1  0
  9 26  1  0
 26 27  2  0
 26 28  1  0
 28 29  1  1
 29 30  1  0
 30 31  1  0
 31 32  1  0
 32 33  2  0
 32 34  1  0
 34 35  1  0
 35 36  1  0
 35 37  1  0
 35 38  1  0
 34 39  1  0
 31 40  1  0
 31 41  1  0
 30 42  1  0
 42 43  2  0
 42 44  1  0
 44 45  2  0
 45 46  1  0
 46 47  2  0
 47 48  1  0
 47 49  1  0
 49 50  2  0
 49 51  1  0
 46 52  1  0
 45 53  1  0
 29 54  1  0
 29 55  1  0
  8 56  1  0
  8 57  1  0
  7 58  1  1
  6 59  1  0
  2 60  1  0
  2 61  1  0
  1 62  1  0
  1 63  1  0
  1 64  1  0
 28  7  1  0
 50 44  1  0
 19 10  1  0
 50 28  1  0
 19 14  1  0
M  END
>  <cnnaffinities>  (36) 
[6.73697]

>  <score>  (36) 
6.73697

>  <index>  (36) 
46

>  <Smiles>  (36) 
C(C(S(=O)(=O)N([C@]1(C(N(c2c(nc(c3c(c(c(c(c23)[H])[H])[H])[H])[H])[H])C(=O)[C@]21C(N(C(C(=O)N(C([H])([H])[H])[H])([H])[H])C(=O)c1c(c(c(Cl)c(c21)[H])[H])[H])([H])[H])([H])[H])[H])[H])([H])[H])([H])([H])[H]

>  <h>  (36) 
<NA>

>  <Training>  (36) 
True

>  <Success>  (36) 
True

>  <enamine_searched>  (36) 
False

>  <enamine_id>  (36) 
nan

$$$$

     RDKit          3D

 56 60  0  0  0  0  0  0  0  0999 V2000
    7.5291   -8.5031   23.0160 C   0  0  0  0  0  0  0  0  0  0  0  0
    6.6535   -7.3794   22.7525 N   0  0  0  0  0  0  0  0  0  0  0  0
    6.9179   -6.5323   21.7193 C   0  0  0  0  0  0  0  0  0  0  0  0
    7.7513   -6.7475   20.8543 O   0  0  0  0  0  0  0  0  0  0  0  0
    6.0958   -5.2388   21.7583 C   0  0  0  0  0  0  0  0  0  0  0  0
    6.6701   -4.3111   22.7193 N   0  0  0  0  0  0  0  0  0  0  0  0
    7.7387   -3.4081   22.3333 C   0  0  0  0  0  0  0  0  0  0  0  0
    7.3810   -1.9364   22.6532 C   0  0  2  0  0  0  0  0  0  0  0  0
    6.2940   -1.4578   21.6592 C   0  0  0  0  0  0  0  0  0  0  0  0
    5.1580   -1.8796   21.5593 O   0  0  0  0  0  0  0  0  0  0  0  0
    6.8364   -0.4825   20.8507 N   0  0  0  0  0  0  0  0  0  0  0  0
    6.1104    0.0734   19.7801 C   0  0  0  0  0  0  0  0  0  0  0  0
    6.4656   -0.2165   18.4879 C   0  0  0  0  0  0  0  0  0  0  0  0
    5.8098    0.2321   17.3907 N   0  0  0  0  0  0  0  0  0  0  0  0
    4.7730    1.0095   17.5995 C   0  0  0  0  0  0  0  0  0  0  0  0
    4.3142    1.4051   18.8882 C   0  0  0  0  0  0  0  0  0  0  0  0
    3.1977    2.2664   19.0439 C   0  0  0  0  0  0  0  0  0  0  0  0
    2.7903    2.6541   20.2900 C   0  0  0  0  0  0  0  0  0  0  0  0
    3.4831    2.2100   21.4370 C   0  0  0  0  0  0  0  0  0  0  0  0
    4.5655    1.3753   21.3146 C   0  0  0  0  0  0  0  0  0  0  0  0
    4.9998    0.9385   20.0283 C   0  0  0  0  0  0  0  0  0  0  0  0
    5.0878    1.0426   22.2061 H   0  0  0  0  0  0  0  0  0  0  0  0
    3.1541    2.5388   22.4188 H   0  0  0  0  0  0  0  0  0  0  0  0
    1.9396    3.3193   20.4028 H   0  0  0  0  0  0  0  0  0  0  0  0
    2.6912    2.6164   18.1490 H   0  0  0  0  0  0  0  0  0  0  0  0
    4.2364    1.3747   16.7240 H   0  0  0  0  0  0  0  0  0  0  0  0
    7.3139   -0.8738   18.3019 H   0  0  0  0  0  0  0  0  0  0  0  0
    8.2781   -0.3921   20.9549 C   0  0  0  0  0  0  0  0  0  0  0  0
    8.5682   -0.9703   22.3458 C   0  0  2  0  0  0  0  0  0  0  0  0
    9.9776   -1.5478   22.4305 C   0  0  0  0  0  0  0  0  0  0  0  0
   10.1238   -2.3272   21.6727 H   0  0  0  0  0  0  0  0  0  0  0  0
   10.1881   -1.9834   23.4131 H   0  0  0  0  0  0  0  0  0  0  0  0
   10.7176   -0.7624   22.2440 H   0  0  0  0  0  0  0  0  0  0  0  0
    8.4991   -0.1419   23.0532 H   0  0  0  0  0  0  0  0  0  0  0  0
    8.7936   -0.9738   20.1739 H   0  0  0  0  0  0  0  0  0  0  0  0
    8.5989    0.6506   20.8655 H   0  0  0  0  0  0  0  0  0  0  0  0
    6.8752   -1.8900   24.0848 C   0  0  0  0  0  0  0  0  0  0  0  0
    6.8419   -0.6825   24.7866 C   0  0  0  0  0  0  0  0  0  0  0  0
    6.3681   -0.6629   26.0799 C   0  0  0  0  0  0  0  0  0  0  0  0
    6.3481    0.5062   26.7383 F   0  0  0  0  0  0  0  0  0  0  0  0
    5.9198   -1.7967   26.7438 C   0  0  0  0  0  0  0  0  0  0  0  0
    5.9213   -2.9832   26.0452 C   0  0  0  0  0  0  0  0  0  0  0  0
    6.3623   -3.0274   24.7264 C   0  0  0  0  0  0  0  0  0  0  0  0
    6.1790   -4.3059   23.9851 C   0  0  0  0  0  0  0  0  0  0  0  0
    5.5669   -5.2689   24.4485 O   0  0  0  0  0  0  0  0  0  0  0  0
    5.5672   -3.9062   26.4837 H   0  0  0  0  0  0  0  0  0  0  0  0
    5.5748   -1.7285   27.7677 H   0  0  0  0  0  0  0  0  0  0  0  0
    7.1895    0.2479   24.3535 H   0  0  0  0  0  0  0  0  0  0  0  0
    8.6745   -3.6657   22.8518 H   0  0  0  0  0  0  0  0  0  0  0  0
    7.9068   -3.5290   21.2675 H   0  0  0  0  0  0  0  0  0  0  0  0
    5.0679   -5.4609   22.0742 H   0  0  0  0  0  0  0  0  0  0  0  0
    6.0692   -4.7506   20.7743 H   0  0  0  0  0  0  0  0  0  0  0  0
    6.0465   -7.0496   23.4974 H   0  0  0  0  0  0  0  0  0  0  0  0
    8.5240   -8.1738   23.3559 H   0  0  0  0  0  0  0  0  0  0  0  0
    7.0704   -9.1242   23.7921 H   0  0  0  0  0  0  0  0  0  0  0  0
    7.6335   -9.0945   22.1036 H   0  0  0  0  0  0  0  0  0  0  0  0
  1  2  1  0
  2  3  1  0
  3  4  2  0
  3  5  1  0
  5  6  1  0
  6  7  1  0
  8  7  1  6
  8  9  1  0
  9 10  2  0
  9 11  1  0
 11 12  1  0
 12 13  2  0
 13 14  1  0
 14 15  2  0
 15 16  1  0
 16 17  2  0
 17 18  1  0
 18 19  2  0
 19 20  1  0
 20 21  2  0
 20 22  1  0
 19 23  1  0
 18 24  1  0
 17 25  1  0
 15 26  1  0
 13 27  1  0
 11 28  1  0
 28 29  1  0
 29 30  1  0
 30 31  1  0
 30 32  1  0
 30 33  1  0
 29 34  1  1
 28 35  1  0
 28 36  1  0
  8 37  1  0
 37 38  2  0
 38 39  1  0
 39 40  1  0
 39 41  2  0
 41 42  1  0
 42 43  2  0
 43 44  1  0
 44 45  2  0
 42 46  1  0
 41 47  1  0
 38 48  1  0
  7 49  1  0
  7 50  1  0
  5 51  1  0
  5 52  1  0
  2 53  1  0
  1 54  1  0
  1 55  1  0
  1 56  1  0
 44  6  1  0
 29  8  1  0
 43 37  1  0
 21 12  1  0
 21 16  1  0
M  END
>  <cnnaffinities>  (37) 
[6.49021]

>  <score>  (37) 
6.49021

>  <index>  (37) 
47

>  <Smiles>  (37) 
C(N(C(=O)C(N1C([C@@]2(C(=O)N(c3c(nc(c4c(c(c(c(c34)[H])[H])[H])[H])[H])[H])C([C@@]2(C([H])([H])[H])[H])([H])[H])c2c(c(F)c(c(c2C1=O)[H])[H])[H])([H])[H])([H])[H])[H])([H])([H])[H]

>  <h>  (37) 
<NA>

>  <Training>  (37) 
True

>  <Success>  (37) 
True

>  <enamine_searched>  (37) 
False

>  <enamine_id>  (37) 
nan

$$$$

     RDKit          3D

 41 43  0  0  0  0  0  0  0  0999 V2000
    4.9796    0.1139   26.0412 C   0  0  0  0  0  0  0  0  0  0  0  0
    5.4916   -0.7746   24.9264 C   0  0  1  0  0  0  0  0  0  0  0  0
    6.9247   -0.4151   24.5222 C   0  0  0  0  0  0  0  0  0  0  0  0
    7.6192   -1.4745   23.6453 C   0  0  0  0  0  0  0  0  0  0  0  0
    6.7425   -2.2259   22.7519 N   0  0  0  0  0  0  0  0  0  0  0  0
    6.2154   -1.7086   21.5864 C   0  0  0  0  0  0  0  0  0  0  0  0
    5.2408   -2.2201   21.0601 O   0  0  0  0  0  0  0  0  0  0  0  0
    6.9136   -0.4998   20.9138 C   0  0  0  0  0  0  0  0  0  0  0  0
    6.1142    0.0835   19.7705 C   0  0  0  0  0  0  0  0  0  0  0  0
    6.4214   -0.2149   18.4665 C   0  0  0  0  0  0  0  0  0  0  0  0
    5.7609    0.2386   17.3650 N   0  0  0  0  0  0  0  0  0  0  0  0
    4.7361    1.0301   17.5751 C   0  0  0  0  0  0  0  0  0  0  0  0
    4.2869    1.4202   18.8675 C   0  0  0  0  0  0  0  0  0  0  0  0
    3.1650    2.2722   19.0445 C   0  0  0  0  0  0  0  0  0  0  0  0
    2.7492    2.6256   20.3005 C   0  0  0  0  0  0  0  0  0  0  0  0
    3.4414    2.1420   21.4324 C   0  0  0  0  0  0  0  0  0  0  0  0
    4.5306    1.3170   21.2863 C   0  0  0  0  0  0  0  0  0  0  0  0
    4.9889    0.9338   19.9974 C   0  0  0  0  0  0  0  0  0  0  0  0
    5.0477    0.9530   22.1699 H   0  0  0  0  0  0  0  0  0  0  0  0
    3.1026    2.4225   22.4245 H   0  0  0  0  0  0  0  0  0  0  0  0
    1.8906    3.2779   20.4370 H   0  0  0  0  0  0  0  0  0  0  0  0
    2.6436    2.6440   18.1651 H   0  0  0  0  0  0  0  0  0  0  0  0
    4.1991    1.3993   16.6990 H   0  0  0  0  0  0  0  0  0  0  0  0
    7.2648   -0.8680   18.2468 H   0  0  0  0  0  0  0  0  0  0  0  0
    7.8782   -0.8551   20.5239 H   0  0  0  0  0  0  0  0  0  0  0  0
    7.1540    0.2849   21.6443 H   0  0  0  0  0  0  0  0  0  0  0  0
    6.0653   -3.3757   23.3548 C   0  0  0  0  0  0  0  0  0  0  0  0
    4.9576   -3.0261   24.3528 C   0  0  0  0  0  0  0  0  0  0  0  0
    5.3708   -2.1239   25.3558 O   0  0  0  0  0  0  0  0  0  0  0  0
    4.0890   -2.6156   23.8185 H   0  0  0  0  0  0  0  0  0  0  0  0
    4.6202   -3.9343   24.8761 H   0  0  0  0  0  0  0  0  0  0  0  0
    6.8217   -3.9582   23.8881 H   0  0  0  0  0  0  0  0  0  0  0  0
    5.6566   -4.0050   22.5613 H   0  0  0  0  0  0  0  0  0  0  0  0
    8.0987   -2.2066   24.2965 H   0  0  0  0  0  0  0  0  0  0  0  0
    8.4236   -1.0225   23.0600 H   0  0  0  0  0  0  0  0  0  0  0  0
    7.5254   -0.2432   25.4260 H   0  0  0  0  0  0  0  0  0  0  0  0
    6.8950    0.5488   23.9966 H   0  0  0  0  0  0  0  0  0  0  0  0
    4.8419   -0.6408   24.0535 H   0  0  0  0  0  0  0  0  0  0  0  0
    5.5841   -0.0160   26.9428 H   0  0  0  0  0  0  0  0  0  0  0  0
    5.0170    1.1642   25.7360 H   0  0  0  0  0  0  0  0  0  0  0  0
    3.9434   -0.1394   26.2806 H   0  0  0  0  0  0  0  0  0  0  0  0
  1  2  1  0
  2  3  1  0
  3  4  1  0
  4  5  1  0
  5  6  1  0
  6  7  2  0
  6  8  1  0
  8  9  1  0
  9 10  2  0
 10 11  1  0
 11 12  2  0
 12 13  1  0
 13 14  2  0
 14 15  1  0
 15 16  2  0
 16 17  1  0
 17 18  2  0
 17 19  1  0
 16 20  1  0
 15 21  1  0
 14 22  1  0
 12 23  1  0
 10 24  1  0
  8 25  1  0
  8 26  1  0
  5 27  1  0
 27 28  1  0
 28 29  1  0
 28 30  1  0
 28 31  1  0
 27 32  1  0
 27 33  1  0
  4 34  1  0
  4 35  1  0
  3 36  1  0
  3 37  1  0
  2 38  1  6
  1 39  1  0
  1 40  1  0
  1 41  1  0
 29  2  1  0
 18  9  1  0
 18 13  1  0
M  END
>  <cnnaffinities>  (38) 
[5.02626, 4.71609]

>  <score>  (38) 
5.02626

>  <index>  (38) 
48

>  <Smiles>  (38) 
C([C@]1(C(C(N(C(=O)C(c2c(nc(c3c(c(c(c(c23)[H])[H])[H])[H])[H])[H])([H])[H])C(C(O1)([H])[H])([H])[H])([H])[H])([H])[H])[H])([H])([H])[H]

>  <h>  (38) 
<NA>

>  <Training>  (38) 
True

>  <Success>  (38) 
True

>  <enamine_searched>  (38) 
False

>  <enamine_id>  (38) 
nan

$$$$

     RDKit          3D

 42 45  0  0  0  0  0  0  0  0999 V2000
    4.7518   -4.4577   23.8470 C   0  0  0  0  0  0  0  0  0  0  0  0
    5.5358   -3.2582   24.1122 N   0  0  0  0  0  0  0  0  0  0  0  0
    6.8573   -3.0905   23.5343 C   0  0  0  0  0  0  0  0  0  0  0  0
    7.1112   -1.6539   23.0459 C   0  0  1  0  0  0  0  0  0  0  0  0
    6.2872   -1.3299   21.7841 C   0  0  0  0  0  0  0  0  0  0  0  0
    5.1542   -1.7372   21.6236 O   0  0  0  0  0  0  0  0  0  0  0  0
    6.8483   -0.4690   20.8606 N   0  0  0  0  0  0  0  0  0  0  0  0
    6.1010    0.0684   19.7765 C   0  0  0  0  0  0  0  0  0  0  0  0
    6.4396   -0.2141   18.4746 C   0  0  0  0  0  0  0  0  0  0  0  0
    5.7692    0.2384   17.3843 N   0  0  0  0  0  0  0  0  0  0  0  0
    4.7352    1.0241   17.5828 C   0  0  0  0  0  0  0  0  0  0  0  0
    4.2912    1.4207   18.8751 C   0  0  0  0  0  0  0  0  0  0  0  0
    3.1753    2.2838   19.0474 C   0  0  0  0  0  0  0  0  0  0  0  0
    2.7844    2.6681   20.3038 C   0  0  0  0  0  0  0  0  0  0  0  0
    3.4989    2.2134   21.4339 C   0  0  0  0  0  0  0  0  0  0  0  0
    4.5829    1.3823   21.2931 C   0  0  0  0  0  0  0  0  0  0  0  0
    4.9958    0.9463   20.0049 C   0  0  0  0  0  0  0  0  0  0  0  0
    5.1326    1.0447   22.1663 H   0  0  0  0  0  0  0  0  0  0  0  0
    3.1911    2.5244   22.4259 H   0  0  0  0  0  0  0  0  0  0  0  0
    1.9355    3.3315   20.4423 H   0  0  0  0  0  0  0  0  0  0  0  0
    2.6472    2.6481   18.1697 H   0  0  0  0  0  0  0  0  0  0  0  0
    4.2024    1.3955   16.7023 H   0  0  0  0  0  0  0  0  0  0  0  0
    7.2784   -0.8724   18.2545 H   0  0  0  0  0  0  0  0  0  0  0  0
    7.8486   -0.3568   20.8300 H   0  0  0  0  0  0  0  0  0  0  0  0
    6.7399   -0.6838   24.1423 C   0  0  0  0  0  0  0  0  0  0  0  0
    7.3604    0.5635   24.2041 C   0  0  0  0  0  0  0  0  0  0  0  0
    6.9673    1.4885   25.1572 C   0  0  0  0  0  0  0  0  0  0  0  0
    7.7189    3.0521   25.2127 Cl  0  0  0  0  0  0  0  0  0  0  0  0
    5.9522    1.1979   26.0642 C   0  0  0  0  0  0  0  0  0  0  0  0
    5.3337   -0.0395   25.9963 C   0  0  0  0  0  0  0  0  0  0  0  0
    5.7243   -0.9944   25.0442 C   0  0  0  0  0  0  0  0  0  0  0  0
    5.0159   -2.3290   24.9739 C   0  0  0  0  0  0  0  0  0  0  0  0
    4.0165   -2.5634   25.6357 O   0  0  0  0  0  0  0  0  0  0  0  0
    4.5376   -0.2619   26.6947 H   0  0  0  0  0  0  0  0  0  0  0  0
    5.6631    1.9468   26.7997 H   0  0  0  0  0  0  0  0  0  0  0  0
    8.1448    0.8175   23.4991 H   0  0  0  0  0  0  0  0  0  0  0  0
    8.1777   -1.5458   22.8167 H   0  0  0  0  0  0  0  0  0  0  0  0
    7.6221   -3.3642   24.2729 H   0  0  0  0  0  0  0  0  0  0  0  0
    6.9639   -3.7879   22.7053 H   0  0  0  0  0  0  0  0  0  0  0  0
    5.2937   -5.1203   23.1724 H   0  0  0  0  0  0  0  0  0  0  0  0
    3.8014   -4.2110   23.3688 H   0  0  0  0  0  0  0  0  0  0  0  0
    4.5276   -5.0168   24.7585 H   0  0  0  0  0  0  0  0  0  0  0  0
  1  2  1  0
  2  3  1  0
  3  4  1  0
  4  5  1  0
  5  6  2  0
  5  7  1  0
  7  8  1  0
  8  9  2  0
  9 10  1  0
 10 11  2  0
 11 12  1  0
 12 13  2  0
 13 14  1  0
 14 15  2  0
 15 16  1  0
 16 17  2  0
 16 18  1  0
 15 19  1  0
 14 20  1  0
 13 21  1  0
 11 22  1  0
  9 23  1  0
  7 24  1  0
  4 25  1  0
 25 26  2  0
 26 27  1  0
 27 28  1  0
 27 29  2  0
 29 30  1  0
 30 31  2  0
 31 32  1  0
 32 33  2  0
 30 34  1  0
 29 35  1  0
 26 36  1  0
  4 37  1  6
  3 38  1  0
  3 39  1  0
  1 40  1  0
  1 41  1  0
  1 42  1  0
 32  2  1  0
 17  8  1  0
 31 25  1  0
 17 12  1  0
M  END
>  <cnnaffinities>  (39) 
[5.53845, 5.53878]

>  <score>  (39) 
5.53845

>  <index>  (39) 
49

>  <Smiles>  (39) 
C(N1C([C@@](C(=O)N(c2c(nc(c3c(c(c(c(c23)[H])[H])[H])[H])[H])[H])[H])(c2c(c(Cl)c(c(c2C1=O)[H])[H])[H])[H])([H])[H])([H])([H])[H]

>  <h>  (39) 
<NA>

>  <Training>  (39) 
True

>  <Success>  (39) 
True

>  <enamine_searched>  (39) 
False

>  <enamine_id>  (39) 
nan

$$$$

     RDKit          3D

 38 41  0  0  0  0  0  0  0  0999 V2000
    5.1023   -1.9866   21.3439 O   0  0  0  0  0  0  0  0  0  0  0  0
    6.2908   -1.7691   21.5071 C   0  0  0  0  0  0  0  0  0  0  0  0
    6.9402   -0.5058   20.8954 C   0  0  0  0  0  0  0  0  0  0  0  0
    6.1180    0.0872   19.7714 C   0  0  0  0  0  0  0  0  0  0  0  0
    6.4222   -0.2113   18.4674 C   0  0  0  0  0  0  0  0  0  0  0  0
    5.7596    0.2372   17.3673 N   0  0  0  0  0  0  0  0  0  0  0  0
    4.7354    1.0302   17.5766 C   0  0  0  0  0  0  0  0  0  0  0  0
    4.2869    1.4206   18.8687 C   0  0  0  0  0  0  0  0  0  0  0  0
    3.1644    2.2737   19.0418 C   0  0  0  0  0  0  0  0  0  0  0  0
    2.7465    2.6248   20.2978 C   0  0  0  0  0  0  0  0  0  0  0  0
    3.4354    2.1369   21.4296 C   0  0  0  0  0  0  0  0  0  0  0  0
    4.5249    1.3110   21.2876 C   0  0  0  0  0  0  0  0  0  0  0  0
    4.9870    0.9329   19.9993 C   0  0  0  0  0  0  0  0  0  0  0  0
    5.0271    0.9263   22.1683 H   0  0  0  0  0  0  0  0  0  0  0  0
    3.0923    2.4121   22.4217 H   0  0  0  0  0  0  0  0  0  0  0  0
    1.8883    3.2775   20.4333 H   0  0  0  0  0  0  0  0  0  0  0  0
    2.6453    2.6464   18.1613 H   0  0  0  0  0  0  0  0  0  0  0  0
    4.1996    1.3989   16.6999 H   0  0  0  0  0  0  0  0  0  0  0  0
    7.2635   -0.8652   18.2456 H   0  0  0  0  0  0  0  0  0  0  0  0
    7.0904    0.2420   21.6854 H   0  0  0  0  0  0  0  0  0  0  0  0
    7.9396   -0.7551   20.5099 H   0  0  0  0  0  0  0  0  0  0  0  0
    7.0807   -2.6632   22.2022 N   0  0  0  0  0  0  0  0  0  0  0  0
    8.4403   -2.3759   22.6494 C   0  0  0  0  0  0  0  0  0  0  0  0
    8.7615   -3.0433   23.9884 C   0  0  0  0  0  0  0  0  0  0  0  0
    8.3863   -4.4897   23.9475 C   0  0  0  0  0  0  0  0  0  0  0  0
    9.0679   -5.7410   24.9333 S   0  0  0  0  0  0  0  0  0  0  0  0
    8.0093   -6.9118   24.2317 C   0  0  0  0  0  0  0  0  0  0  0  0
    7.1636   -6.3593   23.3162 C   0  0  0  0  0  0  0  0  0  0  0  0
    7.3926   -4.9554   23.1478 C   0  0  0  0  0  0  0  0  0  0  0  0
    6.5957   -4.0473   22.2518 C   0  0  0  0  0  0  0  0  0  0  0  0
    5.5515   -4.0544   22.5818 H   0  0  0  0  0  0  0  0  0  0  0  0
    6.5698   -4.4924   21.2473 H   0  0  0  0  0  0  0  0  0  0  0  0
    6.4136   -6.9330   22.7769 H   0  0  0  0  0  0  0  0  0  0  0  0
    8.0714   -7.9477   24.5315 H   0  0  0  0  0  0  0  0  0  0  0  0
    9.8190   -2.9129   24.2321 H   0  0  0  0  0  0  0  0  0  0  0  0
    8.1985   -2.5530   24.7914 H   0  0  0  0  0  0  0  0  0  0  0  0
    9.1757   -2.7096   21.9060 H   0  0  0  0  0  0  0  0  0  0  0  0
    8.5549   -1.2955   22.7614 H   0  0  0  0  0  0  0  0  0  0  0  0
  1  2  2  0
  2  3  1  0
  3  4  1  0
  4  5  2  0
  5  6  1  0
  6  7  2  0
  7  8  1  0
  8  9  2  0
  9 10  1  0
 10 11  2  0
 11 12  1  0
 12 13  2  0
 12 14  1  0
 11 15  1  0
 10 16  1  0
  9 17  1  0
  7 18  1  0
  5 19  1  0
  3 20  1  0
  3 21  1  0
  2 22  1  0
 22 23  1  0
 23 24  1  0
 24 25  1  0
 25 26  1  0
 26 27  1  0
 27 28  2  0
 28 29  1  0
 29 30  1  0
 30 31  1  0
 30 32  1  0
 28 33  1  0
 27 34  1  0
 24 35  1  0
 24 36  1  0
 23 37  1  0
 23 38  1  0
 13  4  1  0
 30 22  1  0
 13  8  1  0
 29 25  2  0
M  END
>  <cnnaffinities>  (40) 
[5.35883]

>  <score>  (40) 
5.35883

>  <index>  (40) 
50

>  <Smiles>  (40) 
O=C(C(c1c(nc(c2c(c(c(c(c12)[H])[H])[H])[H])[H])[H])([H])[H])N1C(C(c2sc(c(c2C1([H])[H])[H])[H])([H])[H])([H])[H]

>  <h>  (40) 
<NA>

>  <Training>  (40) 
True

>  <Success>  (40) 
True

>  <enamine_searched>  (40) 
False

>  <enamine_id>  (40) 
nan

$$$$

     RDKit          3D

 67 73  0  0  0  0  0  0  0  0999 V2000
    6.1740    1.4290   30.0059 C   0  0  0  0  0  0  0  0  0  0  0  0
    5.8627    1.1933   28.5697 C   0  0  0  0  0  0  0  0  0  0  0  0
    5.0718    0.3197   28.0928 N   0  0  0  0  0  0  0  0  0  0  0  0
    5.1146    0.4464   26.7250 N   0  0  0  0  0  0  0  0  0  0  0  0
    5.9703    1.3555   26.4900 C   0  0  0  0  0  0  0  0  0  0  0  0
    6.3107    1.8733   25.1484 C   0  0  0  0  0  0  0  0  0  0  0  0
    7.5443    1.0740   24.6145 N   0  0  0  0  0  0  0  0  0  0  0  0
    7.3336   -0.2843   24.1051 C   0  0  0  0  0  0  0  0  0  0  0  0
    8.2360   -0.4878   22.8386 C   0  0  2  0  0  0  0  0  0  0  0  0
    7.6530    0.3917   21.7058 C   0  0  0  0  0  0  0  0  0  0  0  0
    7.8028    1.5743   21.6226 O   0  0  0  0  0  0  0  0  0  0  0  0
    6.9146   -0.4112   20.8434 N   0  0  0  0  0  0  0  0  0  0  0  0
    6.1183    0.0939   19.7618 C   0  0  0  0  0  0  0  0  0  0  0  0
    6.4257   -0.2153   18.4607 C   0  0  0  0  0  0  0  0  0  0  0  0
    5.7561    0.2406   17.3675 N   0  0  0  0  0  0  0  0  0  0  0  0
    4.7331    1.0328   17.5750 C   0  0  0  0  0  0  0  0  0  0  0  0
    4.2847    1.4277   18.8629 C   0  0  0  0  0  0  0  0  0  0  0  0
    3.1598    2.2785   19.0501 C   0  0  0  0  0  0  0  0  0  0  0  0
    2.7525    2.6119   20.3092 C   0  0  0  0  0  0  0  0  0  0  0  0
    3.4360    2.1116   21.4404 C   0  0  0  0  0  0  0  0  0  0  0  0
    4.5177    1.2917   21.2871 C   0  0  0  0  0  0  0  0  0  0  0  0
    4.9843    0.9407   19.9934 C   0  0  0  0  0  0  0  0  0  0  0  0
    5.0266    0.8922   22.1618 H   0  0  0  0  0  0  0  0  0  0  0  0
    3.0884    2.3787   22.4362 H   0  0  0  0  0  0  0  0  0  0  0  0
    1.8917    3.2617   20.4557 H   0  0  0  0  0  0  0  0  0  0  0  0
    2.6295    2.6540   18.1762 H   0  0  0  0  0  0  0  0  0  0  0  0
    4.1900    1.4045   16.7037 H   0  0  0  0  0  0  0  0  0  0  0  0
    7.2820   -0.8633   18.2699 H   0  0  0  0  0  0  0  0  0  0  0  0
    6.8757   -1.8067   21.2667 C   0  0  0  0  0  0  0  0  0  0  0  0
    8.0476   -1.9153   22.2757 C   0  0  2  0  0  0  0  0  0  0  0  0
    7.9457   -3.0773   23.3026 C   0  0  0  0  0  0  0  0  0  0  0  0
    6.5910   -3.2882   23.8685 N   0  0  0  0  0  0  0  0  0  0  0  0
    5.6075   -4.1465   23.3488 C   0  0  0  0  0  0  0  0  0  0  0  0
    5.7747   -4.8365   22.1178 C   0  0  0  0  0  0  0  0  0  0  0  0
    4.7395   -5.6513   21.7013 C   0  0  0  0  0  0  0  0  0  0  0  0
    3.6022   -5.8045   22.4020 N   0  0  0  0  0  0  0  0  0  0  0  0
    3.5127   -5.1272   23.5448 C   0  0  0  0  0  0  0  0  0  0  0  0
    4.4541   -4.3130   24.0383 N   0  0  0  0  0  0  0  0  0  0  0  0
    2.5625   -5.2475   24.1450 H   0  0  0  0  0  0  0  0  0  0  0  0
    4.8448   -6.2021   20.7408 H   0  0  0  0  0  0  0  0  0  0  0  0
    6.6704   -4.7314   21.5138 H   0  0  0  0  0  0  0  0  0  0  0  0
    6.4250   -2.8838   24.7937 H   0  0  0  0  0  0  0  0  0  0  0  0
    8.6651   -2.8825   24.1230 H   0  0  0  0  0  0  0  0  0  0  0  0
    8.3034   -4.0160   22.8430 H   0  0  0  0  0  0  0  0  0  0  0  0
    8.9130   -2.1660   21.6572 H   0  0  0  0  0  0  0  0  0  0  0  0
    5.9033   -2.0063   21.7358 H   0  0  0  0  0  0  0  0  0  0  0  0
    7.0247   -2.4810   20.4112 H   0  0  0  0  0  0  0  0  0  0  0  0
    9.6968   -0.0460   23.1122 C   0  0  0  0  0  0  0  0  0  0  0  0
   10.7437   -0.4227   22.3255 C   0  0  0  0  0  0  0  0  0  0  0  0
   11.9835   -0.0254   22.6433 C   0  0  0  0  0  0  0  0  0  0  0  0
   12.9302   -0.9296   21.7153 Cl  0  0  0  0  0  0  0  0  0  0  0  0
   12.3526    0.8412   23.6393 C   0  0  0  0  0  0  0  0  0  0  0  0
   11.3690    1.2466   24.3887 C   0  0  0  0  0  0  0  0  0  0  0  0
    9.9239    0.8773   24.1468 C   0  0  0  0  0  0  0  0  0  0  0  0
    8.7692    1.5066   24.9498 C   0  0  0  0  0  0  0  0  0  0  0  0
    6.3107    1.8732   25.1486 O   0  0  0  0  0  0  0  0  0  0  0  0
   11.5753    1.9819   25.1811 H   0  0  0  0  0  0  0  0  0  0  0  0
   13.3546    1.1647   23.8479 H   0  0  0  0  0  0  0  0  0  0  0  0
   10.6173   -1.0364   21.4324 H   0  0  0  0  0  0  0  0  0  0  0  0
    7.6716   -0.9344   24.9173 H   0  0  0  0  0  0  0  0  0  0  0  0
    6.2886   -0.4651   23.8804 H   0  0  0  0  0  0  0  0  0  0  0  0
    6.5873    2.9375   25.1068 H   0  0  0  0  0  0  0  0  0  0  0  0
    5.5041    1.7548   24.4130 H   0  0  0  0  0  0  0  0  0  0  0  0
    6.4858    1.9282   27.6169 O   0  0  0  0  0  0  0  0  0  0  0  0
    6.9362    0.7008   30.3308 H   0  0  0  0  0  0  0  0  0  0  0  0
    5.2525    1.2627   30.5816 H   0  0  0  0  0  0  0  0  0  0  0  0
    6.5397    2.4456   30.1836 H   0  0  0  0  0  0  0  0  0  0  0  0
  1  2  1  0
  2  3  2  0
  3  4  1  0
  4  5  2  0
  5  6  1  0
  6  7  1  0
  7  8  1  0
  9  8  1  1
  9 10  1  0
 10 11  2  0
 10 12  1  0
 12 13  1  0
 13 14  2  0
 14 15  1  0
 15 16  2  0
 16 17  1  0
 17 18  2  0
 18 19  1  0
 19 20  2  0
 20 21  1  0
 21 22  2  0
 21 23  1  0
 20 24  1  0
 19 25  1  0
 18 26  1  0
 16 27  1  0
 14 28  1  0
 12 29  1  0
 29 30  1  0
 30 31  1  0
 31 32  1  0
 32 33  1  0
 33 34  2  0
 34 35  1  0
 35 36  2  0
 36 37  1  0
 37 38  2  0
 37 39  1  0
 35 40  1  0
 34 41  1  0
 32 42  1  0
 31 43  1  0
 31 44  1  0
 30 45  1  6
 29 46  1  0
 29 47  1  0
  9 48  1  0
 48 49  2  0
 49 50  1  0
 50 51  1  0
 50 52  2  0
 52 53  1  0
 53 54  2  0
 54 55  1  0
 55 56  2  0
 53 57  1  0
 52 58  1  0
 49 59  1  0
  8 60  1  0
  8 61  1  0
  6 62  1  0
  6 63  1  0
  5 64  1  0
  1 65  1  0
  1 66  1  0
  1 67  1  0
 64  2  1  0
 55  7  1  0
 30  9  1  0
 38 33  1  0
 54 48  1  0
 22 13  1  0
 22 17  1  0
M  END
>  <cnnaffinities>  (41) 
[6.7619]

>  <score>  (41) 
6.7619

>  <index>  (41) 
51

>  <Smiles>  (41) 
C(c1nnc(C(N2C([C@@]3(C(=O)N(c4c(nc(c5c(c(c(c(c45)[H])[H])[H])[H])[H])[H])C([C@@]3(C(N(c3c(c(nc(n3)[H])[H])[H])[H])([H])[H])[H])([H])[H])c3c(c(Cl)c(c(c3C2=O)[H])[H])[H])([H])[H])([H])[H])o1)([H])([H])[H]

>  <h>  (41) 
<NA>

>  <Training>  (41) 
True

>  <Success>  (41) 
True

>  <enamine_searched>  (41) 
False

>  <enamine_id>  (41) 
nan

$$$$

     RDKit          3D

 66 71  0  0  0  0  0  0  0  0999 V2000
    7.5298   -8.4574   23.0544 C   0  0  0  0  0  0  0  0  0  0  0  0
    6.6349   -7.3473   22.7783 N   0  0  0  0  0  0  0  0  0  0  0  0
    6.8805   -6.5157   21.7277 C   0  0  0  0  0  0  0  0  0  0  0  0
    7.7176   -6.7228   20.8634 O   0  0  0  0  0  0  0  0  0  0  0  0
    6.0626   -5.2271   21.7431 C   0  0  0  0  0  0  0  0  0  0  0  0
    6.6208   -4.2852   22.6917 N   0  0  0  0  0  0  0  0  0  0  0  0
    7.7360   -3.4328   22.3141 C   0  0  0  0  0  0  0  0  0  0  0  0
    7.4201   -1.9601   22.6689 C   0  0  2  0  0  0  0  0  0  0  0  0
    6.3363   -1.4689   21.6793 C   0  0  0  0  0  0  0  0  0  0  0  0
    5.2063   -1.9075   21.5658 O   0  0  0  0  0  0  0  0  0  0  0  0
    6.8680   -0.4765   20.8808 N   0  0  0  0  0  0  0  0  0  0  0  0
    6.1381    0.0709   19.8018 C   0  0  0  0  0  0  0  0  0  0  0  0
    6.4926   -0.2178   18.5075 C   0  0  0  0  0  0  0  0  0  0  0  0
    5.8351    0.2251   17.4077 N   0  0  0  0  0  0  0  0  0  0  0  0
    4.7964    1.0010   17.6082 C   0  0  0  0  0  0  0  0  0  0  0  0
    4.3368    1.4019   18.8940 C   0  0  0  0  0  0  0  0  0  0  0  0
    3.2146    2.2577   19.0408 C   0  0  0  0  0  0  0  0  0  0  0  0
    2.8042    2.6514   20.2844 C   0  0  0  0  0  0  0  0  0  0  0  0
    3.4948    2.2089   21.4340 C   0  0  0  0  0  0  0  0  0  0  0  0
    4.5791    1.3737   21.3193 C   0  0  0  0  0  0  0  0  0  0  0  0
    5.0219    0.9378   20.0368 C   0  0  0  0  0  0  0  0  0  0  0  0
    5.1034    1.0362   22.2081 H   0  0  0  0  0  0  0  0  0  0  0  0
    3.1605    2.5326   22.4156 H   0  0  0  0  0  0  0  0  0  0  0  0
    1.9500    3.3128   20.3953 H   0  0  0  0  0  0  0  0  0  0  0  0
    2.7083    2.6020   18.1434 H   0  0  0  0  0  0  0  0  0  0  0  0
    4.2606    1.3562   16.7284 H   0  0  0  0  0  0  0  0  0  0  0  0
    7.3401   -0.8740   18.3157 H   0  0  0  0  0  0  0  0  0  0  0  0
    8.3159   -0.4135   20.9732 C   0  0  0  0  0  0  0  0  0  0  0  0
    8.6080   -1.0054   22.3585 C   0  0  2  0  0  0  0  0  0  0  0  0
   10.0151   -1.6041   22.4176 C   0  0  0  0  0  0  0  0  0  0  0  0
   10.2937   -2.1889   23.7115 N   0  0  0  0  0  0  0  0  0  0  0  0
   11.5025   -2.6933   24.0744 C   0  0  0  0  0  0  0  0  0  0  0  0
   12.6302   -2.5881   23.2398 C   0  0  0  0  0  0  0  0  0  0  0  0
   13.8434   -2.8690   23.8260 C   0  0  0  0  0  0  0  0  0  0  0  0
   13.9825   -3.3779   25.0550 N   0  0  0  0  0  0  0  0  0  0  0  0
   12.8337   -3.5963   25.6798 C   0  0  0  0  0  0  0  0  0  0  0  0
   11.6045   -3.2697   25.2839 N   0  0  0  0  0  0  0  0  0  0  0  0
   12.9312   -4.1183   26.6268 H   0  0  0  0  0  0  0  0  0  0  0  0
   14.7753   -2.6797   23.3105 H   0  0  0  0  0  0  0  0  0  0  0  0
   12.5694   -2.2835   22.2001 H   0  0  0  0  0  0  0  0  0  0  0  0
    9.5948   -2.1596   24.4389 H   0  0  0  0  0  0  0  0  0  0  0  0
   10.7501   -0.8180   22.1888 H   0  0  0  0  0  0  0  0  0  0  0  0
   10.1172   -2.3599   21.6229 H   0  0  0  0  0  0  0  0  0  0  0  0
    8.5655   -0.1837   23.0773 H   0  0  0  0  0  0  0  0  0  0  0  0
    8.6618    0.6217   20.8835 H   0  0  0  0  0  0  0  0  0  0  0  0
    8.8027   -1.0078   20.1839 H   0  0  0  0  0  0  0  0  0  0  0  0
    6.9252   -1.9173   24.1117 C   0  0  0  0  0  0  0  0  0  0  0  0
    6.8839   -0.7098   24.8260 C   0  0  0  0  0  0  0  0  0  0  0  0
    6.4006   -0.6783   26.1235 C   0  0  0  0  0  0  0  0  0  0  0  0
    6.3517    0.8477   26.9707 Cl  0  0  0  0  0  0  0  0  0  0  0  0
    5.9501   -1.8319   26.7662 C   0  0  0  0  0  0  0  0  0  0  0  0
    5.9445   -3.0187   26.0592 C   0  0  0  0  0  0  0  0  0  0  0  0
    6.3928   -3.0570   24.7398 C   0  0  0  0  0  0  0  0  0  0  0  0
    6.1737   -4.3109   23.9725 C   0  0  0  0  0  0  0  0  0  0  0  0
    5.5682   -5.2828   24.4385 O   0  0  0  0  0  0  0  0  0  0  0  0
    5.5695   -3.9328   26.5082 H   0  0  0  0  0  0  0  0  0  0  0  0
    5.5874   -1.7845   27.7876 H   0  0  0  0  0  0  0  0  0  0  0  0
    7.1997    0.2253   24.3768 H   0  0  0  0  0  0  0  0  0  0  0  0
    7.9002   -3.5248   21.2427 H   0  0  0  0  0  0  0  0  0  0  0  0
    8.6595   -3.7471   22.8173 H   0  0  0  0  0  0  0  0  0  0  0  0
    6.0869   -4.7827   20.7455 H   0  0  0  0  0  0  0  0  0  0  0  0
    5.0221   -5.4289   22.0202 H   0  0  0  0  0  0  0  0  0  0  0  0
    6.1367   -6.9396   23.5654 H   0  0  0  0  0  0  0  0  0  0  0  0
    7.6044   -9.1169   22.1849 H   0  0  0  0  0  0  0  0  0  0  0  0
    8.5379   -8.1123   23.3257 H   0  0  0  0  0  0  0  0  0  0  0  0
    7.1277   -9.0398   23.8900 H   0  0  0  0  0  0  0  0  0  0  0  0
  1  2  1  0
  2  3  1  0
  3  4  2  0
  3  5  1  0
  5  6  1  0
  6  7  1  0
  8  7  1  6
  8  9  1  0
  9 10  2  0
  9 11  1  0
 11 12  1  0
 12 13  2  0
 13 14  1  0
 14 15  2  0
 15 16  1  0
 16 17  2  0
 17 18  1  0
 18 19  2  0
 19 20  1  0
 20 21  2  0
 20 22  1  0
 19 23  1  0
 18 24  1  0
 17 25  1  0
 15 26  1  0
 13 27  1  0
 11 28  1  0
 28 29  1  0
 29 30  1  0
 30 31  1  0
 31 32  1  0
 32 33  2  0
 33 34  1  0
 34 35  2  0
 35 36  1  0
 36 37  2  0
 36 38  1  0
 34 39  1  0
 33 40  1  0
 31 41  1  0
 30 42  1  0
 30 43  1  0
 29 44  1  1
 28 45  1  0
 28 46  1  0
  8 47  1  0
 47 48  2  0
 48 49  1  0
 49 50  1  0
 49 51  2  0
 51 52  1  0
 52 53  2  0
 53 54  1  0
 54 55  2  0
 52 56  1  0
 51 57  1  0
 48 58  1  0
  7 59  1  0
  7 60  1  0
  5 61  1  0
  5 62  1  0
  2 63  1  0
  1 64  1  0
  1 65  1  0
  1 66  1  0
 54  6  1  0
 29  8  1  0
 37 32  1  0
 53 47  1  0
 21 12  1  0
 21 16  1  0
M  END
>  <cnnaffinities>  (42) 
[7.51106]

>  <score>  (42) 
7.51106

>  <index>  (42) 
52

>  <Smiles>  (42) 
C(N(C(=O)C(N1C([C@@]2(C(=O)N(c3c(nc(c4c(c(c(c(c34)[H])[H])[H])[H])[H])[H])C([C@@]2(C(N(c2c(c(nc(n2)[H])[H])[H])[H])([H])[H])[H])([H])[H])c2c(c(Cl)c(c(c2C1=O)[H])[H])[H])([H])[H])([H])[H])[H])([H])([H])[H]

>  <h>  (42) 
<NA>

>  <Training>  (42) 
True

>  <Success>  (42) 
True

>  <enamine_searched>  (42) 
False

>  <enamine_id>  (42) 
nan

$$$$

     RDKit          3D

 66 71  0  0  0  0  0  0  0  0999 V2000
    7.5494   -8.4348   23.0592 C   0  0  0  0  0  0  0  0  0  0  0  0
    6.6492   -7.3331   22.7897 N   0  0  0  0  0  0  0  0  0  0  0  0
    6.8777   -6.5067   21.7369 C   0  0  0  0  0  0  0  0  0  0  0  0
    7.7052   -6.7224   20.8680 O   0  0  0  0  0  0  0  0  0  0  0  0
    6.0606   -5.2153   21.7528 C   0  0  0  0  0  0  0  0  0  0  0  0
    6.6372   -4.2773   22.6984 N   0  0  0  0  0  0  0  0  0  0  0  0
    7.7389   -3.4097   22.3113 C   0  0  0  0  0  0  0  0  0  0  0  0
    7.4045   -1.9397   22.6632 C   0  0  2  0  0  0  0  0  0  0  0  0
    6.3151   -1.4553   21.6754 C   0  0  0  0  0  0  0  0  0  0  0  0
    5.1804   -1.8779   21.5725 O   0  0  0  0  0  0  0  0  0  0  0  0
    6.8605   -0.4790   20.8652 N   0  0  0  0  0  0  0  0  0  0  0  0
    6.1277    0.0725   19.7910 C   0  0  0  0  0  0  0  0  0  0  0  0
    6.4796   -0.2163   18.4962 C   0  0  0  0  0  0  0  0  0  0  0  0
    5.8223    0.2289   17.3971 N   0  0  0  0  0  0  0  0  0  0  0  0
    4.7858    1.0063   17.6035 C   0  0  0  0  0  0  0  0  0  0  0  0
    4.3281    1.4040   18.8907 C   0  0  0  0  0  0  0  0  0  0  0  0
    3.2079    2.2601   19.0413 C   0  0  0  0  0  0  0  0  0  0  0  0
    2.7994    2.6510   20.2860 C   0  0  0  0  0  0  0  0  0  0  0  0
    3.4912    2.2106   21.4352 C   0  0  0  0  0  0  0  0  0  0  0  0
    4.5757    1.3774   21.3172 C   0  0  0  0  0  0  0  0  0  0  0  0
    5.0145    0.9409   20.0328 C   0  0  0  0  0  0  0  0  0  0  0  0
    5.0973    1.0402   22.2076 H   0  0  0  0  0  0  0  0  0  0  0  0
    3.1590    2.5364   22.4170 H   0  0  0  0  0  0  0  0  0  0  0  0
    1.9481    3.3149   20.3982 H   0  0  0  0  0  0  0  0  0  0  0  0
    2.7011    2.6065   18.1455 H   0  0  0  0  0  0  0  0  0  0  0  0
    4.2463    1.3633   16.7275 H   0  0  0  0  0  0  0  0  0  0  0  0
    7.3287   -0.8724   18.3085 H   0  0  0  0  0  0  0  0  0  0  0  0
    8.3103   -0.4101   20.9642 C   0  0  0  0  0  0  0  0  0  0  0  0
    8.5847   -0.9744   22.3595 C   0  0  2  0  0  0  0  0  0  0  0  0
    9.9889   -1.5528   22.4750 C   0  0  0  0  0  0  0  0  0  0  0  0
   10.2088   -2.1162   23.7854 N   0  0  0  0  0  0  0  0  0  0  0  0
   11.4171   -2.6313   24.1519 C   0  0  0  0  0  0  0  0  0  0  0  0
   11.5623   -3.2928   25.3952 C   0  0  0  0  0  0  0  0  0  0  0  0
   12.7497   -3.6173   25.8725 N   0  0  0  0  0  0  0  0  0  0  0  0
   13.8078   -3.3266   25.0997 C   0  0  0  0  0  0  0  0  0  0  0  0
   13.6408   -2.8572   23.8074 C   0  0  0  0  0  0  0  0  0  0  0  0
   12.4484   -2.4978   23.3187 N   0  0  0  0  0  0  0  0  0  0  0  0
   14.5018   -2.7579   23.1587 H   0  0  0  0  0  0  0  0  0  0  0  0
   14.7923   -3.5054   25.5314 H   0  0  0  0  0  0  0  0  0  0  0  0
   10.6828   -3.4350   26.0309 H   0  0  0  0  0  0  0  0  0  0  0  0
    9.5299   -1.9322   24.5072 H   0  0  0  0  0  0  0  0  0  0  0  0
   10.7429   -0.7846   22.2690 H   0  0  0  0  0  0  0  0  0  0  0  0
   10.1336   -2.3472   21.7321 H   0  0  0  0  0  0  0  0  0  0  0  0
    8.5094   -0.1338   23.0541 H   0  0  0  0  0  0  0  0  0  0  0  0
    8.8079   -1.0031   20.1804 H   0  0  0  0  0  0  0  0  0  0  0  0
    8.6487    0.6253   20.8627 H   0  0  0  0  0  0  0  0  0  0  0  0
    6.9199   -1.8985   24.1043 C   0  0  0  0  0  0  0  0  0  0  0  0
    6.8796   -0.6930   24.8190 C   0  0  0  0  0  0  0  0  0  0  0  0
    6.4058   -0.6621   26.1185 C   0  0  0  0  0  0  0  0  0  0  0  0
    6.3555    0.8596   26.9626 Cl  0  0  0  0  0  0  0  0  0  0  0  0
    5.9656   -1.8131   26.7699 C   0  0  0  0  0  0  0  0  0  0  0  0
    5.9674   -2.9976   26.0622 C   0  0  0  0  0  0  0  0  0  0  0  0
    6.4048   -3.0390   24.7404 C   0  0  0  0  0  0  0  0  0  0  0  0
    6.1922   -4.3004   23.9808 C   0  0  0  0  0  0  0  0  0  0  0  0
    5.5891   -5.2686   24.4492 O   0  0  0  0  0  0  0  0  0  0  0  0
    5.5989   -3.9122   26.5104 H   0  0  0  0  0  0  0  0  0  0  0  0
    5.6078   -1.7693   27.7939 H   0  0  0  0  0  0  0  0  0  0  0  0
    7.1910    0.2430   24.3705 H   0  0  0  0  0  0  0  0  0  0  0  0
    7.8936   -3.5082   21.2414 H   0  0  0  0  0  0  0  0  0  0  0  0
    8.6796   -3.7064   22.7978 H   0  0  0  0  0  0  0  0  0  0  0  0
    5.0217   -5.4168   22.0417 H   0  0  0  0  0  0  0  0  0  0  0  0
    6.0717   -4.7535   20.7608 H   0  0  0  0  0  0  0  0  0  0  0  0
    6.1316   -6.9361   23.5650 H   0  0  0  0  0  0  0  0  0  0  0  0
    8.5524   -8.0759   23.3315 H   0  0  0  0  0  0  0  0  0  0  0  0
    7.5897   -9.0919   22.1870 H   0  0  0  0  0  0  0  0  0  0  0  0
    7.1562   -9.0149   23.8956 H   0  0  0  0  0  0  0  0  0  0  0  0
  1  2  1  0
  2  3  1  0
  3  4  2  0
  3  5  1  0
  5  6  1  0
  6  7  1  0
  8  7  1  6
  8  9  1  0
  9 10  2  0
  9 11  1  0
 11 12  1  0
 12 13  2  0
 13 14  1  0
 14 15  2  0
 15 16  1  0
 16 17  2  0
 17 18  1  0
 18 19  2  0
 19 20  1  0
 20 21  2  0
 20 22  1  0
 19 23  1  0
 18 24  1  0
 17 25  1  0
 15 26  1  0
 13 27  1  0
 11 28  1  0
 28 29  1  0
 29 30  1  0
 30 31  1  0
 31 32  1  0
 32 33  2  0
 33 34  1  0
 34 35  2  0
 35 36  1  0
 36 37  2  0
 36 38  1  0
 35 39  1  0
 33 40  1  0
 31 41  1  0
 30 42  1  0
 30 43  1  0
 29 44  1  1
 28 45  1  0
 28 46  1  0
  8 47  1  0
 47 48  2  0
 48 49  1  0
 49 50  1  0
 49 51  2  0
 51 52  1  0
 52 53  2  0
 53 54  1  0
 54 55  2  0
 52 56  1  0
 51 57  1  0
 48 58  1  0
  7 59  1  0
  7 60  1  0
  5 61  1  0
  5 62  1  0
  2 63  1  0
  1 64  1  0
  1 65  1  0
  1 66  1  0
 54  6  1  0
 29  8  1  0
 37 32  1  0
 53 47  1  0
 21 12  1  0
 21 16  1  0
M  END
>  <cnnaffinities>  (43) 
[7.5353]

>  <score>  (43) 
7.5353

>  <index>  (43) 
54

>  <Smiles>  (43) 
C(N(C(=O)C(N1C([C@@]2(C(=O)N(c3c(nc(c4c(c(c(c(c34)[H])[H])[H])[H])[H])[H])C([C@@]2(C(N(c2c(nc(c(n2)[H])[H])[H])[H])([H])[H])[H])([H])[H])c2c(c(Cl)c(c(c2C1=O)[H])[H])[H])([H])[H])([H])[H])[H])([H])([H])[H]

>  <h>  (43) 
<NA>

>  <Training>  (43) 
True

>  <Success>  (43) 
True

>  <enamine_searched>  (43) 
False

>  <enamine_id>  (43) 
nan

$$$$

     RDKit          3D

 41 43  0  0  0  0  0  0  0  0999 V2000
    5.4657   -2.3593   21.0013 O   0  0  0  0  0  0  0  0  0  0  0  0
    6.1714   -1.6121   21.6541 C   0  0  0  0  0  0  0  0  0  0  0  0
    6.9179   -0.4790   20.9153 C   0  0  0  0  0  0  0  0  0  0  0  0
    6.1121    0.0874   19.7666 C   0  0  0  0  0  0  0  0  0  0  0  0
    6.4205   -0.2145   18.4626 C   0  0  0  0  0  0  0  0  0  0  0  0
    5.7596    0.2390   17.3625 N   0  0  0  0  0  0  0  0  0  0  0  0
    4.7346    1.0307   17.5750 C   0  0  0  0  0  0  0  0  0  0  0  0
    4.2863    1.4223   18.8670 C   0  0  0  0  0  0  0  0  0  0  0  0
    3.1642    2.2732   19.0432 C   0  0  0  0  0  0  0  0  0  0  0  0
    2.7501    2.6264   20.3002 C   0  0  0  0  0  0  0  0  0  0  0  0
    3.4440    2.1432   21.4324 C   0  0  0  0  0  0  0  0  0  0  0  0
    4.5342    1.3180   21.2888 C   0  0  0  0  0  0  0  0  0  0  0  0
    4.9889    0.9375   19.9973 C   0  0  0  0  0  0  0  0  0  0  0  0
    5.0454    0.9501   22.1766 H   0  0  0  0  0  0  0  0  0  0  0  0
    3.1071    2.4216   22.4253 H   0  0  0  0  0  0  0  0  0  0  0  0
    1.8911    3.2781   20.4369 H   0  0  0  0  0  0  0  0  0  0  0  0
    2.6417    2.6442   18.1645 H   0  0  0  0  0  0  0  0  0  0  0  0
    4.1978    1.3998   16.6997 H   0  0  0  0  0  0  0  0  0  0  0  0
    7.2657   -0.8669   18.2478 H   0  0  0  0  0  0  0  0  0  0  0  0
    7.2506    0.3226   21.5807 H   0  0  0  0  0  0  0  0  0  0  0  0
    7.8280   -0.9376   20.5063 H   0  0  0  0  0  0  0  0  0  0  0  0
    6.3401   -1.8362   23.0180 N   0  0  0  0  0  0  0  0  0  0  0  0
    5.7933   -3.1033   23.5358 C   0  0  0  0  0  0  0  0  0  0  0  0
    4.2905   -3.0853   23.8134 C   0  0  0  0  0  0  0  0  0  0  0  0
    3.9143   -2.3635   25.0990 C   0  0  0  0  0  0  0  0  0  0  0  0
    4.3558   -0.6068   25.1398 S   0  0  0  0  0  0  0  0  0  0  0  0
    6.1472   -0.7884   25.3084 C   0  0  0  0  0  0  0  0  0  0  0  0
    6.8774   -0.8667   23.9597 C   0  0  1  0  0  0  0  0  0  0  0  0
    8.3648   -1.1322   24.1660 C   0  0  0  0  0  0  0  0  0  0  0  0
    9.0115   -1.1598   22.9917 F   0  0  0  0  0  0  0  0  0  0  0  0
    8.9352   -0.1842   24.9315 F   0  0  0  0  0  0  0  0  0  0  0  0
    8.5770   -2.3131   24.7777 F   0  0  0  0  0  0  0  0  0  0  0  0
    6.8096    0.1359   23.5330 H   0  0  0  0  0  0  0  0  0  0  0  0
    6.5030    0.0829   25.8666 H   0  0  0  0  0  0  0  0  0  0  0  0
    6.3549   -1.6568   25.9364 H   0  0  0  0  0  0  0  0  0  0  0  0
    4.3929   -2.8384   25.9632 H   0  0  0  0  0  0  0  0  0  0  0  0
    2.8341   -2.4208   25.2680 H   0  0  0  0  0  0  0  0  0  0  0  0
    3.7880   -2.6142   22.9673 H   0  0  0  0  0  0  0  0  0  0  0  0
    3.9190   -4.1192   23.8811 H   0  0  0  0  0  0  0  0  0  0  0  0
    6.3402   -3.3770   24.4387 H   0  0  0  0  0  0  0  0  0  0  0  0
    6.0172   -3.8776   22.8006 H   0  0  0  0  0  0  0  0  0  0  0  0
  1  2  2  0
  2  3  1  0
  3  4  1  0
  4  5  2  0
  5  6  1  0
  6  7  2  0
  7  8  1  0
  8  9  2  0
  9 10  1  0
 10 11  2  0
 11 12  1  0
 12 13  2  0
 12 14  1  0
 11 15  1  0
 10 16  1  0
  9 17  1  0
  7 18  1  0
  5 19  1  0
  3 20  1  0
  3 21  1  0
  2 22  1  0
 22 23  1  0
 23 24  1  0
 24 25  1  0
 25 26  1  0
 26 27  1  0
 27 28  1  0
 28 29  1  0
 29 30  1  0
 29 31  1  0
 29 32  1  0
 28 33  1  6
 27 34  1  0
 27 35  1  0
 25 36  1  0
 25 37  1  0
 24 38  1  0
 24 39  1  0
 23 40  1  0
 23 41  1  0
 13  4  1  0
 28 22  1  0
 13  8  1  0
M  END
>  <cnnaffinities>  (44) 
[5.51137, 5.44458, 5.44456, 5.41101, 5.41147]

>  <score>  (44) 
5.51137

>  <index>  (44) 
56

>  <Smiles>  (44) 
O=C(C(c1c(nc(c2c(c(c(c(c12)[H])[H])[H])[H])[H])[H])([H])[H])N1C(C(C(SC([C@]1(C(F)(F)F)[H])([H])[H])([H])[H])([H])[H])([H])[H]

>  <h>  (44) 
<NA>

>  <Training>  (44) 
True

>  <Success>  (44) 
True

>  <enamine_searched>  (44) 
False

>  <enamine_id>  (44) 
nan

$$$$

     RDKit          3D

 67 72  0  0  0  0  0  0  0  0999 V2000
    7.5876   -8.3992   23.0984 C   0  0  0  0  0  0  0  0  0  0  0  0
    6.7040   -7.2750   22.8937 N   0  0  0  0  0  0  0  0  0  0  0  0
    6.8674   -6.4819   21.8081 C   0  0  0  0  0  0  0  0  0  0  0  0
    7.6270   -6.7221   20.8823 O   0  0  0  0  0  0  0  0  0  0  0  0
    6.0498   -5.1954   21.8426 C   0  0  0  0  0  0  0  0  0  0  0  0
    6.6323   -4.2487   22.7713 N   0  0  0  0  0  0  0  0  0  0  0  0
    7.7313   -3.3955   22.3545 C   0  0  0  0  0  0  0  0  0  0  0  0
    7.4124   -1.9187   22.6785 C   0  0  2  0  0  0  0  0  0  0  0  0
    6.3262   -1.4647   21.6743 C   0  0  0  0  0  0  0  0  0  0  0  0
    5.2065   -1.9182   21.5584 O   0  0  0  0  0  0  0  0  0  0  0  0
    6.8470   -0.4736   20.8679 N   0  0  0  0  0  0  0  0  0  0  0  0
    6.1167    0.0663   19.7904 C   0  0  0  0  0  0  0  0  0  0  0  0
    6.4828   -0.2145   18.4998 C   0  0  0  0  0  0  0  0  0  0  0  0
    5.8273    0.2320   17.4010 N   0  0  0  0  0  0  0  0  0  0  0  0
    4.7869    1.0055   17.5989 C   0  0  0  0  0  0  0  0  0  0  0  0
    4.3238    1.4048   18.8837 C   0  0  0  0  0  0  0  0  0  0  0  0
    3.2041    2.2640   19.0342 C   0  0  0  0  0  0  0  0  0  0  0  0
    2.7973    2.6611   20.2778 C   0  0  0  0  0  0  0  0  0  0  0  0
    3.4907    2.2176   21.4275 C   0  0  0  0  0  0  0  0  0  0  0  0
    4.5712    1.3781   21.3089 C   0  0  0  0  0  0  0  0  0  0  0  0
    5.0075    0.9378   20.0270 C   0  0  0  0  0  0  0  0  0  0  0  0
    5.1044    1.0392   22.1925 H   0  0  0  0  0  0  0  0  0  0  0  0
    3.1599    2.5403   22.4108 H   0  0  0  0  0  0  0  0  0  0  0  0
    1.9417    3.3229   20.3918 H   0  0  0  0  0  0  0  0  0  0  0  0
    2.6970    2.6101   18.1371 H   0  0  0  0  0  0  0  0  0  0  0  0
    4.2558    1.3595   16.7141 H   0  0  0  0  0  0  0  0  0  0  0  0
    7.3333   -0.8661   18.3029 H   0  0  0  0  0  0  0  0  0  0  0  0
    8.2885   -0.3896   20.9540 C   0  0  0  0  0  0  0  0  0  0  0  0
    8.5875   -0.9549   22.3427 C   0  0  2  0  0  0  0  0  0  0  0  0
   10.0002   -1.5211   22.4211 C   0  0  0  0  0  0  0  0  0  0  0  0
   10.2470   -2.0854   23.7218 N   0  0  0  0  0  0  0  0  0  0  0  0
   11.4954   -2.5696   24.0323 C   0  0  0  0  0  0  0  0  0  0  0  0
   12.6715   -2.3776   23.3758 C   0  0  0  0  0  0  0  0  0  0  0  0
   13.8049   -2.8295   24.0180 N   0  0  0  0  0  0  0  0  0  0  0  0
   13.5075   -3.4156   25.1297 C   0  0  0  0  0  0  0  0  0  0  0  0
   14.4858   -4.1253   26.0170 C   0  0  0  0  0  0  0  0  0  0  0  0
   14.4793   -3.7305   27.0367 H   0  0  0  0  0  0  0  0  0  0  0  0
   14.2565   -5.1958   26.0786 H   0  0  0  0  0  0  0  0  0  0  0  0
   15.4850   -4.0173   25.5954 H   0  0  0  0  0  0  0  0  0  0  0  0
   11.7868   -3.5320   25.4515 S   0  0  0  0  0  0  0  0  0  0  0  0
   12.7463   -1.8753   22.4186 H   0  0  0  0  0  0  0  0  0  0  0  0
    9.6193   -1.8775   24.4848 H   0  0  0  0  0  0  0  0  0  0  0  0
   10.7409   -0.7344   22.2026 H   0  0  0  0  0  0  0  0  0  0  0  0
   10.1395   -2.2962   21.6558 H   0  0  0  0  0  0  0  0  0  0  0  0
    8.5324   -0.1346   23.0604 H   0  0  0  0  0  0  0  0  0  0  0  0
    8.7824   -0.9867   20.1721 H   0  0  0  0  0  0  0  0  0  0  0  0
    8.6223    0.6468   20.8515 H   0  0  0  0  0  0  0  0  0  0  0  0
    6.9199   -1.8461   24.1243 C   0  0  0  0  0  0  0  0  0  0  0  0
    6.8609   -0.6228   24.8086 C   0  0  0  0  0  0  0  0  0  0  0  0
    6.3716   -0.5637   26.1025 C   0  0  0  0  0  0  0  0  0  0  0  0
    6.2891    0.9807   26.9134 Cl  0  0  0  0  0  0  0  0  0  0  0  0
    5.9341   -1.7068   26.7720 C   0  0  0  0  0  0  0  0  0  0  0  0
    5.9511   -2.9124   26.1016 C   0  0  0  0  0  0  0  0  0  0  0  0
    6.4039   -2.9753   24.7868 C   0  0  0  0  0  0  0  0  0  0  0  0
    6.2080   -4.2566   24.0616 C   0  0  0  0  0  0  0  0  0  0  0  0
    5.6356   -5.2305   24.5578 O   0  0  0  0  0  0  0  0  0  0  0  0
    5.5922   -3.8268   26.5654 H   0  0  0  0  0  0  0  0  0  0  0  0
    5.5645   -1.6382   27.7868 H   0  0  0  0  0  0  0  0  0  0  0  0
    7.1552    0.3063   24.3339 H   0  0  0  0  0  0  0  0  0  0  0  0
    7.8785   -3.5124   21.2813 H   0  0  0  0  0  0  0  0  0  0  0  0
    8.6517   -3.7068   22.8595 H   0  0  0  0  0  0  0  0  0  0  0  0
    5.0139   -5.3796   22.1576 H   0  0  0  0  0  0  0  0  0  0  0  0
    6.0549   -4.7684   20.8354 H   0  0  0  0  0  0  0  0  0  0  0  0
    6.2736   -6.8274   23.7052 H   0  0  0  0  0  0  0  0  0  0  0  0
    7.5337   -9.0838   22.2497 H   0  0  0  0  0  0  0  0  0  0  0  0
    7.2897   -8.9317   24.0031 H   0  0  0  0  0  0  0  0  0  0  0  0
    8.6305   -8.0834   23.2024 H   0  0  0  0  0  0  0  0  0  0  0  0
  1  2  1  0
  2  3  1  0
  3  4  2  0
  3  5  1  0
  5  6  1  0
  6  7  1  0
  8  7  1  6
  8  9  1  0
  9 10  2  0
  9 11  1  0
 11 12  1  0
 12 13  2  0
 13 14  1  0
 14 15  2  0
 15 16  1  0
 16 17  2  0
 17 18  1  0
 18 19  2  0
 19 20  1  0
 20 21  2  0
 20 22  1  0
 19 23  1  0
 18 24  1  0
 17 25  1  0
 15 26  1  0
 13 27  1  0
 11 28  1  0
 28 29  1  0
 29 30  1  0
 30 31  1  0
 31 32  1  0
 32 33  2  0
 33 34  1  0
 34 35  2  0
 35 36  1  0
 36 37  1  0
 36 38  1  0
 36 39  1  0
 35 40  1  0
 33 41  1  0
 31 42  1  0
 30 43  1  0
 30 44  1  0
 29 45  1  1
 28 46  1  0
 28 47  1  0
  8 48  1  0
 48 49  2  0
 49 50  1  0
 50 51  1  0
 50 52  2  0
 52 53  1  0
 53 54  2  0
 54 55  1  0
 55 56  2  0
 53 57  1  0
 52 58  1  0
 49 59  1  0
  7 60  1  0
  7 61  1  0
  5 62  1  0
  5 63  1  0
  2 64  1  0
  1 65  1  0
  1 66  1  0
  1 67  1  0
 55  6  1  0
 29  8  1  0
 40 32  1  0
 54 48  1  0
 21 12  1  0
 21 16  1  0
M  END
>  <cnnaffinities>  (45) 
[7.64641]

>  <score>  (45) 
7.64641

>  <index>  (45) 
57

>  <Smiles>  (45) 
C(N(C(=O)C(N1C([C@@]2(C(=O)N(c3c(nc(c4c(c(c(c(c34)[H])[H])[H])[H])[H])[H])C([C@@]2(C(N(c2c(nc(C([H])([H])[H])s2)[H])[H])([H])[H])[H])([H])[H])c2c(c(Cl)c(c(c2C1=O)[H])[H])[H])([H])[H])([H])[H])[H])([H])([H])[H]

>  <h>  (45) 
<NA>

>  <Training>  (45) 
True

>  <Success>  (45) 
True

>  <enamine_searched>  (45) 
False

>  <enamine_id>  (45) 
nan

$$$$

     RDKit          3D

 60 65  0  0  0  0  0  0  0  0999 V2000
    9.2908   -3.4672   23.8300 C   0  0  0  0  0  0  0  0  0  0  0  0
    7.9140   -3.2178   24.0183 O   0  0  0  0  0  0  0  0  0  0  0  0
    7.0578   -3.5370   22.9414 C   0  0  0  0  0  0  0  0  0  0  0  0
    7.0325   -2.4385   21.8689 C   0  0  1  0  0  0  0  0  0  0  0  0
    5.7843   -2.3095   20.9753 C   0  0  0  0  0  0  0  0  0  0  0  0
    5.9808   -0.9694   20.4333 N   0  0  0  0  0  0  0  0  0  0  0  0
    5.3397   -0.3659   19.3321 C   0  0  0  0  0  0  0  0  0  0  0  0
    5.7157   -0.6408   18.0424 C   0  0  0  0  0  0  0  0  0  0  0  0
    5.2674    0.0346   16.9546 N   0  0  0  0  0  0  0  0  0  0  0  0
    4.4110    1.0085   17.1616 C   0  0  0  0  0  0  0  0  0  0  0  0
    3.9152    1.3734   18.4434 C   0  0  0  0  0  0  0  0  0  0  0  0
    2.9760    2.4253   18.6141 C   0  0  0  0  0  0  0  0  0  0  0  0
    2.5819    2.8137   19.8663 C   0  0  0  0  0  0  0  0  0  0  0  0
    3.0585    2.1260   21.0067 C   0  0  0  0  0  0  0  0  0  0  0  0
    3.9161    1.0646   20.8602 C   0  0  0  0  0  0  0  0  0  0  0  0
    4.3925    0.6739   19.5728 C   0  0  0  0  0  0  0  0  0  0  0  0
    4.2250    0.5164   21.7444 H   0  0  0  0  0  0  0  0  0  0  0  0
    2.7518    2.4398   22.0037 H   0  0  0  0  0  0  0  0  0  0  0  0
    1.9010    3.6513   19.9957 H   0  0  0  0  0  0  0  0  0  0  0  0
    2.5931    2.9258   17.7264 H   0  0  0  0  0  0  0  0  0  0  0  0
    4.0911    1.5768   16.2867 H   0  0  0  0  0  0  0  0  0  0  0  0
    6.4451   -1.4236   17.8414 H   0  0  0  0  0  0  0  0  0  0  0  0
    6.8899   -0.1953   21.1246 C   0  0  0  0  0  0  0  0  0  0  0  0
    7.2759    0.8953   20.7457 O   0  0  0  0  0  0  0  0  0  0  0  0
    7.3241   -0.9848   22.3660 C   0  0  1  0  0  0  0  0  0  0  0  0
    6.4719   -0.6489   23.6183 C   0  0  0  0  0  0  0  0  0  0  0  0
    6.9896    0.4863   24.3700 N   0  0  0  0  0  0  0  0  0  0  0  0
    6.0616    1.3146   25.1248 C   0  0  0  0  0  0  0  0  0  0  0  0
    5.6649    0.8323   26.4955 C   0  0  0  0  0  0  0  0  0  0  0  0
    4.5849    0.1354   26.7707 N   0  0  0  0  0  0  0  0  0  0  0  0
    4.5623    0.0280   28.1414 C   0  0  0  0  0  0  0  0  0  0  0  0
    5.6294    0.6780   28.6971 C   0  0  0  0  0  0  0  0  0  0  0  0
    6.3424    1.1801   27.6301 N   0  0  0  0  0  0  0  0  0  0  0  0
    7.2751    1.5676   27.6355 H   0  0  0  0  0  0  0  0  0  0  0  0
    5.9040    0.8636   29.7279 H   0  0  0  0  0  0  0  0  0  0  0  0
    3.7820   -0.5343   28.6433 H   0  0  0  0  0  0  0  0  0  0  0  0
    6.5137    2.3048   25.2295 H   0  0  0  0  0  0  0  0  0  0  0  0
    5.1591    1.4177   24.5161 H   0  0  0  0  0  0  0  0  0  0  0  0
    8.3079    0.5107   24.7576 C   0  0  0  0  0  0  0  0  0  0  0  0
    8.6359    1.0181   25.8221 O   0  0  0  0  0  0  0  0  0  0  0  0
    9.2759   -0.0681   23.7532 C   0  0  0  0  0  0  0  0  0  0  0  0
   10.6642    0.0553   23.9115 C   0  0  0  0  0  0  0  0  0  0  0  0
   11.5505   -0.4701   22.9840 C   0  0  0  0  0  0  0  0  0  0  0  0
   11.0382   -1.0655   21.8346 C   0  0  0  0  0  0  0  0  0  0  0  0
   12.0972   -1.8123   20.6815 Cl  0  0  0  0  0  0  0  0  0  0  0  0
    9.6807   -1.1373   21.6226 C   0  0  0  0  0  0  0  0  0  0  0  0
    8.7805   -0.7099   22.6115 C   0  0  0  0  0  0  0  0  0  0  0  0
    9.3297   -1.5921   20.7004 H   0  0  0  0  0  0  0  0  0  0  0  0
   12.6290   -0.3995   23.0884 H   0  0  0  0  0  0  0  0  0  0  0  0
   11.0837    0.5779   24.7571 H   0  0  0  0  0  0  0  0  0  0  0  0
    6.4416   -1.5309   24.2673 H   0  0  0  0  0  0  0  0  0  0  0  0
    5.4444   -0.4399   23.3049 H   0  0  0  0  0  0  0  0  0  0  0  0
    4.8333   -2.3912   21.5279 H   0  0  0  0  0  0  0  0  0  0  0  0
    5.7603   -3.0520   20.1714 H   0  0  0  0  0  0  0  0  0  0  0  0
    7.8488   -2.6768   21.1831 H   0  0  0  0  0  0  0  0  0  0  0  0
    6.0662   -3.6729   23.3903 H   0  0  0  0  0  0  0  0  0  0  0  0
    7.3581   -4.4923   22.4834 H   0  0  0  0  0  0  0  0  0  0  0  0
    9.5521   -4.4989   24.1059 H   0  0  0  0  0  0  0  0  0  0  0  0
    9.8450   -2.7783   24.4794 H   0  0  0  0  0  0  0  0  0  0  0  0
    9.6026   -3.3007   22.7910 H   0  0  0  0  0  0  0  0  0  0  0  0
  1  2  1  0
  2  3  1  0
  3  4  1  0
  4  5  1  0
  5  6  1  0
  6  7  1  0
  7  8  2  0
  8  9  1  0
  9 10  2  0
 10 11  1  0
 11 12  2  0
 12 13  1  0
 13 14  2  0
 14 15  1  0
 15 16  2  0
 15 17  1  0
 14 18  1  0
 13 19  1  0
 12 20  1  0
 10 21  1  0
  8 22  1  0
  6 23  1  0
 23 24  2  0
 23 25  1  0
 25 26  1  1
 26 27  1  0
 27 28  1  0
 28 29  1  0
 29 30  2  0
 30 31  1  0
 31 32  2  0
 32 33  1  0
 33 34  1  0
 32 35  1  0
 31 36  1  0
 28 37  1  0
 28 38  1  0
 27 39  1  0
 39 40  2  0
 39 41  1  0
 41 42  2  0
 42 43  1  0
 43 44  2  0
 44 45  1  0
 44 46  1  0
 46 47  2  0
 46 48  1  0
 43 49  1  0
 42 50  1  0
 26 51  1  0
 26 52  1  0
  5 53  1  0
  5 54  1  0
  4 55  1  6
  3 56  1  0
  3 57  1  0
  1 58  1  0
  1 59  1  0
  1 60  1  0
 25  4  1  0
 33 29  1  0
 47 41  1  0
 16  7  1  0
 47 25  1  0
 16 11  1  0
M  END
>  <cnnaffinities>  (46) 
[6.06167]

>  <score>  (46) 
6.06167

>  <index>  (46) 
59

>  <Smiles>  (46) 
C(OC([C@]1(C(N(c2c(nc(c3c(c(c(c(c23)[H])[H])[H])[H])[H])[H])C(=O)[C@]21C(N(C(c1nc(c(n1[H])[H])[H])([H])[H])C(=O)c1c(c(c(Cl)c(c21)[H])[H])[H])([H])[H])([H])[H])[H])([H])[H])([H])([H])[H]

>  <h>  (46) 
<NA>

>  <Training>  (46) 
True

>  <Success>  (46) 
True

>  <enamine_searched>  (46) 
False

>  <enamine_id>  (46) 
nan

$$$$

     RDKit          3D

 38 41  0  0  0  0  0  0  0  0999 V2000
    5.1023   -1.9866   21.3439 O   0  0  0  0  0  0  0  0  0  0  0  0
    6.2908   -1.7691   21.5071 C   0  0  0  0  0  0  0  0  0  0  0  0
    6.9402   -0.5058   20.8954 C   0  0  0  0  0  0  0  0  0  0  0  0
    6.1180    0.0872   19.7714 C   0  0  0  0  0  0  0  0  0  0  0  0
    6.4222   -0.2113   18.4674 C   0  0  0  0  0  0  0  0  0  0  0  0
    5.7596    0.2372   17.3673 N   0  0  0  0  0  0  0  0  0  0  0  0
    4.7354    1.0302   17.5766 C   0  0  0  0  0  0  0  0  0  0  0  0
    4.2869    1.4206   18.8687 C   0  0  0  0  0  0  0  0  0  0  0  0
    3.1644    2.2737   19.0418 C   0  0  0  0  0  0  0  0  0  0  0  0
    2.7465    2.6248   20.2978 C   0  0  0  0  0  0  0  0  0  0  0  0
    3.4354    2.1369   21.4296 C   0  0  0  0  0  0  0  0  0  0  0  0
    4.5249    1.3110   21.2876 C   0  0  0  0  0  0  0  0  0  0  0  0
    4.9870    0.9329   19.9993 C   0  0  0  0  0  0  0  0  0  0  0  0
    5.0271    0.9263   22.1683 H   0  0  0  0  0  0  0  0  0  0  0  0
    3.0923    2.4121   22.4217 H   0  0  0  0  0  0  0  0  0  0  0  0
    1.8883    3.2775   20.4333 H   0  0  0  0  0  0  0  0  0  0  0  0
    2.6453    2.6464   18.1613 H   0  0  0  0  0  0  0  0  0  0  0  0
    4.1996    1.3989   16.6999 H   0  0  0  0  0  0  0  0  0  0  0  0
    7.2635   -0.8652   18.2456 H   0  0  0  0  0  0  0  0  0  0  0  0
    7.0904    0.2420   21.6854 H   0  0  0  0  0  0  0  0  0  0  0  0
    7.9396   -0.7551   20.5099 H   0  0  0  0  0  0  0  0  0  0  0  0
    7.0807   -2.6632   22.2022 N   0  0  0  0  0  0  0  0  0  0  0  0
    8.4403   -2.3759   22.6494 C   0  0  0  0  0  0  0  0  0  0  0  0
    8.7615   -3.0433   23.9884 C   0  0  0  0  0  0  0  0  0  0  0  0
    8.3863   -4.4897   23.9475 C   0  0  0  0  0  0  0  0  0  0  0  0
    9.0679   -5.7410   24.9333 S   0  0  0  0  0  0  0  0  0  0  0  0
    8.0093   -6.9118   24.2317 C   0  0  0  0  0  0  0  0  0  0  0  0
    7.1636   -6.3593   23.3162 C   0  0  0  0  0  0  0  0  0  0  0  0
    7.3926   -4.9554   23.1478 C   0  0  0  0  0  0  0  0  0  0  0  0
    6.5957   -4.0473   22.2518 C   0  0  0  0  0  0  0  0  0  0  0  0
    5.5515   -4.0544   22.5818 H   0  0  0  0  0  0  0  0  0  0  0  0
    6.5698   -4.4924   21.2473 H   0  0  0  0  0  0  0  0  0  0  0  0
    6.4136   -6.9330   22.7769 H   0  0  0  0  0  0  0  0  0  0  0  0
    8.0714   -7.9477   24.5315 H   0  0  0  0  0  0  0  0  0  0  0  0
    9.8190   -2.9129   24.2321 H   0  0  0  0  0  0  0  0  0  0  0  0
    8.1985   -2.5530   24.7914 H   0  0  0  0  0  0  0  0  0  0  0  0
    9.1757   -2.7096   21.9060 H   0  0  0  0  0  0  0  0  0  0  0  0
    8.5549   -1.2955   22.7614 H   0  0  0  0  0  0  0  0  0  0  0  0
  1  2  2  0
  2  3  1  0
  3  4  1  0
  4  5  2  0
  5  6  1  0
  6  7  2  0
  7  8  1  0
  8  9  2  0
  9 10  1  0
 10 11  2  0
 11 12  1  0
 12 13  2  0
 12 14  1  0
 11 15  1  0
 10 16  1  0
  9 17  1  0
  7 18  1  0
  5 19  1  0
  3 20  1  0
  3 21  1  0
  2 22  1  0
 22 23  1  0
 23 24  1  0
 24 25  1  0
 25 26  1  0
 26 27  1  0
 27 28  2  0
 28 29  1  0
 29 30  1  0
 30 31  1  0
 30 32  1  0
 28 33  1  0
 27 34  1  0
 24 35  1  0
 24 36  1  0
 23 37  1  0
 23 38  1  0
 13  4  1  0
 30 22  1  0
 13  8  1  0
 29 25  2  0
M  END
>  <cnnaffinities>  (47) 
[5.35883]

>  <score>  (47) 
5.35883

>  <index>  (47) 
60

>  <Smiles>  (47) 
O=C(C(c1c(nc(c2c(c(c(c(c12)[H])[H])[H])[H])[H])[H])([H])[H])N1C(C(c2sc(c(c2C1([H])[H])[H])[H])([H])[H])([H])[H]

>  <h>  (47) 
<NA>

>  <Training>  (47) 
True

>  <Success>  (47) 
True

>  <enamine_searched>  (47) 
False

>  <enamine_id>  (47) 
nan

$$$$

     RDKit          3D

 70 76  0  0  0  0  0  0  0  0999 V2000
    9.7362   -1.9273   21.8711 C   0  0  0  0  0  0  0  0  0  0  0  0
    8.6584   -0.9295   22.3220 C   0  0  1  0  0  0  0  0  0  0  0  0
    8.2190   -0.0543   21.1338 C   0  0  0  0  0  0  0  0  0  0  0  0
    6.8763   -0.4825   20.8285 N   0  0  0  0  0  0  0  0  0  0  0  0
    6.1117    0.0625   19.7762 C   0  0  0  0  0  0  0  0  0  0  0  0
    6.4606   -0.2179   18.4788 C   0  0  0  0  0  0  0  0  0  0  0  0
    5.7948    0.2338   17.3881 N   0  0  0  0  0  0  0  0  0  0  0  0
    4.7592    1.0120   17.6037 C   0  0  0  0  0  0  0  0  0  0  0  0
    4.3112    1.4034   18.8977 C   0  0  0  0  0  0  0  0  0  0  0  0
    3.1977    2.2682   19.0565 C   0  0  0  0  0  0  0  0  0  0  0  0
    2.7942    2.6587   20.3043 C   0  0  0  0  0  0  0  0  0  0  0  0
    3.4913    2.2082   21.4489 C   0  0  0  0  0  0  0  0  0  0  0  0
    4.5736    1.3695   21.3282 C   0  0  0  0  0  0  0  0  0  0  0  0
    5.0019    0.9303   20.0354 C   0  0  0  0  0  0  0  0  0  0  0  0
    5.1030    1.0473   22.2263 H   0  0  0  0  0  0  0  0  0  0  0  0
    3.1645    2.5299   22.4334 H   0  0  0  0  0  0  0  0  0  0  0  0
    1.9408    3.3205   20.4261 H   0  0  0  0  0  0  0  0  0  0  0  0
    2.6878    2.6223   18.1662 H   0  0  0  0  0  0  0  0  0  0  0  0
    4.2219    1.3844   16.7306 H   0  0  0  0  0  0  0  0  0  0  0  0
    7.3091   -0.8731   18.2832 H   0  0  0  0  0  0  0  0  0  0  0  0
    6.3408   -1.3612   21.7329 C   0  0  0  0  0  0  0  0  0  0  0  0
    5.2475   -1.8795   21.6155 O   0  0  0  0  0  0  0  0  0  0  0  0
    7.3448   -1.5467   22.8847 C   0  0  1  0  0  0  0  0  0  0  0  0
    7.4845   -3.0331   23.2268 C   0  0  0  0  0  0  0  0  0  0  0  0
    6.2959   -3.5436   23.8618 N   0  0  0  0  0  0  0  0  0  0  0  0
    5.7699   -4.8055   23.4243 C   0  0  0  0  0  0  0  0  0  0  0  0
    6.5101   -5.9532   24.0923 C   0  0  0  0  0  0  0  0  0  0  0  0
    5.9167   -7.2971   23.7760 N   0  0  2  0  0  4  0  0  0  0  0  0
    5.8986   -7.5537   22.3011 C   0  0  0  0  0  0  0  0  0  0  0  0
    4.4522   -7.3345   21.8410 C   0  0  0  0  0  0  0  0  0  0  0  0
    3.5441   -7.5341   23.0667 C   0  0  0  0  0  0  0  0  0  0  0  0
    2.4683   -8.6520   23.1055 C   0  0  0  0  0  0  0  0  0  0  0  0
    1.3944   -7.7071   23.1493 O   0  0  0  0  0  0  0  0  0  0  0  0
    2.3125   -6.6133   23.1310 C   0  0  0  0  0  0  0  0  0  0  0  0
    2.2305   -6.0052   24.0407 H   0  0  0  0  0  0  0  0  0  0  0  0
    2.1591   -5.9783   22.2493 H   0  0  0  0  0  0  0  0  0  0  0  0
    2.4804   -9.2679   24.0150 H   0  0  0  0  0  0  0  0  0  0  0  0
    2.3886   -9.3113   22.2333 H   0  0  0  0  0  0  0  0  0  0  0  0
    4.4974   -7.5175   24.2707 C   0  0  0  0  0  0  0  0  0  0  0  0
    4.4948   -8.4708   24.7978 H   0  0  0  0  0  0  0  0  0  0  0  0
    4.2523   -6.7345   24.9917 H   0  0  0  0  0  0  0  0  0  0  0  0
    4.3731   -6.3031   21.4941 H   0  0  0  0  0  0  0  0  0  0  0  0
    4.1899   -7.9876   21.0005 H   0  0  0  0  0  0  0  0  0  0  0  0
    6.6044   -6.8833   21.8233 H   0  0  0  0  0  0  0  0  0  0  0  0
    6.2696   -8.5574   22.1184 H   0  0  0  0  0  0  0  0  0  0  0  0
    6.5262   -7.9809   24.2414 H   0  0  0  0  0  0  0  0  0  0  0  0
    7.5649   -5.9579   23.7933 H   0  0  0  0  0  0  0  0  0  0  0  0
    6.4938   -5.7942   25.1685 H   0  0  0  0  0  0  0  0  0  0  0  0
    5.8699   -4.8230   22.3324 H   0  0  0  0  0  0  0  0  0  0  0  0
    4.7046   -4.8153   23.6648 H   0  0  0  0  0  0  0  0  0  0  0  0
    5.7442   -2.9479   24.9516 C   0  0  0  0  0  0  0  0  0  0  0  0
    4.9820   -3.5349   25.7117 O   0  0  0  0  0  0  0  0  0  0  0  0
    6.0979   -1.5093   25.1094 C   0  0  0  0  0  0  0  0  0  0  0  0
    5.6137   -0.8576   26.2395 C   0  0  0  0  0  0  0  0  0  0  0  0
    5.8292    0.4954   26.4080 C   0  0  0  0  0  0  0  0  0  0  0  0
    6.5273    1.1836   25.4163 C   0  0  0  0  0  0  0  0  0  0  0  0
    6.7784    2.9000   25.5915 Cl  0  0  0  0  0  0  0  0  0  0  0  0
    7.0243    0.5467   24.2903 C   0  0  0  0  0  0  0  0  0  0  0  0
    6.8345   -0.8299   24.1303 C   0  0  0  0  0  0  0  0  0  0  0  0
    7.5647    1.1300   23.5501 H   0  0  0  0  0  0  0  0  0  0  0  0
    5.4502    1.0293   27.2721 H   0  0  0  0  0  0  0  0  0  0  0  0
    5.0584   -1.4490   26.9597 H   0  0  0  0  0  0  0  0  0  0  0  0
    8.3536   -3.1651   23.8837 H   0  0  0  0  0  0  0  0  0  0  0  0
    7.6518   -3.6096   22.3142 H   0  0  0  0  0  0  0  0  0  0  0  0
    8.2480    1.0198   21.3562 H   0  0  0  0  0  0  0  0  0  0  0  0
    8.8703   -0.2189   20.2764 H   0  0  0  0  0  0  0  0  0  0  0  0
    9.1185   -0.3233   23.1067 H   0  0  0  0  0  0  0  0  0  0  0  0
   10.5994   -1.3908   21.4636 H   0  0  0  0  0  0  0  0  0  0  0  0
   10.1022   -2.5408   22.6989 H   0  0  0  0  0  0  0  0  0  0  0  0
    9.3642   -2.5946   21.0871 H   0  0  0  0  0  0  0  0  0  0  0  0
  1  2  1  0
  2  3  1  0
  3  4  1  0
  4  5  1  0
  5  6  2  0
  6  7  1  0
  7  8  2  0
  8  9  1  0
  9 10  2  0
 10 11  1  0
 11 12  2  0
 12 13  1  0
 13 14  2  0
 13 15  1  0
 12 16  1  0
 11 17  1  0
 10 18  1  0
  8 19  1  0
  6 20  1  0
  4 21  1  0
 21 22  2  0
 21 23  1  0
 23 24  1  1
 24 25  1  0
 25 26  1  0
 26 27  1  0
 27 28  1  0
 28 29  1  0
 29 30  1  0
 30 31  1  0
 31 32  1  0
 32 33  1  0
 33 34  1  0
 34 35  1  0
 34 36  1  0
 32 37  1  0
 32 38  1  0
 31 39  1  0
 39 40  1  0
 39 41  1  0
 30 42  1  0
 30 43  1  0
 29 44  1  0
 29 45  1  0
 28 46  1  1
 27 47  1  0
 27 48  1  0
 26 49  1  0
 26 50  1  0
 25 51  1  0
 51 52  2  0
 51 53  1  0
 53 54  2  0
 54 55  1  0
 55 56  2  0
 56 57  1  0
 56 58  1  0
 58 59  2  0
 58 60  1  0
 55 61  1  0
 54 62  1  0
 24 63  1  0
 24 64  1  0
  3 65  1  0
  3 66  1  0
  2 67  1  1
  1 68  1  0
  1 69  1  0
  1 70  1  0
 23  2  1  0
 39 28  1  0
 59 53  1  0
 14  5  1  0
 59 23  1  0
 14  9  1  0
 34 31  1  0
M  CHG  1  28   1
M  END
>  <cnnaffinities>  (48) 
[6.58846]

>  <score>  (48) 
6.58846

>  <index>  (48) 
62

>  <Smiles>  (48) 
C([C@]1(C(N(c2c(nc(c3c(c(c(c(c23)[H])[H])[H])[H])[H])[H])C(=O)[C@]21C(N(C(C([N@@+]1(C(C(C3(C(OC3([H])[H])([H])[H])C1([H])[H])([H])[H])([H])[H])[H])([H])[H])([H])[H])C(=O)c1c(c(c(Cl)c(c21)[H])[H])[H])([H])[H])([H])[H])[H])([H])([H])[H]

>  <h>  (48) 
<NA>

>  <Training>  (48) 
True

>  <Success>  (48) 
True

>  <enamine_searched>  (48) 
False

>  <enamine_id>  (48) 
nan

$$$$

     RDKit          3D

 66 71  0  0  0  0  0  0  0  0999 V2000
    9.7300   -1.9206   21.8614 C   0  0  0  0  0  0  0  0  0  0  0  0
    8.6333   -0.9557   22.3326 C   0  0  1  0  0  0  0  0  0  0  0  0
    8.1919   -0.0448   21.1654 C   0  0  0  0  0  0  0  0  0  0  0  0
    6.8665   -0.5070   20.8232 N   0  0  0  0  0  0  0  0  0  0  0  0
    6.1082    0.0511   19.7701 C   0  0  0  0  0  0  0  0  0  0  0  0
    6.4616   -0.2212   18.4741 C   0  0  0  0  0  0  0  0  0  0  0  0
    5.8016    0.2393   17.3847 N   0  0  0  0  0  0  0  0  0  0  0  0
    4.7666    1.0148   17.6053 C   0  0  0  0  0  0  0  0  0  0  0  0
    4.3122    1.3988   18.8988 C   0  0  0  0  0  0  0  0  0  0  0  0
    3.2003    2.2646   19.0591 C   0  0  0  0  0  0  0  0  0  0  0  0
    2.7989    2.6507   20.3061 C   0  0  0  0  0  0  0  0  0  0  0  0
    3.4963    2.1958   21.4494 C   0  0  0  0  0  0  0  0  0  0  0  0
    4.5739    1.3532   21.3277 C   0  0  0  0  0  0  0  0  0  0  0  0
    5.0007    0.9187   20.0342 C   0  0  0  0  0  0  0  0  0  0  0  0
    5.0998    1.0198   22.2248 H   0  0  0  0  0  0  0  0  0  0  0  0
    3.1675    2.5197   22.4324 H   0  0  0  0  0  0  0  0  0  0  0  0
    1.9499    3.3181   20.4262 H   0  0  0  0  0  0  0  0  0  0  0  0
    2.6954    2.6218   18.1656 H   0  0  0  0  0  0  0  0  0  0  0  0
    4.2299    1.3859   16.7327 H   0  0  0  0  0  0  0  0  0  0  0  0
    7.3170   -0.8683   18.2820 H   0  0  0  0  0  0  0  0  0  0  0  0
    6.3261   -1.4155   21.6969 C   0  0  0  0  0  0  0  0  0  0  0  0
    5.2400   -1.9413   21.5555 O   0  0  0  0  0  0  0  0  0  0  0  0
    7.3177   -1.6226   22.8586 C   0  0  1  0  0  0  0  0  0  0  0  0
    7.4654   -3.1371   23.1576 C   0  0  0  0  0  0  0  0  0  0  0  0
    6.2716   -3.7128   23.7557 N   0  0  0  0  0  0  0  0  0  0  0  0
    5.8027   -5.0502   23.3910 C   0  0  0  0  0  0  0  0  0  0  0  0
    4.5131   -4.9713   22.5597 C   0  0  0  0  0  0  0  0  0  0  0  0
    3.7786   -6.2532   22.3243 N   0  0  0  0  0  4  0  0  0  0  0  0
    4.6335   -7.2854   21.3551 C   0  0  0  0  0  0  0  0  0  0  0  0
    3.9130   -8.1414   20.4975 C   0  0  0  0  0  0  0  0  0  0  0  0
    2.7727   -9.0796   22.9234 O   0  0  0  0  0  0  0  0  0  0  0  0
    2.2257   -8.0331   23.3658 C   0  0  0  0  0  0  0  0  0  0  0  0
    3.2094   -6.8125   23.5949 C   0  0  0  0  0  0  0  0  0  0  0  0
    2.6063   -6.0347   24.0708 H   0  0  0  0  0  0  0  0  0  0  0  0
    4.0289   -7.0900   24.2664 H   0  0  0  0  0  0  0  0  0  0  0  0
    1.4016   -7.6174   22.6770 H   0  0  0  0  0  0  0  0  0  0  0  0
    1.6905   -8.1606   24.3771 H   0  0  0  0  0  0  0  0  0  0  0  0
    3.2640   -8.8588   20.9670 H   0  0  0  0  0  0  0  0  0  0  0  0
    3.9548   -8.1124   19.4171 H   0  0  0  0  0  0  0  0  0  0  0  0
    5.3257   -6.6012   20.8007 H   0  0  0  0  0  0  0  0  0  0  0  0
    5.1907   -7.8268   22.1502 H   0  0  0  0  0  0  0  0  0  0  0  0
    2.9403   -6.0188   21.7654 H   0  0  0  0  0  0  0  0  0  0  0  0
    4.7512   -4.5395   21.5870 H   0  0  0  0  0  0  0  0  0  0  0  0
    3.8174   -4.3027   23.0698 H   0  0  0  0  0  0  0  0  0  0  0  0
    6.6046   -5.5672   22.8508 H   0  0  0  0  0  0  0  0  0  0  0  0
    5.6376   -5.5999   24.3190 H   0  0  0  0  0  0  0  0  0  0  0  0
    5.6713   -3.0950   24.8176 C   0  0  0  0  0  0  0  0  0  0  0  0
    4.8656   -3.6699   25.5398 O   0  0  0  0  0  0  0  0  0  0  0  0
    6.0119   -1.6424   25.0318 C   0  0  0  0  0  0  0  0  0  0  0  0
    5.4991   -1.0113   26.1658 C   0  0  0  0  0  0  0  0  0  0  0  0
    5.7047    0.3381   26.3820 C   0  0  0  0  0  0  0  0  0  0  0  0
    6.4338    1.0592   25.4383 C   0  0  0  0  0  0  0  0  0  0  0  0
    6.6765    2.7683   25.6810 Cl  0  0  0  0  0  0  0  0  0  0  0  0
    6.9675    0.4472   24.3156 C   0  0  0  0  0  0  0  0  0  0  0  0
    6.7784   -0.9281   24.1061 C   0  0  0  0  0  0  0  0  0  0  0  0
    7.5279    1.0646   23.6183 H   0  0  0  0  0  0  0  0  0  0  0  0
    5.2958    0.8407   27.2526 H   0  0  0  0  0  0  0  0  0  0  0  0
    4.9258   -1.6122   26.8630 H   0  0  0  0  0  0  0  0  0  0  0  0
    7.6730   -3.6671   22.2263 H   0  0  0  0  0  0  0  0  0  0  0  0
    8.3202   -3.2591   23.8406 H   0  0  0  0  0  0  0  0  0  0  0  0
    8.1829    1.0216   21.4333 H   0  0  0  0  0  0  0  0  0  0  0  0
    8.8624   -0.1510   20.3112 H   0  0  0  0  0  0  0  0  0  0  0  0
    9.0744   -0.3578   23.1389 H   0  0  0  0  0  0  0  0  0  0  0  0
   10.0957   -2.5494   22.6784 H   0  0  0  0  0  0  0  0  0  0  0  0
    9.3742   -2.5696   21.0535 H   0  0  0  0  0  0  0  0  0  0  0  0
   10.5870   -1.3541   21.4787 H   0  0  0  0  0  0  0  0  0  0  0  0
  1  2  1  0
  2  3  1  0
  3  4  1  0
  4  5  1  0
  5  6  2  0
  6  7  1  0
  7  8  2  0
  8  9  1  0
  9 10  2  0
 10 11  1  0
 11 12  2  0
 12 13  1  0
 13 14  2  0
 13 15  1  0
 12 16  1  0
 11 17  1  0
 10 18  1  0
  8 19  1  0
  6 20  1  0
  4 21  1  0
 21 22  2  0
 21 23  1  0
 23 24  1  1
 24 25  1  0
 25 26  1  0
 26 27  1  0
 27 28  1  0
 28 29  1  0
 29 30  1  0
 30 31  1  0
 31 32  1  0
 32 33  1  0
 33 34  1  0
 33 35  1  0
 32 36  1  0
 32 37  1  0
 30 38  1  0
 30 39  1  0
 29 40  1  0
 29 41  1  0
 28 42  1  0
 27 43  1  0
 27 44  1  0
 26 45  1  0
 26 46  1  0
 25 47  1  0
 47 48  2  0
 47 49  1  0
 49 50  2  0
 50 51  1  0
 51 52  2  0
 52 53  1  0
 52 54  1  0
 54 55  2  0
 54 56  1  0
 51 57  1  0
 50 58  1  0
 24 59  1  0
 24 60  1  0
  3 61  1  0
  3 62  1  0
  2 63  1  1
  1 64  1  0
  1 65  1  0
  1 66  1  0
 23  2  1  0
 33 28  1  0
 55 49  1  0
 14  5  1  0
 55 23  1  0
 14  9  1  0
M  CHG  1  28   1
M  END
>  <cnnaffinities>  (49) 
[6.41205]

>  <score>  (49) 
6.41205

>  <index>  (49) 
64

>  <Smiles>  (49) 
C([C@]1(C(N(c2c(nc(c3c(c(c(c(c23)[H])[H])[H])[H])[H])[H])C(=O)[C@]21C(N(C(C([N+]1(C(C(OC(C1([H])[H])([H])[H])([H])[H])([H])[H])[H])([H])[H])([H])[H])C(=O)c1c(c(c(Cl)c(c21)[H])[H])[H])([H])[H])([H])[H])[H])([H])([H])[H]

>  <h>  (49) 
<NA>

>  <Training>  (49) 
True

>  <Success>  (49) 
True

>  <enamine_searched>  (49) 
False

>  <enamine_id>  (49) 
nan

$$$$

     RDKit          3D

 54 59  0  0  0  0  0  0  0  0999 V2000
    7.7103    3.3872   22.5545 C   0  0  0  0  0  0  0  0  0  0  0  0
    8.0409    2.4203   23.5884 N   0  0  0  0  0  0  0  0  0  0  0  0
    7.0660    2.0696   24.4717 C   0  0  0  0  0  0  0  0  0  0  0  0
    5.9047    2.4264   24.3425 O   0  0  0  0  0  0  0  0  0  0  0  0
    7.5031    1.1590   25.6170 C   0  0  0  0  0  0  0  0  0  0  0  0
    7.6178   -0.2179   25.1828 N   0  0  0  0  0  0  0  0  0  0  0  0
    8.3621   -1.1168   25.9309 C   0  0  0  0  0  0  0  0  0  0  0  0
    8.9405   -0.8340   26.9636 O   0  0  0  0  0  0  0  0  0  0  0  0
    8.1726   -2.4436   25.2670 C   0  0  0  0  0  0  0  0  0  0  0  0
    8.6526   -3.6514   25.6935 C   0  0  0  0  0  0  0  0  0  0  0  0
    8.0513   -4.8371   25.2146 C   0  0  0  0  0  0  0  0  0  0  0  0
    6.9629   -4.7686   24.3926 C   0  0  0  0  0  0  0  0  0  0  0  0
    6.2406   -6.2374   23.8395 Cl  0  0  0  0  0  0  0  0  0  0  0  0
    6.2514   -3.5049   24.0792 C   0  0  0  0  0  0  0  0  0  0  0  0
    7.1867   -2.3135   24.1915 C   0  0  1  0  0  0  0  0  0  0  0  0
    6.7551   -0.8746   24.2433 C   0  0  2  0  0  0  0  0  0  0  0  0
    7.3349   -1.4192   22.9514 C   0  0  2  0  0  0  0  0  0  0  0  0
    6.3201   -1.3476   21.8125 C   0  0  0  0  0  0  0  0  0  0  0  0
    5.2021   -1.8253   21.7468 O   0  0  0  0  0  0  0  0  0  0  0  0
    6.8699   -0.5593   20.8196 N   0  0  0  0  0  0  0  0  0  0  0  0
    6.1103    0.0215   19.7729 C   0  0  0  0  0  0  0  0  0  0  0  0
    6.4597   -0.2349   18.4714 C   0  0  0  0  0  0  0  0  0  0  0  0
    5.7992    0.2324   17.3845 N   0  0  0  0  0  0  0  0  0  0  0  0
    4.7633    1.0060   17.6015 C   0  0  0  0  0  0  0  0  0  0  0  0
    4.3212    1.3938   18.8967 C   0  0  0  0  0  0  0  0  0  0  0  0
    3.2102    2.2614   19.0626 C   0  0  0  0  0  0  0  0  0  0  0  0
    2.8124    2.6536   20.3078 C   0  0  0  0  0  0  0  0  0  0  0  0
    3.5250    2.2161   21.4476 C   0  0  0  0  0  0  0  0  0  0  0  0
    4.6137    1.3876   21.3178 C   0  0  0  0  0  0  0  0  0  0  0  0
    5.0198    0.9173   20.0315 C   0  0  0  0  0  0  0  0  0  0  0  0
    5.1695    1.1096   22.2127 H   0  0  0  0  0  0  0  0  0  0  0  0
    3.2105    2.5459   22.4332 H   0  0  0  0  0  0  0  0  0  0  0  0
    1.9613    3.3173   20.4289 H   0  0  0  0  0  0  0  0  0  0  0  0
    2.6970    2.6161   18.1724 H   0  0  0  0  0  0  0  0  0  0  0  0
    4.2220    1.3825   16.7309 H   0  0  0  0  0  0  0  0  0  0  0  0
    7.3122   -0.8804   18.2682 H   0  0  0  0  0  0  0  0  0  0  0  0
    8.2599   -0.2165   21.0491 C   0  0  0  0  0  0  0  0  0  0  0  0
    8.5887   -0.9547   22.3251 C   0  0  0  0  0  0  0  0  0  0  0  0
    9.8399   -1.1206   22.7378 C   0  0  0  0  0  0  0  0  0  0  0  0
   10.8559   -0.5126   22.0964 F   0  0  0  0  0  0  0  0  0  0  0  0
   10.1557   -1.7478   23.5604 H   0  0  0  0  0  0  0  0  0  0  0  0
    8.8978   -0.5327   20.2224 H   0  0  0  0  0  0  0  0  0  0  0  0
    8.3644    0.8671   21.1858 H   0  0  0  0  0  0  0  0  0  0  0  0
    5.7153   -0.5557   24.2024 H   0  0  0  0  0  0  0  0  0  0  0  0
    5.7731   -3.5301   23.0938 H   0  0  0  0  0  0  0  0  0  0  0  0
    5.4335   -3.3839   24.8153 H   0  0  0  0  0  0  0  0  0  0  0  0
    8.4108   -5.8089   25.5438 H   0  0  0  0  0  0  0  0  0  0  0  0
    9.4726   -3.7061   26.3976 H   0  0  0  0  0  0  0  0  0  0  0  0
    8.4714    1.4599   26.0247 H   0  0  0  0  0  0  0  0  0  0  0  0
    6.7785    1.2593   26.4282 H   0  0  0  0  0  0  0  0  0  0  0  0
    9.0140    2.2167   23.7982 H   0  0  0  0  0  0  0  0  0  0  0  0
    8.5887    3.6062   21.9432 H   0  0  0  0  0  0  0  0  0  0  0  0
    7.3497    4.3214   22.9992 H   0  0  0  0  0  0  0  0  0  0  0  0
    6.9111    2.9872   21.9167 H   0  0  0  0  0  0  0  0  0  0  0  0
  1  2  1  0
  2  3  1  0
  3  4  2  0
  3  5  1  0
  5  6  1  0
  6  7  1  0
  7  8  2  0
  7  9  1  0
  9 10  2  0
 10 11  1  0
 11 12  2  0
 12 13  1  0
 12 14  1  0
 15 14  1  6
 15 16  1  0
 16 17  1  0
 17 18  1  6
 18 19  2  0
 18 20  1  0
 20 21  1  0
 21 22  2  0
 22 23  1  0
 23 24  2  0
 24 25  1  0
 25 26  2  0
 26 27  1  0
 27 28  2  0
 28 29  1  0
 29 30  2  0
 29 31  1  0
 28 32  1  0
 27 33  1  0
 26 34  1  0
 24 35  1  0
 22 36  1  0
 20 37  1  0
 37 38  1  0
 38 39  2  0
 39 40  1  0
 39 41  1  0
 37 42  1  0
 37 43  1  0
 16 44  1  6
 14 45  1  0
 14 46  1  0
 11 47  1  0
 10 48  1  0
  5 49  1  0
  5 50  1  0
  2 51  1  0
  1 52  1  0
  1 53  1  0
  1 54  1  0
 16  6  1  0
 38 17  1  0
 15  9  1  0
 30 21  1  0
 17 15  1  0
 30 25  1  0
M  END
>  <cnnaffinities>  (50) 
[6.61144]

>  <score>  (50) 
6.61144

>  <index>  (50) 
65

>  <Smiles>  (50) 
C(N(C(=O)C(N1C(=O)C2=C(C(=C(Cl)C([C@]32[C@@]1([C@@]13C(=O)N(c2c(nc(c3c(c(c(c(c23)[H])[H])[H])[H])[H])[H])C(/C/1=C(\F)/[H])([H])[H])[H])([H])[H])[H])[H])([H])[H])[H])([H])([H])[H]

>  <h>  (50) 
<NA>

>  <Training>  (50) 
True

>  <Success>  (50) 
True

>  <enamine_searched>  (50) 
False

>  <enamine_id>  (50) 
nan

$$$$

     RDKit          3D

 47 50  0  0  0  0  0  0  0  0999 V2000
    5.4699   -2.4306   20.9126 O   0  0  0  0  0  0  0  0  0  0  0  0
    6.1379   -1.6668   21.5838 C   0  0  0  0  0  0  0  0  0  0  0  0
    6.9053   -0.5047   20.9140 C   0  0  0  0  0  0  0  0  0  0  0  0
    6.1172    0.0890   19.7654 C   0  0  0  0  0  0  0  0  0  0  0  0
    6.4230   -0.2141   18.4635 C   0  0  0  0  0  0  0  0  0  0  0  0
    5.7605    0.2399   17.3642 N   0  0  0  0  0  0  0  0  0  0  0  0
    4.7361    1.0299   17.5754 C   0  0  0  0  0  0  0  0  0  0  0  0
    4.2869    1.4209   18.8669 C   0  0  0  0  0  0  0  0  0  0  0  0
    3.1635    2.2702   19.0453 C   0  0  0  0  0  0  0  0  0  0  0  0
    2.7489    2.6228   20.3014 C   0  0  0  0  0  0  0  0  0  0  0  0
    3.4447    2.1415   21.4338 C   0  0  0  0  0  0  0  0  0  0  0  0
    4.5359    1.3201   21.2846 C   0  0  0  0  0  0  0  0  0  0  0  0
    4.9916    0.9374   19.9963 C   0  0  0  0  0  0  0  0  0  0  0  0
    5.0618    0.9622   22.1644 H   0  0  0  0  0  0  0  0  0  0  0  0
    3.1071    2.4225   22.4281 H   0  0  0  0  0  0  0  0  0  0  0  0
    1.8885    3.2740   20.4387 H   0  0  0  0  0  0  0  0  0  0  0  0
    2.6416    2.6417   18.1655 H   0  0  0  0  0  0  0  0  0  0  0  0
    4.1993    1.3987   16.6989 H   0  0  0  0  0  0  0  0  0  0  0  0
    7.2660   -0.8687   18.2439 H   0  0  0  0  0  0  0  0  0  0  0  0
    7.8528   -0.9033   20.5241 H   0  0  0  0  0  0  0  0  0  0  0  0
    7.1652    0.2747   21.6458 H   0  0  0  0  0  0  0  0  0  0  0  0
    6.1917   -1.7440   22.9679 N   0  0  0  0  0  0  0  0  0  0  0  0
    7.4458   -1.6668   23.7166 C   0  0  0  0  0  0  0  0  0  0  0  0
    7.2226   -1.0295   25.0780 C   0  0  0  0  0  0  0  0  0  0  0  0
    6.1368   -1.7602   25.8674 C   0  0  1  0  0  0  0  0  0  0  0  0
    5.8685   -1.1106   27.2363 C   0  0  0  0  0  0  0  0  0  0  0  0
    5.1176    0.2180   27.1449 C   0  0  0  0  0  0  0  0  0  0  0  0
    3.8572    0.0733   26.3197 C   0  0  0  0  0  0  0  0  0  0  0  0
    3.2388    1.2900   26.1838 F   0  0  0  0  0  0  0  0  0  0  0  0
    2.9666   -0.7128   27.0065 F   0  0  0  0  0  0  0  0  0  0  0  0
    4.0971   -0.5391   24.9544 C   0  0  0  0  0  0  0  0  0  0  0  0
    4.8410   -1.8781   25.0478 C   0  0  1  0  0  0  0  0  0  0  0  0
    5.1292   -2.4702   23.6631 C   0  0  0  0  0  0  0  0  0  0  0  0
    5.3645   -3.5416   23.7620 H   0  0  0  0  0  0  0  0  0  0  0  0
    4.2331   -2.4190   23.0425 H   0  0  0  0  0  0  0  0  0  0  0  0
    4.1700   -2.5630   25.5776 H   0  0  0  0  0  0  0  0  0  0  0  0
    4.6731    0.1795   24.3675 H   0  0  0  0  0  0  0  0  0  0  0  0
    3.1293   -0.6579   24.4567 H   0  0  0  0  0  0  0  0  0  0  0  0
    4.8531    0.5975   28.1373 H   0  0  0  0  0  0  0  0  0  0  0  0
    5.7348    0.9792   26.6622 H   0  0  0  0  0  0  0  0  0  0  0  0
    6.8164   -0.9551   27.7626 H   0  0  0  0  0  0  0  0  0  0  0  0
    5.2841   -1.7993   27.8559 H   0  0  0  0  0  0  0  0  0  0  0  0
    6.5062   -2.7793   26.0505 H   0  0  0  0  0  0  0  0  0  0  0  0
    6.9598    0.0218   24.9420 H   0  0  0  0  0  0  0  0  0  0  0  0
    8.1599   -1.0335   25.6453 H   0  0  0  0  0  0  0  0  0  0  0  0
    7.8837   -2.6686   23.8605 H   0  0  0  0  0  0  0  0  0  0  0  0
    8.1744   -1.0986   23.1370 H   0  0  0  0  0  0  0  0  0  0  0  0
  1  2  2  0
  2  3  1  0
  3  4  1  0
  4  5  2  0
  5  6  1  0
  6  7  2  0
  7  8  1  0
  8  9  2  0
  9 10  1  0
 10 11  2  0
 11 12  1  0
 12 13  2  0
 12 14  1  0
 11 15  1  0
 10 16  1  0
  9 17  1  0
  7 18  1  0
  5 19  1  0
  3 20  1  0
  3 21  1  0
  2 22  1  0
 22 23  1  0
 23 24  1  0
 24 25  1  0
 25 26  1  0
 26 27  1  0
 27 28  1  0
 28 29  1  0
 28 30  1  0
 28 31  1  0
 31 32  1  0
 32 33  1  0
 33 34  1  0
 33 35  1  0
 32 36  1  1
 31 37  1  0
 31 38  1  0
 27 39  1  0
 27 40  1  0
 26 41  1  0
 26 42  1  0
 25 43  1  1
 24 44  1  0
 24 45  1  0
 23 46  1  0
 23 47  1  0
 13  4  1  0
 33 22  1  0
 13  8  1  0
 32 25  1  0
M  END
>  <cnnaffinities>  (51) 
[5.5521, 5.55192]

>  <score>  (51) 
5.5521

>  <index>  (51) 
66

>  <Smiles>  (51) 
O=C(C(c1c(nc(c2c(c(c(c(c12)[H])[H])[H])[H])[H])[H])([H])[H])N1C(C([C@]2(C(C(C(F)(F)C([C@]2(C1([H])[H])[H])([H])[H])([H])[H])([H])[H])[H])([H])[H])([H])[H]

>  <h>  (51) 
<NA>

>  <Training>  (51) 
True

>  <Success>  (51) 
True

>  <enamine_searched>  (51) 
False

>  <enamine_id>  (51) 
nan

$$$$

     RDKit          3D

 69 74  0  0  0  0  0  0  0  0999 V2000
    6.4013   -8.1898   22.6981 C   0  0  0  0  0  0  0  0  0  0  0  0
    7.2721   -7.0527   22.4722 N   0  0  0  0  0  4  0  0  0  0  0  0
    6.9820   -6.3338   21.1966 C   0  0  0  0  0  0  0  0  0  0  0  0
    6.0461   -5.1618   21.5005 C   0  0  0  0  0  0  0  0  0  0  0  0
    6.5911   -4.3362   22.5632 N   0  0  0  0  0  0  0  0  0  0  0  0
    7.6706   -3.4399   22.2683 C   0  0  0  0  0  0  0  0  0  0  0  0
    7.2758   -1.9970   22.6197 C   0  0  2  0  0  0  0  0  0  0  0  0
    6.2015   -1.5293   21.6054 C   0  0  0  0  0  0  0  0  0  0  0  0
    5.0936   -1.9954   21.4404 O   0  0  0  0  0  0  0  0  0  0  0  0
    6.7542   -0.5359   20.8151 N   0  0  0  0  0  0  0  0  0  0  0  0
    6.0645    0.0447   19.7323 C   0  0  0  0  0  0  0  0  0  0  0  0
    6.4535   -0.2011   18.4405 C   0  0  0  0  0  0  0  0  0  0  0  0
    5.8102    0.2693   17.3439 N   0  0  0  0  0  0  0  0  0  0  0  0
    4.7659    1.0370   17.5518 C   0  0  0  0  0  0  0  0  0  0  0  0
    4.2928    1.4178   18.8405 C   0  0  0  0  0  0  0  0  0  0  0  0
    3.1837    2.2888   19.0065 C   0  0  0  0  0  0  0  0  0  0  0  0
    2.7864    2.6717   20.2586 C   0  0  0  0  0  0  0  0  0  0  0  0
    3.4823    2.2151   21.3994 C   0  0  0  0  0  0  0  0  0  0  0  0
    4.5533    1.3676   21.2654 C   0  0  0  0  0  0  0  0  0  0  0  0
    4.9703    0.9303   19.9764 C   0  0  0  0  0  0  0  0  0  0  0  0
    5.0960    1.0257   22.1404 H   0  0  0  0  0  0  0  0  0  0  0  0
    3.1606    2.5372   22.3861 H   0  0  0  0  0  0  0  0  0  0  0  0
    1.9356    3.3362   20.3821 H   0  0  0  0  0  0  0  0  0  0  0  0
    2.6688    2.6440   18.1180 H   0  0  0  0  0  0  0  0  0  0  0  0
    4.2407    1.4004   16.6700 H   0  0  0  0  0  0  0  0  0  0  0  0
    7.3151   -0.8393   18.2464 H   0  0  0  0  0  0  0  0  0  0  0  0
    8.1935   -0.4395   20.9347 C   0  0  0  0  0  0  0  0  0  0  0  0
    8.4566   -1.0437   22.3146 C   0  0  2  0  0  0  0  0  0  0  0  0
    9.8118   -1.7118   22.3617 C   0  0  0  0  0  0  0  0  0  0  0  0
   10.7731   -0.7667   21.9704 O   0  0  0  0  0  0  0  0  0  0  0  0
   12.0564   -1.2039   22.3132 C   0  0  0  0  0  0  0  0  0  0  0  0
   12.3804   -0.7462   23.7037 C   0  0  0  0  0  0  0  0  0  0  0  0
   11.5676   -1.3621   24.6360 F   0  0  0  0  0  0  0  0  0  0  0  0
   12.7876    0.6440   24.0158 C   0  0  0  0  0  0  0  0  0  0  0  0
   13.7747   -0.5033   24.1033 C   0  0  0  0  0  0  0  0  0  0  0  0
   14.4913   -0.6350   23.3037 H   0  0  0  0  0  0  0  0  0  0  0  0
   14.0822   -0.8490   25.0835 H   0  0  0  0  0  0  0  0  0  0  0  0
   12.4314    1.0489   24.9559 H   0  0  0  0  0  0  0  0  0  0  0  0
   12.8653    1.3778   23.2224 H   0  0  0  0  0  0  0  0  0  0  0  0
   12.7387   -0.8215   21.5523 H   0  0  0  0  0  0  0  0  0  0  0  0
   12.1348   -2.2996   22.2668 H   0  0  0  0  0  0  0  0  0  0  0  0
    9.9979   -2.0874   23.3727 H   0  0  0  0  0  0  0  0  0  0  0  0
    9.8828   -2.5649   21.6660 H   0  0  0  0  0  0  0  0  0  0  0  0
    8.4481   -0.2296   23.0413 H   0  0  0  0  0  0  0  0  0  0  0  0
    8.5121    0.6043   20.8665 H   0  0  0  0  0  0  0  0  0  0  0  0
    8.7141   -1.0086   20.1495 H   0  0  0  0  0  0  0  0  0  0  0  0
    6.7920   -2.0285   24.0610 C   0  0  0  0  0  0  0  0  0  0  0  0
    6.8173   -0.8717   24.8454 C   0  0  0  0  0  0  0  0  0  0  0  0
    6.3694   -0.9106   26.1508 C   0  0  0  0  0  0  0  0  0  0  0  0
    6.3944    0.5510   27.0904 Cl  0  0  0  0  0  0  0  0  0  0  0  0
    5.8950   -2.0788   26.7415 C   0  0  0  0  0  0  0  0  0  0  0  0
    5.8734   -3.2311   25.9817 C   0  0  0  0  0  0  0  0  0  0  0  0
    6.3043   -3.2116   24.6548 C   0  0  0  0  0  0  0  0  0  0  0  0
    6.2200   -4.4745   23.8621 C   0  0  0  0  0  0  0  0  0  0  0  0
    5.8579   -5.5603   24.3157 O   0  0  0  0  0  0  0  0  0  0  0  0
    5.5188   -4.1692   26.3937 H   0  0  0  0  0  0  0  0  0  0  0  0
    5.5516   -2.0687   27.7702 H   0  0  0  0  0  0  0  0  0  0  0  0
    7.1798    0.0709   24.4533 H   0  0  0  0  0  0  0  0  0  0  0  0
    7.9147   -3.5096   21.2124 H   0  0  0  0  0  0  0  0  0  0  0  0
    8.5487   -3.7431   22.8589 H   0  0  0  0  0  0  0  0  0  0  0  0
    5.0674   -5.5100   21.8472 H   0  0  0  0  0  0  0  0  0  0  0  0
    5.9005   -4.5252   20.6213 H   0  0  0  0  0  0  0  0  0  0  0  0
    7.9226   -5.9810   20.7624 H   0  0  0  0  0  0  0  0  0  0  0  0
    6.5224   -7.0211   20.4770 H   0  0  0  0  0  0  0  0  0  0  0  0
    8.2477   -7.4014   22.5108 H   0  0  0  0  0  0  0  0  0  0  0  0
    7.1269   -6.3950   23.2537 H   0  0  0  0  0  0  0  0  0  0  0  0
    6.2905   -8.7432   21.7579 H   0  0  0  0  0  0  0  0  0  0  0  0
    5.4140   -7.8507   23.0253 H   0  0  0  0  0  0  0  0  0  0  0  0
    6.8137   -8.8626   23.4505 H   0  0  0  0  0  0  0  0  0  0  0  0
  1  2  1  0
  2  3  1  0
  3  4  1  0
  4  5  1  0
  5  6  1  0
  7  6  1  6
  7  8  1  0
  8  9  2  0
  8 10  1  0
 10 11  1  0
 11 12  2  0
 12 13  1  0
 13 14  2  0
 14 15  1  0
 15 16  2  0
 16 17  1  0
 17 18  2  0
 18 19  1  0
 19 20  2  0
 19 21  1  0
 18 22  1  0
 17 23  1  0
 16 24  1  0
 14 25  1  0
 12 26  1  0
 10 27  1  0
 27 28  1  0
 28 29  1  0
 29 30  1  0
 30 31  1  0
 31 32  1  0
 32 33  1  0
 32 34  1  0
 34 35  1  0
 35 36  1  0
 35 37  1  0
 34 38  1  0
 34 39  1  0
 31 40  1  0
 31 41  1  0
 29 42  1  0
 29 43  1  0
 28 44  1  1
 27 45  1  0
 27 46  1  0
  7 47  1  0
 47 48  2  0
 48 49  1  0
 49 50  1  0
 49 51  2  0
 51 52  1  0
 52 53  2  0
 53 54  1  0
 54 55  2  0
 52 56  1  0
 51 57  1  0
 48 58  1  0
  6 59  1  0
  6 60  1  0
  4 61  1  0
  4 62  1  0
  3 63  1  0
  3 64  1  0
  2 65  1  0
  2 66  1  0
  1 67  1  0
  1 68  1  0
  1 69  1  0
 54  5  1  0
 28  7  1  0
 35 32  1  0
 53 47  1  0
 20 11  1  0
 20 15  1  0
M  CHG  1   2   1
M  END
>  <cnnaffinities>  (52) 
[6.70427]

>  <score>  (52) 
6.70427

>  <index>  (52) 
67

>  <Smiles>  (52) 
C([N+](C(C(N1C([C@@]2(C(=O)N(c3c(nc(c4c(c(c(c(c34)[H])[H])[H])[H])[H])[H])C([C@@]2(C(OC(C2(F)C(C2([H])[H])([H])[H])([H])[H])([H])[H])[H])([H])[H])c2c(c(Cl)c(c(c2C1=O)[H])[H])[H])([H])[H])([H])[H])([H])[H])([H])[H])([H])([H])[H]

>  <h>  (52) 
<NA>

>  <Training>  (52) 
True

>  <Success>  (52) 
True

>  <enamine_searched>  (52) 
False

>  <enamine_id>  (52) 
nan

$$$$

     RDKit          3D

 64 68  0  0  0  0  0  0  0  0999 V2000
    2.8979    2.7731   28.1027 C   0  0  0  0  0  0  0  0  0  0  0  0
    3.4635    2.9024   26.6840 C   0  0  0  0  0  0  0  0  0  0  0  0
    4.2034    1.6566   26.2312 C   0  0  0  0  0  0  0  0  0  0  0  0
    3.6214    0.7225   25.7086 O   0  0  0  0  0  0  0  0  0  0  0  0
    5.5708    1.6344   26.4919 N   0  0  0  0  0  0  0  0  0  0  0  0
    6.2431    2.3703   27.5472 C   0  0  0  0  0  0  0  0  0  0  0  0
    7.5729    1.6658   27.8067 C   0  0  0  0  0  0  0  0  0  0  0  0
    8.5474    0.9196   25.2363 C   0  0  0  0  0  0  0  0  0  0  0  0
    8.3206    0.6228   25.3023 C   0  0  0  0  0  0  0  0  0  0  0  0
    8.7268   -0.7972   25.1312 C   0  0  0  0  0  0  0  0  0  0  0  0
    7.7946   -1.3475   24.1523 C   0  0  0  0  0  0  0  0  0  0  0  0
    6.6310   -0.7264   23.8225 C   0  0  0  0  0  0  0  0  0  0  0  0
    5.7175   -1.3518   22.8936 N   0  0  0  0  0  0  0  0  0  0  0  0
    4.7617   -2.3192   23.4777 C   0  0  0  0  0  0  0  0  0  0  0  0
    5.4756   -3.5888   23.9101 C   0  0  0  0  0  0  0  0  0  0  0  0
    6.0469   -3.6821   25.1760 C   0  0  0  0  0  0  0  0  0  0  0  0
    6.9712   -4.6735   25.4644 C   0  0  0  0  0  0  0  0  0  0  0  0
    7.2481   -5.6683   24.5316 C   0  0  0  0  0  0  0  0  0  0  0  0
    6.5673   -5.6514   23.3210 C   0  0  0  0  0  0  0  0  0  0  0  0
    6.8119   -6.9467   22.1862 Cl  0  0  0  0  0  0  0  0  0  0  0  0
    5.7139   -4.6086   22.9881 C   0  0  0  0  0  0  0  0  0  0  0  0
    5.2730   -4.5732   21.9987 H   0  0  0  0  0  0  0  0  0  0  0  0
    7.9795   -6.4439   24.7385 H   0  0  0  0  0  0  0  0  0  0  0  0
    7.4894   -4.6628   26.4192 H   0  0  0  0  0  0  0  0  0  0  0  0
    5.8432   -2.9124   25.9117 H   0  0  0  0  0  0  0  0  0  0  0  0
    4.0274   -2.5375   22.6970 H   0  0  0  0  0  0  0  0  0  0  0  0
    4.2306   -1.8458   24.3146 H   0  0  0  0  0  0  0  0  0  0  0  0
    5.8746   -1.4791   21.5141 C   0  0  0  0  0  0  0  0  0  0  0  0
    5.2676   -2.3311   20.8904 O   0  0  0  0  0  0  0  0  0  0  0  0
    6.7612   -0.5059   20.7254 C   0  0  0  0  0  0  0  0  0  0  0  0
    6.0011    0.1119   19.5731 C   0  0  0  0  0  0  0  0  0  0  0  0
    6.3475   -0.1390   18.2718 C   0  0  0  0  0  0  0  0  0  0  0  0
    5.7066    0.3465   17.1771 N   0  0  0  0  0  0  0  0  0  0  0  0
    4.6636    1.1190   17.3851 C   0  0  0  0  0  0  0  0  0  0  0  0
    4.1947    1.4619   18.6827 C   0  0  0  0  0  0  0  0  0  0  0  0
    3.0672    2.2855   18.9029 C   0  0  0  0  0  0  0  0  0  0  0  0
    2.3935    2.7198   17.8247 F   0  0  0  0  0  0  0  0  0  0  0  0
    2.6430    2.6484   20.1466 C   0  0  0  0  0  0  0  0  0  0  0  0
    3.3490    2.1634   21.2636 C   0  0  0  0  0  0  0  0  0  0  0  0
    4.4261    1.3299   21.1043 C   0  0  0  0  0  0  0  0  0  0  0  0
    4.8810    0.9605   19.8105 C   0  0  0  0  0  0  0  0  0  0  0  0
    4.9203    0.9365   21.9813 H   0  0  0  0  0  0  0  0  0  0  0  0
    3.0257    2.4455   22.2610 H   0  0  0  0  0  0  0  0  0  0  0  0
    1.7793    3.2930   20.2592 H   0  0  0  0  0  0  0  0  0  0  0  0
    4.1426    1.5132   16.5139 H   0  0  0  0  0  0  0  0  0  0  0  0
    7.2037   -0.7765   18.0519 H   0  0  0  0  0  0  0  0  0  0  0  0
    7.1813    0.2623   21.3755 H   0  0  0  0  0  0  0  0  0  0  0  0
    7.5943   -1.0974   20.3185 H   0  0  0  0  0  0  0  0  0  0  0  0
    6.0616    0.4015   24.4996 C   0  0  0  0  0  0  0  0  0  0  0  0
    6.4843    1.0034   25.6413 C   0  0  0  0  0  0  0  0  0  0  0  0
    5.0724    0.6788   24.1276 H   0  0  0  0  0  0  0  0  0  0  0  0
    7.9860   -2.3320   23.7284 H   0  0  0  0  0  0  0  0  0  0  0  0
    9.7794   -1.0400   24.7829 H   0  0  0  0  0  0  0  0  0  0  0  0
    8.2485    1.2899   26.2976 H   0  0  0  0  0  0  0  0  0  0  0  0
    8.6086   -1.4124   26.0762 H   0  0  0  0  0  0  0  0  0  0  0  0
    7.4333    0.8127   28.4954 H   0  0  0  0  0  0  0  0  0  0  0  0
    8.2945    2.3632   28.2564 H   0  0  0  0  0  0  0  0  0  0  0  0
    6.3685    3.4325   27.2734 H   0  0  0  0  0  0  0  0  0  0  0  0
    5.6434    2.3626   28.4653 H   0  0  0  0  0  0  0  0  0  0  0  0
    2.6397    3.0637   25.9801 H   0  0  0  0  0  0  0  0  0  0  0  0
    4.1342    3.7629   26.6054 H   0  0  0  0  0  0  0  0  0  0  0  0
    3.6810    2.6872   28.8626 H   0  0  0  0  0  0  0  0  0  0  0  0
    2.2567    1.8890   28.1702 H   0  0  0  0  0  0  0  0  0  0  0  0
    2.2950    3.6533   28.3503 H   0  0  0  0  0  0  0  0  0  0  0  0
  1  2  1  0
  2  3  1  0
  3  4  2  0
  3  5  1  0
  5  6  1  0
  6  7  1  0
  7  8  1  0
  8  9  1  0
  9 10  2  0
 10 11  1  0
 11 12  2  0
 12 13  1  0
 13 14  1  0
 14 15  1  0
 15 16  2  0
 16 17  1  0
 17 18  2  0
 18 19  1  0
 19 20  1  0
 19 21  2  0
 21 22  1  0
 18 23  1  0
 17 24  1  0
 16 25  1  0
 14 26  1  0
 14 27  1  0
 13 28  1  0
 28 29  2  0
 28 30  1  0
 30 31  1  0
 31 32  2  0
 32 33  1  0
 33 34  2  0
 34 35  1  0
 35 36  2  0
 36 37  1  0
 36 38  1  0
 38 39  2  0
 39 40  1  0
 40 41  2  0
 40 42  1  0
 39 43  1  0
 38 44  1  0
 34 45  1  0
 32 46  1  0
 30 47  1  0
 30 48  1  0
 12 49  1  0
 49 50  2  0
 49 51  1  0
 11 52  1  0
 10 53  1  0
  8 54  1  0
  8 55  1  0
  7 56  1  0
  7 57  1  0
  6 58  1  0
  6 59  1  0
  2 60  1  0
  2 61  1  0
  1 62  1  0
  1 63  1  0
  1 64  1  0
 50  5  1  0
 50  9  1  0
 21 15  1  0
 41 31  1  0
 41 35  1  0
M  END
>  <cnnaffinities>  (53) 
[6.81086]

>  <score>  (53) 
6.81086

>  <index>  (53) 
69

>  <Smiles>  (53) 
C(C(C(=O)N1C(C(C(c2c(c(c(N(C(c3c(c(c(c(Cl)c3[H])[H])[H])[H])([H])[H])C(=O)C(c3c(nc(c4c(F)c(c(c(c34)[H])[H])[H])[H])[H])([H])[H])c(c12)[H])[H])[H])([H])[H])([H])[H])([H])[H])([H])[H])([H])([H])[H]

>  <h>  (53) 
<NA>

>  <Training>  (53) 
True

>  <Success>  (53) 
True

>  <enamine_searched>  (53) 
False

>  <enamine_id>  (53) 
nan

$$$$

     RDKit          3D

 60 64  0  0  0  0  0  0  0  0999 V2000
    7.6034   -8.4852   22.9900 C   0  0  0  0  0  0  0  0  0  0  0  0
    6.7051   -7.3799   22.7300 N   0  0  0  0  0  0  0  0  0  0  0  0
    6.9519   -6.5381   21.6874 C   0  0  0  0  0  0  0  0  0  0  0  0
    7.7994   -6.7417   20.8326 O   0  0  0  0  0  0  0  0  0  0  0  0
    6.1159   -5.2519   21.7205 C   0  0  0  0  0  0  0  0  0  0  0  0
    6.6588   -4.3140   22.6892 N   0  0  0  0  0  0  0  0  0  0  0  0
    7.7416   -3.4189   22.3174 C   0  0  0  0  0  0  0  0  0  0  0  0
    7.3984   -1.9495   22.6554 C   0  0  2  0  0  0  0  0  0  0  0  0
    6.3220   -1.4358   21.6780 C   0  0  0  0  0  0  0  0  0  0  0  0
    5.1796   -1.8308   21.5932 O   0  0  0  0  0  0  0  0  0  0  0  0
    6.8732   -0.4564   20.8754 N   0  0  0  0  0  0  0  0  0  0  0  0
    6.1417    0.0869   19.7947 C   0  0  0  0  0  0  0  0  0  0  0  0
    6.4823   -0.2173   18.5003 C   0  0  0  0  0  0  0  0  0  0  0  0
    5.8182    0.2229   17.4018 N   0  0  0  0  0  0  0  0  0  0  0  0
    4.7820    1.0021   17.6082 C   0  0  0  0  0  0  0  0  0  0  0  0
    4.3278    1.4038   18.8970 C   0  0  0  0  0  0  0  0  0  0  0  0
    3.2069    2.2620   19.0507 C   0  0  0  0  0  0  0  0  0  0  0  0
    2.7956    2.6501   20.2955 C   0  0  0  0  0  0  0  0  0  0  0  0
    3.4879    2.2054   21.4432 C   0  0  0  0  0  0  0  0  0  0  0  0
    4.5743    1.3751   21.3223 C   0  0  0  0  0  0  0  0  0  0  0  0
    5.0192    0.9424   20.0377 C   0  0  0  0  0  0  0  0  0  0  0  0
    5.0925    1.0415   22.2162 H   0  0  0  0  0  0  0  0  0  0  0  0
    3.1565    2.5309   22.4257 H   0  0  0  0  0  0  0  0  0  0  0  0
    1.9422    3.3125   20.4086 H   0  0  0  0  0  0  0  0  0  0  0  0
    2.6970    2.6090   18.1554 H   0  0  0  0  0  0  0  0  0  0  0  0
    4.2402    1.3662   16.7335 H   0  0  0  0  0  0  0  0  0  0  0  0
    7.3243   -0.8821   18.3115 H   0  0  0  0  0  0  0  0  0  0  0  0
    8.3175   -0.3945   20.9784 C   0  0  0  0  0  0  0  0  0  0  0  0
    8.5962   -0.9916   22.3614 C   0  0  2  0  0  0  0  0  0  0  0  0
    9.9255   -1.5533   22.4351 N   0  0  0  0  0  0  0  0  0  0  0  0
   10.5433   -1.7936   23.6364 C   0  0  0  0  0  0  0  0  0  0  0  0
   10.0323   -1.4801   24.6972 O   0  0  0  0  0  0  0  0  0  0  0  0
   11.8757   -2.5063   23.5431 C   0  0  0  0  0  0  0  0  0  0  0  0
   11.7246   -3.5164   23.1428 H   0  0  0  0  0  0  0  0  0  0  0  0
   12.2973   -2.5833   24.5472 H   0  0  0  0  0  0  0  0  0  0  0  0
   12.5758   -1.9700   22.8915 H   0  0  0  0  0  0  0  0  0  0  0  0
   10.3866   -1.8027   21.5712 H   0  0  0  0  0  0  0  0  0  0  0  0
    8.5555   -0.1966   23.1009 H   0  0  0  0  0  0  0  0  0  0  0  0
    8.6684    0.6378   20.8967 H   0  0  0  0  0  0  0  0  0  0  0  0
    8.8189   -1.0008   20.2096 H   0  0  0  0  0  0  0  0  0  0  0  0
    6.8784   -1.9173   24.0833 C   0  0  0  0  0  0  0  0  0  0  0  0
    6.8234   -0.7106   24.7871 C   0  0  0  0  0  0  0  0  0  0  0  0
    6.3619   -0.6888   26.0893 C   0  0  0  0  0  0  0  0  0  0  0  0
    6.3140    0.8268   26.9379 Cl  0  0  0  0  0  0  0  0  0  0  0  0
    5.9347   -1.8432   26.7436 C   0  0  0  0  0  0  0  0  0  0  0  0
    5.9394   -3.0291   26.0405 C   0  0  0  0  0  0  0  0  0  0  0  0
    6.3762   -3.0618   24.7201 C   0  0  0  0  0  0  0  0  0  0  0  0
    6.1887   -4.3343   23.9667 C   0  0  0  0  0  0  0  0  0  0  0  0
    5.5954   -5.3049   24.4343 O   0  0  0  0  0  0  0  0  0  0  0  0
    5.5938   -3.9560   26.4805 H   0  0  0  0  0  0  0  0  0  0  0  0
    5.5954   -1.7969   27.7717 H   0  0  0  0  0  0  0  0  0  0  0  0
    7.1492    0.2182   24.3333 H   0  0  0  0  0  0  0  0  0  0  0  0
    7.9159   -3.5226   21.2512 H   0  0  0  0  0  0  0  0  0  0  0  0
    8.6660   -3.6964   22.8339 H   0  0  0  0  0  0  0  0  0  0  0  0
    6.0916   -4.7645   20.7367 H   0  0  0  0  0  0  0  0  0  0  0  0
    5.0859   -5.4735   22.0168 H   0  0  0  0  0  0  0  0  0  0  0  0
    6.0668   -7.0946   23.4665 H   0  0  0  0  0  0  0  0  0  0  0  0
    8.6091   -8.1379   23.2714 H   0  0  0  0  0  0  0  0  0  0  0  0
    7.6827   -9.0905   22.0875 H   0  0  0  0  0  0  0  0  0  0  0  0
    7.1865   -9.0951   23.7965 H   0  0  0  0  0  0  0  0  0  0  0  0
  1  2  1  0
  2  3  1  0
  3  4  2  0
  3  5  1  0
  5  6  1  0
  6  7  1  0
  8  7  1  6
  8  9  1  0
  9 10  2  0
  9 11  1  0
 11 12  1  0
 12 13  2  0
 13 14  1  0
 14 15  2  0
 15 16  1  0
 16 17  2  0
 17 18  1  0
 18 19  2  0
 19 20  1  0
 20 21  2  0
 20 22  1  0
 19 23  1  0
 18 24  1  0
 17 25  1  0
 15 26  1  0
 13 27  1  0
 11 28  1  0
 28 29  1  0
 29 30  1  0
 30 31  1  0
 31 32  2  0
 31 33  1  0
 33 34  1  0
 33 35  1  0
 33 36  1  0
 30 37  1  0
 29 38  1  1
 28 39  1  0
 28 40  1  0
  8 41  1  0
 41 42  2  0
 42 43  1  0
 43 44  1  0
 43 45  2  0
 45 46  1  0
 46 47  2  0
 47 48  1  0
 48 49  2  0
 46 50  1  0
 45 51  1  0
 42 52  1  0
  7 53  1  0
  7 54  1  0
  5 55  1  0
  5 56  1  0
  2 57  1  0
  1 58  1  0
  1 59  1  0
  1 60  1  0
 48  6  1  0
 29  8  1  0
 47 41  1  0
 21 12  1  0
 21 16  1  0
M  END
>  <cnnaffinities>  (54) 
[6.86544]

>  <score>  (54) 
6.86544

>  <index>  (54) 
72

>  <Smiles>  (54) 
C(N(C(=O)C(N1C([C@@]2(C(=O)N(c3c(nc(c4c(c(c(c(c34)[H])[H])[H])[H])[H])[H])C([C@@]2(N(C(=O)C([H])([H])[H])[H])[H])([H])[H])c2c(c(Cl)c(c(c2C1=O)[H])[H])[H])([H])[H])([H])[H])[H])([H])([H])[H]

>  <h>  (54) 
<NA>

>  <Training>  (54) 
True

>  <Success>  (54) 
True

>  <enamine_searched>  (54) 
False

>  <enamine_id>  (54) 
nan

$$$$

     RDKit          3D

 56 61  0  0  0  0  0  0  0  0999 V2000
    7.7708   -3.3860   23.0073 C   0  0  0  0  0  0  0  0  0  0  0  0
    7.8436   -2.1932   22.0534 C   0  0  1  0  0  0  0  0  0  0  0  0
    6.6152   -1.9974   21.1481 C   0  0  0  0  0  0  0  0  0  0  0  0
    6.7331   -0.6080   20.7401 N   0  0  0  0  0  0  0  0  0  0  0  0
    6.0089   -0.0083   19.6830 C   0  0  0  0  0  0  0  0  0  0  0  0
    6.3511   -0.2889   18.3851 C   0  0  0  0  0  0  0  0  0  0  0  0
    5.7283    0.2271   17.2965 N   0  0  0  0  0  0  0  0  0  0  0  0
    4.7259    1.0477   17.5092 C   0  0  0  0  0  0  0  0  0  0  0  0
    4.2591    1.4177   18.8025 C   0  0  0  0  0  0  0  0  0  0  0  0
    3.1619    2.3054   18.9785 C   0  0  0  0  0  0  0  0  0  0  0  0
    2.7376    2.6488   20.2335 C   0  0  0  0  0  0  0  0  0  0  0  0
    3.3875    2.1135   21.3700 C   0  0  0  0  0  0  0  0  0  0  0  0
    4.4391    1.2449   21.2280 C   0  0  0  0  0  0  0  0  0  0  0  0
    4.9161    0.8831   19.9342 C   0  0  0  0  0  0  0  0  0  0  0  0
    4.9188    0.8304   22.1116 H   0  0  0  0  0  0  0  0  0  0  0  0
    3.0452    2.3917   22.3646 H   0  0  0  0  0  0  0  0  0  0  0  0
    1.9036    3.3324   20.3675 H   0  0  0  0  0  0  0  0  0  0  0  0
    2.6736    2.7115   18.0959 H   0  0  0  0  0  0  0  0  0  0  0  0
    4.2275    1.4655   16.6328 H   0  0  0  0  0  0  0  0  0  0  0  0
    7.1879   -0.9591   18.1874 H   0  0  0  0  0  0  0  0  0  0  0  0
    7.5146    0.1341   21.5922 C   0  0  0  0  0  0  0  0  0  0  0  0
    7.7391    1.3208   21.4515 O   0  0  0  0  0  0  0  0  0  0  0  0
    8.0129   -0.7994   22.7247 C   0  0  1  0  0  0  0  0  0  0  0  0
    7.0148   -0.6285   23.9155 C   0  0  0  0  0  0  0  0  0  0  0  0
    7.1796    0.6687   24.5612 N   0  0  0  0  0  0  0  0  0  0  0  0
    5.9942    1.4996   24.7787 C   0  0  0  0  0  0  0  0  0  0  0  0
    5.9670    2.3483   26.0836 C   0  0  0  0  0  0  0  0  0  0  0  0
    4.6897    1.6815   26.5643 N   0  0  0  0  0  4  0  0  0  0  0  0
    4.7028    0.8280   25.3014 C   0  0  0  0  0  0  0  0  0  0  0  0
    4.7804   -0.2261   25.5415 H   0  0  0  0  0  0  0  0  0  0  0  0
    3.8170    1.0179   24.7015 H   0  0  0  0  0  0  0  0  0  0  0  0
    3.8797    2.3171   26.6539 H   0  0  0  0  0  0  0  0  0  0  0  0
    4.8163    1.1433   27.4378 H   0  0  0  0  0  0  0  0  0  0  0  0
    5.8110    3.4083   25.9191 H   0  0  0  0  0  0  0  0  0  0  0  0
    6.7893    2.1916   26.7715 H   0  0  0  0  0  0  0  0  0  0  0  0
    5.8159    2.1238   23.8849 H   0  0  0  0  0  0  0  0  0  0  0  0
    8.3428    1.4345   24.4287 C   0  0  0  0  0  0  0  0  0  0  0  0
    8.1582    2.6332   24.6311 O   0  0  0  0  0  0  0  0  0  0  0  0
    9.5640    0.6660   23.9846 C   0  0  0  0  0  0  0  0  0  0  0  0
   11.2921    0.9481   23.8951 C   0  0  0  0  0  0  0  0  0  0  0  0
   11.4449    0.9512   24.1937 C   0  0  0  0  0  0  0  0  0  0  0  0
   11.7553   -0.3879   23.0042 C   0  0  0  0  0  0  0  0  0  0  0  0
   13.3471   -1.1370   23.2271 Cl  0  0  0  0  0  0  0  0  0  0  0  0
   10.6413   -1.0320   22.6294 C   0  0  0  0  0  0  0  0  0  0  0  0
    9.4119   -0.3972   23.1492 C   0  0  0  0  0  0  0  0  0  0  0  0
   10.6375   -1.9917   22.0928 H   0  0  0  0  0  0  0  0  0  0  0  0
   11.8367    2.1122   23.9227 H   0  0  0  0  0  0  0  0  0  0  0  0
   11.8449    0.5564   25.2132 H   0  0  0  0  0  0  0  0  0  0  0  0
    5.9978   -0.7034   23.5106 H   0  0  0  0  0  0  0  0  0  0  0  0
    7.0934   -1.4317   24.6637 H   0  0  0  0  0  0  0  0  0  0  0  0
    5.6841   -2.1702   21.7143 H   0  0  0  0  0  0  0  0  0  0  0  0
    6.6161   -2.6574   20.2792 H   0  0  0  0  0  0  0  0  0  0  0  0
    8.6842   -2.3618   21.3659 H   0  0  0  0  0  0  0  0  0  0  0  0
    6.8407   -3.3890   23.5904 H   0  0  0  0  0  0  0  0  0  0  0  0
    7.8229   -4.3303   22.4543 H   0  0  0  0  0  0  0  0  0  0  0  0
    8.6035   -3.3581   23.7226 H   0  0  0  0  0  0  0  0  0  0  0  0
  1  2  1  0
  2  3  1  0
  3  4  1  0
  4  5  1  0
  5  6  2  0
  6  7  1  0
  7  8  2  0
  8  9  1  0
  9 10  2  0
 10 11  1  0
 11 12  2  0
 12 13  1  0
 13 14  2  0
 13 15  1  0
 12 16  1  0
 11 17  1  0
 10 18  1  0
  8 19  1  0
  6 20  1  0
  4 21  1  0
 21 22  2  0
 21 23  1  0
 23 24  1  1
 24 25  1  0
 25 26  1  0
 26 27  1  0
 27 28  1  0
 28 29  1  0
 29 30  1  0
 29 31  1  0
 28 32  1  0
 28 33  1  0
 27 34  1  0
 27 35  1  0
 26 36  1  0
 25 37  1  0
 37 38  2  0
 37 39  1  0
 39 40  2  0
 40 41  1  0
 41 42  2  0
 42 43  1  0
 42 44  1  0
 44 45  2  0
 44 46  1  0
 41 47  1  0
 40 48  1  0
 24 49  1  0
 24 50  1  0
  3 51  1  0
  3 52  1  0
  2 53  1  6
  1 54  1  0
  1 55  1  0
  1 56  1  0
 23  2  1  0
 29 26  1  0
 45 39  1  0
 14  5  1  0
 45 23  1  0
 14  9  1  0
M  CHG  1  28   1
M  END
>  <cnnaffinities>  (55) 
[5.70885]

>  <score>  (55) 
5.70885

>  <index>  (55) 
73

>  <Smiles>  (55) 
C([C@]1(C(N(c2c(nc(c3c(c(c(c(c23)[H])[H])[H])[H])[H])[H])C(=O)[C@]21C(N(C1(C([N+](C1([H])[H])([H])[H])([H])[H])[H])C(=O)c1c(c(c(Cl)c(c21)[H])[H])[H])([H])[H])([H])[H])[H])([H])([H])[H]

>  <h>  (55) 
<NA>

>  <Training>  (55) 
True

>  <Success>  (55) 
True

>  <enamine_searched>  (55) 
False

>  <enamine_id>  (55) 
nan

$$$$

     RDKit          3D

 61 65  0  0  0  0  0  0  0  0999 V2000
    9.7759   -1.8822   21.8597 C   0  0  0  0  0  0  0  0  0  0  0  0
    8.6666   -0.9234   22.3336 C   0  0  1  0  0  0  0  0  0  0  0  0
    8.2059   -0.0241   21.1635 C   0  0  0  0  0  0  0  0  0  0  0  0
    6.8723   -0.4832   20.8369 N   0  0  0  0  0  0  0  0  0  0  0  0
    6.1051    0.0557   19.7735 C   0  0  0  0  0  0  0  0  0  0  0  0
    6.4473   -0.2238   18.4754 C   0  0  0  0  0  0  0  0  0  0  0  0
    5.7863    0.2410   17.3871 N   0  0  0  0  0  0  0  0  0  0  0  0
    4.7541    1.0211   17.6016 C   0  0  0  0  0  0  0  0  0  0  0  0
    4.2992    1.4109   18.8935 C   0  0  0  0  0  0  0  0  0  0  0  0
    3.1850    2.2772   19.0599 C   0  0  0  0  0  0  0  0  0  0  0  0
    2.7862    2.6587   20.3095 C   0  0  0  0  0  0  0  0  0  0  0  0
    3.4910    2.2024   21.4468 C   0  0  0  0  0  0  0  0  0  0  0  0
    4.5713    1.3662   21.3170 C   0  0  0  0  0  0  0  0  0  0  0  0
    4.9951    0.9289   20.0260 C   0  0  0  0  0  0  0  0  0  0  0  0
    5.1003    1.0263   22.2084 H   0  0  0  0  0  0  0  0  0  0  0  0
    3.1617    2.5098   22.4349 H   0  0  0  0  0  0  0  0  0  0  0  0
    1.9324    3.3195   20.4357 H   0  0  0  0  0  0  0  0  0  0  0  0
    2.6734    2.6348   18.1694 H   0  0  0  0  0  0  0  0  0  0  0  0
    4.2220    1.3810   16.7214 H   0  0  0  0  0  0  0  0  0  0  0  0
    7.2965   -0.8722   18.2642 H   0  0  0  0  0  0  0  0  0  0  0  0
    6.3365   -1.3800   21.7300 C   0  0  0  0  0  0  0  0  0  0  0  0
    5.2381   -1.8827   21.6183 O   0  0  0  0  0  0  0  0  0  0  0  0
    7.3599   -1.5941   22.8749 C   0  0  1  0  0  0  0  0  0  0  0  0
    7.5204   -3.1007   23.1638 C   0  0  0  0  0  0  0  0  0  0  0  0
    6.3175   -3.6571   23.7361 N   0  0  0  0  0  0  0  0  0  0  0  0
    5.8684   -4.9536   23.2708 C   0  0  0  0  0  0  0  0  0  0  0  0
    6.6121   -6.0899   23.9731 C   0  0  0  0  0  0  0  0  0  0  0  0
    6.1985   -7.4709   23.4863 N   0  0  0  0  0  4  0  0  0  0  0  0
    4.8006   -7.8312   23.9046 C   0  0  0  0  0  0  0  0  0  0  0  0
    4.0861   -7.2302   23.3430 H   0  0  0  0  0  0  0  0  0  0  0  0
    4.5966   -8.8919   23.7170 H   0  0  0  0  0  0  0  0  0  0  0  0
    4.6838   -7.6363   24.9743 H   0  0  0  0  0  0  0  0  0  0  0  0
    7.1507   -8.5199   23.9357 C   0  0  0  0  0  0  0  0  0  0  0  0
    8.1702   -8.2573   23.6456 H   0  0  0  0  0  0  0  0  0  0  0  0
    6.8896   -9.4859   23.4993 H   0  0  0  0  0  0  0  0  0  0  0  0
    7.1036   -8.5969   25.0233 H   0  0  0  0  0  0  0  0  0  0  0  0
    6.2436   -7.4389   22.4499 H   0  0  0  0  0  0  0  0  0  0  0  0
    7.6996   -6.0144   23.8403 H   0  0  0  0  0  0  0  0  0  0  0  0
    6.3877   -5.9935   25.0386 H   0  0  0  0  0  0  0  0  0  0  0  0
    4.8012   -5.0034   23.4952 H   0  0  0  0  0  0  0  0  0  0  0  0
    6.0055   -4.9840   22.1786 H   0  0  0  0  0  0  0  0  0  0  0  0
    5.7542   -3.1102   24.8480 C   0  0  0  0  0  0  0  0  0  0  0  0
    4.9990   -3.7380   25.5824 O   0  0  0  0  0  0  0  0  0  0  0  0
    6.0862   -1.6629   25.0818 C   0  0  0  0  0  0  0  0  0  0  0  0
    5.5708   -1.0432   26.2191 C   0  0  0  0  0  0  0  0  0  0  0  0
    5.7475    0.3114   26.4211 C   0  0  0  0  0  0  0  0  0  0  0  0
    6.4396    1.0474   25.4622 C   0  0  0  0  0  0  0  0  0  0  0  0
    6.6293    2.7623   25.6918 Cl  0  0  0  0  0  0  0  0  0  0  0  0
    6.9732    0.4478   24.3353 C   0  0  0  0  0  0  0  0  0  0  0  0
    6.8263   -0.9317   24.1429 C   0  0  0  0  0  0  0  0  0  0  0  0
    7.4851    1.0785   23.6139 H   0  0  0  0  0  0  0  0  0  0  0  0
    5.3452    0.8107   27.2940 H   0  0  0  0  0  0  0  0  0  0  0  0
    5.0112   -1.6616   26.9128 H   0  0  0  0  0  0  0  0  0  0  0  0
    7.7015   -3.6368   22.2318 H   0  0  0  0  0  0  0  0  0  0  0  0
    8.3813   -3.2389   23.8417 H   0  0  0  0  0  0  0  0  0  0  0  0
    8.2058    1.0461   21.4188 H   0  0  0  0  0  0  0  0  0  0  0  0
    8.8682   -0.1487   20.3071 H   0  0  0  0  0  0  0  0  0  0  0  0
    9.1048   -0.3185   23.1374 H   0  0  0  0  0  0  0  0  0  0  0  0
   10.1513   -2.5083   22.6742 H   0  0  0  0  0  0  0  0  0  0  0  0
    9.4320   -2.5417   21.0544 H   0  0  0  0  0  0  0  0  0  0  0  0
   10.6273   -1.3088   21.4747 H   0  0  0  0  0  0  0  0  0  0  0  0
  1  2  1  0
  2  3  1  0
  3  4  1  0
  4  5  1  0
  5  6  2  0
  6  7  1  0
  7  8  2  0
  8  9  1  0
  9 10  2  0
 10 11  1  0
 11 12  2  0
 12 13  1  0
 13 14  2  0
 13 15  1  0
 12 16  1  0
 11 17  1  0
 10 18  1  0
  8 19  1  0
  6 20  1  0
  4 21  1  0
 21 22  2  0
 21 23  1  0
 23 24  1  1
 24 25  1  0
 25 26  1  0
 26 27  1  0
 27 28  1  0
 28 29  1  0
 29 30  1  0
 29 31  1  0
 29 32  1  0
 28 33  1  0
 33 34  1  0
 33 35  1  0
 33 36  1  0
 28 37  1  0
 27 38  1  0
 27 39  1  0
 26 40  1  0
 26 41  1  0
 25 42  1  0
 42 43  2  0
 42 44  1  0
 44 45  2  0
 45 46  1  0
 46 47  2  0
 47 48  1  0
 47 49  1  0
 49 50  2  0
 49 51  1  0
 46 52  1  0
 45 53  1  0
 24 54  1  0
 24 55  1  0
  3 56  1  0
  3 57  1  0
  2 58  1  1
  1 59  1  0
  1 60  1  0
  1 61  1  0
 23  2  1  0
 50 44  1  0
 14  5  1  0
 50 23  1  0
 14  9  1  0
M  CHG  1  28   1
M  END
>  <cnnaffinities>  (56) 
[6.10065, 6.11585]

>  <score>  (56) 
6.10065

>  <index>  (56) 
76

>  <Smiles>  (56) 
C([C@]1(C(N(c2c(nc(c3c(c(c(c(c23)[H])[H])[H])[H])[H])[H])C(=O)[C@]21C(N(C(C([N+](C([H])([H])[H])(C([H])([H])[H])[H])([H])[H])([H])[H])C(=O)c1c(c(c(Cl)c(c21)[H])[H])[H])([H])[H])([H])[H])[H])([H])([H])[H]

>  <h>  (56) 
<NA>

>  <Training>  (56) 
True

>  <Success>  (56) 
True

>  <enamine_searched>  (56) 
False

>  <enamine_id>  (56) 
nan

$$$$

     RDKit          3D

 57 60  0  0  0  0  0  0  0  0999 V2000
    9.6589    6.5401   25.1765 C   0  0  0  0  0  0  0  0  0  0  0  0
    8.2210    5.9656   25.2352 C   0  0  0  0  0  0  0  0  0  0  0  0
    7.2515    7.0512   24.7072 C   0  0  0  0  0  0  0  0  0  0  0  0
    7.5088    7.3145   23.6769 H   0  0  0  0  0  0  0  0  0  0  0  0
    6.2110    6.7173   24.7338 H   0  0  0  0  0  0  0  0  0  0  0  0
    7.3345    7.9565   25.3158 H   0  0  0  0  0  0  0  0  0  0  0  0
    7.9234    5.7641   26.6734 C   0  0  0  0  0  0  0  0  0  0  0  0
    7.7289    5.6320   27.8063 N   0  0  0  0  0  0  0  0  0  0  0  0
    8.0552    4.6266   24.4885 C   0  0  0  0  0  0  0  0  0  0  0  0
    8.6962    4.3735   23.2740 C   0  0  0  0  0  0  0  0  0  0  0  0
    8.5673    3.1666   22.5962 C   0  0  0  0  0  0  0  0  0  0  0  0
    7.7885    2.1324   23.1348 C   0  0  0  0  0  0  0  0  0  0  0  0
    7.6507    0.8389   22.5322 N   0  0  0  0  0  0  0  0  0  0  0  0
    7.8631   -0.3743   23.3320 C   0  0  0  0  0  0  0  0  0  0  0  0
    9.2989   -0.8322   23.2334 C   0  0  0  0  0  0  0  0  0  0  0  0
    9.6696   -1.8772   22.3929 C   0  0  0  0  0  0  0  0  0  0  0  0
   11.0099   -2.2089   22.2143 C   0  0  0  0  0  0  0  0  0  0  0  0
   11.9911   -1.4972   22.8959 C   0  0  0  0  0  0  0  0  0  0  0  0
   11.6110   -0.4763   23.7566 C   0  0  0  0  0  0  0  0  0  0  0  0
   12.8296    0.3465   24.6874 Cl  0  0  0  0  0  0  0  0  0  0  0  0
   10.2807   -0.1135   23.9017 C   0  0  0  0  0  0  0  0  0  0  0  0
   10.0213    0.7301   24.5290 H   0  0  0  0  0  0  0  0  0  0  0  0
   13.0413   -1.7256   22.7620 H   0  0  0  0  0  0  0  0  0  0  0  0
   11.2879   -3.0260   21.5532 H   0  0  0  0  0  0  0  0  0  0  0  0
    8.8990   -2.4328   21.8691 H   0  0  0  0  0  0  0  0  0  0  0  0
    7.2150   -1.1707   22.9657 H   0  0  0  0  0  0  0  0  0  0  0  0
    7.5903   -0.1741   24.3688 H   0  0  0  0  0  0  0  0  0  0  0  0
    7.6317    0.7154   21.1446 C   0  0  0  0  0  0  0  0  0  0  0  0
    8.1275    1.5271   20.3899 O   0  0  0  0  0  0  0  0  0  0  0  0
    6.8573   -0.4816   20.5714 C   0  0  0  0  0  0  0  0  0  0  0  0
    6.0028   -0.0003   19.4414 C   0  0  0  0  0  0  0  0  0  0  0  0
    6.2913   -0.2515   18.1271 C   0  0  0  0  0  0  0  0  0  0  0  0
    5.6106    0.2676   17.0701 N   0  0  0  0  0  0  0  0  0  0  0  0
    4.6140    1.0744   17.3484 C   0  0  0  0  0  0  0  0  0  0  0  0
    4.2070    1.4213   18.6663 C   0  0  0  0  0  0  0  0  0  0  0  0
    3.1308    2.3058   18.9241 C   0  0  0  0  0  0  0  0  0  0  0  0
    2.7899    2.6393   20.2063 C   0  0  0  0  0  0  0  0  0  0  0  0
    3.5121    2.1037   21.2941 C   0  0  0  0  0  0  0  0  0  0  0  0
    4.5543    1.2419   21.0707 C   0  0  0  0  0  0  0  0  0  0  0  0
    4.9254    0.8778   19.7477 C   0  0  0  0  0  0  0  0  0  0  0  0
    5.1046    0.8495   21.9173 H   0  0  0  0  0  0  0  0  0  0  0  0
    3.2446    2.3766   22.3108 H   0  0  0  0  0  0  0  0  0  0  0  0
    1.9685    3.3227   20.3979 H   0  0  0  0  0  0  0  0  0  0  0  0
    2.5936    2.7208   18.0770 H   0  0  0  0  0  0  0  0  0  0  0  0
    4.0756    1.5070   16.5046 H   0  0  0  0  0  0  0  0  0  0  0  0
    7.1218   -0.9039   17.8563 H   0  0  0  0  0  0  0  0  0  0  0  0
    6.2289   -0.9237   21.3478 H   0  0  0  0  0  0  0  0  0  0  0  0
    7.5717   -1.2380   20.2272 H   0  0  0  0  0  0  0  0  0  0  0  0
    7.0960    2.3992   24.3216 C   0  0  0  0  0  0  0  0  0  0  0  0
    7.2213    3.6154   24.9778 C   0  0  0  0  0  0  0  0  0  0  0  0
    6.6565    3.7571   25.8973 H   0  0  0  0  0  0  0  0  0  0  0  0
    6.4344    1.6388   24.7267 H   0  0  0  0  0  0  0  0  0  0  0  0
    9.0629    3.0494   21.6432 H   0  0  0  0  0  0  0  0  0  0  0  0
    9.3102    5.1383   22.8008 H   0  0  0  0  0  0  0  0  0  0  0  0
    9.6954    7.4633   25.7641 H   0  0  0  0  0  0  0  0  0  0  0  0
    9.9394    6.7899   24.1497 H   0  0  0  0  0  0  0  0  0  0  0  0
   10.4084    5.8543   25.5799 H   0  0  0  0  0  0  0  0  0  0  0  0
  1  2  1  0
  2  3  1  0
  3  4  1  0
  3  5  1  0
  3  6  1  0
  2  7  1  0
  7  8  3  0
  2  9  1  0
  9 10  2  0
 10 11  1  0
 11 12  2  0
 12 13  1  0
 13 14  1  0
 14 15  1  0
 15 16  2  0
 16 17  1  0
 17 18  2  0
 18 19  1  0
 19 20  1  0
 19 21  2  0
 21 22  1  0
 18 23  1  0
 17 24  1  0
 16 25  1  0
 14 26  1  0
 14 27  1  0
 13 28  1  0
 28 29  2  0
 28 30  1  0
 30 31  1  0
 31 32  2  0
 32 33  1  0
 33 34  2  0
 34 35  1  0
 35 36  2  0
 36 37  1  0
 37 38  2  0
 38 39  1  0
 39 40  2  0
 39 41  1  0
 38 42  1  0
 37 43  1  0
 36 44  1  0
 34 45  1  0
 32 46  1  0
 30 47  1  0
 30 48  1  0
 12 49  1  0
 49 50  2  0
 50 51  1  0
 49 52  1  0
 11 53  1  0
 10 54  1  0
  1 55  1  0
  1 56  1  0
  1 57  1  0
 50  9  1  0
 21 15  1  0
 40 31  1  0
 40 35  1  0
M  END
>  <cnnaffinities>  (57) 
[5.96242]

>  <score>  (57) 
5.96242

>  <index>  (57) 
77

>  <Smiles>  (57) 
C(C(C([H])([H])[H])(C#N)c1c(c(c(N(C(c2c(c(c(c(Cl)c2[H])[H])[H])[H])([H])[H])C(=O)C(c2c(nc(c3c(c(c(c(c23)[H])[H])[H])[H])[H])[H])([H])[H])c(c1[H])[H])[H])[H])([H])([H])[H]

>  <h>  (57) 
<NA>

>  <Training>  (57) 
True

>  <Success>  (57) 
True

>  <enamine_searched>  (57) 
False

>  <enamine_id>  (57) 
nan

$$$$

     RDKit          3D

 40 42  0  0  0  0  0  0  0  0999 V2000
    8.6932   -5.3656   25.0847 C   0  0  0  0  0  0  0  0  0  0  0  0
    8.3177   -4.5112   23.8752 C   0  0  0  0  0  0  0  0  0  0  0  0
    6.9041   -4.8022   23.3612 C   0  0  0  0  0  0  0  0  0  0  0  0
    6.6911   -4.0912   22.0342 C   0  0  0  0  0  0  0  0  0  0  0  0
    7.0712   -2.6835   22.1053 N   0  0  0  0  0  0  0  0  0  0  0  0
    6.2571   -1.8018   21.4424 C   0  0  0  0  0  0  0  0  0  0  0  0
    5.0752   -2.0439   21.2502 O   0  0  0  0  0  0  0  0  0  0  0  0
    6.9082   -0.5240   20.9009 C   0  0  0  0  0  0  0  0  0  0  0  0
    6.1187    0.0778   19.7692 C   0  0  0  0  0  0  0  0  0  0  0  0
    6.4360   -0.2225   18.4682 C   0  0  0  0  0  0  0  0  0  0  0  0
    5.7753    0.2305   17.3689 N   0  0  0  0  0  0  0  0  0  0  0  0
    4.7481    1.0187   17.5819 C   0  0  0  0  0  0  0  0  0  0  0  0
    4.2949    1.4072   18.8713 C   0  0  0  0  0  0  0  0  0  0  0  0
    3.1789    2.2650   19.0417 C   0  0  0  0  0  0  0  0  0  0  0  0
    2.7619    2.6179   20.2963 C   0  0  0  0  0  0  0  0  0  0  0  0
    3.4446    2.1289   21.4324 C   0  0  0  0  0  0  0  0  0  0  0  0
    4.5263    1.2936   21.2920 C   0  0  0  0  0  0  0  0  0  0  0  0
    4.9877    0.9176   20.0017 C   0  0  0  0  0  0  0  0  0  0  0  0
    5.0283    0.9062   22.1725 H   0  0  0  0  0  0  0  0  0  0  0  0
    3.1059    2.4175   22.4238 H   0  0  0  0  0  0  0  0  0  0  0  0
    1.9059    3.2743   20.4238 H   0  0  0  0  0  0  0  0  0  0  0  0
    2.6763    2.6363   18.1515 H   0  0  0  0  0  0  0  0  0  0  0  0
    4.2140    1.3901   16.7064 H   0  0  0  0  0  0  0  0  0  0  0  0
    7.2848   -0.8716   18.2463 H   0  0  0  0  0  0  0  0  0  0  0  0
    7.0528    0.1839   21.7282 H   0  0  0  0  0  0  0  0  0  0  0  0
    7.9107   -0.7896   20.5425 H   0  0  0  0  0  0  0  0  0  0  0  0
    8.4044   -2.3774   22.6202 C   0  0  0  0  0  0  0  0  0  0  0  0
    8.6286   -3.0142   23.9967 C   0  0  0  0  0  0  0  0  0  0  0  0
    9.6926   -2.9127   24.2610 H   0  0  0  0  0  0  0  0  0  0  0  0
    8.0494   -2.5098   24.7760 H   0  0  0  0  0  0  0  0  0  0  0  0
    9.1732   -2.8077   21.9580 H   0  0  0  0  0  0  0  0  0  0  0  0
    8.5384   -1.2906   22.6537 H   0  0  0  0  0  0  0  0  0  0  0  0
    5.6483   -4.1001   21.7070 H   0  0  0  0  0  0  0  0  0  0  0  0
    7.3029   -4.6067   21.2749 H   0  0  0  0  0  0  0  0  0  0  0  0
    6.7879   -5.8862   23.1982 H   0  0  0  0  0  0  0  0  0  0  0  0
    6.1515   -4.5026   24.0979 H   0  0  0  0  0  0  0  0  0  0  0  0
    8.9663   -4.7739   23.0497 H   0  0  0  0  0  0  0  0  0  0  0  0
    8.5056   -6.4308   24.8929 H   0  0  0  0  0  0  0  0  0  0  0  0
    8.0966   -5.0840   25.9550 H   0  0  0  0  0  0  0  0  0  0  0  0
    9.7496   -5.2520   25.3579 H   0  0  0  0  0  0  0  0  0  0  0  0
  1  2  1  0
  2  3  1  0
  3  4  1  0
  4  5  1  0
  5  6  1  0
  6  7  2  0
  6  8  1  0
  8  9  1  0
  9 10  2  0
 10 11  1  0
 11 12  2  0
 12 13  1  0
 13 14  2  0
 14 15  1  0
 15 16  2  0
 16 17  1  0
 17 18  2  0
 17 19  1  0
 16 20  1  0
 15 21  1  0
 14 22  1  0
 12 23  1  0
 10 24  1  0
  8 25  1  0
  8 26  1  0
  5 27  1  0
 27 28  1  0
 28 29  1  0
 28 30  1  0
 27 31  1  0
 27 32  1  0
  4 33  1  0
  4 34  1  0
  3 35  1  0
  3 36  1  0
  2 37  1  0
  1 38  1  0
  1 39  1  0
  1 40  1  0
 28  2  1  0
 18  9  1  0
 18 13  1  0
M  END
>  <cnnaffinities>  (58) 
[4.67008, 4.95948, 5.03286, 5.03283, 4.66964, 4.60276, 4.60283, 4.58978]

>  <score>  (58) 
4.67008

>  <index>  (58) 
79

>  <Smiles>  (58) 
C(C1(C(C(N(C(=O)C(c2c(nc(c3c(c(c(c(c23)[H])[H])[H])[H])[H])[H])([H])[H])C(C1([H])[H])([H])[H])([H])[H])([H])[H])[H])([H])([H])[H]

>  <h>  (58) 
<NA>

>  <Training>  (58) 
True

>  <Success>  (58) 
True

>  <enamine_searched>  (58) 
False

>  <enamine_id>  (58) 
nan

$$$$

     RDKit          3D

 59 64  0  0  0  0  0  0  0  0999 V2000
    9.7479   -1.8545   21.9310 C   0  0  0  0  0  0  0  0  0  0  0  0
    8.5605   -0.9942   22.3938 C   0  0  1  0  0  0  0  0  0  0  0  0
    8.1278   -0.0253   21.2665 C   0  0  0  0  0  0  0  0  0  0  0  0
    6.8435   -0.5226   20.8279 N   0  0  0  0  0  0  0  0  0  0  0  0
    6.0996    0.0511   19.7663 C   0  0  0  0  0  0  0  0  0  0  0  0
    6.4487   -0.2219   18.4688 C   0  0  0  0  0  0  0  0  0  0  0  0
    5.7896    0.2444   17.3801 N   0  0  0  0  0  0  0  0  0  0  0  0
    4.7551    1.0234   17.5941 C   0  0  0  0  0  0  0  0  0  0  0  0
    4.2992    1.4062   18.8887 C   0  0  0  0  0  0  0  0  0  0  0  0
    3.1841    2.2697   19.0579 C   0  0  0  0  0  0  0  0  0  0  0  0
    2.7808    2.6403   20.3112 C   0  0  0  0  0  0  0  0  0  0  0  0
    3.4764    2.1724   21.4492 C   0  0  0  0  0  0  0  0  0  0  0  0
    4.5557    1.3335   21.3169 C   0  0  0  0  0  0  0  0  0  0  0  0
    4.9886    0.9185   20.0208 C   0  0  0  0  0  0  0  0  0  0  0  0
    5.0836    0.9861   22.2049 H   0  0  0  0  0  0  0  0  0  0  0  0
    3.1464    2.4783   22.4378 H   0  0  0  0  0  0  0  0  0  0  0  0
    1.9271    3.3009   20.4408 H   0  0  0  0  0  0  0  0  0  0  0  0
    2.6723    2.6366   18.1722 H   0  0  0  0  0  0  0  0  0  0  0  0
    4.2215    1.3961   16.7185 H   0  0  0  0  0  0  0  0  0  0  0  0
    7.2958   -0.8766   18.2682 H   0  0  0  0  0  0  0  0  0  0  0  0
    6.3009   -1.4970   21.6302 C   0  0  0  0  0  0  0  0  0  0  0  0
    5.2309   -2.0360   21.4280 O   0  0  0  0  0  0  0  0  0  0  0  0
    7.2624   -1.7692   22.8026 C   0  0  1  0  0  0  0  0  0  0  0  0
    7.4667   -3.2908   22.9508 C   0  0  0  0  0  0  0  0  0  0  0  0
    6.2535   -3.9302   23.4162 N   0  0  0  0  0  0  0  0  0  0  0  0
    5.8092   -5.1706   22.8390 C   0  0  0  0  0  0  0  0  0  0  0  0
    6.3622   -6.3543   23.5644 C   0  0  0  0  0  0  0  0  0  0  0  0
    7.6602   -6.6035   23.9361 C   0  0  0  0  0  0  0  0  0  0  0  0
    7.6708   -7.9743   24.2434 C   0  0  0  0  0  0  0  0  0  0  0  0
    6.4641   -8.5130   24.1529 N   0  0  0  0  0  0  0  0  0  0  0  0
    5.6646   -7.5115   23.7433 N   0  0  0  0  0  0  0  0  0  0  0  0
    4.2248   -7.6083   23.9396 C   0  0  0  0  0  0  0  0  0  0  0  0
    3.6724   -7.6327   22.9935 H   0  0  0  0  0  0  0  0  0  0  0  0
    4.0228   -8.5288   24.4886 H   0  0  0  0  0  0  0  0  0  0  0  0
    3.9007   -6.7475   24.5326 H   0  0  0  0  0  0  0  0  0  0  0  0
    8.5054   -8.5910   24.5542 H   0  0  0  0  0  0  0  0  0  0  0  0
    8.4788   -5.8927   24.0198 H   0  0  0  0  0  0  0  0  0  0  0  0
    4.7146   -5.1736   22.8197 H   0  0  0  0  0  0  0  0  0  0  0  0
    6.1509   -5.1928   21.7970 H   0  0  0  0  0  0  0  0  0  0  0  0
    5.6104   -3.5126   24.5421 C   0  0  0  0  0  0  0  0  0  0  0  0
    4.8259   -4.2287   25.1526 O   0  0  0  0  0  0  0  0  0  0  0  0
    5.8764   -2.0982   24.9282 C   0  0  0  0  0  0  0  0  0  0  0  0
    5.2759   -1.6267   26.0943 C   0  0  0  0  0  0  0  0  0  0  0  0
    5.3751   -0.2946   26.4397 C   0  0  0  0  0  0  0  0  0  0  0  0
    6.0750    0.5493   25.5850 C   0  0  0  0  0  0  0  0  0  0  0  0
    6.1510    1.8550   25.9000 F   0  0  0  0  0  0  0  0  0  0  0  0
    6.6907    0.1035   24.4295 C   0  0  0  0  0  0  0  0  0  0  0  0
    6.6289   -1.2556   24.0973 C   0  0  0  0  0  0  0  0  0  0  0  0
    7.2077    0.8295   23.8082 H   0  0  0  0  0  0  0  0  0  0  0  0
    4.9071    0.1094   27.3302 H   0  0  0  0  0  0  0  0  0  0  0  0
    4.7169   -2.3329   26.6999 H   0  0  0  0  0  0  0  0  0  0  0  0
    7.7476   -3.7258   21.9887 H   0  0  0  0  0  0  0  0  0  0  0  0
    8.2868   -3.4607   23.6640 H   0  0  0  0  0  0  0  0  0  0  0  0
    8.0496    1.0121   21.6219 H   0  0  0  0  0  0  0  0  0  0  0  0
    8.8384   -0.0255   20.4347 H   0  0  0  0  0  0  0  0  0  0  0  0
    8.9182   -0.4324   23.2648 H   0  0  0  0  0  0  0  0  0  0  0  0
   10.5916   -1.2102   21.6555 H   0  0  0  0  0  0  0  0  0  0  0  0
   10.0999   -2.5237   22.7221 H   0  0  0  0  0  0  0  0  0  0  0  0
    9.4944   -2.4601   21.0537 H   0  0  0  0  0  0  0  0  0  0  0  0
  1  2  1  0
  2  3  1  0
  3  4  1  0
  4  5  1  0
  5  6  2  0
  6  7  1  0
  7  8  2  0
  8  9  1  0
  9 10  2  0
 10 11  1  0
 11 12  2  0
 12 13  1  0
 13 14  2  0
 13 15  1  0
 12 16  1  0
 11 17  1  0
 10 18  1  0
  8 19  1  0
  6 20  1  0
  4 21  1  0
 21 22  2  0
 21 23  1  0
 23 24  1  1
 24 25  1  0
 25 26  1  0
 26 27  1  0
 27 28  2  0
 28 29  1  0
 29 30  2  0
 30 31  1  0
 31 32  1  0
 32 33  1  0
 32 34  1  0
 32 35  1  0
 29 36  1  0
 28 37  1  0
 26 38  1  0
 26 39  1  0
 25 40  1  0
 40 41  2  0
 40 42  1  0
 42 43  2  0
 43 44  1  0
 44 45  2  0
 45 46  1  0
 45 47  1  0
 47 48  2  0
 47 49  1  0
 44 50  1  0
 43 51  1  0
 24 52  1  0
 24 53  1  0
  3 54  1  0
  3 55  1  0
  2 56  1  1
  1 57  1  0
  1 58  1  0
  1 59  1  0
 23  2  1  0
 31 27  1  0
 48 42  1  0
 14  5  1  0
 48 23  1  0
 14  9  1  0
M  END
>  <cnnaffinities>  (59) 
[6.67401]

>  <score>  (59) 
6.67401

>  <index>  (59) 
80

>  <Smiles>  (59) 
C([C@]1(C(N(c2c(nc(c3c(c(c(c(c23)[H])[H])[H])[H])[H])[H])C(=O)[C@]21C(N(C(c1c(c(nn1C([H])([H])[H])[H])[H])([H])[H])C(=O)c1c(c(c(F)c(c21)[H])[H])[H])([H])[H])([H])[H])[H])([H])([H])[H]

>  <h>  (59) 
<NA>

>  <Training>  (59) 
True

>  <Success>  (59) 
True

>  <enamine_searched>  (59) 
False

>  <enamine_id>  (59) 
nan

$$$$

     RDKit          3D

 72 77  0  0  0  0  0  0  0  0999 V2000
    3.0136   -6.5214   24.1459 C   0  0  0  0  0  0  0  0  0  0  0  0
    4.2150   -7.4034   23.8063 C   0  0  2  0  0  0  0  0  0  0  0  0
    4.3062   -8.4383   24.8789 C   0  0  0  0  0  0  0  0  0  0  0  0
    6.8674   -8.9939   24.7384 O   0  0  0  0  0  0  0  0  0  0  0  0
    7.6137   -7.8417   24.3468 C   0  0  0  0  0  0  0  0  0  0  0  0
    6.8954   -7.2229   23.1157 C   0  0  1  0  0  0  0  0  0  0  0  0
    6.6296   -8.1600   22.1518 C   0  0  0  0  0  0  0  0  0  0  0  0
    5.9432   -8.7674   24.4346 H   0  0  0  0  0  0  0  0  0  0  0  0
    7.1206   -9.1174   22.1152 H   0  0  0  0  0  0  0  0  0  0  0  0
    5.8978   -7.9036   21.3903 H   0  0  0  0  0  0  0  0  0  0  0  0
    5.4495   -6.5370   23.5160 N   0  0  0  0  0  4  0  0  0  0  0  0
    5.6684   -5.2972   24.2852 C   0  0  0  0  0  0  0  0  0  0  0  0
    5.3006   -4.0445   23.4707 C   0  0  0  0  0  0  0  0  0  0  0  0
    5.9767   -2.8707   23.9675 N   0  0  0  0  0  0  0  0  0  0  0  0
    7.2692   -2.4963   23.4303 C   0  0  0  0  0  0  0  0  0  0  0  0
    7.2602   -1.0270   22.9502 C   0  0  2  0  0  0  0  0  0  0  0  0
    6.3718   -0.9561   21.6874 C   0  0  0  0  0  0  0  0  0  0  0  0
    5.3061   -1.5113   21.5055 O   0  0  0  0  0  0  0  0  0  0  0  0
    7.0085   -0.1844   20.7386 N   0  0  0  0  0  0  0  0  0  0  0  0
    6.2812    0.3361   19.6409 C   0  0  0  0  0  0  0  0  0  0  0  0
    6.6795    0.0743   18.3564 C   0  0  0  0  0  0  0  0  0  0  0  0
    6.0044    0.4804   17.2519 N   0  0  0  0  0  0  0  0  0  0  0  0
    4.9124    1.1855   17.4387 C   0  0  0  0  0  0  0  0  0  0  0  0
    4.4109    1.5566   18.7193 C   0  0  0  0  0  0  0  0  0  0  0  0
    3.2295    2.3255   18.8779 C   0  0  0  0  0  0  0  0  0  0  0  0
    2.7965    2.6843   20.1250 C   0  0  0  0  0  0  0  0  0  0  0  0
    3.5325    2.3081   21.2715 C   0  0  0  0  0  0  0  0  0  0  0  0
    4.6770    1.5695   21.1479 C   0  0  0  0  0  0  0  0  0  0  0  0
    5.1248    1.1472   19.8623 C   0  0  0  0  0  0  0  0  0  0  0  0
    5.2478    1.2890   22.0326 H   0  0  0  0  0  0  0  0  0  0  0  0
    3.1821    2.6027   22.2557 H   0  0  0  0  0  0  0  0  0  0  0  0
    1.8909    3.2698   20.2443 H   0  0  0  0  0  0  0  0  0  0  0  0
    2.6899    2.6333   17.9870 H   0  0  0  0  0  0  0  0  0  0  0  0
    4.3640    1.5022   16.5500 H   0  0  0  0  0  0  0  0  0  0  0  0
    7.5749   -0.5205   18.1770 H   0  0  0  0  0  0  0  0  0  0  0  0
    8.2320    0.4208   21.2344 C   0  0  0  0  0  0  0  0  0  0  0  0
    8.6299   -0.5153   22.3935 C   0  0  2  0  0  0  0  0  0  0  0  0
    9.5513   -1.6181   21.8625 C   0  0  0  0  0  0  0  0  0  0  0  0
   10.4882   -1.1844   21.4970 H   0  0  0  0  0  0  0  0  0  0  0  0
    9.0859   -2.1592   21.0312 H   0  0  0  0  0  0  0  0  0  0  0  0
    9.8072   -2.3399   22.6427 H   0  0  0  0  0  0  0  0  0  0  0  0
    9.1720    0.0222   23.1786 H   0  0  0  0  0  0  0  0  0  0  0  0
    8.0622    1.4578   21.5575 H   0  0  0  0  0  0  0  0  0  0  0  0
    8.9869    0.4495   20.4486 H   0  0  0  0  0  0  0  0  0  0  0  0
    6.7535   -0.1825   24.1283 C   0  0  0  0  0  0  0  0  0  0  0  0
    7.1434    1.1533   24.3145 C   0  0  0  0  0  0  0  0  0  0  0  0
    6.7670    1.8433   25.4561 C   0  0  0  0  0  0  0  0  0  0  0  0
    7.2938    3.4908   25.6708 Cl  0  0  0  0  0  0  0  0  0  0  0  0
    6.0042    1.2463   26.4571 C   0  0  0  0  0  0  0  0  0  0  0  0
    5.5652   -0.0479   26.2558 C   0  0  0  0  0  0  0  0  0  0  0  0
    5.9193   -0.7514   25.1057 C   0  0  0  0  0  0  0  0  0  0  0  0
    5.3670   -2.1323   24.9298 C   0  0  0  0  0  0  0  0  0  0  0  0
    4.4155   -2.5522   25.5799 O   0  0  0  0  0  0  0  0  0  0  0  0
    4.9453   -0.5505   26.9918 H   0  0  0  0  0  0  0  0  0  0  0  0
    5.7480    1.8005   27.3545 H   0  0  0  0  0  0  0  0  0  0  0  0
    7.7595    1.6808   23.5958 H   0  0  0  0  0  0  0  0  0  0  0  0
    7.4921   -3.1595   22.5930 H   0  0  0  0  0  0  0  0  0  0  0  0
    8.0518   -2.6247   24.1925 H   0  0  0  0  0  0  0  0  0  0  0  0
    4.2204   -3.8645   23.4987 H   0  0  0  0  0  0  0  0  0  0  0  0
    5.5827   -4.1472   22.4122 H   0  0  0  0  0  0  0  0  0  0  0  0
    5.1202   -5.3312   25.2300 H   0  0  0  0  0  0  0  0  0  0  0  0
    6.7334   -5.2258   24.5387 H   0  0  0  0  0  0  0  0  0  0  0  0
    5.2157   -6.2093   22.5666 H   0  0  0  0  0  0  0  0  0  0  0  0
    7.4519   -6.2995   22.7779 H   0  0  0  0  0  0  0  0  0  0  0  0
    7.6251   -7.1143   25.1623 H   0  0  0  0  0  0  0  0  0  0  0  0
    8.6512   -8.1301   24.1318 H   0  0  0  0  0  0  0  0  0  0  0  0
    3.6067   -9.2735   24.8462 H   0  0  0  0  0  0  0  0  0  0  0  0
    4.5298   -8.0707   25.8728 H   0  0  0  0  0  0  0  0  0  0  0  0
    4.0454   -7.9388   22.8619 H   0  0  0  0  0  0  0  0  0  0  0  0
    3.2301   -5.9712   25.0682 H   0  0  0  0  0  0  0  0  0  0  0  0
    2.1409   -7.1554   24.3339 H   0  0  0  0  0  0  0  0  0  0  0  0
    2.7479   -5.7931   23.3718 H   0  0  0  0  0  0  0  0  0  0  0  0
  1  2  1  0
  2  3  1  0
  3  4  1  0
  4  5  1  0
  5  6  1  0
  6  7  1  0
  7  8  1  0
  7  9  1  0
  7 10  1  0
  6 11  1  0
 11 12  1  0
 12 13  1  0
 13 14  1  0
 14 15  1  0
 16 15  1  1
 16 17  1  0
 17 18  2  0
 17 19  1  0
 19 20  1  0
 20 21  2  0
 21 22  1  0
 22 23  2  0
 23 24  1  0
 24 25  2  0
 25 26  1  0
 26 27  2  0
 27 28  1  0
 28 29  2  0
 28 30  1  0
 27 31  1  0
 26 32  1  0
 25 33  1  0
 23 34  1  0
 21 35  1  0
 19 36  1  0
 36 37  1  0
 37 38  1  0
 38 39  1  0
 38 40  1  0
 38 41  1  0
 37 42  1  1
 36 43  1  0
 36 44  1  0
 16 45  1  0
 45 46  2  0
 46 47  1  0
 47 48  1  0
 47 49  2  0
 49 50  1  0
 50 51  2  0
 51 52  1  0
 52 53  2  0
 50 54  1  0
 49 55  1  0
 46 56  1  0
 15 57  1  0
 15 58  1  0
 13 59  1  0
 13 60  1  0
 12 61  1  0
 12 62  1  0
 11 63  1  0
  6 64  1  6
  5 65  1  0
  5 66  1  0
  3 67  1  0
  3 68  1  0
  2 69  1  6
  1 70  1  0
  1 71  1  0
  1 72  1  0
 11  2  1  0
 52 14  1  0
 37 16  1  0
 51 45  1  0
 29 20  1  0
 29 24  1  0
M  CHG  1  11   1
M  END
>  <cnnaffinities>  (60) 
[6.60078]

>  <score>  (60) 
6.60078

>  <index>  (60) 
83

>  <Smiles>  (60) 
C([C@@]1(C(OC([C@@](C([H])([H])[H])([N+]1(C(C(N1C([C@@]2(C(=O)N(c3c(nc(c4c(c(c(c(c34)[H])[H])[H])[H])[H])[H])C([C@@]2(C([H])([H])[H])[H])([H])[H])c2c(c(Cl)c(c(c2C1=O)[H])[H])[H])([H])[H])([H])[H])([H])[H])[H])[H])([H])[H])([H])[H])[H])([H])([H])[H]

>  <h>  (60) 
<NA>

>  <Training>  (60) 
True

>  <Success>  (60) 
True

>  <enamine_searched>  (60) 
False

>  <enamine_id>  (60) 
nan

$$$$

     RDKit          3D

 60 65  0  0  0  0  0  0  0  0999 V2000
    8.6520   -6.5333   25.1124 C   0  0  0  0  0  0  0  0  0  0  0  0
    7.6309   -5.6175   24.6579 N   0  0  0  0  0  0  0  0  0  0  0  0
    6.6239   -5.9882   23.8130 C   0  0  0  0  0  0  0  0  0  0  0  0
    6.3929   -7.1474   23.4946 O   0  0  0  0  0  0  0  0  0  0  0  0
    5.8122   -4.8563   23.2249 C   0  0  0  0  0  0  0  0  0  0  0  0
    6.1594   -3.5172   23.6094 N   0  0  0  0  0  0  0  0  0  0  0  0
    7.3807   -2.9737   23.0631 C   0  0  0  0  0  0  0  0  0  0  0  0
    7.2589   -1.4714   22.8055 C   0  0  2  0  0  0  0  0  0  0  0  0
    6.3381   -1.2842   21.5947 C   0  0  0  0  0  0  0  0  0  0  0  0
    5.2762   -1.8333   21.3611 O   0  0  0  0  0  0  0  0  0  0  0  0
    6.9237   -0.3868   20.7464 N   0  0  0  0  0  0  0  0  0  0  0  0
    6.1622    0.1476   19.6918 C   0  0  0  0  0  0  0  0  0  0  0  0
    6.4837   -0.1618   18.3968 C   0  0  0  0  0  0  0  0  0  0  0  0
    5.7908    0.2728   17.3182 N   0  0  0  0  0  0  0  0  0  0  0  0
    4.7516    1.0404   17.5542 C   0  0  0  0  0  0  0  0  0  0  0  0
    4.3141    1.4290   18.8534 C   0  0  0  0  0  0  0  0  0  0  0  0
    3.1931    2.2775   19.0356 C   0  0  0  0  0  0  0  0  0  0  0  0
    2.8026    2.6524   20.2905 C   0  0  0  0  0  0  0  0  0  0  0  0
    3.5096    2.1913   21.4244 C   0  0  0  0  0  0  0  0  0  0  0  0
    4.5952    1.3640   21.2814 C   0  0  0  0  0  0  0  0  0  0  0  0
    5.0277    0.9667   19.9757 C   0  0  0  0  0  0  0  0  0  0  0  0
    5.1180    1.0074   22.1699 H   0  0  0  0  0  0  0  0  0  0  0  0
    3.1847    2.4975   22.4155 H   0  0  0  0  0  0  0  0  0  0  0  0
    1.9517    3.3143   20.4242 H   0  0  0  0  0  0  0  0  0  0  0  0
    2.6692    2.6274   18.1509 H   0  0  0  0  0  0  0  0  0  0  0  0
    4.1943    1.3982   16.6896 H   0  0  0  0  0  0  0  0  0  0  0  0
    7.3298   -0.8193   18.2003 H   0  0  0  0  0  0  0  0  0  0  0  0
    8.2241    0.0874   21.1565 C   0  0  0  0  0  0  0  0  0  0  0  0
    8.6105   -0.8425   22.3248 C   0  0  2  0  0  0  0  0  0  0  0  0
    9.6825   -1.8499   21.8712 C   0  0  0  0  0  0  0  0  0  0  0  0
   10.5802   -1.3227   21.5307 H   0  0  0  0  0  0  0  0  0  0  0  0
    9.9893   -2.5065   22.6902 H   0  0  0  0  0  0  0  0  0  0  0  0
    9.3385   -2.4800   21.0431 H   0  0  0  0  0  0  0  0  0  0  0  0
    9.0556   -0.2718   23.1458 H   0  0  0  0  0  0  0  0  0  0  0  0
    8.9345   -0.0006   20.3364 H   0  0  0  0  0  0  0  0  0  0  0  0
    8.1882    1.1476   21.4409 H   0  0  0  0  0  0  0  0  0  0  0  0
    6.6922   -0.8100   24.0640 C   0  0  0  0  0  0  0  0  0  0  0  0
    6.8989    0.5537   24.3207 C   0  0  0  0  0  0  0  0  0  0  0  0
    6.3941    1.1314   25.4760 C   0  0  0  0  0  0  0  0  0  0  0  0
    6.6668    2.8274   25.7718 Cl  0  0  0  0  0  0  0  0  0  0  0  0
    5.6907    0.3888   26.4216 C   0  0  0  0  0  0  0  0  0  0  0  0
    5.4660   -0.9503   26.1674 C   0  0  0  0  0  0  0  0  0  0  0  0
    5.9297   -1.5396   24.9888 C   0  0  0  0  0  0  0  0  0  0  0  0
    5.5812   -2.9732   24.7378 C   0  0  0  0  0  0  0  0  0  0  0  0
    4.8482   -3.6279   25.4559 O   0  0  0  0  0  0  0  0  0  0  0  0
    4.9202   -1.5643   26.8757 H   0  0  0  0  0  0  0  0  0  0  0  0
    5.3266    0.8655   27.3259 H   0  0  0  0  0  0  0  0  0  0  0  0
    7.4743    1.1793   23.6442 H   0  0  0  0  0  0  0  0  0  0  0  0
    7.5934   -3.5096   22.1428 H   0  0  0  0  0  0  0  0  0  0  0  0
    8.2245   -3.1117   23.7508 H   0  0  0  0  0  0  0  0  0  0  0  0
    5.4272   -5.0953   21.7743 C   0  0  0  0  0  0  0  0  0  0  0  0
    4.3928   -5.1848   22.8409 C   0  0  0  0  0  0  0  0  0  0  0  0
    4.0155   -6.1583   23.1385 H   0  0  0  0  0  0  0  0  0  0  0  0
    3.6764   -4.3740   22.8652 H   0  0  0  0  0  0  0  0  0  0  0  0
    5.3808   -4.2151   21.1435 H   0  0  0  0  0  0  0  0  0  0  0  0
    5.7713   -6.0184   21.3173 H   0  0  0  0  0  0  0  0  0  0  0  0
    7.7393   -4.6577   24.9405 H   0  0  0  0  0  0  0  0  0  0  0  0
    8.4242   -7.5071   24.6820 H   0  0  0  0  0  0  0  0  0  0  0  0
    9.6400   -6.2140   24.7660 H   0  0  0  0  0  0  0  0  0  0  0  0
    8.6777   -6.6071   26.2091 H   0  0  0  0  0  0  0  0  0  0  0  0
  1  2  1  0
  2  3  1  0
  3  4  2  0
  3  5  1  0
  5  6  1  0
  6  7  1  0
  8  7  1  1
  8  9  1  0
  9 10  2  0
  9 11  1  0
 11 12  1  0
 12 13  2  0
 13 14  1  0
 14 15  2  0
 15 16  1  0
 16 17  2  0
 17 18  1  0
 18 19  2  0
 19 20  1  0
 20 21  2  0
 20 22  1  0
 19 23  1  0
 18 24  1  0
 17 25  1  0
 15 26  1  0
 13 27  1  0
 11 28  1  0
 28 29  1  0
 29 30  1  0
 30 31  1  0
 30 32  1  0
 30 33  1  0
 29 34  1  1
 28 35  1  0
 28 36  1  0
  8 37  1  0
 37 38  2  0
 38 39  1  0
 39 40  1  0
 39 41  2  0
 41 42  1  0
 42 43  2  0
 43 44  1  0
 44 45  2  0
 42 46  1  0
 41 47  1  0
 38 48  1  0
  7 49  1  0
  7 50  1  0
  5 51  1  0
 51 52  1  0
 52 53  1  0
 52 54  1  0
 51 55  1  0
 51 56  1  0
  2 57  1  0
  1 58  1  0
  1 59  1  0
  1 60  1  0
 52  5  1  0
 44  6  1  0
 29  8  1  0
 43 37  1  0
 21 12  1  0
 21 16  1  0
M  END
>  <cnnaffinities>  (61) 
[6.3066, 6.71153]

>  <score>  (61) 
6.3066

>  <index>  (61) 
84

>  <Smiles>  (61) 
C(N(C(=O)C1(N2C([C@@]3(C(=O)N(c4c(nc(c5c(c(c(c(c45)[H])[H])[H])[H])[H])[H])C([C@@]3(C([H])([H])[H])[H])([H])[H])c3c(c(Cl)c(c(c3C2=O)[H])[H])[H])([H])[H])C(C1([H])[H])([H])[H])[H])([H])([H])[H]

>  <h>  (61) 
<NA>

>  <Training>  (61) 
True

>  <Success>  (61) 
True

>  <enamine_searched>  (61) 
False

>  <enamine_id>  (61) 
nan

$$$$

     RDKit          3D

 65 70  0  0  0  0  0  0  0  0999 V2000
    4.8419   -0.0709   28.0930 C   0  0  0  0  0  0  0  0  0  0  0  0
    5.1680    0.3807   26.7600 N   0  0  0  0  0  0  0  0  0  0  0  0
    6.2019    1.3733   26.6671 C   0  0  0  0  0  0  0  0  0  0  0  0
    6.4440    2.0641   27.6148 O   0  0  0  0  0  0  0  0  0  0  0  0
    6.4443    1.8763   25.1718 C   0  0  0  0  0  0  0  0  0  0  0  0
    7.5281    0.9988   24.6212 N   0  0  0  0  0  0  0  0  0  0  0  0
    7.3225   -0.3627   24.0882 C   0  0  0  0  0  0  0  0  0  0  0  0
    8.2334   -0.5314   22.8045 C   0  0  2  0  0  0  0  0  0  0  0  0
    7.6295    0.3936   21.6817 C   0  0  0  0  0  0  0  0  0  0  0  0
    7.7716    1.5815   21.6459 O   0  0  0  0  0  0  0  0  0  0  0  0
    6.9246   -0.4034   20.8434 N   0  0  0  0  0  0  0  0  0  0  0  0
    6.1366    0.0920   19.7668 C   0  0  0  0  0  0  0  0  0  0  0  0
    6.4253   -0.2186   18.4746 C   0  0  0  0  0  0  0  0  0  0  0  0
    5.7536    0.2429   17.3668 N   0  0  0  0  0  0  0  0  0  0  0  0
    4.7388    1.0285   17.5731 C   0  0  0  0  0  0  0  0  0  0  0  0
    4.2906    1.4225   18.8695 C   0  0  0  0  0  0  0  0  0  0  0  0
    3.1534    2.2829   19.0583 C   0  0  0  0  0  0  0  0  0  0  0  0
    2.7505    2.6120   20.3011 C   0  0  0  0  0  0  0  0  0  0  0  0
    3.4371    2.1107   21.4402 C   0  0  0  0  0  0  0  0  0  0  0  0
    4.5022    1.2984   21.2933 C   0  0  0  0  0  0  0  0  0  0  0  0
    4.9849    0.9390   19.9933 C   0  0  0  0  0  0  0  0  0  0  0  0
    5.0245    0.8909   22.1561 H   0  0  0  0  0  0  0  0  0  0  0  0
    3.0853    2.3792   22.4335 H   0  0  0  0  0  0  0  0  0  0  0  0
    1.8918    3.2617   20.4537 H   0  0  0  0  0  0  0  0  0  0  0  0
    2.6333    2.6528   18.1745 H   0  0  0  0  0  0  0  0  0  0  0  0
    4.1919    1.4034   16.7006 H   0  0  0  0  0  0  0  0  0  0  0  0
    7.2835   -0.8639   18.2644 H   0  0  0  0  0  0  0  0  0  0  0  0
    6.9067   -1.8099   21.2393 C   0  0  0  0  0  0  0  0  0  0  0  0
    8.0515   -1.9200   22.2673 C   0  0  2  0  0  0  0  0  0  0  0  0
    7.8258   -3.0497   23.3024 C   0  0  0  0  0  0  0  0  0  0  0  0
    7.8258   -4.3982   22.6556 N   0  0  0  0  0  0  0  0  0  0  0  0
    6.7347   -5.0860   22.2459 C   0  0  0  0  0  0  0  0  0  0  0  0
    5.4920   -4.6063   22.5644 N   0  0  0  0  0  0  0  0  0  0  0  0
    4.5025   -5.3745   22.1259 C   0  0  0  0  0  0  0  0  0  0  0  0
    4.5544   -6.5015   21.4430 N   0  0  0  0  0  0  0  0  0  0  0  0
    5.8113   -6.8371   21.1985 C   0  0  0  0  0  0  0  0  0  0  0  0
    6.9324   -6.2376   21.5380 N   0  0  0  0  0  0  0  0  0  0  0  0
    5.8962   -7.7868   20.5997 H   0  0  0  0  0  0  0  0  0  0  0  0
    3.4521   -5.0041   22.3687 H   0  0  0  0  0  0  0  0  0  0  0  0
    8.7645   -4.7034   22.4203 H   0  0  0  0  0  0  0  0  0  0  0  0
    8.6096   -2.9877   24.0741 H   0  0  0  0  0  0  0  0  0  0  0  0
    6.8653   -2.9252   23.8104 H   0  0  0  0  0  0  0  0  0  0  0  0
    8.9534   -2.1983   21.7196 H   0  0  0  0  0  0  0  0  0  0  0  0
    7.0874   -2.4560   20.3892 H   0  0  0  0  0  0  0  0  0  0  0  0
    5.9455   -2.0748   21.6862 H   0  0  0  0  0  0  0  0  0  0  0  0
    9.6651   -0.0603   23.0805 C   0  0  0  0  0  0  0  0  0  0  0  0
   10.6592   -0.3934   22.2709 C   0  0  0  0  0  0  0  0  0  0  0  0
   11.9031   -0.0866   22.5754 C   0  0  0  0  0  0  0  0  0  0  0  0
   12.5050   -1.0944   21.2421 Cl  0  0  0  0  0  0  0  0  0  0  0  0
   12.4077    0.8042   23.5400 C   0  0  0  0  0  0  0  0  0  0  0  0
   11.4311    1.1541   24.3601 C   0  0  0  0  0  0  0  0  0  0  0  0
    9.9155    0.8015   24.1623 C   0  0  0  0  0  0  0  0  0  0  0  0
    8.8148    1.3632   25.0902 C   0  0  0  0  0  0  0  0  0  0  0  0
    6.4443    1.8762   25.1719 O   0  0  0  0  0  0  0  0  0  0  0  0
   11.6539    1.8672   25.1408 H   0  0  0  0  0  0  0  0  0  0  0  0
   13.3831    1.1558   23.7662 H   0  0  0  0  0  0  0  0  0  0  0  0
   10.5562   -0.9684   21.3615 H   0  0  0  0  0  0  0  0  0  0  0  0
    6.2907   -0.4812   23.8560 H   0  0  0  0  0  0  0  0  0  0  0  0
    7.6643   -0.9815   24.9137 H   0  0  0  0  0  0  0  0  0  0  0  0
    5.4271    1.8682   24.3327 H   0  0  0  0  0  0  0  0  0  0  0  0
    6.5511    2.9037   24.9530 H   0  0  0  0  0  0  0  0  0  0  0  0
    4.7861   -0.1567   25.9734 H   0  0  0  0  0  0  0  0  0  0  0  0
    5.7416   -0.3505   28.6464 H   0  0  0  0  0  0  0  0  0  0  0  0
    4.1902   -0.9475   28.0443 H   0  0  0  0  0  0  0  0  0  0  0  0
    4.3210    0.7126   28.6430 H   0  0  0  0  0  0  0  0  0  0  0  0
  1  2  1  0
  2  3  1  0
  3  4  2  0
  3  5  1  0
  5  6  1  0
  6  7  1  0
  8  7  1  1
  8  9  1  0
  9 10  2  0
  9 11  1  0
 11 12  1  0
 12 13  2  0
 13 14  1  0
 14 15  2  0
 15 16  1  0
 16 17  2  0
 17 18  1  0
 18 19  2  0
 19 20  1  0
 20 21  2  0
 20 22  1  0
 19 23  1  0
 18 24  1  0
 17 25  1  0
 15 26  1  0
 13 27  1  0
 11 28  1  0
 28 29  1  0
 29 30  1  0
 30 31  1  0
 31 32  1  0
 32 33  2  0
 33 34  1  0
 34 35  2  0
 35 36  1  0
 36 37  2  0
 36 38  1  0
 34 39  1  0
 31 40  1  0
 30 41  1  0
 30 42  1  0
 29 43  1  6
 28 44  1  0
 28 45  1  0
  8 46  1  0
 46 47  2  0
 47 48  1  0
 48 49  1  0
 48 50  2  0
 50 51  1  0
 51 52  2  0
 52 53  1  0
 53 54  2  0
 51 55  1  0
 50 56  1  0
 47 57  1  0
  7 58  1  0
  7 59  1  0
  5 60  1  0
  5 61  1  0
  2 62  1  0
  1 63  1  0
  1 64  1  0
  1 65  1  0
 53  6  1  0
 29  8  1  0
 37 32  1  0
 52 46  1  0
 21 12  1  0
 21 16  1  0
M  END
>  <cnnaffinities>  (62) 
[6.03944]

>  <score>  (62) 
6.03944

>  <index>  (62) 
86

>  <Smiles>  (62) 
C(N(C(=O)C(N1C([C@@]2(C(=O)N(c3c(nc(c4c(c(c(c(c34)[H])[H])[H])[H])[H])[H])C([C@@]2(C(N(c2nc(nc(n2)[H])[H])[H])([H])[H])[H])([H])[H])c2c(c(Cl)c(c(c2C1=O)[H])[H])[H])([H])[H])([H])[H])[H])([H])([H])[H]

>  <h>  (62) 
<NA>

>  <Training>  (62) 
True

>  <Success>  (62) 
True

>  <enamine_searched>  (62) 
False

>  <enamine_id>  (62) 
nan

$$$$

     RDKit          3D

 64 68  0  0  0  0  0  0  0  0999 V2000
    1.1655   -3.8535   27.2849 C   0  0  0  0  0  0  0  0  0  0  0  0
    1.7100   -3.7259   25.8576 C   0  0  0  0  0  0  0  0  0  0  0  0
    3.2011   -4.0026   25.7088 C   0  0  0  0  0  0  0  0  0  0  0  0
    3.9876   -3.1044   25.9774 O   0  0  0  0  0  0  0  0  0  0  0  0
    3.6207   -5.1171   24.9886 N   0  0  0  0  0  0  0  0  0  0  0  0
    2.8412   -6.3566   25.0467 C   0  0  0  0  0  0  0  0  0  0  0  0
    3.7685   -7.5685   25.1876 C   0  0  0  0  0  0  0  0  0  0  0  0
    4.8603   -7.5747   24.1056 C   0  0  0  0  0  0  0  0  0  0  0  0
    5.4554   -6.2145   23.8202 C   0  0  0  0  0  0  0  0  0  0  0  0
    6.6385   -6.1142   23.0671 C   0  0  0  0  0  0  0  0  0  0  0  0
    7.1308   -4.8551   22.6899 C   0  0  0  0  0  0  0  0  0  0  0  0
    6.4517   -3.6962   23.0486 C   0  0  0  0  0  0  0  0  0  0  0  0
    6.9169   -2.4505   22.6147 N   0  0  0  0  0  0  0  0  0  0  0  0
    8.0302   -1.8548   23.3591 C   0  0  0  0  0  0  0  0  0  0  0  0
    7.4929   -1.3938   24.6907 C   0  0  0  0  0  0  0  0  0  0  0  0
    7.5794   -2.2301   25.8148 C   0  0  0  0  0  0  0  0  0  0  0  0
    7.0061   -1.8480   27.0331 C   0  0  0  0  0  0  0  0  0  0  0  0
    6.3347   -0.6247   27.1319 C   0  0  0  0  0  0  0  0  0  0  0  0
    6.2456    0.2214   26.0224 C   0  0  0  0  0  0  0  0  0  0  0  0
    5.3295    1.8942   26.1638 Br  0  0  0  0  0  0  0  0  0  0  0  0
    6.8291   -0.1635   24.8101 C   0  0  0  0  0  0  0  0  0  0  0  0
    6.7410    0.4938   23.9525 H   0  0  0  0  0  0  0  0  0  0  0  0
    5.8831   -0.3231   28.0719 H   0  0  0  0  0  0  0  0  0  0  0  0
    7.0782   -2.5025   27.8980 H   0  0  0  0  0  0  0  0  0  0  0  0
    8.0775   -3.1916   25.7374 H   0  0  0  0  0  0  0  0  0  0  0  0
    8.8310   -2.5898   23.5138 H   0  0  0  0  0  0  0  0  0  0  0  0
    8.4706   -1.0087   22.8195 H   0  0  0  0  0  0  0  0  0  0  0  0
    6.2526   -1.7615   21.5962 C   0  0  0  0  0  0  0  0  0  0  0  0
    5.2035   -2.2103   21.1336 O   0  0  0  0  0  0  0  0  0  0  0  0
    6.8886   -0.5100   20.9433 C   0  0  0  0  0  0  0  0  0  0  0  0
    6.0990    0.0857   19.7649 C   0  0  0  0  0  0  0  0  0  0  0  0
    6.4498   -0.2058   18.4309 C   0  0  0  0  0  0  0  0  0  0  0  0
    5.7886    0.2639   17.3564 N   0  0  0  0  0  0  0  0  0  0  0  0
    4.7265    1.0600   17.5713 C   0  0  0  0  0  0  0  0  0  0  0  0
    4.2972    1.4217   18.8491 C   0  0  0  0  0  0  0  0  0  0  0  0
    3.1861    2.2649   19.0171 C   0  0  0  0  0  0  0  0  0  0  0  0
    2.7701    2.6133   20.3035 C   0  0  0  0  0  0  0  0  0  0  0  0
    3.4560    2.1270   21.4192 C   0  0  0  0  0  0  0  0  0  0  0  0
    4.5645    1.2879   21.2504 C   0  0  0  0  0  0  0  0  0  0  0  0
    4.9931    0.9286   19.9687 C   0  0  0  0  0  0  0  0  0  0  0  0
    5.1002    0.9072   22.1122 H   0  0  0  0  0  0  0  0  0  0  0  0
    3.1240    2.3944   22.4178 H   0  0  0  0  0  0  0  0  0  0  0  0
    1.9131    3.2658   20.4367 H   0  0  0  0  0  0  0  0  0  0  0  0
    2.6474    2.6555   18.1577 H   0  0  0  0  0  0  0  0  0  0  0  0
    4.1672    1.4302   16.7169 H   0  0  0  0  0  0  0  0  0  0  0  0
    7.3039   -0.8505   18.2515 H   0  0  0  0  0  0  0  0  0  0  0  0
    7.8882   -0.7937   20.6040 H   0  0  0  0  0  0  0  0  0  0  0  0
    7.0280    0.2608   21.7076 H   0  0  0  0  0  0  0  0  0  0  0  0
    5.2937   -3.7958   23.8152 C   0  0  0  0  0  0  0  0  0  0  0  0
    4.7911   -5.0455   24.2196 C   0  0  0  0  0  0  0  0  0  0  0  0
    4.7884   -2.8804   24.0934 H   0  0  0  0  0  0  0  0  0  0  0  0
    8.0206   -4.7528   22.0762 H   0  0  0  0  0  0  0  0  0  0  0  0
    7.1501   -7.0171   22.7491 H   0  0  0  0  0  0  0  0  0  0  0  0
    5.6515   -8.2915   24.3713 H   0  0  0  0  0  0  0  0  0  0  0  0
    4.3902   -7.9014   23.1824 H   0  0  0  0  0  0  0  0  0  0  0  0
    4.2159   -7.5956   26.1818 H   0  0  0  0  0  0  0  0  0  0  0  0
    3.1723   -8.4791   25.0925 H   0  0  0  0  0  0  0  0  0  0  0  0
    2.1555   -6.3369   25.9026 H   0  0  0  0  0  0  0  0  0  0  0  0
    2.2316   -6.4774   24.1456 H   0  0  0  0  0  0  0  0  0  0  0  0
    1.1596   -4.4032   25.2010 H   0  0  0  0  0  0  0  0  0  0  0  0
    1.5453   -2.7072   25.4980 H   0  0  0  0  0  0  0  0  0  0  0  0
    1.3035   -4.8646   27.6786 H   0  0  0  0  0  0  0  0  0  0  0  0
    1.6608   -3.1440   27.9528 H   0  0  0  0  0  0  0  0  0  0  0  0
    0.0947   -3.6319   27.2900 H   0  0  0  0  0  0  0  0  0  0  0  0
  1  2  1  0
  2  3  1  0
  3  4  2  0
  3  5  1  0
  5  6  1  0
  6  7  1  0
  7  8  1  0
  8  9  1  0
  9 10  2  0
 10 11  1  0
 11 12  2  0
 12 13  1  0
 13 14  1  0
 14 15  1  0
 15 16  2  0
 16 17  1  0
 17 18  2  0
 18 19  1  0
 19 20  1  0
 19 21  2  0
 21 22  1  0
 18 23  1  0
 17 24  1  0
 16 25  1  0
 14 26  1  0
 14 27  1  0
 13 28  1  0
 28 29  2  0
 28 30  1  0
 30 31  1  0
 31 32  2  0
 32 33  1  0
 33 34  2  0
 34 35  1  0
 35 36  2  0
 36 37  1  0
 37 38  2  0
 38 39  1  0
 39 40  2  0
 39 41  1  0
 38 42  1  0
 37 43  1  0
 36 44  1  0
 34 45  1  0
 32 46  1  0
 30 47  1  0
 30 48  1  0
 12 49  1  0
 49 50  2  0
 49 51  1  0
 11 52  1  0
 10 53  1  0
  8 54  1  0
  8 55  1  0
  7 56  1  0
  7 57  1  0
  6 58  1  0
  6 59  1  0
  2 60  1  0
  2 61  1  0
  1 62  1  0
  1 63  1  0
  1 64  1  0
 50  5  1  0
 50  9  1  0
 21 15  1  0
 40 31  1  0
 40 35  1  0
M  END
>  <cnnaffinities>  (63) 
[6.63438, 6.09784, 6.64324]

>  <score>  (63) 
6.63438

>  <index>  (63) 
88

>  <Smiles>  (63) 
C(C(C(=O)N1C(C(C(c2c(c(c(N(C(c3c(c(c(c(Br)c3[H])[H])[H])[H])([H])[H])C(=O)C(c3c(nc(c4c(c(c(c(c34)[H])[H])[H])[H])[H])[H])([H])[H])c(c12)[H])[H])[H])([H])[H])([H])[H])([H])[H])([H])[H])([H])([H])[H]

>  <h>  (63) 
<NA>

>  <Training>  (63) 
True

>  <Success>  (63) 
True

>  <enamine_searched>  (63) 
False

>  <enamine_id>  (63) 
nan

$$$$

     RDKit          3D

 38 40  0  0  0  0  0  0  0  0999 V2000
    5.0979   -1.9794   21.3860 O   0  0  0  0  0  0  0  0  0  0  0  0
    6.2963   -1.7851   21.4741 C   0  0  0  0  0  0  0  0  0  0  0  0
    6.9399   -0.5053   20.8931 C   0  0  0  0  0  0  0  0  0  0  0  0
    6.1182    0.0900   19.7700 C   0  0  0  0  0  0  0  0  0  0  0  0
    6.4235   -0.2107   18.4685 C   0  0  0  0  0  0  0  0  0  0  0  0
    5.7592    0.2373   17.3699 N   0  0  0  0  0  0  0  0  0  0  0  0
    4.7358    1.0296   17.5785 C   0  0  0  0  0  0  0  0  0  0  0  0
    4.2873    1.4199   18.8676 C   0  0  0  0  0  0  0  0  0  0  0  0
    3.1658    2.2721   19.0420 C   0  0  0  0  0  0  0  0  0  0  0  0
    2.7468    2.6248   20.2964 C   0  0  0  0  0  0  0  0  0  0  0  0
    3.4364    2.1375   21.4295 C   0  0  0  0  0  0  0  0  0  0  0  0
    4.5254    1.3117   21.2866 C   0  0  0  0  0  0  0  0  0  0  0  0
    4.9885    0.9342   19.9997 C   0  0  0  0  0  0  0  0  0  0  0  0
    5.0268    0.9234   22.1672 H   0  0  0  0  0  0  0  0  0  0  0  0
    3.0931    2.4133   22.4222 H   0  0  0  0  0  0  0  0  0  0  0  0
    1.8877    3.2787   20.4317 H   0  0  0  0  0  0  0  0  0  0  0  0
    2.6497    2.6450   18.1597 H   0  0  0  0  0  0  0  0  0  0  0  0
    4.2022    1.3973   16.6991 H   0  0  0  0  0  0  0  0  0  0  0  0
    7.2636   -0.8655   18.2441 H   0  0  0  0  0  0  0  0  0  0  0  0
    7.0802    0.2301   21.6977 H   0  0  0  0  0  0  0  0  0  0  0  0
    7.9439   -0.7505   20.5155 H   0  0  0  0  0  0  0  0  0  0  0  0
    7.1308   -2.7333   22.0339 N   0  0  0  0  0  0  0  0  0  0  0  0
    6.5954   -4.0783   22.2147 C   0  0  0  0  0  0  0  0  0  0  0  0
    5.8789   -4.3497   23.5181 C   0  0  0  0  0  0  0  0  0  0  0  0
    6.2181   -3.8311   24.6955 C   0  0  0  0  0  0  0  0  0  0  0  0
    7.3495   -2.8630   24.9405 C   0  0  0  0  0  0  0  0  0  0  0  0
    8.5720   -3.0629   24.0416 C   0  0  0  0  0  0  0  0  0  0  0  0
    8.4258   -2.4582   22.6401 C   0  0  0  0  0  0  0  0  0  0  0  0
    9.2364   -2.8298   21.9978 H   0  0  0  0  0  0  0  0  0  0  0  0
    8.5435   -1.3748   22.7193 H   0  0  0  0  0  0  0  0  0  0  0  0
    9.4478   -2.6045   24.5138 H   0  0  0  0  0  0  0  0  0  0  0  0
    8.8154   -4.1271   23.9825 H   0  0  0  0  0  0  0  0  0  0  0  0
    7.6435   -2.9244   25.9947 H   0  0  0  0  0  0  0  0  0  0  0  0
    6.9840   -1.8400   24.7993 H   0  0  0  0  0  0  0  0  0  0  0  0
    5.6461   -4.1348   25.5703 H   0  0  0  0  0  0  0  0  0  0  0  0
    5.0148   -5.0139   23.4655 H   0  0  0  0  0  0  0  0  0  0  0  0
    7.4363   -4.7733   22.1233 H   0  0  0  0  0  0  0  0  0  0  0  0
    5.9320   -4.3002   21.3784 H   0  0  0  0  0  0  0  0  0  0  0  0
  1  2  2  0
  2  3  1  0
  3  4  1  0
  4  5  2  0
  5  6  1  0
  6  7  2  0
  7  8  1  0
  8  9  2  0
  9 10  1  0
 10 11  2  0
 11 12  1  0
 12 13  2  0
 12 14  1  0
 11 15  1  0
 10 16  1  0
  9 17  1  0
  7 18  1  0
  5 19  1  0
  3 20  1  0
  3 21  1  0
  2 22  1  0
 22 23  1  0
 23 24  1  0
 24 25  2  0
 25 26  1  0
 26 27  1  0
 27 28  1  0
 28 29  1  0
 28 30  1  0
 27 31  1  0
 27 32  1  0
 26 33  1  0
 26 34  1  0
 25 35  1  0
 24 36  1  0
 23 37  1  0
 23 38  1  0
 13  4  1  0
 28 22  1  0
 13  8  1  0
M  END
>  <cnnaffinities>  (64) 
[5.14099, 5.13587, 4.72576, 4.75277, 4.49872, 5.16233]

>  <score>  (64) 
5.14099

>  <index>  (64) 
89

>  <Smiles>  (64) 
O=C(C(c1c(nc(c2c(c(c(c(c12)[H])[H])[H])[H])[H])[H])([H])[H])N1C(C(=C(C(C(C1([H])[H])([H])[H])([H])[H])[H])[H])([H])[H]

>  <h>  (64) 
<NA>

>  <Training>  (64) 
True

>  <Success>  (64) 
True

>  <enamine_searched>  (64) 
False

>  <enamine_id>  (64) 
nan

$$$$

     RDKit          3D

 62 67  0  0  0  0  0  0  0  0999 V2000
    9.9615   -1.4952   22.4722 C   0  0  0  0  0  0  0  0  0  0  0  0
    8.5633   -0.8939   22.3557 C   0  0  1  0  0  0  0  0  0  0  0  0
    8.2855   -0.3656   20.9385 C   0  0  0  0  0  0  0  0  0  0  0  0
    6.8416   -0.4276   20.8447 N   0  0  0  0  0  0  0  0  0  0  0  0
    6.1168    0.1002   19.7573 C   0  0  0  0  0  0  0  0  0  0  0  0
    6.4760   -0.1908   18.4667 C   0  0  0  0  0  0  0  0  0  0  0  0
    5.8158    0.2512   17.3686 N   0  0  0  0  0  0  0  0  0  0  0  0
    4.7712    1.0226   17.5678 C   0  0  0  0  0  0  0  0  0  0  0  0
    4.3085    1.4224   18.8543 C   0  0  0  0  0  0  0  0  0  0  0  0
    3.1910    2.2832   19.0126 C   0  0  0  0  0  0  0  0  0  0  0  0
    2.7852    2.6716   20.2637 C   0  0  0  0  0  0  0  0  0  0  0  0
    3.4813    2.2211   21.4071 C   0  0  0  0  0  0  0  0  0  0  0  0
    4.5619    1.3878   21.2802 C   0  0  0  0  0  0  0  0  0  0  0  0
    4.9967    0.9571   19.9926 C   0  0  0  0  0  0  0  0  0  0  0  0
    5.0950    1.0410   22.1602 H   0  0  0  0  0  0  0  0  0  0  0  0
    3.1523    2.5404   22.3937 H   0  0  0  0  0  0  0  0  0  0  0  0
    1.9319    3.3333   20.3808 H   0  0  0  0  0  0  0  0  0  0  0  0
    2.6766    2.6293   18.1217 H   0  0  0  0  0  0  0  0  0  0  0  0
    4.2388    1.3774   16.6853 H   0  0  0  0  0  0  0  0  0  0  0  0
    7.3274   -0.8431   18.2720 H   0  0  0  0  0  0  0  0  0  0  0  0
    6.2953   -1.3818   21.6766 C   0  0  0  0  0  0  0  0  0  0  0  0
    5.1732   -1.8316   21.5458 O   0  0  0  0  0  0  0  0  0  0  0  0
    7.3692   -1.8377   22.6953 C   0  0  1  0  0  0  0  0  0  0  0  0
    7.6884   -3.3103   22.3499 C   0  0  0  0  0  0  0  0  0  0  0  0
    6.5946   -4.1684   22.7419 N   0  0  0  0  0  0  0  0  0  0  0  0
    5.9735   -5.0462   21.7594 C   0  0  0  0  0  0  0  0  0  0  0  0
    6.7978   -6.3078   21.5794 C   0  0  0  0  0  0  0  0  0  0  0  0
    7.0012   -6.9294   22.9090 N   0  0  0  0  0  4  0  0  0  0  0  0
    5.9695   -7.9437   23.3387 C   0  0  0  0  0  0  0  0  0  0  0  0
    7.0230   -9.0855   23.3543 C   0  0  0  0  0  0  0  0  0  0  0  0
    8.0593   -7.9862   23.0489 C   0  0  0  0  0  0  0  0  0  0  0  0
    8.6091   -8.0732   22.1142 H   0  0  0  0  0  0  0  0  0  0  0  0
    8.7371   -7.7418   23.8631 H   0  0  0  0  0  0  0  0  0  0  0  0
    7.0060   -9.8220   22.5567 H   0  0  0  0  0  0  0  0  0  0  0  0
    7.1232   -9.6135   24.2975 H   0  0  0  0  0  0  0  0  0  0  0  0
    5.6209   -7.6818   24.3286 H   0  0  0  0  0  0  0  0  0  0  0  0
    5.1155   -7.9676   22.6672 H   0  0  0  0  0  0  0  0  0  0  0  0
    7.0881   -6.1872   23.6038 H   0  0  0  0  0  0  0  0  0  0  0  0
    6.3204   -7.0125   20.8938 H   0  0  0  0  0  0  0  0  0  0  0  0
    7.7753   -6.0463   21.1679 H   0  0  0  0  0  0  0  0  0  0  0  0
    5.8756   -4.4966   20.8173 H   0  0  0  0  0  0  0  0  0  0  0  0
    4.9589   -5.2644   22.1106 H   0  0  0  0  0  0  0  0  0  0  0  0
    6.2574   -4.2123   24.0535 C   0  0  0  0  0  0  0  0  0  0  0  0
    5.8634   -5.2400   24.6122 O   0  0  0  0  0  0  0  0  0  0  0  0
    6.3814   -2.9260   24.7834 C   0  0  0  0  0  0  0  0  0  0  0  0
    5.9218   -2.8970   26.0989 C   0  0  0  0  0  0  0  0  0  0  0  0
    5.9072   -1.7153   26.8067 C   0  0  0  0  0  0  0  0  0  0  0  0
    6.3700   -0.5683   26.1637 C   0  0  0  0  0  0  0  0  0  0  0  0
    6.3458    0.9359   27.0344 Cl  0  0  0  0  0  0  0  0  0  0  0  0
    6.8496   -0.5828   24.8652 C   0  0  0  0  0  0  0  0  0  0  0  0
    6.8795   -1.7832   24.1392 C   0  0  0  0  0  0  0  0  0  0  0  0
    7.1814    0.3506   24.4242 H   0  0  0  0  0  0  0  0  0  0  0  0
    5.5340   -1.6706   27.8252 H   0  0  0  0  0  0  0  0  0  0  0  0
    5.5567   -3.8186   26.5376 H   0  0  0  0  0  0  0  0  0  0  0  0
    7.8546   -3.4076   21.2784 H   0  0  0  0  0  0  0  0  0  0  0  0
    8.5993   -3.6297   22.8757 H   0  0  0  0  0  0  0  0  0  0  0  0
    8.7757   -0.9928   20.1762 H   0  0  0  0  0  0  0  0  0  0  0  0
    8.6304    0.6636   20.7983 H   0  0  0  0  0  0  0  0  0  0  0  0
    8.4892   -0.0409   23.0334 H   0  0  0  0  0  0  0  0  0  0  0  0
   10.1015   -2.2957   21.7357 H   0  0  0  0  0  0  0  0  0  0  0  0
   10.1412   -1.9197   23.4653 H   0  0  0  0  0  0  0  0  0  0  0  0
   10.7327   -0.7413   22.2799 H   0  0  0  0  0  0  0  0  0  0  0  0
  1  2  1  0
  2  3  1  0
  3  4  1  0
  4  5  1  0
  5  6  2  0
  6  7  1  0
  7  8  2  0
  8  9  1  0
  9 10  2  0
 10 11  1  0
 11 12  2  0
 12 13  1  0
 13 14  2  0
 13 15  1  0
 12 16  1  0
 11 17  1  0
 10 18  1  0
  8 19  1  0
  6 20  1  0
  4 21  1  0
 21 22  2  0
 21 23  1  0
 23 24  1  6
 24 25  1  0
 25 26  1  0
 26 27  1  0
 27 28  1  0
 28 29  1  0
 29 30  1  0
 30 31  1  0
 31 32  1  0
 31 33  1  0
 30 34  1  0
 30 35  1  0
 29 36  1  0
 29 37  1  0
 28 38  1  0
 27 39  1  0
 27 40  1  0
 26 41  1  0
 26 42  1  0
 25 43  1  0
 43 44  2  0
 43 45  1  0
 45 46  2  0
 46 47  1  0
 47 48  2  0
 48 49  1  0
 48 50  1  0
 50 51  2  0
 50 52  1  0
 47 53  1  0
 46 54  1  0
 24 55  1  0
 24 56  1  0
  3 57  1  0
  3 58  1  0
  2 59  1  1
  1 60  1  0
  1 61  1  0
  1 62  1  0
 23  2  1  0
 31 28  1  0
 51 45  1  0
 14  5  1  0
 51 23  1  0
 14  9  1  0
M  CHG  1  28   1
M  END
>  <cnnaffinities>  (65) 
[6.50289, 6.31419]

>  <score>  (65) 
6.50289

>  <index>  (65) 
90

>  <Smiles>  (65) 
C([C@]1(C(N(c2c(nc(c3c(c(c(c(c23)[H])[H])[H])[H])[H])[H])C(=O)[C@]21C(N(C(C([N+]1(C(C(C1([H])[H])([H])[H])([H])[H])[H])([H])[H])([H])[H])C(=O)c1c(c(c(Cl)c(c21)[H])[H])[H])([H])[H])([H])[H])[H])([H])([H])[H]

>  <h>  (65) 
<NA>

>  <Training>  (65) 
True

>  <Success>  (65) 
True

>  <enamine_searched>  (65) 
False

>  <enamine_id>  (65) 
nan

$$$$

     RDKit          3D

 47 50  0  0  0  0  0  0  0  0999 V2000
    5.5695   -2.4588   20.9395 O   0  0  0  0  0  0  0  0  0  0  0  0
    6.1424   -1.6129   21.5942 C   0  0  0  0  0  0  0  0  0  0  0  0
    6.9161   -0.4791   20.9084 C   0  0  0  0  0  0  0  0  0  0  0  0
    6.1188    0.0947   19.7618 C   0  0  0  0  0  0  0  0  0  0  0  0
    6.4232   -0.2135   18.4611 C   0  0  0  0  0  0  0  0  0  0  0  0
    5.7589    0.2392   17.3616 N   0  0  0  0  0  0  0  0  0  0  0  0
    4.7354    1.0302   17.5755 C   0  0  0  0  0  0  0  0  0  0  0  0
    4.2879    1.4215   18.8667 C   0  0  0  0  0  0  0  0  0  0  0  0
    3.1664    2.2718   19.0441 C   0  0  0  0  0  0  0  0  0  0  0  0
    2.7509    2.6276   20.2993 C   0  0  0  0  0  0  0  0  0  0  0  0
    3.4466    2.1435   21.4315 C   0  0  0  0  0  0  0  0  0  0  0  0
    4.5356    1.3188   21.2872 C   0  0  0  0  0  0  0  0  0  0  0  0
    4.9920    0.9388   19.9961 C   0  0  0  0  0  0  0  0  0  0  0  0
    5.0516    0.9527   22.1711 H   0  0  0  0  0  0  0  0  0  0  0  0
    3.1093    2.4271   22.4227 H   0  0  0  0  0  0  0  0  0  0  0  0
    1.8932    3.2814   20.4360 H   0  0  0  0  0  0  0  0  0  0  0  0
    2.6482    2.6429   18.1634 H   0  0  0  0  0  0  0  0  0  0  0  0
    4.2005    1.3983   16.6983 H   0  0  0  0  0  0  0  0  0  0  0  0
    7.2659   -0.8665   18.2414 H   0  0  0  0  0  0  0  0  0  0  0  0
    7.2032    0.2986   21.6235 H   0  0  0  0  0  0  0  0  0  0  0  0
    7.8439   -0.9205   20.5305 H   0  0  0  0  0  0  0  0  0  0  0  0
    6.0652   -1.6467   22.9924 N   0  0  0  0  0  0  0  0  0  0  0  0
    4.8990   -2.2925   23.4865 C   0  0  0  0  0  0  0  0  0  0  0  0
    4.8660   -3.4759   24.1013 C   0  0  0  0  0  0  0  0  0  0  0  0
    6.0413   -4.2467   24.5090 C   0  0  0  0  0  0  0  0  0  0  0  0
    6.9971   -3.7804   25.3302 C   0  0  0  0  0  0  0  0  0  0  0  0
    6.9489   -2.4611   25.9796 C   0  0  0  0  0  0  0  0  0  0  0  0
    6.8202   -1.2797   25.3660 C   0  0  0  0  0  0  0  0  0  0  0  0
    7.0412   -0.9835   23.8894 C   0  0  1  0  0  0  0  0  0  0  0  0
    8.4964   -1.2717   23.4996 C   0  0  0  0  0  0  0  0  0  0  0  0
    9.4657   -0.3014   23.7622 C   0  0  0  0  0  0  0  0  0  0  0  0
   10.8088   -0.5165   23.4647 C   0  0  0  0  0  0  0  0  0  0  0  0
   11.2069   -1.7271   22.9088 C   0  0  0  0  0  0  0  0  0  0  0  0
   10.2513   -2.7100   22.6728 C   0  0  0  0  0  0  0  0  0  0  0  0
    8.9071   -2.4899   22.9652 C   0  0  0  0  0  0  0  0  0  0  0  0
    8.1738   -3.2727   22.7879 H   0  0  0  0  0  0  0  0  0  0  0  0
   10.5571   -3.6577   22.2504 H   0  0  0  0  0  0  0  0  0  0  0  0
   12.2508   -1.9085   22.6609 H   0  0  0  0  0  0  0  0  0  0  0  0
   11.5422    0.2610   23.6580 H   0  0  0  0  0  0  0  0  0  0  0  0
    9.1692    0.6435   24.2102 H   0  0  0  0  0  0  0  0  0  0  0  0
    6.8884    0.0993   23.7800 H   0  0  0  0  0  0  0  0  0  0  0  0
    6.7399   -0.3966   25.9980 H   0  0  0  0  0  0  0  0  0  0  0  0
    6.9896   -2.5001   27.0722 H   0  0  0  0  0  0  0  0  0  0  0  0
    7.8317   -4.4248   25.6023 H   0  0  0  0  0  0  0  0  0  0  0  0
    6.0865   -5.2742   24.1490 H   0  0  0  0  0  0  0  0  0  0  0  0
    3.8922   -3.9110   24.3324 H   0  0  0  0  0  0  0  0  0  0  0  0
    3.9699   -1.7654   23.2681 H   0  0  0  0  0  0  0  0  0  0  0  0
  1  2  2  0
  2  3  1  0
  3  4  1  0
  4  5  2  0
  5  6  1  0
  6  7  2  0
  7  8  1  0
  8  9  2  0
  9 10  1  0
 10 11  2  0
 11 12  1  0
 12 13  2  0
 12 14  1  0
 11 15  1  0
 10 16  1  0
  9 17  1  0
  7 18  1  0
  5 19  1  0
  3 20  1  0
  3 21  1  0
  2 22  1  0
 22 23  1  0
 23 24  2  3
 24 25  1  0
 25 26  2  3
 26 27  1  0
 27 28  2  3
 28 29  1  0
 29 30  1  0
 30 31  2  0
 31 32  1  0
 32 33  2  0
 33 34  1  0
 34 35  2  0
 35 36  1  0
 34 37  1  0
 33 38  1  0
 32 39  1  0
 31 40  1  0
 29 41  1  1
 28 42  1  0
 27 43  1  0
 26 44  1  0
 25 45  1  0
 24 46  1  0
 23 47  1  0
 13  4  1  0
 29 22  1  0
 35 30  1  0
 13  8  1  0
M  END
>  <cnnaffinities>  (66) 
[6.0987, 6.09876, 5.5695, 5.56926, 5.67132, 5.67165]

>  <score>  (66) 
6.0987

>  <index>  (66) 
92

>  <Smiles>  (66) 
O=C(C(c1c(nc(c2c(c(c(c(c12)[H])[H])[H])[H])[H])[H])([H])[H])N1C(=C(C(=C(C(=C([C@]1(c1c(c(c(c(c1[H])[H])[H])[H])[H])[H])[H])[H])[H])[H])[H])[H]

>  <h>  (66) 
<NA>

>  <Training>  (66) 
True

>  <Success>  (66) 
True

>  <enamine_searched>  (66) 
False

>  <enamine_id>  (66) 
nan

$$$$

     RDKit          3D

 58 62  0  0  0  0  0  0  0  0999 V2000
    2.7446   -5.4118   23.4146 C   0  0  0  0  0  0  0  0  0  0  0  0
    3.5802   -4.4979   22.5895 N   0  0  0  0  0  4  0  0  0  0  0  0
    4.9067   -5.0862   22.2179 C   0  0  0  0  0  0  0  0  0  0  0  0
    5.9099   -5.0693   23.3812 C   0  0  0  0  0  0  0  0  0  0  0  0
    6.2975   -3.7210   23.7661 N   0  0  0  0  0  0  0  0  0  0  0  0
    7.4793   -3.1548   23.1427 C   0  0  0  0  0  0  0  0  0  0  0  0
    7.3344   -1.6445   22.8695 C   0  0  2  0  0  0  0  0  0  0  0  0
    6.3039   -1.3980   21.7412 C   0  0  0  0  0  0  0  0  0  0  0  0
    5.1836   -1.8720   21.6633 O   0  0  0  0  0  0  0  0  0  0  0  0
    6.8467   -0.5111   20.8427 N   0  0  0  0  0  0  0  0  0  0  0  0
    6.0955    0.0449   19.7737 C   0  0  0  0  0  0  0  0  0  0  0  0
    6.4445   -0.2264   18.4756 C   0  0  0  0  0  0  0  0  0  0  0  0
    5.7872    0.2439   17.3872 N   0  0  0  0  0  0  0  0  0  0  0  0
    4.7541    1.0222   17.6012 C   0  0  0  0  0  0  0  0  0  0  0  0
    4.2978    1.4105   18.8914 C   0  0  0  0  0  0  0  0  0  0  0  0
    3.1833    2.2762   19.0600 C   0  0  0  0  0  0  0  0  0  0  0  0
    2.7862    2.6558   20.3105 C   0  0  0  0  0  0  0  0  0  0  0  0
    3.4927    2.2001   21.4465 C   0  0  0  0  0  0  0  0  0  0  0  0
    4.5708    1.3629   21.3143 C   0  0  0  0  0  0  0  0  0  0  0  0
    4.9908    0.9246   20.0230 C   0  0  0  0  0  0  0  0  0  0  0  0
    5.1032    1.0141   22.1999 H   0  0  0  0  0  0  0  0  0  0  0  0
    3.1635    2.5087   22.4364 H   0  0  0  0  0  0  0  0  0  0  0  0
    1.9296    3.3164   20.4363 H   0  0  0  0  0  0  0  0  0  0  0  0
    2.6713    2.6335   18.1698 H   0  0  0  0  0  0  0  0  0  0  0  0
    4.2221    1.3821   16.7211 H   0  0  0  0  0  0  0  0  0  0  0  0
    7.2957   -0.8731   18.2630 H   0  0  0  0  0  0  0  0  0  0  0  0
    8.1961   -0.0797   21.1564 C   0  0  0  0  0  0  0  0  0  0  0  0
    8.6499   -0.9939   22.3180 C   0  0  2  0  0  0  0  0  0  0  0  0
    9.7419   -1.9665   21.8261 C   0  0  0  0  0  0  0  0  0  0  0  0
   10.5985   -1.4043   21.4305 H   0  0  0  0  0  0  0  0  0  0  0  0
   10.1219   -2.6002   22.6341 H   0  0  0  0  0  0  0  0  0  0  0  0
    9.3782   -2.6180   21.0215 H   0  0  0  0  0  0  0  0  0  0  0  0
    9.1115   -0.3975   23.1160 H   0  0  0  0  0  0  0  0  0  0  0  0
    8.8493   -0.2111   20.2913 H   0  0  0  0  0  0  0  0  0  0  0  0
    8.2244    0.9890   21.4214 H   0  0  0  0  0  0  0  0  0  0  0  0
    6.8283   -0.9728   24.1421 C   0  0  0  0  0  0  0  0  0  0  0  0
    7.0090    0.4054   24.3373 C   0  0  0  0  0  0  0  0  0  0  0  0
    6.4937    1.0012   25.4705 C   0  0  0  0  0  0  0  0  0  0  0  0
    6.6826    2.3190   25.6642 F   0  0  0  0  0  0  0  0  0  0  0  0
    5.7825    0.2878   26.4255 C   0  0  0  0  0  0  0  0  0  0  0  0
    5.5729   -1.0615   26.2179 C   0  0  0  0  0  0  0  0  0  0  0  0
    6.0763   -1.6933   25.0817 C   0  0  0  0  0  0  0  0  0  0  0  0
    5.7147   -3.1371   24.8493 C   0  0  0  0  0  0  0  0  0  0  0  0
    4.9004   -3.7302   25.5495 O   0  0  0  0  0  0  0  0  0  0  0  0
    4.9983   -1.6656   26.9113 H   0  0  0  0  0  0  0  0  0  0  0  0
    5.4020    0.8106   27.2934 H   0  0  0  0  0  0  0  0  0  0  0  0
    7.5366    1.0417   23.6330 H   0  0  0  0  0  0  0  0  0  0  0  0
    8.3674   -3.3077   23.7795 H   0  0  0  0  0  0  0  0  0  0  0  0
    7.6191   -3.6755   22.1928 H   0  0  0  0  0  0  0  0  0  0  0  0
    6.8146   -5.6083   23.0797 H   0  0  0  0  0  0  0  0  0  0  0  0
    5.5005   -5.5534   24.2710 H   0  0  0  0  0  0  0  0  0  0  0  0
    5.2879   -4.4863   21.3960 H   0  0  0  0  0  0  0  0  0  0  0  0
    4.7559   -6.1143   21.8828 H   0  0  0  0  0  0  0  0  0  0  0  0
    3.0511   -4.2573   21.7259 H   0  0  0  0  0  0  0  0  0  0  0  0
    3.7822   -3.6088   23.1030 H   0  0  0  0  0  0  0  0  0  0  0  0
    3.2113   -5.5797   24.3849 H   0  0  0  0  0  0  0  0  0  0  0  0
    2.6319   -6.3815   22.9182 H   0  0  0  0  0  0  0  0  0  0  0  0
    1.7547   -4.9840   23.5619 H   0  0  0  0  0  0  0  0  0  0  0  0
  1  2  1  0
  2  3  1  0
  3  4  1  0
  4  5  1  0
  5  6  1  0
  7  6  1  1
  7  8  1  0
  8  9  2  0
  8 10  1  0
 10 11  1  0
 11 12  2  0
 12 13  1  0
 13 14  2  0
 14 15  1  0
 15 16  2  0
 16 17  1  0
 17 18  2  0
 18 19  1  0
 19 20  2  0
 19 21  1  0
 18 22  1  0
 17 23  1  0
 16 24  1  0
 14 25  1  0
 12 26  1  0
 10 27  1  0
 27 28  1  0
 28 29  1  0
 29 30  1  0
 29 31  1  0
 29 32  1  0
 28 33  1  1
 27 34  1  0
 27 35  1  0
  7 36  1  0
 36 37  2  0
 37 38  1  0
 38 39  1  0
 38 40  2  0
 40 41  1  0
 41 42  2  0
 42 43  1  0
 43 44  2  0
 41 45  1  0
 40 46  1  0
 37 47  1  0
  6 48  1  0
  6 49  1  0
  4 50  1  0
  4 51  1  0
  3 52  1  0
  3 53  1  0
  2 54  1  0
  2 55  1  0
  1 56  1  0
  1 57  1  0
  1 58  1  0
 43  5  1  0
 28  7  1  0
 42 36  1  0
 20 11  1  0
 20 15  1  0
M  CHG  1   2   1
M  END
>  <cnnaffinities>  (67) 
[5.85503]

>  <score>  (67) 
5.85503

>  <index>  (67) 
93

>  <Smiles>  (67) 
C([N+](C(C(N1C([C@@]2(C(=O)N(c3c(nc(c4c(c(c(c(c34)[H])[H])[H])[H])[H])[H])C([C@@]2(C([H])([H])[H])[H])([H])[H])c2c(c(F)c(c(c2C1=O)[H])[H])[H])([H])[H])([H])[H])([H])[H])([H])[H])([H])([H])[H]

>  <h>  (67) 
<NA>

>  <Training>  (67) 
True

>  <Success>  (67) 
True

>  <enamine_searched>  (67) 
False

>  <enamine_id>  (67) 
nan

$$$$

     RDKit          3D

 65 69  0  0  0  0  0  0  0  0999 V2000
    1.6131   -8.8541   24.7994 C   0  0  0  0  0  0  0  0  0  0  0  0
    2.9779   -8.6373   24.1267 C   0  0  0  0  0  0  0  0  0  0  0  0
    3.0214   -7.2499   23.5109 C   0  0  0  0  0  0  0  0  0  0  0  0
    2.3316   -6.8978   22.5937 O   0  0  0  0  0  0  0  0  0  0  0  0
    3.9472   -6.2459   24.1624 N   0  0  2  0  0  4  0  0  0  0  0  0
    3.1744   -5.1271   24.8958 C   0  0  0  0  0  0  0  0  0  0  0  0
    4.1418   -4.0441   25.3168 C   0  0  0  0  0  0  0  0  0  0  0  0
    4.7656   -3.3798   24.0982 C   0  0  0  0  0  0  0  0  0  0  0  0
    5.4514   -4.4006   23.2151 C   0  0  0  0  0  0  0  0  0  0  0  0
    6.5035   -4.0336   22.3599 C   0  0  0  0  0  0  0  0  0  0  0  0
    6.9223   -2.6682   22.2556 N   0  0  0  0  0  0  0  0  0  0  0  0
    8.2640   -2.3496   22.7625 C   0  0  0  0  0  0  0  0  0  0  0  0
    8.5574   -2.9807   24.1105 C   0  0  0  0  0  0  0  0  0  0  0  0
    9.3049   -4.1532   24.1093 C   0  0  0  0  0  0  0  0  0  0  0  0
    9.4552   -4.9305   25.2406 C   0  0  0  0  0  0  0  0  0  0  0  0
    8.9509   -4.4794   26.4490 C   0  0  0  0  0  0  0  0  0  0  0  0
    8.3035   -3.2519   26.4799 C   0  0  0  0  0  0  0  0  0  0  0  0
    7.7459   -2.6393   28.0130 Cl  0  0  0  0  0  0  0  0  0  0  0  0
    8.0992   -2.4909   25.3319 C   0  0  0  0  0  0  0  0  0  0  0  0
    7.5988   -1.5301   25.4313 H   0  0  0  0  0  0  0  0  0  0  0  0
    9.0990   -5.0504   27.3562 H   0  0  0  0  0  0  0  0  0  0  0  0
    9.9694   -5.8841   25.1918 H   0  0  0  0  0  0  0  0  0  0  0  0
    9.7728   -4.4381   23.1818 H   0  0  0  0  0  0  0  0  0  0  0  0
    8.3529   -1.2631   22.8150 H   0  0  0  0  0  0  0  0  0  0  0  0
    9.0383   -2.7178   22.0709 H   0  0  0  0  0  0  0  0  0  0  0  0
    6.1829   -1.8479   21.4126 C   0  0  0  0  0  0  0  0  0  0  0  0
    5.0475   -2.1362   21.0750 O   0  0  0  0  0  0  0  0  0  0  0  0
    6.8698   -0.5744   20.8942 C   0  0  0  0  0  0  0  0  0  0  0  0
    6.1084    0.0587   19.7670 C   0  0  0  0  0  0  0  0  0  0  0  0
    6.4378   -0.2244   18.4678 C   0  0  0  0  0  0  0  0  0  0  0  0
    5.7866    0.2350   17.3655 N   0  0  0  0  0  0  0  0  0  0  0  0
    4.7574    1.0206   17.5759 C   0  0  0  0  0  0  0  0  0  0  0  0
    4.2981    1.3998   18.8655 C   0  0  0  0  0  0  0  0  0  0  0  0
    3.1822    2.2577   19.0379 C   0  0  0  0  0  0  0  0  0  0  0  0
    2.7600    2.6062   20.2921 C   0  0  0  0  0  0  0  0  0  0  0  0
    3.4397    2.1145   21.4288 C   0  0  0  0  0  0  0  0  0  0  0  0
    4.5228    1.2807   21.2890 C   0  0  0  0  0  0  0  0  0  0  0  0
    4.9857    0.9065   19.9988 C   0  0  0  0  0  0  0  0  0  0  0  0
    5.0291    0.9025   22.1716 H   0  0  0  0  0  0  0  0  0  0  0  0
    3.1005    2.4008   22.4213 H   0  0  0  0  0  0  0  0  0  0  0  0
    1.9051    3.2649   20.4242 H   0  0  0  0  0  0  0  0  0  0  0  0
    2.6813    2.6407   18.1521 H   0  0  0  0  0  0  0  0  0  0  0  0
    4.2243    1.4004   16.7016 H   0  0  0  0  0  0  0  0  0  0  0  0
    7.2855   -0.8745   18.2527 H   0  0  0  0  0  0  0  0  0  0  0  0
    6.9989    0.1182   21.7350 H   0  0  0  0  0  0  0  0  0  0  0  0
    7.8751   -0.8471   20.5466 H   0  0  0  0  0  0  0  0  0  0  0  0
    7.2196   -4.9987   21.6597 C   0  0  0  0  0  0  0  0  0  0  0  0
    6.7874   -6.3175   21.6431 C   0  0  0  0  0  0  0  0  0  0  0  0
    5.7240   -6.6873   22.4545 C   0  0  0  0  0  0  0  0  0  0  0  0
    5.0785   -5.7413   23.2454 C   0  0  0  0  0  0  0  0  0  0  0  0
    5.4166   -7.7197   22.5215 H   0  0  0  0  0  0  0  0  0  0  0  0
    7.2635   -7.0433   20.9952 H   0  0  0  0  0  0  0  0  0  0  0  0
    8.1359   -4.7200   21.1487 H   0  0  0  0  0  0  0  0  0  0  0  0
    5.4865   -2.6127   24.3960 H   0  0  0  0  0  0  0  0  0  0  0  0
    3.9994   -2.8607   23.5125 H   0  0  0  0  0  0  0  0  0  0  0  0
    4.9319   -4.4694   25.9521 H   0  0  0  0  0  0  0  0  0  0  0  0
    3.6202   -3.2983   25.9274 H   0  0  0  0  0  0  0  0  0  0  0  0
    2.4241   -4.7433   24.2010 H   0  0  0  0  0  0  0  0  0  0  0  0
    2.6592   -5.5528   25.7644 H   0  0  0  0  0  0  0  0  0  0  0  0
    4.4135   -6.7917   24.9248 H   0  0  0  0  0  0  0  0  0  0  0  0
    3.8119   -8.7375   24.8318 H   0  0  0  0  0  0  0  0  0  0  0  0
    3.1128   -9.3762   23.3284 H   0  0  0  0  0  0  0  0  0  0  0  0
    0.8215   -8.6776   24.0630 H   0  0  0  0  0  0  0  0  0  0  0  0
    1.4750   -8.1441   25.6256 H   0  0  0  0  0  0  0  0  0  0  0  0
    1.5084   -9.8734   25.1911 H   0  0  0  0  0  0  0  0  0  0  0  0
  1  2  1  0
  2  3  1  0
  3  4  2  0
  3  5  1  0
  5  6  1  0
  6  7  1  0
  7  8  1  0
  8  9  1  0
  9 10  2  0
 10 11  1  0
 11 12  1  0
 12 13  1  0
 13 14  2  0
 14 15  1  0
 15 16  2  0
 16 17  1  0
 17 18  1  0
 17 19  2  0
 19 20  1  0
 16 21  1  0
 15 22  1  0
 14 23  1  0
 12 24  1  0
 12 25  1  0
 11 26  1  0
 26 27  2  0
 26 28  1  0
 28 29  1  0
 29 30  2  0
 30 31  1  0
 31 32  2  0
 32 33  1  0
 33 34  2  0
 34 35  1  0
 35 36  2  0
 36 37  1  0
 37 38  2  0
 37 39  1  0
 36 40  1  0
 35 41  1  0
 34 42  1  0
 32 43  1  0
 30 44  1  0
 28 45  1  0
 28 46  1  0
 10 47  1  0
 47 48  2  0
 48 49  1  0
 49 50  2  0
 49 51  1  0
 48 52  1  0
 47 53  1  0
  8 54  1  0
  8 55  1  0
  7 56  1  0
  7 57  1  0
  6 58  1  0
  6 59  1  0
  5 60  1  1
  2 61  1  0
  2 62  1  0
  1 63  1  0
  1 64  1  0
  1 65  1  0
 50  5  1  0
 50  9  1  0
 19 13  1  0
 38 29  1  0
 38 33  1  0
M  CHG  1   5   1
M  END
>  <cnnaffinities>  (68) 
[6.63471, 6.62916]

>  <score>  (68) 
6.63471

>  <index>  (68) 
94

>  <Smiles>  (68) 
C(C(C(=O)[N@@+]1(C(C(C(c2c(N(C(c3c(c(c(c(Cl)c3[H])[H])[H])[H])([H])[H])C(=O)C(c3c(nc(c4c(c(c(c(c34)[H])[H])[H])[H])[H])[H])([H])[H])c(c(c(c12)[H])[H])[H])([H])[H])([H])[H])([H])[H])[H])([H])[H])([H])([H])[H]

>  <h>  (68) 
<NA>

>  <Training>  (68) 
True

>  <Success>  (68) 
True

>  <enamine_searched>  (68) 
False

>  <enamine_id>  (68) 
nan

$$$$

     RDKit          3D

 67 71  0  0  0  0  0  0  0  0999 V2000
    7.4671   -8.3823   23.0734 C   0  0  0  0  0  0  0  0  0  0  0  0
    6.5798   -7.3316   22.6289 N   0  0  0  0  0  0  0  0  0  0  0  0
    6.9169   -6.5233   21.5879 C   0  0  0  0  0  0  0  0  0  0  0  0
    7.8156   -6.7642   20.8048 O   0  0  0  0  0  0  0  0  0  0  0  0
    6.1048   -5.2195   21.5074 C   0  0  0  0  0  0  0  0  0  0  0  0
    6.5774   -4.2711   22.5004 N   0  0  0  0  0  0  0  0  0  0  0  0
    7.7157   -3.3990   22.2421 C   0  0  0  0  0  0  0  0  0  0  0  0
    7.3756   -1.9404   22.6216 C   0  0  2  0  0  0  0  0  0  0  0  0
    6.2783   -1.4409   21.6502 C   0  0  0  0  0  0  0  0  0  0  0  0
    5.1386   -1.8490   21.5618 O   0  0  0  0  0  0  0  0  0  0  0  0
    6.8184   -0.4651   20.8356 N   0  0  0  0  0  0  0  0  0  0  0  0
    6.0971    0.0823   19.7617 C   0  0  0  0  0  0  0  0  0  0  0  0
    6.4614   -0.2018   18.4702 C   0  0  0  0  0  0  0  0  0  0  0  0
    5.8030    0.2445   17.3748 N   0  0  0  0  0  0  0  0  0  0  0  0
    4.7652    1.0199   17.5844 C   0  0  0  0  0  0  0  0  0  0  0  0
    4.3075    1.4167   18.8727 C   0  0  0  0  0  0  0  0  0  0  0  0
    3.1892    2.2723   19.0334 C   0  0  0  0  0  0  0  0  0  0  0  0
    2.7878    2.6599   20.2815 C   0  0  0  0  0  0  0  0  0  0  0  0
    3.4837    2.2155   21.4279 C   0  0  0  0  0  0  0  0  0  0  0  0
    4.5668    1.3820   21.3024 C   0  0  0  0  0  0  0  0  0  0  0  0
    4.9927    0.9513   20.0114 C   0  0  0  0  0  0  0  0  0  0  0  0
    5.0998    1.0406   22.1859 H   0  0  0  0  0  0  0  0  0  0  0  0
    3.1557    2.5354   22.4132 H   0  0  0  0  0  0  0  0  0  0  0  0
    1.9347    3.3210   20.4008 H   0  0  0  0  0  0  0  0  0  0  0  0
    2.6798    2.6230   18.1418 H   0  0  0  0  0  0  0  0  0  0  0  0
    4.2301    1.3783   16.7070 H   0  0  0  0  0  0  0  0  0  0  0  0
    7.3116   -0.8579   18.2835 H   0  0  0  0  0  0  0  0  0  0  0  0
    8.2580   -0.3990   20.9129 C   0  0  0  0  0  0  0  0  0  0  0  0
    8.5359   -0.9444   22.3148 C   0  0  2  0  0  0  0  0  0  0  0  0
    9.9741   -1.4448   22.3943 C   0  0  0  0  0  0  0  0  0  0  0  0
   10.5092   -1.5121   24.0952 S   0  0  0  0  0  0  0  0  0  0  0  0
   10.3979   -0.1530   24.6011 O   0  0  0  0  0  0  0  0  0  0  0  0
    9.8529   -2.6326   24.7488 O   0  0  0  0  0  0  0  0  0  0  0  0
   12.1189   -1.9167   24.0275 N   0  0  0  0  0  0  0  0  0  0  0  0
   13.0826   -0.9151   23.6035 C   0  0  0  0  0  0  0  0  0  0  0  0
   14.0887   -1.2864   23.8277 H   0  0  0  0  0  0  0  0  0  0  0  0
   12.9158    0.0000   24.1719 H   0  0  0  0  0  0  0  0  0  0  0  0
   13.0388   -0.7216   22.5237 H   0  0  0  0  0  0  0  0  0  0  0  0
   12.3718   -3.2506   23.5238 C   0  0  0  0  0  0  0  0  0  0  0  0
   11.7189   -3.9452   24.0529 H   0  0  0  0  0  0  0  0  0  0  0  0
   12.2093   -3.3559   22.4419 H   0  0  0  0  0  0  0  0  0  0  0  0
   13.4130   -3.4794   23.7473 H   0  0  0  0  0  0  0  0  0  0  0  0
   10.0892   -2.4316   21.9308 H   0  0  0  0  0  0  0  0  0  0  0  0
   10.6397   -0.7376   21.8900 H   0  0  0  0  0  0  0  0  0  0  0  0
    8.4290   -0.0960   22.9915 H   0  0  0  0  0  0  0  0  0  0  0  0
    8.6018    0.6343   20.7953 H   0  0  0  0  0  0  0  0  0  0  0  0
    8.7451   -1.0078   20.1352 H   0  0  0  0  0  0  0  0  0  0  0  0
    6.8911   -1.9949   24.0654 C   0  0  0  0  0  0  0  0  0  0  0  0
    6.9054   -0.8676   24.8929 C   0  0  0  0  0  0  0  0  0  0  0  0
    6.4480   -0.9618   26.1959 C   0  0  0  0  0  0  0  0  0  0  0  0
    6.4448    0.1460   26.9593 F   0  0  0  0  0  0  0  0  0  0  0  0
    5.9986   -2.1547   26.7525 C   0  0  0  0  0  0  0  0  0  0  0  0
    5.9604   -3.2689   25.9420 C   0  0  0  0  0  0  0  0  0  0  0  0
    6.3540   -3.1771   24.6108 C   0  0  0  0  0  0  0  0  0  0  0  0
    6.0822   -4.3549   23.7557 C   0  0  0  0  0  0  0  0  0  0  0  0
    5.4114   -5.3195   24.1460 O   0  0  0  0  0  0  0  0  0  0  0  0
    5.6059   -4.2277   26.3063 H   0  0  0  0  0  0  0  0  0  0  0  0
    5.6588   -2.1874   27.7807 H   0  0  0  0  0  0  0  0  0  0  0  0
    7.2694    0.0909   24.5444 H   0  0  0  0  0  0  0  0  0  0  0  0
    8.5765   -3.7316   22.8393 H   0  0  0  0  0  0  0  0  0  0  0  0
    7.9695   -3.4604   21.1902 H   0  0  0  0  0  0  0  0  0  0  0  0
    6.2279   -4.7696   20.5193 H   0  0  0  0  0  0  0  0  0  0  0  0
    5.0316   -5.3919   21.6710 H   0  0  0  0  0  0  0  0  0  0  0  0
    5.9921   -6.9225   23.3474 H   0  0  0  0  0  0  0  0  0  0  0  0
    8.3913   -8.0152   23.5335 H   0  0  0  0  0  0  0  0  0  0  0  0
    7.7476   -9.0375   22.2574 H   0  0  0  0  0  0  0  0  0  0  0  0
    6.9459   -8.9836   23.8144 H   0  0  0  0  0  0  0  0  0  0  0  0
  1  2  1  0
  2  3  1  0
  3  4  2  0
  3  5  1  0
  5  6  1  0
  6  7  1  0
  8  7  1  6
  8  9  1  0
  9 10  2  0
  9 11  1  0
 11 12  1  0
 12 13  2  0
 13 14  1  0
 14 15  2  0
 15 16  1  0
 16 17  2  0
 17 18  1  0
 18 19  2  0
 19 20  1  0
 20 21  2  0
 20 22  1  0
 19 23  1  0
 18 24  1  0
 17 25  1  0
 15 26  1  0
 13 27  1  0
 11 28  1  0
 28 29  1  0
 29 30  1  0
 30 31  1  0
 31 32  2  0
 31 33  2  0
 31 34  1  0
 34 35  1  0
 35 36  1  0
 35 37  1  0
 35 38  1  0
 34 39  1  0
 39 40  1  0
 39 41  1  0
 39 42  1  0
 30 43  1  0
 30 44  1  0
 29 45  1  1
 28 46  1  0
 28 47  1  0
  8 48  1  0
 48 49  2  0
 49 50  1  0
 50 51  1  0
 50 52  2  0
 52 53  1  0
 53 54  2  0
 54 55  1  0
 55 56  2  0
 53 57  1  0
 52 58  1  0
 49 59  1  0
  7 60  1  0
  7 61  1  0
  5 62  1  0
  5 63  1  0
  2 64  1  0
  1 65  1  0
  1 66  1  0
  1 67  1  0
 55  6  1  0
 29  8  1  0
 54 48  1  0
 21 12  1  0
 21 16  1  0
M  END
>  <cnnaffinities>  (69) 
[6.9943]

>  <score>  (69) 
6.9943

>  <index>  (69) 
95

>  <Smiles>  (69) 
C(N(C(=O)C(N1C([C@@]2(C(=O)N(c3c(nc(c4c(c(c(c(c34)[H])[H])[H])[H])[H])[H])C([C@@]2(C(S(=O)(=O)N(C([H])([H])[H])C([H])([H])[H])([H])[H])[H])([H])[H])c2c(c(F)c(c(c2C1=O)[H])[H])[H])([H])[H])([H])[H])[H])([H])([H])[H]

>  <h>  (69) 
<NA>

>  <Training>  (69) 
True

>  <Success>  (69) 
True

>  <enamine_searched>  (69) 
False

>  <enamine_id>  (69) 
nan

$$$$

     RDKit          3D

 37 39  0  0  0  0  0  0  0  0999 V2000
    5.8627   -2.6567   20.8459 O   0  0  0  0  0  0  0  0  0  0  0  0
    6.1803   -1.6985   21.5317 C   0  0  0  0  0  0  0  0  0  0  0  0
    6.9028   -0.4901   20.9151 C   0  0  0  0  0  0  0  0  0  0  0  0
    6.1122    0.0955   19.7647 C   0  0  0  0  0  0  0  0  0  0  0  0
    6.4225   -0.2116   18.4644 C   0  0  0  0  0  0  0  0  0  0  0  0
    5.7582    0.2401   17.3638 N   0  0  0  0  0  0  0  0  0  0  0  0
    4.7365    1.0302   17.5760 C   0  0  0  0  0  0  0  0  0  0  0  0
    4.2858    1.4250   18.8636 C   0  0  0  0  0  0  0  0  0  0  0  0
    3.1642    2.2747   19.0432 C   0  0  0  0  0  0  0  0  0  0  0  0
    2.7498    2.6284   20.2957 C   0  0  0  0  0  0  0  0  0  0  0  0
    3.4429    2.1454   21.4301 C   0  0  0  0  0  0  0  0  0  0  0  0
    4.5319    1.3220   21.2850 C   0  0  0  0  0  0  0  0  0  0  0  0
    4.9882    0.9420   19.9971 C   0  0  0  0  0  0  0  0  0  0  0  0
    5.0454    0.9554   22.1701 H   0  0  0  0  0  0  0  0  0  0  0  0
    3.1047    2.4296   22.4213 H   0  0  0  0  0  0  0  0  0  0  0  0
    1.8913    3.2824   20.4335 H   0  0  0  0  0  0  0  0  0  0  0  0
    2.6443    2.6450   18.1606 H   0  0  0  0  0  0  0  0  0  0  0  0
    4.1994    1.3989   16.6981 H   0  0  0  0  0  0  0  0  0  0  0  0
    7.2659   -0.8659   18.2446 H   0  0  0  0  0  0  0  0  0  0  0  0
    7.1507    0.2723   21.6658 H   0  0  0  0  0  0  0  0  0  0  0  0
    7.8570   -0.8585   20.5175 H   0  0  0  0  0  0  0  0  0  0  0  0
    5.8629   -1.6492   22.8573 N   0  0  0  0  0  0  0  0  0  0  0  0
    5.2075   -2.7748   23.5116 C   0  0  0  0  0  0  0  0  0  0  0  0
    6.0988   -3.9799   23.6879 C   0  0  0  0  0  0  0  0  0  0  0  0
    7.1484   -3.9414   24.6014 C   0  0  0  0  0  0  0  0  0  0  0  0
    8.0077   -5.0223   24.7335 C   0  0  0  0  0  0  0  0  0  0  0  0
    7.8311   -6.1610   23.9646 C   0  0  0  0  0  0  0  0  0  0  0  0
    6.7903   -6.1794   23.0479 C   0  0  0  0  0  0  0  0  0  0  0  0
    6.5570   -7.5842   22.0682 Cl  0  0  0  0  0  0  0  0  0  0  0  0
    5.9195   -5.1121   22.9016 C   0  0  0  0  0  0  0  0  0  0  0  0
    5.1280   -5.1521   22.1564 H   0  0  0  0  0  0  0  0  0  0  0  0
    8.5093   -7.0057   24.0446 H   0  0  0  0  0  0  0  0  0  0  0  0
    8.8280   -4.9858   25.4406 H   0  0  0  0  0  0  0  0  0  0  0  0
    7.2993   -3.0581   25.2140 H   0  0  0  0  0  0  0  0  0  0  0  0
    4.3181   -3.0413   22.9432 H   0  0  0  0  0  0  0  0  0  0  0  0
    4.8638   -2.4272   24.4866 H   0  0  0  0  0  0  0  0  0  0  0  0
    6.1688   -0.8781   23.4177 H   0  0  0  0  0  0  0  0  0  0  0  0
  1  2  2  0
  2  3  1  0
  3  4  1  0
  4  5  2  0
  5  6  1  0
  6  7  2  0
  7  8  1  0
  8  9  2  0
  9 10  1  0
 10 11  2  0
 11 12  1  0
 12 13  2  0
 12 14  1  0
 11 15  1  0
 10 16  1  0
  9 17  1  0
  7 18  1  0
  5 19  1  0
  3 20  1  0
  3 21  1  0
  2 22  1  0
 22 23  1  0
 23 24  1  0
 24 25  2  0
 25 26  1  0
 26 27  2  0
 27 28  1  0
 28 29  1  0
 28 30  2  0
 30 31  1  0
 27 32  1  0
 26 33  1  0
 25 34  1  0
 23 35  1  0
 23 36  1  0
 22 37  1  0
 13  4  1  0
 30 24  1  0
 13  8  1  0
M  END
>  <cnnaffinities>  (70) 
[4.73395, 4.87935, 4.5169]

>  <score>  (70) 
4.73395

>  <index>  (70) 
96

>  <Smiles>  (70) 
O=C(C(c1c(nc(c2c(c(c(c(c12)[H])[H])[H])[H])[H])[H])([H])[H])N(C(c1c(c(c(c(Cl)c1[H])[H])[H])[H])([H])[H])[H]

>  <h>  (70) 
<NA>

>  <Training>  (70) 
True

>  <Success>  (70) 
True

>  <enamine_searched>  (70) 
False

>  <enamine_id>  (70) 
nan

$$$$
