
     RDKit          3D

 63 69  0  0  0  0  0  0  0  0999 V2000
    9.2903    2.3862   25.7782 O   0  0  0  0  0  0  0  0  0  0  0  0
    8.9560    1.5273   24.9693 C   0  0  0  0  0  0  0  0  0  0  0  0
    9.9512    0.7762   24.1341 C   0  0  0  0  0  0  0  0  0  0  0  0
   11.2833    1.0952   24.3715 C   0  0  0  0  0  0  0  0  0  0  0  0
   12.2590    0.7137   23.4878 C   0  0  0  0  0  0  0  0  0  0  0  0
   11.8793   -0.0289   22.3776 C   0  0  0  0  0  0  0  0  0  0  0  0
   13.1158   -0.2878   21.2083 Cl  0  0  0  0  0  0  0  0  0  0  0  0
   10.5780   -0.4667   22.1716 C   0  0  0  0  0  0  0  0  0  0  0  0
    9.5800   -0.0763   23.0871 C   0  0  0  0  0  0  0  0  0  0  0  0
    8.1154   -0.4006   22.8497 C   0  0  1  0  0  0  0  0  0  0  0  0
    7.2963   -0.0506   24.1372 C   0  0  0  0  0  0  0  0  0  0  0  0
    7.6438    1.2466   24.7042 N   0  0  0  0  0  0  0  0  0  0  0  0
    6.6832    2.2676   25.0744 C   0  0  0  0  0  0  0  0  0  0  0  0
    6.5024    3.3139   24.0133 C   0  0  0  0  0  0  0  0  0  0  0  0
    5.4097    3.9261   23.6938 N   0  0  0  0  0  0  0  0  0  0  0  0
    5.7522    4.8414   22.7000 N   0  0  0  0  0  0  0  0  0  0  0  0
    7.0180    4.7059   22.5180 C   0  0  0  0  0  0  0  0  0  0  0  0
    7.5666    3.7671   23.3210 O   0  0  0  0  0  0  0  0  0  0  0  0
    7.6659    5.2444   21.8388 H   0  0  0  0  0  0  0  0  0  0  0  0
    7.0812    2.7532   25.9748 H   0  0  0  0  0  0  0  0  0  0  0  0
    5.7053    1.8376   25.3009 H   0  0  0  0  0  0  0  0  0  0  0  0
    7.4930   -0.8244   24.8916 H   0  0  0  0  0  0  0  0  0  0  0  0
    6.2210   -0.0788   23.9283 H   0  0  0  0  0  0  0  0  0  0  0  0
    7.6153    0.4179   21.6377 C   0  0  0  0  0  0  0  0  0  0  0  0
    7.8506    1.5753   21.3871 O   0  0  0  0  0  0  0  0  0  0  0  0
    6.8517   -0.4097   20.8422 N   0  0  0  0  0  0  0  0  0  0  0  0
    6.1012    0.0922   19.7623 C   0  0  0  0  0  0  0  0  0  0  0  0
    6.4391   -0.2486   18.4790 C   0  0  0  0  0  0  0  0  0  0  0  0
    5.7861    0.1979   17.3794 N   0  0  0  0  0  0  0  0  0  0  0  0
    4.7626    0.9960   17.5739 C   0  0  0  0  0  0  0  0  0  0  0  0
    4.2878    1.3892   18.8581 C   0  0  0  0  0  0  0  0  0  0  0  0
    3.1529    2.2262   19.0203 C   0  0  0  0  0  0  0  0  0  0  0  0
    2.7087    2.5675   20.2670 C   0  0  0  0  0  0  0  0  0  0  0  0
    3.3790    2.0914   21.4196 C   0  0  0  0  0  0  0  0  0  0  0  0
    4.4825    1.2868   21.2927 C   0  0  0  0  0  0  0  0  0  0  0  0
    4.9685    0.9264   20.0009 C   0  0  0  0  0  0  0  0  0  0  0  0
    4.9872    0.9065   22.1794 H   0  0  0  0  0  0  0  0  0  0  0  0
    3.0246    2.3724   22.4079 H   0  0  0  0  0  0  0  0  0  0  0  0
    1.8415    3.2124   20.3814 H   0  0  0  0  0  0  0  0  0  0  0  0
    2.6622    2.5932   18.1238 H   0  0  0  0  0  0  0  0  0  0  0  0
    4.2434    1.3670   16.6901 H   0  0  0  0  0  0  0  0  0  0  0  0
    7.2927   -0.9028   18.2997 H   0  0  0  0  0  0  0  0  0  0  0  0
    6.6661   -1.7384   21.3703 C   0  0  0  0  0  0  0  0  0  0  0  0
    7.8353   -1.8476   22.3486 C   0  0  2  0  0  0  0  0  0  0  0  0
    7.6412   -2.9308   23.4078 C   0  0  0  0  0  0  0  0  0  0  0  0
    7.5611   -4.2573   22.8306 N   0  0  0  0  0  0  0  0  0  0  0  0
    6.4163   -4.8977   22.5499 C   0  0  0  0  0  0  0  0  0  0  0  0
    5.2634   -4.2767   22.8737 N   0  0  0  0  0  0  0  0  0  0  0  0
    4.1759   -4.9925   22.6274 C   0  0  0  0  0  0  0  0  0  0  0  0
    4.1283   -6.1998   22.0782 N   0  0  0  0  0  0  0  0  0  0  0  0
    5.3327   -6.6973   21.7823 C   0  0  0  0  0  0  0  0  0  0  0  0
    6.5059   -6.1173   21.9756 N   0  0  0  0  0  0  0  0  0  0  0  0
    5.3475   -7.6869   21.3318 H   0  0  0  0  0  0  0  0  0  0  0  0
    3.2208   -4.5504   22.9002 H   0  0  0  0  0  0  0  0  0  0  0  0
    8.4099   -4.7549   22.6161 H   0  0  0  0  0  0  0  0  0  0  0  0
    6.7137   -2.7581   23.9597 H   0  0  0  0  0  0  0  0  0  0  0  0
    8.4810   -2.9049   24.1085 H   0  0  0  0  0  0  0  0  0  0  0  0
    8.7090   -2.1214   21.7544 H   0  0  0  0  0  0  0  0  0  0  0  0
    6.7012   -2.4852   20.5753 H   0  0  0  0  0  0  0  0  0  0  0  0
    5.6947   -1.8479   21.8730 H   0  0  0  0  0  0  0  0  0  0  0  0
   10.3685   -1.0660   21.2871 H   0  0  0  0  0  0  0  0  0  0  0  0
   13.2939    1.0293   23.5873 H   0  0  0  0  0  0  0  0  0  0  0  0
   11.4848    1.6931   25.2411 H   0  0  0  0  0  0  0  0  0  0  0  0
  1  2  2  0
  2  3  1  0
  3  4  2  0
  4  5  1  0
  5  6  2  0
  6  7  1  0
  6  8  1  0
  8  9  2  0
  9 10  1  0
 10 11  1  1
 11 12  1  0
 12 13  1  0
 13 14  1  0
 14 15  2  0
 15 16  1  0
 16 17  2  0
 17 18  1  0
 17 19  1  0
 13 20  1  0
 13 21  1  0
 11 22  1  0
 11 23  1  0
 10 24  1  0
 24 25  2  0
 24 26  1  0
 26 27  1  0
 27 28  2  0
 28 29  1  0
 29 30  2  0
 30 31  1  0
 31 32  2  0
 32 33  1  0
 33 34  2  0
 34 35  1  0
 35 36  2  0
 35 37  1  0
 34 38  1  0
 33 39  1  0
 32 40  1  0
 30 41  1  0
 28 42  1  0
 26 43  1  0
 43 44  1  0
 44 45  1  0
 45 46  1  0
 46 47  1  0
 47 48  2  0
 48 49  1  0
 49 50  2  0
 50 51  1  0
 51 52  2  0
 51 53  1  0
 49 54  1  0
 46 55  1  0
 45 56  1  0
 45 57  1  0
 44 58  1  6
 43 59  1  0
 43 60  1  0
  8 61  1  0
  5 62  1  0
  4 63  1  0
 12  2  1  0
 18 14  1  0
 36 27  1  0
 52 47  1  0
  9  3  1  0
 44 10  1  0
 36 31  1  0
M  END
>  <cnnaffinities>  (1) 
[6.33068]

>  <score>  (1) 
6.33068

>  <index>  (1) 
0

>  <Smiles>  (1) 
O=C1c2c(c(c(Cl)c(c2[C@@]2(C(N1C(c1nnc(o1)[H])([H])[H])([H])[H])C(=O)N(c1c(nc(c3c(c(c(c(c13)[H])[H])[H])[H])[H])[H])C([C@@]2(C(N(c1nc(nc(n1)[H])[H])[H])([H])[H])[H])([H])[H])[H])[H])[H]

>  <h>  (1) 
<NA>

>  <Training>  (1) 
True

>  <Success>  (1) 
True

>  <enamine_searched>  (1) 
False

>  <enamine_id>  (1) 
nan

$$$$

     RDKit          3D

 51 54  0  0  0  0  0  0  0  0999 V2000
   13.3628   -2.2391   23.5031 C   0  0  0  0  0  0  0  0  0  0  0  0
   12.2471   -1.5333   24.0012 O   0  0  0  0  0  0  0  0  0  0  0  0
   11.0403   -1.8562   23.4612 C   0  0  0  0  0  0  0  0  0  0  0  0
   10.8615   -2.8011   22.4600 C   0  0  0  0  0  0  0  0  0  0  0  0
    9.5838   -3.1074   22.0011 C   0  0  0  0  0  0  0  0  0  0  0  0
    8.4863   -2.3954   22.4589 C   0  0  0  0  0  0  0  0  0  0  0  0
    7.1806   -2.7048   21.9712 N   0  0  0  0  0  0  0  0  0  0  0  0
    6.5850   -3.9660   22.3898 C   0  0  0  0  0  0  0  0  0  0  0  0
    6.0397   -3.8791   23.7990 C   0  0  0  0  0  0  0  0  0  0  0  0
    4.6692   -3.7701   24.0328 C   0  0  0  0  0  0  0  0  0  0  0  0
    4.1837   -3.7661   25.3347 C   0  0  0  0  0  0  0  0  0  0  0  0
    5.0604   -3.8864   26.4069 C   0  0  0  0  0  0  0  0  0  0  0  0
    6.4308   -3.9098   26.1630 C   0  0  0  0  0  0  0  0  0  0  0  0
    7.5385   -3.9815   27.5064 Cl  0  0  0  0  0  0  0  0  0  0  0  0
    6.9324   -3.8803   24.8712 C   0  0  0  0  0  0  0  0  0  0  0  0
    8.0097   -3.8938   24.6944 H   0  0  0  0  0  0  0  0  0  0  0  0
    4.6982   -3.9352   27.4298 H   0  0  0  0  0  0  0  0  0  0  0  0
    3.1113   -3.7597   25.5123 H   0  0  0  0  0  0  0  0  0  0  0  0
    3.9810   -3.7014   23.1899 H   0  0  0  0  0  0  0  0  0  0  0  0
    5.7842   -4.1755   21.6791 H   0  0  0  0  0  0  0  0  0  0  0  0
    7.3477   -4.7525   22.3203 H   0  0  0  0  0  0  0  0  0  0  0  0
    6.3094   -1.7868   21.4195 C   0  0  0  0  0  0  0  0  0  0  0  0
    5.1140   -2.0117   21.3266 O   0  0  0  0  0  0  0  0  0  0  0  0
    6.9303   -0.5057   20.8757 C   0  0  0  0  0  0  0  0  0  0  0  0
    6.1235    0.0821   19.7547 C   0  0  0  0  0  0  0  0  0  0  0  0
    6.4371   -0.2169   18.4552 C   0  0  0  0  0  0  0  0  0  0  0  0
    5.7713    0.2313   17.3576 N   0  0  0  0  0  0  0  0  0  0  0  0
    4.7453    1.0187   17.5759 C   0  0  0  0  0  0  0  0  0  0  0  0
    4.2917    1.3955   18.8674 C   0  0  0  0  0  0  0  0  0  0  0  0
    3.1720    2.2489   19.0437 C   0  0  0  0  0  0  0  0  0  0  0  0
    2.7586    2.6029   20.2993 C   0  0  0  0  0  0  0  0  0  0  0  0
    3.4404    2.1116   21.4334 C   0  0  0  0  0  0  0  0  0  0  0  0
    4.5243    1.2788   21.2911 C   0  0  0  0  0  0  0  0  0  0  0  0
    4.9878    0.9093   19.9974 C   0  0  0  0  0  0  0  0  0  0  0  0
    5.0251    0.8937   22.1740 H   0  0  0  0  0  0  0  0  0  0  0  0
    3.1083    2.4042   22.4273 H   0  0  0  0  0  0  0  0  0  0  0  0
    1.9064    3.2660   20.4301 H   0  0  0  0  0  0  0  0  0  0  0  0
    2.6668    2.6268   18.1591 H   0  0  0  0  0  0  0  0  0  0  0  0
    4.2062    1.3978   16.7059 H   0  0  0  0  0  0  0  0  0  0  0  0
    7.2841   -0.8686   18.2401 H   0  0  0  0  0  0  0  0  0  0  0  0
    7.9382   -0.7682   20.5382 H   0  0  0  0  0  0  0  0  0  0  0  0
    7.0402    0.2012   21.7099 H   0  0  0  0  0  0  0  0  0  0  0  0
    8.6748   -1.4320   23.4528 C   0  0  0  0  0  0  0  0  0  0  0  0
    9.9346   -1.1774   23.9621 C   0  0  0  0  0  0  0  0  0  0  0  0
   10.1061   -0.4476   24.7413 H   0  0  0  0  0  0  0  0  0  0  0  0
    7.8128   -0.9209   23.8705 H   0  0  0  0  0  0  0  0  0  0  0  0
    9.4385   -3.9121   21.2843 H   0  0  0  0  0  0  0  0  0  0  0  0
   11.7262   -3.2665   22.0248 H   0  0  0  0  0  0  0  0  0  0  0  0
   14.2362   -1.8366   24.0166 H   0  0  0  0  0  0  0  0  0  0  0  0
   13.2737   -3.3138   23.7094 H   0  0  0  0  0  0  0  0  0  0  0  0
   13.4779   -2.0981   22.4197 H   0  0  0  0  0  0  0  0  0  0  0  0
  1  2  1  0
  2  3  1  0
  3  4  2  0
  4  5  1  0
  5  6  2  0
  6  7  1  0
  7  8  1  0
  8  9  1  0
  9 10  2  0
 10 11  1  0
 11 12  2  0
 12 13  1  0
 13 14  1  0
 13 15  2  0
 15 16  1  0
 12 17  1  0
 11 18  1  0
 10 19  1  0
  8 20  1  0
  8 21  1  0
  7 22  1  0
 22 23  2  0
 22 24  1  0
 24 25  1  0
 25 26  2  0
 26 27  1  0
 27 28  2  0
 28 29  1  0
 29 30  2  0
 30 31  1  0
 31 32  2  0
 32 33  1  0
 33 34  2  0
 33 35  1  0
 32 36  1  0
 31 37  1  0
 30 38  1  0
 28 39  1  0
 26 40  1  0
 24 41  1  0
 24 42  1  0
  6 43  1  0
 43 44  2  0
 44 45  1  0
 43 46  1  0
  5 47  1  0
  4 48  1  0
  1 49  1  0
  1 50  1  0
  1 51  1  0
 44  3  1  0
 15  9  1  0
 34 25  1  0
 34 29  1  0
M  END
>  <cnnaffinities>  (2) 
[5.78462]

>  <score>  (2) 
5.78462

>  <index>  (2) 
1

>  <Smiles>  (2) 
C(Oc1c(c(c(N(C(c2c(c(c(c(Cl)c2[H])[H])[H])[H])([H])[H])C(=O)C(c2c(nc(c3c(c(c(c(c23)[H])[H])[H])[H])[H])[H])([H])[H])c(c1[H])[H])[H])[H])([H])([H])[H]

>  <h>  (2) 
<NA>

>  <Training>  (2) 
True

>  <Success>  (2) 
True

>  <enamine_searched>  (2) 
False

>  <enamine_id>  (2) 
nan

$$$$

     RDKit          3D

 56 60  0  0  0  0  0  0  0  0999 V2000
    6.7233    4.4687   21.3378 C   0  0  0  0  0  0  0  0  0  0  0  0
    7.5973    4.0658   22.4268 N   0  0  0  0  0  0  0  0  0  0  0  0
    7.0375    3.3777   23.4525 C   0  0  0  0  0  0  0  0  0  0  0  0
    5.8288    3.2332   23.5539 O   0  0  0  0  0  0  0  0  0  0  0  0
    7.9827    2.8105   24.5166 C   0  0  0  0  0  0  0  0  0  0  0  0
    8.7270    1.6486   24.0819 N   0  0  0  0  0  0  0  0  0  0  0  0
    8.0042    0.3925   23.9504 C   0  0  0  0  0  0  0  0  0  0  0  0
    8.4295   -0.3495   22.6751 C   0  0  2  0  0  0  0  0  0  0  0  0
    7.9135    0.3651   21.4035 C   0  0  0  0  0  0  0  0  0  0  0  0
    8.3108    1.4135   20.9387 O   0  0  0  0  0  0  0  0  0  0  0  0
    6.9290   -0.4028   20.8259 N   0  0  0  0  0  0  0  0  0  0  0  0
    6.1426    0.1103   19.7592 C   0  0  0  0  0  0  0  0  0  0  0  0
    6.4564   -0.2104   18.4629 C   0  0  0  0  0  0  0  0  0  0  0  0
    5.7717    0.2289   17.3789 N   0  0  0  0  0  0  0  0  0  0  0  0
    4.7470    1.0189   17.5919 C   0  0  0  0  0  0  0  0  0  0  0  0
    4.2968    1.4187   18.8828 C   0  0  0  0  0  0  0  0  0  0  0  0
    3.1730    2.2700   19.0644 C   0  0  0  0  0  0  0  0  0  0  0  0
    2.7638    2.6334   20.3190 C   0  0  0  0  0  0  0  0  0  0  0  0
    3.4603    2.1562   21.4533 C   0  0  0  0  0  0  0  0  0  0  0  0
    4.5519    1.3334   21.3026 C   0  0  0  0  0  0  0  0  0  0  0  0
    5.0105    0.9495   20.0114 C   0  0  0  0  0  0  0  0  0  0  0  0
    5.0769    0.9793   22.1849 H   0  0  0  0  0  0  0  0  0  0  0  0
    3.1523    2.4555   22.4495 H   0  0  0  0  0  0  0  0  0  0  0  0
    1.9141    3.2995   20.4453 H   0  0  0  0  0  0  0  0  0  0  0  0
    2.6651    2.6422   18.1785 H   0  0  0  0  0  0  0  0  0  0  0  0
    4.2162    1.3828   16.7127 H   0  0  0  0  0  0  0  0  0  0  0  0
    7.3011   -0.8632   18.2540 H   0  0  0  0  0  0  0  0  0  0  0  0
    6.6029   -1.6148   21.5489 C   0  0  0  0  0  0  0  0  0  0  0  0
    7.7713   -1.7625   22.5396 C   0  0  2  0  0  0  0  0  0  0  0  0
    7.3298   -2.3883   23.8419 N   0  0  0  0  0  4  0  0  0  0  0  0
    6.6018   -1.8003   24.2829 H   0  0  0  0  0  0  0  0  0  0  0  0
    8.1279   -2.4841   24.4927 H   0  0  0  0  0  0  0  0  0  0  0  0
    6.9434   -3.3341   23.6711 H   0  0  0  0  0  0  0  0  0  0  0  0
    8.5123   -2.4364   22.1245 H   0  0  0  0  0  0  0  0  0  0  0  0
    5.6536   -1.5171   22.0975 H   0  0  0  0  0  0  0  0  0  0  0  0
    6.5027   -2.4524   20.8485 H   0  0  0  0  0  0  0  0  0  0  0  0
    9.9376   -0.3614   22.6423 C   0  0  0  0  0  0  0  0  0  0  0  0
   10.5519   -1.2335   21.7580 C   0  0  0  0  0  0  0  0  0  0  0  0
   11.9190   -1.2665   21.6344 C   0  0  0  0  0  0  0  0  0  0  0  0
   12.4839   -2.3699   20.4206 Cl  0  0  0  0  0  0  0  0  0  0  0  0
   12.7390   -0.4248   22.3895 C   0  0  0  0  0  0  0  0  0  0  0  0
   12.1285    0.5088   23.2134 C   0  0  0  0  0  0  0  0  0  0  0  0
   10.7375    0.5675   23.3165 C   0  0  0  0  0  0  0  0  0  0  0  0
   10.1015    1.7007   24.0598 C   0  0  0  0  0  0  0  0  0  0  0  0
   10.7440    2.6137   24.5585 O   0  0  0  0  0  0  0  0  0  0  0  0
   12.7019    1.2406   23.7708 H   0  0  0  0  0  0  0  0  0  0  0  0
   13.8174   -0.4711   22.2963 H   0  0  0  0  0  0  0  0  0  0  0  0
    9.9753   -1.8650   21.0993 H   0  0  0  0  0  0  0  0  0  0  0  0
    8.1877   -0.2578   24.8201 H   0  0  0  0  0  0  0  0  0  0  0  0
    6.9435    0.6559   23.8895 H   0  0  0  0  0  0  0  0  0  0  0  0
    7.3396    2.5512   25.3647 H   0  0  0  0  0  0  0  0  0  0  0  0
    8.7465    3.5238   24.8352 H   0  0  0  0  0  0  0  0  0  0  0  0
    8.5969    4.0044   22.2877 H   0  0  0  0  0  0  0  0  0  0  0  0
    5.9642    5.1627   21.7101 H   0  0  0  0  0  0  0  0  0  0  0  0
    7.2993    4.9727   20.5660 H   0  0  0  0  0  0  0  0  0  0  0  0
    6.2046    3.5928   20.9249 H   0  0  0  0  0  0  0  0  0  0  0  0
  1  2  1  0
  2  3  1  0
  3  4  2  0
  3  5  1  0
  5  6  1  0
  6  7  1  0
  8  7  1  1
  8  9  1  0
  9 10  2  0
  9 11  1  0
 11 12  1  0
 12 13  2  0
 13 14  1  0
 14 15  2  0
 15 16  1  0
 16 17  2  0
 17 18  1  0
 18 19  2  0
 19 20  1  0
 20 21  2  0
 20 22  1  0
 19 23  1  0
 18 24  1  0
 17 25  1  0
 15 26  1  0
 13 27  1  0
 11 28  1  0
 28 29  1  0
 29 30  1  0
 30 31  1  0
 30 32  1  0
 30 33  1  0
 29 34  1  6
 28 35  1  0
 28 36  1  0
  8 37  1  0
 37 38  2  0
 38 39  1  0
 39 40  1  0
 39 41  2  0
 41 42  1  0
 42 43  2  0
 43 44  1  0
 44 45  2  0
 42 46  1  0
 41 47  1  0
 38 48  1  0
  7 49  1  0
  7 50  1  0
  5 51  1  0
  5 52  1  0
  2 53  1  0
  1 54  1  0
  1 55  1  0
  1 56  1  0
 44  6  1  0
 29  8  1  0
 43 37  1  0
 21 12  1  0
 21 16  1  0
M  CHG  1  30   1
M  END
>  <cnnaffinities>  (3) 
[5.60853]

>  <score>  (3) 
5.60853

>  <index>  (3) 
2

>  <Smiles>  (3) 
C(N(C(=O)C(N1C([C@@]2(C(=O)N(c3c(nc(c4c(c(c(c(c34)[H])[H])[H])[H])[H])[H])C([C@@]2([N+]([H])([H])[H])[H])([H])[H])c2c(c(Cl)c(c(c2C1=O)[H])[H])[H])([H])[H])([H])[H])[H])([H])([H])[H]

>  <h>  (3) 
<NA>

>  <Training>  (3) 
True

>  <Success>  (3) 
True

>  <enamine_searched>  (3) 
False

>  <enamine_id>  (3) 
nan

$$$$

     RDKit          3D

 67 73  0  0  0  0  0  0  0  0999 V2000
    9.3430    2.6823   25.4665 O   0  0  0  0  0  0  0  0  0  0  0  0
    9.0184    1.7463   24.7408 C   0  0  0  0  0  0  0  0  0  0  0  0
   10.0019    0.8853   24.0251 C   0  0  0  0  0  0  0  0  0  0  0  0
   11.3498    1.1158   24.2540 C   0  0  0  0  0  0  0  0  0  0  0  0
   12.3204    0.3809   23.6048 C   0  0  0  0  0  0  0  0  0  0  0  0
   11.8923   -0.6076   22.7211 C   0  0  0  0  0  0  0  0  0  0  0  0
   12.9866   -1.8205   22.1422 Cl  0  0  0  0  0  0  0  0  0  0  0  0
   10.5647   -0.7579   22.3868 C   0  0  0  0  0  0  0  0  0  0  0  0
    9.5842   -0.0745   23.0995 C   0  0  0  0  0  0  0  0  0  0  0  0
    8.1284   -0.3619   22.8367 C   0  0  1  0  0  0  0  0  0  0  0  0
    7.3521    0.0772   24.1016 C   0  0  0  0  0  0  0  0  0  0  0  0
    7.7227    1.4301   24.4743 N   0  0  0  0  0  0  0  0  0  0  0  0
    6.6958    2.4245   24.6808 C   0  0  0  0  0  0  0  0  0  0  0  0
    5.8994    2.1433   25.9253 C   0  0  0  0  0  0  0  0  0  0  0  0
    6.4334    2.3661   27.1730 C   0  0  0  0  0  0  0  0  0  0  0  0
    5.6471    2.0131   28.2644 C   0  0  0  0  0  0  0  0  0  0  0  0
    4.4414    1.4587   28.1669 N   0  0  0  0  0  0  0  0  0  0  0  0
    3.9400    1.2095   26.9673 N   0  0  0  0  0  0  0  0  0  0  0  0
    4.6437    1.5393   25.8892 C   0  0  0  0  0  0  0  0  0  0  0  0
    4.1853    1.2864   24.9359 H   0  0  0  0  0  0  0  0  0  0  0  0
    5.9992    2.1901   29.2764 H   0  0  0  0  0  0  0  0  0  0  0  0
    7.4337    2.7801   27.2894 H   0  0  0  0  0  0  0  0  0  0  0  0
    6.0659    2.4385   23.7798 H   0  0  0  0  0  0  0  0  0  0  0  0
    7.2051    3.3883   24.7612 H   0  0  0  0  0  0  0  0  0  0  0  0
    7.5865   -0.6132   24.9287 H   0  0  0  0  0  0  0  0  0  0  0  0
    6.2690    0.0411   23.9486 H   0  0  0  0  0  0  0  0  0  0  0  0
    7.6547    0.4272   21.6016 C   0  0  0  0  0  0  0  0  0  0  0  0
    7.8823    1.5867   21.3263 O   0  0  0  0  0  0  0  0  0  0  0  0
    6.9049   -0.4171   20.8185 N   0  0  0  0  0  0  0  0  0  0  0  0
    6.1252    0.0914   19.7621 C   0  0  0  0  0  0  0  0  0  0  0  0
    6.4423   -0.2364   18.4715 C   0  0  0  0  0  0  0  0  0  0  0  0
    5.7755    0.2172   17.3841 N   0  0  0  0  0  0  0  0  0  0  0  0
    4.7571    1.0159   17.5962 C   0  0  0  0  0  0  0  0  0  0  0  0
    4.3090    1.4093   18.8892 C   0  0  0  0  0  0  0  0  0  0  0  0
    3.1837    2.2559   19.0611 C   0  0  0  0  0  0  0  0  0  0  0  0
    2.7584    2.6070   20.3119 C   0  0  0  0  0  0  0  0  0  0  0  0
    3.4343    2.1214   21.4533 C   0  0  0  0  0  0  0  0  0  0  0  0
    4.5264    1.3032   21.3162 C   0  0  0  0  0  0  0  0  0  0  0  0
    5.0027    0.9356   20.0207 C   0  0  0  0  0  0  0  0  0  0  0  0
    5.0314    0.9280   22.2021 H   0  0  0  0  0  0  0  0  0  0  0  0
    3.0796    2.3999   22.4427 H   0  0  0  0  0  0  0  0  0  0  0  0
    1.8988    3.2586   20.4329 H   0  0  0  0  0  0  0  0  0  0  0  0
    2.6796    2.6222   18.1714 H   0  0  0  0  0  0  0  0  0  0  0  0
    4.2169    1.3828   16.7220 H   0  0  0  0  0  0  0  0  0  0  0  0
    7.2937   -0.8876   18.2782 H   0  0  0  0  0  0  0  0  0  0  0  0
    6.6765   -1.7187   21.4023 C   0  0  0  0  0  0  0  0  0  0  0  0
    7.8215   -1.8269   22.4118 C   0  0  2  0  0  0  0  0  0  0  0  0
    7.5850   -2.8167   23.5602 C   0  0  0  0  0  0  0  0  0  0  0  0
    7.5459   -4.1999   23.1508 N   0  0  0  0  0  0  0  0  0  0  0  0
    6.4547   -4.8085   22.6232 C   0  0  0  0  0  0  0  0  0  0  0  0
    5.1303   -4.3805   22.8364 C   0  0  0  0  0  0  0  0  0  0  0  0
    4.1371   -5.2008   22.3503 C   0  0  0  0  0  0  0  0  0  0  0  0
    4.3861   -6.3045   21.6427 N   0  0  0  0  0  0  0  0  0  0  0  0
    5.6667   -6.5743   21.4498 C   0  0  0  0  0  0  0  0  0  0  0  0
    6.7169   -5.9159   21.9115 N   0  0  0  0  0  0  0  0  0  0  0  0
    5.8739   -7.4515   20.8388 H   0  0  0  0  0  0  0  0  0  0  0  0
    3.0865   -4.9697   22.5254 H   0  0  0  0  0  0  0  0  0  0  0  0
    4.8866   -3.4514   23.3356 H   0  0  0  0  0  0  0  0  0  0  0  0
    8.4081   -4.6458   22.8678 H   0  0  0  0  0  0  0  0  0  0  0  0
    8.3770   -2.7129   24.3094 H   0  0  0  0  0  0  0  0  0  0  0  0
    6.6467   -2.5834   24.0720 H   0  0  0  0  0  0  0  0  0  0  0  0
    8.6899   -2.1862   21.8526 H   0  0  0  0  0  0  0  0  0  0  0  0
    5.6879   -1.7899   21.8840 H   0  0  0  0  0  0  0  0  0  0  0  0
    6.7114   -2.4761   20.6211 H   0  0  0  0  0  0  0  0  0  0  0  0
   10.2998   -1.4191   21.5722 H   0  0  0  0  0  0  0  0  0  0  0  0
   13.3726    0.5786   23.7683 H   0  0  0  0  0  0  0  0  0  0  0  0
   11.5737    1.8683   24.9880 H   0  0  0  0  0  0  0  0  0  0  0  0
  1  2  2  0
  2  3  1  0
  3  4  2  0
  4  5  1  0
  5  6  2  0
  6  7  1  0
  6  8  1  0
  8  9  2  0
  9 10  1  0
 10 11  1  1
 11 12  1  0
 12 13  1  0
 13 14  1  0
 14 15  2  0
 15 16  1  0
 16 17  2  0
 17 18  1  0
 18 19  2  0
 19 20  1  0
 16 21  1  0
 15 22  1  0
 13 23  1  0
 13 24  1  0
 11 25  1  0
 11 26  1  0
 10 27  1  0
 27 28  2  0
 27 29  1  0
 29 30  1  0
 30 31  2  0
 31 32  1  0
 32 33  2  0
 33 34  1  0
 34 35  2  0
 35 36  1  0
 36 37  2  0
 37 38  1  0
 38 39  2  0
 38 40  1  0
 37 41  1  0
 36 42  1  0
 35 43  1  0
 33 44  1  0
 31 45  1  0
 29 46  1  0
 46 47  1  0
 47 48  1  0
 48 49  1  0
 49 50  1  0
 50 51  2  0
 51 52  1  0
 52 53  2  0
 53 54  1  0
 54 55  2  0
 54 56  1  0
 52 57  1  0
 51 58  1  0
 49 59  1  0
 48 60  1  0
 48 61  1  0
 47 62  1  6
 46 63  1  0
 46 64  1  0
  8 65  1  0
  5 66  1  0
  4 67  1  0
 12  2  1  0
 19 14  1  0
 39 30  1  0
 55 50  1  0
  9  3  1  0
 47 10  1  0
 39 34  1  0
M  END
>  <cnnaffinities>  (4) 
[6.22, 6.02925]

>  <score>  (4) 
6.22

>  <index>  (4) 
3

>  <Smiles>  (4) 
O=C1c2c(c(c(Cl)c(c2[C@@]2(C(N1C(c1c(c(nnc1[H])[H])[H])([H])[H])([H])[H])C(=O)N(c1c(nc(c3c(c(c(c(c13)[H])[H])[H])[H])[H])[H])C([C@@]2(C(N(c1c(c(nc(n1)[H])[H])[H])[H])([H])[H])[H])([H])[H])[H])[H])[H]

>  <h>  (4) 
<NA>

>  <Training>  (4) 
True

>  <Success>  (4) 
True

>  <enamine_searched>  (4) 
False

>  <enamine_id>  (4) 
nan

$$$$

     RDKit          3D

 41 44  0  0  0  0  0  0  0  0999 V2000
    7.3481   -0.3050   24.4580 C   0  0  0  0  0  0  0  0  0  0  0  0
    7.7866   -1.4654   23.5496 C   0  0  1  0  0  0  0  0  0  0  0  0
    8.5182   -2.5181   24.3435 C   0  0  0  0  0  0  0  0  0  0  0  0
    9.9128   -2.5880   24.6445 C   0  0  0  0  0  0  0  0  0  0  0  0
   10.2060   -3.5773   25.5317 C   0  0  0  0  0  0  0  0  0  0  0  0
    8.7869   -4.4214   26.0282 S   0  0  0  0  0  0  0  0  0  0  0  0
    7.7845   -3.4427   25.0107 C   0  0  0  0  0  0  0  0  0  0  0  0
    6.2837   -3.4071   24.8951 C   0  0  0  0  0  0  0  0  0  0  0  0
    5.8978   -3.1810   23.4407 C   0  0  0  0  0  0  0  0  0  0  0  0
    6.6370   -2.0634   22.8570 N   0  0  0  0  0  0  0  0  0  0  0  0
    6.1797   -1.6669   21.6297 C   0  0  0  0  0  0  0  0  0  0  0  0
    5.2325   -2.2333   21.0998 O   0  0  0  0  0  0  0  0  0  0  0  0
    6.8986   -0.5158   20.9263 C   0  0  0  0  0  0  0  0  0  0  0  0
    6.1067    0.0627   19.7871 C   0  0  0  0  0  0  0  0  0  0  0  0
    6.4275   -0.2312   18.4849 C   0  0  0  0  0  0  0  0  0  0  0  0
    5.7723    0.2249   17.3838 N   0  0  0  0  0  0  0  0  0  0  0  0
    4.7470    1.0143   17.5886 C   0  0  0  0  0  0  0  0  0  0  0  0
    4.2866    1.3990   18.8790 C   0  0  0  0  0  0  0  0  0  0  0  0
    3.1674    2.2534   19.0472 C   0  0  0  0  0  0  0  0  0  0  0  0
    2.7510    2.6126   20.2992 C   0  0  0  0  0  0  0  0  0  0  0  0
    3.4356    2.1326   21.4405 C   0  0  0  0  0  0  0  0  0  0  0  0
    4.5252    1.3053   21.2984 C   0  0  0  0  0  0  0  0  0  0  0  0
    4.9812    0.9140   20.0117 C   0  0  0  0  0  0  0  0  0  0  0  0
    5.0444    0.9473   22.1822 H   0  0  0  0  0  0  0  0  0  0  0  0
    3.1034    2.4255   22.4309 H   0  0  0  0  0  0  0  0  0  0  0  0
    1.9005    3.2756   20.4236 H   0  0  0  0  0  0  0  0  0  0  0  0
    2.6672    2.6270   18.1547 H   0  0  0  0  0  0  0  0  0  0  0  0
    4.2230    1.3897   16.7090 H   0  0  0  0  0  0  0  0  0  0  0  0
    7.2744   -0.8807   18.2682 H   0  0  0  0  0  0  0  0  0  0  0  0
    7.8521   -0.9048   20.5426 H   0  0  0  0  0  0  0  0  0  0  0  0
    7.1536    0.2614   21.6559 H   0  0  0  0  0  0  0  0  0  0  0  0
    4.8326   -2.9418   23.3452 H   0  0  0  0  0  0  0  0  0  0  0  0
    6.0941   -4.0864   22.8509 H   0  0  0  0  0  0  0  0  0  0  0  0
    5.9170   -2.5573   25.4870 H   0  0  0  0  0  0  0  0  0  0  0  0
    5.7687   -4.2832   25.2962 H   0  0  0  0  0  0  0  0  0  0  0  0
   11.1634   -3.7862   25.9972 H   0  0  0  0  0  0  0  0  0  0  0  0
   10.6421   -1.8775   24.2756 H   0  0  0  0  0  0  0  0  0  0  0  0
    8.4708   -1.0905   22.7784 H   0  0  0  0  0  0  0  0  0  0  0  0
    6.8178    0.4641   23.8925 H   0  0  0  0  0  0  0  0  0  0  0  0
    8.2240    0.1436   24.9368 H   0  0  0  0  0  0  0  0  0  0  0  0
    6.6686   -0.6562   25.2409 H   0  0  0  0  0  0  0  0  0  0  0  0
  1  2  1  0
  2  3  1  0
  3  4  1  0
  4  5  2  0
  5  6  1  0
  6  7  1  0
  7  8  1  0
  8  9  1  0
  9 10  1  0
 10 11  1  0
 11 12  2  0
 11 13  1  0
 13 14  1  0
 14 15  2  0
 15 16  1  0
 16 17  2  0
 17 18  1  0
 18 19  2  0
 19 20  1  0
 20 21  2  0
 21 22  1  0
 22 23  2  0
 22 24  1  0
 21 25  1  0
 20 26  1  0
 19 27  1  0
 17 28  1  0
 15 29  1  0
 13 30  1  0
 13 31  1  0
  9 32  1  0
  9 33  1  0
  8 34  1  0
  8 35  1  0
  5 36  1  0
  4 37  1  0
  2 38  1  6
  1 39  1  0
  1 40  1  0
  1 41  1  0
 10  2  1  0
 23 14  1  0
  7  3  2  0
 23 18  1  0
M  END
>  <cnnaffinities>  (5) 
[5.12336, 5.37263, 5.69861, 5.15792]

>  <score>  (5) 
5.12336

>  <index>  (5) 
4

>  <Smiles>  (5) 
C([C@]1(c2c(c(sc2C(C(N1C(=O)C(c1c(nc(c2c(c(c(c(c12)[H])[H])[H])[H])[H])[H])([H])[H])([H])[H])([H])[H])[H])[H])[H])([H])([H])[H]

>  <h>  (5) 
<NA>

>  <Training>  (5) 
True

>  <Success>  (5) 
True

>  <enamine_searched>  (5) 
False

>  <enamine_id>  (5) 
nan

$$$$

     RDKit          3D

 50 54  0  0  0  0  0  0  0  0999 V2000
    7.0267   -2.4608   23.4751 C   0  0  0  0  0  0  0  0  0  0  0  0
    7.9155   -1.8845   22.3701 C   0  0  1  0  0  0  0  0  0  0  0  0
    7.1925   -1.7980   21.0090 C   0  0  0  0  0  0  0  0  0  0  0  0
    6.8924   -0.3949   20.8476 N   0  0  0  0  0  0  0  0  0  0  0  0
    6.1173    0.0966   19.7796 C   0  0  0  0  0  0  0  0  0  0  0  0
    6.4364   -0.2362   18.4881 C   0  0  0  0  0  0  0  0  0  0  0  0
    5.7779    0.2141   17.3941 N   0  0  0  0  0  0  0  0  0  0  0  0
    4.7572    1.0120   17.5980 C   0  0  0  0  0  0  0  0  0  0  0  0
    4.2977    1.3997   18.8880 C   0  0  0  0  0  0  0  0  0  0  0  0
    3.1737    2.2493   19.0488 C   0  0  0  0  0  0  0  0  0  0  0  0
    2.7402    2.6010   20.2966 C   0  0  0  0  0  0  0  0  0  0  0  0
    3.3989    2.1082   21.4432 C   0  0  0  0  0  0  0  0  0  0  0  0
    4.4862    1.2816   21.3158 C   0  0  0  0  0  0  0  0  0  0  0  0
    4.9799    0.9265   20.0263 C   0  0  0  0  0  0  0  0  0  0  0  0
    4.9820    0.9084   22.2054 H   0  0  0  0  0  0  0  0  0  0  0  0
    3.0400    2.3878   22.4297 H   0  0  0  0  0  0  0  0  0  0  0  0
    1.8849    3.2599   20.4130 H   0  0  0  0  0  0  0  0  0  0  0  0
    2.6810    2.6230   18.1571 H   0  0  0  0  0  0  0  0  0  0  0  0
    4.2253    1.3842   16.7222 H   0  0  0  0  0  0  0  0  0  0  0  0
    7.2924   -0.8814   18.2933 H   0  0  0  0  0  0  0  0  0  0  0  0
    7.6592    0.4279   21.6418 C   0  0  0  0  0  0  0  0  0  0  0  0
    7.6689    1.6390   21.5647 O   0  0  0  0  0  0  0  0  0  0  0  0
    8.4710   -0.4471   22.6231 C   0  0  1  0  0  0  0  0  0  0  0  0
    8.2757    0.0614   24.0591 C   0  0  0  0  0  0  0  0  0  0  0  0
    8.8107    1.3952   24.1884 N   0  0  0  0  0  0  0  0  0  0  0  0
    7.9836    2.4004   24.8011 C   0  0  0  0  0  0  0  0  0  0  0  0
    7.9687    2.2173   26.2611 C   0  0  0  0  0  0  0  0  0  0  0  0
    8.0770    2.0181   27.3942 N   0  0  0  0  0  0  0  0  0  0  0  0
    8.3811    3.3875   24.5368 H   0  0  0  0  0  0  0  0  0  0  0  0
    6.9662    2.2803   24.4052 H   0  0  0  0  0  0  0  0  0  0  0  0
   10.1233    1.6597   23.9017 C   0  0  0  0  0  0  0  0  0  0  0  0
   10.7018    2.6416   24.3392 O   0  0  0  0  0  0  0  0  0  0  0  0
   10.7465    0.6790   22.9554 C   0  0  0  0  0  0  0  0  0  0  0  0
   12.1020    0.8112   22.6523 C   0  0  0  0  0  0  0  0  0  0  0  0
   12.7237   -0.0789   21.7953 C   0  0  0  0  0  0  0  0  0  0  0  0
   11.9268   -1.0742   21.2407 C   0  0  0  0  0  0  0  0  0  0  0  0
   12.4527   -1.9962   20.4265 F   0  0  0  0  0  0  0  0  0  0  0  0
   10.5729   -1.1687   21.4508 C   0  0  0  0  0  0  0  0  0  0  0  0
    9.9604   -0.3165   22.3563 C   0  0  0  0  0  0  0  0  0  0  0  0
   10.0355   -1.9369   20.9099 H   0  0  0  0  0  0  0  0  0  0  0  0
   13.7789   -0.0092   21.5472 H   0  0  0  0  0  0  0  0  0  0  0  0
   12.6385    1.6351   23.1085 H   0  0  0  0  0  0  0  0  0  0  0  0
    8.7836   -0.6164   24.7605 H   0  0  0  0  0  0  0  0  0  0  0  0
    7.2194    0.0857   24.3198 H   0  0  0  0  0  0  0  0  0  0  0  0
    6.2647   -2.3778   20.9781 H   0  0  0  0  0  0  0  0  0  0  0  0
    7.8418   -2.1540   20.1993 H   0  0  0  0  0  0  0  0  0  0  0  0
    8.7523   -2.5830   22.3010 H   0  0  0  0  0  0  0  0  0  0  0  0
    6.1320   -1.8544   23.6476 H   0  0  0  0  0  0  0  0  0  0  0  0
    6.7073   -3.4746   23.2090 H   0  0  0  0  0  0  0  0  0  0  0  0
    7.5818   -2.5319   24.4168 H   0  0  0  0  0  0  0  0  0  0  0  0
  1  2  1  0
  2  3  1  0
  3  4  1  0
  4  5  1  0
  5  6  2  0
  6  7  1  0
  7  8  2  0
  8  9  1  0
  9 10  2  0
 10 11  1  0
 11 12  2  0
 12 13  1  0
 13 14  2  0
 13 15  1  0
 12 16  1  0
 11 17  1  0
 10 18  1  0
  8 19  1  0
  6 20  1  0
  4 21  1  0
 21 22  2  0
 21 23  1  0
 23 24  1  1
 24 25  1  0
 25 26  1  0
 26 27  1  0
 27 28  3  0
 26 29  1  0
 26 30  1  0
 25 31  1  0
 31 32  2  0
 31 33  1  0
 33 34  2  0
 34 35  1  0
 35 36  2  0
 36 37  1  0
 36 38  1  0
 38 39  2  0
 38 40  1  0
 35 41  1  0
 34 42  1  0
 24 43  1  0
 24 44  1  0
  3 45  1  0
  3 46  1  0
  2 47  1  6
  1 48  1  0
  1 49  1  0
  1 50  1  0
 23  2  1  0
 39 33  1  0
 14  5  1  0
 39 23  1  0
 14  9  1  0
M  END
>  <cnnaffinities>  (6) 
[5.67097, 6.19822]

>  <score>  (6) 
5.67097

>  <index>  (6) 
5

>  <Smiles>  (6) 
C([C@]1(C(N(c2c(nc(c3c(c(c(c(c23)[H])[H])[H])[H])[H])[H])C(=O)[C@]21C(N(C(C#N)([H])[H])C(=O)c1c(c(c(F)c(c21)[H])[H])[H])([H])[H])([H])[H])[H])([H])([H])[H]

>  <h>  (6) 
<NA>

>  <Training>  (6) 
True

>  <Success>  (6) 
True

>  <enamine_searched>  (6) 
False

>  <enamine_id>  (6) 
nan

$$$$

     RDKit          3D

 65 69  0  0  0  0  0  0  0  0999 V2000
    7.6858    4.9480   26.7763 C   0  0  0  0  0  0  0  0  0  0  0  0
    8.4026    3.9341   25.8771 C   0  0  0  0  0  0  0  0  0  0  0  0
    7.3565    2.9554   25.4003 C   0  0  0  0  0  0  0  0  0  0  0  0
    6.6038    3.1793   24.4878 O   0  0  0  0  0  0  0  0  0  0  0  0
    7.2407    1.6267   26.1729 N   0  0  1  0  0  4  0  0  0  0  0  0
    5.8198    1.3960   26.7852 C   0  0  0  0  0  0  0  0  0  0  0  0
    4.8481    0.9882   25.6884 C   0  0  0  0  0  0  0  0  0  0  0  0
    5.2938   -0.3340   25.0643 C   0  0  0  0  0  0  0  0  0  0  0  0
    6.7498   -0.3316   24.6261 C   0  0  0  0  0  0  0  0  0  0  0  0
    7.2044   -1.1225   23.5559 C   0  0  0  0  0  0  0  0  0  0  0  0
    6.2584   -1.8348   22.7646 N   0  0  0  0  0  0  0  0  0  0  0  0
    5.6759   -3.0346   23.3536 C   0  0  0  0  0  0  0  0  0  0  0  0
    6.3699   -4.2945   22.8932 C   0  0  0  0  0  0  0  0  0  0  0  0
    7.5981   -4.6396   23.4425 C   0  0  0  0  0  0  0  0  0  0  0  0
    8.2489   -5.8023   23.0392 C   0  0  0  0  0  0  0  0  0  0  0  0
    7.6655   -6.6318   22.0837 C   0  0  0  0  0  0  0  0  0  0  0  0
    6.4495   -6.2592   21.5253 C   0  0  0  0  0  0  0  0  0  0  0  0
    5.7021   -7.2503   20.3030 Cl  0  0  0  0  0  0  0  0  0  0  0  0
    5.8077   -5.0901   21.9049 C   0  0  0  0  0  0  0  0  0  0  0  0
    4.8649   -4.8202   21.4417 H   0  0  0  0  0  0  0  0  0  0  0  0
    8.1548   -7.5440   21.7557 H   0  0  0  0  0  0  0  0  0  0  0  0
    9.1914   -6.0629   23.5143 H   0  0  0  0  0  0  0  0  0  0  0  0
    8.0359   -3.9759   24.1853 H   0  0  0  0  0  0  0  0  0  0  0  0
    4.6139   -3.0693   23.0926 H   0  0  0  0  0  0  0  0  0  0  0  0
    5.7882   -2.9445   24.4369 H   0  0  0  0  0  0  0  0  0  0  0  0
    5.9999   -1.6141   21.4324 C   0  0  0  0  0  0  0  0  0  0  0  0
    5.1201   -2.2266   20.8462 O   0  0  0  0  0  0  0  0  0  0  0  0
    6.8434   -0.5641   20.7126 C   0  0  0  0  0  0  0  0  0  0  0  0
    6.0880    0.0544   19.5885 C   0  0  0  0  0  0  0  0  0  0  0  0
    6.3951   -0.2237   18.2859 C   0  0  0  0  0  0  0  0  0  0  0  0
    5.7205    0.2541   17.2079 N   0  0  0  0  0  0  0  0  0  0  0  0
    4.6987    1.0391   17.4562 C   0  0  0  0  0  0  0  0  0  0  0  0
    4.2599    1.3977   18.7614 C   0  0  0  0  0  0  0  0  0  0  0  0
    3.1322    2.2305   18.9842 C   0  0  0  0  0  0  0  0  0  0  0  0
    2.7493    2.5656   20.2547 C   0  0  0  0  0  0  0  0  0  0  0  0
    3.4763    2.0831   21.3663 C   0  0  0  0  0  0  0  0  0  0  0  0
    4.5684    1.2743   21.1786 C   0  0  0  0  0  0  0  0  0  0  0  0
    4.9824    0.9016   19.8686 C   0  0  0  0  0  0  0  0  0  0  0  0
    5.1241    0.9233   22.0462 H   0  0  0  0  0  0  0  0  0  0  0  0
    3.1728    2.3594   22.3743 H   0  0  0  0  0  0  0  0  0  0  0  0
    1.8926    3.2137   20.4170 H   0  0  0  0  0  0  0  0  0  0  0  0
    2.5977    2.6194   18.1209 H   0  0  0  0  0  0  0  0  0  0  0  0
    4.1597    1.4315   16.5931 H   0  0  0  0  0  0  0  0  0  0  0  0
    7.2334   -0.8829   18.0558 H   0  0  0  0  0  0  0  0  0  0  0  0
    7.7329   -1.0740   20.3253 H   0  0  0  0  0  0  0  0  0  0  0  0
    7.1815    0.2001   21.4187 H   0  0  0  0  0  0  0  0  0  0  0  0
    8.5616   -1.2709   23.3106 C   0  0  0  0  0  0  0  0  0  0  0  0
    9.4966   -0.6308   24.1159 C   0  0  0  0  0  0  0  0  0  0  0  0
    9.0685    0.2105   25.1362 C   0  0  0  0  0  0  0  0  0  0  0  0
    7.6987    0.4187   25.3139 C   0  0  0  0  0  0  0  0  0  0  0  0
    9.7989    0.7325   25.7491 H   0  0  0  0  0  0  0  0  0  0  0  0
   10.5550   -0.7757   23.9322 H   0  0  0  0  0  0  0  0  0  0  0  0
    8.8819   -1.8909   22.4792 H   0  0  0  0  0  0  0  0  0  0  0  0
    4.6542   -0.5955   24.2140 H   0  0  0  0  0  0  0  0  0  0  0  0
    5.1509   -1.1198   25.8231 H   0  0  0  0  0  0  0  0  0  0  0  0
    4.8057    1.7770   24.9313 H   0  0  0  0  0  0  0  0  0  0  0  0
    3.8476    0.8696   26.1135 H   0  0  0  0  0  0  0  0  0  0  0  0
    5.4983    2.2997   27.3149 H   0  0  0  0  0  0  0  0  0  0  0  0
    5.9214    0.5931   27.5180 H   0  0  0  0  0  0  0  0  0  0  0  0
    7.9336    1.6744   26.9378 H   0  0  0  0  0  0  0  0  0  0  0  0
    9.1975    3.3981   26.4056 H   0  0  0  0  0  0  0  0  0  0  0  0
    8.8389    4.4073   24.9928 H   0  0  0  0  0  0  0  0  0  0  0  0
    6.9909    5.5437   26.1791 H   0  0  0  0  0  0  0  0  0  0  0  0
    8.3769    5.6187   27.2905 H   0  0  0  0  0  0  0  0  0  0  0  0
    7.1019    4.4140   27.5347 H   0  0  0  0  0  0  0  0  0  0  0  0
  1  2  1  0
  2  3  1  0
  3  4  2  0
  3  5  1  0
  5  6  1  0
  6  7  1  0
  7  8  1  0
  8  9  1  0
  9 10  2  0
 10 11  1  0
 11 12  1  0
 12 13  1  0
 13 14  2  0
 14 15  1  0
 15 16  2  0
 16 17  1  0
 17 18  1  0
 17 19  2  0
 19 20  1  0
 16 21  1  0
 15 22  1  0
 14 23  1  0
 12 24  1  0
 12 25  1  0
 11 26  1  0
 26 27  2  0
 26 28  1  0
 28 29  1  0
 29 30  2  0
 30 31  1  0
 31 32  2  0
 32 33  1  0
 33 34  2  0
 34 35  1  0
 35 36  2  0
 36 37  1  0
 37 38  2  0
 37 39  1  0
 36 40  1  0
 35 41  1  0
 34 42  1  0
 32 43  1  0
 30 44  1  0
 28 45  1  0
 28 46  1  0
 10 47  1  0
 47 48  2  0
 48 49  1  0
 49 50  2  0
 49 51  1  0
 48 52  1  0
 47 53  1  0
  8 54  1  0
  8 55  1  0
  7 56  1  0
  7 57  1  0
  6 58  1  0
  6 59  1  0
  5 60  1  1
  2 61  1  0
  2 62  1  0
  1 63  1  0
  1 64  1  0
  1 65  1  0
 50  5  1  0
 50  9  1  0
 19 13  1  0
 38 29  1  0
 38 33  1  0
M  CHG  1   5   1
M  END
>  <cnnaffinities>  (7) 
[5.86948, 6.22377]

>  <score>  (7) 
5.86948

>  <index>  (7) 
6

>  <Smiles>  (7) 
C(C(C(=O)[N@+]1(C(C(C(c2c(N(C(c3c(c(c(c(Cl)c3[H])[H])[H])[H])([H])[H])C(=O)C(c3c(nc(c4c(c(c(c(c34)[H])[H])[H])[H])[H])[H])([H])[H])c(c(c(c12)[H])[H])[H])([H])[H])([H])[H])([H])[H])[H])([H])[H])([H])([H])[H]

>  <h>  (7) 
<NA>

>  <Training>  (7) 
True

>  <Success>  (7) 
True

>  <enamine_searched>  (7) 
False

>  <enamine_id>  (7) 
nan

$$$$

     RDKit          3D

 37 39  0  0  0  0  0  0  0  0999 V2000
    5.1635   -2.2590   20.9878 O   0  0  0  0  0  0  0  0  0  0  0  0
    5.8799   -1.5519   21.6834 C   0  0  0  0  0  0  0  0  0  0  0  0
    6.8311   -0.5649   20.9844 C   0  0  0  0  0  0  0  0  0  0  0  0
    6.1264    0.0604   19.8017 C   0  0  0  0  0  0  0  0  0  0  0  0
    6.4693   -0.2327   18.5108 C   0  0  0  0  0  0  0  0  0  0  0  0
    5.8284    0.2233   17.3997 N   0  0  0  0  0  0  0  0  0  0  0  0
    4.7918    1.0030   17.5981 C   0  0  0  0  0  0  0  0  0  0  0  0
    4.3148    1.3886   18.8798 C   0  0  0  0  0  0  0  0  0  0  0  0
    3.1793    2.2276   19.0432 C   0  0  0  0  0  0  0  0  0  0  0  0
    2.7544    2.5897   20.2914 C   0  0  0  0  0  0  0  0  0  0  0  0
    3.4440    2.1339   21.4314 C   0  0  0  0  0  0  0  0  0  0  0  0
    4.5406    1.3182   21.3022 C   0  0  0  0  0  0  0  0  0  0  0  0
    5.0025    0.9154   20.0173 C   0  0  0  0  0  0  0  0  0  0  0  0
    5.0562    0.9709   22.1898 H   0  0  0  0  0  0  0  0  0  0  0  0
    3.0999    2.4293   22.4199 H   0  0  0  0  0  0  0  0  0  0  0  0
    1.8880    3.2389   20.4119 H   0  0  0  0  0  0  0  0  0  0  0  0
    2.6710    2.5883   18.1532 H   0  0  0  0  0  0  0  0  0  0  0  0
    4.2710    1.3632   16.7097 H   0  0  0  0  0  0  0  0  0  0  0  0
    7.3212   -0.8865   18.3088 H   0  0  0  0  0  0  0  0  0  0  0  0
    7.7013   -1.1363   20.6271 H   0  0  0  0  0  0  0  0  0  0  0  0
    7.1820    0.2147   21.6703 H   0  0  0  0  0  0  0  0  0  0  0  0
    5.8222   -1.5840   23.0616 N   0  0  0  0  0  0  0  0  0  0  0  0
    4.7116   -2.3227   23.6640 C   0  0  0  0  0  0  0  0  0  0  0  0
    4.1381   -1.5265   24.8292 C   0  0  0  0  0  0  0  0  0  0  0  0
    5.2313   -1.3315   25.8715 C   0  0  0  0  0  0  0  0  0  0  0  0
    6.3923   -0.5630   25.2396 C   0  0  0  0  0  0  0  0  0  0  0  0
    6.9194   -1.3009   24.0023 C   0  0  0  0  0  0  0  0  0  0  0  0
    7.3593   -2.2520   24.3560 H   0  0  0  0  0  0  0  0  0  0  0  0
    7.7038   -0.7092   23.5158 H   0  0  0  0  0  0  0  0  0  0  0  0
    6.0313    0.4324   24.9563 H   0  0  0  0  0  0  0  0  0  0  0  0
    7.1948   -0.4188   25.9758 H   0  0  0  0  0  0  0  0  0  0  0  0
    5.5898   -2.3094   26.2132 H   0  0  0  0  0  0  0  0  0  0  0  0
    4.8582   -0.8295   26.7703 H   0  0  0  0  0  0  0  0  0  0  0  0
    3.2530   -2.0282   25.2404 H   0  0  0  0  0  0  0  0  0  0  0  0
    3.8561   -0.5326   24.4558 H   0  0  0  0  0  0  0  0  0  0  0  0
    3.9639   -2.5072   22.8919 H   0  0  0  0  0  0  0  0  0  0  0  0
    5.0762   -3.3002   24.0185 H   0  0  0  0  0  0  0  0  0  0  0  0
  1  2  2  0
  2  3  1  0
  3  4  1  0
  4  5  2  0
  5  6  1  0
  6  7  2  0
  7  8  1  0
  8  9  2  0
  9 10  1  0
 10 11  2  0
 11 12  1  0
 12 13  2  0
 12 14  1  0
 11 15  1  0
 10 16  1  0
  9 17  1  0
  7 18  1  0
  5 19  1  0
  3 20  1  0
  3 21  1  0
  2 22  1  0
 22 23  1  0
 23 24  1  0
 24 25  1  0
 25 26  1  0
 26 27  1  0
 27 28  1  0
 27 29  1  0
 26 30  1  0
 26 31  1  0
 25 32  1  0
 25 33  1  0
 24 34  1  0
 24 35  1  0
 23 36  1  0
 23 37  1  0
 13  4  1  0
 27 22  1  0
 13  8  1  0
M  END
>  <cnnaffinities>  (8) 
[4.59397, 4.6522, 4.65148, 4.51431, 4.514, 4.41278]

>  <score>  (8) 
4.59397

>  <index>  (8) 
7

>  <Smiles>  (8) 
O=C(C(c1c(nc(c2c(c(c(c(c12)[H])[H])[H])[H])[H])[H])([H])[H])N1C(C(C(C(C1([H])[H])([H])[H])([H])[H])([H])[H])([H])[H]

>  <h>  (8) 
<NA>

>  <Training>  (8) 
True

>  <Success>  (8) 
True

>  <enamine_searched>  (8) 
False

>  <enamine_id>  (8) 
nan

$$$$

     RDKit          3D

 66 71  0  0  0  0  0  0  0  0999 V2000
    7.7711   -2.8582   23.3653 C   0  0  0  0  0  0  0  0  0  0  0  0
    8.0745   -1.8458   22.2613 C   0  0  1  0  0  0  0  0  0  0  0  0
    6.9131   -1.7346   21.2622 C   0  0  0  0  0  0  0  0  0  0  0  0
    6.9432   -0.3621   20.8277 N   0  0  0  0  0  0  0  0  0  0  0  0
    6.1394    0.1124   19.7696 C   0  0  0  0  0  0  0  0  0  0  0  0
    6.4470   -0.2335   18.4790 C   0  0  0  0  0  0  0  0  0  0  0  0
    5.7825    0.2110   17.3865 N   0  0  0  0  0  0  0  0  0  0  0  0
    4.7608    1.0077   17.5972 C   0  0  0  0  0  0  0  0  0  0  0  0
    4.3068    1.3980   18.8886 C   0  0  0  0  0  0  0  0  0  0  0  0
    3.1774    2.2409   19.0555 C   0  0  0  0  0  0  0  0  0  0  0  0
    2.7510    2.5917   20.3048 C   0  0  0  0  0  0  0  0  0  0  0  0
    3.4269    2.1162   21.4508 C   0  0  0  0  0  0  0  0  0  0  0  0
    4.5209    1.2980   21.3178 C   0  0  0  0  0  0  0  0  0  0  0  0
    5.0005    0.9337   20.0265 C   0  0  0  0  0  0  0  0  0  0  0  0
    5.0282    0.9416   22.2100 H   0  0  0  0  0  0  0  0  0  0  0  0
    3.0882    2.4081   22.4397 H   0  0  0  0  0  0  0  0  0  0  0  0
    1.8884    3.2390   20.4223 H   0  0  0  0  0  0  0  0  0  0  0  0
    2.6774    2.6096   18.1639 H   0  0  0  0  0  0  0  0  0  0  0  0
    4.2191    1.3760   16.7251 H   0  0  0  0  0  0  0  0  0  0  0  0
    7.3009   -0.8836   18.2924 H   0  0  0  0  0  0  0  0  0  0  0  0
    7.7259    0.4647   21.5875 C   0  0  0  0  0  0  0  0  0  0  0  0
    7.8394    1.6606   21.3992 O   0  0  0  0  0  0  0  0  0  0  0  0
    8.3989   -0.3762   22.6963 C   0  0  1  0  0  0  0  0  0  0  0  0
    7.7605   -0.0473   24.0682 C   0  0  0  0  0  0  0  0  0  0  0  0
    8.2078    1.2159   24.6243 N   0  0  0  0  0  0  0  0  0  0  0  0
    7.2426    2.1773   25.1243 C   0  0  0  0  0  0  0  0  0  0  0  0
    6.8956    3.2013   24.0424 C   0  0  0  0  0  0  0  0  0  0  0  0
    5.7846    3.2561   23.5251 O   0  0  0  0  0  0  0  0  0  0  0  0
    7.9166    4.0254   23.7086 N   0  0  0  0  0  0  0  0  0  0  0  0
    7.7858    4.9184   22.5764 C   0  0  0  0  0  0  0  0  0  0  0  0
    9.0358    5.7180   22.3740 C   0  0  0  0  0  0  0  0  0  0  0  0
    9.2839    7.0723   22.4922 C   0  0  0  0  0  0  0  0  0  0  0  0
   10.6331    7.2257   22.1137 C   0  0  0  0  0  0  0  0  0  0  0  0
   11.1853    6.0623   21.8053 N   0  0  0  0  0  0  0  0  0  0  0  0
   10.2106    5.1527   21.9699 N   0  0  0  0  0  0  0  0  0  0  0  0
   10.5272    3.7713   21.6447 C   0  0  0  0  0  0  0  0  0  0  0  0
   11.5724    3.7886   21.3238 H   0  0  0  0  0  0  0  0  0  0  0  0
   10.4237    3.1265   22.5223 H   0  0  0  0  0  0  0  0  0  0  0  0
    9.8829    3.3882   20.8469 H   0  0  0  0  0  0  0  0  0  0  0  0
   11.2424    8.1212   22.0429 H   0  0  0  0  0  0  0  0  0  0  0  0
    8.5958    7.8246   22.8594 H   0  0  0  0  0  0  0  0  0  0  0  0
    7.5395    4.3290   21.6805 H   0  0  0  0  0  0  0  0  0  0  0  0
    6.9314    5.5782   22.7488 H   0  0  0  0  0  0  0  0  0  0  0  0
    8.7948    3.9968   24.2171 H   0  0  0  0  0  0  0  0  0  0  0  0
    7.6910    2.6826   25.9854 H   0  0  0  0  0  0  0  0  0  0  0  0
    6.3359    1.6501   25.4326 H   0  0  0  0  0  0  0  0  0  0  0  0
    9.5139    1.5857   24.6062 C   0  0  0  0  0  0  0  0  0  0  0  0
    9.9165    2.5790   25.2195 O   0  0  0  0  0  0  0  0  0  0  0  0
   10.4182    0.8008   23.7187 C   0  0  0  0  0  0  0  0  0  0  0  0
   11.7835    1.0790   23.7621 C   0  0  0  0  0  0  0  0  0  0  0  0
   12.6322    0.5569   22.8051 C   0  0  0  0  0  0  0  0  0  0  0  0
   12.0978   -0.2576   21.8059 C   0  0  0  0  0  0  0  0  0  0  0  0
   10.7416   -0.5248   21.7609 C   0  0  0  0  0  0  0  0  0  0  0  0
    9.8802   -0.0533   22.7529 C   0  0  0  0  0  0  0  0  0  0  0  0
   10.3437   -1.0922   20.9248 H   0  0  0  0  0  0  0  0  0  0  0  0
   12.7362   -0.6993   21.0498 H   0  0  0  0  0  0  0  0  0  0  0  0
   13.6843    0.8268   22.8005 H   0  0  0  0  0  0  0  0  0  0  0  0
   12.1447    1.7523   24.5261 H   0  0  0  0  0  0  0  0  0  0  0  0
    8.0231   -0.8478   24.7668 H   0  0  0  0  0  0  0  0  0  0  0  0
    6.6690   -0.0203   23.9664 H   0  0  0  0  0  0  0  0  0  0  0  0
    7.0417   -2.3876   20.4003 H   0  0  0  0  0  0  0  0  0  0  0  0
    5.9490   -1.9833   21.7288 H   0  0  0  0  0  0  0  0  0  0  0  0
    8.9491   -2.2224   21.7255 H   0  0  0  0  0  0  0  0  0  0  0  0
    8.5879   -2.9354   24.0901 H   0  0  0  0  0  0  0  0  0  0  0  0
    6.8561   -2.5962   23.9087 H   0  0  0  0  0  0  0  0  0  0  0  0
    7.6205   -3.8511   22.9305 H   0  0  0  0  0  0  0  0  0  0  0  0
  1  2  1  0
  2  3  1  0
  3  4  1  0
  4  5  1  0
  5  6  2  0
  6  7  1  0
  7  8  2  0
  8  9  1  0
  9 10  2  0
 10 11  1  0
 11 12  2  0
 12 13  1  0
 13 14  2  0
 13 15  1  0
 12 16  1  0
 11 17  1  0
 10 18  1  0
  8 19  1  0
  6 20  1  0
  4 21  1  0
 21 22  2  0
 21 23  1  0
 23 24  1  1
 24 25  1  0
 25 26  1  0
 26 27  1  0
 27 28  2  0
 27 29  1  0
 29 30  1  0
 30 31  1  0
 31 32  2  0
 32 33  1  0
 33 34  2  0
 34 35  1  0
 35 36  1  0
 36 37  1  0
 36 38  1  0
 36 39  1  0
 33 40  1  0
 32 41  1  0
 30 42  1  0
 30 43  1  0
 29 44  1  0
 26 45  1  0
 26 46  1  0
 25 47  1  0
 47 48  2  0
 47 49  1  0
 49 50  2  0
 50 51  1  0
 51 52  2  0
 52 53  1  0
 53 54  2  0
 53 55  1  0
 52 56  1  0
 51 57  1  0
 50 58  1  0
 24 59  1  0
 24 60  1  0
  3 61  1  0
  3 62  1  0
  2 63  1  6
  1 64  1  0
  1 65  1  0
  1 66  1  0
 23  2  1  0
 35 31  1  0
 54 49  1  0
 14  5  1  0
 54 23  1  0
 14  9  1  0
M  END
>  <cnnaffinities>  (9) 
[6.50318]

>  <score>  (9) 
6.50318

>  <index>  (9) 
8

>  <Smiles>  (9) 
C([C@]1(C(N(c2c(nc(c3c(c(c(c(c23)[H])[H])[H])[H])[H])[H])C(=O)[C@]21C(N(C(C(=O)N(C(c1c(c(nn1C([H])([H])[H])[H])[H])([H])[H])[H])([H])[H])C(=O)c1c(c(c(c(c21)[H])[H])[H])[H])([H])[H])([H])[H])[H])([H])([H])[H]

>  <h>  (9) 
<NA>

>  <Training>  (9) 
True

>  <Success>  (9) 
True

>  <enamine_searched>  (9) 
False

>  <enamine_id>  (9) 
nan

$$$$

     RDKit          3D

 58 63  0  0  0  0  0  0  0  0999 V2000
    5.4412    5.0275   21.9927 C   0  0  0  0  0  0  0  0  0  0  0  0
    6.0488    4.1991   23.0818 C   0  0  0  0  0  0  0  0  0  0  0  0
    7.4350    3.9925   23.3253 C   0  0  0  0  0  0  0  0  0  0  0  0
    7.4604    3.1065   24.3519 C   0  0  0  0  0  0  0  0  0  0  0  0
    8.5778    2.3848   25.0454 C   0  0  0  0  0  0  0  0  0  0  0  0
    9.2147    1.3974   24.1883 N   0  0  0  0  0  0  0  0  0  0  0  0
    8.5630    0.1168   24.0051 C   0  0  0  0  0  0  0  0  0  0  0  0
    8.6362   -0.4064   22.5472 C   0  0  2  0  0  0  0  0  0  0  0  0
    7.8285    0.4611   21.5523 C   0  0  0  0  0  0  0  0  0  0  0  0
    7.9583    1.6481   21.3525 O   0  0  0  0  0  0  0  0  0  0  0  0
    6.9331   -0.3522   20.8830 N   0  0  0  0  0  0  0  0  0  0  0  0
    6.1606    0.1261   19.7971 C   0  0  0  0  0  0  0  0  0  0  0  0
    6.4656   -0.2245   18.5048 C   0  0  0  0  0  0  0  0  0  0  0  0
    5.7958    0.2107   17.4100 N   0  0  0  0  0  0  0  0  0  0  0  0
    4.7732    1.0077   17.6075 C   0  0  0  0  0  0  0  0  0  0  0  0
    4.3191    1.4122   18.8943 C   0  0  0  0  0  0  0  0  0  0  0  0
    3.1838    2.2506   19.0549 C   0  0  0  0  0  0  0  0  0  0  0  0
    2.7501    2.6008   20.3048 C   0  0  0  0  0  0  0  0  0  0  0  0
    3.4209    2.1186   21.4506 C   0  0  0  0  0  0  0  0  0  0  0  0
    4.5257    1.3092   21.3214 C   0  0  0  0  0  0  0  0  0  0  0  0
    5.0149    0.9507   20.0337 C   0  0  0  0  0  0  0  0  0  0  0  0
    5.0259    0.9122   22.1982 H   0  0  0  0  0  0  0  0  0  0  0  0
    3.0628    2.3952   22.4387 H   0  0  0  0  0  0  0  0  0  0  0  0
    1.8856    3.2512   20.4186 H   0  0  0  0  0  0  0  0  0  0  0  0
    2.6810    2.6133   18.1629 H   0  0  0  0  0  0  0  0  0  0  0  0
    4.2386    1.3628   16.7265 H   0  0  0  0  0  0  0  0  0  0  0  0
    7.3154   -0.8730   18.2961 H   0  0  0  0  0  0  0  0  0  0  0  0
    7.2097   -1.7613   21.0608 C   0  0  0  0  0  0  0  0  0  0  0  0
    8.0024   -1.8280   22.3818 C   0  0  2  0  0  0  0  0  0  0  0  0
    7.1114   -2.3089   23.5307 C   0  0  0  0  0  0  0  0  0  0  0  0
    6.7599   -3.3274   23.3342 H   0  0  0  0  0  0  0  0  0  0  0  0
    7.6620   -2.3416   24.4740 H   0  0  0  0  0  0  0  0  0  0  0  0
    6.2334   -1.6684   23.6664 H   0  0  0  0  0  0  0  0  0  0  0  0
    8.8014   -2.5716   22.3122 H   0  0  0  0  0  0  0  0  0  0  0  0
    7.8001   -2.1533   20.2238 H   0  0  0  0  0  0  0  0  0  0  0  0
    6.2676   -2.3180   21.1027 H   0  0  0  0  0  0  0  0  0  0  0  0
   10.1066   -0.3450   22.1590 C   0  0  0  0  0  0  0  0  0  0  0  0
   10.6662   -1.3103   21.3265 C   0  0  0  0  0  0  0  0  0  0  0  0
   12.0038   -1.2463   21.0024 C   0  0  0  0  0  0  0  0  0  0  0  0
   12.4982   -2.1880   20.1832 F   0  0  0  0  0  0  0  0  0  0  0  0
   12.8120   -0.1946   21.4283 C   0  0  0  0  0  0  0  0  0  0  0  0
   12.2449    0.8009   22.1968 C   0  0  0  0  0  0  0  0  0  0  0  0
   10.9105    0.7132   22.6005 C   0  0  0  0  0  0  0  0  0  0  0  0
   10.4068    1.7095   23.5982 C   0  0  0  0  0  0  0  0  0  0  0  0
   11.0242    2.7272   23.8804 O   0  0  0  0  0  0  0  0  0  0  0  0
   12.8417    1.6394   22.5376 H   0  0  0  0  0  0  0  0  0  0  0  0
   13.8491   -0.1225   21.1231 H   0  0  0  0  0  0  0  0  0  0  0  0
   10.0840   -2.1159   20.8956 H   0  0  0  0  0  0  0  0  0  0  0  0
    7.5305    0.2476   24.3206 H   0  0  0  0  0  0  0  0  0  0  0  0
    9.0287   -0.6278   24.6676 H   0  0  0  0  0  0  0  0  0  0  0  0
    9.3606    3.0935   25.3247 H   0  0  0  0  0  0  0  0  0  0  0  0
    8.1893    1.9113   25.9512 H   0  0  0  0  0  0  0  0  0  0  0  0
    6.2046    2.8313   24.7374 O   0  0  0  0  0  0  0  0  0  0  0  0
    5.3120    3.5159   23.9335 N   0  0  0  0  0  0  0  0  0  0  0  0
    8.2657    4.3885   22.7585 H   0  0  0  0  0  0  0  0  0  0  0  0
    6.0128    5.9487   21.8486 H   0  0  0  0  0  0  0  0  0  0  0  0
    4.4022    5.2809   22.2178 H   0  0  0  0  0  0  0  0  0  0  0  0
    5.4627    4.4674   21.0500 H   0  0  0  0  0  0  0  0  0  0  0  0
  1  2  1  0
  2  3  1  0
  3  4  2  0
  4  5  1  0
  5  6  1  0
  6  7  1  0
  8  7  1  1
  8  9  1  0
  9 10  2  0
  9 11  1  0
 11 12  1  0
 12 13  2  0
 13 14  1  0
 14 15  2  0
 15 16  1  0
 16 17  2  0
 17 18  1  0
 18 19  2  0
 19 20  1  0
 20 21  2  0
 20 22  1  0
 19 23  1  0
 18 24  1  0
 17 25  1  0
 15 26  1  0
 13 27  1  0
 11 28  1  0
 28 29  1  0
 29 30  1  0
 30 31  1  0
 30 32  1  0
 30 33  1  0
 29 34  1  6
 28 35  1  0
 28 36  1  0
  8 37  1  0
 37 38  2  0
 38 39  1  0
 39 40  1  0
 39 41  2  0
 41 42  1  0
 42 43  2  0
 43 44  1  0
 44 45  2  0
 42 46  1  0
 41 47  1  0
 38 48  1  0
  7 49  1  0
  7 50  1  0
  5 51  1  0
  5 52  1  0
  4 53  1  0
 53 54  1  0
  3 55  1  0
  1 56  1  0
  1 57  1  0
  1 58  1  0
 54  2  2  0
 44  6  1  0
 29  8  1  0
 43 37  1  0
 21 12  1  0
 21 16  1  0
M  END
>  <cnnaffinities>  (10) 
[6.38699]

>  <score>  (10) 
6.38699

>  <index>  (10) 
9

>  <Smiles>  (10) 
C(c1c(c(C(N2C([C@@]3(C(=O)N(c4c(nc(c5c(c(c(c(c45)[H])[H])[H])[H])[H])[H])C([C@@]3(C([H])([H])[H])[H])([H])[H])c3c(c(F)c(c(c3C2=O)[H])[H])[H])([H])[H])([H])[H])on1)[H])([H])([H])[H]

>  <h>  (10) 
<NA>

>  <Training>  (10) 
True

>  <Success>  (10) 
True

>  <enamine_searched>  (10) 
False

>  <enamine_id>  (10) 
nan

$$$$

     RDKit          3D

 72 77  0  0  0  0  0  0  0  0999 V2000
    7.4885    8.3808   24.7279 C   0  0  0  0  0  0  0  0  0  0  0  0
    6.7381    7.3390   23.9169 C   0  0  1  0  0  0  0  0  0  0  0  0
    7.4764    6.0042   23.9204 C   0  0  0  0  0  0  0  0  0  0  0  0
    6.6902    4.9732   23.1608 N   0  0  0  0  0  4  0  0  0  0  0  0
    7.4023    3.6614   22.9953 C   0  0  0  0  0  0  0  0  0  0  0  0
    7.5748    2.8509   24.2866 C   0  0  0  0  0  0  0  0  0  0  0  0
    8.4178    1.6939   24.0853 N   0  0  0  0  0  0  0  0  0  0  0  0
    7.8274    0.3800   23.9315 C   0  0  0  0  0  0  0  0  0  0  0  0
    8.3805   -0.3558   22.6957 C   0  0  2  0  0  0  0  0  0  0  0  0
    7.9313    0.3277   21.3843 C   0  0  0  0  0  0  0  0  0  0  0  0
    8.3674    1.3463   20.8955 O   0  0  0  0  0  0  0  0  0  0  0  0
    6.9218   -0.4231   20.8220 N   0  0  0  0  0  0  0  0  0  0  0  0
    6.1386    0.1026   19.7605 C   0  0  0  0  0  0  0  0  0  0  0  0
    6.4538   -0.2114   18.4645 C   0  0  0  0  0  0  0  0  0  0  0  0
    5.7687    0.2296   17.3807 N   0  0  0  0  0  0  0  0  0  0  0  0
    4.7441    1.0185   17.5924 C   0  0  0  0  0  0  0  0  0  0  0  0
    4.2937    1.4141   18.8840 C   0  0  0  0  0  0  0  0  0  0  0  0
    3.1677    2.2613   19.0609 C   0  0  0  0  0  0  0  0  0  0  0  0
    2.7530    2.6157   20.3150 C   0  0  0  0  0  0  0  0  0  0  0  0
    3.4456    2.1346   21.4479 C   0  0  0  0  0  0  0  0  0  0  0  0
    4.5470    1.3248   21.3039 C   0  0  0  0  0  0  0  0  0  0  0  0
    5.0067    0.9429   20.0123 C   0  0  0  0  0  0  0  0  0  0  0  0
    5.0665    0.9720   22.1891 H   0  0  0  0  0  0  0  0  0  0  0  0
    3.1099    2.4110   22.4432 H   0  0  0  0  0  0  0  0  0  0  0  0
    1.8999    3.2758   20.4501 H   0  0  0  0  0  0  0  0  0  0  0  0
    2.6605    2.6362   18.1762 H   0  0  0  0  0  0  0  0  0  0  0  0
    4.2151    1.3839   16.7118 H   0  0  0  0  0  0  0  0  0  0  0  0
    7.3000   -0.8623   18.2544 H   0  0  0  0  0  0  0  0  0  0  0  0
    6.5719   -1.6078   21.5829 C   0  0  0  0  0  0  0  0  0  0  0  0
    7.7621   -1.7885   22.5454 C   0  0  2  0  0  0  0  0  0  0  0  0
    7.3730   -2.5252   23.8326 C   0  0  0  0  0  0  0  0  0  0  0  0
    6.5638   -2.0015   24.3563 H   0  0  0  0  0  0  0  0  0  0  0  0
    7.0148   -3.5412   23.6211 H   0  0  0  0  0  0  0  0  0  0  0  0
    8.2135   -2.6123   24.5317 H   0  0  0  0  0  0  0  0  0  0  0  0
    8.5079   -2.3959   22.0272 H   0  0  0  0  0  0  0  0  0  0  0  0
    6.4284   -2.4604   20.9096 H   0  0  0  0  0  0  0  0  0  0  0  0
    5.6297   -1.4772   22.1401 H   0  0  0  0  0  0  0  0  0  0  0  0
    9.8789   -0.2747   22.7942 C   0  0  0  0  0  0  0  0  0  0  0  0
   10.6376   -1.1897   22.0939 C   0  0  0  0  0  0  0  0  0  0  0  0
   12.0025   -1.1376   22.2034 C   0  0  0  0  0  0  0  0  0  0  0  0
   12.8060   -2.4688   21.5187 Cl  0  0  0  0  0  0  0  0  0  0  0  0
   12.6923   -0.1476   22.8895 C   0  0  0  0  0  0  0  0  0  0  0  0
   11.9377    0.8177   23.5203 C   0  0  0  0  0  0  0  0  0  0  0  0
   10.5479    0.7611   23.4707 C   0  0  0  0  0  0  0  0  0  0  0  0
    9.7705    1.8768   24.0845 C   0  0  0  0  0  0  0  0  0  0  0  0
   10.2977    2.8981   24.5163 O   0  0  0  0  0  0  0  0  0  0  0  0
   12.4154    1.6226   24.0594 H   0  0  0  0  0  0  0  0  0  0  0  0
   13.7737   -0.1606   22.8818 H   0  0  0  0  0  0  0  0  0  0  0  0
   10.1997   -1.9404   21.4460 H   0  0  0  0  0  0  0  0  0  0  0  0
    8.0321   -0.2382   24.8219 H   0  0  0  0  0  0  0  0  0  0  0  0
    6.7454    0.5054   23.8217 H   0  0  0  0  0  0  0  0  0  0  0  0
    6.6081    2.4807   24.6373 H   0  0  0  0  0  0  0  0  0  0  0  0
    8.0395    3.4512   25.0725 H   0  0  0  0  0  0  0  0  0  0  0  0
    6.8380    3.0688   22.2674 H   0  0  0  0  0  0  0  0  0  0  0  0
    8.3874    3.8771   22.5690 H   0  0  0  0  0  0  0  0  0  0  0  0
    5.2996    4.8754   23.7352 C   0  0  0  0  0  0  0  0  0  0  0  0
    4.6191    6.2456   23.8129 C   0  0  2  0  0  0  0  0  0  0  0  0
    4.1223    6.7501   22.4596 C   0  0  0  0  0  0  0  0  0  0  0  0
    3.3820    6.0531   22.0486 H   0  0  0  0  0  0  0  0  0  0  0  0
    4.9293    6.8388   21.7225 H   0  0  0  0  0  0  0  0  0  0  0  0
    3.6498    7.7315   22.5737 H   0  0  0  0  0  0  0  0  0  0  0  0
    5.4440    7.1928   24.4864 O   0  0  0  0  0  0  0  0  0  0  0  0
    3.7518    6.1447   24.4763 H   0  0  0  0  0  0  0  0  0  0  0  0
    5.3742    4.4724   24.7465 H   0  0  0  0  0  0  0  0  0  0  0  0
    4.7065    4.1878   23.1258 H   0  0  0  0  0  0  0  0  0  0  0  0
    6.5870    5.3317   22.1892 H   0  0  0  0  0  0  0  0  0  0  0  0
    8.4655    6.1186   23.4629 H   0  0  0  0  0  0  0  0  0  0  0  0
    7.6033    5.6755   24.9562 H   0  0  0  0  0  0  0  0  0  0  0  0
    6.6509    7.6734   22.8702 H   0  0  0  0  0  0  0  0  0  0  0  0
    7.5850    8.0510   25.7692 H   0  0  0  0  0  0  0  0  0  0  0  0
    6.9697    9.3445   24.7199 H   0  0  0  0  0  0  0  0  0  0  0  0
    8.4950    8.5253   24.3186 H   0  0  0  0  0  0  0  0  0  0  0  0
  1  2  1  0
  2  3  1  0
  3  4  1  0
  4  5  1  0
  5  6  1  0
  6  7  1  0
  7  8  1  0
  9  8  1  1
  9 10  1  0
 10 11  2  0
 10 12  1  0
 12 13  1  0
 13 14  2  0
 14 15  1  0
 15 16  2  0
 16 17  1  0
 17 18  2  0
 18 19  1  0
 19 20  2  0
 20 21  1  0
 21 22  2  0
 21 23  1  0
 20 24  1  0
 19 25  1  0
 18 26  1  0
 16 27  1  0
 14 28  1  0
 12 29  1  0
 29 30  1  0
 30 31  1  0
 31 32  1  0
 31 33  1  0
 31 34  1  0
 30 35  1  6
 29 36  1  0
 29 37  1  0
  9 38  1  0
 38 39  2  0
 39 40  1  0
 40 41  1  0
 40 42  2  0
 42 43  1  0
 43 44  2  0
 44 45  1  0
 45 46  2  0
 43 47  1  0
 42 48  1  0
 39 49  1  0
  8 50  1  0
  8 51  1  0
  6 52  1  0
  6 53  1  0
  5 54  1  0
  5 55  1  0
  4 56  1  0
 56 57  1  0
 57 58  1  0
 58 59  1  0
 58 60  1  0
 58 61  1  0
 57 62  1  0
 57 63  1  1
 56 64  1  0
 56 65  1  0
  4 66  1  0
  3 67  1  0
  3 68  1  0
  2 69  1  6
  1 70  1  0
  1 71  1  0
  1 72  1  0
 62  2  1  0
 45  7  1  0
 30  9  1  0
 44 38  1  0
 22 13  1  0
 22 17  1  0
M  CHG  1   4   1
M  END
>  <cnnaffinities>  (11) 
[6.32854]

>  <score>  (11) 
6.32854

>  <index>  (11) 
10

>  <Smiles>  (11) 
C([C@]1(C([N+](C(C(N2C([C@@]3(C(=O)N(c4c(nc(c5c(c(c(c(c45)[H])[H])[H])[H])[H])[H])C([C@@]3(C([H])([H])[H])[H])([H])[H])c3c(c(Cl)c(c(c3C2=O)[H])[H])[H])([H])[H])([H])[H])([H])[H])(C([C@](C([H])([H])[H])(O1)[H])([H])[H])[H])([H])[H])[H])([H])([H])[H]

>  <h>  (11) 
<NA>

>  <Training>  (11) 
True

>  <Success>  (11) 
True

>  <enamine_searched>  (11) 
False

>  <enamine_id>  (11) 
nan

$$$$

     RDKit          3D

 54 57  0  0  0  0  0  0  0  0999 V2000
    4.8795    1.9201   25.3042 C   0  0  0  0  0  0  0  0  0  0  0  0
    6.1345    1.9659   24.6614 O   0  0  0  0  0  0  0  0  0  0  0  0
    6.4398    2.9883   23.8099 C   0  0  0  0  0  0  0  0  0  0  0  0
    5.5513    4.0277   23.5135 C   0  0  0  0  0  0  0  0  0  0  0  0
    5.9383    5.0318   22.6257 C   0  0  0  0  0  0  0  0  0  0  0  0
    7.1972    5.0153   22.0459 C   0  0  0  0  0  0  0  0  0  0  0  0
    8.0720    3.9819   22.3665 C   0  0  0  0  0  0  0  0  0  0  0  0
    7.7269    2.9601   23.2374 C   0  0  0  0  0  0  0  0  0  0  0  0
    8.6564    1.7832   23.5087 C   0  0  2  0  0  0  0  0  0  0  0  0
   10.1645    2.0524   23.3433 C   0  0  0  0  0  0  0  0  0  0  0  0
   10.9929    0.8541   23.8289 C   0  0  2  0  0  0  0  0  0  0  0  0
   12.4890    1.0788   23.6101 C   0  0  0  0  0  0  0  0  0  0  0  0
   12.8387    1.9807   24.1221 H   0  0  0  0  0  0  0  0  0  0  0  0
   13.0859    0.2312   23.9683 H   0  0  0  0  0  0  0  0  0  0  0  0
   12.7098    1.2058   22.5435 H   0  0  0  0  0  0  0  0  0  0  0  0
   10.5196   -0.4275   23.1387 C   0  0  0  0  0  0  0  0  0  0  0  0
    8.9989   -0.6101   23.2634 C   0  0  0  0  0  0  0  0  0  0  0  0
    8.2612    0.5601   22.7862 N   0  0  0  0  0  0  0  0  0  0  0  0
    7.9295    0.6541   21.4236 C   0  0  0  0  0  0  0  0  0  0  0  0
    8.3429    1.5305   20.6951 O   0  0  0  0  0  0  0  0  0  0  0  0
    6.9755   -0.4303   20.8955 C   0  0  0  0  0  0  0  0  0  0  0  0
    6.1116    0.0830   19.7662 C   0  0  0  0  0  0  0  0  0  0  0  0
    6.4264   -0.2085   18.4649 C   0  0  0  0  0  0  0  0  0  0  0  0
    5.7611    0.2419   17.3663 N   0  0  0  0  0  0  0  0  0  0  0  0
    4.7348    1.0293   17.5774 C   0  0  0  0  0  0  0  0  0  0  0  0
    4.2872    1.4198   18.8672 C   0  0  0  0  0  0  0  0  0  0  0  0
    3.1698    2.2734   19.0456 C   0  0  0  0  0  0  0  0  0  0  0  0
    2.7643    2.6433   20.2988 C   0  0  0  0  0  0  0  0  0  0  0  0
    3.4652    2.1649   21.4317 C   0  0  0  0  0  0  0  0  0  0  0  0
    4.5488    1.3325   21.2898 C   0  0  0  0  0  0  0  0  0  0  0  0
    4.9932    0.9373   20.0004 C   0  0  0  0  0  0  0  0  0  0  0  0
    5.0708    0.9763   22.1741 H   0  0  0  0  0  0  0  0  0  0  0  0
    3.1368    2.4653   22.4241 H   0  0  0  0  0  0  0  0  0  0  0  0
    1.9129    3.3083   20.4262 H   0  0  0  0  0  0  0  0  0  0  0  0
    2.6561    2.6474   18.1630 H   0  0  0  0  0  0  0  0  0  0  0  0
    4.2019    1.3970   16.6976 H   0  0  0  0  0  0  0  0  0  0  0  0
    7.2742   -0.8528   18.2394 H   0  0  0  0  0  0  0  0  0  0  0  0
    6.3693   -0.8298   21.7207 H   0  0  0  0  0  0  0  0  0  0  0  0
    7.5889   -1.2635   20.5241 H   0  0  0  0  0  0  0  0  0  0  0  0
    8.6690   -1.4847   22.6989 H   0  0  0  0  0  0  0  0  0  0  0  0
    8.7404   -0.7781   24.3182 H   0  0  0  0  0  0  0  0  0  0  0  0
   10.7966   -0.3851   22.0782 H   0  0  0  0  0  0  0  0  0  0  0  0
   11.0496   -1.2957   23.5536 H   0  0  0  0  0  0  0  0  0  0  0  0
   10.8234    0.7368   24.9096 H   0  0  0  0  0  0  0  0  0  0  0  0
   10.4540    2.9447   23.9136 H   0  0  0  0  0  0  0  0  0  0  0  0
   10.3987    2.2591   22.2922 H   0  0  0  0  0  0  0  0  0  0  0  0
    8.5165    1.5180   24.5621 H   0  0  0  0  0  0  0  0  0  0  0  0
    9.0400    3.9584   21.8779 H   0  0  0  0  0  0  0  0  0  0  0  0
    7.5018    5.7835   21.3390 H   0  0  0  0  0  0  0  0  0  0  0  0
    5.2504    5.8352   22.3806 H   0  0  0  0  0  0  0  0  0  0  0  0
    4.5618    4.0692   23.9626 H   0  0  0  0  0  0  0  0  0  0  0  0
    4.6964    2.7757   25.9653 H   0  0  0  0  0  0  0  0  0  0  0  0
    4.9066    1.0232   25.9181 H   0  0  0  0  0  0  0  0  0  0  0  0
    4.0299    1.8262   24.6151 H   0  0  0  0  0  0  0  0  0  0  0  0
  1  2  1  0
  2  3  1  0
  3  4  2  0
  4  5  1  0
  5  6  2  0
  6  7  1  0
  7  8  2  0
  8  9  1  0
  9 10  1  0
 10 11  1  0
 11 12  1  0
 12 13  1  0
 12 14  1  0
 12 15  1  0
 11 16  1  0
 16 17  1  0
 17 18  1  0
 18 19  1  0
 19 20  2  0
 19 21  1  0
 21 22  1  0
 22 23  2  0
 23 24  1  0
 24 25  2  0
 25 26  1  0
 26 27  2  0
 27 28  1  0
 28 29  2  0
 29 30  1  0
 30 31  2  0
 30 32  1  0
 29 33  1  0
 28 34  1  0
 27 35  1  0
 25 36  1  0
 23 37  1  0
 21 38  1  0
 21 39  1  0
 17 40  1  0
 17 41  1  0
 16 42  1  0
 16 43  1  0
 11 44  1  1
 10 45  1  0
 10 46  1  0
  9 47  1  1
  7 48  1  0
  6 49  1  0
  5 50  1  0
  4 51  1  0
  1 52  1  0
  1 53  1  0
  1 54  1  0
  8  3  1  0
 18  9  1  0
 31 22  1  0
 31 26  1  0
M  END
>  <cnnaffinities>  (12) 
[5.53173]

>  <score>  (12) 
5.53173

>  <index>  (12) 
11

>  <Smiles>  (12) 
C(Oc1c(c(c(c(c1[C@@]1(C([C@](C([H])([H])[H])(C(C(N1C(=O)C(c1c(nc(c2c(c(c(c(c12)[H])[H])[H])[H])[H])[H])([H])[H])([H])[H])([H])[H])[H])([H])[H])[H])[H])[H])[H])[H])([H])([H])[H]

>  <h>  (12) 
<NA>

>  <Training>  (12) 
True

>  <Success>  (12) 
True

>  <enamine_searched>  (12) 
False

>  <enamine_id>  (12) 
nan

$$$$

     RDKit          3D

 47 50  0  0  0  0  0  0  0  0999 V2000
    8.4822    1.4158   20.8161 O   0  0  0  0  0  0  0  0  0  0  0  0
    7.8329    0.6706   21.5340 C   0  0  0  0  0  0  0  0  0  0  0  0
    6.9414   -0.4253   20.9229 C   0  0  0  0  0  0  0  0  0  0  0  0
    6.1090    0.0915   19.7745 C   0  0  0  0  0  0  0  0  0  0  0  0
    6.4330   -0.2030   18.4776 C   0  0  0  0  0  0  0  0  0  0  0  0
    5.7705    0.2444   17.3767 N   0  0  0  0  0  0  0  0  0  0  0  0
    4.7402    1.0271   17.5834 C   0  0  0  0  0  0  0  0  0  0  0  0
    4.2830    1.4139   18.8708 C   0  0  0  0  0  0  0  0  0  0  0  0
    3.1666    2.2700   19.0462 C   0  0  0  0  0  0  0  0  0  0  0  0
    2.7658    2.6391   20.3008 C   0  0  0  0  0  0  0  0  0  0  0  0
    3.4602    2.1681   21.4346 C   0  0  0  0  0  0  0  0  0  0  0  0
    4.5436    1.3373   21.2933 C   0  0  0  0  0  0  0  0  0  0  0  0
    4.9842    0.9386   20.0019 C   0  0  0  0  0  0  0  0  0  0  0  0
    5.0707    0.9831   22.1748 H   0  0  0  0  0  0  0  0  0  0  0  0
    3.1362    2.4657   22.4284 H   0  0  0  0  0  0  0  0  0  0  0  0
    1.9178    3.3068   20.4278 H   0  0  0  0  0  0  0  0  0  0  0  0
    2.6605    2.6380   18.1588 H   0  0  0  0  0  0  0  0  0  0  0  0
    4.2101    1.3906   16.7012 H   0  0  0  0  0  0  0  0  0  0  0  0
    7.2801   -0.8525   18.2517 H   0  0  0  0  0  0  0  0  0  0  0  0
    6.3164   -0.9012   21.6861 H   0  0  0  0  0  0  0  0  0  0  0  0
    7.6161   -1.2017   20.5389 H   0  0  0  0  0  0  0  0  0  0  0  0
    7.8784    0.7682   22.8967 N   0  0  0  0  0  0  0  0  0  0  0  0
    7.4149   -0.2138   23.8764 C   0  0  0  0  0  0  0  0  0  0  0  0
    8.0093    0.2887   25.2071 C   0  0  2  0  0  0  0  0  0  0  0  0
    7.1898   -0.1376   26.4151 C   0  0  0  0  0  0  0  0  0  0  0  0
    5.8443    0.1837   26.2416 F   0  0  0  0  0  0  0  0  0  0  0  0
    7.2558   -1.2239   26.5653 H   0  0  0  0  0  0  0  0  0  0  0  0
    7.5424    0.3593   27.3291 H   0  0  0  0  0  0  0  0  0  0  0  0
    8.2429    1.8162   25.0118 C   0  0  0  0  0  0  0  0  0  0  0  0
    9.3870    2.3959   25.8628 C   0  0  0  0  0  0  0  0  0  0  0  0
    9.2097    3.9310   25.8350 C   0  0  0  0  0  0  0  0  0  0  0  0
    7.6894    4.1422   25.5901 C   0  0  0  0  0  0  0  0  0  0  0  0
    7.0639    2.7313   25.4130 C   0  0  0  0  0  0  0  0  0  0  0  0
    6.2444    2.6948   24.6792 H   0  0  0  0  0  0  0  0  0  0  0  0
    6.6456    2.3703   26.3591 H   0  0  0  0  0  0  0  0  0  0  0  0
    7.2017    4.6573   26.4243 H   0  0  0  0  0  0  0  0  0  0  0  0
    7.5213    4.7635   24.7047 H   0  0  0  0  0  0  0  0  0  0  0  0
    9.5606    4.4612   26.7267 H   0  0  0  0  0  0  0  0  0  0  0  0
    9.8013    4.3500   25.0110 H   0  0  0  0  0  0  0  0  0  0  0  0
    9.2777    1.9664   26.8681 H   0  0  0  0  0  0  0  0  0  0  0  0
   10.3462    2.0611   25.4538 H   0  0  0  0  0  0  0  0  0  0  0  0
    8.5518    1.9147   23.5007 C   0  0  0  0  0  0  0  0  0  0  0  0
    8.1816    2.8485   23.0610 H   0  0  0  0  0  0  0  0  0  0  0  0
    9.6321    1.8854   23.2958 H   0  0  0  0  0  0  0  0  0  0  0  0
    9.0054   -0.1653   25.3312 H   0  0  0  0  0  0  0  0  0  0  0  0
    7.7646   -1.2256   23.6260 H   0  0  0  0  0  0  0  0  0  0  0  0
    6.3162   -0.2509   23.9238 H   0  0  0  0  0  0  0  0  0  0  0  0
  1  2  2  0
  2  3  1  0
  3  4  1  0
  4  5  2  0
  5  6  1  0
  6  7  2  0
  7  8  1  0
  8  9  2  0
  9 10  1  0
 10 11  2  0
 11 12  1  0
 12 13  2  0
 12 14  1  0
 11 15  1  0
 10 16  1  0
  9 17  1  0
  7 18  1  0
  5 19  1  0
  3 20  1  0
  3 21  1  0
  2 22  1  0
 22 23  1  0
 23 24  1  0
 24 25  1  0
 25 26  1  0
 25 27  1  0
 25 28  1  0
 24 29  1  0
 29 30  1  0
 30 31  1  0
 31 32  1  0
 32 33  1  0
 33 34  1  0
 33 35  1  0
 32 36  1  0
 32 37  1  0
 31 38  1  0
 31 39  1  0
 30 40  1  0
 30 41  1  0
 29 42  1  0
 42 43  1  0
 42 44  1  0
 24 45  1  1
 23 46  1  0
 23 47  1  0
 13  4  1  0
 42 22  1  0
 13  8  1  0
 33 29  1  0
M  END
>  <cnnaffinities>  (13) 
[4.98651, 4.94944, 5.32483, 5.3197, 5.3616]

>  <score>  (13) 
4.98651

>  <index>  (13) 
12

>  <Smiles>  (13) 
O=C(C(c1c(nc(c2c(c(c(c(c12)[H])[H])[H])[H])[H])[H])([H])[H])N1C([C@](C(F)([H])[H])(C2(C(C(C(C2([H])[H])([H])[H])([H])[H])([H])[H])C1([H])[H])[H])([H])[H]

>  <h>  (13) 
<NA>

>  <Training>  (13) 
True

>  <Success>  (13) 
True

>  <enamine_searched>  (13) 
False

>  <enamine_id>  (13) 
nan

$$$$

     RDKit          3D

 67 72  0  0  0  0  0  0  0  0999 V2000
    6.5047    4.3466   21.4066 C   0  0  0  0  0  0  0  0  0  0  0  0
    7.5330    3.9415   22.3582 N   0  0  0  0  0  0  0  0  0  0  0  0
    7.1272    3.2862   23.4855 C   0  0  0  0  0  0  0  0  0  0  0  0
    5.9444    3.0857   23.7298 O   0  0  0  0  0  0  0  0  0  0  0  0
    8.2211    2.8229   24.4637 C   0  0  0  0  0  0  0  0  0  0  0  0
    8.8843    1.6230   23.9713 N   0  0  0  0  0  0  0  0  0  0  0  0
    8.0844    0.4150   23.8302 C   0  0  0  0  0  0  0  0  0  0  0  0
    8.4548   -0.3877   22.5635 C   0  0  2  0  0  0  0  0  0  0  0  0
    7.9748    0.3230   21.2788 C   0  0  0  0  0  0  0  0  0  0  0  0
    8.4582    1.3054   20.7507 O   0  0  0  0  0  0  0  0  0  0  0  0
    6.9008   -0.3719   20.7844 N   0  0  0  0  0  0  0  0  0  0  0  0
    6.1357    0.1357   19.7189 C   0  0  0  0  0  0  0  0  0  0  0  0
    6.4756   -0.1735   18.4296 C   0  0  0  0  0  0  0  0  0  0  0  0
    5.7853    0.2509   17.3468 N   0  0  0  0  0  0  0  0  0  0  0  0
    4.7387    1.0145   17.5639 C   0  0  0  0  0  0  0  0  0  0  0  0
    4.2816    1.4015   18.8592 C   0  0  0  0  0  0  0  0  0  0  0  0
    3.1581    2.2475   19.0497 C   0  0  0  0  0  0  0  0  0  0  0  0
    2.7676    2.6163   20.3106 C   0  0  0  0  0  0  0  0  0  0  0  0
    3.4760    2.1568   21.4439 C   0  0  0  0  0  0  0  0  0  0  0  0
    4.5650    1.3331   21.2870 C   0  0  0  0  0  0  0  0  0  0  0  0
    4.9945    0.9424   19.9845 C   0  0  0  0  0  0  0  0  0  0  0  0
    5.1325    1.0228   22.1599 H   0  0  0  0  0  0  0  0  0  0  0  0
    3.1837    2.4776   22.4402 H   0  0  0  0  0  0  0  0  0  0  0  0
    1.9175    3.2779   20.4440 H   0  0  0  0  0  0  0  0  0  0  0  0
    2.6407    2.6140   18.1695 H   0  0  0  0  0  0  0  0  0  0  0  0
    4.1903    1.3684   16.6912 H   0  0  0  0  0  0  0  0  0  0  0  0
    7.3486   -0.7958   18.2407 H   0  0  0  0  0  0  0  0  0  0  0  0
    6.4754   -1.4941   21.5842 C   0  0  0  0  0  0  0  0  0  0  0  0
    7.6990   -1.7413   22.4712 C   0  0  2  0  0  0  0  0  0  0  0  0
    7.3346   -2.4646   23.7589 C   0  0  0  0  0  0  0  0  0  0  0  0
    6.7715   -3.7181   23.4454 O   0  0  0  0  0  0  0  0  0  0  0  0
    7.7430   -4.7345   23.3543 C   0  0  0  0  0  0  0  0  0  0  0  0
    7.0883   -5.9914   22.8477 C   0  0  0  0  0  0  0  0  0  0  0  0
    7.9290   -7.2211   22.6784 C   0  0  0  0  0  0  0  0  0  0  0  0
    7.4281   -6.4745   21.4682 C   0  0  0  0  0  0  0  0  0  0  0  0
    8.1446   -5.8747   20.9175 H   0  0  0  0  0  0  0  0  0  0  0  0
    6.6597   -6.9085   20.8327 H   0  0  0  0  0  0  0  0  0  0  0  0
    7.4922   -8.1915   22.9096 H   0  0  0  0  0  0  0  0  0  0  0  0
    8.9863   -7.1456   22.9262 H   0  0  0  0  0  0  0  0  0  0  0  0
    6.0656   -6.1382   23.1767 H   0  0  0  0  0  0  0  0  0  0  0  0
    8.2231   -4.8630   24.3398 H   0  0  0  0  0  0  0  0  0  0  0  0
    8.5673   -4.4635   22.6674 H   0  0  0  0  0  0  0  0  0  0  0  0
    6.5731   -1.9000   24.3091 H   0  0  0  0  0  0  0  0  0  0  0  0
    8.2100   -2.5766   24.4216 H   0  0  0  0  0  0  0  0  0  0  0  0
    8.3525   -2.4131   21.9143 H   0  0  0  0  0  0  0  0  0  0  0  0
    5.5743   -1.2593   22.1698 H   0  0  0  0  0  0  0  0  0  0  0  0
    6.2348   -2.3518   20.9501 H   0  0  0  0  0  0  0  0  0  0  0  0
    9.9571   -0.4928   22.4772 C   0  0  0  0  0  0  0  0  0  0  0  0
   10.5166   -1.3831   21.5574 C   0  0  0  0  0  0  0  0  0  0  0  0
   11.8808   -1.4416   21.3848 C   0  0  0  0  0  0  0  0  0  0  0  0
   12.4742   -2.5217   20.1608 Cl  0  0  0  0  0  0  0  0  0  0  0  0
   12.7432   -0.6320   22.1226 C   0  0  0  0  0  0  0  0  0  0  0  0
   12.1942    0.2735   23.0125 C   0  0  0  0  0  0  0  0  0  0  0  0
   10.8087    0.3964   23.1432 C   0  0  0  0  0  0  0  0  0  0  0  0
   10.2538    1.5625   23.9238 C   0  0  0  0  0  0  0  0  0  0  0  0
   10.9706    2.4164   24.4309 O   0  0  0  0  0  0  0  0  0  0  0  0
   12.8261    0.9171   23.6132 H   0  0  0  0  0  0  0  0  0  0  0  0
   13.8133   -0.6842   21.9606 H   0  0  0  0  0  0  0  0  0  0  0  0
    9.9100   -2.0163   20.9217 H   0  0  0  0  0  0  0  0  0  0  0  0
    7.0323    0.7048   23.7972 H   0  0  0  0  0  0  0  0  0  0  0  0
    8.2210   -0.2195   24.7158 H   0  0  0  0  0  0  0  0  0  0  0  0
    9.0034    3.5765   24.6152 H   0  0  0  0  0  0  0  0  0  0  0  0
    7.7412    2.6290   25.4362 H   0  0  0  0  0  0  0  0  0  0  0  0
    8.4363    3.6819   21.9832 H   0  0  0  0  0  0  0  0  0  0  0  0
    5.7138    4.8722   21.9501 H   0  0  0  0  0  0  0  0  0  0  0  0
    6.9288    5.0254   20.6596 H   0  0  0  0  0  0  0  0  0  0  0  0
    6.0587    3.4741   20.9051 H   0  0  0  0  0  0  0  0  0  0  0  0
  1  2  1  0
  2  3  1  0
  3  4  2  0
  3  5  1  0
  5  6  1  0
  6  7  1  0
  8  7  1  1
  8  9  1  0
  9 10  2  0
  9 11  1  0
 11 12  1  0
 12 13  2  0
 13 14  1  0
 14 15  2  0
 15 16  1  0
 16 17  2  0
 17 18  1  0
 18 19  2  0
 19 20  1  0
 20 21  2  0
 20 22  1  0
 19 23  1  0
 18 24  1  0
 17 25  1  0
 15 26  1  0
 13 27  1  0
 11 28  1  0
 28 29  1  0
 29 30  1  0
 30 31  1  0
 31 32  1  0
 32 33  1  0
 33 34  1  0
 34 35  1  0
 35 36  1  0
 35 37  1  0
 34 38  1  0
 34 39  1  0
 33 40  1  0
 32 41  1  0
 32 42  1  0
 30 43  1  0
 30 44  1  0
 29 45  1  6
 28 46  1  0
 28 47  1  0
  8 48  1  0
 48 49  2  0
 49 50  1  0
 50 51  1  0
 50 52  2  0
 52 53  1  0
 53 54  2  0
 54 55  1  0
 55 56  2  0
 53 57  1  0
 52 58  1  0
 49 59  1  0
  7 60  1  0
  7 61  1  0
  5 62  1  0
  5 63  1  0
  2 64  1  0
  1 65  1  0
  1 66  1  0
  1 67  1  0
 55  6  1  0
 29  8  1  0
 35 33  1  0
 54 48  1  0
 21 12  1  0
 21 16  1  0
M  END
>  <cnnaffinities>  (14) 
[6.62847]

>  <score>  (14) 
6.62847

>  <index>  (14) 
13

>  <Smiles>  (14) 
C(N(C(=O)C(N1C([C@@]2(C(=O)N(c3c(nc(c4c(c(c(c(c34)[H])[H])[H])[H])[H])[H])C([C@@]2(C(OC(C2(C(C2([H])[H])([H])[H])[H])([H])[H])([H])[H])[H])([H])[H])c2c(c(Cl)c(c(c2C1=O)[H])[H])[H])([H])[H])([H])[H])[H])([H])([H])[H]

>  <h>  (14) 
<NA>

>  <Training>  (14) 
True

>  <Success>  (14) 
True

>  <enamine_searched>  (14) 
False

>  <enamine_id>  (14) 
nan

$$$$

     RDKit          3D

 67 73  0  0  0  0  0  0  0  0999 V2000
    7.4965   -2.3940   23.8853 C   0  0  0  0  0  0  0  0  0  0  0  0
    7.8247   -1.6901   22.5650 C   0  0  1  0  0  0  0  0  0  0  0  0
    6.5979   -1.5378   21.6425 C   0  0  0  0  0  0  0  0  0  0  0  0
    6.9358   -0.3887   20.8231 N   0  0  0  0  0  0  0  0  0  0  0  0
    6.1353    0.1038   19.7568 C   0  0  0  0  0  0  0  0  0  0  0  0
    6.4580   -0.2088   18.4625 C   0  0  0  0  0  0  0  0  0  0  0  0
    5.7748    0.2284   17.3754 N   0  0  0  0  0  0  0  0  0  0  0  0
    4.7475    1.0150   17.5919 C   0  0  0  0  0  0  0  0  0  0  0  0
    4.2978    1.4173   18.8834 C   0  0  0  0  0  0  0  0  0  0  0  0
    3.1772    2.2712   19.0625 C   0  0  0  0  0  0  0  0  0  0  0  0
    2.7735    2.6397   20.3167 C   0  0  0  0  0  0  0  0  0  0  0  0
    3.4664    2.1655   21.4522 C   0  0  0  0  0  0  0  0  0  0  0  0
    4.5494    1.3308   21.3063 C   0  0  0  0  0  0  0  0  0  0  0  0
    5.0047    0.9442   20.0125 C   0  0  0  0  0  0  0  0  0  0  0  0
    5.0668    0.9791   22.1930 H   0  0  0  0  0  0  0  0  0  0  0  0
    3.1506    2.4771   22.4442 H   0  0  0  0  0  0  0  0  0  0  0  0
    1.9298    3.3125   20.4428 H   0  0  0  0  0  0  0  0  0  0  0  0
    2.6680    2.6408   18.1772 H   0  0  0  0  0  0  0  0  0  0  0  0
    4.2116    1.3778   16.7160 H   0  0  0  0  0  0  0  0  0  0  0  0
    7.3135   -0.8528   18.2639 H   0  0  0  0  0  0  0  0  0  0  0  0
    7.9896    0.3529   21.3037 C   0  0  0  0  0  0  0  0  0  0  0  0
    8.4597    1.3192   20.7346 O   0  0  0  0  0  0  0  0  0  0  0  0
    8.4430   -0.2563   22.6501 C   0  0  1  0  0  0  0  0  0  0  0  0
    7.8542    0.5365   23.8446 C   0  0  0  0  0  0  0  0  0  0  0  0
    8.3878    1.8823   23.9175 N   0  0  0  0  0  0  0  0  0  0  0  0
    7.4836    3.0092   24.0403 C   0  0  0  0  0  0  0  0  0  0  0  0
    7.1858    3.6476   22.6792 C   0  0  0  0  0  0  0  0  0  0  0  0
    6.2250    4.7885   22.7920 N   0  0  2  0  0  4  0  0  0  0  0  0
    5.6065    5.2023   21.4561 C   0  0  0  0  0  0  0  0  0  0  0  0
    5.9581    6.6951   21.3567 C   0  0  2  0  0  0  0  0  0  0  0  0
    7.3621    6.7374   21.9589 C   0  0  0  0  0  0  0  0  0  0  0  0
    6.8619    6.1164   23.2645 C   0  0  1  0  0  0  0  0  0  0  0  0
    5.7209    7.0688   23.5954 C   0  0  0  0  0  0  0  0  0  0  0  0
    5.1709    7.4104   22.3154 O   0  0  0  0  0  0  0  0  0  0  0  0
    6.0785    7.9793   24.0913 H   0  0  0  0  0  0  0  0  0  0  0  0
    4.9520    6.5993   24.2208 H   0  0  0  0  0  0  0  0  0  0  0  0
    7.5723    5.9352   24.0636 H   0  0  0  0  0  0  0  0  0  0  0  0
    7.7320    7.7565   22.0870 H   0  0  0  0  0  0  0  0  0  0  0  0
    8.1128    6.1421   21.4320 H   0  0  0  0  0  0  0  0  0  0  0  0
    5.7780    7.1395   20.3806 H   0  0  0  0  0  0  0  0  0  0  0  0
    4.5311    5.0247   21.4667 H   0  0  0  0  0  0  0  0  0  0  0  0
    6.0670    4.6040   20.6670 H   0  0  0  0  0  0  0  0  0  0  0  0
    5.4760    4.4788   23.4397 H   0  0  0  0  0  0  0  0  0  0  0  0
    6.7580    2.8932   22.0105 H   0  0  0  0  0  0  0  0  0  0  0  0
    8.1210    3.9932   22.2200 H   0  0  0  0  0  0  0  0  0  0  0  0
    6.5574    2.6382   24.4983 H   0  0  0  0  0  0  0  0  0  0  0  0
    7.9591    3.7239   24.7153 H   0  0  0  0  0  0  0  0  0  0  0  0
    9.7283    2.1336   23.8142 C   0  0  0  0  0  0  0  0  0  0  0  0
   10.2220    3.2185   24.0969 O   0  0  0  0  0  0  0  0  0  0  0  0
   10.5546    0.9819   23.3128 C   0  0  0  0  0  0  0  0  0  0  0  0
   11.9430    1.0882   23.3683 C   0  0  0  0  0  0  0  0  0  0  0  0
   12.7392    0.0532   22.9216 C   0  0  0  0  0  0  0  0  0  0  0  0
   12.1254   -1.0911   22.4199 C   0  0  0  0  0  0  0  0  0  0  0  0
   13.0542   -2.5131   22.0893 Cl  0  0  0  0  0  0  0  0  0  0  0  0
   10.7576   -1.1775   22.2703 C   0  0  0  0  0  0  0  0  0  0  0  0
    9.9483   -0.1608   22.7645 C   0  0  0  0  0  0  0  0  0  0  0  0
   10.3375   -2.0293   21.7461 H   0  0  0  0  0  0  0  0  0  0  0  0
   13.8197    0.1159   22.9308 H   0  0  0  0  0  0  0  0  0  0  0  0
   12.3690    1.9901   23.7884 H   0  0  0  0  0  0  0  0  0  0  0  0
    8.1053   -0.0166   24.7634 H   0  0  0  0  0  0  0  0  0  0  0  0
    6.7603    0.6002   23.7586 H   0  0  0  0  0  0  0  0  0  0  0  0
    5.6863   -1.3576   22.2328 H   0  0  0  0  0  0  0  0  0  0  0  0
    6.4225   -2.4210   21.0150 H   0  0  0  0  0  0  0  0  0  0  0  0
    8.5464   -2.3020   22.0221 H   0  0  0  0  0  0  0  0  0  0  0  0
    8.3667   -2.4612   24.5494 H   0  0  0  0  0  0  0  0  0  0  0  0
    7.1368   -3.4149   23.7096 H   0  0  0  0  0  0  0  0  0  0  0  0
    6.7028   -1.8627   24.4240 H   0  0  0  0  0  0  0  0  0  0  0  0
  1  2  1  0
  2  3  1  0
  3  4  1  0
  4  5  1  0
  5  6  2  0
  6  7  1  0
  7  8  2  0
  8  9  1  0
  9 10  2  0
 10 11  1  0
 11 12  2  0
 12 13  1  0
 13 14  2  0
 13 15  1  0
 12 16  1  0
 11 17  1  0
 10 18  1  0
  8 19  1  0
  6 20  1  0
  4 21  1  0
 21 22  2  0
 21 23  1  0
 23 24  1  1
 24 25  1  0
 25 26  1  0
 26 27  1  0
 27 28  1  0
 28 29  1  0
 29 30  1  0
 30 31  1  0
 31 32  1  0
 32 33  1  0
 33 34  1  0
 33 35  1  0
 33 36  1  0
 32 37  1  1
 31 38  1  0
 31 39  1  0
 30 40  1  6
 29 41  1  0
 29 42  1  0
 28 43  1  1
 27 44  1  0
 27 45  1  0
 26 46  1  0
 26 47  1  0
 25 48  1  0
 48 49  2  0
 48 50  1  0
 50 51  2  0
 51 52  1  0
 52 53  2  0
 53 54  1  0
 53 55  1  0
 55 56  2  0
 55 57  1  0
 52 58  1  0
 51 59  1  0
 24 60  1  0
 24 61  1  0
  3 62  1  0
  3 63  1  0
  2 64  1  6
  1 65  1  0
  1 66  1  0
  1 67  1  0
 23  2  1  0
 32 28  1  0
 56 50  1  0
 14  5  1  0
 56 23  1  0
 14  9  1  0
 34 30  1  0
M  CHG  1  28   1
M  END
>  <cnnaffinities>  (15) 
[6.4753]

>  <score>  (15) 
6.4753

>  <index>  (15) 
14

>  <Smiles>  (15) 
C([C@]1(C(N(c2c(nc(c3c(c(c(c(c23)[H])[H])[H])[H])[H])[H])C(=O)[C@]21C(N(C(C([N@@+]1(C([C@@]3(C([C@]1(C(O3)([H])[H])[H])([H])[H])[H])([H])[H])[H])([H])[H])([H])[H])C(=O)c1c(c(c(Cl)c(c21)[H])[H])[H])([H])[H])([H])[H])[H])([H])([H])[H]

>  <h>  (15) 
<NA>

>  <Training>  (15) 
True

>  <Success>  (15) 
True

>  <enamine_searched>  (15) 
False

>  <enamine_id>  (15) 
nan

$$$$

     RDKit          3D

 72 77  0  0  0  0  0  0  0  0999 V2000
    4.9671    5.5496   20.5576 C   0  0  0  0  0  0  0  0  0  0  0  0
    5.7250    5.1174   21.8011 C   0  0  1  0  0  0  0  0  0  0  0  0
    6.8918    4.1973   21.4234 C   0  0  0  0  0  0  0  0  0  0  0  0
    7.8880    4.0747   22.5393 N   0  0  2  0  0  4  0  0  0  0  0  0
    7.1984    3.4199   23.7099 C   0  0  0  0  0  0  0  0  0  0  0  0
    8.1798    2.8158   24.7026 C   0  0  0  0  0  0  0  0  0  0  0  0
    8.8635    1.6691   24.1248 N   0  0  0  0  0  0  0  0  0  0  0  0
    8.0928    0.4527   23.9333 C   0  0  0  0  0  0  0  0  0  0  0  0
    8.4524   -0.3086   22.6352 C   0  0  2  0  0  0  0  0  0  0  0  0
    7.9071    0.4228   21.3932 C   0  0  0  0  0  0  0  0  0  0  0  0
    8.2716    1.5160   20.9858 O   0  0  0  0  0  0  0  0  0  0  0  0
    6.9290   -0.3503   20.8163 N   0  0  0  0  0  0  0  0  0  0  0  0
    6.1518    0.1454   19.7388 C   0  0  0  0  0  0  0  0  0  0  0  0
    6.4938   -0.1560   18.4478 C   0  0  0  0  0  0  0  0  0  0  0  0
    5.8065    0.2728   17.3608 N   0  0  0  0  0  0  0  0  0  0  0  0
    4.7613    1.0370   17.5752 C   0  0  0  0  0  0  0  0  0  0  0  0
    4.2981    1.4226   18.8660 C   0  0  0  0  0  0  0  0  0  0  0  0
    3.1681    2.2607   19.0580 C   0  0  0  0  0  0  0  0  0  0  0  0
    2.7632    2.6192   20.3146 C   0  0  0  0  0  0  0  0  0  0  0  0
    3.4606    2.1464   21.4483 C   0  0  0  0  0  0  0  0  0  0  0  0
    4.5528    1.3276   21.2937 C   0  0  0  0  0  0  0  0  0  0  0  0
    5.0070    0.9548   19.9954 C   0  0  0  0  0  0  0  0  0  0  0  0
    5.0917    0.9853   22.1714 H   0  0  0  0  0  0  0  0  0  0  0  0
    3.1367    2.4406   22.4415 H   0  0  0  0  0  0  0  0  0  0  0  0
    1.9267    3.3004   20.4458 H   0  0  0  0  0  0  0  0  0  0  0  0
    2.6625    2.6425   18.1773 H   0  0  0  0  0  0  0  0  0  0  0  0
    4.2172    1.3921   16.6992 H   0  0  0  0  0  0  0  0  0  0  0  0
    7.3664   -0.7766   18.2497 H   0  0  0  0  0  0  0  0  0  0  0  0
    6.5048   -1.4663   21.6427 C   0  0  0  0  0  0  0  0  0  0  0  0
    7.7332   -1.6891   22.5381 C   0  0  2  0  0  0  0  0  0  0  0  0
    7.4576   -2.4158   23.8494 C   0  0  0  0  0  0  0  0  0  0  0  0
    7.0510   -3.4152   23.6642 H   0  0  0  0  0  0  0  0  0  0  0  0
    8.3847   -2.5304   24.4231 H   0  0  0  0  0  0  0  0  0  0  0  0
    6.7376   -1.8785   24.4760 H   0  0  0  0  0  0  0  0  0  0  0  0
    8.4038   -2.3200   21.9562 H   0  0  0  0  0  0  0  0  0  0  0  0
    6.2745   -2.3400   21.0219 H   0  0  0  0  0  0  0  0  0  0  0  0
    5.5953   -1.2327   22.2201 H   0  0  0  0  0  0  0  0  0  0  0  0
    9.9561   -0.3758   22.5003 C   0  0  0  0  0  0  0  0  0  0  0  0
   10.5300   -1.2833   21.6074 C   0  0  0  0  0  0  0  0  0  0  0  0
   11.8932   -1.3169   21.4093 C   0  0  0  0  0  0  0  0  0  0  0  0
   12.4621   -2.4723   20.2431 Cl  0  0  0  0  0  0  0  0  0  0  0  0
   12.7470   -0.4421   22.0878 C   0  0  0  0  0  0  0  0  0  0  0  0
   12.1711    0.4870   22.9406 C   0  0  0  0  0  0  0  0  0  0  0  0
   10.7873    0.5644   23.1180 C   0  0  0  0  0  0  0  0  0  0  0  0
   10.2095    1.7218   23.8976 C   0  0  0  0  0  0  0  0  0  0  0  0
   10.9021    2.6674   24.2570 O   0  0  0  0  0  0  0  0  0  0  0  0
   12.7781    1.1919   23.4930 H   0  0  0  0  0  0  0  0  0  0  0  0
   13.8224   -0.4707   21.9248 H   0  0  0  0  0  0  0  0  0  0  0  0
    9.9376   -1.9691   21.0095 H   0  0  0  0  0  0  0  0  0  0  0  0
    8.2347   -0.2122   24.7931 H   0  0  0  0  0  0  0  0  0  0  0  0
    7.0342    0.7143   23.8994 H   0  0  0  0  0  0  0  0  0  0  0  0
    7.6295    2.5201   25.6040 H   0  0  0  0  0  0  0  0  0  0  0  0
    8.9444    3.5338   24.9987 H   0  0  0  0  0  0  0  0  0  0  0  0
    6.5507    4.1557   24.1941 H   0  0  0  0  0  0  0  0  0  0  0  0
    6.5494    2.6357   23.2961 H   0  0  0  0  0  0  0  0  0  0  0  0
    8.4513    5.4690   22.8947 C   0  0  1  0  0  0  0  0  0  0  0  0
    9.9146    5.6928   22.5402 C   0  0  0  0  0  0  0  0  0  0  0  0
   10.2294    6.6636   22.9383 H   0  0  0  0  0  0  0  0  0  0  0  0
   10.1011    5.7224   21.4638 H   0  0  0  0  0  0  0  0  0  0  0  0
   10.5458    4.9221   22.9845 H   0  0  0  0  0  0  0  0  0  0  0  0
    7.5426    6.5430   22.2923 C   0  0  0  0  0  0  0  0  0  0  0  0
    6.1825    6.2487   22.5477 O   0  0  0  0  0  0  0  0  0  0  0  0
    7.7457    7.5131   22.7489 H   0  0  0  0  0  0  0  0  0  0  0  0
    7.7309    6.6325   21.2114 H   0  0  0  0  0  0  0  0  0  0  0  0
    8.3642    5.5199   23.9820 H   0  0  0  0  0  0  0  0  0  0  0  0
    8.6305    3.4359   22.1988 H   0  0  0  0  0  0  0  0  0  0  0  0
    7.3962    4.5837   20.5354 H   0  0  0  0  0  0  0  0  0  0  0  0
    6.5128    3.2147   21.1453 H   0  0  0  0  0  0  0  0  0  0  0  0
    5.0213    4.5827   22.4595 H   0  0  0  0  0  0  0  0  0  0  0  0
    4.5572    4.6622   20.0573 H   0  0  0  0  0  0  0  0  0  0  0  0
    4.1436    6.2217   20.8220 H   0  0  0  0  0  0  0  0  0  0  0  0
    5.6448    6.0710   19.8701 H   0  0  0  0  0  0  0  0  0  0  0  0
  1  2  1  0
  2  3  1  0
  3  4  1  0
  4  5  1  0
  5  6  1  0
  6  7  1  0
  7  8  1  0
  9  8  1  1
  9 10  1  0
 10 11  2  0
 10 12  1  0
 12 13  1  0
 13 14  2  0
 14 15  1  0
 15 16  2  0
 16 17  1  0
 17 18  2  0
 18 19  1  0
 19 20  2  0
 20 21  1  0
 21 22  2  0
 21 23  1  0
 20 24  1  0
 19 25  1  0
 18 26  1  0
 16 27  1  0
 14 28  1  0
 12 29  1  0
 29 30  1  0
 30 31  1  0
 31 32  1  0
 31 33  1  0
 31 34  1  0
 30 35  1  6
 29 36  1  0
 29 37  1  0
  9 38  1  0
 38 39  2  0
 39 40  1  0
 40 41  1  0
 40 42  2  0
 42 43  1  0
 43 44  2  0
 44 45  1  0
 45 46  2  0
 43 47  1  0
 42 48  1  0
 39 49  1  0
  8 50  1  0
  8 51  1  0
  6 52  1  0
  6 53  1  0
  5 54  1  0
  5 55  1  0
  4 56  1  0
 56 57  1  0
 57 58  1  0
 57 59  1  0
 57 60  1  0
 56 61  1  0
 61 62  1  0
 61 63  1  0
 61 64  1  0
 56 65  1  1
  4 66  1  6
  3 67  1  0
  3 68  1  0
  2 69  1  1
  1 70  1  0
  1 71  1  0
  1 72  1  0
 62  2  1  0
 45  7  1  0
 30  9  1  0
 44 38  1  0
 22 13  1  0
 22 17  1  0
M  CHG  1   4   1
M  END
>  <cnnaffinities>  (16) 
[6.56431]

>  <score>  (16) 
6.56431

>  <index>  (16) 
15

>  <Smiles>  (16) 
C([C@]1(C([N@+](C(C(N2C([C@@]3(C(=O)N(c4c(nc(c5c(c(c(c(c45)[H])[H])[H])[H])[H])[H])C([C@@]3(C([H])([H])[H])[H])([H])[H])c3c(c(Cl)c(c(c3C2=O)[H])[H])[H])([H])[H])([H])[H])([H])[H])([C@@](C([H])([H])[H])(C(O1)([H])[H])[H])[H])([H])[H])[H])([H])([H])[H]

>  <h>  (16) 
<NA>

>  <Training>  (16) 
True

>  <Success>  (16) 
True

>  <enamine_searched>  (16) 
False

>  <enamine_id>  (16) 
nan

$$$$

     RDKit          3D

 47 50  0  0  0  0  0  0  0  0999 V2000
    6.9071   -0.6079   26.4133 C   0  0  0  0  0  0  0  0  0  0  0  0
    6.9733   -1.6094   25.2679 C   0  0  1  0  0  0  0  0  0  0  0  0
    5.7399   -2.5136   25.1792 C   0  0  0  0  0  0  0  0  0  0  0  0
    5.5434   -2.8355   23.6877 C   0  0  2  0  0  0  0  0  0  0  0  0
    6.0314   -4.2256   23.3227 C   0  0  0  0  0  0  0  0  0  0  0  0
    5.1194   -5.2699   23.1658 C   0  0  0  0  0  0  0  0  0  0  0  0
    5.5586   -6.5586   22.8712 C   0  0  0  0  0  0  0  0  0  0  0  0
    6.9195   -6.8151   22.7397 C   0  0  0  0  0  0  0  0  0  0  0  0
    7.8348   -5.7838   22.9245 C   0  0  0  0  0  0  0  0  0  0  0  0
    7.3926   -4.5028   23.2257 C   0  0  0  0  0  0  0  0  0  0  0  0
    8.1234   -3.7138   23.3849 H   0  0  0  0  0  0  0  0  0  0  0  0
    8.9001   -5.9717   22.8581 H   0  0  0  0  0  0  0  0  0  0  0  0
    7.2668   -7.8187   22.5129 H   0  0  0  0  0  0  0  0  0  0  0  0
    4.8371   -7.3607   22.7436 H   0  0  0  0  0  0  0  0  0  0  0  0
    4.0550   -5.0756   23.2853 H   0  0  0  0  0  0  0  0  0  0  0  0
    6.2640   -1.7632   22.9971 N   0  0  0  0  0  0  0  0  0  0  0  0
    6.1555   -1.6451   21.6334 C   0  0  0  0  0  0  0  0  0  0  0  0
    5.4783   -2.4249   20.9863 O   0  0  0  0  0  0  0  0  0  0  0  0
    6.9056   -0.4878   20.9260 C   0  0  0  0  0  0  0  0  0  0  0  0
    6.1130    0.0881   19.7715 C   0  0  0  0  0  0  0  0  0  0  0  0
    6.4219   -0.2139   18.4708 C   0  0  0  0  0  0  0  0  0  0  0  0
    5.7591    0.2384   17.3697 N   0  0  0  0  0  0  0  0  0  0  0  0
    4.7367    1.0303   17.5778 C   0  0  0  0  0  0  0  0  0  0  0  0
    4.2859    1.4199   18.8672 C   0  0  0  0  0  0  0  0  0  0  0  0
    3.1627    2.2664   19.0466 C   0  0  0  0  0  0  0  0  0  0  0  0
    2.7490    2.6237   20.3004 C   0  0  0  0  0  0  0  0  0  0  0  0
    3.4424    2.1387   21.4327 C   0  0  0  0  0  0  0  0  0  0  0  0
    4.5316    1.3167   21.2888 C   0  0  0  0  0  0  0  0  0  0  0  0
    4.9897    0.9379   19.9994 C   0  0  0  0  0  0  0  0  0  0  0  0
    5.0482    0.9500   22.1727 H   0  0  0  0  0  0  0  0  0  0  0  0
    3.1076    2.4249   22.4250 H   0  0  0  0  0  0  0  0  0  0  0  0
    1.8937    3.2827   20.4351 H   0  0  0  0  0  0  0  0  0  0  0  0
    2.6488    2.6417   18.1643 H   0  0  0  0  0  0  0  0  0  0  0  0
    4.2022    1.3983   16.6981 H   0  0  0  0  0  0  0  0  0  0  0  0
    7.2647   -0.8670   18.2451 H   0  0  0  0  0  0  0  0  0  0  0  0
    7.8397   -0.9019   20.5218 H   0  0  0  0  0  0  0  0  0  0  0  0
    7.2012    0.3068   21.6232 H   0  0  0  0  0  0  0  0  0  0  0  0
    7.0723   -0.9448   23.8887 C   0  0  0  0  0  0  0  0  0  0  0  0
    8.1116   -0.8753   23.5505 H   0  0  0  0  0  0  0  0  0  0  0  0
    6.6823    0.0802   23.9185 H   0  0  0  0  0  0  0  0  0  0  0  0
    4.4825   -2.7803   23.4272 H   0  0  0  0  0  0  0  0  0  0  0  0
    4.8647   -1.9962   25.5834 H   0  0  0  0  0  0  0  0  0  0  0  0
    5.8560   -3.4154   25.7836 H   0  0  0  0  0  0  0  0  0  0  0  0
    7.8562   -2.2396   25.4177 H   0  0  0  0  0  0  0  0  0  0  0  0
    6.0296    0.0384   26.3034 H   0  0  0  0  0  0  0  0  0  0  0  0
    7.7895    0.0399   26.4482 H   0  0  0  0  0  0  0  0  0  0  0  0
    6.8194   -1.0996   27.3886 H   0  0  0  0  0  0  0  0  0  0  0  0
  1  2  1  0
  2  3  1  0
  3  4  1  0
  4  5  1  0
  5  6  2  0
  6  7  1  0
  7  8  2  0
  8  9  1  0
  9 10  2  0
 10 11  1  0
  9 12  1  0
  8 13  1  0
  7 14  1  0
  6 15  1  0
  4 16  1  0
 16 17  1  0
 17 18  2  0
 17 19  1  0
 19 20  1  0
 20 21  2  0
 21 22  1  0
 22 23  2  0
 23 24  1  0
 24 25  2  0
 25 26  1  0
 26 27  2  0
 27 28  1  0
 28 29  2  0
 28 30  1  0
 27 31  1  0
 26 32  1  0
 25 33  1  0
 23 34  1  0
 21 35  1  0
 19 36  1  0
 19 37  1  0
 16 38  1  0
 38 39  1  0
 38 40  1  0
  4 41  1  6
  3 42  1  0
  3 43  1  0
  2 44  1  1
  1 45  1  0
  1 46  1  0
  1 47  1  0
 38  2  1  0
 10  5  1  0
 29 20  1  0
 29 24  1  0
M  END
>  <cnnaffinities>  (17) 
[5.10999, 5.10759, 5.34213, 5.34113, 5.4683, 5.46617]

>  <score>  (17) 
5.10999

>  <index>  (17) 
16

>  <Smiles>  (17) 
C([C@]1(C([C@](c2c(c(c(c(c2[H])[H])[H])[H])[H])(N(C(=O)C(c2c(nc(c3c(c(c(c(c23)[H])[H])[H])[H])[H])[H])([H])[H])C1([H])[H])[H])([H])[H])[H])([H])([H])[H]

>  <h>  (17) 
<NA>

>  <Training>  (17) 
True

>  <Success>  (17) 
True

>  <enamine_searched>  (17) 
False

>  <enamine_id>  (17) 
nan

$$$$

     RDKit          3D

 58 63  0  0  0  0  0  0  0  0999 V2000
    7.6254   -2.9202   23.4427 C   0  0  0  0  0  0  0  0  0  0  0  0
    7.9550   -1.8828   22.3604 C   0  0  1  0  0  0  0  0  0  0  0  0
    6.8478   -1.7678   21.2947 C   0  0  0  0  0  0  0  0  0  0  0  0
    6.9360   -0.3974   20.8321 N   0  0  0  0  0  0  0  0  0  0  0  0
    6.1451    0.1130   19.7704 C   0  0  0  0  0  0  0  0  0  0  0  0
    6.4438   -0.2210   18.4749 C   0  0  0  0  0  0  0  0  0  0  0  0
    5.7659    0.2241   17.3879 N   0  0  0  0  0  0  0  0  0  0  0  0
    4.7461    1.0206   17.5976 C   0  0  0  0  0  0  0  0  0  0  0  0
    4.2964    1.4150   18.8887 C   0  0  0  0  0  0  0  0  0  0  0  0
    3.1678    2.2613   19.0653 C   0  0  0  0  0  0  0  0  0  0  0  0
    2.7448    2.6089   20.3177 C   0  0  0  0  0  0  0  0  0  0  0  0
    3.4230    2.1124   21.4567 C   0  0  0  0  0  0  0  0  0  0  0  0
    4.5134    1.2939   21.3109 C   0  0  0  0  0  0  0  0  0  0  0  0
    5.0008    0.9410   20.0194 C   0  0  0  0  0  0  0  0  0  0  0  0
    5.0193    0.9113   22.1931 H   0  0  0  0  0  0  0  0  0  0  0  0
    3.0868    2.3874   22.4522 H   0  0  0  0  0  0  0  0  0  0  0  0
    1.8926    3.2712   20.4429 H   0  0  0  0  0  0  0  0  0  0  0  0
    2.6632    2.6380   18.1782 H   0  0  0  0  0  0  0  0  0  0  0  0
    4.2185    1.3870   16.7156 H   0  0  0  0  0  0  0  0  0  0  0  0
    7.2869   -0.8772   18.2638 H   0  0  0  0  0  0  0  0  0  0  0  0
    7.6630    0.4235   21.6606 C   0  0  0  0  0  0  0  0  0  0  0  0
    7.8072    1.6162   21.4875 O   0  0  0  0  0  0  0  0  0  0  0  0
    8.2143   -0.4178   22.8351 C   0  0  1  0  0  0  0  0  0  0  0  0
    7.4132   -0.0791   24.1197 C   0  0  0  0  0  0  0  0  0  0  0  0
    7.6923    1.2609   24.5978 N   0  0  0  0  0  0  0  0  0  0  0  0
    6.5865    2.1899   24.7836 C   0  0  0  0  0  0  0  0  0  0  0  0
    5.5247    1.6712   25.7053 C   0  0  0  0  0  0  0  0  0  0  0  0
    4.3035    1.3471   25.3554 N   0  0  0  0  0  0  0  0  0  0  0  0
    3.6642    0.8608   26.4700 N   0  0  0  0  0  0  0  0  0  0  0  0
    4.5208    0.9125   27.4512 C   0  0  0  0  0  0  0  0  0  0  0  0
    5.7166    1.4258   27.0343 N   0  0  0  0  0  0  0  0  0  0  0  0
    6.9279    1.6218   27.8121 C   0  0  0  0  0  0  0  0  0  0  0  0
    7.3493    2.6152   27.6272 H   0  0  0  0  0  0  0  0  0  0  0  0
    6.6640    1.5399   28.8699 H   0  0  0  0  0  0  0  0  0  0  0  0
    7.6787    0.8633   27.5681 H   0  0  0  0  0  0  0  0  0  0  0  0
    4.3389    0.5955   28.4705 H   0  0  0  0  0  0  0  0  0  0  0  0
    7.0273    3.1214   25.1535 H   0  0  0  0  0  0  0  0  0  0  0  0
    6.1033    2.3838   23.8152 H   0  0  0  0  0  0  0  0  0  0  0  0
    8.9817    1.6536   24.8134 C   0  0  0  0  0  0  0  0  0  0  0  0
    9.2832    2.5855   25.5534 O   0  0  0  0  0  0  0  0  0  0  0  0
   10.0189    0.8810   24.0488 C   0  0  0  0  0  0  0  0  0  0  0  0
   11.3514    1.2064   24.2751 C   0  0  0  0  0  0  0  0  0  0  0  0
   12.3607    0.6717   23.5024 C   0  0  0  0  0  0  0  0  0  0  0  0
   11.9923   -0.1852   22.4716 C   0  0  0  0  0  0  0  0  0  0  0  0
   12.9506   -0.6734   21.6703 F   0  0  0  0  0  0  0  0  0  0  0  0
   10.6813   -0.5479   22.2360 C   0  0  0  0  0  0  0  0  0  0  0  0
    9.6682   -0.0587   23.0717 C   0  0  0  0  0  0  0  0  0  0  0  0
   10.4798   -1.1819   21.3785 H   0  0  0  0  0  0  0  0  0  0  0  0
   13.4067    0.9196   23.6428 H   0  0  0  0  0  0  0  0  0  0  0  0
   11.5236    1.9179   25.0625 H   0  0  0  0  0  0  0  0  0  0  0  0
    6.3416   -0.1379   23.9168 H   0  0  0  0  0  0  0  0  0  0  0  0
    7.6664   -0.8051   24.9070 H   0  0  0  0  0  0  0  0  0  0  0  0
    6.9966   -2.4435   20.4527 H   0  0  0  0  0  0  0  0  0  0  0  0
    5.8586   -1.9908   21.7239 H   0  0  0  0  0  0  0  0  0  0  0  0
    8.8715   -2.2052   21.8598 H   0  0  0  0  0  0  0  0  0  0  0  0
    7.5400   -3.9241   23.0094 H   0  0  0  0  0  0  0  0  0  0  0  0
    6.6695   -2.6936   23.9321 H   0  0  0  0  0  0  0  0  0  0  0  0
    8.3941   -2.9602   24.2242 H   0  0  0  0  0  0  0  0  0  0  0  0
  1  2  1  0
  2  3  1  0
  3  4  1  0
  4  5  1  0
  5  6  2  0
  6  7  1  0
  7  8  2  0
  8  9  1  0
  9 10  2  0
 10 11  1  0
 11 12  2  0
 12 13  1  0
 13 14  2  0
 13 15  1  0
 12 16  1  0
 11 17  1  0
 10 18  1  0
  8 19  1  0
  6 20  1  0
  4 21  1  0
 21 22  2  0
 21 23  1  0
 23 24  1  1
 24 25  1  0
 25 26  1  0
 26 27  1  0
 27 28  2  0
 28 29  1  0
 29 30  2  0
 30 31  1  0
 31 32  1  0
 32 33  1  0
 32 34  1  0
 32 35  1  0
 30 36  1  0
 26 37  1  0
 26 38  1  0
 25 39  1  0
 39 40  2  0
 39 41  1  0
 41 42  2  0
 42 43  1  0
 43 44  2  0
 44 45  1  0
 44 46  1  0
 46 47  2  0
 46 48  1  0
 43 49  1  0
 42 50  1  0
 24 51  1  0
 24 52  1  0
  3 53  1  0
  3 54  1  0
  2 55  1  6
  1 56  1  0
  1 57  1  0
  1 58  1  0
 23  2  1  0
 31 27  1  0
 47 41  1  0
 14  5  1  0
 47 23  1  0
 14  9  1  0
M  END
>  <cnnaffinities>  (18) 
[6.07655, 6.35548]

>  <score>  (18) 
6.07655

>  <index>  (18) 
17

>  <Smiles>  (18) 
C([C@]1(C(N(c2c(nc(c3c(c(c(c(c23)[H])[H])[H])[H])[H])[H])C(=O)[C@]21C(N(C(c1nnc(n1C([H])([H])[H])[H])([H])[H])C(=O)c1c(c(c(F)c(c21)[H])[H])[H])([H])[H])([H])[H])[H])([H])([H])[H]

>  <h>  (18) 
<NA>

>  <Training>  (18) 
True

>  <Success>  (18) 
True

>  <enamine_searched>  (18) 
False

>  <enamine_id>  (18) 
nan

$$$$

     RDKit          3D

 50 53  0  0  0  0  0  0  0  0999 V2000
    3.9011   -1.8263   29.3971 C   0  0  0  0  0  0  0  0  0  0  0  0
    3.9694   -2.1647   27.9151 C   0  0  1  0  0  0  0  0  0  0  0  0
    4.0173   -0.9054   27.0489 C   0  0  0  0  0  0  0  0  0  0  0  0
    4.1266   -1.2247   25.5556 C   0  0  0  0  0  0  0  0  0  0  0  0
    5.2864   -2.1855   25.1952 C   0  0  2  0  0  0  0  0  0  0  0  0
    6.6533   -1.4729   25.2923 C   0  0  0  0  0  0  0  0  0  0  0  0
    6.9250   -0.8665   23.9099 C   0  0  0  0  0  0  0  0  0  0  0  0
    6.0984   -1.6412   22.9923 N   0  0  0  0  0  0  0  0  0  0  0  0
    6.1460   -1.6283   21.6268 C   0  0  0  0  0  0  0  0  0  0  0  0
    5.5826   -2.4831   20.9617 O   0  0  0  0  0  0  0  0  0  0  0  0
    6.9093   -0.4852   20.9193 C   0  0  0  0  0  0  0  0  0  0  0  0
    6.1153    0.0914   19.7669 C   0  0  0  0  0  0  0  0  0  0  0  0
    6.4214   -0.2138   18.4640 C   0  0  0  0  0  0  0  0  0  0  0  0
    5.7579    0.2387   17.3648 N   0  0  0  0  0  0  0  0  0  0  0  0
    4.7352    1.0316   17.5752 C   0  0  0  0  0  0  0  0  0  0  0  0
    4.2858    1.4225   18.8683 C   0  0  0  0  0  0  0  0  0  0  0  0
    3.1606    2.2696   19.0446 C   0  0  0  0  0  0  0  0  0  0  0  0
    2.7482    2.6251   20.3009 C   0  0  0  0  0  0  0  0  0  0  0  0
    3.4409    2.1413   21.4322 C   0  0  0  0  0  0  0  0  0  0  0  0
    4.5328    1.3199   21.2879 C   0  0  0  0  0  0  0  0  0  0  0  0
    4.9896    0.9409   19.9962 C   0  0  0  0  0  0  0  0  0  0  0  0
    5.0479    0.9562   22.1724 H   0  0  0  0  0  0  0  0  0  0  0  0
    3.1054    2.4253   22.4241 H   0  0  0  0  0  0  0  0  0  0  0  0
    1.8919    3.2798   20.4359 H   0  0  0  0  0  0  0  0  0  0  0  0
    2.6419    2.6436   18.1653 H   0  0  0  0  0  0  0  0  0  0  0  0
    4.1985    1.3999   16.6995 H   0  0  0  0  0  0  0  0  0  0  0  0
    7.2661   -0.8671   18.2479 H   0  0  0  0  0  0  0  0  0  0  0  0
    7.8359   -0.9155   20.5177 H   0  0  0  0  0  0  0  0  0  0  0  0
    7.2118    0.3115   21.6093 H   0  0  0  0  0  0  0  0  0  0  0  0
    5.2288   -2.5792   23.6996 C   0  0  0  0  0  0  0  0  0  0  0  0
    5.5659   -3.6118   23.5486 H   0  0  0  0  0  0  0  0  0  0  0  0
    4.2094   -2.5257   23.3091 H   0  0  0  0  0  0  0  0  0  0  0  0
    7.9831   -0.9511   23.6506 H   0  0  0  0  0  0  0  0  0  0  0  0
    6.6507    0.1942   23.8874 H   0  0  0  0  0  0  0  0  0  0  0  0
    6.6762   -0.7050   26.0699 H   0  0  0  0  0  0  0  0  0  0  0  0
    7.4348   -2.1940   25.5539 H   0  0  0  0  0  0  0  0  0  0  0  0
    5.2162   -3.4244   26.1116 C   0  0  0  0  0  0  0  0  0  0  0  0
    5.1542   -3.0771   27.5989 C   0  0  0  0  0  0  0  0  0  0  0  0
    5.0912   -3.9943   28.1991 H   0  0  0  0  0  0  0  0  0  0  0  0
    6.0866   -2.5833   27.9019 H   0  0  0  0  0  0  0  0  0  0  0  0
    4.3269   -4.0144   25.8506 H   0  0  0  0  0  0  0  0  0  0  0  0
    6.0771   -4.0765   25.9187 H   0  0  0  0  0  0  0  0  0  0  0  0
    3.1807   -1.6850   25.2418 H   0  0  0  0  0  0  0  0  0  0  0  0
    4.2221   -0.2975   24.9769 H   0  0  0  0  0  0  0  0  0  0  0  0
    3.1211   -0.2974   27.2313 H   0  0  0  0  0  0  0  0  0  0  0  0
    4.8638   -0.2821   27.3637 H   0  0  0  0  0  0  0  0  0  0  0  0
    3.0562   -2.7116   27.6474 H   0  0  0  0  0  0  0  0  0  0  0  0
    3.0367   -1.1950   29.6232 H   0  0  0  0  0  0  0  0  0  0  0  0
    3.8335   -2.7310   30.0090 H   0  0  0  0  0  0  0  0  0  0  0  0
    4.8000   -1.2838   29.7066 H   0  0  0  0  0  0  0  0  0  0  0  0
  1  2  1  0
  2  3  1  0
  3  4  1  0
  5  4  1  1
  5  6  1  0
  6  7  1  0
  7  8  1  0
  8  9  1  0
  9 10  2  0
  9 11  1  0
 11 12  1  0
 12 13  2  0
 13 14  1  0
 14 15  2  0
 15 16  1  0
 16 17  2  0
 17 18  1  0
 18 19  2  0
 19 20  1  0
 20 21  2  0
 20 22  1  0
 19 23  1  0
 18 24  1  0
 17 25  1  0
 15 26  1  0
 13 27  1  0
 11 28  1  0
 11 29  1  0
  8 30  1  0
 30 31  1  0
 30 32  1  0
  7 33  1  0
  7 34  1  0
  6 35  1  0
  6 36  1  0
  5 37  1  0
 37 38  1  0
 38 39  1  0
 38 40  1  0
 37 41  1  0
 37 42  1  0
  4 43  1  0
  4 44  1  0
  3 45  1  0
  3 46  1  0
  2 47  1  6
  1 48  1  0
  1 49  1  0
  1 50  1  0
 38  2  1  0
 30  5  1  0
 21 12  1  0
 21 16  1  0
M  END
>  <cnnaffinities>  (19) 
[5.37205]

>  <score>  (19) 
5.37205

>  <index>  (19) 
18

>  <Smiles>  (19) 
C([C@]1(C(C([C@@]2(C(C(N(C(=O)C(c3c(nc(c4c(c(c(c(c34)[H])[H])[H])[H])[H])[H])([H])[H])C2([H])[H])([H])[H])([H])[H])C(C1([H])[H])([H])[H])([H])[H])([H])[H])[H])([H])([H])[H]

>  <h>  (19) 
<NA>

>  <Training>  (19) 
True

>  <Success>  (19) 
True

>  <enamine_searched>  (19) 
False

>  <enamine_id>  (19) 
nan

$$$$

     RDKit          3D

 67 71  0  0  0  0  0  0  0  0999 V2000
    3.5546   -5.2710   21.8433 O   0  0  0  0  0  0  0  0  0  0  0  0
    4.1567   -5.8510   22.7395 C   0  0  0  0  0  0  0  0  0  0  0  0
    5.6680   -5.6939   22.7247 C   0  0  0  0  0  0  0  0  0  0  0  0
    5.8976   -4.2123   22.7496 N   0  0  1  0  0  4  0  0  0  0  0  0
    5.1974   -3.6155   23.9446 C   0  0  0  0  0  0  0  0  0  0  0  0
    5.5272   -2.1723   24.2498 C   0  0  0  0  0  0  0  0  0  0  0  0
    4.7227   -1.4594   25.1445 C   0  0  0  0  0  0  0  0  0  0  0  0
    5.0653   -0.1766   25.5536 C   0  0  0  0  0  0  0  0  0  0  0  0
    6.2372    0.3938   25.0608 C   0  0  0  0  0  0  0  0  0  0  0  0
    6.7000    1.9960   25.5771 Cl  0  0  0  0  0  0  0  0  0  0  0  0
    7.0243   -0.2821   24.1403 C   0  0  0  0  0  0  0  0  0  0  0  0
    6.6463   -1.5544   23.7031 C   0  0  0  0  0  0  0  0  0  0  0  0
    7.3406   -2.2244   22.5409 C   0  0  2  0  0  0  0  0  0  0  0  0
    6.5983   -1.8083   21.2616 C   0  0  0  0  0  0  0  0  0  0  0  0
    5.8323   -2.5555   20.6716 O   0  0  0  0  0  0  0  0  0  0  0  0
    6.8324   -0.5205   20.8385 N   0  0  0  0  0  0  0  0  0  0  0  0
    6.1077    0.0577   19.7685 C   0  0  0  0  0  0  0  0  0  0  0  0
    6.4468   -0.2407   18.4748 C   0  0  0  0  0  0  0  0  0  0  0  0
    5.8019    0.2413   17.3824 N   0  0  0  0  0  0  0  0  0  0  0  0
    4.7770    1.0308   17.5910 C   0  0  0  0  0  0  0  0  0  0  0  0
    4.3208    1.4302   18.8833 C   0  0  0  0  0  0  0  0  0  0  0  0
    3.1883    2.2672   19.0577 C   0  0  0  0  0  0  0  0  0  0  0  0
    2.7661    2.6103   20.3125 C   0  0  0  0  0  0  0  0  0  0  0  0
    3.4511    2.1275   21.4490 C   0  0  0  0  0  0  0  0  0  0  0  0
    4.5467    1.3112   21.3108 C   0  0  0  0  0  0  0  0  0  0  0  0
    5.0076    0.9424   20.0146 C   0  0  0  0  0  0  0  0  0  0  0  0
    5.0361    0.9179   22.1979 H   0  0  0  0  0  0  0  0  0  0  0  0
    3.0991    2.4030   22.4385 H   0  0  0  0  0  0  0  0  0  0  0  0
    1.9069    3.2613   20.4426 H   0  0  0  0  0  0  0  0  0  0  0  0
    2.6707    2.6269   18.1740 H   0  0  0  0  0  0  0  0  0  0  0  0
    4.2337    1.3859   16.7142 H   0  0  0  0  0  0  0  0  0  0  0  0
    7.2981   -0.8932   18.3019 H   0  0  0  0  0  0  0  0  0  0  0  0
    7.2355    0.1319   21.4984 H   0  0  0  0  0  0  0  0  0  0  0  0
    7.3149   -3.7523   22.6678 C   0  0  0  0  0  0  0  0  0  0  0  0
    7.7987   -4.1967   21.7948 H   0  0  0  0  0  0  0  0  0  0  0  0
    7.8660   -4.0739   23.5600 H   0  0  0  0  0  0  0  0  0  0  0  0
    8.3739   -1.8597   22.4798 H   0  0  0  0  0  0  0  0  0  0  0  0
    7.9288    0.1870   23.7645 H   0  0  0  0  0  0  0  0  0  0  0  0
    4.4463    0.3743   26.2560 H   0  0  0  0  0  0  0  0  0  0  0  0
    3.8147   -1.9121   25.5420 H   0  0  0  0  0  0  0  0  0  0  0  0
    5.4301   -4.2336   24.8216 H   0  0  0  0  0  0  0  0  0  0  0  0
    4.1192   -3.6898   23.7812 H   0  0  0  0  0  0  0  0  0  0  0  0
    5.4261   -3.8568   21.8869 H   0  0  0  0  0  0  0  0  0  0  0  0
    6.1613   -6.2079   23.5474 H   0  0  0  0  0  0  0  0  0  0  0  0
    6.0329   -6.1191   21.7831 H   0  0  0  0  0  0  0  0  0  0  0  0
    3.5237   -6.4808   23.7558 N   0  0  0  0  0  0  0  0  0  0  0  0
    2.0808   -6.7003   23.6930 C   0  0  0  0  0  0  0  0  0  0  0  0
    1.2876   -5.3831   23.6195 C   0  0  0  0  0  0  0  0  0  0  0  0
   -0.2068   -5.5797   23.5823 C   0  0  0  0  0  0  0  0  0  0  0  0
   -0.9398   -5.6152   24.7695 C   0  0  0  0  0  0  0  0  0  0  0  0
   -2.3137   -5.8313   24.7570 C   0  0  0  0  0  0  0  0  0  0  0  0
   -2.9852   -6.0147   23.5523 C   0  0  0  0  0  0  0  0  0  0  0  0
   -4.4641   -6.2487   23.5376 C   0  0  0  0  0  0  0  0  0  0  0  0
   -5.0860   -5.3346   22.7377 F   0  0  0  0  0  0  0  0  0  0  0  0
   -4.7408   -7.4771   23.0110 F   0  0  0  0  0  0  0  0  0  0  0  0
   -4.9134   -6.1933   24.5363 H   0  0  0  0  0  0  0  0  0  0  0  0
   -2.2643   -5.9787   22.3589 C   0  0  0  0  0  0  0  0  0  0  0  0
   -0.8905   -5.7593   22.3748 C   0  0  0  0  0  0  0  0  0  0  0  0
   -0.3509   -5.7157   21.4279 H   0  0  0  0  0  0  0  0  0  0  0  0
   -2.7838   -6.1090   21.4137 H   0  0  0  0  0  0  0  0  0  0  0  0
   -2.8615   -5.8417   25.6985 H   0  0  0  0  0  0  0  0  0  0  0  0
   -0.4248   -5.4622   25.7166 H   0  0  0  0  0  0  0  0  0  0  0  0
    1.5578   -4.7495   24.4763 H   0  0  0  0  0  0  0  0  0  0  0  0
    1.6205   -4.8632   22.7195 H   0  0  0  0  0  0  0  0  0  0  0  0
    1.7814   -7.2910   24.5621 H   0  0  0  0  0  0  0  0  0  0  0  0
    1.8394   -7.2969   22.8049 H   0  0  0  0  0  0  0  0  0  0  0  0
    4.0532   -6.8061   24.5479 H   0  0  0  0  0  0  0  0  0  0  0  0
  1  2  2  0
  2  3  1  0
  3  4  1  0
  4  5  1  0
  5  6  1  0
  6  7  2  0
  7  8  1  0
  8  9  2  0
  9 10  1  0
  9 11  1  0
 11 12  2  0
 12 13  1  0
 13 14  1  0
 14 15  2  0
 14 16  1  0
 16 17  1  0
 17 18  2  0
 18 19  1  0
 19 20  2  0
 20 21  1  0
 21 22  2  0
 22 23  1  0
 23 24  2  0
 24 25  1  0
 25 26  2  0
 25 27  1  0
 24 28  1  0
 23 29  1  0
 22 30  1  0
 20 31  1  0
 18 32  1  0
 16 33  1  0
 13 34  1  0
 34 35  1  0
 34 36  1  0
 13 37  1  6
 11 38  1  0
  8 39  1  0
  7 40  1  0
  5 41  1  0
  5 42  1  0
  4 43  1  6
  3 44  1  0
  3 45  1  0
  2 46  1  0
 46 47  1  0
 47 48  1  0
 48 49  1  0
 49 50  2  0
 50 51  1  0
 51 52  2  0
 52 53  1  0
 53 54  1  0
 53 55  1  0
 53 56  1  0
 52 57  1  0
 57 58  2  0
 58 59  1  0
 57 60  1  0
 51 61  1  0
 50 62  1  0
 48 63  1  0
 48 64  1  0
 47 65  1  0
 47 66  1  0
 46 67  1  0
 34  4  1  0
 58 49  1  0
 12  6  1  0
 26 17  1  0
 26 21  1  0
M  CHG  1   4   1
M  END
>  <cnnaffinities>  (20) 
[5.73273]

>  <score>  (20) 
5.73273

>  <index>  (20) 
19

>  <Smiles>  (20) 
O=C(C([N@+]1(C(c2c(c(c(Cl)c(c2[C@](C(=O)N(c2c(nc(c3c(c(c(c(c23)[H])[H])[H])[H])[H])[H])[H])(C1([H])[H])[H])[H])[H])[H])([H])[H])[H])([H])[H])N(C(C(c1c(c(c(C(F)(F)[H])c(c1[H])[H])[H])[H])([H])[H])([H])[H])[H]

>  <h>  (20) 
<NA>

>  <Training>  (20) 
True

>  <Success>  (20) 
True

>  <enamine_searched>  (20) 
False

>  <enamine_id>  (20) 
nan

$$$$

     RDKit          3D

 66 70  0  0  0  0  0  0  0  0999 V2000
    4.1564    7.1913   21.3915 C   0  0  0  0  0  0  0  0  0  0  0  0
    5.3525    6.2808   21.0954 C   0  0  0  0  0  0  0  0  0  0  0  0
    5.7929    5.4493   22.2931 C   0  0  0  0  0  0  0  0  0  0  0  0
    5.0589    4.5867   22.7388 O   0  0  0  0  0  0  0  0  0  0  0  0
    7.0751    5.6799   22.8163 N   0  0  0  0  0  0  0  0  0  0  0  0
    7.5814    7.0437   23.0022 C   0  0  0  0  0  0  0  0  0  0  0  0
    8.1270    7.2077   24.4193 C   0  0  0  0  0  0  0  0  0  0  0  0
    9.2701    6.2167   24.6359 C   0  0  0  0  0  0  0  0  0  0  0  0
    8.9087    4.8182   24.1734 C   0  0  0  0  0  0  0  0  0  0  0  0
    9.6507    3.7236   24.6128 C   0  0  0  0  0  0  0  0  0  0  0  0
    9.4085    2.4312   24.1648 C   0  0  0  0  0  0  0  0  0  0  0  0
    8.3875    2.2238   23.2348 C   0  0  0  0  0  0  0  0  0  0  0  0
    8.0435    0.9091   22.7875 N   0  0  0  0  0  0  0  0  0  0  0  0
    7.9023    0.7272   21.3965 C   0  0  0  0  0  0  0  0  0  0  0  0
    8.4885    1.4512   20.6207 O   0  0  0  0  0  0  0  0  0  0  0  0
    6.9830   -0.3970   20.9150 C   0  0  0  0  0  0  0  0  0  0  0  0
    6.1172    0.0829   19.7747 C   0  0  0  0  0  0  0  0  0  0  0  0
    6.4332   -0.2122   18.4723 C   0  0  0  0  0  0  0  0  0  0  0  0
    5.7657    0.2343   17.3760 N   0  0  0  0  0  0  0  0  0  0  0  0
    4.7401    1.0242   17.5839 C   0  0  0  0  0  0  0  0  0  0  0  0
    4.2898    1.4154   18.8734 C   0  0  0  0  0  0  0  0  0  0  0  0
    3.1781    2.2768   19.0514 C   0  0  0  0  0  0  0  0  0  0  0  0
    2.7797    2.6493   20.3066 C   0  0  0  0  0  0  0  0  0  0  0  0
    3.4715    2.1703   21.4394 C   0  0  0  0  0  0  0  0  0  0  0  0
    4.5557    1.3389   21.2914 C   0  0  0  0  0  0  0  0  0  0  0  0
    4.9975    0.9361   20.0026 C   0  0  0  0  0  0  0  0  0  0  0  0
    5.0760    0.9924   22.1806 H   0  0  0  0  0  0  0  0  0  0  0  0
    3.1705    2.4802   22.4365 H   0  0  0  0  0  0  0  0  0  0  0  0
    1.9381    3.3254   20.4313 H   0  0  0  0  0  0  0  0  0  0  0  0
    2.6703    2.6486   18.1652 H   0  0  0  0  0  0  0  0  0  0  0  0
    4.2089    1.3897   16.7032 H   0  0  0  0  0  0  0  0  0  0  0  0
    7.2790   -0.8596   18.2406 H   0  0  0  0  0  0  0  0  0  0  0  0
    6.4173   -0.7729   21.7739 H   0  0  0  0  0  0  0  0  0  0  0  0
    7.6188   -1.2186   20.5552 H   0  0  0  0  0  0  0  0  0  0  0  0
    8.1374   -0.1719   23.6570 N   0  0  0  0  0  0  0  0  0  0  0  0
    9.0716   -1.2504   23.3698 C   0  0  0  0  0  0  0  0  0  0  0  0
    8.5702   -2.2111   23.5496 H   0  0  0  0  0  0  0  0  0  0  0  0
    9.9748   -1.2080   24.0015 H   0  0  0  0  0  0  0  0  0  0  0  0
    9.3828   -1.2049   22.3221 H   0  0  0  0  0  0  0  0  0  0  0  0
    7.4088   -0.1501   24.8453 C   0  0  0  0  0  0  0  0  0  0  0  0
    7.7659   -0.9975   25.8992 C   0  0  0  0  0  0  0  0  0  0  0  0
    7.1439   -0.8719   27.1353 C   0  0  0  0  0  0  0  0  0  0  0  0
    6.0775    0.0050   27.3094 C   0  0  0  0  0  0  0  0  0  0  0  0
    5.6587    0.7708   26.2262 C   0  0  0  0  0  0  0  0  0  0  0  0
    4.2572    1.8093   26.3915 Cl  0  0  0  0  0  0  0  0  0  0  0  0
    6.3182    0.7288   25.0078 C   0  0  0  0  0  0  0  0  0  0  0  0
    5.9840    1.3593   24.1890 H   0  0  0  0  0  0  0  0  0  0  0  0
    5.5499    0.0599   28.2543 H   0  0  0  0  0  0  0  0  0  0  0  0
    7.4763   -1.4813   27.9740 H   0  0  0  0  0  0  0  0  0  0  0  0
    8.5148   -1.7670   25.7290 H   0  0  0  0  0  0  0  0  0  0  0  0
    7.6288    3.2961   22.7773 C   0  0  0  0  0  0  0  0  0  0  0  0
    7.8577    4.5919   23.2690 C   0  0  0  0  0  0  0  0  0  0  0  0
    6.8536    3.1237   22.0339 H   0  0  0  0  0  0  0  0  0  0  0  0
    9.9884    1.5983   24.5503 H   0  0  0  0  0  0  0  0  0  0  0  0
   10.4352    3.8958   25.3474 H   0  0  0  0  0  0  0  0  0  0  0  0
   10.1599    6.5585   24.0801 H   0  0  0  0  0  0  0  0  0  0  0  0
    9.5692    6.1875   25.6930 H   0  0  0  0  0  0  0  0  0  0  0  0
    7.3219    7.0268   25.1437 H   0  0  0  0  0  0  0  0  0  0  0  0
    8.4770    8.2364   24.5651 H   0  0  0  0  0  0  0  0  0  0  0  0
    8.3687    7.2702   22.2626 H   0  0  0  0  0  0  0  0  0  0  0  0
    6.7390    7.7205   22.8280 H   0  0  0  0  0  0  0  0  0  0  0  0
    6.2032    6.8295   20.6723 H   0  0  0  0  0  0  0  0  0  0  0  0
    5.0531    5.5332   20.3475 H   0  0  0  0  0  0  0  0  0  0  0  0
    3.8506    7.7109   20.4763 H   0  0  0  0  0  0  0  0  0  0  0  0
    4.3788    7.9461   22.1567 H   0  0  0  0  0  0  0  0  0  0  0  0
    3.3088    6.5901   21.7363 H   0  0  0  0  0  0  0  0  0  0  0  0
  1  2  1  0
  2  3  1  0
  3  4  2  0
  3  5  1  0
  5  6  1  0
  6  7  1  0
  7  8  1  0
  8  9  1  0
  9 10  2  0
 10 11  1  0
 11 12  2  0
 12 13  1  0
 13 14  1  0
 14 15  2  0
 14 16  1  0
 16 17  1  0
 17 18  2  0
 18 19  1  0
 19 20  2  0
 20 21  1  0
 21 22  2  0
 22 23  1  0
 23 24  2  0
 24 25  1  0
 25 26  2  0
 25 27  1  0
 24 28  1  0
 23 29  1  0
 22 30  1  0
 20 31  1  0
 18 32  1  0
 16 33  1  0
 16 34  1  0
 13 35  1  0
 35 36  1  0
 36 37  1  0
 36 38  1  0
 36 39  1  0
 35 40  1  0
 40 41  2  0
 41 42  1  0
 42 43  2  0
 43 44  1  0
 44 45  1  0
 44 46  2  0
 46 47  1  0
 43 48  1  0
 42 49  1  0
 41 50  1  0
 12 51  1  0
 51 52  2  0
 51 53  1  0
 11 54  1  0
 10 55  1  0
  8 56  1  0
  8 57  1  0
  7 58  1  0
  7 59  1  0
  6 60  1  0
  6 61  1  0
  2 62  1  0
  2 63  1  0
  1 64  1  0
  1 65  1  0
  1 66  1  0
 52  5  1  0
 52  9  1  0
 26 17  1  0
 46 40  1  0
 26 21  1  0
M  END
>  <cnnaffinities>  (21) 
[6.48557, 6.42288, 6.54123, 6.73814, 6.45824, 6.32888, 7.07389]

>  <score>  (21) 
6.48557

>  <index>  (21) 
20

>  <Smiles>  (21) 
C(C(C(=O)N1C(C(C(c2c(c(c(N(C(=O)C(c3c(nc(c4c(c(c(c(c34)[H])[H])[H])[H])[H])[H])([H])[H])N(C([H])([H])[H])c3c(c(c(c(Cl)c3[H])[H])[H])[H])c(c12)[H])[H])[H])([H])[H])([H])[H])([H])[H])([H])[H])([H])([H])[H]

>  <h>  (21) 
<NA>

>  <Training>  (21) 
True

>  <Success>  (21) 
True

>  <enamine_searched>  (21) 
False

>  <enamine_id>  (21) 
nan

$$$$

     RDKit          3D

 59 64  0  0  0  0  0  0  0  0999 V2000
    6.8030   -2.2576   23.6458 C   0  0  0  0  0  0  0  0  0  0  0  0
    7.7740   -1.8282   22.5272 C   0  0  1  0  0  0  0  0  0  0  0  0
    7.0397   -1.7937   21.1632 C   0  0  0  0  0  0  0  0  0  0  0  0
    6.8912   -0.3885   20.8659 N   0  0  0  0  0  0  0  0  0  0  0  0
    6.1318    0.1068   19.7760 C   0  0  0  0  0  0  0  0  0  0  0  0
    6.4446   -0.2252   18.4793 C   0  0  0  0  0  0  0  0  0  0  0  0
    5.7701    0.2228   17.3933 N   0  0  0  0  0  0  0  0  0  0  0  0
    4.7478    1.0206   17.5965 C   0  0  0  0  0  0  0  0  0  0  0  0
    4.2942    1.4200   18.8850 C   0  0  0  0  0  0  0  0  0  0  0  0
    3.1652    2.2637   19.0640 C   0  0  0  0  0  0  0  0  0  0  0  0
    2.7411    2.6105   20.3211 C   0  0  0  0  0  0  0  0  0  0  0  0
    3.4260    2.1210   21.4559 C   0  0  0  0  0  0  0  0  0  0  0  0
    4.5238    1.3090   21.3058 C   0  0  0  0  0  0  0  0  0  0  0  0
    5.0003    0.9513   20.0135 C   0  0  0  0  0  0  0  0  0  0  0  0
    5.0323    0.9132   22.1768 H   0  0  0  0  0  0  0  0  0  0  0  0
    3.0761    2.3893   22.4496 H   0  0  0  0  0  0  0  0  0  0  0  0
    1.8809    3.2608   20.4474 H   0  0  0  0  0  0  0  0  0  0  0  0
    2.6572    2.6375   18.1826 H   0  0  0  0  0  0  0  0  0  0  0  0
    4.2233    1.3843   16.7156 H   0  0  0  0  0  0  0  0  0  0  0  0
    7.2900   -0.8747   18.2554 H   0  0  0  0  0  0  0  0  0  0  0  0
    7.7197    0.4278   21.6003 C   0  0  0  0  0  0  0  0  0  0  0  0
    7.8678    1.6120   21.3776 O   0  0  0  0  0  0  0  0  0  0  0  0
    8.4385   -0.4148   22.6833 C   0  0  1  0  0  0  0  0  0  0  0  0
    8.2464    0.1769   24.1028 C   0  0  0  0  0  0  0  0  0  0  0  0
    8.9581    1.4238   24.3046 N   0  0  0  0  0  0  0  0  0  0  0  0
    8.2787    2.5734   24.9068 C   0  0  0  0  0  0  0  0  0  0  0  0
    7.7567    3.5799   23.9043 C   0  0  0  0  0  0  0  0  0  0  0  0
    8.4793    4.5965   23.2437 C   0  0  0  0  0  0  0  0  0  0  0  0
    7.7377    5.2174   22.3325 N   0  0  0  0  0  0  0  0  0  0  0  0
    6.5450    4.6247   22.3941 N   0  0  0  0  0  0  0  0  0  0  0  0
    5.4942    4.9484   21.4554 C   0  0  0  0  0  0  0  0  0  0  0  0
    5.4703    4.2360   20.6178 H   0  0  0  0  0  0  0  0  0  0  0  0
    5.6662    5.9661   21.0952 H   0  0  0  0  0  0  0  0  0  0  0  0
    4.5466    4.8817   21.9954 H   0  0  0  0  0  0  0  0  0  0  0  0
    6.5012    3.6547   23.3341 C   0  0  0  0  0  0  0  0  0  0  0  0
    5.5954    3.0676   23.4471 H   0  0  0  0  0  0  0  0  0  0  0  0
    9.5213    4.8710   23.3652 H   0  0  0  0  0  0  0  0  0  0  0  0
    8.9914    3.0385   25.5969 H   0  0  0  0  0  0  0  0  0  0  0  0
    7.4501    2.1841   25.5073 H   0  0  0  0  0  0  0  0  0  0  0  0
   10.2619    1.5764   23.9268 C   0  0  0  0  0  0  0  0  0  0  0  0
   10.9417    2.5200   24.3153 O   0  0  0  0  0  0  0  0  0  0  0  0
   10.7793    0.5395   22.9769 C   0  0  0  0  0  0  0  0  0  0  0  0
   12.1336    0.5860   22.6503 C   0  0  0  0  0  0  0  0  0  0  0  0
   12.6663   -0.3022   21.7425 C   0  0  0  0  0  0  0  0  0  0  0  0
   11.8176   -1.2257   21.1497 C   0  0  0  0  0  0  0  0  0  0  0  0
   12.3414   -2.0634   20.2407 F   0  0  0  0  0  0  0  0  0  0  0  0
   10.4652   -1.2749   21.4224 C   0  0  0  0  0  0  0  0  0  0  0  0
    9.9334   -0.4091   22.3864 C   0  0  0  0  0  0  0  0  0  0  0  0
    9.8485   -1.9546   20.8413 H   0  0  0  0  0  0  0  0  0  0  0  0
   13.7030   -0.2661   21.4319 H   0  0  0  0  0  0  0  0  0  0  0  0
   12.7567    1.3369   23.1168 H   0  0  0  0  0  0  0  0  0  0  0  0
    7.1901    0.3872   24.2586 H   0  0  0  0  0  0  0  0  0  0  0  0
    8.5749   -0.5720   24.8432 H   0  0  0  0  0  0  0  0  0  0  0  0
    7.6206   -2.2976   20.3819 H   0  0  0  0  0  0  0  0  0  0  0  0
    6.0515   -2.2688   21.2116 H   0  0  0  0  0  0  0  0  0  0  0  0
    8.5660   -2.5867   22.5049 H   0  0  0  0  0  0  0  0  0  0  0  0
    7.3033   -2.3284   24.6180 H   0  0  0  0  0  0  0  0  0  0  0  0
    6.3862   -3.2506   23.4247 H   0  0  0  0  0  0  0  0  0  0  0  0
    5.9601   -1.5621   23.7500 H   0  0  0  0  0  0  0  0  0  0  0  0
  1  2  1  0
  2  3  1  0
  3  4  1  0
  4  5  1  0
  5  6  2  0
  6  7  1  0
  7  8  2  0
  8  9  1  0
  9 10  2  0
 10 11  1  0
 11 12  2  0
 12 13  1  0
 13 14  2  0
 13 15  1  0
 12 16  1  0
 11 17  1  0
 10 18  1  0
  8 19  1  0
  6 20  1  0
  4 21  1  0
 21 22  2  0
 21 23  1  0
 23 24  1  1
 24 25  1  0
 25 26  1  0
 26 27  1  0
 27 28  1  0
 28 29  2  0
 29 30  1  0
 30 31  1  0
 31 32  1  0
 31 33  1  0
 31 34  1  0
 30 35  1  0
 35 36  1  0
 28 37  1  0
 26 38  1  0
 26 39  1  0
 25 40  1  0
 40 41  2  0
 40 42  1  0
 42 43  2  0
 43 44  1  0
 44 45  2  0
 45 46  1  0
 45 47  1  0
 47 48  2  0
 47 49  1  0
 44 50  1  0
 43 51  1  0
 24 52  1  0
 24 53  1  0
  3 54  1  0
  3 55  1  0
  2 56  1  6
  1 57  1  0
  1 58  1  0
  1 59  1  0
 23  2  1  0
 35 27  2  0
 48 42  1  0
 14  5  1  0
 48 23  1  0
 14  9  1  0
M  END
>  <cnnaffinities>  (22) 
[6.50802, 6.28915]

>  <score>  (22) 
6.50802

>  <index>  (22) 
21

>  <Smiles>  (22) 
C([C@]1(C(N(c2c(nc(c3c(c(c(c(c23)[H])[H])[H])[H])[H])[H])C(=O)[C@]21C(N(C(c1c(nn(C([H])([H])[H])c1[H])[H])([H])[H])C(=O)c1c(c(c(F)c(c21)[H])[H])[H])([H])[H])([H])[H])[H])([H])([H])[H]

>  <h>  (22) 
<NA>

>  <Training>  (22) 
True

>  <Success>  (22) 
True

>  <enamine_searched>  (22) 
False

>  <enamine_id>  (22) 
nan

$$$$

     RDKit          3D

 41 44  0  0  0  0  0  0  0  0999 V2000
    7.9488    1.7411   21.0918 O   0  0  0  0  0  0  0  0  0  0  0  0
    8.0369    0.5580   21.3763 C   0  0  0  0  0  0  0  0  0  0  0  0
    6.9910   -0.4512   20.8980 C   0  0  0  0  0  0  0  0  0  0  0  0
    6.1437    0.0856   19.7788 C   0  0  0  0  0  0  0  0  0  0  0  0
    6.4584   -0.2128   18.4783 C   0  0  0  0  0  0  0  0  0  0  0  0
    5.7932    0.2316   17.3805 N   0  0  0  0  0  0  0  0  0  0  0  0
    4.7634    1.0152   17.5929 C   0  0  0  0  0  0  0  0  0  0  0  0
    4.3183    1.4098   18.8819 C   0  0  0  0  0  0  0  0  0  0  0  0
    3.1916    2.2529   19.0508 C   0  0  0  0  0  0  0  0  0  0  0  0
    2.7846    2.6258   20.3028 C   0  0  0  0  0  0  0  0  0  0  0  0
    3.4860    2.1641   21.4379 C   0  0  0  0  0  0  0  0  0  0  0  0
    4.5826    1.3472   21.3007 C   0  0  0  0  0  0  0  0  0  0  0  0
    5.0286    0.9453   20.0125 C   0  0  0  0  0  0  0  0  0  0  0  0
    5.1234    1.0185   22.1823 H   0  0  0  0  0  0  0  0  0  0  0  0
    3.1542    2.4635   22.4281 H   0  0  0  0  0  0  0  0  0  0  0  0
    1.9299    3.2854   20.4294 H   0  0  0  0  0  0  0  0  0  0  0  0
    2.6741    2.6107   18.1645 H   0  0  0  0  0  0  0  0  0  0  0  0
    4.2192    1.3827   16.7216 H   0  0  0  0  0  0  0  0  0  0  0  0
    7.3008   -0.8688   18.2575 H   0  0  0  0  0  0  0  0  0  0  0  0
    6.3760   -0.7541   21.7568 H   0  0  0  0  0  0  0  0  0  0  0  0
    7.5233   -1.3490   20.5616 H   0  0  0  0  0  0  0  0  0  0  0  0
    9.0743    0.0721   22.1243 N   0  0  0  0  0  0  0  0  0  0  0  0
    9.1835   -1.3159   22.5827 C   0  0  0  0  0  0  0  0  0  0  0  0
   10.1147   -1.4044   23.7866 C   0  0  0  0  0  0  0  0  0  0  0  0
   11.4506   -0.8372   23.4146 C   0  0  0  0  0  0  0  0  0  0  0  0
   12.6649   -1.4252   23.7340 C   0  0  0  0  0  0  0  0  0  0  0  0
   12.6955   -3.0343   24.4132 Cl  0  0  0  0  0  0  0  0  0  0  0  0
   13.8578   -0.7547   23.5100 C   0  0  0  0  0  0  0  0  0  0  0  0
   13.8553    0.4342   22.7884 C   0  0  0  0  0  0  0  0  0  0  0  0
   12.6480    0.9835   22.3724 C   0  0  0  0  0  0  0  0  0  0  0  0
   11.4448    0.3822   22.7343 C   0  0  0  0  0  0  0  0  0  0  0  0
   10.1090    1.0364   22.5003 C   0  0  0  0  0  0  0  0  0  0  0  0
    9.7953    1.5638   23.4173 H   0  0  0  0  0  0  0  0  0  0  0  0
   10.1897    1.7944   21.7238 H   0  0  0  0  0  0  0  0  0  0  0  0
   12.6669    1.8827   21.7619 H   0  0  0  0  0  0  0  0  0  0  0  0
   14.7912    0.9294   22.5407 H   0  0  0  0  0  0  0  0  0  0  0  0
   14.7385   -1.1851   23.9524 H   0  0  0  0  0  0  0  0  0  0  0  0
   10.2182   -2.4304   24.1328 H   0  0  0  0  0  0  0  0  0  0  0  0
    9.6914   -0.8461   24.6315 H   0  0  0  0  0  0  0  0  0  0  0  0
    9.5913   -1.9476   21.7802 H   0  0  0  0  0  0  0  0  0  0  0  0
    8.1999   -1.7163   22.8603 H   0  0  0  0  0  0  0  0  0  0  0  0
  1  2  2  0
  2  3  1  0
  3  4  1  0
  4  5  2  0
  5  6  1  0
  6  7  2  0
  7  8  1  0
  8  9  2  0
  9 10  1  0
 10 11  2  0
 11 12  1  0
 12 13  2  0
 12 14  1  0
 11 15  1  0
 10 16  1  0
  9 17  1  0
  7 18  1  0
  5 19  1  0
  3 20  1  0
  3 21  1  0
  2 22  1  0
 22 23  1  0
 23 24  1  0
 24 25  1  0
 25 26  2  0
 26 27  1  0
 26 28  1  0
 28 29  2  0
 29 30  1  0
 30 31  2  0
 31 32  1  0
 32 33  1  0
 32 34  1  0
 30 35  1  0
 29 36  1  0
 28 37  1  0
 24 38  1  0
 24 39  1  0
 23 40  1  0
 23 41  1  0
 13  4  1  0
 32 22  1  0
 13  8  1  0
 31 25  1  0
M  END
>  <cnnaffinities>  (23) 
[5.80534, 5.64095]

>  <score>  (23) 
5.80534

>  <index>  (23) 
22

>  <Smiles>  (23) 
O=C(C(c1c(nc(c2c(c(c(c(c12)[H])[H])[H])[H])[H])[H])([H])[H])N1C(C(c2c(Cl)c(c(c(c2C1([H])[H])[H])[H])[H])([H])[H])([H])[H]

>  <h>  (23) 
<NA>

>  <Training>  (23) 
True

>  <Success>  (23) 
True

>  <enamine_searched>  (23) 
False

>  <enamine_id>  (23) 
nan

$$$$

     RDKit          3D

 69 74  0  0  0  0  0  0  0  0999 V2000
    7.8950    7.7318   22.5318 C   0  0  0  0  0  0  0  0  0  0  0  0
    7.7629    6.4161   21.7874 C   0  0  1  0  0  0  0  0  0  0  0  0
    8.6614    5.2868   22.3365 C   0  0  0  0  0  0  0  0  0  0  0  0
    8.0517    3.8989   22.1870 N   0  0  1  0  0  4  0  0  0  0  0  0
    7.4071    3.4441   23.4615 C   0  0  0  0  0  0  0  0  0  0  0  0
    8.4475    2.8424   24.3980 C   0  0  0  0  0  0  0  0  0  0  0  0
    9.0874    1.6813   23.7939 N   0  0  0  0  0  0  0  0  0  0  0  0
    8.3209    0.4488   23.7545 C   0  0  0  0  0  0  0  0  0  0  0  0
    8.6218   -0.3726   22.4870 C   0  0  2  0  0  0  0  0  0  0  0  0
    8.0741    0.3439   21.2342 C   0  0  0  0  0  0  0  0  0  0  0  0
    8.5269    1.3531   20.7252 O   0  0  0  0  0  0  0  0  0  0  0  0
    6.9752   -0.3513   20.7916 N   0  0  0  0  0  0  0  0  0  0  0  0
    6.1713    0.1358   19.7326 C   0  0  0  0  0  0  0  0  0  0  0  0
    6.5108   -0.1543   18.4375 C   0  0  0  0  0  0  0  0  0  0  0  0
    5.8105    0.2677   17.3577 N   0  0  0  0  0  0  0  0  0  0  0  0
    4.7629    1.0265   17.5755 C   0  0  0  0  0  0  0  0  0  0  0  0
    4.3065    1.4060   18.8728 C   0  0  0  0  0  0  0  0  0  0  0  0
    3.1918    2.2630   19.0674 C   0  0  0  0  0  0  0  0  0  0  0  0
    2.8008    2.6289   20.3274 C   0  0  0  0  0  0  0  0  0  0  0  0
    3.4893    2.1435   21.4580 C   0  0  0  0  0  0  0  0  0  0  0  0
    4.5625    1.2966   21.3009 C   0  0  0  0  0  0  0  0  0  0  0  0
    5.0152    0.9259   20.0004 C   0  0  0  0  0  0  0  0  0  0  0  0
    5.0993    0.9535   22.1811 H   0  0  0  0  0  0  0  0  0  0  0  0
    3.1702    2.4392   22.4530 H   0  0  0  0  0  0  0  0  0  0  0  0
    1.9569    3.2997   20.4653 H   0  0  0  0  0  0  0  0  0  0  0  0
    2.6728    2.6365   18.1901 H   0  0  0  0  0  0  0  0  0  0  0  0
    4.2030    1.3787   16.7047 H   0  0  0  0  0  0  0  0  0  0  0  0
    7.3839   -0.7711   18.2327 H   0  0  0  0  0  0  0  0  0  0  0  0
    6.5713   -1.4255   21.6764 C   0  0  0  0  0  0  0  0  0  0  0  0
    7.8539   -1.7230   22.4540 C   0  0  2  0  0  0  0  0  0  0  0  0
    7.6514   -2.4351   23.7851 C   0  0  0  0  0  0  0  0  0  0  0  0
    7.0229   -1.8488   24.4656 H   0  0  0  0  0  0  0  0  0  0  0  0
    8.6120   -2.6196   24.2814 H   0  0  0  0  0  0  0  0  0  0  0  0
    7.1676   -3.4030   23.6217 H   0  0  0  0  0  0  0  0  0  0  0  0
    8.4403   -2.3885   21.8199 H   0  0  0  0  0  0  0  0  0  0  0  0
    5.7556   -1.1365   22.3550 H   0  0  0  0  0  0  0  0  0  0  0  0
    6.2356   -2.2858   21.0956 H   0  0  0  0  0  0  0  0  0  0  0  0
   10.1174   -0.5121   22.3623 C   0  0  0  0  0  0  0  0  0  0  0  0
   10.6306   -1.4746   21.4921 C   0  0  0  0  0  0  0  0  0  0  0  0
   11.9846   -1.5467   21.2637 C   0  0  0  0  0  0  0  0  0  0  0  0
   12.5403   -2.5968   20.0054 Cl  0  0  0  0  0  0  0  0  0  0  0  0
   12.8601   -0.6972   21.9376 C   0  0  0  0  0  0  0  0  0  0  0  0
   12.3591    0.2907   22.7545 C   0  0  0  0  0  0  0  0  0  0  0  0
   10.9841    0.4214   22.9421 C   0  0  0  0  0  0  0  0  0  0  0  0
   10.4517    1.6365   23.6536 C   0  0  0  0  0  0  0  0  0  0  0  0
   11.1928    2.5368   24.0267 O   0  0  0  0  0  0  0  0  0  0  0  0
   13.0322    0.9988   23.2247 H   0  0  0  0  0  0  0  0  0  0  0  0
   13.9231   -0.7752   21.8171 H   0  0  0  0  0  0  0  0  0  0  0  0
    9.9779   -2.1058   20.9019 H   0  0  0  0  0  0  0  0  0  0  0  0
    8.5589   -0.1765   24.6272 H   0  0  0  0  0  0  0  0  0  0  0  0
    7.2585    0.6944   23.7992 H   0  0  0  0  0  0  0  0  0  0  0  0
    9.2395    3.5604   24.6125 H   0  0  0  0  0  0  0  0  0  0  0  0
    7.9781    2.5576   25.3456 H   0  0  0  0  0  0  0  0  0  0  0  0
    6.8901    4.2865   23.9202 H   0  0  0  0  0  0  0  0  0  0  0  0
    6.6398    2.7035   23.2017 H   0  0  0  0  0  0  0  0  0  0  0  0
    7.1092    3.8225   21.0367 C   0  0  0  0  0  0  0  0  0  0  0  0
    6.1457    5.0183   20.9286 C   0  0  0  0  0  0  0  0  0  0  0  0
    6.4056    6.0217   21.8790 O   0  0  0  0  0  0  0  0  0  0  0  0
    6.2213    5.4530   19.9168 H   0  0  0  0  0  0  0  0  0  0  0  0
    5.1118    4.6920   21.0808 H   0  0  0  0  0  0  0  0  0  0  0  0
    6.5297    2.9087   21.1304 H   0  0  0  0  0  0  0  0  0  0  0  0
    7.7148    3.6962   20.1366 H   0  0  0  0  0  0  0  0  0  0  0  0
    8.7919    3.2169   21.9532 H   0  0  0  0  0  0  0  0  0  0  0  0
    8.8330    5.4527   23.4013 H   0  0  0  0  0  0  0  0  0  0  0  0
    9.6407    5.3055   21.8506 H   0  0  0  0  0  0  0  0  0  0  0  0
    8.0096    6.5873   20.7270 H   0  0  0  0  0  0  0  0  0  0  0  0
    7.6020    7.6177   23.5784 H   0  0  0  0  0  0  0  0  0  0  0  0
    7.2253    8.4678   22.0791 H   0  0  0  0  0  0  0  0  0  0  0  0
    8.9152    8.1235   22.4884 H   0  0  0  0  0  0  0  0  0  0  0  0
  1  2  1  0
  2  3  1  0
  3  4  1  0
  4  5  1  0
  5  6  1  0
  6  7  1  0
  7  8  1  0
  9  8  1  1
  9 10  1  0
 10 11  2  0
 10 12  1  0
 12 13  1  0
 13 14  2  0
 14 15  1  0
 15 16  2  0
 16 17  1  0
 17 18  2  0
 18 19  1  0
 19 20  2  0
 20 21  1  0
 21 22  2  0
 21 23  1  0
 20 24  1  0
 19 25  1  0
 18 26  1  0
 16 27  1  0
 14 28  1  0
 12 29  1  0
 29 30  1  0
 30 31  1  0
 31 32  1  0
 31 33  1  0
 31 34  1  0
 30 35  1  6
 29 36  1  0
 29 37  1  0
  9 38  1  0
 38 39  2  0
 39 40  1  0
 40 41  1  0
 40 42  2  0
 42 43  1  0
 43 44  2  0
 44 45  1  0
 45 46  2  0
 43 47  1  0
 42 48  1  0
 39 49  1  0
  8 50  1  0
  8 51  1  0
  6 52  1  0
  6 53  1  0
  5 54  1  0
  5 55  1  0
  4 56  1  0
 56 57  1  0
 57 58  1  0
 57 59  1  0
 57 60  1  0
 56 61  1  0
 56 62  1  0
  4 63  1  6
  3 64  1  0
  3 65  1  0
  2 66  1  6
  1 67  1  0
  1 68  1  0
  1 69  1  0
 58  2  1  0
 45  7  1  0
 30  9  1  0
 44 38  1  0
 22 13  1  0
 22 17  1  0
M  CHG  1   4   1
M  END
>  <cnnaffinities>  (24) 
[6.43199]

>  <score>  (24) 
6.43199

>  <index>  (24) 
23

>  <Smiles>  (24) 
C([C@]1(C([N@@+](C(C(N2C([C@@]3(C(=O)N(c4c(nc(c5c(c(c(c(c45)[H])[H])[H])[H])[H])[H])C([C@@]3(C([H])([H])[H])[H])([H])[H])c3c(c(Cl)c(c(c3C2=O)[H])[H])[H])([H])[H])([H])[H])([H])[H])(C(C(O1)([H])[H])([H])[H])[H])([H])[H])[H])([H])([H])[H]

>  <h>  (24) 
<NA>

>  <Training>  (24) 
True

>  <Success>  (24) 
True

>  <enamine_searched>  (24) 
False

>  <enamine_id>  (24) 
nan

$$$$

     RDKit          3D

 70 75  0  0  0  0  0  0  0  0999 V2000
    6.5316    4.5785   21.3491 C   0  0  0  0  0  0  0  0  0  0  0  0
    6.8506    3.6245   22.4193 N   0  0  0  0  0  4  0  0  0  0  0  0
    7.9354    4.0560   23.3387 C   0  0  0  0  0  0  0  0  0  0  0  0
    8.1343    3.0543   24.4802 C   0  0  0  0  0  0  0  0  0  0  0  0
    8.7571    1.8130   24.0372 N   0  0  0  0  0  0  0  0  0  0  0  0
    7.9676    0.5945   23.9553 C   0  0  0  0  0  0  0  0  0  0  0  0
    8.3513   -0.2472   22.7204 C   0  0  2  0  0  0  0  0  0  0  0  0
    7.7848    0.4367   21.4620 C   0  0  0  0  0  0  0  0  0  0  0  0
    7.9690    1.5999   21.1160 O   0  0  0  0  0  0  0  0  0  0  0  0
    6.9378   -0.4129   20.8071 N   0  0  0  0  0  0  0  0  0  0  0  0
    6.1435    0.1070   19.7490 C   0  0  0  0  0  0  0  0  0  0  0  0
    6.4736   -0.1989   18.4539 C   0  0  0  0  0  0  0  0  0  0  0  0
    5.7865    0.2353   17.3728 N   0  0  0  0  0  0  0  0  0  0  0  0
    4.7564    1.0145   17.6035 C   0  0  0  0  0  0  0  0  0  0  0  0
    4.3220    1.4219   18.8986 C   0  0  0  0  0  0  0  0  0  0  0  0
    3.2039    2.2792   19.0727 C   0  0  0  0  0  0  0  0  0  0  0  0
    2.8078    2.6615   20.3258 C   0  0  0  0  0  0  0  0  0  0  0  0
    3.5045    2.1988   21.4609 C   0  0  0  0  0  0  0  0  0  0  0  0
    4.5919    1.3670   21.3195 C   0  0  0  0  0  0  0  0  0  0  0  0
    5.0348    0.9600   20.0224 C   0  0  0  0  0  0  0  0  0  0  0  0
    5.0968    1.0061   22.2122 H   0  0  0  0  0  0  0  0  0  0  0  0
    3.1767    2.5030   22.4514 H   0  0  0  0  0  0  0  0  0  0  0  0
    1.9541    3.3202   20.4461 H   0  0  0  0  0  0  0  0  0  0  0  0
    2.6887    2.6261   18.1832 H   0  0  0  0  0  0  0  0  0  0  0  0
    4.2092    1.3719   16.7344 H   0  0  0  0  0  0  0  0  0  0  0  0
    7.3403   -0.8278   18.2626 H   0  0  0  0  0  0  0  0  0  0  0  0
    6.5093   -1.5202   21.6426 C   0  0  0  0  0  0  0  0  0  0  0  0
    7.6400   -1.6360   22.6706 C   0  0  2  0  0  0  0  0  0  0  0  0
    7.1820   -2.2581   23.9823 C   0  0  0  0  0  0  0  0  0  0  0  0
    6.0820   -1.5479   24.5170 O   0  0  0  0  0  0  0  0  0  0  0  0
    5.6916   -2.0008   25.7962 C   0  0  0  0  0  0  0  0  0  0  0  0
    4.5955   -1.0846   26.3039 C   0  0  0  0  0  0  0  0  0  0  0  0
    3.2570   -1.1978   25.5559 C   0  0  0  0  0  0  0  0  0  0  0  0
    2.6115   -1.7742   26.7002 O   0  0  0  0  0  0  0  0  0  0  0  0
    3.8024   -1.6435   27.4904 C   0  0  0  0  0  0  0  0  0  0  0  0
    3.6627   -0.9628   28.3396 H   0  0  0  0  0  0  0  0  0  0  0  0
    4.1564   -2.6138   27.8688 H   0  0  0  0  0  0  0  0  0  0  0  0
    2.7960   -0.2465   25.2610 H   0  0  0  0  0  0  0  0  0  0  0  0
    3.2590   -1.8835   24.6981 H   0  0  0  0  0  0  0  0  0  0  0  0
    4.9708   -0.0632   26.4145 H   0  0  0  0  0  0  0  0  0  0  0  0
    6.5514   -1.9956   26.4869 H   0  0  0  0  0  0  0  0  0  0  0  0
    5.3202   -3.0377   25.7347 H   0  0  0  0  0  0  0  0  0  0  0  0
    8.0149   -2.2591   24.7016 H   0  0  0  0  0  0  0  0  0  0  0  0
    6.9045   -3.3092   23.8037 H   0  0  0  0  0  0  0  0  0  0  0  0
    8.3686   -2.3416   22.2734 H   0  0  0  0  0  0  0  0  0  0  0  0
    5.5547   -1.2978   22.1348 H   0  0  0  0  0  0  0  0  0  0  0  0
    6.3925   -2.4316   21.0499 H   0  0  0  0  0  0  0  0  0  0  0  0
    9.8598   -0.3267   22.6095 C   0  0  0  0  0  0  0  0  0  0  0  0
   10.4363   -1.2770   21.7655 C   0  0  0  0  0  0  0  0  0  0  0  0
   11.7992   -1.3008   21.5951 C   0  0  0  0  0  0  0  0  0  0  0  0
   12.3926   -2.3724   20.3680 Cl  0  0  0  0  0  0  0  0  0  0  0  0
   12.6530   -0.4741   22.3239 C   0  0  0  0  0  0  0  0  0  0  0  0
   12.0913    0.4690   23.1591 C   0  0  0  0  0  0  0  0  0  0  0  0
   10.7042    0.5952   23.2364 C   0  0  0  0  0  0  0  0  0  0  0  0
   10.1242    1.7946   23.9212 C   0  0  0  0  0  0  0  0  0  0  0  0
   10.8306    2.7105   24.3263 O   0  0  0  0  0  0  0  0  0  0  0  0
   12.7126    1.1441   23.7307 H   0  0  0  0  0  0  0  0  0  0  0  0
   13.7229   -0.5672   22.2003 H   0  0  0  0  0  0  0  0  0  0  0  0
    9.8749   -2.0239   21.2108 H   0  0  0  0  0  0  0  0  0  0  0  0
    8.1040   -0.0153   24.8585 H   0  0  0  0  0  0  0  0  0  0  0  0
    6.9109    0.8598   23.8673 H   0  0  0  0  0  0  0  0  0  0  0  0
    8.7808    3.4858   25.2485 H   0  0  0  0  0  0  0  0  0  0  0  0
    7.1683    2.8077   24.9397 H   0  0  0  0  0  0  0  0  0  0  0  0
    8.8750    4.1392   22.7795 H   0  0  0  0  0  0  0  0  0  0  0  0
    7.7034    5.0433   23.7573 H   0  0  0  0  0  0  0  0  0  0  0  0
    5.9814    3.4436   22.9577 H   0  0  0  0  0  0  0  0  0  0  0  0
    7.1433    2.7373   21.9683 H   0  0  0  0  0  0  0  0  0  0  0  0
    6.3737    5.5858   21.7463 H   0  0  0  0  0  0  0  0  0  0  0  0
    7.3544    4.6281   20.6340 H   0  0  0  0  0  0  0  0  0  0  0  0
    5.6277    4.2439   20.8317 H   0  0  0  0  0  0  0  0  0  0  0  0
  1  2  1  0
  2  3  1  0
  3  4  1  0
  4  5  1  0
  5  6  1  0
  7  6  1  1
  7  8  1  0
  8  9  2  0
  8 10  1  0
 10 11  1  0
 11 12  2  0
 12 13  1  0
 13 14  2  0
 14 15  1  0
 15 16  2  0
 16 17  1  0
 17 18  2  0
 18 19  1  0
 19 20  2  0
 19 21  1  0
 18 22  1  0
 17 23  1  0
 16 24  1  0
 14 25  1  0
 12 26  1  0
 10 27  1  0
 27 28  1  0
 28 29  1  0
 29 30  1  0
 30 31  1  0
 31 32  1  0
 32 33  1  0
 33 34  1  0
 34 35  1  0
 35 36  1  0
 35 37  1  0
 33 38  1  0
 33 39  1  0
 32 40  1  0
 31 41  1  0
 31 42  1  0
 29 43  1  0
 29 44  1  0
 28 45  1  6
 27 46  1  0
 27 47  1  0
  7 48  1  0
 48 49  2  0
 49 50  1  0
 50 51  1  0
 50 52  2  0
 52 53  1  0
 53 54  2  0
 54 55  1  0
 55 56  2  0
 53 57  1  0
 52 58  1  0
 49 59  1  0
  6 60  1  0
  6 61  1  0
  4 62  1  0
  4 63  1  0
  3 64  1  0
  3 65  1  0
  2 66  1  0
  2 67  1  0
  1 68  1  0
  1 69  1  0
  1 70  1  0
 55  5  1  0
 28  7  1  0
 35 32  1  0
 54 48  1  0
 20 11  1  0
 20 15  1  0
M  CHG  1   2   1
M  END
>  <cnnaffinities>  (25) 
[6.02302]

>  <score>  (25) 
6.02302

>  <index>  (25) 
24

>  <Smiles>  (25) 
C([N+](C(C(N1C([C@@]2(C(=O)N(c3c(nc(c4c(c(c(c(c34)[H])[H])[H])[H])[H])[H])C([C@@]2(C(OC(C2(C(OC2([H])[H])([H])[H])[H])([H])[H])([H])[H])[H])([H])[H])c2c(c(Cl)c(c(c2C1=O)[H])[H])[H])([H])[H])([H])[H])([H])[H])([H])[H])([H])([H])[H]

>  <h>  (25) 
<NA>

>  <Training>  (25) 
True

>  <Success>  (25) 
True

>  <enamine_searched>  (25) 
False

>  <enamine_id>  (25) 
nan

$$$$

     RDKit          3D

 68 73  0  0  0  0  0  0  0  0999 V2000
    6.5831    4.3325   21.3934 C   0  0  0  0  0  0  0  0  0  0  0  0
    7.6243    3.9471   22.3351 N   0  0  0  0  0  0  0  0  0  0  0  0
    7.2146    3.2697   23.4509 C   0  0  0  0  0  0  0  0  0  0  0  0
    6.0294    3.0470   23.6658 O   0  0  0  0  0  0  0  0  0  0  0  0
    8.2931    2.7850   24.4289 C   0  0  0  0  0  0  0  0  0  0  0  0
    8.9098    1.5688   23.9370 N   0  0  0  0  0  0  0  0  0  0  0  0
    8.0723    0.3777   23.8391 C   0  0  0  0  0  0  0  0  0  0  0  0
    8.4503   -0.4675   22.6037 C   0  0  2  0  0  0  0  0  0  0  0  0
    7.9905    0.2331   21.3040 C   0  0  0  0  0  0  0  0  0  0  0  0
    8.4850    1.2074   20.7677 O   0  0  0  0  0  0  0  0  0  0  0  0
    6.8944   -0.4386   20.8231 N   0  0  0  0  0  0  0  0  0  0  0  0
    6.1355    0.0892   19.7584 C   0  0  0  0  0  0  0  0  0  0  0  0
    6.4866   -0.2018   18.4657 C   0  0  0  0  0  0  0  0  0  0  0  0
    5.8103    0.2365   17.3780 N   0  0  0  0  0  0  0  0  0  0  0  0
    4.7658    0.9992   17.5973 C   0  0  0  0  0  0  0  0  0  0  0  0
    4.3055    1.3869   18.8899 C   0  0  0  0  0  0  0  0  0  0  0  0
    3.1871    2.2416   19.0676 C   0  0  0  0  0  0  0  0  0  0  0  0
    2.7895    2.6174   20.3213 C   0  0  0  0  0  0  0  0  0  0  0  0
    3.4907    2.1608   21.4603 C   0  0  0  0  0  0  0  0  0  0  0  0
    4.5764    1.3281   21.3167 C   0  0  0  0  0  0  0  0  0  0  0  0
    5.0069    0.9178   20.0211 C   0  0  0  0  0  0  0  0  0  0  0  0
    5.1366    1.0301   22.1981 H   0  0  0  0  0  0  0  0  0  0  0  0
    3.1907    2.4917   22.4498 H   0  0  0  0  0  0  0  0  0  0  0  0
    1.9408    3.2834   20.4435 H   0  0  0  0  0  0  0  0  0  0  0  0
    2.6787    2.6037   18.1789 H   0  0  0  0  0  0  0  0  0  0  0  0
    4.2253    1.3602   16.7236 H   0  0  0  0  0  0  0  0  0  0  0  0
    7.3590   -0.8250   18.2850 H   0  0  0  0  0  0  0  0  0  0  0  0
    6.4650   -1.5568   21.6305 C   0  0  0  0  0  0  0  0  0  0  0  0
    7.6782   -1.8214   22.5185 C   0  0  2  0  0  0  0  0  0  0  0  0
    7.2781   -2.5059   23.8158 C   0  0  0  0  0  0  0  0  0  0  0  0
    8.4493   -2.9606   24.5132 N   0  0  0  0  0  0  0  0  0  0  0  0
    8.3618   -3.4688   25.7973 C   0  0  0  0  0  0  0  0  0  0  0  0
    7.2311   -3.7656   26.6063 C   0  0  0  0  0  0  0  0  0  0  0  0
    7.5968   -4.2855   27.7760 N   0  0  0  0  0  0  0  0  0  0  0  0
    8.9335   -4.3183   27.7413 N   0  0  0  0  0  0  0  0  0  0  0  0
    9.6824   -4.8377   28.8581 C   0  0  0  0  0  0  0  0  0  0  0  0
    9.1950   -4.5189   29.7759 H   0  0  0  0  0  0  0  0  0  0  0  0
    9.7200   -5.9316   28.8323 H   0  0  0  0  0  0  0  0  0  0  0  0
   10.7008   -4.4405   28.8434 H   0  0  0  0  0  0  0  0  0  0  0  0
    9.4393   -3.8464   26.5746 C   0  0  0  0  0  0  0  0  0  0  0  0
   10.5054   -3.7618   26.3918 H   0  0  0  0  0  0  0  0  0  0  0  0
    6.1707   -3.6413   26.3969 H   0  0  0  0  0  0  0  0  0  0  0  0
    9.3536   -2.5775   24.2575 H   0  0  0  0  0  0  0  0  0  0  0  0
    6.6449   -3.3749   23.5873 H   0  0  0  0  0  0  0  0  0  0  0  0
    6.6616   -1.8223   24.4297 H   0  0  0  0  0  0  0  0  0  0  0  0
    8.3302   -2.5211   21.9858 H   0  0  0  0  0  0  0  0  0  0  0  0
    5.5730   -1.3073   22.2267 H   0  0  0  0  0  0  0  0  0  0  0  0
    6.2167   -2.4252   21.0088 H   0  0  0  0  0  0  0  0  0  0  0  0
    9.9518   -0.5921   22.5285 C   0  0  0  0  0  0  0  0  0  0  0  0
   10.5018   -1.4809   21.5976 C   0  0  0  0  0  0  0  0  0  0  0  0
   11.8671   -1.5345   21.4188 C   0  0  0  0  0  0  0  0  0  0  0  0
   12.4582   -2.5357   20.1331 Cl  0  0  0  0  0  0  0  0  0  0  0  0
   12.7410   -0.7538   22.1787 C   0  0  0  0  0  0  0  0  0  0  0  0
   12.1973    0.1434   23.0817 C   0  0  0  0  0  0  0  0  0  0  0  0
   10.8138    0.2822   23.2032 C   0  0  0  0  0  0  0  0  0  0  0  0
   10.2787    1.4801   23.9277 C   0  0  0  0  0  0  0  0  0  0  0  0
   11.0044    2.3356   24.4183 O   0  0  0  0  0  0  0  0  0  0  0  0
   12.8264    0.7840   23.6917 H   0  0  0  0  0  0  0  0  0  0  0  0
   13.8139   -0.8132   22.0222 H   0  0  0  0  0  0  0  0  0  0  0  0
    9.8980   -2.1123   20.9521 H   0  0  0  0  0  0  0  0  0  0  0  0
    8.1756   -0.2254   24.7537 H   0  0  0  0  0  0  0  0  0  0  0  0
    7.0272    0.6946   23.7645 H   0  0  0  0  0  0  0  0  0  0  0  0
    9.0961    3.5153   24.5811 H   0  0  0  0  0  0  0  0  0  0  0  0
    7.7993    2.6171   25.3967 H   0  0  0  0  0  0  0  0  0  0  0  0
    8.5182    3.7104   21.9191 H   0  0  0  0  0  0  0  0  0  0  0  0
    6.1272    3.4460   20.9322 H   0  0  0  0  0  0  0  0  0  0  0  0
    7.0032    4.9764   20.6194 H   0  0  0  0  0  0  0  0  0  0  0  0
    5.8058    4.8931   21.9189 H   0  0  0  0  0  0  0  0  0  0  0  0
  1  2  1  0
  2  3  1  0
  3  4  2  0
  3  5  1  0
  5  6  1  0
  6  7  1  0
  8  7  1  1
  8  9  1  0
  9 10  2  0
  9 11  1  0
 11 12  1  0
 12 13  2  0
 13 14  1  0
 14 15  2  0
 15 16  1  0
 16 17  2  0
 17 18  1  0
 18 19  2  0
 19 20  1  0
 20 21  2  0
 20 22  1  0
 19 23  1  0
 18 24  1  0
 17 25  1  0
 15 26  1  0
 13 27  1  0
 11 28  1  0
 28 29  1  0
 29 30  1  0
 30 31  1  0
 31 32  1  0
 32 33  1  0
 33 34  2  0
 34 35  1  0
 35 36  1  0
 36 37  1  0
 36 38  1  0
 36 39  1  0
 35 40  1  0
 40 41  1  0
 33 42  1  0
 31 43  1  0
 30 44  1  0
 30 45  1  0
 29 46  1  6
 28 47  1  0
 28 48  1  0
  8 49  1  0
 49 50  2  0
 50 51  1  0
 51 52  1  0
 51 53  2  0
 53 54  1  0
 54 55  2  0
 55 56  1  0
 56 57  2  0
 54 58  1  0
 53 59  1  0
 50 60  1  0
  7 61  1  0
  7 62  1  0
  5 63  1  0
  5 64  1  0
  2 65  1  0
  1 66  1  0
  1 67  1  0
  1 68  1  0
 56  6  1  0
 29  8  1  0
 40 32  2  0
 55 49  1  0
 21 12  1  0
 21 16  1  0
M  END
>  <cnnaffinities>  (26) 
[6.28104]

>  <score>  (26) 
6.28104

>  <index>  (26) 
25

>  <Smiles>  (26) 
C(N(C(=O)C(N1C([C@@]2(C(=O)N(c3c(nc(c4c(c(c(c(c34)[H])[H])[H])[H])[H])[H])C([C@@]2(C(N(c2c(nn(C([H])([H])[H])c2[H])[H])[H])([H])[H])[H])([H])[H])c2c(c(Cl)c(c(c2C1=O)[H])[H])[H])([H])[H])([H])[H])[H])([H])([H])[H]

>  <h>  (26) 
<NA>

>  <Training>  (26) 
True

>  <Success>  (26) 
True

>  <enamine_searched>  (26) 
False

>  <enamine_id>  (26) 
nan

$$$$

     RDKit          3D

 43 47  0  0  0  0  0  0  0  0999 V2000
    6.3242   -2.5708   20.7994 O   0  0  0  0  0  0  0  0  0  0  0  0
    7.0908   -1.6960   21.1266 C   0  0  0  0  0  0  0  0  0  0  0  0
    8.2727   -1.8049   21.8184 N   0  0  0  0  0  0  0  0  0  0  0  0
    8.7192   -0.5340   22.3613 C   0  0  1  0  0  0  0  0  0  0  0  0
    8.7477   -0.3639   23.9017 C   0  0  0  0  0  0  0  0  0  0  0  0
   10.2572    0.0063   23.8522 C   0  0  2  0  0  0  0  0  0  0  0  0
   10.6156    1.4025   24.3474 C   0  0  0  0  0  0  0  0  0  0  0  0
    9.8485    2.0700   25.3119 C   0  0  0  0  0  0  0  0  0  0  0  0
   10.0978    3.3937   25.6573 C   0  0  0  0  0  0  0  0  0  0  0  0
   11.0920    4.1187   25.0110 C   0  0  0  0  0  0  0  0  0  0  0  0
   11.9070    3.4757   24.0923 C   0  0  0  0  0  0  0  0  0  0  0  0
   11.7024    2.1243   23.8299 C   0  0  0  0  0  0  0  0  0  0  0  0
   12.8549    1.3244   22.7899 Cl  0  0  0  0  0  0  0  0  0  0  0  0
   12.7136    3.9960   23.5862 H   0  0  0  0  0  0  0  0  0  0  0  0
   11.2287    5.1817   25.1620 H   0  0  0  0  0  0  0  0  0  0  0  0
    9.4544    3.8942   26.3707 H   0  0  0  0  0  0  0  0  0  0  0  0
    9.0167    1.5502   25.7821 H   0  0  0  0  0  0  0  0  0  0  0  0
   10.2102   -0.1713   22.3093 C   0  0  0  0  0  0  0  0  0  0  0  0
   10.3609    0.7593   21.7686 H   0  0  0  0  0  0  0  0  0  0  0  0
   10.8602   -0.9536   21.9112 H   0  0  0  0  0  0  0  0  0  0  0  0
   10.8739   -0.7847   24.2937 H   0  0  0  0  0  0  0  0  0  0  0  0
    8.4953   -1.2783   24.4483 H   0  0  0  0  0  0  0  0  0  0  0  0
    8.0876    0.4431   24.2156 H   0  0  0  0  0  0  0  0  0  0  0  0
    7.8269    0.4479   21.6029 C   0  0  0  0  0  0  0  0  0  0  0  0
    7.8548    1.6541   21.6166 O   0  0  0  0  0  0  0  0  0  0  0  0
    6.9216   -0.3263   20.8682 N   0  0  0  0  0  0  0  0  0  0  0  0
    6.1289    0.1584   19.7863 C   0  0  0  0  0  0  0  0  0  0  0  0
    6.4545   -0.1725   18.4938 C   0  0  0  0  0  0  0  0  0  0  0  0
    5.7847    0.2667   17.3980 N   0  0  0  0  0  0  0  0  0  0  0  0
    4.7497    1.0474   17.5978 C   0  0  0  0  0  0  0  0  0  0  0  0
    4.2886    1.4476   18.8851 C   0  0  0  0  0  0  0  0  0  0  0  0
    3.1497    2.2769   19.0514 C   0  0  0  0  0  0  0  0  0  0  0  0
    2.7162    2.6107   20.3066 C   0  0  0  0  0  0  0  0  0  0  0  0
    3.3966    2.1315   21.4456 C   0  0  0  0  0  0  0  0  0  0  0  0
    4.5083    1.3411   21.3116 C   0  0  0  0  0  0  0  0  0  0  0  0
    4.9873    0.9868   20.0206 C   0  0  0  0  0  0  0  0  0  0  0  0
    5.0307    0.9724   22.1886 H   0  0  0  0  0  0  0  0  0  0  0  0
    3.0312    2.3876   22.4354 H   0  0  0  0  0  0  0  0  0  0  0  0
    1.8466    3.2474   20.4300 H   0  0  0  0  0  0  0  0  0  0  0  0
    2.6423    2.6396   18.1638 H   0  0  0  0  0  0  0  0  0  0  0  0
    4.2079    1.3857   16.7153 H   0  0  0  0  0  0  0  0  0  0  0  0
    7.3104   -0.8164   18.2966 H   0  0  0  0  0  0  0  0  0  0  0  0
    8.5098   -2.6928   22.2311 H   0  0  0  0  0  0  0  0  0  0  0  0
  1  2  2  0
  2  3  1  0
  4  3  1  1
  4  5  1  0
  5  6  1  0
  6  7  1  0
  7  8  2  0
  8  9  1  0
  9 10  2  0
 10 11  1  0
 11 12  2  0
 12 13  1  0
 11 14  1  0
 10 15  1  0
  9 16  1  0
  8 17  1  0
  6 18  1  0
 18 19  1  0
 18 20  1  0
  6 21  1  1
  5 22  1  0
  5 23  1  0
  4 24  1  0
 24 25  2  0
 24 26  1  0
 26 27  1  0
 27 28  2  0
 28 29  1  0
 29 30  2  0
 30 31  1  0
 31 32  2  0
 32 33  1  0
 33 34  2  0
 34 35  1  0
 35 36  2  0
 35 37  1  0
 34 38  1  0
 33 39  1  0
 32 40  1  0
 30 41  1  0
 28 42  1  0
  3 43  1  0
 26  2  1  0
 36 27  1  0
 18  4  1  0
 36 31  1  0
 12  7  1  0
M  END
>  <cnnaffinities>  (27) 
[5.85482]

>  <score>  (27) 
5.85482

>  <index>  (27) 
26

>  <Smiles>  (27) 
O=C1N([C@]2(C([C@](c3c(c(c(c(c3Cl)[H])[H])[H])[H])(C2([H])[H])[H])([H])[H])C(=O)N1c1c(nc(c2c(c(c(c(c12)[H])[H])[H])[H])[H])[H])[H]

>  <h>  (27) 
<NA>

>  <Training>  (27) 
True

>  <Success>  (27) 
True

>  <enamine_searched>  (27) 
False

>  <enamine_id>  (27) 
nan

$$$$

     RDKit          3D

 46 48  0  0  0  0  0  0  0  0999 V2000
    6.8359    3.9206   21.4042 C   0  0  0  0  0  0  0  0  0  0  0  0
    7.1968    3.3929   22.7923 C   0  0  0  0  0  0  0  0  0  0  0  0
    8.4685    2.5059   22.7923 C   0  0  1  0  0  0  0  0  0  0  0  0
    9.3507    2.7109   24.0228 C   0  0  0  0  0  0  0  0  0  0  0  0
    8.9321    1.9513   25.2758 C   0  0  1  0  0  0  0  0  0  0  0  0
    7.8371    2.6018   26.0958 C   0  0  0  0  0  0  0  0  0  0  0  0
    7.7399    1.9965   27.2990 F   0  0  0  0  0  0  0  0  0  0  0  0
    6.6139    2.5360   25.5262 F   0  0  0  0  0  0  0  0  0  0  0  0
    8.1110    3.9031   26.3234 F   0  0  0  0  0  0  0  0  0  0  0  0
    8.6489    0.4942   24.9345 C   0  0  0  0  0  0  0  0  0  0  0  0
    7.6921    0.3291   23.7500 C   0  0  0  0  0  0  0  0  0  0  0  0
    8.1649    1.0829   22.6015 N   0  0  0  0  0  0  0  0  0  0  0  0
    8.0428    0.6538   21.2975 C   0  0  0  0  0  0  0  0  0  0  0  0
    8.7445    1.1187   20.4170 O   0  0  0  0  0  0  0  0  0  0  0  0
    6.9772   -0.3982   20.9169 C   0  0  0  0  0  0  0  0  0  0  0  0
    6.1159    0.0933   19.7721 C   0  0  0  0  0  0  0  0  0  0  0  0
    6.4311   -0.2095   18.4673 C   0  0  0  0  0  0  0  0  0  0  0  0
    5.7640    0.2393   17.3722 N   0  0  0  0  0  0  0  0  0  0  0  0
    4.7382    1.0272   17.5786 C   0  0  0  0  0  0  0  0  0  0  0  0
    4.2830    1.4196   18.8675 C   0  0  0  0  0  0  0  0  0  0  0  0
    3.1717    2.2802   19.0490 C   0  0  0  0  0  0  0  0  0  0  0  0
    2.7712    2.6587   20.3012 C   0  0  0  0  0  0  0  0  0  0  0  0
    3.4687    2.1857   21.4357 C   0  0  0  0  0  0  0  0  0  0  0  0
    4.5488    1.3459   21.2850 C   0  0  0  0  0  0  0  0  0  0  0  0
    4.9905    0.9386   19.9998 C   0  0  0  0  0  0  0  0  0  0  0  0
    5.0658    0.9918   22.1734 H   0  0  0  0  0  0  0  0  0  0  0  0
    3.1480    2.4826   22.4289 H   0  0  0  0  0  0  0  0  0  0  0  0
    1.9265    3.3283   20.4286 H   0  0  0  0  0  0  0  0  0  0  0  0
    2.6628    2.6498   18.1625 H   0  0  0  0  0  0  0  0  0  0  0  0
    4.2081    1.3933   16.6970 H   0  0  0  0  0  0  0  0  0  0  0  0
    7.2800   -0.8517   18.2391 H   0  0  0  0  0  0  0  0  0  0  0  0
    7.5273   -1.2799   20.5705 H   0  0  0  0  0  0  0  0  0  0  0  0
    6.3613   -0.7039   21.7708 H   0  0  0  0  0  0  0  0  0  0  0  0
    6.6741    0.6302   24.0386 H   0  0  0  0  0  0  0  0  0  0  0  0
    7.6751   -0.7206   23.4547 H   0  0  0  0  0  0  0  0  0  0  0  0
    8.2489   -0.0263   25.8082 H   0  0  0  0  0  0  0  0  0  0  0  0
    9.6015    0.0195   24.6688 H   0  0  0  0  0  0  0  0  0  0  0  0
    9.7719    1.9933   25.9694 H   0  0  0  0  0  0  0  0  0  0  0  0
    9.4088    3.7786   24.2499 H   0  0  0  0  0  0  0  0  0  0  0  0
   10.3619    2.3770   23.7602 H   0  0  0  0  0  0  0  0  0  0  0  0
    9.0721    2.7703   21.9201 H   0  0  0  0  0  0  0  0  0  0  0  0
    6.3550    2.8221   23.2044 H   0  0  0  0  0  0  0  0  0  0  0  0
    7.3736    4.2371   23.4751 H   0  0  0  0  0  0  0  0  0  0  0  0
    7.5778    4.6496   21.0841 H   0  0  0  0  0  0  0  0  0  0  0  0
    6.7941    3.1039   20.6722 H   0  0  0  0  0  0  0  0  0  0  0  0
    5.8779    4.4490   21.3890 H   0  0  0  0  0  0  0  0  0  0  0  0
  1  2  1  0
  2  3  1  0
  3  4  1  0
  4  5  1  0
  5  6  1  0
  6  7  1  0
  6  8  1  0
  6  9  1  0
  5 10  1  0
 10 11  1  0
 11 12  1  0
 12 13  1  0
 13 14  2  0
 13 15  1  0
 15 16  1  0
 16 17  2  0
 17 18  1  0
 18 19  2  0
 19 20  1  0
 20 21  2  0
 21 22  1  0
 22 23  2  0
 23 24  1  0
 24 25  2  0
 24 26  1  0
 23 27  1  0
 22 28  1  0
 21 29  1  0
 19 30  1  0
 17 31  1  0
 15 32  1  0
 15 33  1  0
 11 34  1  0
 11 35  1  0
 10 36  1  0
 10 37  1  0
  5 38  1  1
  4 39  1  0
  4 40  1  0
  3 41  1  6
  2 42  1  0
  2 43  1  0
  1 44  1  0
  1 45  1  0
  1 46  1  0
 12  3  1  0
 25 16  1  0
 25 20  1  0
M  END
>  <cnnaffinities>  (28) 
[5.32902, 5.32911, 5.27467, 5.27224, 5.27203, 5.27194]

>  <score>  (28) 
5.32902

>  <index>  (28) 
27

>  <Smiles>  (28) 
C(C([C@]1(C([C@@](C(F)(F)F)(C(C(N1C(=O)C(c1c(nc(c2c(c(c(c(c12)[H])[H])[H])[H])[H])[H])([H])[H])([H])[H])([H])[H])[H])([H])[H])[H])([H])[H])([H])([H])[H]

>  <h>  (28) 
<NA>

>  <Training>  (28) 
True

>  <Success>  (28) 
True

>  <enamine_searched>  (28) 
False

>  <enamine_id>  (28) 
nan

$$$$

     RDKit          3D

 70 75  0  0  0  0  0  0  0  0999 V2000
    6.4767    4.5893   21.4700 C   0  0  0  0  0  0  0  0  0  0  0  0
    6.8249    3.5845   22.4838 N   0  0  0  0  0  4  0  0  0  0  0  0
    7.8275    4.0289   23.4822 C   0  0  0  0  0  0  0  0  0  0  0  0
    8.0452    2.9847   24.5798 C   0  0  0  0  0  0  0  0  0  0  0  0
    8.7035    1.7732   24.1088 N   0  0  0  0  0  0  0  0  0  0  0  0
    7.9459    0.5381   23.9764 C   0  0  0  0  0  0  0  0  0  0  0  0
    8.3429   -0.2723   22.7201 C   0  0  2  0  0  0  0  0  0  0  0  0
    7.7670    0.4250   21.4786 C   0  0  0  0  0  0  0  0  0  0  0  0
    7.9624    1.5896   21.1460 O   0  0  0  0  0  0  0  0  0  0  0  0
    6.9186   -0.4189   20.8217 N   0  0  0  0  0  0  0  0  0  0  0  0
    6.1370    0.1048   19.7588 C   0  0  0  0  0  0  0  0  0  0  0  0
    6.4727   -0.2018   18.4661 C   0  0  0  0  0  0  0  0  0  0  0  0
    5.7891    0.2362   17.3837 N   0  0  0  0  0  0  0  0  0  0  0  0
    4.7579    1.0184   17.6008 C   0  0  0  0  0  0  0  0  0  0  0  0
    4.3186    1.4235   18.8957 C   0  0  0  0  0  0  0  0  0  0  0  0
    3.1990    2.2813   19.0747 C   0  0  0  0  0  0  0  0  0  0  0  0
    2.8043    2.6645   20.3271 C   0  0  0  0  0  0  0  0  0  0  0  0
    3.5036    2.2073   21.4630 C   0  0  0  0  0  0  0  0  0  0  0  0
    4.5910    1.3737   21.3174 C   0  0  0  0  0  0  0  0  0  0  0  0
    5.0311    0.9644   20.0216 C   0  0  0  0  0  0  0  0  0  0  0  0
    5.1038    1.0109   22.2043 H   0  0  0  0  0  0  0  0  0  0  0  0
    3.1835    2.5151   22.4552 H   0  0  0  0  0  0  0  0  0  0  0  0
    1.9527    3.3283   20.4515 H   0  0  0  0  0  0  0  0  0  0  0  0
    2.6844    2.6333   18.1860 H   0  0  0  0  0  0  0  0  0  0  0  0
    4.2079    1.3753   16.7290 H   0  0  0  0  0  0  0  0  0  0  0  0
    7.3392   -0.8291   18.2644 H   0  0  0  0  0  0  0  0  0  0  0  0
    6.4891   -1.5269   21.6605 C   0  0  0  0  0  0  0  0  0  0  0  0
    7.6643   -1.6744   22.6261 C   0  0  2  0  0  0  0  0  0  0  0  0
    7.2924   -2.3730   23.9159 C   0  0  0  0  0  0  0  0  0  0  0  0
    6.1326   -1.7486   24.4504 O   0  0  0  0  0  0  0  0  0  0  0  0
    5.7757   -2.2037   25.7303 C   0  0  0  0  0  0  0  0  0  0  0  0
    6.3841   -1.3345   26.8027 C   0  0  0  0  0  0  0  0  0  0  0  0
    7.7674   -1.4718   26.7342 F   0  0  0  0  0  0  0  0  0  0  0  0
    5.8415   -1.4533   28.2258 C   0  0  0  0  0  0  0  0  0  0  0  0
    5.3311   -0.1098   28.1793 O   0  0  0  0  0  0  0  0  0  0  0  0
    5.9438    0.1279   26.9037 C   0  0  0  0  0  0  0  0  0  0  0  0
    5.2311    0.4917   26.1534 H   0  0  0  0  0  0  0  0  0  0  0  0
    6.8024    0.8093   26.9675 H   0  0  0  0  0  0  0  0  0  0  0  0
    6.6381   -1.5874   28.9707 H   0  0  0  0  0  0  0  0  0  0  0  0
    5.0461   -2.1866   28.4020 H   0  0  0  0  0  0  0  0  0  0  0  0
    4.6843   -2.1561   25.8049 H   0  0  0  0  0  0  0  0  0  0  0  0
    6.0938   -3.2464   25.8879 H   0  0  0  0  0  0  0  0  0  0  0  0
    7.0823   -3.4344   23.7154 H   0  0  0  0  0  0  0  0  0  0  0  0
    8.1312   -2.3339   24.6210 H   0  0  0  0  0  0  0  0  0  0  0  0
    8.3899   -2.3159   22.1320 H   0  0  0  0  0  0  0  0  0  0  0  0
    5.5623   -1.2878   22.1938 H   0  0  0  0  0  0  0  0  0  0  0  0
    6.3238   -2.4220   21.0553 H   0  0  0  0  0  0  0  0  0  0  0  0
    9.8521   -0.3223   22.6144 C   0  0  0  0  0  0  0  0  0  0  0  0
   10.4549   -1.2497   21.7634 C   0  0  0  0  0  0  0  0  0  0  0  0
   11.8182   -1.2517   21.5978 C   0  0  0  0  0  0  0  0  0  0  0  0
   12.4156   -2.3483   20.4007 Cl  0  0  0  0  0  0  0  0  0  0  0  0
   12.6575   -0.3982   22.3121 C   0  0  0  0  0  0  0  0  0  0  0  0
   12.0631    0.5368   23.1413 C   0  0  0  0  0  0  0  0  0  0  0  0
   10.6701    0.6252   23.2432 C   0  0  0  0  0  0  0  0  0  0  0  0
   10.0654    1.7998   23.9704 C   0  0  0  0  0  0  0  0  0  0  0  0
   10.7482    2.7325   24.3785 O   0  0  0  0  0  0  0  0  0  0  0  0
   12.6706    1.2368   23.7040 H   0  0  0  0  0  0  0  0  0  0  0  0
   13.7340   -0.4621   22.1725 H   0  0  0  0  0  0  0  0  0  0  0  0
    9.9073   -1.9843   21.1821 H   0  0  0  0  0  0  0  0  0  0  0  0
    6.8847    0.7793   23.9000 H   0  0  0  0  0  0  0  0  0  0  0  0
    8.0749   -0.0715   24.8767 H   0  0  0  0  0  0  0  0  0  0  0  0
    8.6771    3.4071   25.3620 H   0  0  0  0  0  0  0  0  0  0  0  0
    7.0845    2.7014   25.0259 H   0  0  0  0  0  0  0  0  0  0  0  0
    7.5001    4.9775   23.9258 H   0  0  0  0  0  0  0  0  0  0  0  0
    8.7833    4.2090   22.9800 H   0  0  0  0  0  0  0  0  0  0  0  0
    7.1956    2.7444   22.0010 H   0  0  0  0  0  0  0  0  0  0  0  0
    5.9484    3.3059   22.9646 H   0  0  0  0  0  0  0  0  0  0  0  0
    7.3211    4.7510   20.7957 H   0  0  0  0  0  0  0  0  0  0  0  0
    5.6189    4.2314   20.8925 H   0  0  0  0  0  0  0  0  0  0  0  0
    6.2242    5.5465   21.9391 H   0  0  0  0  0  0  0  0  0  0  0  0
  1  2  1  0
  2  3  1  0
  3  4  1  0
  4  5  1  0
  5  6  1  0
  7  6  1  1
  7  8  1  0
  8  9  2  0
  8 10  1  0
 10 11  1  0
 11 12  2  0
 12 13  1  0
 13 14  2  0
 14 15  1  0
 15 16  2  0
 16 17  1  0
 17 18  2  0
 18 19  1  0
 19 20  2  0
 19 21  1  0
 18 22  1  0
 17 23  1  0
 16 24  1  0
 14 25  1  0
 12 26  1  0
 10 27  1  0
 27 28  1  0
 28 29  1  0
 29 30  1  0
 30 31  1  0
 31 32  1  0
 32 33  1  0
 32 34  1  0
 34 35  1  0
 35 36  1  0
 36 37  1  0
 36 38  1  0
 34 39  1  0
 34 40  1  0
 31 41  1  0
 31 42  1  0
 29 43  1  0
 29 44  1  0
 28 45  1  6
 27 46  1  0
 27 47  1  0
  7 48  1  0
 48 49  2  0
 49 50  1  0
 50 51  1  0
 50 52  2  0
 52 53  1  0
 53 54  2  0
 54 55  1  0
 55 56  2  0
 53 57  1  0
 52 58  1  0
 49 59  1  0
  6 60  1  0
  6 61  1  0
  4 62  1  0
  4 63  1  0
  3 64  1  0
  3 65  1  0
  2 66  1  0
  2 67  1  0
  1 68  1  0
  1 69  1  0
  1 70  1  0
 55  5  1  0
 28  7  1  0
 36 32  1  0
 54 48  1  0
 20 11  1  0
 20 15  1  0
M  CHG  1   2   1
M  END
>  <cnnaffinities>  (29) 
[6.09698]

>  <score>  (29) 
6.09698

>  <index>  (29) 
28

>  <Smiles>  (29) 
C([N+](C(C(N1C([C@@]2(C(=O)N(c3c(nc(c4c(c(c(c(c34)[H])[H])[H])[H])[H])[H])C([C@@]2(C(OC(C2(F)C(OC2([H])[H])([H])[H])([H])[H])([H])[H])[H])([H])[H])c2c(c(Cl)c(c(c2C1=O)[H])[H])[H])([H])[H])([H])[H])([H])[H])([H])[H])([H])([H])[H]

>  <h>  (29) 
<NA>

>  <Training>  (29) 
True

>  <Success>  (29) 
True

>  <enamine_searched>  (29) 
False

>  <enamine_id>  (29) 
nan

$$$$

     RDKit          3D

 67 72  0  0  0  0  0  0  0  0999 V2000
    6.6219    4.3806   21.3057 C   0  0  0  0  0  0  0  0  0  0  0  0
    7.0178    3.3835   22.3084 N   0  0  0  0  0  4  0  0  0  0  0  0
    8.0632    3.8384   23.2530 C   0  0  0  0  0  0  0  0  0  0  0  0
    8.2904    2.8353   24.3892 C   0  0  0  0  0  0  0  0  0  0  0  0
    8.9125    1.5802   23.9853 N   0  0  0  0  0  0  0  0  0  0  0  0
    8.1258    0.3618   23.8819 C   0  0  0  0  0  0  0  0  0  0  0  0
    8.4698   -0.4443   22.6063 C   0  0  2  0  0  0  0  0  0  0  0  0
    7.9065    0.2990   21.3804 C   0  0  0  0  0  0  0  0  0  0  0  0
    8.2272    1.4178   20.9949 O   0  0  0  0  0  0  0  0  0  0  0  0
    6.9297   -0.4487   20.7898 N   0  0  0  0  0  0  0  0  0  0  0  0
    6.1504    0.1006   19.7359 C   0  0  0  0  0  0  0  0  0  0  0  0
    6.4837   -0.1854   18.4379 C   0  0  0  0  0  0  0  0  0  0  0  0
    5.7927    0.2544   17.3612 N   0  0  0  0  0  0  0  0  0  0  0  0
    4.7599    1.0304   17.5854 C   0  0  0  0  0  0  0  0  0  0  0  0
    4.3297    1.4352   18.8832 C   0  0  0  0  0  0  0  0  0  0  0  0
    3.2102    2.2899   19.0749 C   0  0  0  0  0  0  0  0  0  0  0  0
    2.8316    2.6709   20.3332 C   0  0  0  0  0  0  0  0  0  0  0  0
    3.5405    2.2066   21.4596 C   0  0  0  0  0  0  0  0  0  0  0  0
    4.6215    1.3705   21.2997 C   0  0  0  0  0  0  0  0  0  0  0  0
    5.0491    0.9646   20.0038 C   0  0  0  0  0  0  0  0  0  0  0  0
    5.1348    0.9950   22.1798 H   0  0  0  0  0  0  0  0  0  0  0  0
    3.2271    2.5097   22.4539 H   0  0  0  0  0  0  0  0  0  0  0  0
    1.9820    3.3327   20.4686 H   0  0  0  0  0  0  0  0  0  0  0  0
    2.6763    2.6428   18.1969 H   0  0  0  0  0  0  0  0  0  0  0  0
    4.2029    1.3813   16.7146 H   0  0  0  0  0  0  0  0  0  0  0  0
    7.3453   -0.8160   18.2330 H   0  0  0  0  0  0  0  0  0  0  0  0
    6.4675   -1.5214   21.6467 C   0  0  0  0  0  0  0  0  0  0  0  0
    7.7145   -1.7992   22.4938 C   0  0  2  0  0  0  0  0  0  0  0  0
    7.4414   -2.5368   23.8081 C   0  0  0  0  0  0  0  0  0  0  0  0
    6.8454   -3.8457   23.6051 N   0  0  0  0  0  0  0  0  0  0  0  0
    5.5196   -4.0765   23.6074 C   0  0  0  0  0  0  0  0  0  0  0  0
    5.1244   -5.3263   23.2758 N   0  0  0  0  0  0  0  0  0  0  0  0
    3.8188   -5.5076   23.3234 C   0  0  0  0  0  0  0  0  0  0  0  0
    2.8916   -4.5992   23.6387 N   0  0  0  0  0  0  0  0  0  0  0  0
    3.4040   -3.4096   23.9406 C   0  0  0  0  0  0  0  0  0  0  0  0
    4.6870   -3.0712   23.9431 N   0  0  0  0  0  0  0  0  0  0  0  0
    2.6964   -2.6296   24.2126 H   0  0  0  0  0  0  0  0  0  0  0  0
    3.4550   -6.5057   23.0804 H   0  0  0  0  0  0  0  0  0  0  0  0
    7.4237   -4.6260   23.3319 H   0  0  0  0  0  0  0  0  0  0  0  0
    6.7454   -1.9645   24.4282 H   0  0  0  0  0  0  0  0  0  0  0  0
    8.3824   -2.6634   24.3601 H   0  0  0  0  0  0  0  0  0  0  0  0
    8.3502   -2.4470   21.8896 H   0  0  0  0  0  0  0  0  0  0  0  0
    5.6243   -1.2117   22.2840 H   0  0  0  0  0  0  0  0  0  0  0  0
    6.1527   -2.3749   21.0445 H   0  0  0  0  0  0  0  0  0  0  0  0
    9.9803   -0.5695   22.5173 C   0  0  0  0  0  0  0  0  0  0  0  0
   10.5510   -1.5056   21.6503 C   0  0  0  0  0  0  0  0  0  0  0  0
   11.9196   -1.5395   21.4722 C   0  0  0  0  0  0  0  0  0  0  0  0
   12.4995   -2.5065   20.1517 Cl  0  0  0  0  0  0  0  0  0  0  0  0
   12.7785   -0.7618   22.2467 C   0  0  0  0  0  0  0  0  0  0  0  0
   12.2213    0.1776   23.0941 C   0  0  0  0  0  0  0  0  0  0  0  0
   10.8312    0.3286   23.1677 C   0  0  0  0  0  0  0  0  0  0  0  0
   10.2710    1.5593   23.8219 C   0  0  0  0  0  0  0  0  0  0  0  0
   10.9900    2.4945   24.1592 O   0  0  0  0  0  0  0  0  0  0  0  0
   12.8597    0.8547   23.6491 H   0  0  0  0  0  0  0  0  0  0  0  0
   13.8541   -0.8452   22.1368 H   0  0  0  0  0  0  0  0  0  0  0  0
    9.9476   -2.2157   21.0978 H   0  0  0  0  0  0  0  0  0  0  0  0
    7.0681    0.6406   23.8578 H   0  0  0  0  0  0  0  0  0  0  0  0
    8.3010   -0.2616   24.7687 H   0  0  0  0  0  0  0  0  0  0  0  0
    7.3397    2.5960   24.8743 H   0  0  0  0  0  0  0  0  0  0  0  0
    8.9376    3.2915   25.1382 H   0  0  0  0  0  0  0  0  0  0  0  0
    9.0071    3.9864   22.7171 H   0  0  0  0  0  0  0  0  0  0  0  0
    7.7691    4.8072   23.6824 H   0  0  0  0  0  0  0  0  0  0  0  0
    6.1737    3.0755   22.8251 H   0  0  0  0  0  0  0  0  0  0  0  0
    7.3810    2.5637   21.7916 H   0  0  0  0  0  0  0  0  0  0  0  0
    6.4667    5.3646   21.7657 H   0  0  0  0  0  0  0  0  0  0  0  0
    5.7012    4.0441   20.8208 H   0  0  0  0  0  0  0  0  0  0  0  0
    7.4013    4.4717   20.5455 H   0  0  0  0  0  0  0  0  0  0  0  0
  1  2  1  0
  2  3  1  0
  3  4  1  0
  4  5  1  0
  5  6  1  0
  7  6  1  1
  7  8  1  0
  8  9  2  0
  8 10  1  0
 10 11  1  0
 11 12  2  0
 12 13  1  0
 13 14  2  0
 14 15  1  0
 15 16  2  0
 16 17  1  0
 17 18  2  0
 18 19  1  0
 19 20  2  0
 19 21  1  0
 18 22  1  0
 17 23  1  0
 16 24  1  0
 14 25  1  0
 12 26  1  0
 10 27  1  0
 27 28  1  0
 28 29  1  0
 29 30  1  0
 30 31  1  0
 31 32  2  0
 32 33  1  0
 33 34  2  0
 34 35  1  0
 35 36  2  0
 35 37  1  0
 33 38  1  0
 30 39  1  0
 29 40  1  0
 29 41  1  0
 28 42  1  6
 27 43  1  0
 27 44  1  0
  7 45  1  0
 45 46  2  0
 46 47  1  0
 47 48  1  0
 47 49  2  0
 49 50  1  0
 50 51  2  0
 51 52  1  0
 52 53  2  0
 50 54  1  0
 49 55  1  0
 46 56  1  0
  6 57  1  0
  6 58  1  0
  4 59  1  0
  4 60  1  0
  3 61  1  0
  3 62  1  0
  2 63  1  0
  2 64  1  0
  1 65  1  0
  1 66  1  0
  1 67  1  0
 52  5  1  0
 28  7  1  0
 36 31  1  0
 51 45  1  0
 20 11  1  0
 20 15  1  0
M  CHG  1   2   1
M  END
>  <cnnaffinities>  (30) 
[6.3816, 6.46243]

>  <score>  (30) 
6.3816

>  <index>  (30) 
29

>  <Smiles>  (30) 
C([N+](C(C(N1C([C@@]2(C(=O)N(c3c(nc(c4c(c(c(c(c34)[H])[H])[H])[H])[H])[H])C([C@@]2(C(N(c2nc(nc(n2)[H])[H])[H])([H])[H])[H])([H])[H])c2c(c(Cl)c(c(c2C1=O)[H])[H])[H])([H])[H])([H])[H])([H])[H])([H])[H])([H])([H])[H]

>  <h>  (30) 
<NA>

>  <Training>  (30) 
True

>  <Success>  (30) 
True

>  <enamine_searched>  (30) 
False

>  <enamine_id>  (30) 
nan

$$$$

     RDKit          3D

 66 71  0  0  0  0  0  0  0  0999 V2000
    6.5065    4.3601   21.3996 C   0  0  0  0  0  0  0  0  0  0  0  0
    7.5174    3.9358   22.3635 N   0  0  0  0  0  0  0  0  0  0  0  0
    7.0990    3.2950   23.4939 C   0  0  0  0  0  0  0  0  0  0  0  0
    5.9135    3.1161   23.7422 O   0  0  0  0  0  0  0  0  0  0  0  0
    8.2028    2.8313   24.4675 C   0  0  0  0  0  0  0  0  0  0  0  0
    8.8698    1.6313   23.9772 N   0  0  0  0  0  0  0  0  0  0  0  0
    8.0687    0.4212   23.8370 C   0  0  0  0  0  0  0  0  0  0  0  0
    8.4504   -0.3986   22.5832 C   0  0  2  0  0  0  0  0  0  0  0  0
    7.9584    0.2940   21.2938 C   0  0  0  0  0  0  0  0  0  0  0  0
    8.4257    1.2784   20.7618 O   0  0  0  0  0  0  0  0  0  0  0  0
    6.8797   -0.4065   20.8151 N   0  0  0  0  0  0  0  0  0  0  0  0
    6.1239    0.1070   19.7405 C   0  0  0  0  0  0  0  0  0  0  0  0
    6.4779   -0.1851   18.4506 C   0  0  0  0  0  0  0  0  0  0  0  0
    5.7953    0.2476   17.3628 N   0  0  0  0  0  0  0  0  0  0  0  0
    4.7471    1.0086   17.5729 C   0  0  0  0  0  0  0  0  0  0  0  0
    4.2832    1.3950   18.8646 C   0  0  0  0  0  0  0  0  0  0  0  0
    3.1598    2.2429   19.0532 C   0  0  0  0  0  0  0  0  0  0  0  0
    2.7656    2.6146   20.3101 C   0  0  0  0  0  0  0  0  0  0  0  0
    3.4736    2.1582   21.4471 C   0  0  0  0  0  0  0  0  0  0  0  0
    4.5619    1.3338   21.2922 C   0  0  0  0  0  0  0  0  0  0  0  0
    4.9919    0.9323   19.9954 C   0  0  0  0  0  0  0  0  0  0  0  0
    5.1292    1.0234   22.1663 H   0  0  0  0  0  0  0  0  0  0  0  0
    3.1829    2.4829   22.4423 H   0  0  0  0  0  0  0  0  0  0  0  0
    1.9157    3.2786   20.4418 H   0  0  0  0  0  0  0  0  0  0  0  0
    2.6453    2.6094   18.1692 H   0  0  0  0  0  0  0  0  0  0  0  0
    4.2028    1.3658   16.6963 H   0  0  0  0  0  0  0  0  0  0  0  0
    7.3550   -0.8003   18.2572 H   0  0  0  0  0  0  0  0  0  0  0  0
    6.4640   -1.5132   21.6447 C   0  0  0  0  0  0  0  0  0  0  0  0
    7.7129   -1.7697   22.4931 C   0  0  2  0  0  0  0  0  0  0  0  0
    7.4560   -2.5654   23.7798 C   0  0  0  0  0  0  0  0  0  0  0  0
    6.9297   -3.9512   23.4651 C   0  0  0  0  0  0  0  0  0  0  0  0
    5.5549   -4.2046   23.4281 C   0  0  0  0  0  0  0  0  0  0  0  0
    5.0648   -5.4685   23.1096 C   0  0  0  0  0  0  0  0  0  0  0  0
    5.9457   -6.4998   22.7920 C   0  0  0  0  0  0  0  0  0  0  0  0
    7.3166   -6.2535   22.7969 C   0  0  0  0  0  0  0  0  0  0  0  0
    7.8017   -4.9914   23.1308 C   0  0  0  0  0  0  0  0  0  0  0  0
    8.8766   -4.8097   23.1290 H   0  0  0  0  0  0  0  0  0  0  0  0
    8.0152   -7.0542   22.5662 H   0  0  0  0  0  0  0  0  0  0  0  0
    5.5675   -7.4916   22.5550 H   0  0  0  0  0  0  0  0  0  0  0  0
    3.9935   -5.6535   23.1190 H   0  0  0  0  0  0  0  0  0  0  0  0
    4.8593   -3.3945   23.6465 H   0  0  0  0  0  0  0  0  0  0  0  0
    6.7378   -2.0284   24.4127 H   0  0  0  0  0  0  0  0  0  0  0  0
    8.3931   -2.6306   24.3499 H   0  0  0  0  0  0  0  0  0  0  0  0
    8.3616   -2.3944   21.8806 H   0  0  0  0  0  0  0  0  0  0  0  0
    5.5840   -1.2534   22.2511 H   0  0  0  0  0  0  0  0  0  0  0  0
    6.1894   -2.3802   21.0348 H   0  0  0  0  0  0  0  0  0  0  0  0
    9.9530   -0.4895   22.4920 C   0  0  0  0  0  0  0  0  0  0  0  0
   10.5156   -1.3852   21.5779 C   0  0  0  0  0  0  0  0  0  0  0  0
   11.8802   -1.4393   21.3981 C   0  0  0  0  0  0  0  0  0  0  0  0
   12.4753   -2.5202   20.1751 Cl  0  0  0  0  0  0  0  0  0  0  0  0
   12.7393   -0.6135   22.1227 C   0  0  0  0  0  0  0  0  0  0  0  0
   12.1833    0.2930   23.0080 C   0  0  0  0  0  0  0  0  0  0  0  0
   10.7982    0.4109   23.1492 C   0  0  0  0  0  0  0  0  0  0  0  0
   10.2417    1.5763   23.9320 C   0  0  0  0  0  0  0  0  0  0  0  0
   10.9535    2.4302   24.4419 O   0  0  0  0  0  0  0  0  0  0  0  0
   12.8095    0.9460   23.6024 H   0  0  0  0  0  0  0  0  0  0  0  0
   13.8110   -0.6580   21.9562 H   0  0  0  0  0  0  0  0  0  0  0  0
    9.9065   -2.0203   20.9443 H   0  0  0  0  0  0  0  0  0  0  0  0
    8.1856   -0.2009   24.7340 H   0  0  0  0  0  0  0  0  0  0  0  0
    7.0210    0.7234   23.7889 H   0  0  0  0  0  0  0  0  0  0  0  0
    8.9870    3.5890   24.6084 H   0  0  0  0  0  0  0  0  0  0  0  0
    7.7242    2.6455   25.4432 H   0  0  0  0  0  0  0  0  0  0  0  0
    8.4242    3.6620   22.0058 H   0  0  0  0  0  0  0  0  0  0  0  0
    5.7017    4.8814   21.9306 H   0  0  0  0  0  0  0  0  0  0  0  0
    6.0643    3.5051   20.8659 H   0  0  0  0  0  0  0  0  0  0  0  0
    6.9377    5.0467   20.6712 H   0  0  0  0  0  0  0  0  0  0  0  0
  1  2  1  0
  2  3  1  0
  3  4  2  0
  3  5  1  0
  5  6  1  0
  6  7  1  0
  8  7  1  1
  8  9  1  0
  9 10  2  0
  9 11  1  0
 11 12  1  0
 12 13  2  0
 13 14  1  0
 14 15  2  0
 15 16  1  0
 16 17  2  0
 17 18  1  0
 18 19  2  0
 19 20  1  0
 20 21  2  0
 20 22  1  0
 19 23  1  0
 18 24  1  0
 17 25  1  0
 15 26  1  0
 13 27  1  0
 11 28  1  0
 28 29  1  0
 29 30  1  0
 30 31  1  0
 31 32  2  0
 32 33  1  0
 33 34  2  0
 34 35  1  0
 35 36  2  0
 36 37  1  0
 35 38  1  0
 34 39  1  0
 33 40  1  0
 32 41  1  0
 30 42  1  0
 30 43  1  0
 29 44  1  6
 28 45  1  0
 28 46  1  0
  8 47  1  0
 47 48  2  0
 48 49  1  0
 49 50  1  0
 49 51  2  0
 51 52  1  0
 52 53  2  0
 53 54  1  0
 54 55  2  0
 52 56  1  0
 51 57  1  0
 48 58  1  0
  7 59  1  0
  7 60  1  0
  5 61  1  0
  5 62  1  0
  2 63  1  0
  1 64  1  0
  1 65  1  0
  1 66  1  0
 54  6  1  0
 29  8  1  0
 36 31  1  0
 53 47  1  0
 21 12  1  0
 21 16  1  0
M  END
>  <cnnaffinities>  (31) 
[6.613, 6.59546]

>  <score>  (31) 
6.613

>  <index>  (31) 
30

>  <Smiles>  (31) 
C(N(C(=O)C(N1C([C@@]2(C(=O)N(c3c(nc(c4c(c(c(c(c34)[H])[H])[H])[H])[H])[H])C([C@@]2(C(c2c(c(c(c(c2[H])[H])[H])[H])[H])([H])[H])[H])([H])[H])c2c(c(Cl)c(c(c2C1=O)[H])[H])[H])([H])[H])([H])[H])[H])([H])([H])[H]

>  <h>  (31) 
<NA>

>  <Training>  (31) 
True

>  <Success>  (31) 
True

>  <enamine_searched>  (31) 
False

>  <enamine_id>  (31) 
nan

$$$$

     RDKit          3D

 64 70  0  0  0  0  0  0  0  0999 V2000
    9.2453    2.3928   25.7453 O   0  0  0  0  0  0  0  0  0  0  0  0
    8.9401    1.5204   24.9469 C   0  0  0  0  0  0  0  0  0  0  0  0
    9.9697    0.7948   24.1290 C   0  0  0  0  0  0  0  0  0  0  0  0
   11.2932    1.1299   24.3971 C   0  0  0  0  0  0  0  0  0  0  0  0
   12.2926    0.7559   23.5340 C   0  0  0  0  0  0  0  0  0  0  0  0
   11.9447    0.0205   22.4050 C   0  0  0  0  0  0  0  0  0  0  0  0
   13.2048   -0.1949   21.2534 Cl  0  0  0  0  0  0  0  0  0  0  0  0
   10.6575   -0.4394   22.1796 C   0  0  0  0  0  0  0  0  0  0  0  0
    9.6337   -0.0647   23.0711 C   0  0  0  0  0  0  0  0  0  0  0  0
    8.1826   -0.4190   22.8108 C   0  0  1  0  0  0  0  0  0  0  0  0
    7.3504   -0.1174   24.0978 C   0  0  0  0  0  0  0  0  0  0  0  0
    7.6408    1.1867   24.6710 N   0  0  0  0  0  0  0  0  0  0  0  0
    6.6261    2.1301   25.0825 C   0  0  0  0  0  0  0  0  0  0  0  0
    6.4015    3.2205   24.0790 C   0  0  0  0  0  0  0  0  0  0  0  0
    5.2930    3.8325   23.8183 N   0  0  0  0  0  0  0  0  0  0  0  0
    5.5984    4.7946   22.8561 N   0  0  0  0  0  0  0  0  0  0  0  0
    6.8601    4.6802   22.6318 C   0  0  0  0  0  0  0  0  0  0  0  0
    7.4393    3.7133   23.3763 O   0  0  0  0  0  0  0  0  0  0  0  0
    7.4866    5.2521   21.9588 H   0  0  0  0  0  0  0  0  0  0  0  0
    6.9687    2.5800   26.0211 H   0  0  0  0  0  0  0  0  0  0  0  0
    5.6733    1.6309   25.2585 H   0  0  0  0  0  0  0  0  0  0  0  0
    6.2824   -0.1841   23.8737 H   0  0  0  0  0  0  0  0  0  0  0  0
    7.5720   -0.8831   24.8522 H   0  0  0  0  0  0  0  0  0  0  0  0
    7.6585    0.4112   21.6193 C   0  0  0  0  0  0  0  0  0  0  0  0
    7.8860    1.5723   21.3784 O   0  0  0  0  0  0  0  0  0  0  0  0
    6.8673   -0.4093   20.8459 N   0  0  0  0  0  0  0  0  0  0  0  0
    6.1119    0.0965   19.7683 C   0  0  0  0  0  0  0  0  0  0  0  0
    6.4395   -0.2403   18.4804 C   0  0  0  0  0  0  0  0  0  0  0  0
    5.7811    0.2072   17.3840 N   0  0  0  0  0  0  0  0  0  0  0  0
    4.7582    1.0048   17.5819 C   0  0  0  0  0  0  0  0  0  0  0  0
    4.2908    1.3970   18.8683 C   0  0  0  0  0  0  0  0  0  0  0  0
    3.1554    2.2343   19.0335 C   0  0  0  0  0  0  0  0  0  0  0  0
    2.7135    2.5746   20.2807 C   0  0  0  0  0  0  0  0  0  0  0  0
    3.3887    2.0970   21.4305 C   0  0  0  0  0  0  0  0  0  0  0  0
    4.4962    1.2976   21.3001 C   0  0  0  0  0  0  0  0  0  0  0  0
    4.9794    0.9338   20.0096 C   0  0  0  0  0  0  0  0  0  0  0  0
    5.0068    0.9224   22.1856 H   0  0  0  0  0  0  0  0  0  0  0  0
    3.0319    2.3716   22.4194 H   0  0  0  0  0  0  0  0  0  0  0  0
    1.8462    3.2204   20.3977 H   0  0  0  0  0  0  0  0  0  0  0  0
    2.6608    2.6030   18.1385 H   0  0  0  0  0  0  0  0  0  0  0  0
    4.2340    1.3755   16.6999 H   0  0  0  0  0  0  0  0  0  0  0  0
    7.2904   -0.8944   18.2894 H   0  0  0  0  0  0  0  0  0  0  0  0
    6.7470   -1.7617   21.3390 C   0  0  0  0  0  0  0  0  0  0  0  0
    7.9388   -1.8658   22.2958 C   0  0  2  0  0  0  0  0  0  0  0  0
    7.8138   -2.9373   23.3851 C   0  0  0  0  0  0  0  0  0  0  0  0
    7.8737   -4.3001   22.9038 N   0  0  0  0  0  0  0  0  0  0  0  0
    6.8323   -4.9779   22.3513 C   0  0  0  0  0  0  0  0  0  0  0  0
    5.4846   -4.6425   22.6069 C   0  0  0  0  0  0  0  0  0  0  0  0
    4.5468   -5.4718   22.0340 C   0  0  0  0  0  0  0  0  0  0  0  0
    4.8596   -6.4859   21.2225 N   0  0  0  0  0  0  0  0  0  0  0  0
    6.1515   -6.6634   21.0041 C   0  0  0  0  0  0  0  0  0  0  0  0
    7.1656   -6.0082   21.5527 N   0  0  0  0  0  0  0  0  0  0  0  0
    6.3883   -7.4148   20.2562 H   0  0  0  0  0  0  0  0  0  0  0  0
    3.4804   -5.3297   22.2065 H   0  0  0  0  0  0  0  0  0  0  0  0
    5.1851   -3.7978   23.2255 H   0  0  0  0  0  0  0  0  0  0  0  0
    8.7687   -4.6045   22.5487 H   0  0  0  0  0  0  0  0  0  0  0  0
    8.6397   -2.8025   24.0940 H   0  0  0  0  0  0  0  0  0  0  0  0
    6.8783   -2.7972   23.9360 H   0  0  0  0  0  0  0  0  0  0  0  0
    8.8070   -2.1156   21.6825 H   0  0  0  0  0  0  0  0  0  0  0  0
    6.7862   -2.4690   20.5116 H   0  0  0  0  0  0  0  0  0  0  0  0
    5.7852   -1.9137   21.8491 H   0  0  0  0  0  0  0  0  0  0  0  0
   10.4806   -1.0579   21.3020 H   0  0  0  0  0  0  0  0  0  0  0  0
   13.3266    1.0621   23.6660 H   0  0  0  0  0  0  0  0  0  0  0  0
   11.4847    1.7334   25.2721 H   0  0  0  0  0  0  0  0  0  0  0  0
  1  2  2  0
  2  3  1  0
  3  4  2  0
  4  5  1  0
  5  6  2  0
  6  7  1  0
  6  8  1  0
  8  9  2  0
  9 10  1  0
 10 11  1  1
 11 12  1  0
 12 13  1  0
 13 14  1  0
 14 15  2  0
 15 16  1  0
 16 17  2  0
 17 18  1  0
 17 19  1  0
 13 20  1  0
 13 21  1  0
 11 22  1  0
 11 23  1  0
 10 24  1  0
 24 25  2  0
 24 26  1  0
 26 27  1  0
 27 28  2  0
 28 29  1  0
 29 30  2  0
 30 31  1  0
 31 32  2  0
 32 33  1  0
 33 34  2  0
 34 35  1  0
 35 36  2  0
 35 37  1  0
 34 38  1  0
 33 39  1  0
 32 40  1  0
 30 41  1  0
 28 42  1  0
 26 43  1  0
 43 44  1  0
 44 45  1  0
 45 46  1  0
 46 47  1  0
 47 48  2  0
 48 49  1  0
 49 50  2  0
 50 51  1  0
 51 52  2  0
 51 53  1  0
 49 54  1  0
 48 55  1  0
 46 56  1  0
 45 57  1  0
 45 58  1  0
 44 59  1  6
 43 60  1  0
 43 61  1  0
  8 62  1  0
  5 63  1  0
  4 64  1  0
 12  2  1  0
 18 14  1  0
 36 27  1  0
 52 47  1  0
  9  3  1  0
 44 10  1  0
 36 31  1  0
M  END
>  <cnnaffinities>  (32) 
[6.07841, 6.34734]

>  <score>  (32) 
6.07841

>  <index>  (32) 
31

>  <Smiles>  (32) 
O=C1c2c(c(c(Cl)c(c2[C@@]2(C(N1C(c1nnc(o1)[H])([H])[H])([H])[H])C(=O)N(c1c(nc(c3c(c(c(c(c13)[H])[H])[H])[H])[H])[H])C([C@@]2(C(N(c1c(c(nc(n1)[H])[H])[H])[H])([H])[H])[H])([H])[H])[H])[H])[H]

>  <h>  (32) 
<NA>

>  <Training>  (32) 
True

>  <Success>  (32) 
True

>  <enamine_searched>  (32) 
False

>  <enamine_id>  (32) 
nan

$$$$

     RDKit          3D

 72 77  0  0  0  0  0  0  0  0999 V2000
    7.6489   -2.9442   23.4244 C   0  0  0  0  0  0  0  0  0  0  0  0
    7.9503   -1.8894   22.3521 C   0  0  1  0  0  0  0  0  0  0  0  0
    6.8343   -1.7733   21.2963 C   0  0  0  0  0  0  0  0  0  0  0  0
    6.9266   -0.4051   20.8307 N   0  0  0  0  0  0  0  0  0  0  0  0
    6.1432    0.1118   19.7690 C   0  0  0  0  0  0  0  0  0  0  0  0
    6.4446   -0.2220   18.4741 C   0  0  0  0  0  0  0  0  0  0  0  0
    5.7674    0.2246   17.3889 N   0  0  0  0  0  0  0  0  0  0  0  0
    4.7476    1.0209   17.6007 C   0  0  0  0  0  0  0  0  0  0  0  0
    4.2969    1.4157   18.8916 C   0  0  0  0  0  0  0  0  0  0  0  0
    3.1636    2.2554   19.0665 C   0  0  0  0  0  0  0  0  0  0  0  0
    2.7366    2.5997   20.3190 C   0  0  0  0  0  0  0  0  0  0  0  0
    3.4192    2.1127   21.4563 C   0  0  0  0  0  0  0  0  0  0  0  0
    4.5207    1.3040   21.3144 C   0  0  0  0  0  0  0  0  0  0  0  0
    5.0056    0.9456   20.0226 C   0  0  0  0  0  0  0  0  0  0  0  0
    5.0284    0.9246   22.1954 H   0  0  0  0  0  0  0  0  0  0  0  0
    3.0767    2.3879   22.4509 H   0  0  0  0  0  0  0  0  0  0  0  0
    1.8710    3.2475   20.4385 H   0  0  0  0  0  0  0  0  0  0  0  0
    2.6625    2.6309   18.1782 H   0  0  0  0  0  0  0  0  0  0  0  0
    4.2209    1.3864   16.7182 H   0  0  0  0  0  0  0  0  0  0  0  0
    7.2871   -0.8788   18.2620 H   0  0  0  0  0  0  0  0  0  0  0  0
    7.6661    0.4144   21.6482 C   0  0  0  0  0  0  0  0  0  0  0  0
    7.8604    1.5931   21.4359 O   0  0  0  0  0  0  0  0  0  0  0  0
    8.1807   -0.4234   22.8459 C   0  0  1  0  0  0  0  0  0  0  0  0
    7.3578   -0.1085   24.1176 C   0  0  0  0  0  0  0  0  0  0  0  0
    7.6032    1.2308   24.6137 N   0  0  0  0  0  0  0  0  0  0  0  0
    6.5163    2.1047   25.0021 C   0  0  0  0  0  0  0  0  0  0  0  0
    6.3906    3.3037   24.0599 C   0  0  0  0  0  0  0  0  0  0  0  0
    5.1654    4.1316   24.3244 N   0  0  1  0  0  4  0  0  0  0  0  0
    5.2281    4.8875   25.6345 C   0  0  0  0  0  0  0  0  0  0  0  0
    4.0104    5.7848   25.7941 C   0  0  0  0  0  0  0  0  0  0  0  0
    3.8771    6.6964   24.7225 O   0  0  0  0  0  0  0  0  0  0  0  0
    3.7600    6.0709   23.4402 C   0  0  0  0  0  0  0  0  0  0  0  0
    2.4200    5.3480   23.3012 C   0  0  0  0  0  0  0  0  0  0  0  0
    1.6055    6.0367   23.5487 H   0  0  0  0  0  0  0  0  0  0  0  0
    2.3540    4.4639   23.9467 H   0  0  0  0  0  0  0  0  0  0  0  0
    2.2900    5.0113   22.2653 H   0  0  0  0  0  0  0  0  0  0  0  0
    3.8395    7.2029   22.4241 C   0  0  0  0  0  0  0  0  0  0  0  0
    2.9994    7.8910   22.5568 H   0  0  0  0  0  0  0  0  0  0  0  0
    3.8036    6.7991   21.4051 H   0  0  0  0  0  0  0  0  0  0  0  0
    4.7723    7.7624   22.5468 H   0  0  0  0  0  0  0  0  0  0  0  0
    4.9406    5.1178   23.2075 C   0  0  0  0  0  0  0  0  0  0  0  0
    5.8513    5.7172   23.0977 H   0  0  0  0  0  0  0  0  0  0  0  0
    4.7846    4.5612   22.2760 H   0  0  0  0  0  0  0  0  0  0  0  0
    3.1109    5.1621   25.9031 H   0  0  0  0  0  0  0  0  0  0  0  0
    4.1043    6.4050   26.6904 H   0  0  0  0  0  0  0  0  0  0  0  0
    6.1338    5.5033   25.6294 H   0  0  0  0  0  0  0  0  0  0  0  0
    5.2878    4.1775   26.4625 H   0  0  0  0  0  0  0  0  0  0  0  0
    4.3597    3.4717   24.3419 H   0  0  0  0  0  0  0  0  0  0  0  0
    7.2749    3.9431   24.1715 H   0  0  0  0  0  0  0  0  0  0  0  0
    6.3486    2.9548   23.0209 H   0  0  0  0  0  0  0  0  0  0  0  0
    6.6975    2.4271   26.0312 H   0  0  0  0  0  0  0  0  0  0  0  0
    5.6033    1.5063   24.9664 H   0  0  0  0  0  0  0  0  0  0  0  0
    8.8731    1.6520   24.8555 C   0  0  0  0  0  0  0  0  0  0  0  0
    9.1414    2.6006   25.5854 O   0  0  0  0  0  0  0  0  0  0  0  0
    9.9286    0.9002   24.1187 C   0  0  0  0  0  0  0  0  0  0  0  0
   11.2382    1.2660   24.3939 C   0  0  0  0  0  0  0  0  0  0  0  0
   12.2610    0.7365   23.6483 C   0  0  0  0  0  0  0  0  0  0  0  0
   11.9317   -0.1214   22.6086 C   0  0  0  0  0  0  0  0  0  0  0  0
   13.2089   -0.6211   21.5946 Cl  0  0  0  0  0  0  0  0  0  0  0  0
   10.6459   -0.5273   22.3354 C   0  0  0  0  0  0  0  0  0  0  0  0
    9.6132   -0.0507   23.1396 C   0  0  0  0  0  0  0  0  0  0  0  0
   10.4750   -1.1722   21.4798 H   0  0  0  0  0  0  0  0  0  0  0  0
   13.3045    0.9821   23.7831 H   0  0  0  0  0  0  0  0  0  0  0  0
   11.3640    1.9979   25.1754 H   0  0  0  0  0  0  0  0  0  0  0  0
    6.2946   -0.1852   23.8770 H   0  0  0  0  0  0  0  0  0  0  0  0
    7.6212   -0.8545   24.8865 H   0  0  0  0  0  0  0  0  0  0  0  0
    5.8501   -1.9932   21.7385 H   0  0  0  0  0  0  0  0  0  0  0  0
    6.9682   -2.4484   20.4522 H   0  0  0  0  0  0  0  0  0  0  0  0
    8.8693   -2.1851   21.8388 H   0  0  0  0  0  0  0  0  0  0  0  0
    8.4215   -2.9787   24.2026 H   0  0  0  0  0  0  0  0  0  0  0  0
    7.5774   -3.9466   22.9854 H   0  0  0  0  0  0  0  0  0  0  0  0
    6.6927   -2.7384   23.9210 H   0  0  0  0  0  0  0  0  0  0  0  0
  1  2  1  0
  2  3  1  0
  3  4  1  0
  4  5  1  0
  5  6  2  0
  6  7  1  0
  7  8  2  0
  8  9  1  0
  9 10  2  0
 10 11  1  0
 11 12  2  0
 12 13  1  0
 13 14  2  0
 13 15  1  0
 12 16  1  0
 11 17  1  0
 10 18  1  0
  8 19  1  0
  6 20  1  0
  4 21  1  0
 21 22  2  0
 21 23  1  0
 23 24  1  1
 24 25  1  0
 25 26  1  0
 26 27  1  0
 27 28  1  0
 28 29  1  0
 29 30  1  0
 30 31  1  0
 31 32  1  0
 32 33  1  0
 33 34  1  0
 33 35  1  0
 33 36  1  0
 32 37  1  0
 37 38  1  0
 37 39  1  0
 37 40  1  0
 32 41  1  0
 41 42  1  0
 41 43  1  0
 30 44  1  0
 30 45  1  0
 29 46  1  0
 29 47  1  0
 28 48  1  1
 27 49  1  0
 27 50  1  0
 26 51  1  0
 26 52  1  0
 25 53  1  0
 53 54  2  0
 53 55  1  0
 55 56  2  0
 56 57  1  0
 57 58  2  0
 58 59  1  0
 58 60  1  0
 60 61  2  0
 60 62  1  0
 57 63  1  0
 56 64  1  0
 24 65  1  0
 24 66  1  0
  3 67  1  0
  3 68  1  0
  2 69  1  6
  1 70  1  0
  1 71  1  0
  1 72  1  0
 23  2  1  0
 41 28  1  0
 61 55  1  0
 14  5  1  0
 61 23  1  0
 14  9  1  0
M  CHG  1  28   1
M  END
>  <cnnaffinities>  (33) 
[6.13244, 5.92165, 6.26509]

>  <score>  (33) 
6.13244

>  <index>  (33) 
32

>  <Smiles>  (33) 
C([C@]1(C(N(c2c(nc(c3c(c(c(c(c23)[H])[H])[H])[H])[H])[H])C(=O)[C@]21C(N(C(C([N@+]1(C(C(OC(C([H])([H])[H])(C([H])([H])[H])C1([H])[H])([H])[H])([H])[H])[H])([H])[H])([H])[H])C(=O)c1c(c(c(Cl)c(c21)[H])[H])[H])([H])[H])([H])[H])[H])([H])([H])[H]

>  <h>  (33) 
<NA>

>  <Training>  (33) 
True

>  <Success>  (33) 
True

>  <enamine_searched>  (33) 
False

>  <enamine_id>  (33) 
nan

$$$$

     RDKit          3D

 44 47  0  0  0  0  0  0  0  0999 V2000
    8.5129    1.3931   20.7374 O   0  0  0  0  0  0  0  0  0  0  0  0
    7.8666    0.6939   21.5001 C   0  0  0  0  0  0  0  0  0  0  0  0
    6.9518   -0.4143   20.9230 C   0  0  0  0  0  0  0  0  0  0  0  0
    6.1119    0.0911   19.7692 C   0  0  0  0  0  0  0  0  0  0  0  0
    6.4276   -0.2058   18.4684 C   0  0  0  0  0  0  0  0  0  0  0  0
    5.7605    0.2425   17.3683 N   0  0  0  0  0  0  0  0  0  0  0  0
    4.7346    1.0298   17.5784 C   0  0  0  0  0  0  0  0  0  0  0  0
    4.2845    1.4208   18.8682 C   0  0  0  0  0  0  0  0  0  0  0  0
    3.1688    2.2778   19.0484 C   0  0  0  0  0  0  0  0  0  0  0  0
    2.7644    2.6496   20.3003 C   0  0  0  0  0  0  0  0  0  0  0  0
    3.4650    2.1698   21.4305 C   0  0  0  0  0  0  0  0  0  0  0  0
    4.5453    1.3353   21.2905 C   0  0  0  0  0  0  0  0  0  0  0  0
    4.9882    0.9389   20.0007 C   0  0  0  0  0  0  0  0  0  0  0  0
    5.0701    0.9833   22.1771 H   0  0  0  0  0  0  0  0  0  0  0  0
    3.1342    2.4709   22.4204 H   0  0  0  0  0  0  0  0  0  0  0  0
    1.9137    3.3152   20.4314 H   0  0  0  0  0  0  0  0  0  0  0  0
    2.6549    2.6511   18.1651 H   0  0  0  0  0  0  0  0  0  0  0  0
    4.2007    1.3985   16.6988 H   0  0  0  0  0  0  0  0  0  0  0  0
    7.2751   -0.8544   18.2445 H   0  0  0  0  0  0  0  0  0  0  0  0
    7.6171   -1.1979   20.5377 H   0  0  0  0  0  0  0  0  0  0  0  0
    6.3239   -0.8881   21.6869 H   0  0  0  0  0  0  0  0  0  0  0  0
    7.9389    0.8593   22.8628 N   0  0  0  0  0  0  0  0  0  0  0  0
    7.4846   -0.0778   23.8821 C   0  0  0  0  0  0  0  0  0  0  0  0
    7.8300    0.5794   25.2262 C   0  0  0  0  0  0  0  0  0  0  0  0
    8.7642    1.7539   24.9062 C   0  0  0  0  0  0  0  0  0  0  0  0
    8.5947    2.0494   23.4077 C   0  0  2  0  0  0  0  0  0  0  0  0
    7.7992    3.3154   23.1430 C   0  0  0  0  0  0  0  0  0  0  0  0
    8.3963    4.4121   22.5248 C   0  0  0  0  0  0  0  0  0  0  0  0
    7.6660    5.5695   22.2702 C   0  0  0  0  0  0  0  0  0  0  0  0
    6.3291    5.6581   22.6342 C   0  0  0  0  0  0  0  0  0  0  0  0
    5.7638    4.5617   23.2652 C   0  0  0  0  0  0  0  0  0  0  0  0
    4.4644    4.6174   23.6172 F   0  0  0  0  0  0  0  0  0  0  0  0
    6.4665    3.3993   23.5343 C   0  0  0  0  0  0  0  0  0  0  0  0
    5.9559    2.5751   24.0291 H   0  0  0  0  0  0  0  0  0  0  0  0
    5.7334    6.5443   22.4328 H   0  0  0  0  0  0  0  0  0  0  0  0
    8.1398    6.4042   21.7653 H   0  0  0  0  0  0  0  0  0  0  0  0
    9.4403    4.3563   22.2259 H   0  0  0  0  0  0  0  0  0  0  0  0
    9.5694    2.1687   22.9325 H   0  0  0  0  0  0  0  0  0  0  0  0
    8.5339    2.6305   25.5173 H   0  0  0  0  0  0  0  0  0  0  0  0
    9.8025    1.4984   25.1342 H   0  0  0  0  0  0  0  0  0  0  0  0
    8.3023   -0.1304   25.9071 H   0  0  0  0  0  0  0  0  0  0  0  0
    6.9257    0.9282   25.7316 H   0  0  0  0  0  0  0  0  0  0  0  0
    7.9989   -1.0361   23.7583 H   0  0  0  0  0  0  0  0  0  0  0  0
    6.4076   -0.2704   23.8083 H   0  0  0  0  0  0  0  0  0  0  0  0
  1  2  2  0
  2  3  1  0
  3  4  1  0
  4  5  2  0
  5  6  1  0
  6  7  2  0
  7  8  1  0
  8  9  2  0
  9 10  1  0
 10 11  2  0
 11 12  1  0
 12 13  2  0
 12 14  1  0
 11 15  1  0
 10 16  1  0
  9 17  1  0
  7 18  1  0
  5 19  1  0
  3 20  1  0
  3 21  1  0
  2 22  1  0
 22 23  1  0
 23 24  1  0
 24 25  1  0
 25 26  1  0
 26 27  1  0
 27 28  2  0
 28 29  1  0
 29 30  2  0
 30 31  1  0
 31 32  1  0
 31 33  2  0
 33 34  1  0
 30 35  1  0
 29 36  1  0
 28 37  1  0
 26 38  1  6
 25 39  1  0
 25 40  1  0
 24 41  1  0
 24 42  1  0
 23 43  1  0
 23 44  1  0
 13  4  1  0
 26 22  1  0
 33 27  1  0
 13  8  1  0
M  END
>  <cnnaffinities>  (34) 
[5.09679, 5.51531, 5.41942, 5.45294, 5.48288]

>  <score>  (34) 
5.09679

>  <index>  (34) 
33

>  <Smiles>  (34) 
O=C(C(c1c(nc(c2c(c(c(c(c12)[H])[H])[H])[H])[H])[H])([H])[H])N1C(C(C([C@@]1(c1c(c(c(c(F)c1[H])[H])[H])[H])[H])([H])[H])([H])[H])([H])[H]

>  <h>  (34) 
<NA>

>  <Training>  (34) 
True

>  <Success>  (34) 
True

>  <enamine_searched>  (34) 
False

>  <enamine_id>  (34) 
nan

$$$$

     RDKit          3D

 58 63  0  0  0  0  0  0  0  0999 V2000
    6.7007   -2.3089   23.6165 C   0  0  0  0  0  0  0  0  0  0  0  0
    7.7105   -1.8423   22.5512 C   0  0  1  0  0  0  0  0  0  0  0  0
    7.0430   -1.8012   21.1531 C   0  0  0  0  0  0  0  0  0  0  0  0
    6.8836   -0.3942   20.8656 N   0  0  0  0  0  0  0  0  0  0  0  0
    6.1291    0.1055   19.7744 C   0  0  0  0  0  0  0  0  0  0  0  0
    6.4431   -0.2260   18.4807 C   0  0  0  0  0  0  0  0  0  0  0  0
    5.7717    0.2235   17.3911 N   0  0  0  0  0  0  0  0  0  0  0  0
    4.7507    1.0211   17.5958 C   0  0  0  0  0  0  0  0  0  0  0  0
    4.2955    1.4234   18.8822 C   0  0  0  0  0  0  0  0  0  0  0  0
    3.1627    2.2641   19.0622 C   0  0  0  0  0  0  0  0  0  0  0  0
    2.7356    2.6060   20.3157 C   0  0  0  0  0  0  0  0  0  0  0  0
    3.4185    2.1169   21.4523 C   0  0  0  0  0  0  0  0  0  0  0  0
    4.5162    1.3087   21.3036 C   0  0  0  0  0  0  0  0  0  0  0  0
    4.9990    0.9509   20.0145 C   0  0  0  0  0  0  0  0  0  0  0  0
    5.0210    0.9213   22.1822 H   0  0  0  0  0  0  0  0  0  0  0  0
    3.0803    2.3902   22.4488 H   0  0  0  0  0  0  0  0  0  0  0  0
    1.8747    3.2562   20.4433 H   0  0  0  0  0  0  0  0  0  0  0  0
    2.6555    2.6357   18.1764 H   0  0  0  0  0  0  0  0  0  0  0  0
    4.2240    1.3844   16.7132 H   0  0  0  0  0  0  0  0  0  0  0  0
    7.2896   -0.8754   18.2610 H   0  0  0  0  0  0  0  0  0  0  0  0
    7.6820    0.4272   21.6305 C   0  0  0  0  0  0  0  0  0  0  0  0
    7.8589    1.6017   21.4071 O   0  0  0  0  0  0  0  0  0  0  0  0
    8.3348   -0.4176   22.7591 C   0  0  1  0  0  0  0  0  0  0  0  0
    8.0363    0.1655   24.1624 C   0  0  0  0  0  0  0  0  0  0  0  0
    8.7073    1.4288   24.4020 N   0  0  0  0  0  0  0  0  0  0  0  0
    7.9579    2.5647   24.9418 C   0  0  0  0  0  0  0  0  0  0  0  0
    7.5771    3.5948   23.9071 C   0  0  0  0  0  0  0  0  0  0  0  0
    8.3690    4.6219   23.3803 C   0  0  0  0  0  0  0  0  0  0  0  0
    7.6934    5.2379   22.4169 N   0  0  0  0  0  0  0  0  0  0  0  0
    6.5390    4.6061   22.3901 N   0  0  0  0  0  0  0  0  0  0  0  0
    5.5367    4.8827   21.3752 C   0  0  0  0  0  0  0  0  0  0  0  0
    4.5617    4.8479   21.8648 H   0  0  0  0  0  0  0  0  0  0  0  0
    5.7424    5.8820   20.9787 H   0  0  0  0  0  0  0  0  0  0  0  0
    5.5668    4.1240   20.5800 H   0  0  0  0  0  0  0  0  0  0  0  0
    6.3966    3.6287   23.2781 N   0  0  0  0  0  0  0  0  0  0  0  0
    9.3715    4.9211   23.6570 H   0  0  0  0  0  0  0  0  0  0  0  0
    8.5861    3.0317   25.7056 H   0  0  0  0  0  0  0  0  0  0  0  0
    7.0502    2.1805   25.4192 H   0  0  0  0  0  0  0  0  0  0  0  0
   10.0405    1.5945   24.1381 C   0  0  0  0  0  0  0  0  0  0  0  0
   10.6821    2.5335   24.5961 O   0  0  0  0  0  0  0  0  0  0  0  0
   10.6452    0.5743   23.2148 C   0  0  0  0  0  0  0  0  0  0  0  0
   12.0175    0.6390   22.9624 C   0  0  0  0  0  0  0  0  0  0  0  0
   12.6097   -0.2141   22.0503 C   0  0  0  0  0  0  0  0  0  0  0  0
   11.7944   -1.1158   21.3784 C   0  0  0  0  0  0  0  0  0  0  0  0
   12.3334   -1.9285   20.4570 F   0  0  0  0  0  0  0  0  0  0  0  0
   10.4371   -1.1956   21.5972 C   0  0  0  0  0  0  0  0  0  0  0  0
    9.8450   -0.3726   22.5589 C   0  0  0  0  0  0  0  0  0  0  0  0
    9.8787   -1.8896   20.9779 H   0  0  0  0  0  0  0  0  0  0  0  0
   13.6690   -0.1862   21.8209 H   0  0  0  0  0  0  0  0  0  0  0  0
   12.5955    1.3878   23.4926 H   0  0  0  0  0  0  0  0  0  0  0  0
    8.3394   -0.5778   24.9177 H   0  0  0  0  0  0  0  0  0  0  0  0
    6.9655    0.3546   24.2507 H   0  0  0  0  0  0  0  0  0  0  0  0
    6.0622   -2.2925   21.1477 H   0  0  0  0  0  0  0  0  0  0  0  0
    7.6717   -2.2848   20.3959 H   0  0  0  0  0  0  0  0  0  0  0  0
    8.5226   -2.5786   22.5547 H   0  0  0  0  0  0  0  0  0  0  0  0
    5.8385   -1.6349   23.6890 H   0  0  0  0  0  0  0  0  0  0  0  0
    6.3212   -3.3059   23.3613 H   0  0  0  0  0  0  0  0  0  0  0  0
    7.1582   -2.3830   24.6079 H   0  0  0  0  0  0  0  0  0  0  0  0
  1  2  1  0
  2  3  1  0
  3  4  1  0
  4  5  1  0
  5  6  2  0
  6  7  1  0
  7  8  2  0
  8  9  1  0
  9 10  2  0
 10 11  1  0
 11 12  2  0
 12 13  1  0
 13 14  2  0
 13 15  1  0
 12 16  1  0
 11 17  1  0
 10 18  1  0
  8 19  1  0
  6 20  1  0
  4 21  1  0
 21 22  2  0
 21 23  1  0
 23 24  1  1
 24 25  1  0
 25 26  1  0
 26 27  1  0
 27 28  1  0
 28 29  2  0
 29 30  1  0
 30 31  1  0
 31 32  1  0
 31 33  1  0
 31 34  1  0
 30 35  1  0
 28 36  1  0
 26 37  1  0
 26 38  1  0
 25 39  1  0
 39 40  2  0
 39 41  1  0
 41 42  2  0
 42 43  1  0
 43 44  2  0
 44 45  1  0
 44 46  1  0
 46 47  2  0
 46 48  1  0
 43 49  1  0
 42 50  1  0
 24 51  1  0
 24 52  1  0
  3 53  1  0
  3 54  1  0
  2 55  1  6
  1 56  1  0
  1 57  1  0
  1 58  1  0
 23  2  1  0
 35 27  2  0
 47 41  1  0
 14  5  1  0
 47 23  1  0
 14  9  1  0
M  END
>  <cnnaffinities>  (35) 
[6.27187, 6.37062]

>  <score>  (35) 
6.27187

>  <index>  (35) 
34

>  <Smiles>  (35) 
C([C@]1(C(N(c2c(nc(c3c(c(c(c(c23)[H])[H])[H])[H])[H])[H])C(=O)[C@]21C(N(C(c1c(nn(C([H])([H])[H])n1)[H])([H])[H])C(=O)c1c(c(c(F)c(c21)[H])[H])[H])([H])[H])([H])[H])[H])([H])([H])[H]

>  <h>  (35) 
<NA>

>  <Training>  (35) 
True

>  <Success>  (35) 
True

>  <enamine_searched>  (35) 
False

>  <enamine_id>  (35) 
nan

$$$$

     RDKit          3D

 51 54  0  0  0  0  0  0  0  0999 V2000
   13.7070    0.1912   22.2133 N   0  0  0  0  0  0  0  0  0  0  0  0
   13.1645   -0.6160   22.8382 C   0  0  0  0  0  0  0  0  0  0  0  0
   12.4784   -1.5937   23.7018 C   0  0  0  0  0  0  0  0  0  0  0  0
   11.0345   -1.8417   23.3049 C   0  0  0  0  0  0  0  0  0  0  0  0
    9.9311   -1.2236   23.8848 C   0  0  0  0  0  0  0  0  0  0  0  0
    8.6547   -1.4661   23.3874 C   0  0  0  0  0  0  0  0  0  0  0  0
    8.4470   -2.4064   22.3783 C   0  0  0  0  0  0  0  0  0  0  0  0
    7.1412   -2.7182   21.9107 N   0  0  0  0  0  0  0  0  0  0  0  0
    6.5665   -3.9814   22.3340 C   0  0  0  0  0  0  0  0  0  0  0  0
    6.0706   -3.8919   23.7543 C   0  0  0  0  0  0  0  0  0  0  0  0
    4.7065   -3.8382   24.0213 C   0  0  0  0  0  0  0  0  0  0  0  0
    4.2552   -3.8903   25.3352 C   0  0  0  0  0  0  0  0  0  0  0  0
    5.1686   -3.8982   26.3838 C   0  0  0  0  0  0  0  0  0  0  0  0
    6.5291   -3.8393   26.1006 C   0  0  0  0  0  0  0  0  0  0  0  0
    7.6881   -3.7409   27.3990 Cl  0  0  0  0  0  0  0  0  0  0  0  0
    6.9975   -3.8352   24.7967 C   0  0  0  0  0  0  0  0  0  0  0  0
    8.0662   -3.7551   24.6115 H   0  0  0  0  0  0  0  0  0  0  0  0
    4.8376   -3.9472   27.4148 H   0  0  0  0  0  0  0  0  0  0  0  0
    3.1891   -3.8996   25.5327 H   0  0  0  0  0  0  0  0  0  0  0  0
    4.0042   -3.7791   23.1936 H   0  0  0  0  0  0  0  0  0  0  0  0
    5.7514   -4.2019   21.6446 H   0  0  0  0  0  0  0  0  0  0  0  0
    7.3368   -4.7562   22.2378 H   0  0  0  0  0  0  0  0  0  0  0  0
    6.2717   -1.7897   21.3835 C   0  0  0  0  0  0  0  0  0  0  0  0
    5.0790   -2.0091   21.2908 O   0  0  0  0  0  0  0  0  0  0  0  0
    6.9159   -0.5054   20.8683 C   0  0  0  0  0  0  0  0  0  0  0  0
    6.1218    0.0903   19.7488 C   0  0  0  0  0  0  0  0  0  0  0  0
    6.4372   -0.2121   18.4505 C   0  0  0  0  0  0  0  0  0  0  0  0
    5.7730    0.2351   17.3537 N   0  0  0  0  0  0  0  0  0  0  0  0
    4.7444    1.0194   17.5709 C   0  0  0  0  0  0  0  0  0  0  0  0
    4.2901    1.3987   18.8625 C   0  0  0  0  0  0  0  0  0  0  0  0
    3.1703    2.2472   19.0422 C   0  0  0  0  0  0  0  0  0  0  0  0
    2.7585    2.6005   20.2975 C   0  0  0  0  0  0  0  0  0  0  0  0
    3.4414    2.1091   21.4321 C   0  0  0  0  0  0  0  0  0  0  0  0
    4.5244    1.2780   21.2862 C   0  0  0  0  0  0  0  0  0  0  0  0
    4.9867    0.9141   19.9927 C   0  0  0  0  0  0  0  0  0  0  0  0
    5.0222    0.8866   22.1685 H   0  0  0  0  0  0  0  0  0  0  0  0
    3.1099    2.3999   22.4249 H   0  0  0  0  0  0  0  0  0  0  0  0
    1.9092    3.2646   20.4297 H   0  0  0  0  0  0  0  0  0  0  0  0
    2.6644    2.6264   18.1579 H   0  0  0  0  0  0  0  0  0  0  0  0
    4.2070    1.3964   16.6992 H   0  0  0  0  0  0  0  0  0  0  0  0
    7.2829   -0.8667   18.2412 H   0  0  0  0  0  0  0  0  0  0  0  0
    7.0182    0.1944   21.7110 H   0  0  0  0  0  0  0  0  0  0  0  0
    7.9270   -0.7672   20.5325 H   0  0  0  0  0  0  0  0  0  0  0  0
    9.5351   -3.0910   21.8616 C   0  0  0  0  0  0  0  0  0  0  0  0
   10.8098   -2.7444   22.2728 C   0  0  0  0  0  0  0  0  0  0  0  0
   11.6714   -3.1497   21.7641 H   0  0  0  0  0  0  0  0  0  0  0  0
    9.3730   -3.9006   21.1562 H   0  0  0  0  0  0  0  0  0  0  0  0
    7.7950   -0.9926   23.8482 H   0  0  0  0  0  0  0  0  0  0  0  0
   10.0543   -0.5360   24.7155 H   0  0  0  0  0  0  0  0  0  0  0  0
   13.0283   -2.5424   23.6459 H   0  0  0  0  0  0  0  0  0  0  0  0
   12.5815   -1.2137   24.7189 H   0  0  0  0  0  0  0  0  0  0  0  0
  1  2  3  0
  2  3  1  0
  3  4  1  0
  4  5  2  0
  5  6  1  0
  6  7  2  0
  7  8  1  0
  8  9  1  0
  9 10  1  0
 10 11  2  0
 11 12  1  0
 12 13  2  0
 13 14  1  0
 14 15  1  0
 14 16  2  0
 16 17  1  0
 13 18  1  0
 12 19  1  0
 11 20  1  0
  9 21  1  0
  9 22  1  0
  8 23  1  0
 23 24  2  0
 23 25  1  0
 25 26  1  0
 26 27  2  0
 27 28  1  0
 28 29  2  0
 29 30  1  0
 30 31  2  0
 31 32  1  0
 32 33  2  0
 33 34  1  0
 34 35  2  0
 34 36  1  0
 33 37  1  0
 32 38  1  0
 31 39  1  0
 29 40  1  0
 27 41  1  0
 25 42  1  0
 25 43  1  0
  7 44  1  0
 44 45  2  0
 45 46  1  0
 44 47  1  0
  6 48  1  0
  5 49  1  0
  3 50  1  0
  3 51  1  0
 45  4  1  0
 16 10  1  0
 35 26  1  0
 35 30  1  0
M  END
>  <cnnaffinities>  (36) 
[6.71142, 5.95811, 6.04935, 6.23141, 6.02328, 6.24072, 6.24108, 6.02907]

>  <score>  (36) 
6.71142

>  <index>  (36) 
35

>  <Smiles>  (36) 
N#CC(c1c(c(c(N(C(c2c(c(c(c(Cl)c2[H])[H])[H])[H])([H])[H])C(=O)C(c2c(nc(c3c(c(c(c(c23)[H])[H])[H])[H])[H])[H])([H])[H])c(c1[H])[H])[H])[H])([H])[H]

>  <h>  (36) 
<NA>

>  <Training>  (36) 
True

>  <Success>  (36) 
True

>  <enamine_searched>  (36) 
False

>  <enamine_id>  (36) 
nan

$$$$

     RDKit          3D

 59 64  0  0  0  0  0  0  0  0999 V2000
    6.5770   -2.0029   23.7850 C   0  0  0  0  0  0  0  0  0  0  0  0
    7.5759   -1.7688   22.6409 C   0  0  1  0  0  0  0  0  0  0  0  0
    6.8584   -1.7726   21.2748 C   0  0  0  0  0  0  0  0  0  0  0  0
    6.8614   -0.3923   20.8675 N   0  0  0  0  0  0  0  0  0  0  0  0
    6.1199    0.1090   19.7756 C   0  0  0  0  0  0  0  0  0  0  0  0
    6.4386   -0.2322   18.4830 C   0  0  0  0  0  0  0  0  0  0  0  0
    5.7780    0.2221   17.3924 N   0  0  0  0  0  0  0  0  0  0  0  0
    4.7619    1.0307   17.5974 C   0  0  0  0  0  0  0  0  0  0  0  0
    4.3157    1.4429   18.8883 C   0  0  0  0  0  0  0  0  0  0  0  0
    3.1886    2.2893   19.0637 C   0  0  0  0  0  0  0  0  0  0  0  0
    2.7665    2.6410   20.3193 C   0  0  0  0  0  0  0  0  0  0  0  0
    3.4489    2.1619   21.4587 C   0  0  0  0  0  0  0  0  0  0  0  0
    4.5442    1.3443   21.3159 C   0  0  0  0  0  0  0  0  0  0  0  0
    5.0085    0.9699   20.0208 C   0  0  0  0  0  0  0  0  0  0  0  0
    5.0603    0.9730   22.1959 H   0  0  0  0  0  0  0  0  0  0  0  0
    3.1161    2.4516   22.4530 H   0  0  0  0  0  0  0  0  0  0  0  0
    1.9056    3.2922   20.4422 H   0  0  0  0  0  0  0  0  0  0  0  0
    2.6714    2.6499   18.1817 H   0  0  0  0  0  0  0  0  0  0  0  0
    4.2245    1.3856   16.7188 H   0  0  0  0  0  0  0  0  0  0  0  0
    7.2871   -0.8891   18.2878 H   0  0  0  0  0  0  0  0  0  0  0  0
    7.7808    0.3894   21.5218 C   0  0  0  0  0  0  0  0  0  0  0  0
    8.0801    1.5095   21.1796 O   0  0  0  0  0  0  0  0  0  0  0  0
    8.3768   -0.4276   22.6877 C   0  0  1  0  0  0  0  0  0  0  0  0
    8.2225    0.2861   24.0509 C   0  0  0  0  0  0  0  0  0  0  0  0
    9.0595    1.4617   24.1762 N   0  0  0  0  0  0  0  0  0  0  0  0
    8.4981    2.7162   24.6436 C   0  0  0  0  0  0  0  0  0  0  0  0
    8.0714    3.6454   23.5399 C   0  0  0  0  0  0  0  0  0  0  0  0
    8.8724    4.6188   22.9021 C   0  0  0  0  0  0  0  0  0  0  0  0
    8.0173    5.2432   22.0291 C   0  0  0  0  0  0  0  0  0  0  0  0
    6.8247    4.6240   22.1305 N   0  0  0  0  0  0  0  0  0  0  0  0
    5.6772    4.7899   21.2645 C   0  0  0  0  0  0  0  0  0  0  0  0
    4.7675    4.8734   21.8637 H   0  0  0  0  0  0  0  0  0  0  0  0
    5.8080    5.6983   20.6731 H   0  0  0  0  0  0  0  0  0  0  0  0
    5.5884    3.9303   20.5917 H   0  0  0  0  0  0  0  0  0  0  0  0
    6.8332    3.6441   23.0551 N   0  0  0  0  0  0  0  0  0  0  0  0
    8.1672    6.0676   21.3319 H   0  0  0  0  0  0  0  0  0  0  0  0
    9.9460    4.7422   22.9908 H   0  0  0  0  0  0  0  0  0  0  0  0
    9.2723    3.1871   25.2568 H   0  0  0  0  0  0  0  0  0  0  0  0
    7.6365    2.4850   25.2714 H   0  0  0  0  0  0  0  0  0  0  0  0
   10.3653    1.4719   23.7915 C   0  0  0  0  0  0  0  0  0  0  0  0
   11.1352    2.3778   24.0965 O   0  0  0  0  0  0  0  0  0  0  0  0
   10.7908    0.3229   22.9532 C   0  0  0  0  0  0  0  0  0  0  0  0
   12.1490    0.2326   22.6800 C   0  0  0  0  0  0  0  0  0  0  0  0
   12.6100   -0.7678   21.8600 C   0  0  0  0  0  0  0  0  0  0  0  0
   11.6967   -1.6392   21.2833 C   0  0  0  0  0  0  0  0  0  0  0  0
   12.1461   -2.5836   20.4419 F   0  0  0  0  0  0  0  0  0  0  0  0
   10.3407   -1.5580   21.5386 C   0  0  0  0  0  0  0  0  0  0  0  0
    9.8701   -0.5855   22.4248 C   0  0  0  0  0  0  0  0  0  0  0  0
    9.6772   -2.2511   21.0371 H   0  0  0  0  0  0  0  0  0  0  0  0
   13.6617   -0.8511   21.6619 H   0  0  0  0  0  0  0  0  0  0  0  0
   12.7931    0.9874   23.1220 H   0  0  0  0  0  0  0  0  0  0  0  0
    7.1884    0.6048   24.2034 H   0  0  0  0  0  0  0  0  0  0  0  0
    8.4933   -0.4372   24.8316 H   0  0  0  0  0  0  0  0  0  0  0  0
    7.3896   -2.3921   20.5483 H   0  0  0  0  0  0  0  0  0  0  0  0
    5.8290   -2.1384   21.3424 H   0  0  0  0  0  0  0  0  0  0  0  0
    8.2935   -2.5918   22.6981 H   0  0  0  0  0  0  0  0  0  0  0  0
    6.0647   -2.9614   23.6529 H   0  0  0  0  0  0  0  0  0  0  0  0
    5.8115   -1.2204   23.8223 H   0  0  0  0  0  0  0  0  0  0  0  0
    7.0729   -2.0432   24.7588 H   0  0  0  0  0  0  0  0  0  0  0  0
  1  2  1  0
  2  3  1  0
  3  4  1  0
  4  5  1  0
  5  6  2  0
  6  7  1  0
  7  8  2  0
  8  9  1  0
  9 10  2  0
 10 11  1  0
 11 12  2  0
 12 13  1  0
 13 14  2  0
 13 15  1  0
 12 16  1  0
 11 17  1  0
 10 18  1  0
  8 19  1  0
  6 20  1  0
  4 21  1  0
 21 22  2  0
 21 23  1  0
 23 24  1  1
 24 25  1  0
 25 26  1  0
 26 27  1  0
 27 28  1  0
 28 29  2  0
 29 30  1  0
 30 31  1  0
 31 32  1  0
 31 33  1  0
 31 34  1  0
 30 35  1  0
 29 36  1  0
 28 37  1  0
 26 38  1  0
 26 39  1  0
 25 40  1  0
 40 41  2  0
 40 42  1  0
 42 43  2  0
 43 44  1  0
 44 45  2  0
 45 46  1  0
 45 47  1  0
 47 48  2  0
 47 49  1  0
 44 50  1  0
 43 51  1  0
 24 52  1  0
 24 53  1  0
  3 54  1  0
  3 55  1  0
  2 56  1  6
  1 57  1  0
  1 58  1  0
  1 59  1  0
 23  2  1  0
 35 27  2  0
 48 42  1  0
 14  5  1  0
 48 23  1  0
 14  9  1  0
M  END
>  <cnnaffinities>  (37) 
[5.87256, 6.32263]

>  <score>  (37) 
5.87256

>  <index>  (37) 
36

>  <Smiles>  (37) 
C([C@]1(C(N(c2c(nc(c3c(c(c(c(c23)[H])[H])[H])[H])[H])[H])C(=O)[C@]21C(N(C(c1c(c(n(C([H])([H])[H])n1)[H])[H])([H])[H])C(=O)c1c(c(c(F)c(c21)[H])[H])[H])([H])[H])([H])[H])[H])([H])([H])[H]

>  <h>  (37) 
<NA>

>  <Training>  (37) 
True

>  <Success>  (37) 
True

>  <enamine_searched>  (37) 
False

>  <enamine_id>  (37) 
nan

$$$$

     RDKit          3D

 48 51  0  0  0  0  0  0  0  0999 V2000
   10.0201   -5.9225   25.0283 N   0  0  0  0  0  0  0  0  0  0  0  0
    9.7387   -4.9135   24.5287 C   0  0  0  0  0  0  0  0  0  0  0  0
    9.4647   -3.6647   23.8720 C   0  0  0  0  0  0  0  0  0  0  0  0
   10.3391   -3.2674   22.8583 C   0  0  0  0  0  0  0  0  0  0  0  0
   10.1652   -2.0591   22.2073 C   0  0  0  0  0  0  0  0  0  0  0  0
    9.1191   -1.2199   22.5762 C   0  0  0  0  0  0  0  0  0  0  0  0
    9.0668    0.0832   22.0012 N   0  0  0  0  0  0  0  0  0  0  0  0
   10.0785    1.0487   22.4427 C   0  0  0  0  0  0  0  0  0  0  0  0
    9.6953    1.7020   23.7529 C   0  0  0  0  0  0  0  0  0  0  0  0
    9.5672    0.9383   24.9142 C   0  0  0  0  0  0  0  0  0  0  0  0
    8.9946    1.5038   26.0482 C   0  0  0  0  0  0  0  0  0  0  0  0
    8.5329    2.8180   26.0306 C   0  0  0  0  0  0  0  0  0  0  0  0
    8.7401    3.5907   24.8960 C   0  0  0  0  0  0  0  0  0  0  0  0
    8.2046    5.2503   24.8766 Cl  0  0  0  0  0  0  0  0  0  0  0  0
    9.3219    3.0448   23.7597 C   0  0  0  0  0  0  0  0  0  0  0  0
    9.4732    3.6703   22.8823 H   0  0  0  0  0  0  0  0  0  0  0  0
    8.0186    3.2643   26.8768 H   0  0  0  0  0  0  0  0  0  0  0  0
    8.9208    0.9285   26.9692 H   0  0  0  0  0  0  0  0  0  0  0  0
    9.9068   -0.1005   24.9249 H   0  0  0  0  0  0  0  0  0  0  0  0
   10.1559    1.8150   21.6728 H   0  0  0  0  0  0  0  0  0  0  0  0
   11.0333    0.5176   22.5254 H   0  0  0  0  0  0  0  0  0  0  0  0
    8.0121    0.5538   21.2497 C   0  0  0  0  0  0  0  0  0  0  0  0
    7.9517    1.7108   20.8860 O   0  0  0  0  0  0  0  0  0  0  0  0
    6.9485   -0.4778   20.8447 C   0  0  0  0  0  0  0  0  0  0  0  0
    6.0988    0.0427   19.7297 C   0  0  0  0  0  0  0  0  0  0  0  0
    6.4332   -0.2289   18.4294 C   0  0  0  0  0  0  0  0  0  0  0  0
    5.7763    0.2349   17.3347 N   0  0  0  0  0  0  0  0  0  0  0  0
    4.7487    1.0194   17.5576 C   0  0  0  0  0  0  0  0  0  0  0  0
    4.2974    1.3997   18.8519 C   0  0  0  0  0  0  0  0  0  0  0  0
    3.1784    2.2488   19.0407 C   0  0  0  0  0  0  0  0  0  0  0  0
    2.7838    2.6124   20.2996 C   0  0  0  0  0  0  0  0  0  0  0  0
    3.4972    2.1507   21.4275 C   0  0  0  0  0  0  0  0  0  0  0  0
    4.5866    1.3291   21.2724 C   0  0  0  0  0  0  0  0  0  0  0  0
    5.0027    0.9168   19.9767 C   0  0  0  0  0  0  0  0  0  0  0  0
    5.1451    1.0044   22.1449 H   0  0  0  0  0  0  0  0  0  0  0  0
    3.1783    2.4491   22.4227 H   0  0  0  0  0  0  0  0  0  0  0  0
    1.9268    3.2658   20.4371 H   0  0  0  0  0  0  0  0  0  0  0  0
    2.6566    2.6157   18.1609 H   0  0  0  0  0  0  0  0  0  0  0  0
    4.2166    1.3959   16.6837 H   0  0  0  0  0  0  0  0  0  0  0  0
    7.2912   -0.8684   18.2192 H   0  0  0  0  0  0  0  0  0  0  0  0
    6.3468   -0.7471   21.7242 H   0  0  0  0  0  0  0  0  0  0  0  0
    7.4684   -1.3926   20.5404 H   0  0  0  0  0  0  0  0  0  0  0  0
    8.2236   -1.6227   23.5735 C   0  0  0  0  0  0  0  0  0  0  0  0
    8.3949   -2.8384   24.2274 C   0  0  0  0  0  0  0  0  0  0  0  0
    7.7253   -3.1369   25.0271 H   0  0  0  0  0  0  0  0  0  0  0  0
    7.4579   -0.9272   23.9144 H   0  0  0  0  0  0  0  0  0  0  0  0
   10.8525   -1.7496   21.4204 H   0  0  0  0  0  0  0  0  0  0  0  0
   11.1893   -3.8896   22.6312 H   0  0  0  0  0  0  0  0  0  0  0  0
  1  2  3  0
  2  3  1  0
  3  4  2  0
  4  5  1  0
  5  6  2  0
  6  7  1  0
  7  8  1  0
  8  9  1  0
  9 10  2  0
 10 11  1  0
 11 12  2  0
 12 13  1  0
 13 14  1  0
 13 15  2  0
 15 16  1  0
 12 17  1  0
 11 18  1  0
 10 19  1  0
  8 20  1  0
  8 21  1  0
  7 22  1  0
 22 23  2  0
 22 24  1  0
 24 25  1  0
 25 26  2  0
 26 27  1  0
 27 28  2  0
 28 29  1  0
 29 30  2  0
 30 31  1  0
 31 32  2  0
 32 33  1  0
 33 34  2  0
 33 35  1  0
 32 36  1  0
 31 37  1  0
 30 38  1  0
 28 39  1  0
 26 40  1  0
 24 41  1  0
 24 42  1  0
  6 43  1  0
 43 44  2  0
 44 45  1  0
 43 46  1  0
  5 47  1  0
  4 48  1  0
 44  3  1  0
 15  9  1  0
 34 25  1  0
 34 29  1  0
M  END
>  <cnnaffinities>  (38) 
[6.0735, 6.07593, 5.82758, 5.82425]

>  <score>  (38) 
6.0735

>  <index>  (38) 
37

>  <Smiles>  (38) 
N#Cc1c(c(c(N(C(c2c(c(c(c(Cl)c2[H])[H])[H])[H])([H])[H])C(=O)C(c2c(nc(c3c(c(c(c(c23)[H])[H])[H])[H])[H])[H])([H])[H])c(c1[H])[H])[H])[H]

>  <h>  (38) 
<NA>

>  <Training>  (38) 
True

>  <Success>  (38) 
True

>  <enamine_searched>  (38) 
False

>  <enamine_id>  (38) 
nan

$$$$

     RDKit          3D

 72 77  0  0  0  0  0  0  0  0999 V2000
    4.8867   -7.6126   20.1386 C   0  0  0  0  0  0  0  0  0  0  0  0
    5.3848   -6.3077   19.6410 N   0  0  0  0  0  4  0  0  0  0  0  0
    5.4444   -5.2591   20.7025 C   0  0  0  0  0  0  0  0  0  0  0  0
    6.5793   -5.5126   21.7084 C   0  0  0  0  0  0  0  0  0  0  0  0
    6.7579   -4.3704   22.5748 N   0  0  0  0  0  0  0  0  0  0  0  0
    7.8342   -3.4286   22.3573 C   0  0  0  0  0  0  0  0  0  0  0  0
    7.3868   -1.9736   22.6547 C   0  0  2  0  0  0  0  0  0  0  0  0
    6.2787   -1.5627   21.6458 C   0  0  0  0  0  0  0  0  0  0  0  0
    5.1521   -2.0136   21.5769 O   0  0  0  0  0  0  0  0  0  0  0  0
    6.7863   -0.5931   20.8059 N   0  0  0  0  0  0  0  0  0  0  0  0
    6.0556   -0.0115   19.7478 C   0  0  0  0  0  0  0  0  0  0  0  0
    6.4392   -0.2369   18.4500 C   0  0  0  0  0  0  0  0  0  0  0  0
    5.7993    0.2505   17.3601 N   0  0  0  0  0  0  0  0  0  0  0  0
    4.7581    1.0194   17.5716 C   0  0  0  0  0  0  0  0  0  0  0  0
    4.2816    1.3750   18.8662 C   0  0  0  0  0  0  0  0  0  0  0  0
    3.1717    2.2443   19.0362 C   0  0  0  0  0  0  0  0  0  0  0  0
    2.7773    2.6260   20.2891 C   0  0  0  0  0  0  0  0  0  0  0  0
    3.4686    2.1563   21.4280 C   0  0  0  0  0  0  0  0  0  0  0  0
    4.5337    1.2987   21.2924 C   0  0  0  0  0  0  0  0  0  0  0  0
    4.9551    0.8712   19.9998 C   0  0  0  0  0  0  0  0  0  0  0  0
    5.0668    0.9442   22.1700 H   0  0  0  0  0  0  0  0  0  0  0  0
    3.1560    2.4832   22.4158 H   0  0  0  0  0  0  0  0  0  0  0  0
    1.9394    3.3065   20.4144 H   0  0  0  0  0  0  0  0  0  0  0  0
    2.6676    2.6197   18.1499 H   0  0  0  0  0  0  0  0  0  0  0  0
    4.2418    1.4108   16.6951 H   0  0  0  0  0  0  0  0  0  0  0  0
    7.3029   -0.8692   18.2488 H   0  0  0  0  0  0  0  0  0  0  0  0
    8.2176   -0.4252   20.9323 C   0  0  0  0  0  0  0  0  0  0  0  0
    8.5105   -0.9471   22.3469 C   0  0  2  0  0  0  0  0  0  0  0  0
    9.9641   -1.4137   22.4659 C   0  0  0  0  0  0  0  0  0  0  0  0
   10.8260   -0.3097   22.4021 O   0  0  0  0  0  0  0  0  0  0  0  0
   11.3097    0.0121   23.6720 C   0  0  0  0  0  0  0  0  0  0  0  0
   11.9688    1.3172   23.4584 C   0  0  0  0  0  0  0  0  0  0  0  0
   11.0088    2.3093   23.3136 C   0  0  0  0  0  0  0  0  0  0  0  0
   10.7229    3.8804   24.2024 S   0  0  0  0  0  0  0  0  0  0  0  0
   11.9060    4.7305   24.1633 O   0  0  0  0  0  0  0  0  0  0  0  0
   10.0390    3.5777   25.4596 O   0  0  0  0  0  0  0  0  0  0  0  0
   12.1350    1.3103   23.7600 C   0  0  0  0  0  0  0  0  0  0  0  0
   13.2028    1.1243   24.4927 H   0  0  0  0  0  0  0  0  0  0  0  0
   12.1208    1.4069   24.9859 H   0  0  0  0  0  0  0  0  0  0  0  0
   11.1837    2.4757   22.2613 H   0  0  0  0  0  0  0  0  0  0  0  0
   10.0390    1.8219   23.2739 H   0  0  0  0  0  0  0  0  0  0  0  0
   13.0504    1.5299   22.6117 H   0  0  0  0  0  0  0  0  0  0  0  0
   10.4579    0.1420   24.3599 H   0  0  0  0  0  0  0  0  0  0  0  0
   11.9202   -0.8284   24.0290 H   0  0  0  0  0  0  0  0  0  0  0  0
   10.1990   -2.0943   21.6326 H   0  0  0  0  0  0  0  0  0  0  0  0
   10.1391   -1.9699   23.4009 H   0  0  0  0  0  0  0  0  0  0  0  0
    8.3887   -0.1103   23.0378 H   0  0  0  0  0  0  0  0  0  0  0  0
    8.4892    0.6256   20.8064 H   0  0  0  0  0  0  0  0  0  0  0  0
    8.7718   -1.0079   20.1816 H   0  0  0  0  0  0  0  0  0  0  0  0
    6.8631   -1.9774   24.0823 C   0  0  0  0  0  0  0  0  0  0  0  0
    6.9834   -0.8970   24.9626 C   0  0  0  0  0  0  0  0  0  0  0  0
    6.5474   -1.0261   26.2697 C   0  0  0  0  0  0  0  0  0  0  0  0
    6.7469    0.3235   27.3518 Cl  0  0  0  0  0  0  0  0  0  0  0  0
    5.9482   -2.1922   26.7443 C   0  0  0  0  0  0  0  0  0  0  0  0
    5.7475   -3.2293   25.8563 C   0  0  0  0  0  0  0  0  0  0  0  0
    6.1821   -3.1135   24.5417 C   0  0  0  0  0  0  0  0  0  0  0  0
    5.8903   -4.2423   23.6113 C   0  0  0  0  0  0  0  0  0  0  0  0
    4.9526   -5.0114   23.7898 O   0  0  0  0  0  0  0  0  0  0  0  0
    5.2578   -4.1525   26.1487 H   0  0  0  0  0  0  0  0  0  0  0  0
    5.6315   -2.2663   27.7786 H   0  0  0  0  0  0  0  0  0  0  0  0
    7.3784    0.0596   24.6436 H   0  0  0  0  0  0  0  0  0  0  0  0
    8.6835   -3.6719   23.0084 H   0  0  0  0  0  0  0  0  0  0  0  0
    8.1710   -3.4981   21.3238 H   0  0  0  0  0  0  0  0  0  0  0  0
    7.5420   -5.7069   21.2165 H   0  0  0  0  0  0  0  0  0  0  0  0
    6.3568   -6.3716   22.3505 H   0  0  0  0  0  0  0  0  0  0  0  0
    4.4949   -5.2428   21.2382 H   0  0  0  0  0  0  0  0  0  0  0  0
    5.5602   -4.2921   20.2202 H   0  0  0  0  0  0  0  0  0  0  0  0
    6.3636   -6.4239   19.2875 H   0  0  0  0  0  0  0  0  0  0  0  0
    4.7844   -6.0133   18.8518 H   0  0  0  0  0  0  0  0  0  0  0  0
    4.1634   -7.4660   20.9397 H   0  0  0  0  0  0  0  0  0  0  0  0
    4.4102   -8.1515   19.3238 H   0  0  0  0  0  0  0  0  0  0  0  0
    5.6904   -8.2258   20.5444 H   0  0  0  0  0  0  0  0  0  0  0  0
  1  2  1  0
  2  3  1  0
  3  4  1  0
  4  5  1  0
  5  6  1  0
  7  6  1  6
  7  8  1  0
  8  9  2  0
  8 10  1  0
 10 11  1  0
 11 12  2  0
 12 13  1  0
 13 14  2  0
 14 15  1  0
 15 16  2  0
 16 17  1  0
 17 18  2  0
 18 19  1  0
 19 20  2  0
 19 21  1  0
 18 22  1  0
 17 23  1  0
 16 24  1  0
 14 25  1  0
 12 26  1  0
 10 27  1  0
 27 28  1  0
 28 29  1  0
 29 30  1  0
 30 31  1  0
 31 32  1  0
 32 33  1  0
 33 34  1  0
 34 35  2  0
 34 36  2  0
 34 37  1  0
 37 38  1  0
 37 39  1  0
 33 40  1  0
 33 41  1  0
 32 42  1  0
 31 43  1  0
 31 44  1  0
 29 45  1  0
 29 46  1  0
 28 47  1  1
 27 48  1  0
 27 49  1  0
  7 50  1  0
 50 51  2  0
 51 52  1  0
 52 53  1  0
 52 54  2  0
 54 55  1  0
 55 56  2  0
 56 57  1  0
 57 58  2  0
 55 59  1  0
 54 60  1  0
 51 61  1  0
  6 62  1  0
  6 63  1  0
  4 64  1  0
  4 65  1  0
  3 66  1  0
  3 67  1  0
  2 68  1  0
  2 69  1  0
  1 70  1  0
  1 71  1  0
  1 72  1  0
 57  5  1  0
 28  7  1  0
 37 32  1  0
 56 50  1  0
 20 11  1  0
 20 15  1  0
M  CHG  1   2   1
M  END
>  <cnnaffinities>  (39) 
[6.27344]

>  <score>  (39) 
6.27344

>  <index>  (39) 
38

>  <Smiles>  (39) 
C([N+](C(C(N1C([C@@]2(C(=O)N(c3c(nc(c4c(c(c(c(c34)[H])[H])[H])[H])[H])[H])C([C@@]2(C(OC(C2(C(S(=O)(=O)C2([H])[H])([H])[H])[H])([H])[H])([H])[H])[H])([H])[H])c2c(c(Cl)c(c(c2C1=O)[H])[H])[H])([H])[H])([H])[H])([H])[H])([H])[H])([H])([H])[H]

>  <h>  (39) 
<NA>

>  <Training>  (39) 
True

>  <Success>  (39) 
True

>  <enamine_searched>  (39) 
False

>  <enamine_id>  (39) 
nan

$$$$

     RDKit          3D

 60 64  0  0  0  0  0  0  0  0999 V2000
    8.5085   -4.2854   23.9798 C   0  0  0  0  0  0  0  0  0  0  0  0
    8.3812   -2.8380   24.4367 C   0  0  0  0  0  0  0  0  0  0  0  0
    7.2883   -2.2048   23.7803 O   0  0  0  0  0  0  0  0  0  0  0  0
    7.6621   -1.6522   22.5445 C   0  0  1  0  0  0  0  0  0  0  0  0
    6.4613   -1.4971   21.6131 C   0  0  0  0  0  0  0  0  0  0  0  0
    6.8676   -0.3751   20.7959 N   0  0  0  0  0  0  0  0  0  0  0  0
    6.1066    0.1288   19.7184 C   0  0  0  0  0  0  0  0  0  0  0  0
    6.4568   -0.1732   18.4309 C   0  0  0  0  0  0  0  0  0  0  0  0
    5.7703    0.2544   17.3445 N   0  0  0  0  0  0  0  0  0  0  0  0
    4.7273    1.0225   17.5545 C   0  0  0  0  0  0  0  0  0  0  0  0
    4.2654    1.4155   18.8456 C   0  0  0  0  0  0  0  0  0  0  0  0
    3.1388    2.2584   19.0376 C   0  0  0  0  0  0  0  0  0  0  0  0
    2.7438    2.6284   20.2953 C   0  0  0  0  0  0  0  0  0  0  0  0
    3.4605    2.1785   21.4283 C   0  0  0  0  0  0  0  0  0  0  0  0
    4.5520    1.3611   21.2705 C   0  0  0  0  0  0  0  0  0  0  0  0
    4.9823    0.9620   19.9730 C   0  0  0  0  0  0  0  0  0  0  0  0
    5.1242    1.0553   22.1429 H   0  0  0  0  0  0  0  0  0  0  0  0
    3.1781    2.5056   22.4243 H   0  0  0  0  0  0  0  0  0  0  0  0
    1.8889    3.2848   20.4292 H   0  0  0  0  0  0  0  0  0  0  0  0
    2.6224    2.6242   18.1553 H   0  0  0  0  0  0  0  0  0  0  0  0
    4.1912    1.3786   16.6740 H   0  0  0  0  0  0  0  0  0  0  0  0
    7.3300   -0.7944   18.2382 H   0  0  0  0  0  0  0  0  0  0  0  0
    7.8519    0.4082   21.3432 C   0  0  0  0  0  0  0  0  0  0  0  0
    8.2605    1.4354   20.8386 O   0  0  0  0  0  0  0  0  0  0  0  0
    8.3539   -0.2603   22.6325 C   0  0  1  0  0  0  0  0  0  0  0  0
    7.9252    0.4890   23.9124 C   0  0  0  0  0  0  0  0  0  0  0  0
    8.6997    1.7002   24.1410 N   0  0  0  0  0  0  0  0  0  0  0  0
    7.9754    2.8476   24.6733 C   0  0  0  0  0  0  0  0  0  0  0  0
    6.9333    3.3406   23.6524 C   0  0  0  0  0  0  0  0  0  0  0  0
    5.7328    3.1462   23.7938 O   0  0  0  0  0  0  0  0  0  0  0  0
    7.4453    4.0059   22.5796 N   0  0  0  0  0  0  0  0  0  0  0  0
    6.5243    4.4050   21.5283 C   0  0  0  0  0  0  0  0  0  0  0  0
    6.1026    3.5410   20.9971 H   0  0  0  0  0  0  0  0  0  0  0  0
    7.0385    5.0596   20.8227 H   0  0  0  0  0  0  0  0  0  0  0  0
    5.6886    4.9488   21.9718 H   0  0  0  0  0  0  0  0  0  0  0  0
    8.3756    3.7373   22.2828 H   0  0  0  0  0  0  0  0  0  0  0  0
    7.4250    2.5762   25.5805 H   0  0  0  0  0  0  0  0  0  0  0  0
    8.7238    3.6035   24.9441 H   0  0  0  0  0  0  0  0  0  0  0  0
   10.0755    1.6809   24.1164 C   0  0  0  0  0  0  0  0  0  0  0  0
   10.7536    2.5215   24.6866 O   0  0  0  0  0  0  0  0  0  0  0  0
   10.6729    0.5694   23.2795 C   0  0  0  0  0  0  0  0  0  0  0  0
   12.0600    0.4491   23.1717 C   0  0  0  0  0  0  0  0  0  0  0  0
   12.6412   -0.4566   22.2972 C   0  0  0  0  0  0  0  0  0  0  0  0
   11.8075   -1.2472   21.5091 C   0  0  0  0  0  0  0  0  0  0  0  0
   12.4134   -2.3801   20.3425 Cl  0  0  0  0  0  0  0  0  0  0  0  0
   10.4402   -1.1625   21.6217 C   0  0  0  0  0  0  0  0  0  0  0  0
    9.8566   -0.3042   22.5553 C   0  0  0  0  0  0  0  0  0  0  0  0
    9.8449   -1.7609   20.9431 H   0  0  0  0  0  0  0  0  0  0  0  0
   13.7179   -0.5365   22.2001 H   0  0  0  0  0  0  0  0  0  0  0  0
   12.6746    1.0933   23.7853 H   0  0  0  0  0  0  0  0  0  0  0  0
    8.0176   -0.1839   24.7740 H   0  0  0  0  0  0  0  0  0  0  0  0
    6.8715    0.7628   23.8244 H   0  0  0  0  0  0  0  0  0  0  0  0
    6.3050   -2.3843   20.9903 H   0  0  0  0  0  0  0  0  0  0  0  0
    5.5339   -1.3059   22.1709 H   0  0  0  0  0  0  0  0  0  0  0  0
    8.3678   -2.3269   22.0529 H   0  0  0  0  0  0  0  0  0  0  0  0
    8.1767   -2.7613   25.5101 H   0  0  0  0  0  0  0  0  0  0  0  0
    9.3270   -2.3015   24.2398 H   0  0  0  0  0  0  0  0  0  0  0  0
    8.9025   -4.3321   22.9589 H   0  0  0  0  0  0  0  0  0  0  0  0
    9.1949   -4.8495   24.6201 H   0  0  0  0  0  0  0  0  0  0  0  0
    7.5263   -4.7632   23.9896 H   0  0  0  0  0  0  0  0  0  0  0  0
  1  2  1  0
  2  3  1  0
  3  4  1  0
  4  5  1  0
  5  6  1  0
  6  7  1  0
  7  8  2  0
  8  9  1  0
  9 10  2  0
 10 11  1  0
 11 12  2  0
 12 13  1  0
 13 14  2  0
 14 15  1  0
 15 16  2  0
 15 17  1  0
 14 18  1  0
 13 19  1  0
 12 20  1  0
 10 21  1  0
  8 22  1  0
  6 23  1  0
 23 24  2  0
 23 25  1  0
 25 26  1  1
 26 27  1  0
 27 28  1  0
 28 29  1  0
 29 30  2  0
 29 31  1  0
 31 32  1  0
 32 33  1  0
 32 34  1  0
 32 35  1  0
 31 36  1  0
 28 37  1  0
 28 38  1  0
 27 39  1  0
 39 40  2  0
 39 41  1  0
 41 42  2  0
 42 43  1  0
 43 44  2  0
 44 45  1  0
 44 46  1  0
 46 47  2  0
 46 48  1  0
 43 49  1  0
 42 50  1  0
 26 51  1  0
 26 52  1  0
  5 53  1  0
  5 54  1  0
  4 55  1  6
  2 56  1  0
  2 57  1  0
  1 58  1  0
  1 59  1  0
  1 60  1  0
 25  4  1  0
 47 41  1  0
 16  7  1  0
 47 25  1  0
 16 11  1  0
M  END
>  <cnnaffinities>  (40) 
[5.9877]

>  <score>  (40) 
5.9877

>  <index>  (40) 
39

>  <Smiles>  (40) 
C(C(O[C@]1(C(N(c2c(nc(c3c(c(c(c(c23)[H])[H])[H])[H])[H])[H])C(=O)[C@]21C(N(C(C(=O)N(C([H])([H])[H])[H])([H])[H])C(=O)c1c(c(c(Cl)c(c21)[H])[H])[H])([H])[H])([H])[H])[H])([H])[H])([H])([H])[H]

>  <h>  (40) 
<NA>

>  <Training>  (40) 
True

>  <Success>  (40) 
True

>  <enamine_searched>  (40) 
False

>  <enamine_id>  (40) 
nan

$$$$

     RDKit          3D

 57 61  0  0  0  0  0  0  0  0999 V2000
    6.6724    4.3719   21.3213 C   0  0  0  0  0  0  0  0  0  0  0  0
    7.6396    4.0065   22.3436 N   0  0  0  0  0  0  0  0  0  0  0  0
    7.1345    3.3358   23.4179 C   0  0  0  0  0  0  0  0  0  0  0  0
    5.9309    3.1679   23.5573 O   0  0  0  0  0  0  0  0  0  0  0  0
    8.1063    2.8062   24.4701 C   0  0  0  0  0  0  0  0  0  0  0  0
    8.8111    1.6318   23.9993 N   0  0  0  0  0  0  0  0  0  0  0  0
    8.0641    0.3949   23.8694 C   0  0  0  0  0  0  0  0  0  0  0  0
    8.4680   -0.3757   22.6018 C   0  0  2  0  0  0  0  0  0  0  0  0
    7.9684    0.3201   21.3153 C   0  0  0  0  0  0  0  0  0  0  0  0
    8.4160    1.3248   20.7961 O   0  0  0  0  0  0  0  0  0  0  0  0
    6.9093   -0.4028   20.8223 N   0  0  0  0  0  0  0  0  0  0  0  0
    6.1278    0.0967   19.7563 C   0  0  0  0  0  0  0  0  0  0  0  0
    6.4643   -0.2081   18.4634 C   0  0  0  0  0  0  0  0  0  0  0  0
    5.7894    0.2349   17.3759 N   0  0  0  0  0  0  0  0  0  0  0  0
    4.7553    1.0148   17.5873 C   0  0  0  0  0  0  0  0  0  0  0  0
    4.2994    1.4057   18.8798 C   0  0  0  0  0  0  0  0  0  0  0  0
    3.1803    2.2599   19.0613 C   0  0  0  0  0  0  0  0  0  0  0  0
    2.7794    2.6279   20.3165 C   0  0  0  0  0  0  0  0  0  0  0  0
    3.4751    2.1622   21.4540 C   0  0  0  0  0  0  0  0  0  0  0  0
    4.5605    1.3310   21.3074 C   0  0  0  0  0  0  0  0  0  0  0  0
    5.0001    0.9312   20.0123 C   0  0  0  0  0  0  0  0  0  0  0  0
    5.1055    1.0078   22.1905 H   0  0  0  0  0  0  0  0  0  0  0  0
    3.1684    2.4751   22.4474 H   0  0  0  0  0  0  0  0  0  0  0  0
    1.9267    3.2868   20.4431 H   0  0  0  0  0  0  0  0  0  0  0  0
    2.6657    2.6253   18.1774 H   0  0  0  0  0  0  0  0  0  0  0  0
    4.2071    1.3742   16.7144 H   0  0  0  0  0  0  0  0  0  0  0  0
    7.3301   -0.8373   18.2693 H   0  0  0  0  0  0  0  0  0  0  0  0
    6.5567   -1.5610   21.6110 C   0  0  0  0  0  0  0  0  0  0  0  0
    7.7772   -1.7585   22.5083 C   0  0  2  0  0  0  0  0  0  0  0  0
    7.4406   -2.4859   23.8144 C   0  0  0  0  0  0  0  0  0  0  0  0
    6.9169   -3.8097   23.4651 C   0  0  0  0  0  0  0  0  0  0  0  0
    6.4965   -4.8099   23.0653 N   0  0  0  0  0  0  0  0  0  0  0  0
    8.3274   -2.6077   24.4420 H   0  0  0  0  0  0  0  0  0  0  0  0
    6.6784   -1.9467   24.3844 H   0  0  0  0  0  0  0  0  0  0  0  0
    8.4665   -2.4193   21.9858 H   0  0  0  0  0  0  0  0  0  0  0  0
    6.3857   -2.4333   20.9759 H   0  0  0  0  0  0  0  0  0  0  0  0
    5.6460   -1.3947   22.2055 H   0  0  0  0  0  0  0  0  0  0  0  0
    9.9718   -0.4307   22.5592 C   0  0  0  0  0  0  0  0  0  0  0  0
   10.5526   -1.3192   21.6638 C   0  0  0  0  0  0  0  0  0  0  0  0
   11.9168   -1.3417   21.5043 C   0  0  0  0  0  0  0  0  0  0  0  0
   12.4941   -2.4013   20.2647 Cl  0  0  0  0  0  0  0  0  0  0  0  0
   12.7655   -0.5280   22.2600 C   0  0  0  0  0  0  0  0  0  0  0  0
   12.1882    0.3984   23.1137 C   0  0  0  0  0  0  0  0  0  0  0  0
   10.7962    0.4815   23.2263 C   0  0  0  0  0  0  0  0  0  0  0  0
   10.1810    1.6364   23.9589 C   0  0  0  0  0  0  0  0  0  0  0  0
   10.8436    2.5450   24.4401 O   0  0  0  0  0  0  0  0  0  0  0  0
   12.7989    1.1020   23.6742 H   0  0  0  0  0  0  0  0  0  0  0  0
   13.8443   -0.6089   22.1552 H   0  0  0  0  0  0  0  0  0  0  0  0
    9.9509   -2.0008   21.0720 H   0  0  0  0  0  0  0  0  0  0  0  0
    6.9968    0.6293   23.8603 H   0  0  0  0  0  0  0  0  0  0  0  0
    8.2551   -0.2419   24.7427 H   0  0  0  0  0  0  0  0  0  0  0  0
    7.4860    2.5529   25.3437 H   0  0  0  0  0  0  0  0  0  0  0  0
    8.8631    3.5514   24.7410 H   0  0  0  0  0  0  0  0  0  0  0  0
    8.5973    3.8658   22.0426 H   0  0  0  0  0  0  0  0  0  0  0  0
    5.9258    5.0461   21.7489 H   0  0  0  0  0  0  0  0  0  0  0  0
    7.1733    4.9011   20.5133 H   0  0  0  0  0  0  0  0  0  0  0  0
    6.1698    3.4823   20.9144 H   0  0  0  0  0  0  0  0  0  0  0  0
  1  2  1  0
  2  3  1  0
  3  4  2  0
  3  5  1  0
  5  6  1  0
  6  7  1  0
  8  7  1  1
  8  9  1  0
  9 10  2  0
  9 11  1  0
 11 12  1  0
 12 13  2  0
 13 14  1  0
 14 15  2  0
 15 16  1  0
 16 17  2  0
 17 18  1  0
 18 19  2  0
 19 20  1  0
 20 21  2  0
 20 22  1  0
 19 23  1  0
 18 24  1  0
 17 25  1  0
 15 26  1  0
 13 27  1  0
 11 28  1  0
 28 29  1  0
 29 30  1  0
 30 31  1  0
 31 32  3  0
 30 33  1  0
 30 34  1  0
 29 35  1  6
 28 36  1  0
 28 37  1  0
  8 38  1  0
 38 39  2  0
 39 40  1  0
 40 41  1  0
 40 42  2  0
 42 43  1  0
 43 44  2  0
 44 45  1  0
 45 46  2  0
 43 47  1  0
 42 48  1  0
 39 49  1  0
  7 50  1  0
  7 51  1  0
  5 52  1  0
  5 53  1  0
  2 54  1  0
  1 55  1  0
  1 56  1  0
  1 57  1  0
 45  6  1  0
 29  8  1  0
 44 38  1  0
 21 12  1  0
 21 16  1  0
M  END
>  <cnnaffinities>  (41) 
[6.25294]

>  <score>  (41) 
6.25294

>  <index>  (41) 
40

>  <Smiles>  (41) 
C(N(C(=O)C(N1C([C@@]2(C(=O)N(c3c(nc(c4c(c(c(c(c34)[H])[H])[H])[H])[H])[H])C([C@@]2(C(C#N)([H])[H])[H])([H])[H])c2c(c(Cl)c(c(c2C1=O)[H])[H])[H])([H])[H])([H])[H])[H])([H])([H])[H]

>  <h>  (41) 
<NA>

>  <Training>  (41) 
True

>  <Success>  (41) 
True

>  <enamine_searched>  (41) 
False

>  <enamine_id>  (41) 
nan

$$$$

     RDKit          3D

 68 73  0  0  0  0  0  0  0  0999 V2000
    7.6041   -2.8251   23.4977 C   0  0  0  0  0  0  0  0  0  0  0  0
    7.8345   -1.7999   22.3979 C   0  0  1  0  0  0  0  0  0  0  0  0
    6.6841   -1.7188   21.3900 C   0  0  0  0  0  0  0  0  0  0  0  0
    6.8644   -0.4013   20.8263 N   0  0  0  0  0  0  0  0  0  0  0  0
    6.1026    0.1123   19.7617 C   0  0  0  0  0  0  0  0  0  0  0  0
    6.4142   -0.2346   18.4736 C   0  0  0  0  0  0  0  0  0  0  0  0
    5.7498    0.2176   17.3854 N   0  0  0  0  0  0  0  0  0  0  0  0
    4.7388    1.0274   17.5967 C   0  0  0  0  0  0  0  0  0  0  0  0
    4.2946    1.4338   18.8874 C   0  0  0  0  0  0  0  0  0  0  0  0
    3.1681    2.2782   19.0581 C   0  0  0  0  0  0  0  0  0  0  0  0
    2.7469    2.6464   20.3057 C   0  0  0  0  0  0  0  0  0  0  0  0
    3.4453    2.1953   21.4506 C   0  0  0  0  0  0  0  0  0  0  0  0
    4.5494    1.3901   21.3130 C   0  0  0  0  0  0  0  0  0  0  0  0
    5.0012    0.9813   20.0205 C   0  0  0  0  0  0  0  0  0  0  0  0
    5.0792    1.0501   22.1993 H   0  0  0  0  0  0  0  0  0  0  0  0
    3.1027    2.5075   22.4334 H   0  0  0  0  0  0  0  0  0  0  0  0
    1.8777    3.2890   20.4235 H   0  0  0  0  0  0  0  0  0  0  0  0
    2.6626    2.6294   18.1641 H   0  0  0  0  0  0  0  0  0  0  0  0
    4.2079    1.4029   16.7215 H   0  0  0  0  0  0  0  0  0  0  0  0
    7.2564   -0.8992   18.2825 H   0  0  0  0  0  0  0  0  0  0  0  0
    7.6300    0.4411   21.5937 C   0  0  0  0  0  0  0  0  0  0  0  0
    7.8660    1.5939   21.3006 O   0  0  0  0  0  0  0  0  0  0  0  0
    8.0916   -0.3295   22.8475 C   0  0  1  0  0  0  0  0  0  0  0  0
    7.2190    0.0424   24.0810 C   0  0  0  0  0  0  0  0  0  0  0  0
    7.4910    1.3700   24.5889 N   0  0  0  0  0  0  0  0  0  0  0  0
    6.4510    2.3404   24.8578 C   0  0  0  0  0  0  0  0  0  0  0  0
    6.4759    3.4358   23.7992 C   0  0  0  0  0  0  0  0  0  0  0  0
    5.3148    4.3379   23.9063 N   0  0  0  0  0  4  0  0  0  0  0  0
    5.1899    5.1345   22.6386 C   0  0  0  0  0  0  0  0  0  0  0  0
    4.1810    6.2842   22.7686 C   0  0  0  0  0  0  0  0  0  0  0  0
    2.9623    5.8352   24.0188 S   0  0  0  0  0  0  0  0  0  0  0  0
    2.0085    6.9196   24.2065 O   0  0  0  0  0  0  0  0  0  0  0  0
    2.5030    4.4852   23.6475 O   0  0  0  0  0  0  0  0  0  0  0  0
    3.9371    5.6192   25.5239 C   0  0  0  0  0  0  0  0  0  0  0  0
    5.3510    5.1973   25.1302 C   0  0  0  0  0  0  0  0  0  0  0  0
    5.7921    4.6277   25.9497 H   0  0  0  0  0  0  0  0  0  0  0  0
    5.9928    6.0639   24.9424 H   0  0  0  0  0  0  0  0  0  0  0  0
    3.9270    6.5299   26.1259 H   0  0  0  0  0  0  0  0  0  0  0  0
    3.4195    4.8233   26.0699 H   0  0  0  0  0  0  0  0  0  0  0  0
    4.6499    7.2383   23.0314 H   0  0  0  0  0  0  0  0  0  0  0  0
    3.6124    6.4044   21.8423 H   0  0  0  0  0  0  0  0  0  0  0  0
    4.8728    4.4337   21.8560 H   0  0  0  0  0  0  0  0  0  0  0  0
    6.1760    5.5272   22.3733 H   0  0  0  0  0  0  0  0  0  0  0  0
    4.4458    3.7711   23.9469 H   0  0  0  0  0  0  0  0  0  0  0  0
    7.3965    4.0246   23.8888 H   0  0  0  0  0  0  0  0  0  0  0  0
    6.4898    2.9797   22.8045 H   0  0  0  0  0  0  0  0  0  0  0  0
    6.6479    2.7605   25.8450 H   0  0  0  0  0  0  0  0  0  0  0  0
    5.4637    1.8641   24.8748 H   0  0  0  0  0  0  0  0  0  0  0  0
    8.7709    1.7805   24.8238 C   0  0  0  0  0  0  0  0  0  0  0  0
    9.0365    2.7397   25.5411 O   0  0  0  0  0  0  0  0  0  0  0  0
    9.8355    1.0153   24.1015 C   0  0  0  0  0  0  0  0  0  0  0  0
   11.1525    1.3657   24.3861 C   0  0  0  0  0  0  0  0  0  0  0  0
   12.2028    0.6852   23.8043 C   0  0  0  0  0  0  0  0  0  0  0  0
   11.8982   -0.3511   22.9221 C   0  0  0  0  0  0  0  0  0  0  0  0
   13.1843   -1.3628   22.3395 Cl  0  0  0  0  0  0  0  0  0  0  0  0
   10.6002   -0.6382   22.5411 C   0  0  0  0  0  0  0  0  0  0  0  0
    9.5304    0.0062   23.1767 C   0  0  0  0  0  0  0  0  0  0  0  0
   10.4632   -1.3565   21.7372 H   0  0  0  0  0  0  0  0  0  0  0  0
   13.2361    0.9398   24.0136 H   0  0  0  0  0  0  0  0  0  0  0  0
   11.3038    2.1678   25.0930 H   0  0  0  0  0  0  0  0  0  0  0  0
    6.1583   -0.0408   23.8268 H   0  0  0  0  0  0  0  0  0  0  0  0
    7.4310   -0.6831   24.8775 H   0  0  0  0  0  0  0  0  0  0  0  0
    6.7447   -2.4823   20.6121 H   0  0  0  0  0  0  0  0  0  0  0  0
    5.7029   -1.8252   21.8767 H   0  0  0  0  0  0  0  0  0  0  0  0
    8.7106   -2.0975   21.8180 H   0  0  0  0  0  0  0  0  0  0  0  0
    6.6826   -2.6090   24.0513 H   0  0  0  0  0  0  0  0  0  0  0  0
    8.4339   -2.8370   24.2120 H   0  0  0  0  0  0  0  0  0  0  0  0
    7.5009   -3.8276   23.0698 H   0  0  0  0  0  0  0  0  0  0  0  0
  1  2  1  0
  2  3  1  0
  3  4  1  0
  4  5  1  0
  5  6  2  0
  6  7  1  0
  7  8  2  0
  8  9  1  0
  9 10  2  0
 10 11  1  0
 11 12  2  0
 12 13  1  0
 13 14  2  0
 13 15  1  0
 12 16  1  0
 11 17  1  0
 10 18  1  0
  8 19  1  0
  6 20  1  0
  4 21  1  0
 21 22  2  0
 21 23  1  0
 23 24  1  1
 24 25  1  0
 25 26  1  0
 26 27  1  0
 27 28  1  0
 28 29  1  0
 29 30  1  0
 30 31  1  0
 31 32  2  0
 31 33  2  0
 31 34  1  0
 34 35  1  0
 35 36  1  0
 35 37  1  0
 34 38  1  0
 34 39  1  0
 30 40  1  0
 30 41  1  0
 29 42  1  0
 29 43  1  0
 28 44  1  0
 27 45  1  0
 27 46  1  0
 26 47  1  0
 26 48  1  0
 25 49  1  0
 49 50  2  0
 49 51  1  0
 51 52  2  0
 52 53  1  0
 53 54  2  0
 54 55  1  0
 54 56  1  0
 56 57  2  0
 56 58  1  0
 53 59  1  0
 52 60  1  0
 24 61  1  0
 24 62  1  0
  3 63  1  0
  3 64  1  0
  2 65  1  6
  1 66  1  0
  1 67  1  0
  1 68  1  0
 23  2  1  0
 35 28  1  0
 57 51  1  0
 14  5  1  0
 57 23  1  0
 14  9  1  0
M  CHG  1  28   1
M  END
>  <cnnaffinities>  (42) 
[6.30406]

>  <score>  (42) 
6.30406

>  <index>  (42) 
41

>  <Smiles>  (42) 
C([C@]1(C(N(c2c(nc(c3c(c(c(c(c23)[H])[H])[H])[H])[H])[H])C(=O)[C@]21C(N(C(C([N+]1(C(C(S(=O)(=O)C(C1([H])[H])([H])[H])([H])[H])([H])[H])[H])([H])[H])([H])[H])C(=O)c1c(c(c(Cl)c(c21)[H])[H])[H])([H])[H])([H])[H])[H])([H])([H])[H]

>  <h>  (42) 
<NA>

>  <Training>  (42) 
True

>  <Success>  (42) 
True

>  <enamine_searched>  (42) 
False

>  <enamine_id>  (42) 
nan

$$$$

     RDKit          3D

 60 65  0  0  0  0  0  0  0  0999 V2000
    6.5970    4.3717   21.3407 C   0  0  0  0  0  0  0  0  0  0  0  0
    7.5873    3.9907   22.3372 N   0  0  0  0  0  0  0  0  0  0  0  0
    7.1301    3.3313   23.4424 C   0  0  0  0  0  0  0  0  0  0  0  0
    5.9364    3.1255   23.6199 O   0  0  0  0  0  0  0  0  0  0  0  0
    8.1631    2.8393   24.4575 C   0  0  0  0  0  0  0  0  0  0  0  0
    8.8390    1.6525   23.9800 N   0  0  0  0  0  0  0  0  0  0  0  0
    8.0555    0.4289   23.8690 C   0  0  0  0  0  0  0  0  0  0  0  0
    8.4522   -0.3691   22.6117 C   0  0  2  0  0  0  0  0  0  0  0  0
    7.9494    0.2957   21.3111 C   0  0  0  0  0  0  0  0  0  0  0  0
    8.4104    1.2750   20.7544 O   0  0  0  0  0  0  0  0  0  0  0  0
    6.8946   -0.4406   20.8227 N   0  0  0  0  0  0  0  0  0  0  0  0
    6.1165    0.0690   19.7583 C   0  0  0  0  0  0  0  0  0  0  0  0
    6.4718   -0.2123   18.4649 C   0  0  0  0  0  0  0  0  0  0  0  0
    5.7997    0.2317   17.3768 N   0  0  0  0  0  0  0  0  0  0  0  0
    4.7589    1.0000   17.5954 C   0  0  0  0  0  0  0  0  0  0  0  0
    4.2974    1.3877   18.8859 C   0  0  0  0  0  0  0  0  0  0  0  0
    3.1795    2.2431   19.0631 C   0  0  0  0  0  0  0  0  0  0  0  0
    2.7804    2.6175   20.3165 C   0  0  0  0  0  0  0  0  0  0  0  0
    3.4810    2.1585   21.4551 C   0  0  0  0  0  0  0  0  0  0  0  0
    4.5644    1.3241   21.3120 C   0  0  0  0  0  0  0  0  0  0  0  0
    4.9968    0.9134   20.0182 C   0  0  0  0  0  0  0  0  0  0  0  0
    5.1205    1.0159   22.1933 H   0  0  0  0  0  0  0  0  0  0  0  0
    3.1795    2.4854   22.4451 H   0  0  0  0  0  0  0  0  0  0  0  0
    1.9270    3.2774   20.4400 H   0  0  0  0  0  0  0  0  0  0  0  0
    2.6685    2.6052   18.1758 H   0  0  0  0  0  0  0  0  0  0  0  0
    4.2223    1.3625   16.7205 H   0  0  0  0  0  0  0  0  0  0  0  0
    7.3456   -0.8340   18.2825 H   0  0  0  0  0  0  0  0  0  0  0  0
    6.5268   -1.5732   21.6417 C   0  0  0  0  0  0  0  0  0  0  0  0
    7.7520   -1.7485   22.5440 C   0  0  2  0  0  0  0  0  0  0  0  0
    7.4261   -2.4983   23.8416 C   0  0  0  0  0  0  0  0  0  0  0  0
    6.8860   -3.8341   23.4317 C   0  0  0  0  0  0  0  0  0  0  0  0
    5.5931   -4.1226   23.3667 N   0  0  0  0  0  0  0  0  0  0  0  0
    5.5427   -5.3448   22.8386 N   0  0  0  0  0  0  0  0  0  0  0  0
    6.7557   -5.7624   22.5949 N   0  0  0  0  0  2  0  0  0  0  0  0
    7.6289   -4.8247   22.9588 N   0  0  0  0  0  0  0  0  0  0  0  0
    6.6606   -1.9818   24.4285 H   0  0  0  0  0  0  0  0  0  0  0  0
    8.3290   -2.6330   24.4458 H   0  0  0  0  0  0  0  0  0  0  0  0
    8.4326   -2.4203   22.0159 H   0  0  0  0  0  0  0  0  0  0  0  0
    6.3453   -2.4812   21.0535 H   0  0  0  0  0  0  0  0  0  0  0  0
    5.6157   -1.3741   22.2283 H   0  0  0  0  0  0  0  0  0  0  0  0
    9.9555   -0.4411   22.5295 C   0  0  0  0  0  0  0  0  0  0  0  0
   10.5217   -1.3360   21.6206 C   0  0  0  0  0  0  0  0  0  0  0  0
   11.8830   -1.3803   21.4447 C   0  0  0  0  0  0  0  0  0  0  0  0
   12.4592   -2.4655   20.2185 Cl  0  0  0  0  0  0  0  0  0  0  0  0
   12.7349   -0.5724   22.1991 C   0  0  0  0  0  0  0  0  0  0  0  0
   12.1806    0.3450   23.0756 C   0  0  0  0  0  0  0  0  0  0  0  0
   10.7929    0.4601   23.1915 C   0  0  0  0  0  0  0  0  0  0  0  0
   10.2117    1.6243   23.9377 C   0  0  0  0  0  0  0  0  0  0  0  0
   10.9151    2.4968   24.4314 O   0  0  0  0  0  0  0  0  0  0  0  0
   12.8097    1.0124   23.6561 H   0  0  0  0  0  0  0  0  0  0  0  0
   13.8050   -0.6502   22.0559 H   0  0  0  0  0  0  0  0  0  0  0  0
    9.9249   -2.0051   21.0118 H   0  0  0  0  0  0  0  0  0  0  0  0
    6.9904    0.6885   23.8251 H   0  0  0  0  0  0  0  0  0  0  0  0
    8.2268   -0.2060   24.7532 H   0  0  0  0  0  0  0  0  0  0  0  0
    7.6167    2.6247   25.3797 H   0  0  0  0  0  0  0  0  0  0  0  0
    8.9306    3.5824   24.6819 H   0  0  0  0  0  0  0  0  0  0  0  0
    8.5116    3.7869   21.9779 H   0  0  0  0  0  0  0  0  0  0  0  0
    6.1170    3.4804   20.9125 H   0  0  0  0  0  0  0  0  0  0  0  0
    5.8212    4.9724   21.8220 H   0  0  0  0  0  0  0  0  0  0  0  0
    7.0659    4.9701   20.5534 H   0  0  0  0  0  0  0  0  0  0  0  0
  1  2  1  0
  2  3  1  0
  3  4  2  0
  3  5  1  0
  5  6  1  0
  6  7  1  0
  8  7  1  1
  8  9  1  0
  9 10  2  0
  9 11  1  0
 11 12  1  0
 12 13  2  0
 13 14  1  0
 14 15  2  0
 15 16  1  0
 16 17  2  0
 17 18  1  0
 18 19  2  0
 19 20  1  0
 20 21  2  0
 20 22  1  0
 19 23  1  0
 18 24  1  0
 17 25  1  0
 15 26  1  0
 13 27  1  0
 11 28  1  0
 28 29  1  0
 29 30  1  0
 30 31  1  0
 31 32  1  0
 32 33  2  0
 33 34  1  0
 34 35  1  0
 30 36  1  0
 30 37  1  0
 29 38  1  6
 28 39  1  0
 28 40  1  0
  8 41  1  0
 41 42  2  0
 42 43  1  0
 43 44  1  0
 43 45  2  0
 45 46  1  0
 46 47  2  0
 47 48  1  0
 48 49  2  0
 46 50  1  0
 45 51  1  0
 42 52  1  0
  7 53  1  0
  7 54  1  0
  5 55  1  0
  5 56  1  0
  2 57  1  0
  1 58  1  0
  1 59  1  0
  1 60  1  0
 48  6  1  0
 29  8  1  0
 35 31  2  0
 47 41  1  0
 21 12  1  0
 21 16  1  0
M  CHG  1  34  -1
M  END
>  <cnnaffinities>  (43) 
[6.54127, 6.51462]

>  <score>  (43) 
6.54127

>  <index>  (43) 
42

>  <Smiles>  (43) 
C(N(C(=O)C(N1C([C@@]2(C(=O)N(c3c(nc(c4c(c(c(c(c34)[H])[H])[H])[H])[H])[H])C([C@@]2(C(c2nn[n-]n2)([H])[H])[H])([H])[H])c2c(c(Cl)c(c(c2C1=O)[H])[H])[H])([H])[H])([H])[H])[H])([H])([H])[H]

>  <h>  (43) 
<NA>

>  <Training>  (43) 
True

>  <Success>  (43) 
True

>  <enamine_searched>  (43) 
False

>  <enamine_id>  (43) 
nan

$$$$

     RDKit          3D

 62 67  0  0  0  0  0  0  0  0999 V2000
    6.5016    4.2584   28.0448 C   0  0  0  0  0  0  0  0  0  0  0  0
    5.2311    3.9513   27.2526 C   0  0  0  0  0  0  0  0  0  0  0  0
    5.4347    3.9980   25.8077 N   0  0  0  0  0  0  0  0  0  0  0  0
    5.1915    5.1451   25.1522 N   0  0  0  0  0  0  0  0  0  0  0  0
    5.5169    4.9032   23.8889 C   0  0  0  0  0  0  0  0  0  0  0  0
    5.9906    3.5835   23.7286 C   0  0  0  0  0  0  0  0  0  0  0  0
    5.9419    3.0354   24.9893 C   0  0  0  0  0  0  0  0  0  0  0  0
    6.3061    1.6411   25.4151 C   0  0  0  0  0  0  0  0  0  0  0  0
    7.4335    1.1000   24.6726 N   0  0  0  0  0  0  0  0  0  0  0  0
    7.3290   -0.2295   24.0965 C   0  0  0  0  0  0  0  0  0  0  0  0
    8.2168   -0.4005   22.8362 C   0  0  2  0  0  0  0  0  0  0  0  0
    7.6425    0.4491   21.6723 C   0  0  0  0  0  0  0  0  0  0  0  0
    7.7693    1.6455   21.5017 O   0  0  0  0  0  0  0  0  0  0  0  0
    6.9341   -0.3800   20.8382 N   0  0  0  0  0  0  0  0  0  0  0  0
    6.1460    0.1134   19.7694 C   0  0  0  0  0  0  0  0  0  0  0  0
    6.4451   -0.2236   18.4734 C   0  0  0  0  0  0  0  0  0  0  0  0
    5.7665    0.2214   17.3874 N   0  0  0  0  0  0  0  0  0  0  0  0
    4.7473    1.0190   17.5977 C   0  0  0  0  0  0  0  0  0  0  0  0
    4.3001    1.4172   18.8878 C   0  0  0  0  0  0  0  0  0  0  0  0
    3.1739    2.2673   19.0637 C   0  0  0  0  0  0  0  0  0  0  0  0
    2.7550    2.6232   20.3142 C   0  0  0  0  0  0  0  0  0  0  0  0
    3.4356    2.1301   21.4518 C   0  0  0  0  0  0  0  0  0  0  0  0
    4.5218    1.3044   21.3072 C   0  0  0  0  0  0  0  0  0  0  0  0
    5.0053    0.9452   20.0180 C   0  0  0  0  0  0  0  0  0  0  0  0
    5.0252    0.9179   22.1884 H   0  0  0  0  0  0  0  0  0  0  0  0
    3.0963    2.4117   22.4436 H   0  0  0  0  0  0  0  0  0  0  0  0
    1.9052    3.2880   20.4409 H   0  0  0  0  0  0  0  0  0  0  0  0
    2.6687    2.6407   18.1755 H   0  0  0  0  0  0  0  0  0  0  0  0
    4.2186    1.3859   16.7167 H   0  0  0  0  0  0  0  0  0  0  0  0
    7.2904   -0.8766   18.2609 H   0  0  0  0  0  0  0  0  0  0  0  0
    6.9598   -1.7731   21.2359 C   0  0  0  0  0  0  0  0  0  0  0  0
    8.0992   -1.8514   22.2696 C   0  0  2  0  0  0  0  0  0  0  0  0
    7.9066   -2.9843   23.2859 C   0  0  0  0  0  0  0  0  0  0  0  0
    7.9346   -3.9637   22.7937 H   0  0  0  0  0  0  0  0  0  0  0  0
    8.6832   -2.9806   24.0609 H   0  0  0  0  0  0  0  0  0  0  0  0
    6.9352   -2.9044   23.7904 H   0  0  0  0  0  0  0  0  0  0  0  0
    9.0272   -2.0410   21.7235 H   0  0  0  0  0  0  0  0  0  0  0  0
    7.1422   -2.3895   20.3577 H   0  0  0  0  0  0  0  0  0  0  0  0
    5.9992   -2.0868   21.6730 H   0  0  0  0  0  0  0  0  0  0  0  0
    9.6185    0.0716   23.1624 C   0  0  0  0  0  0  0  0  0  0  0  0
   10.7239   -0.3203   22.3946 C   0  0  0  0  0  0  0  0  0  0  0  0
   11.9738    0.1770   22.7041 C   0  0  0  0  0  0  0  0  0  0  0  0
   13.0283   -0.2151   21.9702 F   0  0  0  0  0  0  0  0  0  0  0  0
   12.1844    1.0815   23.7396 C   0  0  0  0  0  0  0  0  0  0  0  0
   11.0846    1.5193   24.4485 C   0  0  0  0  0  0  0  0  0  0  0  0
    9.8119    1.0380   24.1600 C   0  0  0  0  0  0  0  0  0  0  0  0
    8.6653    1.6365   24.9225 C   0  0  0  0  0  0  0  0  0  0  0  0
    8.8263    2.5591   25.7135 O   0  0  0  0  0  0  0  0  0  0  0  0
   11.1289    2.2659   25.2285 H   0  0  0  0  0  0  0  0  0  0  0  0
   13.1911    1.4308   23.9313 H   0  0  0  0  0  0  0  0  0  0  0  0
   10.6404   -0.9798   21.5360 H   0  0  0  0  0  0  0  0  0  0  0  0
    7.6216   -0.9897   24.8374 H   0  0  0  0  0  0  0  0  0  0  0  0
    6.2869   -0.4013   23.8082 H   0  0  0  0  0  0  0  0  0  0  0  0
    5.4635    0.9725   25.2167 H   0  0  0  0  0  0  0  0  0  0  0  0
    6.5102    1.6082   26.4934 H   0  0  0  0  0  0  0  0  0  0  0  0
    6.3224    3.0577   22.8388 H   0  0  0  0  0  0  0  0  0  0  0  0
    5.4063    5.7009   23.1611 H   0  0  0  0  0  0  0  0  0  0  0  0
    4.4434    4.6820   27.4654 H   0  0  0  0  0  0  0  0  0  0  0  0
    4.8441    2.9564   27.5055 H   0  0  0  0  0  0  0  0  0  0  0  0
    7.2937    3.5411   27.7999 H   0  0  0  0  0  0  0  0  0  0  0  0
    6.2909    4.1973   29.1171 H   0  0  0  0  0  0  0  0  0  0  0  0
    6.8617    5.2679   27.8233 H   0  0  0  0  0  0  0  0  0  0  0  0
  1  2  1  0
  2  3  1  0
  3  4  1  0
  4  5  2  0
  5  6  1  0
  6  7  2  0
  7  8  1  0
  8  9  1  0
  9 10  1  0
 11 10  1  1
 11 12  1  0
 12 13  2  0
 12 14  1  0
 14 15  1  0
 15 16  2  0
 16 17  1  0
 17 18  2  0
 18 19  1  0
 19 20  2  0
 20 21  1  0
 21 22  2  0
 22 23  1  0
 23 24  2  0
 23 25  1  0
 22 26  1  0
 21 27  1  0
 20 28  1  0
 18 29  1  0
 16 30  1  0
 14 31  1  0
 31 32  1  0
 32 33  1  0
 33 34  1  0
 33 35  1  0
 33 36  1  0
 32 37  1  6
 31 38  1  0
 31 39  1  0
 11 40  1  0
 40 41  2  0
 41 42  1  0
 42 43  1  0
 42 44  2  0
 44 45  1  0
 45 46  2  0
 46 47  1  0
 47 48  2  0
 45 49  1  0
 44 50  1  0
 41 51  1  0
 10 52  1  0
 10 53  1  0
  8 54  1  0
  8 55  1  0
  6 56  1  0
  5 57  1  0
  2 58  1  0
  2 59  1  0
  1 60  1  0
  1 61  1  0
  1 62  1  0
  7  3  1  0
 47  9  1  0
 32 11  1  0
 46 40  1  0
 24 15  1  0
 24 19  1  0
M  END
>  <cnnaffinities>  (44) 
[6.30349, 5.8982]

>  <score>  (44) 
6.30349

>  <index>  (44) 
43

>  <Smiles>  (44) 
C(C(n1nc(c(c1C(N1C([C@@]2(C(=O)N(c3c(nc(c4c(c(c(c(c34)[H])[H])[H])[H])[H])[H])C([C@@]2(C([H])([H])[H])[H])([H])[H])c2c(c(F)c(c(c2C1=O)[H])[H])[H])([H])[H])([H])[H])[H])[H])([H])[H])([H])([H])[H]

>  <h>  (44) 
<NA>

>  <Training>  (44) 
True

>  <Success>  (44) 
True

>  <enamine_searched>  (44) 
False

>  <enamine_id>  (44) 
nan

$$$$

     RDKit          3D

 56 60  0  0  0  0  0  0  0  0999 V2000
    6.6576    4.3528   21.2963 C   0  0  0  0  0  0  0  0  0  0  0  0
    7.6523    3.9735   22.2857 N   0  0  0  0  0  0  0  0  0  0  0  0
    7.1849    3.3176   23.3863 C   0  0  0  0  0  0  0  0  0  0  0  0
    5.9873    3.1440   23.5716 O   0  0  0  0  0  0  0  0  0  0  0  0
    8.1823    2.8005   24.4155 C   0  0  0  0  0  0  0  0  0  0  0  0
    8.8662    1.6129   23.9378 N   0  0  0  0  0  0  0  0  0  0  0  0
    8.1120    0.3714   23.8398 C   0  0  0  0  0  0  0  0  0  0  0  0
    8.4944   -0.4185   22.5707 C   0  0  2  0  0  0  0  0  0  0  0  0
    7.9968    0.2771   21.2849 C   0  0  0  0  0  0  0  0  0  0  0  0
    8.4810    1.2521   20.7393 O   0  0  0  0  0  0  0  0  0  0  0  0
    6.9068   -0.4167   20.8196 N   0  0  0  0  0  0  0  0  0  0  0  0
    6.1287    0.0936   19.7564 C   0  0  0  0  0  0  0  0  0  0  0  0
    6.4705   -0.2033   18.4628 C   0  0  0  0  0  0  0  0  0  0  0  0
    5.7926    0.2353   17.3768 N   0  0  0  0  0  0  0  0  0  0  0  0
    4.7559    1.0106   17.5911 C   0  0  0  0  0  0  0  0  0  0  0  0
    4.2996    1.4005   18.8834 C   0  0  0  0  0  0  0  0  0  0  0  0
    3.1816    2.2550   19.0620 C   0  0  0  0  0  0  0  0  0  0  0  0
    2.7829    2.6270   20.3174 C   0  0  0  0  0  0  0  0  0  0  0  0
    3.4806    2.1625   21.4539 C   0  0  0  0  0  0  0  0  0  0  0  0
    4.5629    1.3286   21.3090 C   0  0  0  0  0  0  0  0  0  0  0  0
    5.0001    0.9262   20.0144 C   0  0  0  0  0  0  0  0  0  0  0  0
    5.1144    1.0154   22.1903 H   0  0  0  0  0  0  0  0  0  0  0  0
    3.1752    2.4814   22.4456 H   0  0  0  0  0  0  0  0  0  0  0  0
    1.9313    3.2870   20.4424 H   0  0  0  0  0  0  0  0  0  0  0  0
    2.6691    2.6205   18.1779 H   0  0  0  0  0  0  0  0  0  0  0  0
    4.2126    1.3704   16.7174 H   0  0  0  0  0  0  0  0  0  0  0  0
    7.3358   -0.8344   18.2724 H   0  0  0  0  0  0  0  0  0  0  0  0
    6.5278   -1.5511   21.6343 C   0  0  0  0  0  0  0  0  0  0  0  0
    7.7823   -1.7992   22.4809 C   0  0  2  0  0  0  0  0  0  0  0  0
    7.4355   -2.5344   23.7663 C   0  0  0  0  0  0  0  0  0  0  0  0
    8.8786   -3.0181   24.7047 Cl  0  0  0  0  0  0  0  0  0  0  0  0
    6.8115   -1.9195   24.4200 H   0  0  0  0  0  0  0  0  0  0  0  0
    6.8999   -3.4553   23.5286 H   0  0  0  0  0  0  0  0  0  0  0  0
    8.4305   -2.4636   21.9101 H   0  0  0  0  0  0  0  0  0  0  0  0
    5.6523   -1.3377   22.2682 H   0  0  0  0  0  0  0  0  0  0  0  0
    6.2941   -2.4131   21.0043 H   0  0  0  0  0  0  0  0  0  0  0  0
    9.9954   -0.4822   22.5050 C   0  0  0  0  0  0  0  0  0  0  0  0
   10.5665   -1.3752   21.6079 C   0  0  0  0  0  0  0  0  0  0  0  0
   11.9284   -1.3994   21.4392 C   0  0  0  0  0  0  0  0  0  0  0  0
   12.4895   -2.4710   20.2046 Cl  0  0  0  0  0  0  0  0  0  0  0  0
   12.7887   -0.5930   22.1841 C   0  0  0  0  0  0  0  0  0  0  0  0
   12.2267    0.3321   23.0440 C   0  0  0  0  0  0  0  0  0  0  0  0
   10.8352    0.4282   23.1551 C   0  0  0  0  0  0  0  0  0  0  0  0
   10.2367    1.5985   23.8820 C   0  0  0  0  0  0  0  0  0  0  0  0
   10.9264    2.4936   24.3465 O   0  0  0  0  0  0  0  0  0  0  0  0
   12.8470    1.0154   23.6160 H   0  0  0  0  0  0  0  0  0  0  0  0
   13.8621   -0.6686   22.0573 H   0  0  0  0  0  0  0  0  0  0  0  0
    9.9850   -2.0723   21.0160 H   0  0  0  0  0  0  0  0  0  0  0  0
    7.0458    0.6138   23.8286 H   0  0  0  0  0  0  0  0  0  0  0  0
    8.3153   -0.2544   24.7220 H   0  0  0  0  0  0  0  0  0  0  0  0
    7.6063    2.5646   25.3215 H   0  0  0  0  0  0  0  0  0  0  0  0
    8.9509    3.5356   24.6635 H   0  0  0  0  0  0  0  0  0  0  0  0
    8.5839    3.8000   21.9415 H   0  0  0  0  0  0  0  0  0  0  0  0
    5.9126    4.9944   21.7734 H   0  0  0  0  0  0  0  0  0  0  0  0
    7.1367    4.9218   20.4962 H   0  0  0  0  0  0  0  0  0  0  0  0
    6.1636    3.4545   20.8947 H   0  0  0  0  0  0  0  0  0  0  0  0
  1  2  1  0
  2  3  1  0
  3  4  2  0
  3  5  1  0
  5  6  1  0
  6  7  1  0
  8  7  1  1
  8  9  1  0
  9 10  2  0
  9 11  1  0
 11 12  1  0
 12 13  2  0
 13 14  1  0
 14 15  2  0
 15 16  1  0
 16 17  2  0
 17 18  1  0
 18 19  2  0
 19 20  1  0
 20 21  2  0
 20 22  1  0
 19 23  1  0
 18 24  1  0
 17 25  1  0
 15 26  1  0
 13 27  1  0
 11 28  1  0
 28 29  1  0
 29 30  1  0
 30 31  1  0
 30 32  1  0
 30 33  1  0
 29 34  1  6
 28 35  1  0
 28 36  1  0
  8 37  1  0
 37 38  2  0
 38 39  1  0
 39 40  1  0
 39 41  2  0
 41 42  1  0
 42 43  2  0
 43 44  1  0
 44 45  2  0
 42 46  1  0
 41 47  1  0
 38 48  1  0
  7 49  1  0
  7 50  1  0
  5 51  1  0
  5 52  1  0
  2 53  1  0
  1 54  1  0
  1 55  1  0
  1 56  1  0
 44  6  1  0
 29  8  1  0
 43 37  1  0
 21 12  1  0
 21 16  1  0
M  END
>  <cnnaffinities>  (45) 
[6.3907]

>  <score>  (45) 
6.3907

>  <index>  (45) 
44

>  <Smiles>  (45) 
C(N(C(=O)C(N1C([C@@]2(C(=O)N(c3c(nc(c4c(c(c(c(c34)[H])[H])[H])[H])[H])[H])C([C@@]2(C(Cl)([H])[H])[H])([H])[H])c2c(c(Cl)c(c(c2C1=O)[H])[H])[H])([H])[H])([H])[H])[H])([H])([H])[H]

>  <h>  (45) 
<NA>

>  <Training>  (45) 
True

>  <Success>  (45) 
True

>  <enamine_searched>  (45) 
False

>  <enamine_id>  (45) 
nan

$$$$

     RDKit          3D

 60 64  0  0  0  0  0  0  0  0999 V2000
    6.2781    1.6626   28.8923 C   0  0  0  0  0  0  0  0  0  0  0  0
    6.6288    2.0353   27.5402 N   0  0  0  0  0  0  0  0  0  0  0  0
    5.9954    1.4186   26.5085 C   0  0  0  0  0  0  0  0  0  0  0  0
    5.1443    0.5492   26.6492 O   0  0  0  0  0  0  0  0  0  0  0  0
    6.4322    1.9245   25.1308 C   0  0  0  0  0  0  0  0  0  0  0  0
    7.5631    1.1747   24.6224 N   0  0  0  0  0  0  0  0  0  0  0  0
    7.3743   -0.1262   24.0054 C   0  0  0  0  0  0  0  0  0  0  0  0
    8.2320   -0.2567   22.7180 C   0  0  2  0  0  0  0  0  0  0  0  0
    7.6202    0.6061   21.5916 C   0  0  0  0  0  0  0  0  0  0  0  0
    7.7059    1.8039   21.4415 O   0  0  0  0  0  0  0  0  0  0  0  0
    6.9174   -0.2340   20.7542 N   0  0  0  0  0  0  0  0  0  0  0  0
    6.1142    0.2176   19.6988 C   0  0  0  0  0  0  0  0  0  0  0  0
    6.4038   -0.1706   18.4169 C   0  0  0  0  0  0  0  0  0  0  0  0
    5.7196    0.2468   17.3287 N   0  0  0  0  0  0  0  0  0  0  0  0
    4.7002    1.0475   17.5369 C   0  0  0  0  0  0  0  0  0  0  0  0
    4.2519    1.4559   18.8262 C   0  0  0  0  0  0  0  0  0  0  0  0
    3.1189    2.2888   19.0080 C   0  0  0  0  0  0  0  0  0  0  0  0
    2.6911    2.6174   20.2646 C   0  0  0  0  0  0  0  0  0  0  0  0
    3.3608    2.1198   21.4046 C   0  0  0  0  0  0  0  0  0  0  0  0
    4.4643    1.3223   21.2567 C   0  0  0  0  0  0  0  0  0  0  0  0
    4.9552    1.0042   19.9572 C   0  0  0  0  0  0  0  0  0  0  0  0
    4.9740    0.9299   22.1328 H   0  0  0  0  0  0  0  0  0  0  0  0
    3.0030    2.3748   22.3971 H   0  0  0  0  0  0  0  0  0  0  0  0
    1.8311    3.2655   20.3948 H   0  0  0  0  0  0  0  0  0  0  0  0
    2.6148    2.6644   18.1237 H   0  0  0  0  0  0  0  0  0  0  0  0
    4.1637    1.3999   16.6578 H   0  0  0  0  0  0  0  0  0  0  0  0
    7.2506   -0.8337   18.2337 H   0  0  0  0  0  0  0  0  0  0  0  0
    6.9007   -1.6132   21.1649 C   0  0  0  0  0  0  0  0  0  0  0  0
    8.1044   -1.6676   22.1023 C   0  0  2  0  0  0  0  0  0  0  0  0
    8.0100   -2.8124   23.0739 C   0  0  0  0  0  0  0  0  0  0  0  0
    7.9964   -3.9894   22.3096 O   0  0  0  0  0  0  0  0  0  0  0  0
    7.6418   -5.0933   23.0999 C   0  0  0  0  0  0  0  0  0  0  0  0
    7.9789   -5.9901   22.5817 H   0  0  0  0  0  0  0  0  0  0  0  0
    8.1402   -5.0421   24.0774 H   0  0  0  0  0  0  0  0  0  0  0  0
    6.5541   -5.1733   23.2810 H   0  0  0  0  0  0  0  0  0  0  0  0
    7.0852   -2.7317   23.6757 H   0  0  0  0  0  0  0  0  0  0  0  0
    8.8597   -2.8118   23.7796 H   0  0  0  0  0  0  0  0  0  0  0  0
    8.9738   -1.8525   21.4723 H   0  0  0  0  0  0  0  0  0  0  0  0
    7.0042   -2.2642   20.2965 H   0  0  0  0  0  0  0  0  0  0  0  0
    5.9563   -1.8753   21.6704 H   0  0  0  0  0  0  0  0  0  0  0  0
    9.6459    0.1733   23.0505 C   0  0  0  0  0  0  0  0  0  0  0  0
   10.7212   -0.1487   22.2099 C   0  0  0  0  0  0  0  0  0  0  0  0
   11.9949    0.3046   22.5052 C   0  0  0  0  0  0  0  0  0  0  0  0
   13.3021   -0.0335   21.4181 Cl  0  0  0  0  0  0  0  0  0  0  0  0
   12.2707    1.0416   23.6536 C   0  0  0  0  0  0  0  0  0  0  0  0
   11.2137    1.3606   24.4764 C   0  0  0  0  0  0  0  0  0  0  0  0
    9.9134    0.9835   24.1623 C   0  0  0  0  0  0  0  0  0  0  0  0
    8.8126    1.5559   24.9960 C   0  0  0  0  0  0  0  0  0  0  0  0
    9.0129    2.3497   25.9162 O   0  0  0  0  0  0  0  0  0  0  0  0
   11.3459    1.9321   25.3745 H   0  0  0  0  0  0  0  0  0  0  0  0
   13.2849    1.3698   23.8566 H   0  0  0  0  0  0  0  0  0  0  0  0
   10.5926   -0.7518   21.3180 H   0  0  0  0  0  0  0  0  0  0  0  0
    7.6754   -0.9105   24.7165 H   0  0  0  0  0  0  0  0  0  0  0  0
    6.3099   -0.2680   23.7959 H   0  0  0  0  0  0  0  0  0  0  0  0
    5.5998    1.8447   24.4226 H   0  0  0  0  0  0  0  0  0  0  0  0
    6.7330    2.9766   25.1909 H   0  0  0  0  0  0  0  0  0  0  0  0
    7.5660    2.3767   27.3450 H   0  0  0  0  0  0  0  0  0  0  0  0
    5.1975    1.7681   29.0204 H   0  0  0  0  0  0  0  0  0  0  0  0
    6.7841    2.3309   29.5922 H   0  0  0  0  0  0  0  0  0  0  0  0
    6.5417    0.6215   29.1126 H   0  0  0  0  0  0  0  0  0  0  0  0
  1  2  1  0
  2  3  1  0
  3  4  2  0
  3  5  1  0
  5  6  1  0
  6  7  1  0
  8  7  1  1
  8  9  1  0
  9 10  2  0
  9 11  1  0
 11 12  1  0
 12 13  2  0
 13 14  1  0
 14 15  2  0
 15 16  1  0
 16 17  2  0
 17 18  1  0
 18 19  2  0
 19 20  1  0
 20 21  2  0
 20 22  1  0
 19 23  1  0
 18 24  1  0
 17 25  1  0
 15 26  1  0
 13 27  1  0
 11 28  1  0
 28 29  1  0
 29 30  1  0
 30 31  1  0
 31 32  1  0
 32 33  1  0
 32 34  1  0
 32 35  1  0
 30 36  1  0
 30 37  1  0
 29 38  1  6
 28 39  1  0
 28 40  1  0
  8 41  1  0
 41 42  2  0
 42 43  1  0
 43 44  1  0
 43 45  2  0
 45 46  1  0
 46 47  2  0
 47 48  1  0
 48 49  2  0
 46 50  1  0
 45 51  1  0
 42 52  1  0
  7 53  1  0
  7 54  1  0
  5 55  1  0
  5 56  1  0
  2 57  1  0
  1 58  1  0
  1 59  1  0
  1 60  1  0
 48  6  1  0
 29  8  1  0
 47 41  1  0
 21 12  1  0
 21 16  1  0
M  END
>  <cnnaffinities>  (46) 
[5.86931, 6.02354, 5.99812]

>  <score>  (46) 
5.86931

>  <index>  (46) 
45

>  <Smiles>  (46) 
C(N(C(=O)C(N1C([C@@]2(C(=O)N(c3c(nc(c4c(c(c(c(c34)[H])[H])[H])[H])[H])[H])C([C@@]2(C(OC([H])([H])[H])([H])[H])[H])([H])[H])c2c(c(Cl)c(c(c2C1=O)[H])[H])[H])([H])[H])([H])[H])[H])([H])([H])[H]

>  <h>  (46) 
<NA>

>  <Training>  (46) 
True

>  <Success>  (46) 
True

>  <enamine_searched>  (46) 
False

>  <enamine_id>  (46) 
nan

$$$$

     RDKit          3D

 64 68  0  0  0  0  0  0  0  0999 V2000
   13.2324   -2.4021   23.2367 C   0  0  0  0  0  0  0  0  0  0  0  0
   11.7144   -2.5072   23.1443 C   0  0  0  0  0  0  0  0  0  0  0  0
   11.1304   -1.9455   21.5522 S   0  0  0  0  0  0  0  0  0  0  0  0
   11.1693   -0.4867   21.5355 O   0  0  0  0  0  0  0  0  0  0  0  0
   11.8263   -2.7224   20.5445 O   0  0  0  0  0  0  0  0  0  0  0  0
    9.4980   -2.4654   21.5888 N   0  0  0  0  0  0  0  0  0  0  0  0
    8.5404   -1.4935   22.1465 C   0  0  1  0  0  0  0  0  0  0  0  0
    8.1729   -0.3712   21.1593 C   0  0  0  0  0  0  0  0  0  0  0  0
    6.7613   -0.5471   20.8966 N   0  0  0  0  0  0  0  0  0  0  0  0
    6.0806    0.0411   19.8064 C   0  0  0  0  0  0  0  0  0  0  0  0
    6.4744   -0.2080   18.5143 C   0  0  0  0  0  0  0  0  0  0  0  0
    5.8309    0.2545   17.4153 N   0  0  0  0  0  0  0  0  0  0  0  0
    4.7804    1.0162   17.6065 C   0  0  0  0  0  0  0  0  0  0  0  0
    4.2943    1.3886   18.8912 C   0  0  0  0  0  0  0  0  0  0  0  0
    3.1711    2.2422   19.0493 C   0  0  0  0  0  0  0  0  0  0  0  0
    2.7583    2.6319   20.2940 C   0  0  0  0  0  0  0  0  0  0  0  0
    3.4489    2.1821   21.4414 C   0  0  0  0  0  0  0  0  0  0  0  0
    4.5276    1.3467   21.3150 C   0  0  0  0  0  0  0  0  0  0  0  0
    4.9698    0.9115   20.0329 C   0  0  0  0  0  0  0  0  0  0  0  0
    5.0427    1.0033   22.2056 H   0  0  0  0  0  0  0  0  0  0  0  0
    3.1236    2.4963   22.4286 H   0  0  0  0  0  0  0  0  0  0  0  0
    1.9087    3.2991   20.4090 H   0  0  0  0  0  0  0  0  0  0  0  0
    2.6656    2.5982   18.1558 H   0  0  0  0  0  0  0  0  0  0  0  0
    4.2629    1.3815   16.7181 H   0  0  0  0  0  0  0  0  0  0  0  0
    7.3349   -0.8464   18.3167 H   0  0  0  0  0  0  0  0  0  0  0  0
    6.1267   -1.3873   21.7797 C   0  0  0  0  0  0  0  0  0  0  0  0
    4.9321   -1.6067   21.7859 O   0  0  0  0  0  0  0  0  0  0  0  0
    7.1744   -2.0522   22.6701 C   0  0  1  0  0  0  0  0  0  0  0  0
    6.9444   -3.5844   22.6213 C   0  0  0  0  0  0  0  0  0  0  0  0
    7.8787   -4.3170   23.4455 N   0  0  0  0  0  0  0  0  0  0  0  0
    8.6757   -5.3600   22.8539 C   0  0  0  0  0  0  0  0  0  0  0  0
    7.9504   -6.6749   22.5447 C   0  0  0  0  0  0  0  0  0  0  0  0
    7.1160   -6.7703   21.6630 O   0  0  0  0  0  0  0  0  0  0  0  0
    8.3933   -7.7289   23.2860 N   0  0  0  0  0  0  0  0  0  0  0  0
    7.8631   -9.0801   23.1830 C   0  0  0  0  0  0  0  0  0  0  0  0
    6.7769   -9.0782   23.0560 H   0  0  0  0  0  0  0  0  0  0  0  0
    8.2854   -9.6449   22.3497 H   0  0  0  0  0  0  0  0  0  0  0  0
    8.1261   -9.6119   24.0998 H   0  0  0  0  0  0  0  0  0  0  0  0
    8.9518   -7.5039   24.0949 H   0  0  0  0  0  0  0  0  0  0  0  0
    9.0367   -4.9511   21.9077 H   0  0  0  0  0  0  0  0  0  0  0  0
    9.5179   -5.5193   23.5253 H   0  0  0  0  0  0  0  0  0  0  0  0
    8.1601   -3.9008   24.7172 C   0  0  0  0  0  0  0  0  0  0  0  0
    8.8702   -4.5483   25.4800 O   0  0  0  0  0  0  0  0  0  0  0  0
    7.5669   -2.5826   25.1067 C   0  0  0  0  0  0  0  0  0  0  0  0
    7.6673   -2.2049   26.4413 C   0  0  0  0  0  0  0  0  0  0  0  0
    7.2697   -0.9430   26.8485 C   0  0  0  0  0  0  0  0  0  0  0  0
    6.7782   -0.0576   25.8920 C   0  0  0  0  0  0  0  0  0  0  0  0
    6.3383    1.5475   26.3907 Cl  0  0  0  0  0  0  0  0  0  0  0  0
    6.6956   -0.4088   24.5536 C   0  0  0  0  0  0  0  0  0  0  0  0
    7.0600   -1.6939   24.1488 C   0  0  0  0  0  0  0  0  0  0  0  0
    6.4106    0.3295   23.8134 H   0  0  0  0  0  0  0  0  0  0  0  0
    7.3675   -0.6297   27.8823 H   0  0  0  0  0  0  0  0  0  0  0  0
    8.1013   -2.9243   27.1299 H   0  0  0  0  0  0  0  0  0  0  0  0
    5.9186   -3.7625   22.9773 H   0  0  0  0  0  0  0  0  0  0  0  0
    6.9983   -3.9497   21.5982 H   0  0  0  0  0  0  0  0  0  0  0  0
    8.7426   -0.4522   20.2371 H   0  0  0  0  0  0  0  0  0  0  0  0
    8.3613    0.6137   21.6001 H   0  0  0  0  0  0  0  0  0  0  0  0
    9.0595   -1.0776   23.0104 H   0  0  0  0  0  0  0  0  0  0  0  0
    9.2460   -2.7180   20.6362 H   0  0  0  0  0  0  0  0  0  0  0  0
   11.3727   -3.5438   23.2247 H   0  0  0  0  0  0  0  0  0  0  0  0
   11.1920   -1.9076   23.8958 H   0  0  0  0  0  0  0  0  0  0  0  0
   13.5959   -2.8610   24.1578 H   0  0  0  0  0  0  0  0  0  0  0  0
   13.5639   -1.3631   23.2154 H   0  0  0  0  0  0  0  0  0  0  0  0
   13.6982   -2.9180   22.4002 H   0  0  0  0  0  0  0  0  0  0  0  0
  1  2  1  0
  2  3  1  0
  3  4  2  0
  3  5  2  0
  3  6  1  0
  6  7  1  0
  7  8  1  0
  8  9  1  0
  9 10  1  0
 10 11  2  0
 11 12  1  0
 12 13  2  0
 13 14  1  0
 14 15  2  0
 15 16  1  0
 16 17  2  0
 17 18  1  0
 18 19  2  0
 18 20  1  0
 17 21  1  0
 16 22  1  0
 15 23  1  0
 13 24  1  0
 11 25  1  0
  9 26  1  0
 26 27  2  0
 26 28  1  0
 28 29  1  1
 29 30  1  0
 30 31  1  0
 31 32  1  0
 32 33  2  0
 32 34  1  0
 34 35  1  0
 35 36  1  0
 35 37  1  0
 35 38  1  0
 34 39  1  0
 31 40  1  0
 31 41  1  0
 30 42  1  0
 42 43  2  0
 42 44  1  0
 44 45  2  0
 45 46  1  0
 46 47  2  0
 47 48  1  0
 47 49  1  0
 49 50  2  0
 49 51  1  0
 46 52  1  0
 45 53  1  0
 29 54  1  0
 29 55  1  0
  8 56  1  0
  8 57  1  0
  7 58  1  1
  6 59  1  0
  2 60  1  0
  2 61  1  0
  1 62  1  0
  1 63  1  0
  1 64  1  0
 28  7  1  0
 50 44  1  0
 19 10  1  0
 50 28  1  0
 19 14  1  0
M  END
>  <cnnaffinities>  (47) 
[6.89208, 6.10659, 6.89027, 6.91176, 6.35392, 6.09441]

>  <score>  (47) 
6.89208

>  <index>  (47) 
46

>  <Smiles>  (47) 
C(C(S(=O)(=O)N([C@]1(C(N(c2c(nc(c3c(c(c(c(c23)[H])[H])[H])[H])[H])[H])C(=O)[C@]21C(N(C(C(=O)N(C([H])([H])[H])[H])([H])[H])C(=O)c1c(c(c(Cl)c(c21)[H])[H])[H])([H])[H])([H])[H])[H])[H])([H])[H])([H])([H])[H]

>  <h>  (47) 
<NA>

>  <Training>  (47) 
True

>  <Success>  (47) 
True

>  <enamine_searched>  (47) 
False

>  <enamine_id>  (47) 
nan

$$$$

     RDKit          3D

 56 60  0  0  0  0  0  0  0  0999 V2000
    6.7410    4.4477   21.3065 C   0  0  0  0  0  0  0  0  0  0  0  0
    7.6230    4.0424   22.3884 N   0  0  0  0  0  0  0  0  0  0  0  0
    7.0662    3.3730   23.4215 C   0  0  0  0  0  0  0  0  0  0  0  0
    5.8558    3.2398   23.5370 O   0  0  0  0  0  0  0  0  0  0  0  0
    8.0053    2.7986   24.4932 C   0  0  0  0  0  0  0  0  0  0  0  0
    8.7525    1.6340   24.0608 N   0  0  0  0  0  0  0  0  0  0  0  0
    8.0404    0.3738   23.9242 C   0  0  0  0  0  0  0  0  0  0  0  0
    8.4626   -0.3877   22.6473 C   0  0  2  0  0  0  0  0  0  0  0  0
    7.9402    0.3374   21.3785 C   0  0  0  0  0  0  0  0  0  0  0  0
    8.3456    1.3818   20.9106 O   0  0  0  0  0  0  0  0  0  0  0  0
    6.9263   -0.4083   20.8284 N   0  0  0  0  0  0  0  0  0  0  0  0
    6.1423    0.1083   19.7606 C   0  0  0  0  0  0  0  0  0  0  0  0
    6.4569   -0.2097   18.4656 C   0  0  0  0  0  0  0  0  0  0  0  0
    5.7729    0.2294   17.3800 N   0  0  0  0  0  0  0  0  0  0  0  0
    4.7471    1.0174   17.5917 C   0  0  0  0  0  0  0  0  0  0  0  0
    4.2954    1.4174   18.8824 C   0  0  0  0  0  0  0  0  0  0  0  0
    3.1714    2.2705   19.0650 C   0  0  0  0  0  0  0  0  0  0  0  0
    2.7662    2.6337   20.3193 C   0  0  0  0  0  0  0  0  0  0  0  0
    3.4631    2.1571   21.4523 C   0  0  0  0  0  0  0  0  0  0  0  0
    4.5526    1.3335   21.3024 C   0  0  0  0  0  0  0  0  0  0  0  0
    5.0089    0.9466   20.0109 C   0  0  0  0  0  0  0  0  0  0  0  0
    5.0835    0.9804   22.1818 H   0  0  0  0  0  0  0  0  0  0  0  0
    3.1556    2.4579   22.4487 H   0  0  0  0  0  0  0  0  0  0  0  0
    1.9168    3.3006   20.4465 H   0  0  0  0  0  0  0  0  0  0  0  0
    2.6620    2.6416   18.1791 H   0  0  0  0  0  0  0  0  0  0  0  0
    4.2159    1.3817   16.7119 H   0  0  0  0  0  0  0  0  0  0  0  0
    7.3022   -0.8618   18.2570 H   0  0  0  0  0  0  0  0  0  0  0  0
    6.5880   -1.6046   21.5730 C   0  0  0  0  0  0  0  0  0  0  0  0
    7.7743   -1.7940   22.5436 C   0  0  2  0  0  0  0  0  0  0  0  0
    7.3506   -2.4691   23.8537 C   0  0  0  0  0  0  0  0  0  0  0  0
    6.9353   -3.4638   23.6592 H   0  0  0  0  0  0  0  0  0  0  0  0
    6.5753   -1.8868   24.3645 H   0  0  0  0  0  0  0  0  0  0  0  0
    8.1899   -2.5905   24.5475 H   0  0  0  0  0  0  0  0  0  0  0  0
    8.4996   -2.4490   22.0564 H   0  0  0  0  0  0  0  0  0  0  0  0
    5.6439   -1.4774   22.1249 H   0  0  0  0  0  0  0  0  0  0  0  0
    6.4577   -2.4544   20.8925 H   0  0  0  0  0  0  0  0  0  0  0  0
    9.9792   -0.3965   22.6003 C   0  0  0  0  0  0  0  0  0  0  0  0
   10.6215   -1.2859   21.7431 C   0  0  0  0  0  0  0  0  0  0  0  0
   11.9919   -1.3105   21.6792 C   0  0  0  0  0  0  0  0  0  0  0  0
   12.5249   -2.2372   20.8718 F   0  0  0  0  0  0  0  0  0  0  0  0
   12.7926   -0.4337   22.4042 C   0  0  0  0  0  0  0  0  0  0  0  0
   12.1597    0.5078   23.1965 C   0  0  0  0  0  0  0  0  0  0  0  0
   10.7659    0.5475   23.2775 C   0  0  0  0  0  0  0  0  0  0  0  0
   10.1225    1.6854   24.0152 C   0  0  0  0  0  0  0  0  0  0  0  0
   10.7730    2.6001   24.4976 O   0  0  0  0  0  0  0  0  0  0  0  0
   12.7120    1.2531   23.7619 H   0  0  0  0  0  0  0  0  0  0  0  0
   13.8702   -0.4781   22.3160 H   0  0  0  0  0  0  0  0  0  0  0  0
   10.0998   -1.9667   21.0833 H   0  0  0  0  0  0  0  0  0  0  0  0
    6.9724    0.6053   23.8692 H   0  0  0  0  0  0  0  0  0  0  0  0
    8.2317   -0.2750   24.7950 H   0  0  0  0  0  0  0  0  0  0  0  0
    7.3557    2.5430   25.3402 H   0  0  0  0  0  0  0  0  0  0  0  0
    8.7616    3.5173   24.8179 H   0  0  0  0  0  0  0  0  0  0  0  0
    8.6213    3.9847   22.2483 H   0  0  0  0  0  0  0  0  0  0  0  0
    7.3026    4.9433   20.5193 H   0  0  0  0  0  0  0  0  0  0  0  0
    6.2118    3.5718   20.9127 H   0  0  0  0  0  0  0  0  0  0  0  0
    5.9905    5.1430   21.6887 H   0  0  0  0  0  0  0  0  0  0  0  0
  1  2  1  0
  2  3  1  0
  3  4  2  0
  3  5  1  0
  5  6  1  0
  6  7  1  0
  8  7  1  1
  8  9  1  0
  9 10  2  0
  9 11  1  0
 11 12  1  0
 12 13  2  0
 13 14  1  0
 14 15  2  0
 15 16  1  0
 16 17  2  0
 17 18  1  0
 18 19  2  0
 19 20  1  0
 20 21  2  0
 20 22  1  0
 19 23  1  0
 18 24  1  0
 17 25  1  0
 15 26  1  0
 13 27  1  0
 11 28  1  0
 28 29  1  0
 29 30  1  0
 30 31  1  0
 30 32  1  0
 30 33  1  0
 29 34  1  6
 28 35  1  0
 28 36  1  0
  8 37  1  0
 37 38  2  0
 38 39  1  0
 39 40  1  0
 39 41  2  0
 41 42  1  0
 42 43  2  0
 43 44  1  0
 44 45  2  0
 42 46  1  0
 41 47  1  0
 38 48  1  0
  7 49  1  0
  7 50  1  0
  5 51  1  0
  5 52  1  0
  2 53  1  0
  1 54  1  0
  1 55  1  0
  1 56  1  0
 44  6  1  0
 29  8  1  0
 43 37  1  0
 21 12  1  0
 21 16  1  0
M  END
>  <cnnaffinities>  (48) 
[5.87922]

>  <score>  (48) 
5.87922

>  <index>  (48) 
47

>  <Smiles>  (48) 
C(N(C(=O)C(N1C([C@@]2(C(=O)N(c3c(nc(c4c(c(c(c(c34)[H])[H])[H])[H])[H])[H])C([C@@]2(C([H])([H])[H])[H])([H])[H])c2c(c(F)c(c(c2C1=O)[H])[H])[H])([H])[H])([H])[H])[H])([H])([H])[H]

>  <h>  (48) 
<NA>

>  <Training>  (48) 
True

>  <Success>  (48) 
True

>  <enamine_searched>  (48) 
False

>  <enamine_id>  (48) 
nan

$$$$

     RDKit          3D

 41 43  0  0  0  0  0  0  0  0999 V2000
   12.3434   -1.3467   22.1017 C   0  0  0  0  0  0  0  0  0  0  0  0
   11.0304   -0.6310   22.3419 C   0  0  1  0  0  0  0  0  0  0  0  0
    9.9034   -1.6087   22.6915 C   0  0  0  0  0  0  0  0  0  0  0  0
    8.6664   -0.9402   23.3214 C   0  0  0  0  0  0  0  0  0  0  0  0
    8.3501    0.3970   22.8177 N   0  0  0  0  0  0  0  0  0  0  0  0
    7.8713    0.6133   21.5381 C   0  0  0  0  0  0  0  0  0  0  0  0
    8.1291    1.6352   20.9258 O   0  0  0  0  0  0  0  0  0  0  0  0
    6.9471   -0.4550   20.9117 C   0  0  0  0  0  0  0  0  0  0  0  0
    6.1144    0.0837   19.7700 C   0  0  0  0  0  0  0  0  0  0  0  0
    6.4268   -0.2068   18.4664 C   0  0  0  0  0  0  0  0  0  0  0  0
    5.7619    0.2426   17.3668 N   0  0  0  0  0  0  0  0  0  0  0  0
    4.7349    1.0299   17.5764 C   0  0  0  0  0  0  0  0  0  0  0  0
    4.2881    1.4223   18.8688 C   0  0  0  0  0  0  0  0  0  0  0  0
    3.1673    2.2755   19.0451 C   0  0  0  0  0  0  0  0  0  0  0  0
    2.7648    2.6458   20.2998 C   0  0  0  0  0  0  0  0  0  0  0  0
    3.4655    2.1718   21.4310 C   0  0  0  0  0  0  0  0  0  0  0  0
    4.5514    1.3419   21.2874 C   0  0  0  0  0  0  0  0  0  0  0  0
    4.9964    0.9443   19.9982 C   0  0  0  0  0  0  0  0  0  0  0  0
    5.0808    0.9899   22.1676 H   0  0  0  0  0  0  0  0  0  0  0  0
    3.1404    2.4696   22.4225 H   0  0  0  0  0  0  0  0  0  0  0  0
    1.9132    3.3078   20.4346 H   0  0  0  0  0  0  0  0  0  0  0  0
    2.6466    2.6469   18.1651 H   0  0  0  0  0  0  0  0  0  0  0  0
    4.1991    1.3990   16.6996 H   0  0  0  0  0  0  0  0  0  0  0  0
    7.2732   -0.8546   18.2438 H   0  0  0  0  0  0  0  0  0  0  0  0
    6.2922   -0.8954   21.6756 H   0  0  0  0  0  0  0  0  0  0  0  0
    7.5769   -1.2739   20.5363 H   0  0  0  0  0  0  0  0  0  0  0  0
    9.0753    1.4950   23.4616 C   0  0  0  0  0  0  0  0  0  0  0  0
   10.5746    1.5632   23.1567 C   0  0  0  0  0  0  0  0  0  0  0  0
   11.2411    0.3361   23.3639 O   0  0  0  0  0  0  0  0  0  0  0  0
   11.0614    2.2949   23.8207 H   0  0  0  0  0  0  0  0  0  0  0  0
   10.7288    1.9064   22.1241 H   0  0  0  0  0  0  0  0  0  0  0  0
    8.9599    1.3707   24.5424 H   0  0  0  0  0  0  0  0  0  0  0  0
    8.6038    2.4411   23.1854 H   0  0  0  0  0  0  0  0  0  0  0  0
    8.8280   -0.8419   24.3962 H   0  0  0  0  0  0  0  0  0  0  0  0
    7.7911   -1.5819   23.2010 H   0  0  0  0  0  0  0  0  0  0  0  0
   10.2862   -2.3801   23.3743 H   0  0  0  0  0  0  0  0  0  0  0  0
    9.6156   -2.1346   21.7715 H   0  0  0  0  0  0  0  0  0  0  0  0
   10.7535   -0.0981   21.4268 H   0  0  0  0  0  0  0  0  0  0  0  0
   13.1159   -0.6298   21.8107 H   0  0  0  0  0  0  0  0  0  0  0  0
   12.2354   -2.0805   21.2969 H   0  0  0  0  0  0  0  0  0  0  0  0
   12.6721   -1.8609   23.0085 H   0  0  0  0  0  0  0  0  0  0  0  0
  1  2  1  0
  2  3  1  0
  3  4  1  0
  4  5  1  0
  5  6  1  0
  6  7  2  0
  6  8  1  0
  8  9  1  0
  9 10  2  0
 10 11  1  0
 11 12  2  0
 12 13  1  0
 13 14  2  0
 14 15  1  0
 15 16  2  0
 16 17  1  0
 17 18  2  0
 17 19  1  0
 16 20  1  0
 15 21  1  0
 14 22  1  0
 12 23  1  0
 10 24  1  0
  8 25  1  0
  8 26  1  0
  5 27  1  0
 27 28  1  0
 28 29  1  0
 28 30  1  0
 28 31  1  0
 27 32  1  0
 27 33  1  0
  4 34  1  0
  4 35  1  0
  3 36  1  0
  3 37  1  0
  2 38  1  6
  1 39  1  0
  1 40  1  0
  1 41  1  0
 29  2  1  0
 18  9  1  0
 18 13  1  0
M  END
>  <cnnaffinities>  (49) 
[4.94484, 5.27232]

>  <score>  (49) 
4.94484

>  <index>  (49) 
48

>  <Smiles>  (49) 
C([C@]1(C(C(N(C(=O)C(c2c(nc(c3c(c(c(c(c23)[H])[H])[H])[H])[H])[H])([H])[H])C(C(O1)([H])[H])([H])[H])([H])[H])([H])[H])[H])([H])([H])[H]

>  <h>  (49) 
<NA>

>  <Training>  (49) 
True

>  <Success>  (49) 
True

>  <enamine_searched>  (49) 
False

>  <enamine_id>  (49) 
nan

$$$$

     RDKit          3D

 42 45  0  0  0  0  0  0  0  0999 V2000
   12.3168   -1.1479   22.4387 C   0  0  0  0  0  0  0  0  0  0  0  0
   10.8859   -1.3685   22.6251 N   0  0  0  0  0  0  0  0  0  0  0  0
    9.9170   -0.7188   21.7705 C   0  0  0  0  0  0  0  0  0  0  0  0
    8.7065   -0.2490   22.5848 C   0  0  1  0  0  0  0  0  0  0  0  0
    7.6907    0.4106   21.6524 C   0  0  0  0  0  0  0  0  0  0  0  0
    7.5717    1.6188   21.5930 O   0  0  0  0  0  0  0  0  0  0  0  0
    6.9222   -0.4007   20.8419 N   0  0  0  0  0  0  0  0  0  0  0  0
    6.1269    0.1036   19.7752 C   0  0  0  0  0  0  0  0  0  0  0  0
    6.4303   -0.2220   18.4739 C   0  0  0  0  0  0  0  0  0  0  0  0
    5.7652    0.2359   17.3850 N   0  0  0  0  0  0  0  0  0  0  0  0
    4.7401    1.0321   17.5821 C   0  0  0  0  0  0  0  0  0  0  0  0
    4.2903    1.4176   18.8752 C   0  0  0  0  0  0  0  0  0  0  0  0
    3.1614    2.2627   19.0496 C   0  0  0  0  0  0  0  0  0  0  0  0
    2.7369    2.6028   20.3080 C   0  0  0  0  0  0  0  0  0  0  0  0
    3.4158    2.1018   21.4395 C   0  0  0  0  0  0  0  0  0  0  0  0
    4.5071    1.2805   21.2950 C   0  0  0  0  0  0  0  0  0  0  0  0
    4.9890    0.9339   20.0058 C   0  0  0  0  0  0  0  0  0  0  0  0
    5.0188    0.8924   22.1666 H   0  0  0  0  0  0  0  0  0  0  0  0
    3.0711    2.3649   22.4332 H   0  0  0  0  0  0  0  0  0  0  0  0
    1.8777    3.2537   20.4449 H   0  0  0  0  0  0  0  0  0  0  0  0
    2.6445    2.6432   18.1717 H   0  0  0  0  0  0  0  0  0  0  0  0
    4.2027    1.3974   16.7021 H   0  0  0  0  0  0  0  0  0  0  0  0
    7.2796   -0.8660   18.2518 H   0  0  0  0  0  0  0  0  0  0  0  0
    7.1146   -1.3896   20.8366 H   0  0  0  0  0  0  0  0  0  0  0  0
    8.1681   -1.3483   23.4681 C   0  0  0  0  0  0  0  0  0  0  0  0
    6.8532   -1.3132   23.9397 C   0  0  0  0  0  0  0  0  0  0  0  0
    6.3867   -2.3273   24.7559 C   0  0  0  0  0  0  0  0  0  0  0  0
    4.7410   -2.2812   25.3098 Cl  0  0  0  0  0  0  0  0  0  0  0  0
    7.2137   -3.3759   25.1448 C   0  0  0  0  0  0  0  0  0  0  0  0
    8.5313   -3.3803   24.7118 C   0  0  0  0  0  0  0  0  0  0  0  0
    9.0243   -2.3703   23.8782 C   0  0  0  0  0  0  0  0  0  0  0  0
   10.4881   -2.3507   23.5017 C   0  0  0  0  0  0  0  0  0  0  0  0
   11.2867   -3.1362   23.9849 O   0  0  0  0  0  0  0  0  0  0  0  0
    9.1881   -4.1760   25.0384 H   0  0  0  0  0  0  0  0  0  0  0  0
    6.8211   -4.1546   25.7930 H   0  0  0  0  0  0  0  0  0  0  0  0
    6.1936   -0.4926   23.6765 H   0  0  0  0  0  0  0  0  0  0  0  0
    9.0531    0.5585   23.2336 H   0  0  0  0  0  0  0  0  0  0  0  0
   10.3868    0.1425   21.2953 H   0  0  0  0  0  0  0  0  0  0  0  0
    9.5735   -1.3740   20.9592 H   0  0  0  0  0  0  0  0  0  0  0  0
   12.4862   -0.3851   21.6776 H   0  0  0  0  0  0  0  0  0  0  0  0
   12.8511   -2.0525   22.1355 H   0  0  0  0  0  0  0  0  0  0  0  0
   12.7737   -0.7932   23.3647 H   0  0  0  0  0  0  0  0  0  0  0  0
  1  2  1  0
  2  3  1  0
  3  4  1  0
  4  5  1  0
  5  6  2  0
  5  7  1  0
  7  8  1  0
  8  9  2  0
  9 10  1  0
 10 11  2  0
 11 12  1  0
 12 13  2  0
 13 14  1  0
 14 15  2  0
 15 16  1  0
 16 17  2  0
 16 18  1  0
 15 19  1  0
 14 20  1  0
 13 21  1  0
 11 22  1  0
  9 23  1  0
  7 24  1  0
  4 25  1  0
 25 26  2  0
 26 27  1  0
 27 28  1  0
 27 29  2  0
 29 30  1  0
 30 31  2  0
 31 32  1  0
 32 33  2  0
 30 34  1  0
 29 35  1  0
 26 36  1  0
  4 37  1  1
  3 38  1  0
  3 39  1  0
  1 40  1  0
  1 41  1  0
  1 42  1  0
 32  2  1  0
 17  8  1  0
 31 25  1  0
 17 12  1  0
M  END
>  <cnnaffinities>  (50) 
[5.68109, 5.62139]

>  <score>  (50) 
5.68109

>  <index>  (50) 
49

>  <Smiles>  (50) 
C(N1C([C@@](C(=O)N(c2c(nc(c3c(c(c(c(c23)[H])[H])[H])[H])[H])[H])[H])(c2c(c(Cl)c(c(c2C1=O)[H])[H])[H])[H])([H])[H])([H])([H])[H]

>  <h>  (50) 
<NA>

>  <Training>  (50) 
True

>  <Success>  (50) 
True

>  <enamine_searched>  (50) 
False

>  <enamine_id>  (50) 
nan

$$$$

     RDKit          3D

 38 41  0  0  0  0  0  0  0  0999 V2000
    8.6089    1.2613   20.7272 O   0  0  0  0  0  0  0  0  0  0  0  0
    7.8617    0.6692   21.4847 C   0  0  0  0  0  0  0  0  0  0  0  0
    6.9462   -0.4393   20.9182 C   0  0  0  0  0  0  0  0  0  0  0  0
    6.1084    0.0828   19.7664 C   0  0  0  0  0  0  0  0  0  0  0  0
    6.4263   -0.2068   18.4630 C   0  0  0  0  0  0  0  0  0  0  0  0
    5.7603    0.2430   17.3636 N   0  0  0  0  0  0  0  0  0  0  0  0
    4.7339    1.0303   17.5754 C   0  0  0  0  0  0  0  0  0  0  0  0
    4.2845    1.4213   18.8680 C   0  0  0  0  0  0  0  0  0  0  0  0
    3.1666    2.2772   19.0447 C   0  0  0  0  0  0  0  0  0  0  0  0
    2.7642    2.6472   20.2995 C   0  0  0  0  0  0  0  0  0  0  0  0
    3.4620    2.1701   21.4307 C   0  0  0  0  0  0  0  0  0  0  0  0
    4.5451    1.3368   21.2870 C   0  0  0  0  0  0  0  0  0  0  0  0
    4.9888    0.9399   19.9962 C   0  0  0  0  0  0  0  0  0  0  0  0
    5.0702    0.9868   22.1709 H   0  0  0  0  0  0  0  0  0  0  0  0
    3.1353    2.4663   22.4218 H   0  0  0  0  0  0  0  0  0  0  0  0
    1.9141    3.3103   20.4336 H   0  0  0  0  0  0  0  0  0  0  0  0
    2.6478    2.6497   18.1644 H   0  0  0  0  0  0  0  0  0  0  0  0
    4.1988    1.3998   16.6990 H   0  0  0  0  0  0  0  0  0  0  0  0
    7.2735   -0.8563   18.2459 H   0  0  0  0  0  0  0  0  0  0  0  0
    6.3021   -0.8994   21.6750 H   0  0  0  0  0  0  0  0  0  0  0  0
    7.6002   -1.2301   20.5331 H   0  0  0  0  0  0  0  0  0  0  0  0
    7.7610    1.0119   22.8226 N   0  0  0  0  0  0  0  0  0  0  0  0
    8.3087    2.3207   23.2107 C   0  0  0  0  0  0  0  0  0  0  0  0
    7.6732    2.8473   24.4954 C   0  0  0  0  0  0  0  0  0  0  0  0
    7.7411    1.7977   25.5555 C   0  0  0  0  0  0  0  0  0  0  0  0
    7.8276    2.0683   27.2613 S   0  0  0  0  0  0  0  0  0  0  0  0
    7.7937    0.3704   27.5682 C   0  0  0  0  0  0  0  0  0  0  0  0
    7.7195   -0.3558   26.4160 C   0  0  0  0  0  0  0  0  0  0  0  0
    7.6944    0.4758   25.2551 C   0  0  0  0  0  0  0  0  0  0  0  0
    7.5144   -0.0073   23.8407 C   0  0  0  0  0  0  0  0  0  0  0  0
    8.1591   -0.8836   23.6959 H   0  0  0  0  0  0  0  0  0  0  0  0
    6.4903   -0.3918   23.7485 H   0  0  0  0  0  0  0  0  0  0  0  0
    7.6707   -1.4417   26.3966 H   0  0  0  0  0  0  0  0  0  0  0  0
    7.8340    0.0043   28.5860 H   0  0  0  0  0  0  0  0  0  0  0  0
    8.1613    3.7697   24.8194 H   0  0  0  0  0  0  0  0  0  0  0  0
    6.6217    3.1047   24.3139 H   0  0  0  0  0  0  0  0  0  0  0  0
    9.3972    2.2732   23.3357 H   0  0  0  0  0  0  0  0  0  0  0  0
    8.1181    3.0167   22.3921 H   0  0  0  0  0  0  0  0  0  0  0  0
  1  2  2  0
  2  3  1  0
  3  4  1  0
  4  5  2  0
  5  6  1  0
  6  7  2  0
  7  8  1  0
  8  9  2  0
  9 10  1  0
 10 11  2  0
 11 12  1  0
 12 13  2  0
 12 14  1  0
 11 15  1  0
 10 16  1  0
  9 17  1  0
  7 18  1  0
  5 19  1  0
  3 20  1  0
  3 21  1  0
  2 22  1  0
 22 23  1  0
 23 24  1  0
 24 25  1  0
 25 26  1  0
 26 27  1  0
 27 28  2  0
 28 29  1  0
 29 30  1  0
 30 31  1  0
 30 32  1  0
 28 33  1  0
 27 34  1  0
 24 35  1  0
 24 36  1  0
 23 37  1  0
 23 38  1  0
 13  4  1  0
 30 22  1  0
 13  8  1  0
 29 25  2  0
M  END
>  <cnnaffinities>  (51) 
[4.59844, 4.71661, 4.86877]

>  <score>  (51) 
4.59844

>  <index>  (51) 
50

>  <Smiles>  (51) 
O=C(C(c1c(nc(c2c(c(c(c(c12)[H])[H])[H])[H])[H])[H])([H])[H])N1C(C(c2sc(c(c2C1([H])[H])[H])[H])([H])[H])([H])[H]

>  <h>  (51) 
<NA>

>  <Training>  (51) 
True

>  <Success>  (51) 
True

>  <enamine_searched>  (51) 
False

>  <enamine_id>  (51) 
nan

$$$$

     RDKit          3D

 67 73  0  0  0  0  0  0  0  0999 V2000
    7.9096   -9.4606   23.4495 C   0  0  0  0  0  0  0  0  0  0  0  0
    7.5140   -8.1665   22.8212 C   0  0  0  0  0  0  0  0  0  0  0  0
    8.2076   -7.6353   21.8889 N   0  0  0  0  0  0  0  0  0  0  0  0
    7.6419   -6.4173   21.5795 N   0  0  0  0  0  0  0  0  0  0  0  0
    6.6249   -6.2965   22.3503 C   0  0  0  0  0  0  0  0  0  0  0  0
    5.7353   -5.1010   22.4030 C   0  0  0  0  0  0  0  0  0  0  0  0
    6.2918   -4.0213   23.2006 N   0  0  0  0  0  0  0  0  0  0  0  0
    7.4852   -3.3143   22.7506 C   0  0  0  0  0  0  0  0  0  0  0  0
    7.2837   -1.7784   22.8330 C   0  0  2  0  0  0  0  0  0  0  0  0
    6.2620   -1.4072   21.7377 C   0  0  0  0  0  0  0  0  0  0  0  0
    5.1474   -1.8753   21.5985 O   0  0  0  0  0  0  0  0  0  0  0  0
    6.8331   -0.4849   20.8892 N   0  0  0  0  0  0  0  0  0  0  0  0
    6.1221    0.0629   19.8089 C   0  0  0  0  0  0  0  0  0  0  0  0
    6.4985   -0.2123   18.5186 C   0  0  0  0  0  0  0  0  0  0  0  0
    5.8443    0.2330   17.4214 N   0  0  0  0  0  0  0  0  0  0  0  0
    4.7952    0.9939   17.6203 C   0  0  0  0  0  0  0  0  0  0  0  0
    4.3247    1.3883   18.9048 C   0  0  0  0  0  0  0  0  0  0  0  0
    3.1969    2.2345   19.0550 C   0  0  0  0  0  0  0  0  0  0  0  0
    2.7981    2.6429   20.2976 C   0  0  0  0  0  0  0  0  0  0  0  0
    3.5044    2.2200   21.4466 C   0  0  0  0  0  0  0  0  0  0  0  0
    4.5900    1.3877   21.3302 C   0  0  0  0  0  0  0  0  0  0  0  0
    5.0129    0.9335   20.0460 C   0  0  0  0  0  0  0  0  0  0  0  0
    5.1322    1.0609   22.2160 H   0  0  0  0  0  0  0  0  0  0  0  0
    3.1798    2.5534   22.4275 H   0  0  0  0  0  0  0  0  0  0  0  0
    1.9428    3.3036   20.4047 H   0  0  0  0  0  0  0  0  0  0  0  0
    2.6868    2.5675   18.1568 H   0  0  0  0  0  0  0  0  0  0  0  0
    4.2648    1.3402   16.7353 H   0  0  0  0  0  0  0  0  0  0  0  0
    7.3566   -0.8548   18.3260 H   0  0  0  0  0  0  0  0  0  0  0  0
    8.2781   -0.4640   20.9858 C   0  0  0  0  0  0  0  0  0  0  0  0
    8.5371   -0.9508   22.4166 C   0  0  2  0  0  0  0  0  0  0  0  0
    9.9040   -1.6215   22.5121 C   0  0  0  0  0  0  0  0  0  0  0  0
   10.1543   -2.1294   23.8358 N   0  0  0  0  0  0  0  0  0  0  0  0
   11.3307   -2.6927   24.2048 C   0  0  0  0  0  0  0  0  0  0  0  0
   12.4918   -2.5505   23.4224 C   0  0  0  0  0  0  0  0  0  0  0  0
   13.6660   -2.9516   24.0123 C   0  0  0  0  0  0  0  0  0  0  0  0
   13.7233   -3.5905   25.1907 N   0  0  0  0  0  0  0  0  0  0  0  0
   12.5465   -3.7921   25.7741 C   0  0  0  0  0  0  0  0  0  0  0  0
   11.3550   -3.3552   25.3734 N   0  0  0  0  0  0  0  0  0  0  0  0
   12.5517   -4.4010   26.6802 H   0  0  0  0  0  0  0  0  0  0  0  0
   14.6180   -2.7997   23.5003 H   0  0  0  0  0  0  0  0  0  0  0  0
   12.4882   -2.0957   22.4359 H   0  0  0  0  0  0  0  0  0  0  0  0
    9.4189   -2.1431   24.5240 H   0  0  0  0  0  0  0  0  0  0  0  0
   10.6774   -0.8859   22.2540 H   0  0  0  0  0  0  0  0  0  0  0  0
    9.9781   -2.4162   21.7523 H   0  0  0  0  0  0  0  0  0  0  0  0
    8.5509   -0.0767   23.0695 H   0  0  0  0  0  0  0  0  0  0  0  0
    8.7385   -1.1427   20.2498 H   0  0  0  0  0  0  0  0  0  0  0  0
    8.6564    0.5490   20.8055 H   0  0  0  0  0  0  0  0  0  0  0  0
    6.7463   -1.4323   24.2219 C   0  0  0  0  0  0  0  0  0  0  0  0
    6.7862   -0.1236   24.7307 C   0  0  0  0  0  0  0  0  0  0  0  0
    6.3155    0.1365   26.0072 C   0  0  0  0  0  0  0  0  0  0  0  0
    6.3747    1.7667   26.6239 Cl  0  0  0  0  0  0  0  0  0  0  0  0
    5.8086   -0.8726   26.8265 C   0  0  0  0  0  0  0  0  0  0  0  0
    5.6648   -2.1377   26.2932 C   0  0  0  0  0  0  0  0  0  0  0  0
    6.0800   -2.3978   24.9863 C   0  0  0  0  0  0  0  0  0  0  0  0
    5.6660   -3.6958   24.3741 C   0  0  0  0  0  0  0  0  0  0  0  0
    4.7987   -4.3982   24.8734 O   0  0  0  0  0  0  0  0  0  0  0  0
    5.2086   -2.9390   26.8668 H   0  0  0  0  0  0  0  0  0  0  0  0
    5.5162   -0.6520   27.8474 H   0  0  0  0  0  0  0  0  0  0  0  0
    7.1663    0.7051   24.1423 H   0  0  0  0  0  0  0  0  0  0  0  0
    7.6781   -3.6007   21.7147 H   0  0  0  0  0  0  0  0  0  0  0  0
    8.3592   -3.6164   23.3397 H   0  0  0  0  0  0  0  0  0  0  0  0
    4.7789   -5.3744   22.8491 H   0  0  0  0  0  0  0  0  0  0  0  0
    5.5880   -4.7422   21.3742 H   0  0  0  0  0  0  0  0  0  0  0  0
    6.4461   -7.3822   23.1502 O   0  0  0  0  0  0  0  0  0  0  0  0
    8.7138   -9.3058   24.1773 H   0  0  0  0  0  0  0  0  0  0  0  0
    7.0938   -9.9892   23.9227 H   0  0  0  0  0  0  0  0  0  0  0  0
    8.3394  -10.0674   22.6531 H   0  0  0  0  0  0  0  0  0  0  0  0
  1  2  1  0
  2  3  2  0
  3  4  1  0
  4  5  2  0
  5  6  1  0
  6  7  1  0
  7  8  1  0
  9  8  1  1
  9 10  1  0
 10 11  2  0
 10 12  1  0
 12 13  1  0
 13 14  2  0
 14 15  1  0
 15 16  2  0
 16 17  1  0
 17 18  2  0
 18 19  1  0
 19 20  2  0
 20 21  1  0
 21 22  2  0
 21 23  1  0
 20 24  1  0
 19 25  1  0
 18 26  1  0
 16 27  1  0
 14 28  1  0
 12 29  1  0
 29 30  1  0
 30 31  1  0
 31 32  1  0
 32 33  1  0
 33 34  2  0
 34 35  1  0
 35 36  2  0
 36 37  1  0
 37 38  2  0
 37 39  1  0
 35 40  1  0
 34 41  1  0
 32 42  1  0
 31 43  1  0
 31 44  1  0
 30 45  1  1
 29 46  1  0
 29 47  1  0
  9 48  1  0
 48 49  2  0
 49 50  1  0
 50 51  1  0
 50 52  2  0
 52 53  1  0
 53 54  2  0
 54 55  1  0
 55 56  2  0
 53 57  1  0
 52 58  1  0
 49 59  1  0
  8 60  1  0
  8 61  1  0
  6 62  1  0
  6 63  1  0
  5 64  1  0
  1 65  1  0
  1 66  1  0
  1 67  1  0
 64  2  1  0
 55  7  1  0
 30  9  1  0
 38 33  1  0
 54 48  1  0
 22 13  1  0
 22 17  1  0
M  END
>  <cnnaffinities>  (52) 
[7.562, 6.20808, 6.69505]

>  <score>  (52) 
7.562

>  <index>  (52) 
51

>  <Smiles>  (52) 
C(c1nnc(C(N2C([C@@]3(C(=O)N(c4c(nc(c5c(c(c(c(c45)[H])[H])[H])[H])[H])[H])C([C@@]3(C(N(c3c(c(nc(n3)[H])[H])[H])[H])([H])[H])[H])([H])[H])c3c(c(Cl)c(c(c3C2=O)[H])[H])[H])([H])[H])([H])[H])o1)([H])([H])[H]

>  <h>  (52) 
<NA>

>  <Training>  (52) 
True

>  <Success>  (52) 
True

>  <enamine_searched>  (52) 
False

>  <enamine_id>  (52) 
nan

$$$$

     RDKit          3D

 66 71  0  0  0  0  0  0  0  0999 V2000
    6.6289    4.3740   21.3370 C   0  0  0  0  0  0  0  0  0  0  0  0
    7.6173    4.0177   22.3476 N   0  0  0  0  0  0  0  0  0  0  0  0
    7.1355    3.3328   23.4266 C   0  0  0  0  0  0  0  0  0  0  0  0
    5.9380    3.1416   23.5875 O   0  0  0  0  0  0  0  0  0  0  0  0
    8.1225    2.8122   24.4710 C   0  0  0  0  0  0  0  0  0  0  0  0
    8.8045    1.6237   24.0001 N   0  0  0  0  0  0  0  0  0  0  0  0
    8.0300    0.3992   23.8938 C   0  0  0  0  0  0  0  0  0  0  0  0
    8.4364   -0.4134   22.6535 C   0  0  2  0  0  0  0  0  0  0  0  0
    7.9589    0.2758   21.3530 C   0  0  0  0  0  0  0  0  0  0  0  0
    8.4228    1.2746   20.8376 O   0  0  0  0  0  0  0  0  0  0  0  0
    6.9067   -0.4456   20.8453 N   0  0  0  0  0  0  0  0  0  0  0  0
    6.1327    0.0758   19.7775 C   0  0  0  0  0  0  0  0  0  0  0  0
    6.4794   -0.2131   18.4839 C   0  0  0  0  0  0  0  0  0  0  0  0
    5.8065    0.2290   17.3935 N   0  0  0  0  0  0  0  0  0  0  0  0
    4.7692    1.0033   17.6031 C   0  0  0  0  0  0  0  0  0  0  0  0
    4.3101    1.3941   18.8931 C   0  0  0  0  0  0  0  0  0  0  0  0
    3.1895    2.2478   19.0672 C   0  0  0  0  0  0  0  0  0  0  0  0
    2.7849    2.6218   20.3187 C   0  0  0  0  0  0  0  0  0  0  0  0
    3.4797    2.1608   21.4602 C   0  0  0  0  0  0  0  0  0  0  0  0
    4.5649    1.3280   21.3194 C   0  0  0  0  0  0  0  0  0  0  0  0
    5.0087    0.9195   20.0293 C   0  0  0  0  0  0  0  0  0  0  0  0
    5.1112    1.0165   22.2056 H   0  0  0  0  0  0  0  0  0  0  0  0
    3.1712    2.4816   22.4508 H   0  0  0  0  0  0  0  0  0  0  0  0
    1.9301    3.2802   20.4401 H   0  0  0  0  0  0  0  0  0  0  0  0
    2.6786    2.6105   18.1787 H   0  0  0  0  0  0  0  0  0  0  0  0
    4.2238    1.3625   16.7282 H   0  0  0  0  0  0  0  0  0  0  0  0
    7.3470   -0.8406   18.2921 H   0  0  0  0  0  0  0  0  0  0  0  0
    6.5305   -1.5923   21.6496 C   0  0  0  0  0  0  0  0  0  0  0  0
    7.7379   -1.8035   22.5711 C   0  0  2  0  0  0  0  0  0  0  0  0
    7.3555   -2.5113   23.8685 C   0  0  0  0  0  0  0  0  0  0  0  0
    8.5143   -2.8600   24.6620 N   0  0  0  0  0  0  0  0  0  0  0  0
    8.3894   -3.4437   25.8829 C   0  0  0  0  0  0  0  0  0  0  0  0
    9.5151   -3.8014   26.6525 C   0  0  0  0  0  0  0  0  0  0  0  0
    9.2748   -4.3035   27.9084 C   0  0  0  0  0  0  0  0  0  0  0  0
    8.0427   -4.5130   28.3978 N   0  0  0  0  0  0  0  0  0  0  0  0
    7.0640   -4.1800   27.5743 C   0  0  0  0  0  0  0  0  0  0  0  0
    7.1508   -3.6624   26.3474 N   0  0  0  0  0  0  0  0  0  0  0  0
    6.0514   -4.3520   27.9404 H   0  0  0  0  0  0  0  0  0  0  0  0
   10.1001   -4.5517   28.5757 H   0  0  0  0  0  0  0  0  0  0  0  0
   10.5276   -3.6561   26.2889 H   0  0  0  0  0  0  0  0  0  0  0  0
    9.4374   -2.6487   24.3112 H   0  0  0  0  0  0  0  0  0  0  0  0
    6.8118   -3.4338   23.6319 H   0  0  0  0  0  0  0  0  0  0  0  0
    6.6777   -1.8915   24.4718 H   0  0  0  0  0  0  0  0  0  0  0  0
    8.4329   -2.4758   22.0582 H   0  0  0  0  0  0  0  0  0  0  0  0
    6.3481   -2.4607   21.0113 H   0  0  0  0  0  0  0  0  0  0  0  0
    5.6117   -1.4018   22.2262 H   0  0  0  0  0  0  0  0  0  0  0  0
    9.9407   -0.4783   22.6074 C   0  0  0  0  0  0  0  0  0  0  0  0
   10.5126   -1.3554   21.6919 C   0  0  0  0  0  0  0  0  0  0  0  0
   11.8761   -1.3727   21.5145 C   0  0  0  0  0  0  0  0  0  0  0  0
   12.4696   -2.3998   20.2523 Cl  0  0  0  0  0  0  0  0  0  0  0  0
   12.7344   -0.5752   22.2750 C   0  0  0  0  0  0  0  0  0  0  0  0
   12.1682    0.3397   23.1453 C   0  0  0  0  0  0  0  0  0  0  0  0
   10.7777    0.4287   23.2659 C   0  0  0  0  0  0  0  0  0  0  0  0
   10.1754    1.5993   23.9799 C   0  0  0  0  0  0  0  0  0  0  0  0
   10.8534    2.4994   24.4574 O   0  0  0  0  0  0  0  0  0  0  0  0
   12.7834    1.0330   23.7110 H   0  0  0  0  0  0  0  0  0  0  0  0
   13.8113   -0.6507   22.1536 H   0  0  0  0  0  0  0  0  0  0  0  0
    9.9102   -2.0111   21.0736 H   0  0  0  0  0  0  0  0  0  0  0  0
    8.1814   -0.2136   24.7924 H   0  0  0  0  0  0  0  0  0  0  0  0
    6.9719    0.6636   23.8456 H   0  0  0  0  0  0  0  0  0  0  0  0
    8.8933    3.5498   24.7169 H   0  0  0  0  0  0  0  0  0  0  0  0
    7.5281    2.5758   25.3682 H   0  0  0  0  0  0  0  0  0  0  0  0
    8.5616    3.8362   22.0214 H   0  0  0  0  0  0  0  0  0  0  0  0
    7.1274    4.9254   20.5384 H   0  0  0  0  0  0  0  0  0  0  0  0
    6.1469    3.4639   20.9430 H   0  0  0  0  0  0  0  0  0  0  0  0
    5.8706    5.0178   21.7988 H   0  0  0  0  0  0  0  0  0  0  0  0
  1  2  1  0
  2  3  1  0
  3  4  2  0
  3  5  1  0
  5  6  1  0
  6  7  1  0
  8  7  1  1
  8  9  1  0
  9 10  2  0
  9 11  1  0
 11 12  1  0
 12 13  2  0
 13 14  1  0
 14 15  2  0
 15 16  1  0
 16 17  2  0
 17 18  1  0
 18 19  2  0
 19 20  1  0
 20 21  2  0
 20 22  1  0
 19 23  1  0
 18 24  1  0
 17 25  1  0
 15 26  1  0
 13 27  1  0
 11 28  1  0
 28 29  1  0
 29 30  1  0
 30 31  1  0
 31 32  1  0
 32 33  2  0
 33 34  1  0
 34 35  2  0
 35 36  1  0
 36 37  2  0
 36 38  1  0
 34 39  1  0
 33 40  1  0
 31 41  1  0
 30 42  1  0
 30 43  1  0
 29 44  1  6
 28 45  1  0
 28 46  1  0
  8 47  1  0
 47 48  2  0
 48 49  1  0
 49 50  1  0
 49 51  2  0
 51 52  1  0
 52 53  2  0
 53 54  1  0
 54 55  2  0
 52 56  1  0
 51 57  1  0
 48 58  1  0
  7 59  1  0
  7 60  1  0
  5 61  1  0
  5 62  1  0
  2 63  1  0
  1 64  1  0
  1 65  1  0
  1 66  1  0
 54  6  1  0
 29  8  1  0
 37 32  1  0
 53 47  1  0
 21 12  1  0
 21 16  1  0
M  END
>  <cnnaffinities>  (53) 
[6.19825, 6.6897]

>  <score>  (53) 
6.19825

>  <index>  (53) 
52

>  <Smiles>  (53) 
C(N(C(=O)C(N1C([C@@]2(C(=O)N(c3c(nc(c4c(c(c(c(c34)[H])[H])[H])[H])[H])[H])C([C@@]2(C(N(c2c(c(nc(n2)[H])[H])[H])[H])([H])[H])[H])([H])[H])c2c(c(Cl)c(c(c2C1=O)[H])[H])[H])([H])[H])([H])[H])[H])([H])([H])[H]

>  <h>  (53) 
<NA>

>  <Training>  (53) 
True

>  <Success>  (53) 
True

>  <enamine_searched>  (53) 
False

>  <enamine_id>  (53) 
nan

$$$$

     RDKit          3D

 77 84  0  0  0  0  0  0  0  0999 V2000
    8.9480    2.3509   25.9012 O   0  0  0  0  0  0  0  0  0  0  0  0
    8.7566    1.5473   24.9821 C   0  0  0  0  0  0  0  0  0  0  0  0
    9.8452    0.8307   24.2359 C   0  0  0  0  0  0  0  0  0  0  0  0
   11.1606    1.1876   24.5075 C   0  0  0  0  0  0  0  0  0  0  0  0
   12.1890    0.7965   23.6812 C   0  0  0  0  0  0  0  0  0  0  0  0
   11.8636    0.0234   22.5727 C   0  0  0  0  0  0  0  0  0  0  0  0
   13.1176   -0.2359   21.4094 Cl  0  0  0  0  0  0  0  0  0  0  0  0
   10.5880   -0.4584   22.3450 C   0  0  0  0  0  0  0  0  0  0  0  0
    9.5409   -0.0632   23.1908 C   0  0  0  0  0  0  0  0  0  0  0  0
    8.1054   -0.4287   22.8559 C   0  0  1  0  0  0  0  0  0  0  0  0
    7.2310   -0.0920   24.0837 C   0  0  0  0  0  0  0  0  0  0  0  0
    7.5033    1.2588   24.5367 N   0  0  0  0  0  0  0  0  0  0  0  0
    6.4124    2.1190   24.9495 C   0  0  0  0  0  0  0  0  0  0  0  0
    5.7833    1.6985   26.2647 C   0  0  0  0  0  0  0  0  0  0  0  0
    6.7545    1.8538   27.3921 N   0  0  0  0  0  4  0  0  0  0  0  0
    7.6832    0.6820   27.8145 C   0  0  0  0  0  0  0  0  0  0  0  0
    6.9607    0.5370   29.1566 C   0  0  0  0  0  0  0  0  0  0  0  0
    6.3164   -0.7921   29.5072 C   0  0  0  0  0  0  0  0  0  0  0  0
    6.8035   -0.7163   30.8503 O   0  0  0  0  0  0  0  0  0  0  0  0
    7.6050    0.4283   30.5349 C   0  0  0  0  0  0  0  0  0  0  0  0
    8.6784    0.1903   30.5352 H   0  0  0  0  0  0  0  0  0  0  0  0
    7.4177    1.2713   31.2124 H   0  0  0  0  0  0  0  0  0  0  0  0
    5.2235   -0.8537   29.4401 H   0  0  0  0  0  0  0  0  0  0  0  0
    6.7683   -1.6336   28.9631 H   0  0  0  0  0  0  0  0  0  0  0  0
    6.1313    1.7712   28.7633 C   0  0  0  0  0  0  0  0  0  0  0  0
    5.0568    1.6020   28.6969 H   0  0  0  0  0  0  0  0  0  0  0  0
    6.3229    2.6779   29.3256 H   0  0  0  0  0  0  0  0  0  0  0  0
    7.6290   -0.1640   27.1313 H   0  0  0  0  0  0  0  0  0  0  0  0
    8.7010    1.0495   27.8934 H   0  0  0  0  0  0  0  0  0  0  0  0
    7.3780    2.6573   27.1976 H   0  0  0  0  0  0  0  0  0  0  0  0
    5.4359    0.6598   26.2134 H   0  0  0  0  0  0  0  0  0  0  0  0
    4.9224    2.3300   26.4896 H   0  0  0  0  0  0  0  0  0  0  0  0
    5.6593    2.1493   24.1529 H   0  0  0  0  0  0  0  0  0  0  0  0
    6.8234    3.1275   25.0333 H   0  0  0  0  0  0  0  0  0  0  0  0
    7.4711   -0.7998   24.8926 H   0  0  0  0  0  0  0  0  0  0  0  0
    6.1659   -0.1900   23.8491 H   0  0  0  0  0  0  0  0  0  0  0  0
    7.6279    0.4093   21.6478 C   0  0  0  0  0  0  0  0  0  0  0  0
    7.8191    1.5888   21.4583 O   0  0  0  0  0  0  0  0  0  0  0  0
    6.9262   -0.4119   20.7878 N   0  0  0  0  0  0  0  0  0  0  0  0
    6.1385    0.1079   19.7373 C   0  0  0  0  0  0  0  0  0  0  0  0
    6.4427   -0.2331   18.4464 C   0  0  0  0  0  0  0  0  0  0  0  0
    5.7709    0.2153   17.3589 N   0  0  0  0  0  0  0  0  0  0  0  0
    4.7550    1.0177   17.5686 C   0  0  0  0  0  0  0  0  0  0  0  0
    4.3048    1.4120   18.8603 C   0  0  0  0  0  0  0  0  0  0  0  0
    3.1758    2.2546   19.0352 C   0  0  0  0  0  0  0  0  0  0  0  0
    2.7447    2.5925   20.2872 C   0  0  0  0  0  0  0  0  0  0  0  0
    3.4128    2.0935   21.4279 C   0  0  0  0  0  0  0  0  0  0  0  0
    4.5070    1.2802   21.2845 C   0  0  0  0  0  0  0  0  0  0  0  0
    4.9995    0.9368   19.9917 C   0  0  0  0  0  0  0  0  0  0  0  0
    5.0077    0.8884   22.1650 H   0  0  0  0  0  0  0  0  0  0  0  0
    3.0601    2.3614   22.4202 H   0  0  0  0  0  0  0  0  0  0  0  0
    1.8882    3.2479   20.4136 H   0  0  0  0  0  0  0  0  0  0  0  0
    2.6795    2.6343   18.1460 H   0  0  0  0  0  0  0  0  0  0  0  0
    4.2192    1.3890   16.6932 H   0  0  0  0  0  0  0  0  0  0  0  0
    7.2868   -0.8952   18.2531 H   0  0  0  0  0  0  0  0  0  0  0  0
    6.6879   -1.7292   21.3356 C   0  0  0  0  0  0  0  0  0  0  0  0
    7.8536   -1.8686   22.3181 C   0  0  2  0  0  0  0  0  0  0  0  0
    7.7179   -3.0236   23.3232 C   0  0  0  0  0  0  0  0  0  0  0  0
    6.4334   -3.1719   23.9861 N   0  0  0  0  0  0  0  0  0  0  0  0
    5.4161   -3.9459   23.5153 C   0  0  0  0  0  0  0  0  0  0  0  0
    4.2801   -3.9588   24.2412 N   0  0  0  0  0  0  0  0  0  0  0  0
    3.2900   -4.6855   23.7407 C   0  0  0  0  0  0  0  0  0  0  0  0
    3.3892   -5.4113   22.5576 C   0  0  0  0  0  0  0  0  0  0  0  0
    4.6180   -5.3435   21.9211 C   0  0  0  0  0  0  0  0  0  0  0  0
    5.6317   -4.6089   22.3671 N   0  0  0  0  0  0  0  0  0  0  0  0
    4.8189   -5.8950   21.0033 H   0  0  0  0  0  0  0  0  0  0  0  0
    2.5664   -5.9975   22.1601 H   0  0  0  0  0  0  0  0  0  0  0  0
    2.3665   -4.6933   24.3186 H   0  0  0  0  0  0  0  0  0  0  0  0
    6.2311   -2.6588   24.8298 H   0  0  0  0  0  0  0  0  0  0  0  0
    7.9063   -3.9626   22.8032 H   0  0  0  0  0  0  0  0  0  0  0  0
    8.4919   -2.9114   24.0909 H   0  0  0  0  0  0  0  0  0  0  0  0
    8.7328   -2.0963   21.7064 H   0  0  0  0  0  0  0  0  0  0  0  0
    5.7081   -1.7815   21.8303 H   0  0  0  0  0  0  0  0  0  0  0  0
    6.6932   -2.4877   20.5522 H   0  0  0  0  0  0  0  0  0  0  0  0
   10.4229   -1.1300   21.5029 H   0  0  0  0  0  0  0  0  0  0  0  0
   13.2191    1.1026   23.8448 H   0  0  0  0  0  0  0  0  0  0  0  0
   11.3294    1.8309   25.3474 H   0  0  0  0  0  0  0  0  0  0  0  0
  1  2  2  0
  2  3  1  0
  3  4  2  0
  4  5  1  0
  5  6  2  0
  6  7  1  0
  6  8  1  0
  8  9  2  0
  9 10  1  0
 10 11  1  1
 11 12  1  0
 12 13  1  0
 13 14  1  0
 14 15  1  0
 15 16  1  0
 16 17  1  0
 17 18  1  0
 18 19  1  0
 19 20  1  0
 20 21  1  0
 20 22  1  0
 18 23  1  0
 18 24  1  0
 17 25  1  0
 25 26  1  0
 25 27  1  0
 16 28  1  0
 16 29  1  0
 15 30  1  0
 14 31  1  0
 14 32  1  0
 13 33  1  0
 13 34  1  0
 11 35  1  0
 11 36  1  0
 10 37  1  0
 37 38  2  0
 37 39  1  0
 39 40  1  0
 40 41  2  0
 41 42  1  0
 42 43  2  0
 43 44  1  0
 44 45  2  0
 45 46  1  0
 46 47  2  0
 47 48  1  0
 48 49  2  0
 48 50  1  0
 47 51  1  0
 46 52  1  0
 45 53  1  0
 43 54  1  0
 41 55  1  0
 39 56  1  0
 56 57  1  0
 57 58  1  0
 58 59  1  0
 59 60  1  0
 60 61  2  0
 61 62  1  0
 62 63  2  0
 63 64  1  0
 64 65  2  0
 64 66  1  0
 63 67  1  0
 62 68  1  0
 59 69  1  0
 58 70  1  0
 58 71  1  0
 57 72  1  6
 56 73  1  0
 56 74  1  0
  8 75  1  0
  5 76  1  0
  4 77  1  0
 12  2  1  0
 25 15  1  0
 49 40  1  0
 65 60  1  0
  9  3  1  0
 57 10  1  0
 20 17  1  0
 49 44  1  0
M  CHG  1  15   1
M  END
>  <cnnaffinities>  (54) 
[6.47953]

>  <score>  (54) 
6.47953

>  <index>  (54) 
53

>  <Smiles>  (54) 
O=C1c2c(c(c(Cl)c(c2[C@@]2(C(N1C(C([N+]1(C(C3(C(OC3([H])[H])([H])[H])C1([H])[H])([H])[H])[H])([H])[H])([H])[H])([H])[H])C(=O)N(c1c(nc(c3c(c(c(c(c13)[H])[H])[H])[H])[H])[H])C([C@@]2(C(N(c1nc(c(c(n1)[H])[H])[H])[H])([H])[H])[H])([H])[H])[H])[H])[H]

>  <h>  (54) 
<NA>

>  <Training>  (54) 
True

>  <Success>  (54) 
True

>  <enamine_searched>  (54) 
False

>  <enamine_id>  (54) 
nan

$$$$

     RDKit          3D

 66 71  0  0  0  0  0  0  0  0999 V2000
    6.6170    4.3823   21.3280 C   0  0  0  0  0  0  0  0  0  0  0  0
    7.6406    3.9883   22.2836 N   0  0  0  0  0  0  0  0  0  0  0  0
    7.2252    3.3233   23.4032 C   0  0  0  0  0  0  0  0  0  0  0  0
    6.0412    3.1069   23.6237 O   0  0  0  0  0  0  0  0  0  0  0  0
    8.3086    2.8564   24.3840 C   0  0  0  0  0  0  0  0  0  0  0  0
    8.9377    1.6326   23.9214 N   0  0  0  0  0  0  0  0  0  0  0  0
    8.1112    0.4313   23.8289 C   0  0  0  0  0  0  0  0  0  0  0  0
    8.4813   -0.4202   22.5911 C   0  0  2  0  0  0  0  0  0  0  0  0
    7.9976    0.2708   21.2932 C   0  0  0  0  0  0  0  0  0  0  0  0
    8.4829    1.2421   20.7497 O   0  0  0  0  0  0  0  0  0  0  0  0
    6.9061   -0.4155   20.8184 N   0  0  0  0  0  0  0  0  0  0  0  0
    6.1386    0.1026   19.7520 C   0  0  0  0  0  0  0  0  0  0  0  0
    6.4820   -0.1998   18.4608 C   0  0  0  0  0  0  0  0  0  0  0  0
    5.8014    0.2342   17.3742 N   0  0  0  0  0  0  0  0  0  0  0  0
    4.7604    1.0026   17.5932 C   0  0  0  0  0  0  0  0  0  0  0  0
    4.3022    1.3948   18.8840 C   0  0  0  0  0  0  0  0  0  0  0  0
    3.1835    2.2476   19.0645 C   0  0  0  0  0  0  0  0  0  0  0  0
    2.7876    2.6228   20.3189 C   0  0  0  0  0  0  0  0  0  0  0  0
    3.4926    2.1667   21.4557 C   0  0  0  0  0  0  0  0  0  0  0  0
    4.5792    1.3375   21.3105 C   0  0  0  0  0  0  0  0  0  0  0  0
    5.0087    0.9304   20.0145 C   0  0  0  0  0  0  0  0  0  0  0  0
    5.1374    1.0290   22.1909 H   0  0  0  0  0  0  0  0  0  0  0  0
    3.1917    2.4913   22.4467 H   0  0  0  0  0  0  0  0  0  0  0  0
    1.9372    3.2861   20.4439 H   0  0  0  0  0  0  0  0  0  0  0  0
    2.6718    2.6083   18.1781 H   0  0  0  0  0  0  0  0  0  0  0  0
    4.2193    1.3603   16.7194 H   0  0  0  0  0  0  0  0  0  0  0  0
    7.3526   -0.8264   18.2764 H   0  0  0  0  0  0  0  0  0  0  0  0
    6.4926   -1.5338   21.6347 C   0  0  0  0  0  0  0  0  0  0  0  0
    7.7144   -1.7820   22.5220 C   0  0  2  0  0  0  0  0  0  0  0  0
    7.3331   -2.4829   23.8183 C   0  0  0  0  0  0  0  0  0  0  0  0
    8.5134   -2.9902   24.4974 N   0  0  0  0  0  0  0  0  0  0  0  0
    8.4057   -3.4337   25.7923 C   0  0  0  0  0  0  0  0  0  0  0  0
    9.5666   -3.7542   26.5467 C   0  0  0  0  0  0  0  0  0  0  0  0
    9.4952   -4.0074   27.8349 N   0  0  0  0  0  0  0  0  0  0  0  0
    8.2711   -4.0375   28.3825 C   0  0  0  0  0  0  0  0  0  0  0  0
    7.1318   -3.8855   27.6157 C   0  0  0  0  0  0  0  0  0  0  0  0
    7.1840   -3.5706   26.3159 N   0  0  0  0  0  0  0  0  0  0  0  0
    6.1464   -4.0152   28.0627 H   0  0  0  0  0  0  0  0  0  0  0  0
    8.2216   -4.1901   29.4499 H   0  0  0  0  0  0  0  0  0  0  0  0
   10.5589   -3.7672   26.0869 H   0  0  0  0  0  0  0  0  0  0  0  0
    9.4123   -2.6077   24.2209 H   0  0  0  0  0  0  0  0  0  0  0  0
    6.6644   -3.3275   23.6070 H   0  0  0  0  0  0  0  0  0  0  0  0
    6.7568   -1.8062   24.4674 H   0  0  0  0  0  0  0  0  0  0  0  0
    8.3614   -2.4800   21.9877 H   0  0  0  0  0  0  0  0  0  0  0  0
    6.2499   -2.4095   21.0183 H   0  0  0  0  0  0  0  0  0  0  0  0
    5.6048   -1.2846   22.2366 H   0  0  0  0  0  0  0  0  0  0  0  0
    9.9875   -0.5350   22.5023 C   0  0  0  0  0  0  0  0  0  0  0  0
   10.5397   -1.4432   21.5933 C   0  0  0  0  0  0  0  0  0  0  0  0
   11.9039   -1.5017   21.4074 C   0  0  0  0  0  0  0  0  0  0  0  0
   12.4768   -2.5522   20.1471 Cl  0  0  0  0  0  0  0  0  0  0  0  0
   12.7697   -0.6931   22.1445 C   0  0  0  0  0  0  0  0  0  0  0  0
   12.2306    0.2333   23.0191 C   0  0  0  0  0  0  0  0  0  0  0  0
   10.8469    0.3698   23.1402 C   0  0  0  0  0  0  0  0  0  0  0  0
   10.3085    1.5668   23.8681 C   0  0  0  0  0  0  0  0  0  0  0  0
   11.0382    2.4299   24.3375 O   0  0  0  0  0  0  0  0  0  0  0  0
   12.8660    0.8988   23.5944 H   0  0  0  0  0  0  0  0  0  0  0  0
   13.8387   -0.7483   21.9821 H   0  0  0  0  0  0  0  0  0  0  0  0
    9.9322   -2.0717   20.9516 H   0  0  0  0  0  0  0  0  0  0  0  0
    7.0620    0.7403   23.7604 H   0  0  0  0  0  0  0  0  0  0  0  0
    8.2350   -0.1757   24.7409 H   0  0  0  0  0  0  0  0  0  0  0  0
    9.1084    3.5910   24.5249 H   0  0  0  0  0  0  0  0  0  0  0  0
    7.8255    2.7007   25.3562 H   0  0  0  0  0  0  0  0  0  0  0  0
    8.5544    3.7792   21.8999 H   0  0  0  0  0  0  0  0  0  0  0  0
    7.0261    5.0465   20.5629 H   0  0  0  0  0  0  0  0  0  0  0  0
    5.8232    4.9128   21.8544 H   0  0  0  0  0  0  0  0  0  0  0  0
    6.1574    3.5065   20.8535 H   0  0  0  0  0  0  0  0  0  0  0  0
  1  2  1  0
  2  3  1  0
  3  4  2  0
  3  5  1  0
  5  6  1  0
  6  7  1  0
  8  7  1  1
  8  9  1  0
  9 10  2  0
  9 11  1  0
 11 12  1  0
 12 13  2  0
 13 14  1  0
 14 15  2  0
 15 16  1  0
 16 17  2  0
 17 18  1  0
 18 19  2  0
 19 20  1  0
 20 21  2  0
 20 22  1  0
 19 23  1  0
 18 24  1  0
 17 25  1  0
 15 26  1  0
 13 27  1  0
 11 28  1  0
 28 29  1  0
 29 30  1  0
 30 31  1  0
 31 32  1  0
 32 33  2  0
 33 34  1  0
 34 35  2  0
 35 36  1  0
 36 37  2  0
 36 38  1  0
 35 39  1  0
 33 40  1  0
 31 41  1  0
 30 42  1  0
 30 43  1  0
 29 44  1  6
 28 45  1  0
 28 46  1  0
  8 47  1  0
 47 48  2  0
 48 49  1  0
 49 50  1  0
 49 51  2  0
 51 52  1  0
 52 53  2  0
 53 54  1  0
 54 55  2  0
 52 56  1  0
 51 57  1  0
 48 58  1  0
  7 59  1  0
  7 60  1  0
  5 61  1  0
  5 62  1  0
  2 63  1  0
  1 64  1  0
  1 65  1  0
  1 66  1  0
 54  6  1  0
 29  8  1  0
 37 32  1  0
 53 47  1  0
 21 12  1  0
 21 16  1  0
M  END
>  <cnnaffinities>  (55) 
[6.36376, 6.44174]

>  <score>  (55) 
6.36376

>  <index>  (55) 
54

>  <Smiles>  (55) 
C(N(C(=O)C(N1C([C@@]2(C(=O)N(c3c(nc(c4c(c(c(c(c34)[H])[H])[H])[H])[H])[H])C([C@@]2(C(N(c2c(nc(c(n2)[H])[H])[H])[H])([H])[H])[H])([H])[H])c2c(c(Cl)c(c(c2C1=O)[H])[H])[H])([H])[H])([H])[H])[H])([H])([H])[H]

>  <h>  (55) 
<NA>

>  <Training>  (55) 
True

>  <Success>  (55) 
True

>  <enamine_searched>  (55) 
False

>  <enamine_id>  (55) 
nan

$$$$

     RDKit          3D

 56 61  0  0  0  0  0  0  0  0999 V2000
    5.5689    4.8340   21.4547 C   0  0  0  0  0  0  0  0  0  0  0  0
    6.5795    4.5716   22.4625 N   0  0  0  0  0  0  0  0  0  0  0  0
    7.7844    5.1701   22.5696 C   0  0  0  0  0  0  0  0  0  0  0  0
    8.4627    4.5279   23.5785 C   0  0  0  0  0  0  0  0  0  0  0  0
    7.5836    3.5117   24.0093 C   0  0  0  0  0  0  0  0  0  0  0  0
    7.8914    2.4351   25.0235 C   0  0  0  0  0  0  0  0  0  0  0  0
    8.6646    1.3143   24.4868 N   0  0  0  0  0  0  0  0  0  0  0  0
    7.9940    0.0736   24.1551 C   0  0  0  0  0  0  0  0  0  0  0  0
    8.3480   -0.4325   22.7434 C   0  0  1  0  0  0  0  0  0  0  0  0
    7.7321   -1.8343   22.5271 C   0  0  0  0  0  0  0  0  0  0  0  0
    6.9924   -1.8133   21.1757 C   0  0  0  0  0  0  0  0  0  0  0  0
    6.8723   -0.4015   20.8744 N   0  0  0  0  0  0  0  0  0  0  0  0
    6.1299    0.1065   19.7799 C   0  0  0  0  0  0  0  0  0  0  0  0
    6.4470   -0.2253   18.4857 C   0  0  0  0  0  0  0  0  0  0  0  0
    5.7764    0.2228   17.3963 N   0  0  0  0  0  0  0  0  0  0  0  0
    4.7528    1.0184   17.5994 C   0  0  0  0  0  0  0  0  0  0  0  0
    4.2952    1.4202   18.8853 C   0  0  0  0  0  0  0  0  0  0  0  0
    3.1614    2.2590   19.0624 C   0  0  0  0  0  0  0  0  0  0  0  0
    2.7341    2.6025   20.3167 C   0  0  0  0  0  0  0  0  0  0  0  0
    3.4179    2.1173   21.4527 C   0  0  0  0  0  0  0  0  0  0  0  0
    4.5206    1.3125   21.3072 C   0  0  0  0  0  0  0  0  0  0  0  0
    5.0011    0.9526   20.0182 C   0  0  0  0  0  0  0  0  0  0  0  0
    5.0259    0.9361   22.1901 H   0  0  0  0  0  0  0  0  0  0  0  0
    3.0810    2.3902   22.4494 H   0  0  0  0  0  0  0  0  0  0  0  0
    1.8735    3.2523   20.4430 H   0  0  0  0  0  0  0  0  0  0  0  0
    2.6559    2.6314   18.1769 H   0  0  0  0  0  0  0  0  0  0  0  0
    4.2281    1.3809   16.7160 H   0  0  0  0  0  0  0  0  0  0  0  0
    7.2904   -0.8782   18.2645 H   0  0  0  0  0  0  0  0  0  0  0  0
    7.7014    0.4132   21.6157 C   0  0  0  0  0  0  0  0  0  0  0  0
    7.8936    1.5824   21.3739 O   0  0  0  0  0  0  0  0  0  0  0  0
    5.9941   -2.2649   21.2284 H   0  0  0  0  0  0  0  0  0  0  0  0
    7.5570   -2.3284   20.3910 H   0  0  0  0  0  0  0  0  0  0  0  0
    8.4917   -2.6198   22.5699 H   0  0  0  0  0  0  0  0  0  0  0  0
    7.0240   -2.0395   23.3356 H   0  0  0  0  0  0  0  0  0  0  0  0
    9.8463   -0.3734   22.5969 C   0  0  0  0  0  0  0  0  0  0  0  0
   10.4415   -1.1591   21.6157 C   0  0  0  0  0  0  0  0  0  0  0  0
   11.8028   -1.1104   21.4136 C   0  0  0  0  0  0  0  0  0  0  0  0
   12.4464   -2.1784   20.2088 Cl  0  0  0  0  0  0  0  0  0  0  0  0
   12.6138   -0.2445   22.1450 C   0  0  0  0  0  0  0  0  0  0  0  0
   12.0165    0.5722   23.0917 C   0  0  0  0  0  0  0  0  0  0  0  0
   10.6408    0.5201   23.3231 C   0  0  0  0  0  0  0  0  0  0  0  0
   10.0142    1.4833   24.2899 C   0  0  0  0  0  0  0  0  0  0  0  0
   10.6393    2.3866   24.8322 O   0  0  0  0  0  0  0  0  0  0  0  0
   12.5892    1.2838   23.6738 H   0  0  0  0  0  0  0  0  0  0  0  0
   13.6816   -0.2043   21.9580 H   0  0  0  0  0  0  0  0  0  0  0  0
    9.8702   -1.8183   20.9726 H   0  0  0  0  0  0  0  0  0  0  0  0
    8.2545   -0.7218   24.8760 H   0  0  0  0  0  0  0  0  0  0  0  0
    6.9181    0.2619   24.1880 H   0  0  0  0  0  0  0  0  0  0  0  0
    6.9589    2.0343   25.4409 H   0  0  0  0  0  0  0  0  0  0  0  0
    8.4874    2.8648   25.8337 H   0  0  0  0  0  0  0  0  0  0  0  0
    6.4274    3.5706   23.3511 N   0  0  0  0  0  0  0  0  0  0  0  0
    9.4564    4.7055   23.9620 H   0  0  0  0  0  0  0  0  0  0  0  0
    8.0567    5.9778   21.8988 H   0  0  0  0  0  0  0  0  0  0  0  0
    4.5862    4.7736   21.9285 H   0  0  0  0  0  0  0  0  0  0  0  0
    5.7349    5.8460   21.0699 H   0  0  0  0  0  0  0  0  0  0  0  0
    5.6118    4.1006   20.6362 H   0  0  0  0  0  0  0  0  0  0  0  0
  1  2  1  0
  2  3  1  0
  3  4  2  0
  4  5  1  0
  5  6  1  0
  6  7  1  0
  7  8  1  0
  9  8  1  1
  9 10  1  0
 10 11  1  0
 11 12  1  0
 12 13  1  0
 13 14  2  0
 14 15  1  0
 15 16  2  0
 16 17  1  0
 17 18  2  0
 18 19  1  0
 19 20  2  0
 20 21  1  0
 21 22  2  0
 21 23  1  0
 20 24  1  0
 19 25  1  0
 18 26  1  0
 16 27  1  0
 14 28  1  0
 12 29  1  0
 29 30  2  0
 11 31  1  0
 11 32  1  0
 10 33  1  0
 10 34  1  0
  9 35  1  0
 35 36  2  0
 36 37  1  0
 37 38  1  0
 37 39  2  0
 39 40  1  0
 40 41  2  0
 41 42  1  0
 42 43  2  0
 40 44  1  0
 39 45  1  0
 36 46  1  0
  8 47  1  0
  8 48  1  0
  6 49  1  0
  6 50  1  0
  5 51  2  0
  4 52  1  0
  3 53  1  0
  1 54  1  0
  1 55  1  0
  1 56  1  0
 51  2  1  0
 42  7  1  0
 29  9  1  0
 41 35  1  0
 22 13  1  0
 22 17  1  0
M  END
>  <cnnaffinities>  (56) 
[6.12343]

>  <score>  (56) 
6.12343

>  <index>  (56) 
55

>  <Smiles>  (56) 
C(n1c(c(c(C(N2C([C@]3(C(C(N(c4c(nc(c5c(c(c(c(c45)[H])[H])[H])[H])[H])[H])C3=O)([H])[H])([H])[H])c3c(c(Cl)c(c(c3C2=O)[H])[H])[H])([H])[H])([H])[H])n1)[H])[H])([H])([H])[H]

>  <h>  (56) 
<NA>

>  <Training>  (56) 
True

>  <Success>  (56) 
True

>  <enamine_searched>  (56) 
False

>  <enamine_id>  (56) 
nan

$$$$

     RDKit          3D

 41 43  0  0  0  0  0  0  0  0999 V2000
    8.3891    1.4748   20.6689 O   0  0  0  0  0  0  0  0  0  0  0  0
    7.9655    0.6265   21.4262 C   0  0  0  0  0  0  0  0  0  0  0  0
    6.9663   -0.4305   20.9085 C   0  0  0  0  0  0  0  0  0  0  0  0
    6.1115    0.0845   19.7693 C   0  0  0  0  0  0  0  0  0  0  0  0
    6.4257   -0.2073   18.4640 C   0  0  0  0  0  0  0  0  0  0  0  0
    5.7607    0.2414   17.3654 N   0  0  0  0  0  0  0  0  0  0  0  0
    4.7337    1.0304   17.5752 C   0  0  0  0  0  0  0  0  0  0  0  0
    4.2863    1.4224   18.8674 C   0  0  0  0  0  0  0  0  0  0  0  0
    3.1687    2.2780   19.0432 C   0  0  0  0  0  0  0  0  0  0  0  0
    2.7661    2.6479   20.2996 C   0  0  0  0  0  0  0  0  0  0  0  0
    3.4646    2.1698   21.4302 C   0  0  0  0  0  0  0  0  0  0  0  0
    4.5515    1.3374   21.2883 C   0  0  0  0  0  0  0  0  0  0  0  0
    4.9917    0.9398   19.9976 C   0  0  0  0  0  0  0  0  0  0  0  0
    5.0753    0.9846   22.1727 H   0  0  0  0  0  0  0  0  0  0  0  0
    3.1354    2.4664   22.4210 H   0  0  0  0  0  0  0  0  0  0  0  0
    1.9165    3.3117   20.4342 H   0  0  0  0  0  0  0  0  0  0  0  0
    2.6488    2.6510   18.1638 H   0  0  0  0  0  0  0  0  0  0  0  0
    4.1988    1.3997   16.6988 H   0  0  0  0  0  0  0  0  0  0  0  0
    7.2737   -0.8530   18.2434 H   0  0  0  0  0  0  0  0  0  0  0  0
    6.3331   -0.8097   21.7223 H   0  0  0  0  0  0  0  0  0  0  0  0
    7.5525   -1.2859   20.5418 H   0  0  0  0  0  0  0  0  0  0  0  0
    8.3508    0.5371   22.7718 N   0  0  0  0  0  0  0  0  0  0  0  0
    8.7804   -0.7584   23.3043 C   0  0  0  0  0  0  0  0  0  0  0  0
   10.0262   -1.3666   22.6259 C   0  0  0  0  0  0  0  0  0  0  0  0
   11.0891   -0.3447   22.2216 C   0  0  0  0  0  0  0  0  0  0  0  0
   11.5092    0.8819   23.4917 S   0  0  0  0  0  0  0  0  0  0  0  0
   10.2798    2.1494   23.0879 C   0  0  0  0  0  0  0  0  0  0  0  0
    8.8602    1.7246   23.4599 C   0  0  1  0  0  0  0  0  0  0  0  0
    7.8731    2.8896   23.3746 C   0  0  0  0  0  0  0  0  0  0  0  0
    8.1695    3.8180   24.3133 F   0  0  0  0  0  0  0  0  0  0  0  0
    6.6205    2.4727   23.6212 F   0  0  0  0  0  0  0  0  0  0  0  0
    7.8745    3.5129   22.1965 F   0  0  0  0  0  0  0  0  0  0  0  0
    8.8743    1.4774   24.5246 H   0  0  0  0  0  0  0  0  0  0  0  0
   10.5735    3.0521   23.6394 H   0  0  0  0  0  0  0  0  0  0  0  0
   10.3424    2.3618   22.0214 H   0  0  0  0  0  0  0  0  0  0  0  0
   10.7660    0.2127   21.3410 H   0  0  0  0  0  0  0  0  0  0  0  0
   12.0196   -0.8554   21.9515 H   0  0  0  0  0  0  0  0  0  0  0  0
   10.4783   -2.1014   23.3035 H   0  0  0  0  0  0  0  0  0  0  0  0
    9.7279   -1.9223   21.7251 H   0  0  0  0  0  0  0  0  0  0  0  0
    7.9457   -1.4604   23.2325 H   0  0  0  0  0  0  0  0  0  0  0  0
    8.9817   -0.6305   24.3714 H   0  0  0  0  0  0  0  0  0  0  0  0
  1  2  2  0
  2  3  1  0
  3  4  1  0
  4  5  2  0
  5  6  1  0
  6  7  2  0
  7  8  1  0
  8  9  2  0
  9 10  1  0
 10 11  2  0
 11 12  1  0
 12 13  2  0
 12 14  1  0
 11 15  1  0
 10 16  1  0
  9 17  1  0
  7 18  1  0
  5 19  1  0
  3 20  1  0
  3 21  1  0
  2 22  1  0
 22 23  1  0
 23 24  1  0
 24 25  1  0
 25 26  1  0
 26 27  1  0
 27 28  1  0
 28 29  1  0
 29 30  1  0
 29 31  1  0
 29 32  1  0
 28 33  1  1
 27 34  1  0
 27 35  1  0
 25 36  1  0
 25 37  1  0
 24 38  1  0
 24 39  1  0
 23 40  1  0
 23 41  1  0
 13  4  1  0
 28 22  1  0
 13  8  1  0
M  END
>  <cnnaffinities>  (57) 
[5.6382, 5.63543, 5.87097, 5.87088, 5.87089, 5.42481]

>  <score>  (57) 
5.6382

>  <index>  (57) 
56

>  <Smiles>  (57) 
O=C(C(c1c(nc(c2c(c(c(c(c12)[H])[H])[H])[H])[H])[H])([H])[H])N1C(C(C(SC([C@]1(C(F)(F)F)[H])([H])[H])([H])[H])([H])[H])([H])[H]

>  <h>  (57) 
<NA>

>  <Training>  (57) 
True

>  <Success>  (57) 
True

>  <enamine_searched>  (57) 
False

>  <enamine_id>  (57) 
nan

$$$$

     RDKit          3D

 67 72  0  0  0  0  0  0  0  0999 V2000
    6.6058    4.3690   21.3207 C   0  0  0  0  0  0  0  0  0  0  0  0
    7.5920    3.9988   22.3207 N   0  0  0  0  0  0  0  0  0  0  0  0
    7.1147    3.3396   23.4158 C   0  0  0  0  0  0  0  0  0  0  0  0
    5.9185    3.1586   23.5926 O   0  0  0  0  0  0  0  0  0  0  0  0
    8.1067    2.8288   24.4549 C   0  0  0  0  0  0  0  0  0  0  0  0
    8.7890    1.6404   23.9815 N   0  0  0  0  0  0  0  0  0  0  0  0
    8.0277    0.4034   23.8815 C   0  0  0  0  0  0  0  0  0  0  0  0
    8.4259   -0.3988   22.6263 C   0  0  2  0  0  0  0  0  0  0  0  0
    7.9467    0.2858   21.3244 C   0  0  0  0  0  0  0  0  0  0  0  0
    8.4279    1.2613   20.7813 O   0  0  0  0  0  0  0  0  0  0  0  0
    6.8803   -0.4306   20.8357 N   0  0  0  0  0  0  0  0  0  0  0  0
    6.1147    0.0820   19.7668 C   0  0  0  0  0  0  0  0  0  0  0  0
    6.4711   -0.2085   18.4769 C   0  0  0  0  0  0  0  0  0  0  0  0
    5.8010    0.2334   17.3874 N   0  0  0  0  0  0  0  0  0  0  0  0
    4.7623    1.0069   17.5973 C   0  0  0  0  0  0  0  0  0  0  0  0
    4.2994    1.3977   18.8864 C   0  0  0  0  0  0  0  0  0  0  0  0
    3.1803    2.2505   19.0618 C   0  0  0  0  0  0  0  0  0  0  0  0
    2.7773    2.6244   20.3146 C   0  0  0  0  0  0  0  0  0  0  0  0
    3.4742    2.1661   21.4555 C   0  0  0  0  0  0  0  0  0  0  0  0
    4.5581    1.3336   21.3139 C   0  0  0  0  0  0  0  0  0  0  0  0
    4.9948    0.9246   20.0213 C   0  0  0  0  0  0  0  0  0  0  0  0
    5.1120    1.0280   22.1971 H   0  0  0  0  0  0  0  0  0  0  0  0
    3.1686    2.4897   22.4455 H   0  0  0  0  0  0  0  0  0  0  0  0
    1.9230    3.2818   20.4360 H   0  0  0  0  0  0  0  0  0  0  0  0
    2.6700    2.6133   18.1748 H   0  0  0  0  0  0  0  0  0  0  0  0
    4.2228    1.3647   16.7200 H   0  0  0  0  0  0  0  0  0  0  0  0
    7.3399   -0.8360   18.2909 H   0  0  0  0  0  0  0  0  0  0  0  0
    6.4961   -1.5672   21.6405 C   0  0  0  0  0  0  0  0  0  0  0  0
    7.7239   -1.7845   22.5256 C   0  0  2  0  0  0  0  0  0  0  0  0
    7.3946   -2.5206   23.8243 C   0  0  0  0  0  0  0  0  0  0  0  0
    6.9054   -3.8521   23.5567 N   0  0  0  0  0  0  0  0  0  0  0  0
    5.5786   -4.1523   23.4313 C   0  0  0  0  0  0  0  0  0  0  0  0
    4.4743   -3.4140   23.7546 C   0  0  0  0  0  0  0  0  0  0  0  0
    3.2562   -4.0219   23.5547 N   0  0  0  0  0  0  0  0  0  0  0  0
    3.4025   -5.2239   23.0937 C   0  0  0  0  0  0  0  0  0  0  0  0
    2.2670   -6.1424   22.7872 C   0  0  0  0  0  0  0  0  0  0  0  0
    2.0053   -6.0892   21.7260 H   0  0  0  0  0  0  0  0  0  0  0  0
    2.5194   -7.1795   23.0167 H   0  0  0  0  0  0  0  0  0  0  0  0
    1.3968   -5.8337   23.3697 H   0  0  0  0  0  0  0  0  0  0  0  0
    5.0625   -5.7146   22.8390 S   0  0  0  0  0  0  0  0  0  0  0  0
    4.4905   -2.4075   24.1575 H   0  0  0  0  0  0  0  0  0  0  0  0
    7.5686   -4.5898   23.3758 H   0  0  0  0  0  0  0  0  0  0  0  0
    8.2890   -2.5909   24.4549 H   0  0  0  0  0  0  0  0  0  0  0  0
    6.6247   -1.9714   24.3789 H   0  0  0  0  0  0  0  0  0  0  0  0
    8.4036   -2.4383   21.9732 H   0  0  0  0  0  0  0  0  0  0  0  0
    5.5893   -1.3763   22.2380 H   0  0  0  0  0  0  0  0  0  0  0  0
    6.2903   -2.4430   21.0210 H   0  0  0  0  0  0  0  0  0  0  0  0
    9.9300   -0.4594   22.5809 C   0  0  0  0  0  0  0  0  0  0  0  0
   10.5073   -1.3451   21.6804 C   0  0  0  0  0  0  0  0  0  0  0  0
   11.8676   -1.3618   21.5046 C   0  0  0  0  0  0  0  0  0  0  0  0
   12.4512   -2.4090   20.2575 Cl  0  0  0  0  0  0  0  0  0  0  0  0
   12.7219   -0.5636   22.2657 C   0  0  0  0  0  0  0  0  0  0  0  0
   12.1560    0.3530   23.1333 C   0  0  0  0  0  0  0  0  0  0  0  0
   10.7641    0.4496   23.2398 C   0  0  0  0  0  0  0  0  0  0  0  0
   10.1603    1.6200   23.9566 C   0  0  0  0  0  0  0  0  0  0  0  0
   10.8440    2.5153   24.4374 O   0  0  0  0  0  0  0  0  0  0  0  0
   12.7703    1.0347   23.7143 H   0  0  0  0  0  0  0  0  0  0  0  0
   13.7967   -0.6393   22.1490 H   0  0  0  0  0  0  0  0  0  0  0  0
    9.9208   -2.0386   21.0916 H   0  0  0  0  0  0  0  0  0  0  0  0
    6.9645    0.6574   23.8539 H   0  0  0  0  0  0  0  0  0  0  0  0
    8.2146   -0.2128   24.7745 H   0  0  0  0  0  0  0  0  0  0  0  0
    8.8803    3.5599   24.7038 H   0  0  0  0  0  0  0  0  0  0  0  0
    7.5270    2.5969   25.3600 H   0  0  0  0  0  0  0  0  0  0  0  0
    8.5173    3.7877   21.9708 H   0  0  0  0  0  0  0  0  0  0  0  0
    6.1176    3.4689   20.9160 H   0  0  0  0  0  0  0  0  0  0  0  0
    5.8477    5.0004   21.7926 H   0  0  0  0  0  0  0  0  0  0  0  0
    7.1086    4.9354   20.5353 H   0  0  0  0  0  0  0  0  0  0  0  0
  1  2  1  0
  2  3  1  0
  3  4  2  0
  3  5  1  0
  5  6  1  0
  6  7  1  0
  8  7  1  1
  8  9  1  0
  9 10  2  0
  9 11  1  0
 11 12  1  0
 12 13  2  0
 13 14  1  0
 14 15  2  0
 15 16  1  0
 16 17  2  0
 17 18  1  0
 18 19  2  0
 19 20  1  0
 20 21  2  0
 20 22  1  0
 19 23  1  0
 18 24  1  0
 17 25  1  0
 15 26  1  0
 13 27  1  0
 11 28  1  0
 28 29  1  0
 29 30  1  0
 30 31  1  0
 31 32  1  0
 32 33  2  0
 33 34  1  0
 34 35  2  0
 35 36  1  0
 36 37  1  0
 36 38  1  0
 36 39  1  0
 35 40  1  0
 33 41  1  0
 31 42  1  0
 30 43  1  0
 30 44  1  0
 29 45  1  6
 28 46  1  0
 28 47  1  0
  8 48  1  0
 48 49  2  0
 49 50  1  0
 50 51  1  0
 50 52  2  0
 52 53  1  0
 53 54  2  0
 54 55  1  0
 55 56  2  0
 53 57  1  0
 52 58  1  0
 49 59  1  0
  7 60  1  0
  7 61  1  0
  5 62  1  0
  5 63  1  0
  2 64  1  0
  1 65  1  0
  1 66  1  0
  1 67  1  0
 55  6  1  0
 29  8  1  0
 40 32  1  0
 54 48  1  0
 21 12  1  0
 21 16  1  0
M  END
>  <cnnaffinities>  (58) 
[6.65453, 6.53014]

>  <score>  (58) 
6.65453

>  <index>  (58) 
57

>  <Smiles>  (58) 
C(N(C(=O)C(N1C([C@@]2(C(=O)N(c3c(nc(c4c(c(c(c(c34)[H])[H])[H])[H])[H])[H])C([C@@]2(C(N(c2c(nc(C([H])([H])[H])s2)[H])[H])([H])[H])[H])([H])[H])c2c(c(Cl)c(c(c2C1=O)[H])[H])[H])([H])[H])([H])[H])[H])([H])([H])[H]

>  <h>  (58) 
<NA>

>  <Training>  (58) 
True

>  <Success>  (58) 
True

>  <enamine_searched>  (58) 
False

>  <enamine_id>  (58) 
nan

$$$$

     RDKit          3D

 57 62  0  0  0  0  0  0  0  0999 V2000
    7.0005   -2.2881   23.6058 C   0  0  0  0  0  0  0  0  0  0  0  0
    7.8783   -1.8671   22.4198 C   0  0  1  0  0  0  0  0  0  0  0  0
    7.0582   -1.7888   21.1154 C   0  0  0  0  0  0  0  0  0  0  0  0
    6.8902   -0.3736   20.8848 N   0  0  0  0  0  0  0  0  0  0  0  0
    6.1242    0.1130   19.7978 C   0  0  0  0  0  0  0  0  0  0  0  0
    6.4428   -0.2238   18.5055 C   0  0  0  0  0  0  0  0  0  0  0  0
    5.7823    0.2192   17.4074 N   0  0  0  0  0  0  0  0  0  0  0  0
    4.7585    1.0138   17.6065 C   0  0  0  0  0  0  0  0  0  0  0  0
    4.2965    1.4075   18.8947 C   0  0  0  0  0  0  0  0  0  0  0  0
    3.1648    2.2476   19.0534 C   0  0  0  0  0  0  0  0  0  0  0  0
    2.7205    2.5779   20.3032 C   0  0  0  0  0  0  0  0  0  0  0  0
    3.3787    2.0837   21.4482 C   0  0  0  0  0  0  0  0  0  0  0  0
    4.4970    1.2971   21.3254 C   0  0  0  0  0  0  0  0  0  0  0  0
    4.9843    0.9401   20.0362 C   0  0  0  0  0  0  0  0  0  0  0  0
    5.0117    0.9488   22.2155 H   0  0  0  0  0  0  0  0  0  0  0  0
    2.9966    2.3399   22.4341 H   0  0  0  0  0  0  0  0  0  0  0  0
    1.8565    3.2244   20.4214 H   0  0  0  0  0  0  0  0  0  0  0  0
    2.6716    2.6219   18.1615 H   0  0  0  0  0  0  0  0  0  0  0  0
    4.2272    1.3821   16.7283 H   0  0  0  0  0  0  0  0  0  0  0  0
    7.2955   -0.8721   18.3083 H   0  0  0  0  0  0  0  0  0  0  0  0
    7.8283    0.4070   21.5323 C   0  0  0  0  0  0  0  0  0  0  0  0
    8.0184    1.5810   21.3117 O   0  0  0  0  0  0  0  0  0  0  0  0
    8.5874   -0.4755   22.5526 C   0  0  1  0  0  0  0  0  0  0  0  0
    8.4658    0.1157   23.9839 C   0  0  0  0  0  0  0  0  0  0  0  0
    9.2310    1.3374   24.1642 N   0  0  0  0  0  0  0  0  0  0  0  0
    8.6661    2.4763   24.8648 C   0  0  0  0  0  0  0  0  0  0  0  0
    8.0344    3.4280   23.8784 C   0  0  0  0  0  0  0  0  0  0  0  0
    8.7930    4.3686   23.1808 C   0  0  0  0  0  0  0  0  0  0  0  0
    8.1029    5.2392   22.3537 C   0  0  0  0  0  0  0  0  0  0  0  0
    6.7745    5.1867   22.2102 N   0  0  0  0  0  0  0  0  0  0  0  0
    6.1653    4.2201   22.8872 C   0  0  0  0  0  0  0  0  0  0  0  0
    6.7129    3.3175   23.6957 N   0  0  0  0  0  0  0  0  0  0  0  0
    5.0806    4.1611   22.7777 H   0  0  0  0  0  0  0  0  0  0  0  0
    8.6325    6.0112   21.7936 H   0  0  0  0  0  0  0  0  0  0  0  0
    9.8704    4.4114   23.2822 H   0  0  0  0  0  0  0  0  0  0  0  0
    9.4849    2.9539   25.4182 H   0  0  0  0  0  0  0  0  0  0  0  0
    7.9064    2.1240   25.5693 H   0  0  0  0  0  0  0  0  0  0  0  0
   10.4922    1.4929   23.6840 C   0  0  0  0  0  0  0  0  0  0  0  0
   11.2055    2.4437   24.0083 O   0  0  0  0  0  0  0  0  0  0  0  0
   10.9535    0.4623   22.7295 C   0  0  0  0  0  0  0  0  0  0  0  0
   12.2880    0.5332   22.3414 C   0  0  0  0  0  0  0  0  0  0  0  0
   12.8026   -0.3943   21.4700 C   0  0  0  0  0  0  0  0  0  0  0  0
   11.9622   -1.4125   21.0285 C   0  0  0  0  0  0  0  0  0  0  0  0
   12.4665   -2.4035   20.2779 F   0  0  0  0  0  0  0  0  0  0  0  0
   10.6206   -1.4652   21.3546 C   0  0  0  0  0  0  0  0  0  0  0  0
   10.0802   -0.5042   22.2131 C   0  0  0  0  0  0  0  0  0  0  0  0
   10.0302   -2.2667   20.9258 H   0  0  0  0  0  0  0  0  0  0  0  0
   13.8181   -0.2823   21.1259 H   0  0  0  0  0  0  0  0  0  0  0  0
   12.9039    1.3408   22.7170 H   0  0  0  0  0  0  0  0  0  0  0  0
    7.4206    0.3326   24.2221 H   0  0  0  0  0  0  0  0  0  0  0  0
    8.8332   -0.6407   24.6885 H   0  0  0  0  0  0  0  0  0  0  0  0
    7.5949   -2.2536   20.2798 H   0  0  0  0  0  0  0  0  0  0  0  0
    6.0767   -2.2717   21.1964 H   0  0  0  0  0  0  0  0  0  0  0  0
    8.6383   -2.6476   22.3309 H   0  0  0  0  0  0  0  0  0  0  0  0
    6.1904   -1.5728   23.7908 H   0  0  0  0  0  0  0  0  0  0  0  0
    6.5504   -3.2675   23.4070 H   0  0  0  0  0  0  0  0  0  0  0  0
    7.5995   -2.3845   24.5169 H   0  0  0  0  0  0  0  0  0  0  0  0
  1  2  1  0
  2  3  1  0
  3  4  1  0
  4  5  1  0
  5  6  2  0
  6  7  1  0
  7  8  2  0
  8  9  1  0
  9 10  2  0
 10 11  1  0
 11 12  2  0
 12 13  1  0
 13 14  2  0
 13 15  1  0
 12 16  1  0
 11 17  1  0
 10 18  1  0
  8 19  1  0
  6 20  1  0
  4 21  1  0
 21 22  2  0
 21 23  1  0
 23 24  1  1
 24 25  1  0
 25 26  1  0
 26 27  1  0
 27 28  2  0
 28 29  1  0
 29 30  2  0
 30 31  1  0
 31 32  2  0
 31 33  1  0
 29 34  1  0
 28 35  1  0
 26 36  1  0
 26 37  1  0
 25 38  1  0
 38 39  2  0
 38 40  1  0
 40 41  2  0
 41 42  1  0
 42 43  2  0
 43 44  1  0
 43 45  1  0
 45 46  2  0
 45 47  1  0
 42 48  1  0
 41 49  1  0
 24 50  1  0
 24 51  1  0
  3 52  1  0
  3 53  1  0
  2 54  1  6
  1 55  1  0
  1 56  1  0
  1 57  1  0
 23  2  1  0
 32 27  1  0
 46 40  1  0
 14  5  1  0
 46 23  1  0
 14  9  1  0
M  END
>  <cnnaffinities>  (59) 
[6.28744, 6.29541]

>  <score>  (59) 
6.28744

>  <index>  (59) 
58

>  <Smiles>  (59) 
C([C@]1(C(N(c2c(nc(c3c(c(c(c(c23)[H])[H])[H])[H])[H])[H])C(=O)[C@]21C(N(C(c1c(c(nc(n1)[H])[H])[H])([H])[H])C(=O)c1c(c(c(F)c(c21)[H])[H])[H])([H])[H])([H])[H])[H])([H])([H])[H]

>  <h>  (59) 
<NA>

>  <Training>  (59) 
True

>  <Success>  (59) 
True

>  <enamine_searched>  (59) 
False

>  <enamine_id>  (59) 
nan

$$$$

     RDKit          3D

 60 65  0  0  0  0  0  0  0  0999 V2000
   10.1104   -3.8849   23.7161 C   0  0  0  0  0  0  0  0  0  0  0  0
    9.0301   -3.0890   24.1406 O   0  0  0  0  0  0  0  0  0  0  0  0
    7.9778   -3.0430   23.2018 C   0  0  0  0  0  0  0  0  0  0  0  0
    8.1305   -1.8883   22.2024 C   0  0  1  0  0  0  0  0  0  0  0  0
    6.9530   -1.7936   21.2188 C   0  0  0  0  0  0  0  0  0  0  0  0
    6.9312   -0.3957   20.8330 N   0  0  0  0  0  0  0  0  0  0  0  0
    6.1443    0.1112   19.7699 C   0  0  0  0  0  0  0  0  0  0  0  0
    6.4443   -0.2204   18.4725 C   0  0  0  0  0  0  0  0  0  0  0  0
    5.7670    0.2255   17.3858 N   0  0  0  0  0  0  0  0  0  0  0  0
    4.7463    1.0209   17.5952 C   0  0  0  0  0  0  0  0  0  0  0  0
    4.2947    1.4132   18.8858 C   0  0  0  0  0  0  0  0  0  0  0  0
    3.1661    2.2597   19.0606 C   0  0  0  0  0  0  0  0  0  0  0  0
    2.7405    2.6072   20.3126 C   0  0  0  0  0  0  0  0  0  0  0  0
    3.4169    2.1094   21.4504 C   0  0  0  0  0  0  0  0  0  0  0  0
    4.5077    1.2909   21.3052 C   0  0  0  0  0  0  0  0  0  0  0  0
    4.9978    0.9387   20.0151 C   0  0  0  0  0  0  0  0  0  0  0  0
    5.0195    0.9121   22.1850 H   0  0  0  0  0  0  0  0  0  0  0  0
    3.0741    2.3876   22.4418 H   0  0  0  0  0  0  0  0  0  0  0  0
    1.8890    3.2694   20.4395 H   0  0  0  0  0  0  0  0  0  0  0  0
    2.6639    2.6368   18.1738 H   0  0  0  0  0  0  0  0  0  0  0  0
    4.2198    1.3870   16.7146 H   0  0  0  0  0  0  0  0  0  0  0  0
    7.2881   -0.8752   18.2590 H   0  0  0  0  0  0  0  0  0  0  0  0
    7.6502    0.4238   21.6742 C   0  0  0  0  0  0  0  0  0  0  0  0
    7.7438    1.6226   21.5496 O   0  0  0  0  0  0  0  0  0  0  0  0
    8.2627   -0.4540   22.7946 C   0  0  1  0  0  0  0  0  0  0  0  0
    7.4286   -0.2725   24.0845 C   0  0  0  0  0  0  0  0  0  0  0  0
    7.5694    1.0741   24.6017 N   0  0  0  0  0  0  0  0  0  0  0  0
    6.4094    1.7471   25.1426 C   0  0  0  0  0  0  0  0  0  0  0  0
    5.9825    1.2323   26.4876 C   0  0  0  0  0  0  0  0  0  0  0  0
    5.1829    0.2089   26.6929 N   0  0  0  0  0  0  0  0  0  0  0  0
    5.1262    0.0629   28.0602 C   0  0  0  0  0  0  0  0  0  0  0  0
    5.8862    1.0207   28.6801 C   0  0  0  0  0  0  0  0  0  0  0  0
    6.4248    1.7729   27.6544 N   0  0  0  0  0  0  0  0  0  0  0  0
    7.1015    2.5212   27.7189 H   0  0  0  0  0  0  0  0  0  0  0  0
    6.0988    1.2228   29.7187 H   0  0  0  0  0  0  0  0  0  0  0  0
    4.5576   -0.7499   28.4949 H   0  0  0  0  0  0  0  0  0  0  0  0
    6.6463    2.8143   25.1813 H   0  0  0  0  0  0  0  0  0  0  0  0
    5.5940    1.5869   24.4301 H   0  0  0  0  0  0  0  0  0  0  0  0
    8.8046    1.5402   24.9312 C   0  0  0  0  0  0  0  0  0  0  0  0
    8.9683    2.4070   25.7815 O   0  0  0  0  0  0  0  0  0  0  0  0
    9.9159    0.9164   24.1455 C   0  0  0  0  0  0  0  0  0  0  0  0
   11.2033    1.3468   24.4363 C   0  0  0  0  0  0  0  0  0  0  0  0
   12.2664    0.9431   23.6586 C   0  0  0  0  0  0  0  0  0  0  0  0
   12.0094    0.1290   22.5595 C   0  0  0  0  0  0  0  0  0  0  0  0
   13.3401   -0.2125   21.5088 Cl  0  0  0  0  0  0  0  0  0  0  0  0
   10.7442   -0.3500   22.2740 C   0  0  0  0  0  0  0  0  0  0  0  0
    9.6723    0.0027   23.1068 C   0  0  0  0  0  0  0  0  0  0  0  0
   10.6069   -0.9403   21.3727 H   0  0  0  0  0  0  0  0  0  0  0  0
   13.2874    1.2626   23.8278 H   0  0  0  0  0  0  0  0  0  0  0  0
   11.2826    2.0366   25.2625 H   0  0  0  0  0  0  0  0  0  0  0  0
    7.7640   -1.0125   24.8274 H   0  0  0  0  0  0  0  0  0  0  0  0
    6.3672   -0.4324   23.8789 H   0  0  0  0  0  0  0  0  0  0  0  0
    6.0048   -2.0998   21.6904 H   0  0  0  0  0  0  0  0  0  0  0  0
    7.0865   -2.3982   20.3242 H   0  0  0  0  0  0  0  0  0  0  0  0
    9.0441   -2.0699   21.6308 H   0  0  0  0  0  0  0  0  0  0  0  0
    7.0483   -2.9138   23.7718 H   0  0  0  0  0  0  0  0  0  0  0  0
    7.9135   -4.0092   22.6697 H   0  0  0  0  0  0  0  0  0  0  0  0
    9.8293   -4.9491   23.6405 H   0  0  0  0  0  0  0  0  0  0  0  0
   10.8895   -3.7692   24.4721 H   0  0  0  0  0  0  0  0  0  0  0  0
   10.5043   -3.5671   22.7373 H   0  0  0  0  0  0  0  0  0  0  0  0
  1  2  1  0
  2  3  1  0
  3  4  1  0
  4  5  1  0
  5  6  1  0
  6  7  1  0
  7  8  2  0
  8  9  1  0
  9 10  2  0
 10 11  1  0
 11 12  2  0
 12 13  1  0
 13 14  2  0
 14 15  1  0
 15 16  2  0
 15 17  1  0
 14 18  1  0
 13 19  1  0
 12 20  1  0
 10 21  1  0
  8 22  1  0
  6 23  1  0
 23 24  2  0
 23 25  1  0
 25 26  1  1
 26 27  1  0
 27 28  1  0
 28 29  1  0
 29 30  2  0
 30 31  1  0
 31 32  2  0
 32 33  1  0
 33 34  1  0
 32 35  1  0
 31 36  1  0
 28 37  1  0
 28 38  1  0
 27 39  1  0
 39 40  2  0
 39 41  1  0
 41 42  2  0
 42 43  1  0
 43 44  2  0
 44 45  1  0
 44 46  1  0
 46 47  2  0
 46 48  1  0
 43 49  1  0
 42 50  1  0
 26 51  1  0
 26 52  1  0
  5 53  1  0
  5 54  1  0
  4 55  1  6
  3 56  1  0
  3 57  1  0
  1 58  1  0
  1 59  1  0
  1 60  1  0
 25  4  1  0
 33 29  1  0
 47 41  1  0
 16  7  1  0
 47 25  1  0
 16 11  1  0
M  END
>  <cnnaffinities>  (60) 
[5.97352, 6.42605, 6.05841, 6.34188]

>  <score>  (60) 
5.97352

>  <index>  (60) 
59

>  <Smiles>  (60) 
C(OC([C@]1(C(N(c2c(nc(c3c(c(c(c(c23)[H])[H])[H])[H])[H])[H])C(=O)[C@]21C(N(C(c1nc(c(n1[H])[H])[H])([H])[H])C(=O)c1c(c(c(Cl)c(c21)[H])[H])[H])([H])[H])([H])[H])[H])([H])[H])([H])([H])[H]

>  <h>  (60) 
<NA>

>  <Training>  (60) 
True

>  <Success>  (60) 
True

>  <enamine_searched>  (60) 
False

>  <enamine_id>  (60) 
nan

$$$$

     RDKit          3D

 38 41  0  0  0  0  0  0  0  0999 V2000
    8.6089    1.2613   20.7272 O   0  0  0  0  0  0  0  0  0  0  0  0
    7.8617    0.6692   21.4847 C   0  0  0  0  0  0  0  0  0  0  0  0
    6.9462   -0.4393   20.9182 C   0  0  0  0  0  0  0  0  0  0  0  0
    6.1084    0.0828   19.7664 C   0  0  0  0  0  0  0  0  0  0  0  0
    6.4263   -0.2068   18.4630 C   0  0  0  0  0  0  0  0  0  0  0  0
    5.7603    0.2430   17.3636 N   0  0  0  0  0  0  0  0  0  0  0  0
    4.7339    1.0303   17.5754 C   0  0  0  0  0  0  0  0  0  0  0  0
    4.2845    1.4213   18.8680 C   0  0  0  0  0  0  0  0  0  0  0  0
    3.1666    2.2772   19.0447 C   0  0  0  0  0  0  0  0  0  0  0  0
    2.7642    2.6472   20.2995 C   0  0  0  0  0  0  0  0  0  0  0  0
    3.4620    2.1701   21.4307 C   0  0  0  0  0  0  0  0  0  0  0  0
    4.5451    1.3368   21.2870 C   0  0  0  0  0  0  0  0  0  0  0  0
    4.9888    0.9399   19.9962 C   0  0  0  0  0  0  0  0  0  0  0  0
    5.0702    0.9868   22.1709 H   0  0  0  0  0  0  0  0  0  0  0  0
    3.1353    2.4663   22.4218 H   0  0  0  0  0  0  0  0  0  0  0  0
    1.9141    3.3103   20.4336 H   0  0  0  0  0  0  0  0  0  0  0  0
    2.6478    2.6497   18.1644 H   0  0  0  0  0  0  0  0  0  0  0  0
    4.1988    1.3998   16.6990 H   0  0  0  0  0  0  0  0  0  0  0  0
    7.2735   -0.8563   18.2459 H   0  0  0  0  0  0  0  0  0  0  0  0
    6.3021   -0.8994   21.6750 H   0  0  0  0  0  0  0  0  0  0  0  0
    7.6002   -1.2301   20.5331 H   0  0  0  0  0  0  0  0  0  0  0  0
    7.7610    1.0119   22.8226 N   0  0  0  0  0  0  0  0  0  0  0  0
    8.3087    2.3207   23.2107 C   0  0  0  0  0  0  0  0  0  0  0  0
    7.6732    2.8473   24.4954 C   0  0  0  0  0  0  0  0  0  0  0  0
    7.7411    1.7977   25.5555 C   0  0  0  0  0  0  0  0  0  0  0  0
    7.8276    2.0683   27.2613 S   0  0  0  0  0  0  0  0  0  0  0  0
    7.7937    0.3704   27.5682 C   0  0  0  0  0  0  0  0  0  0  0  0
    7.7195   -0.3558   26.4160 C   0  0  0  0  0  0  0  0  0  0  0  0
    7.6944    0.4758   25.2551 C   0  0  0  0  0  0  0  0  0  0  0  0
    7.5144   -0.0073   23.8407 C   0  0  0  0  0  0  0  0  0  0  0  0
    8.1591   -0.8836   23.6959 H   0  0  0  0  0  0  0  0  0  0  0  0
    6.4903   -0.3918   23.7485 H   0  0  0  0  0  0  0  0  0  0  0  0
    7.6707   -1.4417   26.3966 H   0  0  0  0  0  0  0  0  0  0  0  0
    7.8340    0.0043   28.5860 H   0  0  0  0  0  0  0  0  0  0  0  0
    8.1613    3.7697   24.8194 H   0  0  0  0  0  0  0  0  0  0  0  0
    6.6217    3.1047   24.3139 H   0  0  0  0  0  0  0  0  0  0  0  0
    9.3972    2.2732   23.3357 H   0  0  0  0  0  0  0  0  0  0  0  0
    8.1181    3.0167   22.3921 H   0  0  0  0  0  0  0  0  0  0  0  0
  1  2  2  0
  2  3  1  0
  3  4  1  0
  4  5  2  0
  5  6  1  0
  6  7  2  0
  7  8  1  0
  8  9  2  0
  9 10  1  0
 10 11  2  0
 11 12  1  0
 12 13  2  0
 12 14  1  0
 11 15  1  0
 10 16  1  0
  9 17  1  0
  7 18  1  0
  5 19  1  0
  3 20  1  0
  3 21  1  0
  2 22  1  0
 22 23  1  0
 23 24  1  0
 24 25  1  0
 25 26  1  0
 26 27  1  0
 27 28  2  0
 28 29  1  0
 29 30  1  0
 30 31  1  0
 30 32  1  0
 28 33  1  0
 27 34  1  0
 24 35  1  0
 24 36  1  0
 23 37  1  0
 23 38  1  0
 13  4  1  0
 30 22  1  0
 13  8  1  0
 29 25  2  0
M  END
>  <cnnaffinities>  (61) 
[4.59844, 4.71661, 4.86877]

>  <score>  (61) 
4.59844

>  <index>  (61) 
60

>  <Smiles>  (61) 
O=C(C(c1c(nc(c2c(c(c(c(c12)[H])[H])[H])[H])[H])[H])([H])[H])N1C(C(c2sc(c(c2C1([H])[H])[H])[H])([H])[H])([H])[H]

>  <h>  (61) 
<NA>

>  <Training>  (61) 
True

>  <Success>  (61) 
True

>  <enamine_searched>  (61) 
False

>  <enamine_id>  (61) 
nan

$$$$

     RDKit          3D

 64 70  0  0  0  0  0  0  0  0999 V2000
    9.2037    2.6265   25.5976 O   0  0  0  0  0  0  0  0  0  0  0  0
    8.9088    1.6942   24.8566 C   0  0  0  0  0  0  0  0  0  0  0  0
    9.9270    0.8759   24.1497 C   0  0  0  0  0  0  0  0  0  0  0  0
   11.2566    1.1833   24.3987 C   0  0  0  0  0  0  0  0  0  0  0  0
   12.2558    0.6647   23.6088 C   0  0  0  0  0  0  0  0  0  0  0  0
   11.8673   -0.1359   22.5377 C   0  0  0  0  0  0  0  0  0  0  0  0
   13.0234   -0.5351   21.3404 Cl  0  0  0  0  0  0  0  0  0  0  0  0
   10.5593   -0.5260   22.3362 C   0  0  0  0  0  0  0  0  0  0  0  0
    9.5534   -0.0441   23.1667 C   0  0  0  0  0  0  0  0  0  0  0  0
    8.1081   -0.3832   22.8667 C   0  0  1  0  0  0  0  0  0  0  0  0
    7.3028   -0.0004   24.1319 C   0  0  0  0  0  0  0  0  0  0  0  0
    7.6292    1.3577   24.5447 N   0  0  0  0  0  0  0  0  0  0  0  0
    6.5801    2.3191   24.7988 C   0  0  0  0  0  0  0  0  0  0  0  0
    5.8012    1.9439   26.0265 C   0  0  0  0  0  0  0  0  0  0  0  0
    6.3378    2.0881   27.2835 C   0  0  0  0  0  0  0  0  0  0  0  0
    5.5602    1.6461   28.3482 C   0  0  0  0  0  0  0  0  0  0  0  0
    4.3657    1.0731   28.2133 N   0  0  0  0  0  0  0  0  0  0  0  0
    3.8669    0.8952   26.9998 N   0  0  0  0  0  0  0  0  0  0  0  0
    4.5621    1.3140   25.9468 C   0  0  0  0  0  0  0  0  0  0  0  0
    4.1226    1.1146   24.9723 H   0  0  0  0  0  0  0  0  0  0  0  0
    5.9190    1.7640   29.3662 H   0  0  0  0  0  0  0  0  0  0  0  0
    7.3347    2.5027   27.4309 H   0  0  0  0  0  0  0  0  0  0  0  0
    7.0584    3.2936   24.9368 H   0  0  0  0  0  0  0  0  0  0  0  0
    5.9510    2.3705   23.8993 H   0  0  0  0  0  0  0  0  0  0  0  0
    7.5614   -0.7101   24.9362 H   0  0  0  0  0  0  0  0  0  0  0  0
    6.2238   -0.0747   23.9650 H   0  0  0  0  0  0  0  0  0  0  0  0
    7.6133    0.4266   21.6437 C   0  0  0  0  0  0  0  0  0  0  0  0
    7.8147    1.5956   21.3977 O   0  0  0  0  0  0  0  0  0  0  0  0
    6.8891   -0.4189   20.8346 N   0  0  0  0  0  0  0  0  0  0  0  0
    6.1136    0.0825   19.7706 C   0  0  0  0  0  0  0  0  0  0  0  0
    6.4381   -0.2417   18.4804 C   0  0  0  0  0  0  0  0  0  0  0  0
    5.7788    0.2141   17.3896 N   0  0  0  0  0  0  0  0  0  0  0  0
    4.7595    1.0137   17.5992 C   0  0  0  0  0  0  0  0  0  0  0  0
    4.3064    1.4052   18.8901 C   0  0  0  0  0  0  0  0  0  0  0  0
    3.1839    2.2556   19.0585 C   0  0  0  0  0  0  0  0  0  0  0  0
    2.7570    2.6049   20.3097 C   0  0  0  0  0  0  0  0  0  0  0  0
    3.4247    2.1142   21.4529 C   0  0  0  0  0  0  0  0  0  0  0  0
    4.5124    1.2907   21.3193 C   0  0  0  0  0  0  0  0  0  0  0  0
    4.9911    0.9271   20.0238 C   0  0  0  0  0  0  0  0  0  0  0  0
    5.0129    0.9136   22.2063 H   0  0  0  0  0  0  0  0  0  0  0  0
    3.0653    2.3899   22.4410 H   0  0  0  0  0  0  0  0  0  0  0  0
    1.8971    3.2554   20.4284 H   0  0  0  0  0  0  0  0  0  0  0  0
    2.6836    2.6241   18.1684 H   0  0  0  0  0  0  0  0  0  0  0  0
    4.2228    1.3817   16.7246 H   0  0  0  0  0  0  0  0  0  0  0  0
    7.2929   -0.8907   18.2940 H   0  0  0  0  0  0  0  0  0  0  0  0
    6.7382   -1.7578   21.3537 C   0  0  0  0  0  0  0  0  0  0  0  0
    7.8650   -1.8452   22.3878 C   0  0  2  0  0  0  0  0  0  0  0  0
    7.5847   -2.8883   23.4737 C   0  0  0  0  0  0  0  0  0  0  0  0
    7.5239   -4.2310   22.9167 N   0  0  0  0  0  0  0  0  0  0  0  0
    6.3488   -4.8356   22.6110 C   0  0  0  0  0  0  0  0  0  0  0  0
    5.1702   -4.3030   22.8116 N   0  0  0  0  0  0  0  0  0  0  0  0
    4.1412   -5.1324   22.4541 N   0  0  0  0  0  0  0  0  0  0  0  0
    4.5539   -6.2658   21.9935 C   0  0  0  0  0  0  0  0  0  0  0  0
    6.2754   -6.4426   21.9231 S   0  0  0  0  0  0  0  0  0  0  0  0
    3.8908   -7.0541   21.6713 H   0  0  0  0  0  0  0  0  0  0  0  0
    8.3943   -4.7081   22.7424 H   0  0  0  0  0  0  0  0  0  0  0  0
    6.6178   -2.6912   23.9467 H   0  0  0  0  0  0  0  0  0  0  0  0
    8.3642   -2.8405   24.2472 H   0  0  0  0  0  0  0  0  0  0  0  0
    8.7681   -2.1701   21.8566 H   0  0  0  0  0  0  0  0  0  0  0  0
    5.7481   -1.9280   21.8069 H   0  0  0  0  0  0  0  0  0  0  0  0
    6.8498   -2.4803   20.5473 H   0  0  0  0  0  0  0  0  0  0  0  0
   10.3395   -1.1775   21.5033 H   0  0  0  0  0  0  0  0  0  0  0  0
   13.2954    0.9169   23.7667 H   0  0  0  0  0  0  0  0  0  0  0  0
   11.4396    1.8918   25.1872 H   0  0  0  0  0  0  0  0  0  0  0  0
  1  2  2  0
  2  3  1  0
  3  4  2  0
  4  5  1  0
  5  6  2  0
  6  7  1  0
  6  8  1  0
  8  9  2  0
  9 10  1  0
 10 11  1  1
 11 12  1  0
 12 13  1  0
 13 14  1  0
 14 15  2  0
 15 16  1  0
 16 17  2  0
 17 18  1  0
 18 19  2  0
 19 20  1  0
 16 21  1  0
 15 22  1  0
 13 23  1  0
 13 24  1  0
 11 25  1  0
 11 26  1  0
 10 27  1  0
 27 28  2  0
 27 29  1  0
 29 30  1  0
 30 31  2  0
 31 32  1  0
 32 33  2  0
 33 34  1  0
 34 35  2  0
 35 36  1  0
 36 37  2  0
 37 38  1  0
 38 39  2  0
 38 40  1  0
 37 41  1  0
 36 42  1  0
 35 43  1  0
 33 44  1  0
 31 45  1  0
 29 46  1  0
 46 47  1  0
 47 48  1  0
 48 49  1  0
 49 50  1  0
 50 51  2  0
 51 52  1  0
 52 53  2  0
 53 54  1  0
 53 55  1  0
 49 56  1  0
 48 57  1  0
 48 58  1  0
 47 59  1  6
 46 60  1  0
 46 61  1  0
  8 62  1  0
  5 63  1  0
  4 64  1  0
 12  2  1  0
 19 14  1  0
 39 30  1  0
 54 50  1  0
  9  3  1  0
 47 10  1  0
 39 34  1  0
M  END
>  <cnnaffinities>  (62) 
[6.2768]

>  <score>  (62) 
6.2768

>  <index>  (62) 
61

>  <Smiles>  (62) 
O=C1c2c(c(c(Cl)c(c2[C@@]2(C(N1C(c1c(c(nnc1[H])[H])[H])([H])[H])([H])[H])C(=O)N(c1c(nc(c3c(c(c(c(c13)[H])[H])[H])[H])[H])[H])C([C@@]2(C(N(c1nnc(s1)[H])[H])([H])[H])[H])([H])[H])[H])[H])[H]

>  <h>  (62) 
<NA>

>  <Training>  (62) 
True

>  <Success>  (62) 
True

>  <enamine_searched>  (62) 
False

>  <enamine_id>  (62) 
nan

$$$$

     RDKit          3D

 70 76  0  0  0  0  0  0  0  0999 V2000
    7.5558   -2.5205   23.7843 C   0  0  0  0  0  0  0  0  0  0  0  0
    7.8805   -1.7035   22.5290 C   0  0  1  0  0  0  0  0  0  0  0  0
    6.6869   -1.6069   21.5538 C   0  0  0  0  0  0  0  0  0  0  0  0
    6.9492   -0.3807   20.8222 N   0  0  0  0  0  0  0  0  0  0  0  0
    6.1418    0.1091   19.7581 C   0  0  0  0  0  0  0  0  0  0  0  0
    6.4506   -0.2149   18.4616 C   0  0  0  0  0  0  0  0  0  0  0  0
    5.7646    0.2243   17.3778 N   0  0  0  0  0  0  0  0  0  0  0  0
    4.7437    1.0184   17.5910 C   0  0  0  0  0  0  0  0  0  0  0  0
    4.2968    1.4216   18.8837 C   0  0  0  0  0  0  0  0  0  0  0  0
    3.1752    2.2767   19.0629 C   0  0  0  0  0  0  0  0  0  0  0  0
    2.7645    2.6412   20.3163 C   0  0  0  0  0  0  0  0  0  0  0  0
    3.4534    2.1597   21.4499 C   0  0  0  0  0  0  0  0  0  0  0  0
    4.5395    1.3299   21.3014 C   0  0  0  0  0  0  0  0  0  0  0  0
    5.0069    0.9472   20.0104 C   0  0  0  0  0  0  0  0  0  0  0  0
    5.0497    0.9548   22.1825 H   0  0  0  0  0  0  0  0  0  0  0  0
    3.1326    2.4562   22.4453 H   0  0  0  0  0  0  0  0  0  0  0  0
    1.9154    3.3096   20.4381 H   0  0  0  0  0  0  0  0  0  0  0  0
    2.6691    2.6492   18.1773 H   0  0  0  0  0  0  0  0  0  0  0  0
    4.2127    1.3849   16.7122 H   0  0  0  0  0  0  0  0  0  0  0  0
    7.2987   -0.8642   18.2512 H   0  0  0  0  0  0  0  0  0  0  0  0
    7.8845    0.4346   21.4170 C   0  0  0  0  0  0  0  0  0  0  0  0
    8.2625    1.4878   20.9459 O   0  0  0  0  0  0  0  0  0  0  0  0
    8.3477   -0.2222   22.7383 C   0  0  1  0  0  0  0  0  0  0  0  0
    7.6401    0.4220   23.9566 C   0  0  0  0  0  0  0  0  0  0  0  0
    8.0330    1.8037   24.1403 N   0  0  0  0  0  0  0  0  0  0  0  0
    7.0301    2.8409   24.2920 C   0  0  0  0  0  0  0  0  0  0  0  0
    6.8542    3.6527   23.0073 C   0  0  0  0  0  0  0  0  0  0  0  0
    5.7174    4.6501   23.1186 N   0  0  2  0  0  4  0  0  0  0  0  0
    5.2621    5.1708   21.7745 C   0  0  0  0  0  0  0  0  0  0  0  0
    6.1402    6.3946   21.4751 C   0  0  0  0  0  0  0  0  0  0  0  0
    6.6683    6.8921   22.8291 C   0  0  0  0  0  0  0  0  0  0  0  0
    6.5102    8.3823   23.1774 C   0  0  0  0  0  0  0  0  0  0  0  0
    7.9289    8.5823   23.2430 O   0  0  0  0  0  0  0  0  0  0  0  0
    8.1748    7.2109   22.9095 C   0  0  0  0  0  0  0  0  0  0  0  0
    8.7256    6.6874   23.7045 H   0  0  0  0  0  0  0  0  0  0  0  0
    8.7313    7.1024   21.9681 H   0  0  0  0  0  0  0  0  0  0  0  0
    6.0358    8.9981   22.4017 H   0  0  0  0  0  0  0  0  0  0  0  0
    6.0224    8.5948   24.1385 H   0  0  0  0  0  0  0  0  0  0  0  0
    6.1128    5.9134   23.8695 C   0  0  0  0  0  0  0  0  0  0  0  0
    6.8478    5.6504   24.6306 H   0  0  0  0  0  0  0  0  0  0  0  0
    5.2269    6.3160   24.3679 H   0  0  0  0  0  0  0  0  0  0  0  0
    6.9775    6.1213   20.8236 H   0  0  0  0  0  0  0  0  0  0  0  0
    5.5738    7.1735   20.9556 H   0  0  0  0  0  0  0  0  0  0  0  0
    4.2073    5.4311   21.8586 H   0  0  0  0  0  0  0  0  0  0  0  0
    5.3592    4.3633   21.0473 H   0  0  0  0  0  0  0  0  0  0  0  0
    4.9328    4.1650   23.5827 H   0  0  0  0  0  0  0  0  0  0  0  0
    7.7742    4.1933   22.7697 H   0  0  0  0  0  0  0  0  0  0  0  0
    6.6393    2.9857   22.1708 H   0  0  0  0  0  0  0  0  0  0  0  0
    6.0876    2.3475   24.5502 H   0  0  0  0  0  0  0  0  0  0  0  0
    7.3412    3.4737   25.1273 H   0  0  0  0  0  0  0  0  0  0  0  0
    9.3460    2.1797   24.1541 C   0  0  0  0  0  0  0  0  0  0  0  0
    9.7120    3.2707   24.5664 O   0  0  0  0  0  0  0  0  0  0  0  0
   10.3020    1.1664   23.5897 C   0  0  0  0  0  0  0  0  0  0  0  0
   11.6679    1.4131   23.6908 C   0  0  0  0  0  0  0  0  0  0  0  0
   12.5836    0.5188   23.1757 C   0  0  0  0  0  0  0  0  0  0  0  0
   12.0948   -0.6313   22.5586 C   0  0  0  0  0  0  0  0  0  0  0  0
   13.1134   -1.9936   22.1975 Cl  0  0  0  0  0  0  0  0  0  0  0  0
   10.7499   -0.8289   22.3419 C   0  0  0  0  0  0  0  0  0  0  0  0
    9.8273    0.0297   22.9163 C   0  0  0  0  0  0  0  0  0  0  0  0
   10.4513   -1.6663   21.7230 H   0  0  0  0  0  0  0  0  0  0  0  0
   13.6486    0.6987   23.2386 H   0  0  0  0  0  0  0  0  0  0  0  0
   11.9725    2.3113   24.2080 H   0  0  0  0  0  0  0  0  0  0  0  0
    7.9041   -0.1650   24.8514 H   0  0  0  0  0  0  0  0  0  0  0  0
    6.5524    0.3869   23.8216 H   0  0  0  0  0  0  0  0  0  0  0  0
    6.6226   -2.4576   20.8671 H   0  0  0  0  0  0  0  0  0  0  0  0
    5.7338   -1.5635   22.1053 H   0  0  0  0  0  0  0  0  0  0  0  0
    8.6866   -2.2087   21.9927 H   0  0  0  0  0  0  0  0  0  0  0  0
    8.3914   -2.5371   24.4923 H   0  0  0  0  0  0  0  0  0  0  0  0
    7.3163   -3.5610   23.5340 H   0  0  0  0  0  0  0  0  0  0  0  0
    6.6861   -2.1094   24.3097 H   0  0  0  0  0  0  0  0  0  0  0  0
  1  2  1  0
  2  3  1  0
  3  4  1  0
  4  5  1  0
  5  6  2  0
  6  7  1  0
  7  8  2  0
  8  9  1  0
  9 10  2  0
 10 11  1  0
 11 12  2  0
 12 13  1  0
 13 14  2  0
 13 15  1  0
 12 16  1  0
 11 17  1  0
 10 18  1  0
  8 19  1  0
  6 20  1  0
  4 21  1  0
 21 22  2  0
 21 23  1  0
 23 24  1  1
 24 25  1  0
 25 26  1  0
 26 27  1  0
 27 28  1  0
 28 29  1  0
 29 30  1  0
 30 31  1  0
 31 32  1  0
 32 33  1  0
 33 34  1  0
 34 35  1  0
 34 36  1  0
 32 37  1  0
 32 38  1  0
 31 39  1  0
 39 40  1  0
 39 41  1  0
 30 42  1  0
 30 43  1  0
 29 44  1  0
 29 45  1  0
 28 46  1  1
 27 47  1  0
 27 48  1  0
 26 49  1  0
 26 50  1  0
 25 51  1  0
 51 52  2  0
 51 53  1  0
 53 54  2  0
 54 55  1  0
 55 56  2  0
 56 57  1  0
 56 58  1  0
 58 59  2  0
 58 60  1  0
 55 61  1  0
 54 62  1  0
 24 63  1  0
 24 64  1  0
  3 65  1  0
  3 66  1  0
  2 67  1  6
  1 68  1  0
  1 69  1  0
  1 70  1  0
 23  2  1  0
 39 28  1  0
 59 53  1  0
 14  5  1  0
 59 23  1  0
 14  9  1  0
 34 31  1  0
M  CHG  1  28   1
M  END
>  <cnnaffinities>  (63) 
[6.49158]

>  <score>  (63) 
6.49158

>  <index>  (63) 
62

>  <Smiles>  (63) 
C([C@]1(C(N(c2c(nc(c3c(c(c(c(c23)[H])[H])[H])[H])[H])[H])C(=O)[C@]21C(N(C(C([N@@+]1(C(C(C3(C(OC3([H])[H])([H])[H])C1([H])[H])([H])[H])([H])[H])[H])([H])[H])([H])[H])C(=O)c1c(c(c(Cl)c(c21)[H])[H])[H])([H])[H])([H])[H])[H])([H])([H])[H]

>  <h>  (63) 
<NA>

>  <Training>  (63) 
True

>  <Success>  (63) 
True

>  <enamine_searched>  (63) 
False

>  <enamine_id>  (63) 
nan

$$$$

     RDKit          3D

 56 61  0  0  0  0  0  0  0  0999 V2000
    5.5689    4.8340   21.4547 C   0  0  0  0  0  0  0  0  0  0  0  0
    6.5795    4.5716   22.4625 N   0  0  0  0  0  0  0  0  0  0  0  0
    7.7844    5.1701   22.5696 C   0  0  0  0  0  0  0  0  0  0  0  0
    8.4627    4.5279   23.5785 C   0  0  0  0  0  0  0  0  0  0  0  0
    7.5836    3.5116   24.0093 C   0  0  0  0  0  0  0  0  0  0  0  0
    7.8914    2.4351   25.0235 C   0  0  0  0  0  0  0  0  0  0  0  0
    8.6646    1.3143   24.4868 N   0  0  0  0  0  0  0  0  0  0  0  0
    7.9940    0.0736   24.1551 C   0  0  0  0  0  0  0  0  0  0  0  0
    8.3480   -0.4325   22.7434 C   0  0  1  0  0  0  0  0  0  0  0  0
    7.7321   -1.8343   22.5271 C   0  0  0  0  0  0  0  0  0  0  0  0
    6.9924   -1.8133   21.1757 C   0  0  0  0  0  0  0  0  0  0  0  0
    6.8723   -0.4015   20.8744 N   0  0  0  0  0  0  0  0  0  0  0  0
    6.1299    0.1065   19.7799 C   0  0  0  0  0  0  0  0  0  0  0  0
    6.4470   -0.2253   18.4857 C   0  0  0  0  0  0  0  0  0  0  0  0
    5.7764    0.2228   17.3963 N   0  0  0  0  0  0  0  0  0  0  0  0
    4.7528    1.0184   17.5994 C   0  0  0  0  0  0  0  0  0  0  0  0
    4.2952    1.4202   18.8853 C   0  0  0  0  0  0  0  0  0  0  0  0
    3.1614    2.2590   19.0624 C   0  0  0  0  0  0  0  0  0  0  0  0
    2.7341    2.6025   20.3167 C   0  0  0  0  0  0  0  0  0  0  0  0
    3.4179    2.1173   21.4527 C   0  0  0  0  0  0  0  0  0  0  0  0
    4.5206    1.3125   21.3072 C   0  0  0  0  0  0  0  0  0  0  0  0
    5.0011    0.9526   20.0182 C   0  0  0  0  0  0  0  0  0  0  0  0
    5.0259    0.9361   22.1901 H   0  0  0  0  0  0  0  0  0  0  0  0
    3.0810    2.3902   22.4494 H   0  0  0  0  0  0  0  0  0  0  0  0
    1.8735    3.2523   20.4430 H   0  0  0  0  0  0  0  0  0  0  0  0
    2.6559    2.6314   18.1769 H   0  0  0  0  0  0  0  0  0  0  0  0
    4.2281    1.3809   16.7160 H   0  0  0  0  0  0  0  0  0  0  0  0
    7.2904   -0.8782   18.2645 H   0  0  0  0  0  0  0  0  0  0  0  0
    7.7014    0.4132   21.6157 C   0  0  0  0  0  0  0  0  0  0  0  0
    7.8936    1.5824   21.3739 O   0  0  0  0  0  0  0  0  0  0  0  0
    5.9941   -2.2649   21.2284 H   0  0  0  0  0  0  0  0  0  0  0  0
    7.5570   -2.3284   20.3910 H   0  0  0  0  0  0  0  0  0  0  0  0
    8.4917   -2.6198   22.5699 H   0  0  0  0  0  0  0  0  0  0  0  0
    7.0240   -2.0395   23.3356 H   0  0  0  0  0  0  0  0  0  0  0  0
    9.8463   -0.3734   22.5969 C   0  0  0  0  0  0  0  0  0  0  0  0
   10.4415   -1.1591   21.6157 C   0  0  0  0  0  0  0  0  0  0  0  0
   11.8028   -1.1104   21.4136 C   0  0  0  0  0  0  0  0  0  0  0  0
   12.4464   -2.1784   20.2088 Cl  0  0  0  0  0  0  0  0  0  0  0  0
   12.6138   -0.2445   22.1450 C   0  0  0  0  0  0  0  0  0  0  0  0
   12.0165    0.5722   23.0917 C   0  0  0  0  0  0  0  0  0  0  0  0
   10.6408    0.5201   23.3231 C   0  0  0  0  0  0  0  0  0  0  0  0
   10.0142    1.4833   24.2899 C   0  0  0  0  0  0  0  0  0  0  0  0
   10.6393    2.3866   24.8322 O   0  0  0  0  0  0  0  0  0  0  0  0
   12.5892    1.2838   23.6738 H   0  0  0  0  0  0  0  0  0  0  0  0
   13.6816   -0.2043   21.9580 H   0  0  0  0  0  0  0  0  0  0  0  0
    9.8702   -1.8183   20.9726 H   0  0  0  0  0  0  0  0  0  0  0  0
    8.2545   -0.7218   24.8760 H   0  0  0  0  0  0  0  0  0  0  0  0
    6.9181    0.2619   24.1880 H   0  0  0  0  0  0  0  0  0  0  0  0
    6.9589    2.0343   25.4409 H   0  0  0  0  0  0  0  0  0  0  0  0
    8.4874    2.8648   25.8337 H   0  0  0  0  0  0  0  0  0  0  0  0
    6.4274    3.5706   23.3511 N   0  0  0  0  0  0  0  0  0  0  0  0
    9.4564    4.7055   23.9620 H   0  0  0  0  0  0  0  0  0  0  0  0
    8.0567    5.9778   21.8988 H   0  0  0  0  0  0  0  0  0  0  0  0
    4.5862    4.7736   21.9285 H   0  0  0  0  0  0  0  0  0  0  0  0
    5.7349    5.8460   21.0699 H   0  0  0  0  0  0  0  0  0  0  0  0
    5.6118    4.1006   20.6362 H   0  0  0  0  0  0  0  0  0  0  0  0
  1  2  1  0
  2  3  1  0
  3  4  2  0
  4  5  1  0
  5  6  1  0
  6  7  1  0
  7  8  1  0
  9  8  1  1
  9 10  1  0
 10 11  1  0
 11 12  1  0
 12 13  1  0
 13 14  2  0
 14 15  1  0
 15 16  2  0
 16 17  1  0
 17 18  2  0
 18 19  1  0
 19 20  2  0
 20 21  1  0
 21 22  2  0
 21 23  1  0
 20 24  1  0
 19 25  1  0
 18 26  1  0
 16 27  1  0
 14 28  1  0
 12 29  1  0
 29 30  2  0
 11 31  1  0
 11 32  1  0
 10 33  1  0
 10 34  1  0
  9 35  1  0
 35 36  2  0
 36 37  1  0
 37 38  1  0
 37 39  2  0
 39 40  1  0
 40 41  2  0
 41 42  1  0
 42 43  2  0
 40 44  1  0
 39 45  1  0
 36 46  1  0
  8 47  1  0
  8 48  1  0
  6 49  1  0
  6 50  1  0
  5 51  2  0
  4 52  1  0
  3 53  1  0
  1 54  1  0
  1 55  1  0
  1 56  1  0
 51  2  1  0
 42  7  1  0
 29  9  1  0
 41 35  1  0
 22 13  1  0
 22 17  1  0
M  END
>  <cnnaffinities>  (64) 
[6.12343]

>  <score>  (64) 
6.12343

>  <index>  (64) 
63

>  <Smiles>  (64) 
C(n1c(c(c(C(N2C([C@]3(C(C(N(c4c(nc(c5c(c(c(c(c45)[H])[H])[H])[H])[H])[H])C3=O)([H])[H])([H])[H])c3c(c(Cl)c(c(c3C2=O)[H])[H])[H])([H])[H])([H])[H])n1)[H])[H])([H])([H])[H]

>  <h>  (64) 
<NA>

>  <Training>  (64) 
True

>  <Success>  (64) 
True

>  <enamine_searched>  (64) 
False

>  <enamine_id>  (64) 
nan

$$$$

     RDKit          3D

 66 71  0  0  0  0  0  0  0  0999 V2000
    7.5422   -2.4209   23.8666 C   0  0  0  0  0  0  0  0  0  0  0  0
    7.8580   -1.6903   22.5555 C   0  0  1  0  0  0  0  0  0  0  0  0
    6.6271   -1.5472   21.6337 C   0  0  0  0  0  0  0  0  0  0  0  0
    6.9495   -0.3859   20.8208 N   0  0  0  0  0  0  0  0  0  0  0  0
    6.1431    0.1110   19.7599 C   0  0  0  0  0  0  0  0  0  0  0  0
    6.4571   -0.2073   18.4639 C   0  0  0  0  0  0  0  0  0  0  0  0
    5.7688    0.2261   17.3804 N   0  0  0  0  0  0  0  0  0  0  0  0
    4.7428    1.0154   17.5924 C   0  0  0  0  0  0  0  0  0  0  0  0
    4.2928    1.4151   18.8829 C   0  0  0  0  0  0  0  0  0  0  0  0
    3.1698    2.2701   19.0597 C   0  0  0  0  0  0  0  0  0  0  0  0
    2.7677    2.6409   20.3167 C   0  0  0  0  0  0  0  0  0  0  0  0
    3.4603    2.1655   21.4478 C   0  0  0  0  0  0  0  0  0  0  0  0
    4.5534    1.3422   21.3008 C   0  0  0  0  0  0  0  0  0  0  0  0
    5.0073    0.9480   20.0093 C   0  0  0  0  0  0  0  0  0  0  0  0
    5.0729    0.9831   22.1806 H   0  0  0  0  0  0  0  0  0  0  0  0
    3.1344    2.4550   22.4442 H   0  0  0  0  0  0  0  0  0  0  0  0
    1.9219    3.3139   20.4442 H   0  0  0  0  0  0  0  0  0  0  0  0
    2.6619    2.6395   18.1768 H   0  0  0  0  0  0  0  0  0  0  0  0
    4.2137    1.3824   16.7135 H   0  0  0  0  0  0  0  0  0  0  0  0
    7.3054   -0.8570   18.2592 H   0  0  0  0  0  0  0  0  0  0  0  0
    7.9884    0.3710   21.3169 C   0  0  0  0  0  0  0  0  0  0  0  0
    8.4471    1.3486   20.7628 O   0  0  0  0  0  0  0  0  0  0  0  0
    8.4364   -0.2414   22.6670 C   0  0  1  0  0  0  0  0  0  0  0  0
    7.7999    0.5265   23.8544 C   0  0  0  0  0  0  0  0  0  0  0  0
    8.2687    1.8966   23.9118 N   0  0  0  0  0  0  0  0  0  0  0  0
    7.3181    2.9878   24.0569 C   0  0  0  0  0  0  0  0  0  0  0  0
    7.0683    3.7065   22.7272 C   0  0  0  0  0  0  0  0  0  0  0  0
    5.9379    4.6736   22.7734 N   0  0  0  0  0  4  0  0  0  0  0  0
    6.1721    5.8151   23.7405 C   0  0  0  0  0  0  0  0  0  0  0  0
    5.1950    6.9676   23.4408 C   0  0  0  0  0  0  0  0  0  0  0  0
    4.0613    6.4859   22.7566 O   0  0  0  0  0  0  0  0  0  0  0  0
    4.3888    6.1179   21.4331 C   0  0  0  0  0  0  0  0  0  0  0  0
    5.6197    5.1884   21.3945 C   0  0  0  0  0  0  0  0  0  0  0  0
    6.4999    5.7193   21.0107 H   0  0  0  0  0  0  0  0  0  0  0  0
    5.4345    4.3255   20.7462 H   0  0  0  0  0  0  0  0  0  0  0  0
    4.5854    7.0113   20.8157 H   0  0  0  0  0  0  0  0  0  0  0  0
    3.4921    5.6335   21.0365 H   0  0  0  0  0  0  0  0  0  0  0  0
    5.6933    7.7559   22.8535 H   0  0  0  0  0  0  0  0  0  0  0  0
    4.8267    7.4199   24.3660 H   0  0  0  0  0  0  0  0  0  0  0  0
    6.0207    5.4421   24.7562 H   0  0  0  0  0  0  0  0  0  0  0  0
    7.2096    6.1503   23.6398 H   0  0  0  0  0  0  0  0  0  0  0  0
    5.0866    4.1664   23.0868 H   0  0  0  0  0  0  0  0  0  0  0  0
    6.8573    2.9710   21.9438 H   0  0  0  0  0  0  0  0  0  0  0  0
    7.9817    4.2440   22.4345 H   0  0  0  0  0  0  0  0  0  0  0  0
    7.7199    3.6726   24.8086 H   0  0  0  0  0  0  0  0  0  0  0  0
    6.3782    2.5619   24.4282 H   0  0  0  0  0  0  0  0  0  0  0  0
    9.6002    2.1941   23.8430 C   0  0  0  0  0  0  0  0  0  0  0  0
   10.0449    3.2998   24.1275 O   0  0  0  0  0  0  0  0  0  0  0  0
   10.4898    1.0721   23.3689 C   0  0  0  0  0  0  0  0  0  0  0  0
   11.8728    1.2323   23.4407 C   0  0  0  0  0  0  0  0  0  0  0  0
   12.7224    0.2253   23.0122 C   0  0  0  0  0  0  0  0  0  0  0  0
   12.1599   -0.9506   22.5205 C   0  0  0  0  0  0  0  0  0  0  0  0
   13.0960   -2.3797   22.2334 Cl  0  0  0  0  0  0  0  0  0  0  0  0
   10.8001   -1.0760   22.3427 C   0  0  0  0  0  0  0  0  0  0  0  0
    9.9355   -0.0935   22.8161 C   0  0  0  0  0  0  0  0  0  0  0  0
   10.4432   -1.9615   21.8367 H   0  0  0  0  0  0  0  0  0  0  0  0
   13.7958    0.3486   23.0581 H   0  0  0  0  0  0  0  0  0  0  0  0
   12.2506    2.1539   23.8709 H   0  0  0  0  0  0  0  0  0  0  0  0
    8.0621   -0.0056   24.7853 H   0  0  0  0  0  0  0  0  0  0  0  0
    6.7090    0.5429   23.7467 H   0  0  0  0  0  0  0  0  0  0  0  0
    5.7074   -1.3971   22.2228 H   0  0  0  0  0  0  0  0  0  0  0  0
    6.4644   -2.4255   20.9994 H   0  0  0  0  0  0  0  0  0  0  0  0
    8.5965   -2.2784   22.0029 H   0  0  0  0  0  0  0  0  0  0  0  0
    7.2305   -3.4572   23.6817 H   0  0  0  0  0  0  0  0  0  0  0  0
    8.4075   -2.4501   24.5398 H   0  0  0  0  0  0  0  0  0  0  0  0
    6.7222   -1.9285   24.4048 H   0  0  0  0  0  0  0  0  0  0  0  0
  1  2  1  0
  2  3  1  0
  3  4  1  0
  4  5  1  0
  5  6  2  0
  6  7  1  0
  7  8  2  0
  8  9  1  0
  9 10  2  0
 10 11  1  0
 11 12  2  0
 12 13  1  0
 13 14  2  0
 13 15  1  0
 12 16  1  0
 11 17  1  0
 10 18  1  0
  8 19  1  0
  6 20  1  0
  4 21  1  0
 21 22  2  0
 21 23  1  0
 23 24  1  1
 24 25  1  0
 25 26  1  0
 26 27  1  0
 27 28  1  0
 28 29  1  0
 29 30  1  0
 30 31  1  0
 31 32  1  0
 32 33  1  0
 33 34  1  0
 33 35  1  0
 32 36  1  0
 32 37  1  0
 30 38  1  0
 30 39  1  0
 29 40  1  0
 29 41  1  0
 28 42  1  0
 27 43  1  0
 27 44  1  0
 26 45  1  0
 26 46  1  0
 25 47  1  0
 47 48  2  0
 47 49  1  0
 49 50  2  0
 50 51  1  0
 51 52  2  0
 52 53  1  0
 52 54  1  0
 54 55  2  0
 54 56  1  0
 51 57  1  0
 50 58  1  0
 24 59  1  0
 24 60  1  0
  3 61  1  0
  3 62  1  0
  2 63  1  6
  1 64  1  0
  1 65  1  0
  1 66  1  0
 23  2  1  0
 33 28  1  0
 55 49  1  0
 14  5  1  0
 55 23  1  0
 14  9  1  0
M  CHG  1  28   1
M  END
>  <cnnaffinities>  (65) 
[6.07111, 6.33648]

>  <score>  (65) 
6.07111

>  <index>  (65) 
64

>  <Smiles>  (65) 
C([C@]1(C(N(c2c(nc(c3c(c(c(c(c23)[H])[H])[H])[H])[H])[H])C(=O)[C@]21C(N(C(C([N+]1(C(C(OC(C1([H])[H])([H])[H])([H])[H])([H])[H])[H])([H])[H])([H])[H])C(=O)c1c(c(c(Cl)c(c21)[H])[H])[H])([H])[H])([H])[H])[H])([H])([H])[H]

>  <h>  (65) 
<NA>

>  <Training>  (65) 
True

>  <Success>  (65) 
True

>  <enamine_searched>  (65) 
False

>  <enamine_id>  (65) 
nan

$$$$

     RDKit          3D

 47 50  0  0  0  0  0  0  0  0999 V2000
    8.0392    1.6472   20.8869 O   0  0  0  0  0  0  0  0  0  0  0  0
    8.0553    0.5188   21.3449 C   0  0  0  0  0  0  0  0  0  0  0  0
    6.9727   -0.4883   20.9237 C   0  0  0  0  0  0  0  0  0  0  0  0
    6.1310    0.0488   19.7967 C   0  0  0  0  0  0  0  0  0  0  0  0
    6.4630   -0.2348   18.4954 C   0  0  0  0  0  0  0  0  0  0  0  0
    5.8111    0.2187   17.3928 N   0  0  0  0  0  0  0  0  0  0  0  0
    4.7796    1.0052   17.5983 C   0  0  0  0  0  0  0  0  0  0  0  0
    4.3239    1.3975   18.8858 C   0  0  0  0  0  0  0  0  0  0  0  0
    3.1968    2.2411   19.0539 C   0  0  0  0  0  0  0  0  0  0  0  0
    2.7877    2.6108   20.3062 C   0  0  0  0  0  0  0  0  0  0  0  0
    3.4943    2.1582   21.4420 C   0  0  0  0  0  0  0  0  0  0  0  0
    4.5926    1.3439   21.3049 C   0  0  0  0  0  0  0  0  0  0  0  0
    5.0271    0.9238   20.0200 C   0  0  0  0  0  0  0  0  0  0  0  0
    5.1354    1.0188   22.1864 H   0  0  0  0  0  0  0  0  0  0  0  0
    3.1591    2.4569   22.4310 H   0  0  0  0  0  0  0  0  0  0  0  0
    1.9283    3.2639   20.4314 H   0  0  0  0  0  0  0  0  0  0  0  0
    2.6754    2.5957   18.1664 H   0  0  0  0  0  0  0  0  0  0  0  0
    4.2478    1.3666   16.7177 H   0  0  0  0  0  0  0  0  0  0  0  0
    7.3194   -0.8753   18.2891 H   0  0  0  0  0  0  0  0  0  0  0  0
    6.3561   -0.7713   21.7859 H   0  0  0  0  0  0  0  0  0  0  0  0
    7.4803   -1.4010   20.5857 H   0  0  0  0  0  0  0  0  0  0  0  0
    9.0489    0.1067   22.2175 N   0  0  0  0  0  0  0  0  0  0  0  0
    9.2594   -1.2831   22.6258 C   0  0  0  0  0  0  0  0  0  0  0  0
   10.0152   -1.3308   23.9540 C   0  0  0  0  0  0  0  0  0  0  0  0
   11.3734   -0.6269   23.8712 C   0  0  1  0  0  0  0  0  0  0  0  0
   12.4456   -1.4408   23.1351 C   0  0  0  0  0  0  0  0  0  0  0  0
   13.7752   -0.6855   23.1595 C   0  0  0  0  0  0  0  0  0  0  0  0
   13.6017    0.5857   22.3610 C   0  0  0  0  0  0  0  0  0  0  0  0
   14.7772    1.2798   22.2582 F   0  0  0  0  0  0  0  0  0  0  0  0
   13.2617    0.2309   21.0760 F   0  0  0  0  0  0  0  0  0  0  0  0
   12.5266    1.4996   22.9306 C   0  0  0  0  0  0  0  0  0  0  0  0
   11.1983    0.7867   23.2751 C   0  0  1  0  0  0  0  0  0  0  0  0
   10.3307    0.7682   22.0229 C   0  0  0  0  0  0  0  0  0  0  0  0
   10.8488    0.2512   21.1997 H   0  0  0  0  0  0  0  0  0  0  0  0
   10.1295    1.8032   21.7400 H   0  0  0  0  0  0  0  0  0  0  0  0
   10.6648    1.3942   24.0212 H   0  0  0  0  0  0  0  0  0  0  0  0
   12.3343    2.2898   22.1964 H   0  0  0  0  0  0  0  0  0  0  0  0
   12.9475    1.9913   23.8087 H   0  0  0  0  0  0  0  0  0  0  0  0
   14.5806   -1.2868   22.7363 H   0  0  0  0  0  0  0  0  0  0  0  0
   14.0749   -0.3990   24.1740 H   0  0  0  0  0  0  0  0  0  0  0  0
   12.1517   -1.5935   22.0896 H   0  0  0  0  0  0  0  0  0  0  0  0
   12.5667   -2.4360   23.5770 H   0  0  0  0  0  0  0  0  0  0  0  0
   11.7454   -0.5010   24.8922 H   0  0  0  0  0  0  0  0  0  0  0  0
    9.4118   -0.8504   24.7345 H   0  0  0  0  0  0  0  0  0  0  0  0
   10.1586   -2.3726   24.2681 H   0  0  0  0  0  0  0  0  0  0  0  0
    8.3011   -1.7959   22.7432 H   0  0  0  0  0  0  0  0  0  0  0  0
    9.8524   -1.8138   21.8553 H   0  0  0  0  0  0  0  0  0  0  0  0
  1  2  2  0
  2  3  1  0
  3  4  1  0
  4  5  2  0
  5  6  1  0
  6  7  2  0
  7  8  1  0
  8  9  2  0
  9 10  1  0
 10 11  2  0
 11 12  1  0
 12 13  2  0
 12 14  1  0
 11 15  1  0
 10 16  1  0
  9 17  1  0
  7 18  1  0
  5 19  1  0
  3 20  1  0
  3 21  1  0
  2 22  1  0
 22 23  1  0
 23 24  1  0
 24 25  1  0
 25 26  1  0
 26 27  1  0
 27 28  1  0
 28 29  1  0
 28 30  1  0
 28 31  1  0
 31 32  1  0
 32 33  1  0
 33 34  1  0
 33 35  1  0
 32 36  1  1
 31 37  1  0
 31 38  1  0
 27 39  1  0
 27 40  1  0
 26 41  1  0
 26 42  1  0
 25 43  1  1
 24 44  1  0
 24 45  1  0
 23 46  1  0
 23 47  1  0
 13  4  1  0
 33 22  1  0
 13  8  1  0
 32 25  1  0
M  END
>  <cnnaffinities>  (66) 
[5.87253]

>  <score>  (66) 
5.87253

>  <index>  (66) 
66

>  <Smiles>  (66) 
O=C(C(c1c(nc(c2c(c(c(c(c12)[H])[H])[H])[H])[H])[H])([H])[H])N1C(C([C@]2(C(C(C(F)(F)C([C@]2(C1([H])[H])[H])([H])[H])([H])[H])([H])[H])[H])([H])[H])([H])[H]

>  <h>  (66) 
<NA>

>  <Training>  (66) 
True

>  <Success>  (66) 
True

>  <enamine_searched>  (66) 
False

>  <enamine_id>  (66) 
nan

$$$$

     RDKit          3D

 69 74  0  0  0  0  0  0  0  0999 V2000
    7.3098    5.0926   21.6898 C   0  0  0  0  0  0  0  0  0  0  0  0
    7.8301    4.0799   22.6337 N   0  0  0  0  0  4  0  0  0  0  0  0
    6.8098    3.5760   23.5972 C   0  0  0  0  0  0  0  0  0  0  0  0
    7.4816    2.9077   24.8016 C   0  0  0  0  0  0  0  0  0  0  0  0
    8.3265    1.7814   24.4370 N   0  0  0  0  0  0  0  0  0  0  0  0
    7.6824    0.5059   24.1602 C   0  0  0  0  0  0  0  0  0  0  0  0
    8.1869   -0.1500   22.8533 C   0  0  2  0  0  0  0  0  0  0  0  0
    7.6529    0.5848   21.6122 C   0  0  0  0  0  0  0  0  0  0  0  0
    7.8121    1.7702   21.3515 O   0  0  0  0  0  0  0  0  0  0  0  0
    6.9422   -0.2796   20.8350 N   0  0  0  0  0  0  0  0  0  0  0  0
    6.1552    0.1861   19.7502 C   0  0  0  0  0  0  0  0  0  0  0  0
    6.4527   -0.1927   18.4680 C   0  0  0  0  0  0  0  0  0  0  0  0
    5.7618    0.2183   17.3766 N   0  0  0  0  0  0  0  0  0  0  0  0
    4.7381    1.0153   17.5713 C   0  0  0  0  0  0  0  0  0  0  0  0
    4.2927    1.4430   18.8579 C   0  0  0  0  0  0  0  0  0  0  0  0
    3.1631    2.2893   19.0400 C   0  0  0  0  0  0  0  0  0  0  0  0
    2.7530    2.6466   20.2953 C   0  0  0  0  0  0  0  0  0  0  0  0
    3.4384    2.1662   21.4342 C   0  0  0  0  0  0  0  0  0  0  0  0
    4.5283    1.3449   21.2859 C   0  0  0  0  0  0  0  0  0  0  0  0
    5.0052    0.9952   19.9881 C   0  0  0  0  0  0  0  0  0  0  0  0
    5.0352    0.9634   22.1679 H   0  0  0  0  0  0  0  0  0  0  0  0
    3.1070    2.4512   22.4276 H   0  0  0  0  0  0  0  0  0  0  0  0
    1.9019    3.3101   20.4261 H   0  0  0  0  0  0  0  0  0  0  0  0
    2.6425    2.6600   18.1609 H   0  0  0  0  0  0  0  0  0  0  0  0
    4.2002    1.3515   16.6841 H   0  0  0  0  0  0  0  0  0  0  0  0
    7.2963   -0.8546   18.2804 H   0  0  0  0  0  0  0  0  0  0  0  0
    6.5909   -1.5081   21.5325 C   0  0  0  0  0  0  0  0  0  0  0  0
    7.6681   -1.6105   22.6150 C   0  0  2  0  0  0  0  0  0  0  0  0
    7.2663   -2.4343   23.8309 C   0  0  0  0  0  0  0  0  0  0  0  0
    5.9789   -2.0476   24.2835 O   0  0  0  0  0  0  0  0  0  0  0  0
    5.6833   -2.5439   25.5708 C   0  0  0  0  0  0  0  0  0  0  0  0
    6.2263   -1.6567   26.6572 C   0  0  0  0  0  0  0  0  0  0  0  0
    7.5982   -1.7756   26.7953 F   0  0  0  0  0  0  0  0  0  0  0  0
    5.4690   -1.4022   27.9040 C   0  0  0  0  0  0  0  0  0  0  0  0
    5.6572   -0.3009   26.8737 C   0  0  0  0  0  0  0  0  0  0  0  0
    6.3587    0.5005   27.1008 H   0  0  0  0  0  0  0  0  0  0  0  0
    4.8143   -0.0334   26.2421 H   0  0  0  0  0  0  0  0  0  0  0  0
    6.0303   -1.3441   28.8315 H   0  0  0  0  0  0  0  0  0  0  0  0
    4.4923   -1.8678   28.0031 H   0  0  0  0  0  0  0  0  0  0  0  0
    6.0727   -3.5638   25.6975 H   0  0  0  0  0  0  0  0  0  0  0  0
    4.5915   -2.5818   25.6378 H   0  0  0  0  0  0  0  0  0  0  0  0
    7.2655   -3.5092   23.5825 H   0  0  0  0  0  0  0  0  0  0  0  0
    8.0073   -2.2974   24.6259 H   0  0  0  0  0  0  0  0  0  0  0  0
    8.5153   -2.1404   22.1789 H   0  0  0  0  0  0  0  0  0  0  0  0
    5.5916   -1.4401   21.9790 H   0  0  0  0  0  0  0  0  0  0  0  0
    6.6014   -2.3360   20.8181 H   0  0  0  0  0  0  0  0  0  0  0  0
    9.6908   -0.0340   22.8032 C   0  0  0  0  0  0  0  0  0  0  0  0
   10.3826   -0.8169   21.8843 C   0  0  0  0  0  0  0  0  0  0  0  0
   11.7553   -0.8639   21.8992 C   0  0  0  0  0  0  0  0  0  0  0  0
   12.4369   -2.1275   20.9287 Cl  0  0  0  0  0  0  0  0  0  0  0  0
   12.5004    0.0135   22.6913 C   0  0  0  0  0  0  0  0  0  0  0  0
   11.8046    0.9330   23.4649 C   0  0  0  0  0  0  0  0  0  0  0  0
   10.4078    0.9162   23.5300 C   0  0  0  0  0  0  0  0  0  0  0  0
    9.6813    1.9598   24.3261 C   0  0  0  0  0  0  0  0  0  0  0  0
   10.2653    2.9298   24.7928 O   0  0  0  0  0  0  0  0  0  0  0  0
   12.3379    1.6922   24.0232 H   0  0  0  0  0  0  0  0  0  0  0  0
   13.5858   -0.0052   22.6879 H   0  0  0  0  0  0  0  0  0  0  0  0
    9.8754   -1.4028   21.1291 H   0  0  0  0  0  0  0  0  0  0  0  0
    6.6114    0.6853   24.0746 H   0  0  0  0  0  0  0  0  0  0  0  0
    7.8247   -0.1750   25.0097 H   0  0  0  0  0  0  0  0  0  0  0  0
    8.1265    3.6131   25.3306 H   0  0  0  0  0  0  0  0  0  0  0  0
    6.7104    2.5593   25.4970 H   0  0  0  0  0  0  0  0  0  0  0  0
    6.1741    4.4036   23.9457 H   0  0  0  0  0  0  0  0  0  0  0  0
    6.1662    2.8572   23.0724 H   0  0  0  0  0  0  0  0  0  0  0  0
    8.1512    3.2529   22.0869 H   0  0  0  0  0  0  0  0  0  0  0  0
    8.6525    4.4623   23.1333 H   0  0  0  0  0  0  0  0  0  0  0  0
    6.8971    4.5951   20.8056 H   0  0  0  0  0  0  0  0  0  0  0  0
    8.1095    5.7695   21.3803 H   0  0  0  0  0  0  0  0  0  0  0  0
    6.5127    5.6863   22.1502 H   0  0  0  0  0  0  0  0  0  0  0  0
  1  2  1  0
  2  3  1  0
  3  4  1  0
  4  5  1  0
  5  6  1  0
  7  6  1  1
  7  8  1  0
  8  9  2  0
  8 10  1  0
 10 11  1  0
 11 12  2  0
 12 13  1  0
 13 14  2  0
 14 15  1  0
 15 16  2  0
 16 17  1  0
 17 18  2  0
 18 19  1  0
 19 20  2  0
 19 21  1  0
 18 22  1  0
 17 23  1  0
 16 24  1  0
 14 25  1  0
 12 26  1  0
 10 27  1  0
 27 28  1  0
 28 29  1  0
 29 30  1  0
 30 31  1  0
 31 32  1  0
 32 33  1  0
 32 34  1  0
 34 35  1  0
 35 36  1  0
 35 37  1  0
 34 38  1  0
 34 39  1  0
 31 40  1  0
 31 41  1  0
 29 42  1  0
 29 43  1  0
 28 44  1  6
 27 45  1  0
 27 46  1  0
  7 47  1  0
 47 48  2  0
 48 49  1  0
 49 50  1  0
 49 51  2  0
 51 52  1  0
 52 53  2  0
 53 54  1  0
 54 55  2  0
 52 56  1  0
 51 57  1  0
 48 58  1  0
  6 59  1  0
  6 60  1  0
  4 61  1  0
  4 62  1  0
  3 63  1  0
  3 64  1  0
  2 65  1  0
  2 66  1  0
  1 67  1  0
  1 68  1  0
  1 69  1  0
 54  5  1  0
 28  7  1  0
 35 32  1  0
 53 47  1  0
 20 11  1  0
 20 15  1  0
M  CHG  1   2   1
M  END
>  <cnnaffinities>  (67) 
[6.15485, 6.71465]

>  <score>  (67) 
6.15485

>  <index>  (67) 
67

>  <Smiles>  (67) 
C([N+](C(C(N1C([C@@]2(C(=O)N(c3c(nc(c4c(c(c(c(c34)[H])[H])[H])[H])[H])[H])C([C@@]2(C(OC(C2(F)C(C2([H])[H])([H])[H])([H])[H])([H])[H])[H])([H])[H])c2c(c(Cl)c(c(c2C1=O)[H])[H])[H])([H])[H])([H])[H])([H])[H])([H])[H])([H])([H])[H]

>  <h>  (67) 
<NA>

>  <Training>  (67) 
True

>  <Success>  (67) 
True

>  <enamine_searched>  (67) 
False

>  <enamine_id>  (67) 
nan

$$$$

     RDKit          3D

 57 62  0  0  0  0  0  0  0  0999 V2000
    5.4047    4.9804   21.5231 C   0  0  0  0  0  0  0  0  0  0  0  0
    6.3767    4.5223   22.5549 C   0  0  0  0  0  0  0  0  0  0  0  0
    6.2927    3.5166   23.3810 N   0  0  0  0  0  0  0  0  0  0  0  0
    7.5190    3.5484   24.0074 C   0  0  0  0  0  0  0  0  0  0  0  0
    7.9475    2.5076   25.0029 C   0  0  0  0  0  0  0  0  0  0  0  0
    8.7034    1.4238   24.3947 N   0  0  0  0  0  0  0  0  0  0  0  0
    8.0806    0.1339   24.1531 C   0  0  0  0  0  0  0  0  0  0  0  0
    8.3696   -0.4022   22.7326 C   0  0  2  0  0  0  0  0  0  0  0  0
    7.6621    0.4448   21.6434 C   0  0  0  0  0  0  0  0  0  0  0  0
    7.7806    1.6361   21.4596 O   0  0  0  0  0  0  0  0  0  0  0  0
    6.8912   -0.3875   20.8613 N   0  0  0  0  0  0  0  0  0  0  0  0
    6.1284    0.1029   19.7747 C   0  0  0  0  0  0  0  0  0  0  0  0
    6.4444   -0.2274   18.4794 C   0  0  0  0  0  0  0  0  0  0  0  0
    5.7735    0.2222   17.3922 N   0  0  0  0  0  0  0  0  0  0  0  0
    4.7505    1.0183   17.5981 C   0  0  0  0  0  0  0  0  0  0  0  0
    4.2933    1.4156   18.8863 C   0  0  0  0  0  0  0  0  0  0  0  0
    3.1619    2.2611   19.0609 C   0  0  0  0  0  0  0  0  0  0  0  0
    2.7328    2.6034   20.3162 C   0  0  0  0  0  0  0  0  0  0  0  0
    3.4146    2.1122   21.4508 C   0  0  0  0  0  0  0  0  0  0  0  0
    4.5118    1.3004   21.3068 C   0  0  0  0  0  0  0  0  0  0  0  0
    4.9932    0.9425   20.0150 C   0  0  0  0  0  0  0  0  0  0  0  0
    5.0194    0.9235   22.1856 H   0  0  0  0  0  0  0  0  0  0  0  0
    3.0813    2.3903   22.4481 H   0  0  0  0  0  0  0  0  0  0  0  0
    1.8763    3.2608   20.4402 H   0  0  0  0  0  0  0  0  0  0  0  0
    2.6620    2.6365   18.1747 H   0  0  0  0  0  0  0  0  0  0  0  0
    4.2274    1.3831   16.7162 H   0  0  0  0  0  0  0  0  0  0  0  0
    7.2920   -0.8748   18.2604 H   0  0  0  0  0  0  0  0  0  0  0  0
    7.1216   -1.7955   21.1031 C   0  0  0  0  0  0  0  0  0  0  0  0
    7.8035   -1.8472   22.4935 C   0  0  2  0  0  0  0  0  0  0  0  0
    6.8299   -2.3827   23.5582 C   0  0  0  0  0  0  0  0  0  0  0  0
    7.3054   -2.4611   24.5412 H   0  0  0  0  0  0  0  0  0  0  0  0
    5.9420   -1.7464   23.6581 H   0  0  0  0  0  0  0  0  0  0  0  0
    6.4910   -3.3889   23.2825 H   0  0  0  0  0  0  0  0  0  0  0  0
    8.6466   -2.5477   22.4660 H   0  0  0  0  0  0  0  0  0  0  0  0
    6.1656   -2.3330   21.0916 H   0  0  0  0  0  0  0  0  0  0  0  0
    7.7652   -2.2229   20.3234 H   0  0  0  0  0  0  0  0  0  0  0  0
    9.8738   -0.2971   22.5199 C   0  0  0  0  0  0  0  0  0  0  0  0
   10.4868   -1.0964   21.5544 C   0  0  0  0  0  0  0  0  0  0  0  0
   11.8375   -0.9627   21.3269 C   0  0  0  0  0  0  0  0  0  0  0  0
   12.3834   -1.7392   20.3772 F   0  0  0  0  0  0  0  0  0  0  0  0
   12.6234   -0.0253   21.9833 C   0  0  0  0  0  0  0  0  0  0  0  0
   12.0106    0.8035   22.9043 C   0  0  0  0  0  0  0  0  0  0  0  0
   10.6472    0.6735   23.1698 C   0  0  0  0  0  0  0  0  0  0  0  0
   10.0268    1.6481   24.1236 C   0  0  0  0  0  0  0  0  0  0  0  0
   10.6380    2.5897   24.6056 O   0  0  0  0  0  0  0  0  0  0  0  0
   12.5507    1.5853   23.4275 H   0  0  0  0  0  0  0  0  0  0  0  0
   13.6691    0.0698   21.7188 H   0  0  0  0  0  0  0  0  0  0  0  0
    9.9508   -1.7880   20.9151 H   0  0  0  0  0  0  0  0  0  0  0  0
    7.0048    0.2707   24.2737 H   0  0  0  0  0  0  0  0  0  0  0  0
    8.4443   -0.6139   24.8780 H   0  0  0  0  0  0  0  0  0  0  0  0
    8.5789    2.9672   25.7688 H   0  0  0  0  0  0  0  0  0  0  0  0
    7.0469    2.0832   25.4540 H   0  0  0  0  0  0  0  0  0  0  0  0
    8.2786    4.5416   23.6516 N   0  0  0  0  0  0  0  0  0  0  0  0
    7.5320    5.1926   22.6807 O   0  0  0  0  0  0  0  0  0  0  0  0
    5.6430    5.9955   21.1976 H   0  0  0  0  0  0  0  0  0  0  0  0
    4.3948    4.9468   21.9367 H   0  0  0  0  0  0  0  0  0  0  0  0
    5.4207    4.3035   20.6613 H   0  0  0  0  0  0  0  0  0  0  0  0
  1  2  1  0
  2  3  2  0
  3  4  1  0
  4  5  1  0
  5  6  1  0
  6  7  1  0
  8  7  1  1
  8  9  1  0
  9 10  2  0
  9 11  1  0
 11 12  1  0
 12 13  2  0
 13 14  1  0
 14 15  2  0
 15 16  1  0
 16 17  2  0
 17 18  1  0
 18 19  2  0
 19 20  1  0
 20 21  2  0
 20 22  1  0
 19 23  1  0
 18 24  1  0
 17 25  1  0
 15 26  1  0
 13 27  1  0
 11 28  1  0
 28 29  1  0
 29 30  1  0
 30 31  1  0
 30 32  1  0
 30 33  1  0
 29 34  1  6
 28 35  1  0
 28 36  1  0
  8 37  1  0
 37 38  2  0
 38 39  1  0
 39 40  1  0
 39 41  2  0
 41 42  1  0
 42 43  2  0
 43 44  1  0
 44 45  2  0
 42 46  1  0
 41 47  1  0
 38 48  1  0
  7 49  1  0
  7 50  1  0
  5 51  1  0
  5 52  1  0
  4 53  2  0
 53 54  1  0
  1 55  1  0
  1 56  1  0
  1 57  1  0
 54  2  1  0
 44  6  1  0
 29  8  1  0
 43 37  1  0
 21 12  1  0
 21 16  1  0
M  END
>  <cnnaffinities>  (68) 
[6.2344, 6.33629]

>  <score>  (68) 
6.2344

>  <index>  (68) 
68

>  <Smiles>  (68) 
C(c1nc(C(N2C([C@@]3(C(=O)N(c4c(nc(c5c(c(c(c(c45)[H])[H])[H])[H])[H])[H])C([C@@]3(C([H])([H])[H])[H])([H])[H])c3c(c(F)c(c(c3C2=O)[H])[H])[H])([H])[H])([H])[H])no1)([H])([H])[H]

>  <h>  (68) 
<NA>

>  <Training>  (68) 
True

>  <Success>  (68) 
True

>  <enamine_searched>  (68) 
False

>  <enamine_id>  (68) 
nan

$$$$

     RDKit          3D

 64 68  0  0  0  0  0  0  0  0999 V2000
    1.1595   -1.2608   28.5107 C   0  0  0  0  0  0  0  0  0  0  0  0
    2.5938   -1.5792   28.0675 C   0  0  0  0  0  0  0  0  0  0  0  0
    2.6933   -2.0474   26.6181 C   0  0  0  0  0  0  0  0  0  0  0  0
    2.4460   -1.2756   25.7099 O   0  0  0  0  0  0  0  0  0  0  0  0
    3.1214   -3.3604   26.3874 N   0  0  0  0  0  0  0  0  0  0  0  0
    2.6415   -4.4653   27.2294 C   0  0  0  0  0  0  0  0  0  0  0  0
    2.2021   -5.6436   26.3634 C   0  0  0  0  0  0  0  0  0  0  0  0
    3.3887   -6.1248   25.5343 C   0  0  0  0  0  0  0  0  0  0  0  0
    4.0779   -4.9716   24.8315 C   0  0  0  0  0  0  0  0  0  0  0  0
    4.8986   -5.2210   23.7354 C   0  0  0  0  0  0  0  0  0  0  0  0
    5.6507   -4.2327   23.1186 C   0  0  0  0  0  0  0  0  0  0  0  0
    5.5549   -2.9236   23.5869 C   0  0  0  0  0  0  0  0  0  0  0  0
    6.3186   -1.8744   22.9755 N   0  0  0  0  0  0  0  0  0  0  0  0
    7.3417   -1.2070   23.7794 C   0  0  0  0  0  0  0  0  0  0  0  0
    8.7683   -1.5331   23.3618 C   0  0  0  0  0  0  0  0  0  0  0  0
    9.2127   -2.8545   23.3811 C   0  0  0  0  0  0  0  0  0  0  0  0
   10.5075   -3.1714   22.9815 C   0  0  0  0  0  0  0  0  0  0  0  0
   11.3832   -2.1787   22.5497 C   0  0  0  0  0  0  0  0  0  0  0  0
   10.9415   -0.8623   22.5526 C   0  0  0  0  0  0  0  0  0  0  0  0
   12.0245    0.4038   22.0335 Cl  0  0  0  0  0  0  0  0  0  0  0  0
    9.6522   -0.5312   22.9579 C   0  0  0  0  0  0  0  0  0  0  0  0
    9.3553    0.5146   22.9454 H   0  0  0  0  0  0  0  0  0  0  0  0
   12.3924   -2.4098   22.2185 H   0  0  0  0  0  0  0  0  0  0  0  0
   10.8315   -4.2072   23.0110 H   0  0  0  0  0  0  0  0  0  0  0  0
    8.5359   -3.6393   23.7175 H   0  0  0  0  0  0  0  0  0  0  0  0
    7.1640   -1.5530   24.8044 H   0  0  0  0  0  0  0  0  0  0  0  0
    7.2015   -0.1188   23.7587 H   0  0  0  0  0  0  0  0  0  0  0  0
    6.1255   -1.6610   21.6216 C   0  0  0  0  0  0  0  0  0  0  0  0
    5.3739   -2.3713   20.9756 O   0  0  0  0  0  0  0  0  0  0  0  0
    6.8794   -0.5060   20.9288 C   0  0  0  0  0  0  0  0  0  0  0  0
    6.1028    0.0802   19.7781 C   0  0  0  0  0  0  0  0  0  0  0  0
    6.4150   -0.2150   18.4751 C   0  0  0  0  0  0  0  0  0  0  0  0
    5.7590    0.2426   17.3762 N   0  0  0  0  0  0  0  0  0  0  0  0
    4.7317    1.0342   17.5755 C   0  0  0  0  0  0  0  0  0  0  0  0
    4.2882    1.4142   18.8710 C   0  0  0  0  0  0  0  0  0  0  0  0
    3.1650    2.2438   19.0769 C   0  0  0  0  0  0  0  0  0  0  0  0
    2.4934    2.6444   17.9834 F   0  0  0  0  0  0  0  0  0  0  0  0
    2.7416    2.6236   20.3160 C   0  0  0  0  0  0  0  0  0  0  0  0
    3.4399    2.1404   21.4422 C   0  0  0  0  0  0  0  0  0  0  0  0
    4.5267    1.3158   21.2950 C   0  0  0  0  0  0  0  0  0  0  0  0
    4.9824    0.9345   20.0055 C   0  0  0  0  0  0  0  0  0  0  0  0
    5.0439    0.9406   22.1714 H   0  0  0  0  0  0  0  0  0  0  0  0
    3.1077    2.4189   22.4390 H   0  0  0  0  0  0  0  0  0  0  0  0
    1.8856    3.2802   20.4108 H   0  0  0  0  0  0  0  0  0  0  0  0
    4.2015    1.4031   16.7000 H   0  0  0  0  0  0  0  0  0  0  0  0
    7.2595   -0.8653   18.2475 H   0  0  0  0  0  0  0  0  0  0  0  0
    7.8190   -0.9227   20.5449 H   0  0  0  0  0  0  0  0  0  0  0  0
    7.1617    0.2702   21.6482 H   0  0  0  0  0  0  0  0  0  0  0  0
    4.7303   -2.6384   24.6704 C   0  0  0  0  0  0  0  0  0  0  0  0
    3.9586   -3.6455   25.2821 C   0  0  0  0  0  0  0  0  0  0  0  0
    4.6992   -1.6148   25.0296 H   0  0  0  0  0  0  0  0  0  0  0  0
    6.3157   -4.4870   22.2996 H   0  0  0  0  0  0  0  0  0  0  0  0
    4.9938   -6.2513   23.3969 H   0  0  0  0  0  0  0  0  0  0  0  0
    4.1102   -6.6436   26.1890 H   0  0  0  0  0  0  0  0  0  0  0  0
    3.0768   -6.8721   24.7925 H   0  0  0  0  0  0  0  0  0  0  0  0
    1.3838   -5.3300   25.7035 H   0  0  0  0  0  0  0  0  0  0  0  0
    1.8209   -6.4502   26.9998 H   0  0  0  0  0  0  0  0  0  0  0  0
    3.4255   -4.7885   27.9346 H   0  0  0  0  0  0  0  0  0  0  0  0
    1.7984   -4.0796   27.8103 H   0  0  0  0  0  0  0  0  0  0  0  0
    3.1825   -0.6526   28.0866 H   0  0  0  0  0  0  0  0  0  0  0  0
    3.0911   -2.2857   28.7435 H   0  0  0  0  0  0  0  0  0  0  0  0
    0.5103   -2.1447   28.4899 H   0  0  0  0  0  0  0  0  0  0  0  0
    1.1594   -0.8656   29.5328 H   0  0  0  0  0  0  0  0  0  0  0  0
    0.7227   -0.4996   27.8568 H   0  0  0  0  0  0  0  0  0  0  0  0
  1  2  1  0
  2  3  1  0
  3  4  2  0
  3  5  1  0
  5  6  1  0
  6  7  1  0
  7  8  1  0
  8  9  1  0
  9 10  2  0
 10 11  1  0
 11 12  2  0
 12 13  1  0
 13 14  1  0
 14 15  1  0
 15 16  2  0
 16 17  1  0
 17 18  2  0
 18 19  1  0
 19 20  1  0
 19 21  2  0
 21 22  1  0
 18 23  1  0
 17 24  1  0
 16 25  1  0
 14 26  1  0
 14 27  1  0
 13 28  1  0
 28 29  2  0
 28 30  1  0
 30 31  1  0
 31 32  2  0
 32 33  1  0
 33 34  2  0
 34 35  1  0
 35 36  2  0
 36 37  1  0
 36 38  1  0
 38 39  2  0
 39 40  1  0
 40 41  2  0
 40 42  1  0
 39 43  1  0
 38 44  1  0
 34 45  1  0
 32 46  1  0
 30 47  1  0
 30 48  1  0
 12 49  1  0
 49 50  2  0
 49 51  1  0
 11 52  1  0
 10 53  1  0
  8 54  1  0
  8 55  1  0
  7 56  1  0
  7 57  1  0
  6 58  1  0
  6 59  1  0
  2 60  1  0
  2 61  1  0
  1 62  1  0
  1 63  1  0
  1 64  1  0
 50  5  1  0
 50  9  1  0
 21 15  1  0
 41 31  1  0
 41 35  1  0
M  END
>  <cnnaffinities>  (69) 
[6.18909]

>  <score>  (69) 
6.18909

>  <index>  (69) 
69

>  <Smiles>  (69) 
C(C(C(=O)N1C(C(C(c2c(c(c(N(C(c3c(c(c(c(Cl)c3[H])[H])[H])[H])([H])[H])C(=O)C(c3c(nc(c4c(F)c(c(c(c34)[H])[H])[H])[H])[H])([H])[H])c(c12)[H])[H])[H])([H])[H])([H])[H])([H])[H])([H])[H])([H])([H])[H]

>  <h>  (69) 
<NA>

>  <Training>  (69) 
True

>  <Success>  (69) 
True

>  <enamine_searched>  (69) 
False

>  <enamine_id>  (69) 
nan

$$$$

     RDKit          3D

 57 62  0  0  0  0  0  0  0  0999 V2000
    6.7949   -2.3762   23.5666 C   0  0  0  0  0  0  0  0  0  0  0  0
    7.7803   -1.8530   22.5057 C   0  0  1  0  0  0  0  0  0  0  0  0
    7.1031   -1.8007   21.1123 C   0  0  0  0  0  0  0  0  0  0  0  0
    6.8899   -0.3928   20.8614 N   0  0  0  0  0  0  0  0  0  0  0  0
    6.1288    0.1035   19.7739 C   0  0  0  0  0  0  0  0  0  0  0  0
    6.4432   -0.2269   18.4797 C   0  0  0  0  0  0  0  0  0  0  0  0
    5.7720    0.2235   17.3907 N   0  0  0  0  0  0  0  0  0  0  0  0
    4.7501    1.0197   17.5962 C   0  0  0  0  0  0  0  0  0  0  0  0
    4.2925    1.4184   18.8820 C   0  0  0  0  0  0  0  0  0  0  0  0
    3.1616    2.2617   19.0604 C   0  0  0  0  0  0  0  0  0  0  0  0
    2.7348    2.6061   20.3136 C   0  0  0  0  0  0  0  0  0  0  0  0
    3.4169    2.1149   21.4502 C   0  0  0  0  0  0  0  0  0  0  0  0
    4.5126    1.3035   21.3033 C   0  0  0  0  0  0  0  0  0  0  0  0
    4.9959    0.9453   20.0147 C   0  0  0  0  0  0  0  0  0  0  0  0
    5.0161    0.9159   22.1823 H   0  0  0  0  0  0  0  0  0  0  0  0
    3.0787    2.3888   22.4466 H   0  0  0  0  0  0  0  0  0  0  0  0
    1.8758    3.2592   20.4409 H   0  0  0  0  0  0  0  0  0  0  0  0
    2.6573    2.6355   18.1738 H   0  0  0  0  0  0  0  0  0  0  0  0
    4.2248    1.3845   16.7139 H   0  0  0  0  0  0  0  0  0  0  0  0
    7.2908   -0.8743   18.2592 H   0  0  0  0  0  0  0  0  0  0  0  0
    7.6613    0.4350   21.6474 C   0  0  0  0  0  0  0  0  0  0  0  0
    7.7850    1.6246   21.4677 O   0  0  0  0  0  0  0  0  0  0  0  0
    8.3576   -0.4137   22.7430 C   0  0  1  0  0  0  0  0  0  0  0  0
    8.0624    0.1322   24.1597 C   0  0  0  0  0  0  0  0  0  0  0  0
    8.6884    1.4221   24.3997 N   0  0  0  0  0  0  0  0  0  0  0  0
    7.9180    2.5221   24.9738 C   0  0  0  0  0  0  0  0  0  0  0  0
    7.4909    3.5559   23.9675 C   0  0  0  0  0  0  0  0  0  0  0  0
    8.2720    4.5791   23.5549 N   0  0  0  0  0  0  0  0  0  0  0  0
    7.6067    5.2017   22.6235 N   0  0  0  0  0  0  0  0  0  0  0  0
    6.4602    4.5731   22.5064 N   0  0  0  0  0  0  0  0  0  0  0  0
    5.4804    4.9262   21.4988 C   0  0  0  0  0  0  0  0  0  0  0  0
    5.5356    4.2174   20.6613 H   0  0  0  0  0  0  0  0  0  0  0  0
    5.7030    5.9468   21.1730 H   0  0  0  0  0  0  0  0  0  0  0  0
    4.4971    4.8772   21.9717 H   0  0  0  0  0  0  0  0  0  0  0  0
    6.3171    3.5586   23.3437 N   0  0  0  0  0  0  0  0  0  0  0  0
    7.0253    2.0997   25.4473 H   0  0  0  0  0  0  0  0  0  0  0  0
    8.5407    3.0024   25.7318 H   0  0  0  0  0  0  0  0  0  0  0  0
   10.0183    1.6273   24.1423 C   0  0  0  0  0  0  0  0  0  0  0  0
   10.6444    2.5573   24.6331 O   0  0  0  0  0  0  0  0  0  0  0  0
   10.6394    0.6464   23.1914 C   0  0  0  0  0  0  0  0  0  0  0  0
   12.0059    0.7620   22.9309 C   0  0  0  0  0  0  0  0  0  0  0  0
   12.6195   -0.0649   22.0088 C   0  0  0  0  0  0  0  0  0  0  0  0
   11.8270   -0.9899   21.3410 C   0  0  0  0  0  0  0  0  0  0  0  0
   12.3732   -1.7667   20.3928 F   0  0  0  0  0  0  0  0  0  0  0  0
   10.4749   -1.1140   21.5640 C   0  0  0  0  0  0  0  0  0  0  0  0
    9.8627   -0.3175   22.5333 C   0  0  0  0  0  0  0  0  0  0  0  0
    9.9363   -1.8073   20.9275 H   0  0  0  0  0  0  0  0  0  0  0  0
   13.6714    0.0137   21.7592 H   0  0  0  0  0  0  0  0  0  0  0  0
   12.5582    1.5300   23.4612 H   0  0  0  0  0  0  0  0  0  0  0  0
    6.9866    0.2723   24.2728 H   0  0  0  0  0  0  0  0  0  0  0  0
    8.4118   -0.6113   24.8947 H   0  0  0  0  0  0  0  0  0  0  0  0
    6.1411   -2.3279   21.0997 H   0  0  0  0  0  0  0  0  0  0  0  0
    7.7444   -2.2408   20.3383 H   0  0  0  0  0  0  0  0  0  0  0  0
    8.6149   -2.5634   22.4853 H   0  0  0  0  0  0  0  0  0  0  0  0
    6.4468   -3.3801   23.2926 H   0  0  0  0  0  0  0  0  0  0  0  0
    7.2627   -2.4559   24.5531 H   0  0  0  0  0  0  0  0  0  0  0  0
    5.9121   -1.7318   23.6594 H   0  0  0  0  0  0  0  0  0  0  0  0
  1  2  1  0
  2  3  1  0
  3  4  1  0
  4  5  1  0
  5  6  2  0
  6  7  1  0
  7  8  2  0
  8  9  1  0
  9 10  2  0
 10 11  1  0
 11 12  2  0
 12 13  1  0
 13 14  2  0
 13 15  1  0
 12 16  1  0
 11 17  1  0
 10 18  1  0
  8 19  1  0
  6 20  1  0
  4 21  1  0
 21 22  2  0
 21 23  1  0
 23 24  1  1
 24 25  1  0
 25 26  1  0
 26 27  1  0
 27 28  1  0
 28 29  2  0
 29 30  1  0
 30 31  1  0
 31 32  1  0
 31 33  1  0
 31 34  1  0
 30 35  1  0
 26 36  1  0
 26 37  1  0
 25 38  1  0
 38 39  2  0
 38 40  1  0
 40 41  2  0
 41 42  1  0
 42 43  2  0
 43 44  1  0
 43 45  1  0
 45 46  2  0
 45 47  1  0
 42 48  1  0
 41 49  1  0
 24 50  1  0
 24 51  1  0
  3 52  1  0
  3 53  1  0
  2 54  1  6
  1 55  1  0
  1 56  1  0
  1 57  1  0
 23  2  1  0
 35 27  2  0
 46 40  1  0
 14  5  1  0
 46 23  1  0
 14  9  1  0
M  END
>  <cnnaffinities>  (70) 
[6.17935, 6.25748, 6.37102, 6.18843, 6.306]

>  <score>  (70) 
6.17935

>  <index>  (70) 
70

>  <Smiles>  (70) 
C([C@]1(C(N(c2c(nc(c3c(c(c(c(c23)[H])[H])[H])[H])[H])[H])C(=O)[C@]21C(N(C(c1nnn(C([H])([H])[H])n1)([H])[H])C(=O)c1c(c(c(F)c(c21)[H])[H])[H])([H])[H])([H])[H])[H])([H])([H])[H]

>  <h>  (70) 
<NA>

>  <Training>  (70) 
True

>  <Success>  (70) 
True

>  <enamine_searched>  (70) 
False

>  <enamine_id>  (70) 
nan

$$$$

     RDKit          3D

 59 64  0  0  0  0  0  0  0  0999 V2000
    7.6023   -2.9336   23.4412 C   0  0  0  0  0  0  0  0  0  0  0  0
    7.9416   -1.9009   22.3571 C   0  0  1  0  0  0  0  0  0  0  0  0
    6.8317   -1.7744   21.2951 C   0  0  0  0  0  0  0  0  0  0  0  0
    6.9334   -0.4053   20.8317 N   0  0  0  0  0  0  0  0  0  0  0  0
    6.1444    0.1110   19.7710 C   0  0  0  0  0  0  0  0  0  0  0  0
    6.4430   -0.2215   18.4748 C   0  0  0  0  0  0  0  0  0  0  0  0
    5.7656    0.2246   17.3880 N   0  0  0  0  0  0  0  0  0  0  0  0
    4.7459    1.0211   17.5979 C   0  0  0  0  0  0  0  0  0  0  0  0
    4.2968    1.4152   18.8895 C   0  0  0  0  0  0  0  0  0  0  0  0
    3.1686    2.2621   19.0653 C   0  0  0  0  0  0  0  0  0  0  0  0
    2.7468    2.6114   20.3178 C   0  0  0  0  0  0  0  0  0  0  0  0
    3.4263    2.1166   21.4566 C   0  0  0  0  0  0  0  0  0  0  0  0
    4.5166    1.2971   21.3125 C   0  0  0  0  0  0  0  0  0  0  0  0
    5.0015    0.9412   20.0204 C   0  0  0  0  0  0  0  0  0  0  0  0
    5.0218    0.9189   22.1977 H   0  0  0  0  0  0  0  0  0  0  0  0
    3.0913    2.3934   22.4516 H   0  0  0  0  0  0  0  0  0  0  0  0
    1.8951    3.2740   20.4432 H   0  0  0  0  0  0  0  0  0  0  0  0
    2.6633    2.6383   18.1785 H   0  0  0  0  0  0  0  0  0  0  0  0
    4.2184    1.3874   16.7160 H   0  0  0  0  0  0  0  0  0  0  0  0
    7.2856   -0.8778   18.2629 H   0  0  0  0  0  0  0  0  0  0  0  0
    7.6710    0.4083   21.6578 C   0  0  0  0  0  0  0  0  0  0  0  0
    7.8243    1.6005   21.4855 O   0  0  0  0  0  0  0  0  0  0  0  0
    8.2204   -0.4378   22.8299 C   0  0  1  0  0  0  0  0  0  0  0  0
    7.4320   -0.0871   24.1189 C   0  0  0  0  0  0  0  0  0  0  0  0
    7.7336    1.2480   24.5971 N   0  0  0  0  0  0  0  0  0  0  0  0
    6.6408    2.1948   24.7788 C   0  0  0  0  0  0  0  0  0  0  0  0
    5.5597    1.6994   25.6984 C   0  0  0  0  0  0  0  0  0  0  0  0
    4.3424    1.3671   25.3176 N   0  0  0  0  0  0  0  0  0  0  0  0
    3.7164    0.9124   26.4517 C   0  0  0  0  0  0  0  0  0  0  0  0
    4.5666    0.9797   27.5215 C   0  0  0  0  0  0  0  0  0  0  0  0
    5.7492    1.4937   27.0325 N   0  0  0  0  0  0  0  0  0  0  0  0
    6.9708    1.7087   27.7870 C   0  0  0  0  0  0  0  0  0  0  0  0
    7.3892    2.6978   27.5761 H   0  0  0  0  0  0  0  0  0  0  0  0
    6.7240    1.6493   28.8499 H   0  0  0  0  0  0  0  0  0  0  0  0
    7.7221    0.9488   27.5492 H   0  0  0  0  0  0  0  0  0  0  0  0
    4.4630    0.7079   28.5612 H   0  0  0  0  0  0  0  0  0  0  0  0
    2.6970    0.5471   26.4174 H   0  0  0  0  0  0  0  0  0  0  0  0
    7.0984    3.1206   25.1415 H   0  0  0  0  0  0  0  0  0  0  0  0
    6.1678    2.3916   23.8055 H   0  0  0  0  0  0  0  0  0  0  0  0
    9.0298    1.6219   24.8068 C   0  0  0  0  0  0  0  0  0  0  0  0
    9.3498    2.5479   25.5465 O   0  0  0  0  0  0  0  0  0  0  0  0
   10.0525    0.8375   24.0346 C   0  0  0  0  0  0  0  0  0  0  0  0
   11.3929    1.1420   24.2505 C   0  0  0  0  0  0  0  0  0  0  0  0
   12.3866    0.5976   23.4652 C   0  0  0  0  0  0  0  0  0  0  0  0
   11.9954   -0.2478   22.4343 C   0  0  0  0  0  0  0  0  0  0  0  0
   12.9382   -0.7439   21.6217 F   0  0  0  0  0  0  0  0  0  0  0  0
   10.6781   -0.5921   22.2099 C   0  0  0  0  0  0  0  0  0  0  0  0
    9.6799   -0.0943   23.0573 C   0  0  0  0  0  0  0  0  0  0  0  0
   10.4622   -1.2194   21.3513 H   0  0  0  0  0  0  0  0  0  0  0  0
   13.4374    0.8301   23.5971 H   0  0  0  0  0  0  0  0  0  0  0  0
   11.5950    1.8435   25.0397 H   0  0  0  0  0  0  0  0  0  0  0  0
    7.6777   -0.8165   24.9051 H   0  0  0  0  0  0  0  0  0  0  0  0
    6.3590   -0.1292   23.9200 H   0  0  0  0  0  0  0  0  0  0  0  0
    5.8413   -1.9874   21.7273 H   0  0  0  0  0  0  0  0  0  0  0  0
    6.9688   -2.4517   20.4521 H   0  0  0  0  0  0  0  0  0  0  0  0
    8.8520   -2.2361   21.8535 H   0  0  0  0  0  0  0  0  0  0  0  0
    7.5004   -3.9364   23.0084 H   0  0  0  0  0  0  0  0  0  0  0  0
    6.6522   -2.6936   23.9354 H   0  0  0  0  0  0  0  0  0  0  0  0
    8.3744   -2.9843   24.2186 H   0  0  0  0  0  0  0  0  0  0  0  0
  1  2  1  0
  2  3  1  0
  3  4  1  0
  4  5  1  0
  5  6  2  0
  6  7  1  0
  7  8  2  0
  8  9  1  0
  9 10  2  0
 10 11  1  0
 11 12  2  0
 12 13  1  0
 13 14  2  0
 13 15  1  0
 12 16  1  0
 11 17  1  0
 10 18  1  0
  8 19  1  0
  6 20  1  0
  4 21  1  0
 21 22  2  0
 21 23  1  0
 23 24  1  1
 24 25  1  0
 25 26  1  0
 26 27  1  0
 27 28  2  0
 28 29  1  0
 29 30  2  0
 30 31  1  0
 31 32  1  0
 32 33  1  0
 32 34  1  0
 32 35  1  0
 30 36  1  0
 29 37  1  0
 26 38  1  0
 26 39  1  0
 25 40  1  0
 40 41  2  0
 40 42  1  0
 42 43  2  0
 43 44  1  0
 44 45  2  0
 45 46  1  0
 45 47  1  0
 47 48  2  0
 47 49  1  0
 44 50  1  0
 43 51  1  0
 24 52  1  0
 24 53  1  0
  3 54  1  0
  3 55  1  0
  2 56  1  6
  1 57  1  0
  1 58  1  0
  1 59  1  0
 23  2  1  0
 31 27  1  0
 48 42  1  0
 14  5  1  0
 48 23  1  0
 14  9  1  0
M  END
>  <cnnaffinities>  (71) 
[6.19982, 5.99302]

>  <score>  (71) 
6.19982

>  <index>  (71) 
71

>  <Smiles>  (71) 
C([C@]1(C(N(c2c(nc(c3c(c(c(c(c23)[H])[H])[H])[H])[H])[H])C(=O)[C@]21C(N(C(c1nc(c(n1C([H])([H])[H])[H])[H])([H])[H])C(=O)c1c(c(c(F)c(c21)[H])[H])[H])([H])[H])([H])[H])[H])([H])([H])[H]

>  <h>  (71) 
<NA>

>  <Training>  (71) 
True

>  <Success>  (71) 
True

>  <enamine_searched>  (71) 
False

>  <enamine_id>  (71) 
nan

$$$$

     RDKit          3D

 60 64  0  0  0  0  0  0  0  0999 V2000
    6.2396    1.4720   28.9470 C   0  0  0  0  0  0  0  0  0  0  0  0
    6.5342    1.7698   27.5667 N   0  0  0  0  0  0  0  0  0  0  0  0
    5.9101    1.0952   26.5669 C   0  0  0  0  0  0  0  0  0  0  0  0
    5.1259    0.1770   26.7441 O   0  0  0  0  0  0  0  0  0  0  0  0
    6.2147    1.6368   25.1651 C   0  0  0  0  0  0  0  0  0  0  0  0
    7.4260    1.0945   24.5790 N   0  0  0  0  0  0  0  0  0  0  0  0
    7.3556   -0.1843   23.8862 C   0  0  0  0  0  0  0  0  0  0  0  0
    8.2800   -0.1944   22.6349 C   0  0  2  0  0  0  0  0  0  0  0  0
    7.6449    0.6750   21.5229 C   0  0  0  0  0  0  0  0  0  0  0  0
    7.7760    1.8619   21.3399 O   0  0  0  0  0  0  0  0  0  0  0  0
    6.8669   -0.1674   20.7445 N   0  0  0  0  0  0  0  0  0  0  0  0
    6.0728    0.2784   19.6687 C   0  0  0  0  0  0  0  0  0  0  0  0
    6.3773   -0.0896   18.3824 C   0  0  0  0  0  0  0  0  0  0  0  0
    5.6935    0.3162   17.2855 N   0  0  0  0  0  0  0  0  0  0  0  0
    4.6574    1.0981   17.4851 C   0  0  0  0  0  0  0  0  0  0  0  0
    4.1943    1.4994   18.7737 C   0  0  0  0  0  0  0  0  0  0  0  0
    3.0498    2.3228   18.9515 C   0  0  0  0  0  0  0  0  0  0  0  0
    2.6139    2.6478   20.2068 C   0  0  0  0  0  0  0  0  0  0  0  0
    3.2868    2.1570   21.3472 C   0  0  0  0  0  0  0  0  0  0  0  0
    4.4029    1.3740   21.2076 C   0  0  0  0  0  0  0  0  0  0  0  0
    4.9010    1.0564   19.9102 C   0  0  0  0  0  0  0  0  0  0  0  0
    4.9111    0.9938   22.0906 H   0  0  0  0  0  0  0  0  0  0  0  0
    2.9174    2.4068   22.3359 H   0  0  0  0  0  0  0  0  0  0  0  0
    1.7403    3.2813   20.3344 H   0  0  0  0  0  0  0  0  0  0  0  0
    2.5376    2.6963   18.0703 H   0  0  0  0  0  0  0  0  0  0  0  0
    4.1176    1.4335   16.6001 H   0  0  0  0  0  0  0  0  0  0  0  0
    7.2341   -0.7404   18.2099 H   0  0  0  0  0  0  0  0  0  0  0  0
    6.9420   -1.5521   21.1533 C   0  0  0  0  0  0  0  0  0  0  0  0
    8.2469   -1.5661   21.9283 C   0  0  2  0  0  0  0  0  0  0  0  0
    8.4467   -2.6838   22.8069 N   0  0  0  0  0  0  0  0  0  0  0  0
    7.8061   -3.8956   22.7913 C   0  0  0  0  0  0  0  0  0  0  0  0
    6.7697   -4.1089   22.1815 O   0  0  0  0  0  0  0  0  0  0  0  0
    8.5136   -4.9398   23.6137 C   0  0  0  0  0  0  0  0  0  0  0  0
    8.0484   -5.9136   23.4578 H   0  0  0  0  0  0  0  0  0  0  0  0
    9.5615   -5.0108   23.3100 H   0  0  0  0  0  0  0  0  0  0  0  0
    8.4866   -4.6607   24.6703 H   0  0  0  0  0  0  0  0  0  0  0  0
    9.2877   -2.5834   23.3659 H   0  0  0  0  0  0  0  0  0  0  0  0
    9.0482   -1.5411   21.1817 H   0  0  0  0  0  0  0  0  0  0  0  0
    6.9510   -2.2236   20.2989 H   0  0  0  0  0  0  0  0  0  0  0  0
    6.1214   -1.8456   21.8129 H   0  0  0  0  0  0  0  0  0  0  0  0
    9.6571    0.2624   23.0580 C   0  0  0  0  0  0  0  0  0  0  0  0
   10.8141   -0.1039   22.3519 C   0  0  0  0  0  0  0  0  0  0  0  0
   12.0449    0.3986   22.7377 C   0  0  0  0  0  0  0  0  0  0  0  0
   13.4727   -0.0242   21.8432 Cl  0  0  0  0  0  0  0  0  0  0  0  0
   12.1756    1.2634   23.8214 C   0  0  0  0  0  0  0  0  0  0  0  0
   11.0453    1.6205   24.5230 C   0  0  0  0  0  0  0  0  0  0  0  0
    9.8017    1.1220   24.1550 C   0  0  0  0  0  0  0  0  0  0  0  0
    8.6332    1.5876   24.9578 C   0  0  0  0  0  0  0  0  0  0  0  0
    8.7643    2.3933   25.8876 O   0  0  0  0  0  0  0  0  0  0  0  0
   11.0634    2.3155   25.3513 H   0  0  0  0  0  0  0  0  0  0  0  0
   13.1480    1.6584   24.0793 H   0  0  0  0  0  0  0  0  0  0  0  0
   10.7693   -0.7669   21.4949 H   0  0  0  0  0  0  0  0  0  0  0  0
    7.6551   -0.9858   24.5722 H   0  0  0  0  0  0  0  0  0  0  0  0
    6.3117   -0.3651   23.6030 H   0  0  0  0  0  0  0  0  0  0  0  0
    6.2778    2.7321   25.1625 H   0  0  0  0  0  0  0  0  0  0  0  0
    5.3833    1.3370   24.5235 H   0  0  0  0  0  0  0  0  0  0  0  0
    7.3708    2.2916   27.3258 H   0  0  0  0  0  0  0  0  0  0  0  0
    6.7514    0.5712   29.3088 H   0  0  0  0  0  0  0  0  0  0  0  0
    5.1623    1.3190   29.0542 H   0  0  0  0  0  0  0  0  0  0  0  0
    6.5422    2.3229   29.5620 H   0  0  0  0  0  0  0  0  0  0  0  0
  1  2  1  0
  2  3  1  0
  3  4  2  0
  3  5  1  0
  5  6  1  0
  6  7  1  0
  8  7  1  1
  8  9  1  0
  9 10  2  0
  9 11  1  0
 11 12  1  0
 12 13  2  0
 13 14  1  0
 14 15  2  0
 15 16  1  0
 16 17  2  0
 17 18  1  0
 18 19  2  0
 19 20  1  0
 20 21  2  0
 20 22  1  0
 19 23  1  0
 18 24  1  0
 17 25  1  0
 15 26  1  0
 13 27  1  0
 11 28  1  0
 28 29  1  0
 29 30  1  0
 30 31  1  0
 31 32  2  0
 31 33  1  0
 33 34  1  0
 33 35  1  0
 33 36  1  0
 30 37  1  0
 29 38  1  6
 28 39  1  0
 28 40  1  0
  8 41  1  0
 41 42  2  0
 42 43  1  0
 43 44  1  0
 43 45  2  0
 45 46  1  0
 46 47  2  0
 47 48  1  0
 48 49  2  0
 46 50  1  0
 45 51  1  0
 42 52  1  0
  7 53  1  0
  7 54  1  0
  5 55  1  0
  5 56  1  0
  2 57  1  0
  1 58  1  0
  1 59  1  0
  1 60  1  0
 48  6  1  0
 29  8  1  0
 47 41  1  0
 21 12  1  0
 21 16  1  0
M  END
>  <cnnaffinities>  (72) 
[5.92511]

>  <score>  (72) 
5.92511

>  <index>  (72) 
72

>  <Smiles>  (72) 
C(N(C(=O)C(N1C([C@@]2(C(=O)N(c3c(nc(c4c(c(c(c(c34)[H])[H])[H])[H])[H])[H])C([C@@]2(N(C(=O)C([H])([H])[H])[H])[H])([H])[H])c2c(c(Cl)c(c(c2C1=O)[H])[H])[H])([H])[H])([H])[H])[H])([H])([H])[H]

>  <h>  (72) 
<NA>

>  <Training>  (72) 
True

>  <Success>  (72) 
True

>  <enamine_searched>  (72) 
False

>  <enamine_id>  (72) 
nan

$$$$

     RDKit          3D

 56 61  0  0  0  0  0  0  0  0999 V2000
    7.2275   -2.3861   23.9208 C   0  0  0  0  0  0  0  0  0  0  0  0
    7.7107   -1.7787   22.5981 C   0  0  1  0  0  0  0  0  0  0  0  0
    6.5603   -1.5991   21.5827 C   0  0  0  0  0  0  0  0  0  0  0  0
    6.9280   -0.4169   20.8273 N   0  0  0  0  0  0  0  0  0  0  0  0
    6.1393    0.1016   19.7604 C   0  0  0  0  0  0  0  0  0  0  0  0
    6.4510   -0.2132   18.4650 C   0  0  0  0  0  0  0  0  0  0  0  0
    5.7672    0.2296   17.3784 N   0  0  0  0  0  0  0  0  0  0  0  0
    4.7434    1.0190   17.5905 C   0  0  0  0  0  0  0  0  0  0  0  0
    4.2952    1.4168   18.8838 C   0  0  0  0  0  0  0  0  0  0  0  0
    3.1734    2.2723   19.0625 C   0  0  0  0  0  0  0  0  0  0  0  0
    2.7699    2.6342   20.3163 C   0  0  0  0  0  0  0  0  0  0  0  0
    3.4594    2.1493   21.4499 C   0  0  0  0  0  0  0  0  0  0  0  0
    4.5437    1.3199   21.3033 C   0  0  0  0  0  0  0  0  0  0  0  0
    5.0027    0.9399   20.0091 C   0  0  0  0  0  0  0  0  0  0  0  0
    5.0592    0.9461   22.1826 H   0  0  0  0  0  0  0  0  0  0  0  0
    3.1300    2.4423   22.4427 H   0  0  0  0  0  0  0  0  0  0  0  0
    1.9231    3.3026   20.4482 H   0  0  0  0  0  0  0  0  0  0  0  0
    2.6631    2.6442   18.1778 H   0  0  0  0  0  0  0  0  0  0  0  0
    4.2118    1.3865   16.7126 H   0  0  0  0  0  0  0  0  0  0  0  0
    7.2984   -0.8626   18.2556 H   0  0  0  0  0  0  0  0  0  0  0  0
    7.9259    0.3379   21.4039 C   0  0  0  0  0  0  0  0  0  0  0  0
    8.3115    1.4013   20.9653 O   0  0  0  0  0  0  0  0  0  0  0  0
    8.4297   -0.3862   22.6819 C   0  0  1  0  0  0  0  0  0  0  0  0
    8.0257    0.4165   23.9375 C   0  0  0  0  0  0  0  0  0  0  0  0
    8.8141    1.6335   24.0452 N   0  0  0  0  0  0  0  0  0  0  0  0
    8.1731    2.8599   24.4782 C   0  0  0  0  0  0  0  0  0  0  0  0
    8.8163    4.1746   23.9503 C   0  0  0  0  0  0  0  0  0  0  0  0
    7.5535    4.5469   23.1768 N   0  0  0  0  0  4  0  0  0  0  0  0
    6.8994    3.2638   23.6809 C   0  0  0  0  0  0  0  0  0  0  0  0
    6.0105    3.4695   24.2681 H   0  0  0  0  0  0  0  0  0  0  0  0
    6.6438    2.6213   22.8424 H   0  0  0  0  0  0  0  0  0  0  0  0
    7.6909    4.5657   22.1478 H   0  0  0  0  0  0  0  0  0  0  0  0
    7.0954    5.4244   23.4749 H   0  0  0  0  0  0  0  0  0  0  0  0
    9.6588    4.0470   23.2818 H   0  0  0  0  0  0  0  0  0  0  0  0
    9.0632    4.9097   24.7062 H   0  0  0  0  0  0  0  0  0  0  0  0
    8.0358    2.8405   25.5709 H   0  0  0  0  0  0  0  0  0  0  0  0
   10.1802    1.5444   24.1474 C   0  0  0  0  0  0  0  0  0  0  0  0
   10.8503    2.3613   24.7627 O   0  0  0  0  0  0  0  0  0  0  0  0
   10.7801    0.4076   23.3741 C   0  0  0  0  0  0  0  0  0  0  0  0
   12.1710    0.2794   23.2903 C   0  0  0  0  0  0  0  0  0  0  0  0
   12.7506   -0.6410   22.4274 C   0  0  0  0  0  0  0  0  0  0  0  0
   11.9094   -1.4023   21.6109 C   0  0  0  0  0  0  0  0  0  0  0  0
   12.4675   -2.4363   20.3335 Cl  0  0  0  0  0  0  0  0  0  0  0  0
   10.5418   -1.3225   21.7328 C   0  0  0  0  0  0  0  0  0  0  0  0
    9.9476   -0.4538   22.6475 C   0  0  0  0  0  0  0  0  0  0  0  0
    9.9592   -1.9269   21.0524 H   0  0  0  0  0  0  0  0  0  0  0  0
   13.8285   -0.7372   22.3617 H   0  0  0  0  0  0  0  0  0  0  0  0
   12.7752    0.9573   23.8909 H   0  0  0  0  0  0  0  0  0  0  0  0
    6.9673    0.6722   23.8726 H   0  0  0  0  0  0  0  0  0  0  0  0
    8.1863   -0.2226   24.8193 H   0  0  0  0  0  0  0  0  0  0  0  0
    6.4507   -2.4605   20.9126 H   0  0  0  0  0  0  0  0  0  0  0  0
    5.5989   -1.4605   22.1009 H   0  0  0  0  0  0  0  0  0  0  0  0
    8.4317   -2.4785   22.1666 H   0  0  0  0  0  0  0  0  0  0  0  0
    8.0469   -2.5099   24.6381 H   0  0  0  0  0  0  0  0  0  0  0  0
    6.4633   -1.7547   24.3887 H   0  0  0  0  0  0  0  0  0  0  0  0
    6.7818   -3.3726   23.7537 H   0  0  0  0  0  0  0  0  0  0  0  0
  1  2  1  0
  2  3  1  0
  3  4  1  0
  4  5  1  0
  5  6  2  0
  6  7  1  0
  7  8  2  0
  8  9  1  0
  9 10  2  0
 10 11  1  0
 11 12  2  0
 12 13  1  0
 13 14  2  0
 13 15  1  0
 12 16  1  0
 11 17  1  0
 10 18  1  0
  8 19  1  0
  6 20  1  0
  4 21  1  0
 21 22  2  0
 21 23  1  0
 23 24  1  1
 24 25  1  0
 25 26  1  0
 26 27  1  0
 27 28  1  0
 28 29  1  0
 29 30  1  0
 29 31  1  0
 28 32  1  0
 28 33  1  0
 27 34  1  0
 27 35  1  0
 26 36  1  0
 25 37  1  0
 37 38  2  0
 37 39  1  0
 39 40  2  0
 40 41  1  0
 41 42  2  0
 42 43  1  0
 42 44  1  0
 44 45  2  0
 44 46  1  0
 41 47  1  0
 40 48  1  0
 24 49  1  0
 24 50  1  0
  3 51  1  0
  3 52  1  0
  2 53  1  6
  1 54  1  0
  1 55  1  0
  1 56  1  0
 23  2  1  0
 29 26  1  0
 45 39  1  0
 14  5  1  0
 45 23  1  0
 14  9  1  0
M  CHG  1  28   1
M  END
>  <cnnaffinities>  (73) 
[5.83184, 5.82893, 5.86989, 5.86896, 5.7775, 5.77864, 5.78336, 5.78511]

>  <score>  (73) 
5.83184

>  <index>  (73) 
73

>  <Smiles>  (73) 
C([C@]1(C(N(c2c(nc(c3c(c(c(c(c23)[H])[H])[H])[H])[H])[H])C(=O)[C@]21C(N(C1(C([N+](C1([H])[H])([H])[H])([H])[H])[H])C(=O)c1c(c(c(Cl)c(c21)[H])[H])[H])([H])[H])([H])[H])[H])([H])([H])[H]

>  <h>  (73) 
<NA>

>  <Training>  (73) 
True

>  <Success>  (73) 
True

>  <enamine_searched>  (73) 
False

>  <enamine_id>  (73) 
nan

$$$$

     RDKit          3D

 55 60  0  0  0  0  0  0  0  0999 V2000
    7.3252   -2.5931   23.7792 C   0  0  0  0  0  0  0  0  0  0  0  0
    7.7676   -1.8310   22.5213 C   0  0  1  0  0  0  0  0  0  0  0  0
    6.6144   -1.6597   21.5084 C   0  0  0  0  0  0  0  0  0  0  0  0
    6.9226   -0.4182   20.8272 N   0  0  0  0  0  0  0  0  0  0  0  0
    6.1402    0.1045   19.7612 C   0  0  0  0  0  0  0  0  0  0  0  0
    6.4511   -0.2151   18.4647 C   0  0  0  0  0  0  0  0  0  0  0  0
    5.7662    0.2279   17.3805 N   0  0  0  0  0  0  0  0  0  0  0  0
    4.7445    1.0203   17.5917 C   0  0  0  0  0  0  0  0  0  0  0  0
    4.2929    1.4152   18.8829 C   0  0  0  0  0  0  0  0  0  0  0  0
    3.1691    2.2687   19.0634 C   0  0  0  0  0  0  0  0  0  0  0  0
    2.7530    2.6199   20.3158 C   0  0  0  0  0  0  0  0  0  0  0  0
    3.4340    2.1186   21.4489 C   0  0  0  0  0  0  0  0  0  0  0  0
    4.5193    1.2878   21.2993 C   0  0  0  0  0  0  0  0  0  0  0  0
    4.9956    0.9319   20.0091 C   0  0  0  0  0  0  0  0  0  0  0  0
    5.0543    0.9445   22.1808 H   0  0  0  0  0  0  0  0  0  0  0  0
    3.1267    2.4238   22.4435 H   0  0  0  0  0  0  0  0  0  0  0  0
    1.9126    3.2964   20.4464 H   0  0  0  0  0  0  0  0  0  0  0  0
    2.6645    2.6445   18.1769 H   0  0  0  0  0  0  0  0  0  0  0  0
    4.2169    1.3853   16.7115 H   0  0  0  0  0  0  0  0  0  0  0  0
    7.2918   -0.8707   18.2481 H   0  0  0  0  0  0  0  0  0  0  0  0
    7.8600    0.3631   21.4687 C   0  0  0  0  0  0  0  0  0  0  0  0
    8.2282    1.4428   21.0722 O   0  0  0  0  0  0  0  0  0  0  0  0
    8.3613   -0.3947   22.7286 C   0  0  1  0  0  0  0  0  0  0  0  0
    7.8336    0.2578   24.0247 C   0  0  0  0  0  0  0  0  0  0  0  0
    8.4691    1.5291   24.3002 N   0  0  0  0  0  0  0  0  0  0  0  0
    7.6477    2.6836   24.6003 C   0  0  0  0  0  0  0  0  0  0  0  0
    7.4571    3.5630   23.3947 C   0  0  0  0  0  0  0  0  0  0  0  0
    8.3760    4.4971   22.8448 C   0  0  0  0  0  0  0  0  0  0  0  0
    7.6706    5.0785   21.8474 C   0  0  0  0  0  0  0  0  0  0  0  0
    6.4521    4.5324   21.7579 O   0  0  0  0  0  0  0  0  0  0  0  0
    6.3223    3.5711   22.7447 N   0  0  0  0  0  0  0  0  0  0  0  0
    7.8643    5.8820   21.1468 H   0  0  0  0  0  0  0  0  0  0  0  0
    9.3858    4.6590   23.1848 H   0  0  0  0  0  0  0  0  0  0  0  0
    6.6732    2.3415   24.9676 H   0  0  0  0  0  0  0  0  0  0  0  0
    8.1526    3.2469   25.3873 H   0  0  0  0  0  0  0  0  0  0  0  0
    9.8314    1.6839   24.2902 C   0  0  0  0  0  0  0  0  0  0  0  0
   10.3887    2.6343   24.8272 O   0  0  0  0  0  0  0  0  0  0  0  0
   10.5741    0.6331   23.5262 C   0  0  0  0  0  0  0  0  0  0  0  0
   11.9709    0.6710   23.5070 C   0  0  0  0  0  0  0  0  0  0  0  0
   12.6891   -0.1949   22.6995 C   0  0  0  0  0  0  0  0  0  0  0  0
   11.9710   -1.0741   21.8961 C   0  0  0  0  0  0  0  0  0  0  0  0
   12.5809   -1.9455   21.0807 F   0  0  0  0  0  0  0  0  0  0  0  0
   10.6013   -1.1153   21.8903 C   0  0  0  0  0  0  0  0  0  0  0  0
    9.8734   -0.3128   22.7626 C   0  0  0  0  0  0  0  0  0  0  0  0
   10.1588   -1.7855   21.1653 H   0  0  0  0  0  0  0  0  0  0  0  0
   13.7706   -0.1798   22.6665 H   0  0  0  0  0  0  0  0  0  0  0  0
   12.4566    1.4090   24.1389 H   0  0  0  0  0  0  0  0  0  0  0  0
    8.0128   -0.4345   24.8623 H   0  0  0  0  0  0  0  0  0  0  0  0
    6.7585    0.4388   23.9044 H   0  0  0  0  0  0  0  0  0  0  0  0
    6.5530   -2.4843   20.7877 H   0  0  0  0  0  0  0  0  0  0  0  0
    5.6427   -1.6066   22.0265 H   0  0  0  0  0  0  0  0  0  0  0  0
    8.5491   -2.4224   22.0377 H   0  0  0  0  0  0  0  0  0  0  0  0
    8.1405   -2.6983   24.5060 H   0  0  0  0  0  0  0  0  0  0  0  0
    6.9766   -3.6015   23.5227 H   0  0  0  0  0  0  0  0  0  0  0  0
    6.4956   -2.0782   24.2807 H   0  0  0  0  0  0  0  0  0  0  0  0
  1  2  1  0
  2  3  1  0
  3  4  1  0
  4  5  1  0
  5  6  2  0
  6  7  1  0
  7  8  2  0
  8  9  1  0
  9 10  2  0
 10 11  1  0
 11 12  2  0
 12 13  1  0
 13 14  2  0
 13 15  1  0
 12 16  1  0
 11 17  1  0
 10 18  1  0
  8 19  1  0
  6 20  1  0
  4 21  1  0
 21 22  2  0
 21 23  1  0
 23 24  1  1
 24 25  1  0
 25 26  1  0
 26 27  1  0
 27 28  1  0
 28 29  2  0
 29 30  1  0
 30 31  1  0
 29 32  1  0
 28 33  1  0
 26 34  1  0
 26 35  1  0
 25 36  1  0
 36 37  2  0
 36 38  1  0
 38 39  2  0
 39 40  1  0
 40 41  2  0
 41 42  1  0
 41 43  1  0
 43 44  2  0
 43 45  1  0
 40 46  1  0
 39 47  1  0
 24 48  1  0
 24 49  1  0
  3 50  1  0
  3 51  1  0
  2 52  1  6
  1 53  1  0
  1 54  1  0
  1 55  1  0
 23  2  1  0
 31 27  2  0
 44 38  1  0
 14  5  1  0
 44 23  1  0
 14  9  1  0
M  END
>  <cnnaffinities>  (74) 
[5.71829, 6.20002]

>  <score>  (74) 
5.71829

>  <index>  (74) 
74

>  <Smiles>  (74) 
C([C@]1(C(N(c2c(nc(c3c(c(c(c(c23)[H])[H])[H])[H])[H])[H])C(=O)[C@]21C(N(C(c1c(c(on1)[H])[H])([H])[H])C(=O)c1c(c(c(F)c(c21)[H])[H])[H])([H])[H])([H])[H])[H])([H])([H])[H]

>  <h>  (74) 
<NA>

>  <Training>  (74) 
True

>  <Success>  (74) 
True

>  <enamine_searched>  (74) 
False

>  <enamine_id>  (74) 
nan

$$$$

     RDKit          3D

 70 75  0  0  0  0  0  0  0  0999 V2000
   11.4363    5.4924   25.7860 C   0  0  0  0  0  0  0  0  0  0  0  0
   11.8264    5.0314   24.5147 O   0  0  0  0  0  0  0  0  0  0  0  0
   10.8090    4.6621   23.6917 C   0  0  0  0  0  0  0  0  0  0  0  0
   11.1775    3.9879   22.5281 C   0  0  0  0  0  0  0  0  0  0  0  0
   10.1908    3.5828   21.6439 C   0  0  0  0  0  0  0  0  0  0  0  0
    8.8528    3.8672   21.8875 C   0  0  0  0  0  0  0  0  0  0  0  0
    8.4906    4.5717   23.0276 C   0  0  0  0  0  0  0  0  0  0  0  0
    7.0273    4.7869   23.3530 C   0  0  0  0  0  0  0  0  0  0  0  0
    6.4723    3.5124   23.7868 N   0  0  0  0  0  0  0  0  0  0  0  0
    6.5201    3.2467   25.1303 C   0  0  0  0  0  0  0  0  0  0  0  0
    6.5426    4.1140   25.9875 O   0  0  0  0  0  0  0  0  0  0  0  0
    6.5171    1.7518   25.4719 C   0  0  0  0  0  0  0  0  0  0  0  0
    7.5697    1.0379   24.7653 N   0  0  0  0  0  0  0  0  0  0  0  0
    7.3380   -0.2472   24.1125 C   0  0  0  0  0  0  0  0  0  0  0  0
    8.1742   -0.3911   22.8015 C   0  0  2  0  0  0  0  0  0  0  0  0
    7.4257    0.4173   21.7264 C   0  0  0  0  0  0  0  0  0  0  0  0
    7.2418    1.6162   21.7577 O   0  0  0  0  0  0  0  0  0  0  0  0
    6.8965   -0.4173   20.7839 N   0  0  0  0  0  0  0  0  0  0  0  0
    6.0824    0.0411   19.7189 C   0  0  0  0  0  0  0  0  0  0  0  0
    6.3764   -0.3001   18.4209 C   0  0  0  0  0  0  0  0  0  0  0  0
    5.7207    0.1783   17.3355 N   0  0  0  0  0  0  0  0  0  0  0  0
    4.7194    0.9994   17.5491 C   0  0  0  0  0  0  0  0  0  0  0  0
    4.2611    1.3710   18.8443 C   0  0  0  0  0  0  0  0  0  0  0  0
    3.1651    2.2541   19.0301 C   0  0  0  0  0  0  0  0  0  0  0  0
    2.7525    2.6016   20.2873 C   0  0  0  0  0  0  0  0  0  0  0  0
    3.4020    2.0615   21.4193 C   0  0  0  0  0  0  0  0  0  0  0  0
    4.4451    1.1879   21.2662 C   0  0  0  0  0  0  0  0  0  0  0  0
    4.9358    0.8591   19.9701 C   0  0  0  0  0  0  0  0  0  0  0  0
    4.9193    0.7641   22.1434 H   0  0  0  0  0  0  0  0  0  0  0  0
    3.0920    2.3495   22.4187 H   0  0  0  0  0  0  0  0  0  0  0  0
    1.9253    3.2912   20.4235 H   0  0  0  0  0  0  0  0  0  0  0  0
    2.6715    2.6601   18.1518 H   0  0  0  0  0  0  0  0  0  0  0  0
    4.2144    1.4073   16.6727 H   0  0  0  0  0  0  0  0  0  0  0  0
    7.2113   -0.9694   18.2151 H   0  0  0  0  0  0  0  0  0  0  0  0
    6.9831   -1.8054   21.1823 C   0  0  0  0  0  0  0  0  0  0  0  0
    8.1260   -1.8279   22.2060 C   0  0  2  0  0  0  0  0  0  0  0  0
    8.0432   -2.9744   23.2105 C   0  0  0  0  0  0  0  0  0  0  0  0
    7.1033   -2.9357   23.7715 H   0  0  0  0  0  0  0  0  0  0  0  0
    8.0862   -3.9462   22.7074 H   0  0  0  0  0  0  0  0  0  0  0  0
    8.8674   -2.9348   23.9338 H   0  0  0  0  0  0  0  0  0  0  0  0
    9.0501   -1.9556   21.6427 H   0  0  0  0  0  0  0  0  0  0  0  0
    7.1860   -2.4010   20.3004 H   0  0  0  0  0  0  0  0  0  0  0  0
    6.0453   -2.1544   21.6345 H   0  0  0  0  0  0  0  0  0  0  0  0
    9.5952    0.1120   23.0338 C   0  0  0  0  0  0  0  0  0  0  0  0
   10.6430   -0.1523   22.1319 C   0  0  0  0  0  0  0  0  0  0  0  0
   11.9314    0.2513   22.4337 C   0  0  0  0  0  0  0  0  0  0  0  0
   13.2432   -0.0351   21.3276 Cl  0  0  0  0  0  0  0  0  0  0  0  0
   12.2404    0.8940   23.6321 C   0  0  0  0  0  0  0  0  0  0  0  0
   11.2100    1.2091   24.4819 C   0  0  0  0  0  0  0  0  0  0  0  0
    9.9041    0.8743   24.1582 C   0  0  0  0  0  0  0  0  0  0  0  0
    8.8490    1.4437   25.0381 C   0  0  0  0  0  0  0  0  0  0  0  0
    9.1192    2.2613   25.9052 O   0  0  0  0  0  0  0  0  0  0  0  0
   11.3576    1.7733   25.3868 H   0  0  0  0  0  0  0  0  0  0  0  0
   13.2656    1.1693   23.8461 H   0  0  0  0  0  0  0  0  0  0  0  0
   10.4700   -0.6595   21.1887 H   0  0  0  0  0  0  0  0  0  0  0  0
    7.5916   -1.0673   24.8013 H   0  0  0  0  0  0  0  0  0  0  0  0
    6.2746   -0.3114   23.8502 H   0  0  0  0  0  0  0  0  0  0  0  0
    5.5543    1.3268   25.1644 H   0  0  0  0  0  0  0  0  0  0  0  0
    6.6322    1.6618   26.5583 H   0  0  0  0  0  0  0  0  0  0  0  0
    6.7377    2.7381   23.1781 H   0  0  0  0  0  0  0  0  0  0  0  0
    6.4577    5.1476   22.4902 H   0  0  0  0  0  0  0  0  0  0  0  0
    6.8884    5.4953   24.1744 H   0  0  0  0  0  0  0  0  0  0  0  0
    9.4638    4.9296   23.9540 C   0  0  0  0  0  0  0  0  0  0  0  0
    9.1335    5.3725   24.8887 H   0  0  0  0  0  0  0  0  0  0  0  0
    8.1190    3.5487   21.1537 H   0  0  0  0  0  0  0  0  0  0  0  0
   10.4192    3.0744   20.7162 H   0  0  0  0  0  0  0  0  0  0  0  0
   12.2355    3.7771   22.3944 H   0  0  0  0  0  0  0  0  0  0  0  0
   12.3317    5.8249   26.3052 H   0  0  0  0  0  0  0  0  0  0  0  0
   10.7622    6.3503   25.7004 H   0  0  0  0  0  0  0  0  0  0  0  0
   10.9462    4.6859   26.3483 H   0  0  0  0  0  0  0  0  0  0  0  0
  1  2  1  0
  2  3  1  0
  3  4  2  0
  4  5  1  0
  5  6  2  0
  6  7  1  0
  7  8  1  0
  8  9  1  0
  9 10  1  0
 10 11  2  0
 10 12  1  0
 12 13  1  0
 13 14  1  0
 15 14  1  1
 15 16  1  0
 16 17  2  0
 16 18  1  0
 18 19  1  0
 19 20  2  0
 20 21  1  0
 21 22  2  0
 22 23  1  0
 23 24  2  0
 24 25  1  0
 25 26  2  0
 26 27  1  0
 27 28  2  0
 27 29  1  0
 26 30  1  0
 25 31  1  0
 24 32  1  0
 22 33  1  0
 20 34  1  0
 18 35  1  0
 35 36  1  0
 36 37  1  0
 37 38  1  0
 37 39  1  0
 37 40  1  0
 36 41  1  6
 35 42  1  0
 35 43  1  0
 15 44  1  0
 44 45  2  0
 45 46  1  0
 46 47  1  0
 46 48  2  0
 48 49  1  0
 49 50  2  0
 50 51  1  0
 51 52  2  0
 49 53  1  0
 48 54  1  0
 45 55  1  0
 14 56  1  0
 14 57  1  0
 12 58  1  0
 12 59  1  0
  9 60  1  0
  8 61  1  0
  8 62  1  0
  7 63  2  0
 63 64  1  0
  6 65  1  0
  5 66  1  0
  4 67  1  0
  1 68  1  0
  1 69  1  0
  1 70  1  0
 63  3  1  0
 51 13  1  0
 36 15  1  0
 50 44  1  0
 28 19  1  0
 28 23  1  0
M  END
>  <cnnaffinities>  (75) 
[6.3518]

>  <score>  (75) 
6.3518

>  <index>  (75) 
75

>  <Smiles>  (75) 
C(Oc1c(c(c(c(C(N(C(=O)C(N2C([C@@]3(C(=O)N(c4c(nc(c5c(c(c(c(c45)[H])[H])[H])[H])[H])[H])C([C@@]3(C([H])([H])[H])[H])([H])[H])c3c(c(Cl)c(c(c3C2=O)[H])[H])[H])([H])[H])([H])[H])[H])([H])[H])c1[H])[H])[H])[H])([H])([H])[H]

>  <h>  (75) 
<NA>

>  <Training>  (75) 
True

>  <Success>  (75) 
True

>  <enamine_searched>  (75) 
False

>  <enamine_id>  (75) 
nan

$$$$

     RDKit          3D

 61 65  0  0  0  0  0  0  0  0999 V2000
    8.1302   -2.6739   23.2991 C   0  0  0  0  0  0  0  0  0  0  0  0
    8.3248   -1.5417   22.2930 C   0  0  1  0  0  0  0  0  0  0  0  0
    7.1378   -1.4331   21.3365 C   0  0  0  0  0  0  0  0  0  0  0  0
    7.1795   -0.0631   20.8611 N   0  0  0  0  0  0  0  0  0  0  0  0
    6.3059    0.3353   19.8104 C   0  0  0  0  0  0  0  0  0  0  0  0
    6.5333   -0.1256   18.5336 C   0  0  0  0  0  0  0  0  0  0  0  0
    5.8034    0.2141   17.4464 N   0  0  0  0  0  0  0  0  0  0  0  0
    4.7812    1.0178   17.6253 C   0  0  0  0  0  0  0  0  0  0  0  0
    4.3644    1.4910   18.9033 C   0  0  0  0  0  0  0  0  0  0  0  0
    3.2066    2.2999   19.0650 C   0  0  0  0  0  0  0  0  0  0  0  0
    2.7730    2.6459   20.3182 C   0  0  0  0  0  0  0  0  0  0  0  0
    3.4454    2.1620   21.4625 C   0  0  0  0  0  0  0  0  0  0  0  0
    4.5699    1.3809   21.3219 C   0  0  0  0  0  0  0  0  0  0  0  0
    5.1026    1.0849   20.0393 C   0  0  0  0  0  0  0  0  0  0  0  0
    5.0489    0.9524   22.1950 H   0  0  0  0  0  0  0  0  0  0  0  0
    3.0615    2.4124   22.4481 H   0  0  0  0  0  0  0  0  0  0  0  0
    1.8964    3.2752   20.4356 H   0  0  0  0  0  0  0  0  0  0  0  0
    2.6875    2.6452   18.1733 H   0  0  0  0  0  0  0  0  0  0  0  0
    4.2125    1.3111   16.7436 H   0  0  0  0  0  0  0  0  0  0  0  0
    7.3508   -0.8215   18.3513 H   0  0  0  0  0  0  0  0  0  0  0  0
    7.8257    0.7616   21.7505 C   0  0  0  0  0  0  0  0  0  0  0  0
    7.8541    1.9814   21.7127 O   0  0  0  0  0  0  0  0  0  0  0  0
    8.4672   -0.1026   22.8670 C   0  0  1  0  0  0  0  0  0  0  0  0
    7.6373    0.0794   24.1706 C   0  0  0  0  0  0  0  0  0  0  0  0
    7.8629    1.3572   24.8200 N   0  0  0  0  0  0  0  0  0  0  0  0
    6.7459    2.1313   25.3368 C   0  0  0  0  0  0  0  0  0  0  0  0
    6.1180    3.0223   24.2643 C   0  0  0  0  0  0  0  0  0  0  0  0
    7.0944    3.8579   23.5061 N   0  0  0  0  0  4  0  0  0  0  0  0
    6.4386    4.4929   22.3402 C   0  0  0  0  0  0  0  0  0  0  0  0
    6.1086    3.7144   21.6470 H   0  0  0  0  0  0  0  0  0  0  0  0
    5.5809    5.0941   22.6746 H   0  0  0  0  0  0  0  0  0  0  0  0
    7.1616    5.1436   21.8369 H   0  0  0  0  0  0  0  0  0  0  0  0
    7.7314    4.9070   24.3415 C   0  0  0  0  0  0  0  0  0  0  0  0
    8.4481    4.4729   25.0398 H   0  0  0  0  0  0  0  0  0  0  0  0
    6.9488    5.4460   24.8946 H   0  0  0  0  0  0  0  0  0  0  0  0
    8.2442    5.6229   23.6892 H   0  0  0  0  0  0  0  0  0  0  0  0
    7.7815    3.2080   23.0970 H   0  0  0  0  0  0  0  0  0  0  0  0
    5.3675    3.6729   24.7281 H   0  0  0  0  0  0  0  0  0  0  0  0
    5.6017    2.3891   23.5359 H   0  0  0  0  0  0  0  0  0  0  0  0
    5.9932    1.4357   25.7297 H   0  0  0  0  0  0  0  0  0  0  0  0
    7.1336    2.7163   26.1725 H   0  0  0  0  0  0  0  0  0  0  0  0
    9.1193    1.8263   25.0197 C   0  0  0  0  0  0  0  0  0  0  0  0
    9.3952    2.6839   25.8523 O   0  0  0  0  0  0  0  0  0  0  0  0
   10.1658    1.2985   24.0916 C   0  0  0  0  0  0  0  0  0  0  0  0
   11.4086    1.9010   24.1806 C   0  0  0  0  0  0  0  0  0  0  0  0
   12.4654    1.4510   23.4219 C   0  0  0  0  0  0  0  0  0  0  0  0
   12.1959    0.4892   22.4497 C   0  0  0  0  0  0  0  0  0  0  0  0
   13.5029    0.0125   21.4257 Cl  0  0  0  0  0  0  0  0  0  0  0  0
   10.9294   -0.0323   22.2563 C   0  0  0  0  0  0  0  0  0  0  0  0
    9.8892    0.3424   23.1145 C   0  0  0  0  0  0  0  0  0  0  0  0
   10.7334   -0.6882   21.4139 H   0  0  0  0  0  0  0  0  0  0  0  0
   13.4677    1.8446   23.5279 H   0  0  0  0  0  0  0  0  0  0  0  0
   11.4272    2.7692   24.8178 H   0  0  0  0  0  0  0  0  0  0  0  0
    7.8987   -0.7228   24.8703 H   0  0  0  0  0  0  0  0  0  0  0  0
    6.5682   -0.0075   23.9515 H   0  0  0  0  0  0  0  0  0  0  0  0
    7.1862   -2.1215   20.4894 H   0  0  0  0  0  0  0  0  0  0  0  0
    6.2028   -1.6176   21.8919 H   0  0  0  0  0  0  0  0  0  0  0  0
    9.2234   -1.7432   21.7031 H   0  0  0  0  0  0  0  0  0  0  0  0
    8.0393   -3.6377   22.7851 H   0  0  0  0  0  0  0  0  0  0  0  0
    8.9638   -2.7428   24.0059 H   0  0  0  0  0  0  0  0  0  0  0  0
    7.2082   -2.5149   23.8740 H   0  0  0  0  0  0  0  0  0  0  0  0
  1  2  1  0
  2  3  1  0
  3  4  1  0
  4  5  1  0
  5  6  2  0
  6  7  1  0
  7  8  2  0
  8  9  1  0
  9 10  2  0
 10 11  1  0
 11 12  2  0
 12 13  1  0
 13 14  2  0
 13 15  1  0
 12 16  1  0
 11 17  1  0
 10 18  1  0
  8 19  1  0
  6 20  1  0
  4 21  1  0
 21 22  2  0
 21 23  1  0
 23 24  1  1
 24 25  1  0
 25 26  1  0
 26 27  1  0
 27 28  1  0
 28 29  1  0
 29 30  1  0
 29 31  1  0
 29 32  1  0
 28 33  1  0
 33 34  1  0
 33 35  1  0
 33 36  1  0
 28 37  1  0
 27 38  1  0
 27 39  1  0
 26 40  1  0
 26 41  1  0
 25 42  1  0
 42 43  2  0
 42 44  1  0
 44 45  2  0
 45 46  1  0
 46 47  2  0
 47 48  1  0
 47 49  1  0
 49 50  2  0
 49 51  1  0
 46 52  1  0
 45 53  1  0
 24 54  1  0
 24 55  1  0
  3 56  1  0
  3 57  1  0
  2 58  1  6
  1 59  1  0
  1 60  1  0
  1 61  1  0
 23  2  1  0
 50 44  1  0
 14  5  1  0
 50 23  1  0
 14  9  1  0
M  CHG  1  28   1
M  END
>  <cnnaffinities>  (76) 
[6.10921]

>  <score>  (76) 
6.10921

>  <index>  (76) 
76

>  <Smiles>  (76) 
C([C@]1(C(N(c2c(nc(c3c(c(c(c(c23)[H])[H])[H])[H])[H])[H])C(=O)[C@]21C(N(C(C([N+](C([H])([H])[H])(C([H])([H])[H])[H])([H])[H])([H])[H])C(=O)c1c(c(c(Cl)c(c21)[H])[H])[H])([H])[H])([H])[H])[H])([H])([H])[H]

>  <h>  (76) 
<NA>

>  <Training>  (76) 
True

>  <Success>  (76) 
True

>  <enamine_searched>  (76) 
False

>  <enamine_id>  (76) 
nan

$$$$

     RDKit          3D

 57 60  0  0  0  0  0  0  0  0999 V2000
    4.2597   -6.5845   26.8665 C   0  0  0  0  0  0  0  0  0  0  0  0
    3.5860   -6.2845   25.4985 C   0  0  0  0  0  0  0  0  0  0  0  0
    3.4987   -7.5845   24.6736 C   0  0  0  0  0  0  0  0  0  0  0  0
    3.0579   -7.4003   23.6882 H   0  0  0  0  0  0  0  0  0  0  0  0
    4.4880   -8.0296   24.5348 H   0  0  0  0  0  0  0  0  0  0  0  0
    2.8727   -8.3067   25.2071 H   0  0  0  0  0  0  0  0  0  0  0  0
    2.1905   -5.8671   25.7895 C   0  0  0  0  0  0  0  0  0  0  0  0
    1.0967   -5.5738   26.0319 N   0  0  0  0  0  0  0  0  0  0  0  0
    4.2778   -5.1266   24.7518 C   0  0  0  0  0  0  0  0  0  0  0  0
    4.2208   -3.8385   25.2888 C   0  0  0  0  0  0  0  0  0  0  0  0
    4.9276   -2.7892   24.7116 C   0  0  0  0  0  0  0  0  0  0  0  0
    5.6962   -2.9928   23.5648 C   0  0  0  0  0  0  0  0  0  0  0  0
    6.4018   -1.8992   22.9655 N   0  0  0  0  0  0  0  0  0  0  0  0
    7.4105   -1.1981   23.7594 C   0  0  0  0  0  0  0  0  0  0  0  0
    8.8358   -1.4838   23.3205 C   0  0  0  0  0  0  0  0  0  0  0  0
    9.3075   -2.7958   23.3198 C   0  0  0  0  0  0  0  0  0  0  0  0
   10.6022   -3.0790   22.8977 C   0  0  0  0  0  0  0  0  0  0  0  0
   11.4493   -2.0626   22.4622 C   0  0  0  0  0  0  0  0  0  0  0  0
   10.9807   -0.7555   22.4902 C   0  0  0  0  0  0  0  0  0  0  0  0
   12.0307    0.5422   21.9827 Cl  0  0  0  0  0  0  0  0  0  0  0  0
    9.6911   -0.4577   22.9175 C   0  0  0  0  0  0  0  0  0  0  0  0
    9.3685    0.5803   22.9214 H   0  0  0  0  0  0  0  0  0  0  0  0
   12.4575   -2.2666   22.1116 H   0  0  0  0  0  0  0  0  0  0  0  0
   10.9466   -4.1073   22.9149 H   0  0  0  0  0  0  0  0  0  0  0  0
    8.6500   -3.5972   23.6550 H   0  0  0  0  0  0  0  0  0  0  0  0
    7.2646   -1.5558   24.7842 H   0  0  0  0  0  0  0  0  0  0  0  0
    7.2422   -0.1124   23.7477 H   0  0  0  0  0  0  0  0  0  0  0  0
    6.1476   -1.6488   21.6272 C   0  0  0  0  0  0  0  0  0  0  0  0
    5.3590   -2.3368   21.0020 O   0  0  0  0  0  0  0  0  0  0  0  0
    6.8915   -0.4934   20.9287 C   0  0  0  0  0  0  0  0  0  0  0  0
    6.1069    0.0832   19.7789 C   0  0  0  0  0  0  0  0  0  0  0  0
    6.4230   -0.2197   18.4803 C   0  0  0  0  0  0  0  0  0  0  0  0
    5.7648    0.2360   17.3791 N   0  0  0  0  0  0  0  0  0  0  0  0
    4.7403    1.0254   17.5831 C   0  0  0  0  0  0  0  0  0  0  0  0
    4.2835    1.4148   18.8711 C   0  0  0  0  0  0  0  0  0  0  0  0
    3.1621    2.2630   19.0467 C   0  0  0  0  0  0  0  0  0  0  0  0
    2.7475    2.6202   20.2994 C   0  0  0  0  0  0  0  0  0  0  0  0
    3.4387    2.1397   21.4352 C   0  0  0  0  0  0  0  0  0  0  0  0
    4.5271    1.3180   21.2902 C   0  0  0  0  0  0  0  0  0  0  0  0
    4.9820    0.9319   20.0028 C   0  0  0  0  0  0  0  0  0  0  0  0
    5.0452    0.9510   22.1708 H   0  0  0  0  0  0  0  0  0  0  0  0
    3.1090    2.4256   22.4284 H   0  0  0  0  0  0  0  0  0  0  0  0
    1.8967    3.2806   20.4281 H   0  0  0  0  0  0  0  0  0  0  0  0
    2.6587    2.6343   18.1579 H   0  0  0  0  0  0  0  0  0  0  0  0
    4.2124    1.3938   16.7011 H   0  0  0  0  0  0  0  0  0  0  0  0
    7.2667   -0.8698   18.2508 H   0  0  0  0  0  0  0  0  0  0  0  0
    7.8327   -0.9076   20.5441 H   0  0  0  0  0  0  0  0  0  0  0  0
    7.1727    0.2857   21.6456 H   0  0  0  0  0  0  0  0  0  0  0  0
    5.7761   -4.2775   23.0323 C   0  0  0  0  0  0  0  0  0  0  0  0
    5.0528   -5.3168   23.6057 C   0  0  0  0  0  0  0  0  0  0  0  0
    5.1659   -6.3180   23.2005 H   0  0  0  0  0  0  0  0  0  0  0  0
    6.4378   -4.4844   22.1957 H   0  0  0  0  0  0  0  0  0  0  0  0
    4.8653   -1.7915   25.1365 H   0  0  0  0  0  0  0  0  0  0  0  0
    3.6375   -3.6604   26.1895 H   0  0  0  0  0  0  0  0  0  0  0  0
    4.2644   -5.7067   27.5225 H   0  0  0  0  0  0  0  0  0  0  0  0
    3.7346   -7.4000   27.3758 H   0  0  0  0  0  0  0  0  0  0  0  0
    5.2953   -6.8949   26.7284 H   0  0  0  0  0  0  0  0  0  0  0  0
  1  2  1  0
  2  3  1  0
  3  4  1  0
  3  5  1  0
  3  6  1  0
  2  7  1  0
  7  8  3  0
  2  9  1  0
  9 10  2  0
 10 11  1  0
 11 12  2  0
 12 13  1  0
 13 14  1  0
 14 15  1  0
 15 16  2  0
 16 17  1  0
 17 18  2  0
 18 19  1  0
 19 20  1  0
 19 21  2  0
 21 22  1  0
 18 23  1  0
 17 24  1  0
 16 25  1  0
 14 26  1  0
 14 27  1  0
 13 28  1  0
 28 29  2  0
 28 30  1  0
 30 31  1  0
 31 32  2  0
 32 33  1  0
 33 34  2  0
 34 35  1  0
 35 36  2  0
 36 37  1  0
 37 38  2  0
 38 39  1  0
 39 40  2  0
 39 41  1  0
 38 42  1  0
 37 43  1  0
 36 44  1  0
 34 45  1  0
 32 46  1  0
 30 47  1  0
 30 48  1  0
 12 49  1  0
 49 50  2  0
 50 51  1  0
 49 52  1  0
 11 53  1  0
 10 54  1  0
  1 55  1  0
  1 56  1  0
  1 57  1  0
 50  9  1  0
 21 15  1  0
 40 31  1  0
 40 35  1  0
M  END
>  <cnnaffinities>  (77) 
[6.15701, 5.99393, 6.2194, 5.6776, 5.68202]

>  <score>  (77) 
6.15701

>  <index>  (77) 
77

>  <Smiles>  (77) 
C(C(C([H])([H])[H])(C#N)c1c(c(c(N(C(c2c(c(c(c(Cl)c2[H])[H])[H])[H])([H])[H])C(=O)C(c2c(nc(c3c(c(c(c(c23)[H])[H])[H])[H])[H])[H])([H])[H])c(c1[H])[H])[H])[H])([H])([H])[H]

>  <h>  (77) 
<NA>

>  <Training>  (77) 
True

>  <Success>  (77) 
True

>  <enamine_searched>  (77) 
False

>  <enamine_id>  (77) 
nan

$$$$

     RDKit          3D

 40 42  0  0  0  0  0  0  0  0999 V2000
   12.5937   -2.0125   22.8545 C   0  0  0  0  0  0  0  0  0  0  0  0
   11.7045   -0.8419   23.3105 C   0  0  0  0  0  0  0  0  0  0  0  0
   10.2974   -1.3072   23.7248 C   0  0  0  0  0  0  0  0  0  0  0  0
    9.2684   -1.2752   22.5904 C   0  0  0  0  0  0  0  0  0  0  0  0
    9.1470    0.0743   22.0447 N   0  0  0  0  0  0  0  0  0  0  0  0
    8.0432    0.5524   21.3894 C   0  0  0  0  0  0  0  0  0  0  0  0
    7.9035    1.7476   21.1887 O   0  0  0  0  0  0  0  0  0  0  0  0
    6.9821   -0.4604   20.8944 C   0  0  0  0  0  0  0  0  0  0  0  0
    6.1253    0.0868   19.7742 C   0  0  0  0  0  0  0  0  0  0  0  0
    6.4320   -0.2097   18.4699 C   0  0  0  0  0  0  0  0  0  0  0  0
    5.7663    0.2438   17.3754 N   0  0  0  0  0  0  0  0  0  0  0  0
    4.7388    1.0301   17.5836 C   0  0  0  0  0  0  0  0  0  0  0  0
    4.2910    1.4177   18.8741 C   0  0  0  0  0  0  0  0  0  0  0  0
    3.1710    2.2691   19.0478 C   0  0  0  0  0  0  0  0  0  0  0  0
    2.7653    2.6444   20.2977 C   0  0  0  0  0  0  0  0  0  0  0  0
    3.4700    2.1764   21.4343 C   0  0  0  0  0  0  0  0  0  0  0  0
    4.5607    1.3489   21.2878 C   0  0  0  0  0  0  0  0  0  0  0  0
    5.0017    0.9431   20.0036 C   0  0  0  0  0  0  0  0  0  0  0  0
    5.1013    1.0125   22.1663 H   0  0  0  0  0  0  0  0  0  0  0  0
    3.1469    2.4790   22.4222 H   0  0  0  0  0  0  0  0  0  0  0  0
    1.9177    3.3095   20.4265 H   0  0  0  0  0  0  0  0  0  0  0  0
    2.6586    2.6345   18.1600 H   0  0  0  0  0  0  0  0  0  0  0  0
    4.2071    1.3926   16.7034 H   0  0  0  0  0  0  0  0  0  0  0  0
    7.2731   -0.8586   18.2367 H   0  0  0  0  0  0  0  0  0  0  0  0
    7.4885   -1.3730   20.5506 H   0  0  0  0  0  0  0  0  0  0  0  0
    6.3490   -0.7650   21.7416 H   0  0  0  0  0  0  0  0  0  0  0  0
   10.2607    0.9981   22.2740 C   0  0  0  0  0  0  0  0  0  0  0  0
   11.5870    0.2279   22.2066 C   0  0  0  0  0  0  0  0  0  0  0  0
   11.6826   -0.3128   21.2592 H   0  0  0  0  0  0  0  0  0  0  0  0
   12.4326    0.9212   22.2693 H   0  0  0  0  0  0  0  0  0  0  0  0
   10.1568    1.7964   21.5361 H   0  0  0  0  0  0  0  0  0  0  0  0
   10.1623    1.4910   23.2566 H   0  0  0  0  0  0  0  0  0  0  0  0
    8.2928   -1.5738   22.9890 H   0  0  0  0  0  0  0  0  0  0  0  0
    9.5366   -2.0034   21.8065 H   0  0  0  0  0  0  0  0  0  0  0  0
   10.3579   -2.3299   24.1074 H   0  0  0  0  0  0  0  0  0  0  0  0
    9.9315   -0.6809   24.5489 H   0  0  0  0  0  0  0  0  0  0  0  0
   12.1736   -0.3918   24.1964 H   0  0  0  0  0  0  0  0  0  0  0  0
   12.1462   -2.5493   22.0059 H   0  0  0  0  0  0  0  0  0  0  0  0
   12.7381   -2.7410   23.6615 H   0  0  0  0  0  0  0  0  0  0  0  0
   13.5849   -1.6669   22.5354 H   0  0  0  0  0  0  0  0  0  0  0  0
  1  2  1  0
  2  3  1  0
  3  4  1  0
  4  5  1  0
  5  6  1  0
  6  7  2  0
  6  8  1  0
  8  9  1  0
  9 10  2  0
 10 11  1  0
 11 12  2  0
 12 13  1  0
 13 14  2  0
 14 15  1  0
 15 16  2  0
 16 17  1  0
 17 18  2  0
 17 19  1  0
 16 20  1  0
 15 21  1  0
 14 22  1  0
 12 23  1  0
 10 24  1  0
  8 25  1  0
  8 26  1  0
  5 27  1  0
 27 28  1  0
 28 29  1  0
 28 30  1  0
 27 31  1  0
 27 32  1  0
  4 33  1  0
  4 34  1  0
  3 35  1  0
  3 36  1  0
  2 37  1  0
  1 38  1  0
  1 39  1  0
  1 40  1  0
 28  2  1  0
 18  9  1  0
 18 13  1  0
M  END
>  <cnnaffinities>  (78) 
[4.75187, 4.7132, 4.96801, 4.61332, 4.61325, 4.42866, 4.42867]

>  <score>  (78) 
4.75187

>  <index>  (78) 
79

>  <Smiles>  (78) 
C(C1(C(C(N(C(=O)C(c2c(nc(c3c(c(c(c(c23)[H])[H])[H])[H])[H])[H])([H])[H])C(C1([H])[H])([H])[H])([H])[H])([H])[H])[H])([H])([H])[H]

>  <h>  (78) 
<NA>

>  <Training>  (78) 
True

>  <Success>  (78) 
True

>  <enamine_searched>  (78) 
False

>  <enamine_id>  (78) 
nan

$$$$

     RDKit          3D

 59 64  0  0  0  0  0  0  0  0999 V2000
    7.7117   -2.9315   23.3986 C   0  0  0  0  0  0  0  0  0  0  0  0
    8.0104   -1.8725   22.3293 C   0  0  1  0  0  0  0  0  0  0  0  0
    6.8968   -1.7681   21.2699 C   0  0  0  0  0  0  0  0  0  0  0  0
    6.9419   -0.3878   20.8324 N   0  0  0  0  0  0  0  0  0  0  0  0
    6.1470    0.1153   19.7703 C   0  0  0  0  0  0  0  0  0  0  0  0
    6.4441   -0.2211   18.4742 C   0  0  0  0  0  0  0  0  0  0  0  0
    5.7661    0.2238   17.3879 N   0  0  0  0  0  0  0  0  0  0  0  0
    4.7461    1.0205   17.5974 C   0  0  0  0  0  0  0  0  0  0  0  0
    4.2969    1.4148   18.8891 C   0  0  0  0  0  0  0  0  0  0  0  0
    3.1686    2.2621   19.0641 C   0  0  0  0  0  0  0  0  0  0  0  0
    2.7449    2.6104   20.3166 C   0  0  0  0  0  0  0  0  0  0  0  0
    3.4217    2.1123   21.4542 C   0  0  0  0  0  0  0  0  0  0  0  0
    4.5110    1.2916   21.3113 C   0  0  0  0  0  0  0  0  0  0  0  0
    5.0009    0.9400   20.0197 C   0  0  0  0  0  0  0  0  0  0  0  0
    5.0160    0.9023   22.1908 H   0  0  0  0  0  0  0  0  0  0  0  0
    3.0791    2.3948   22.4467 H   0  0  0  0  0  0  0  0  0  0  0  0
    1.8933    3.2735   20.4413 H   0  0  0  0  0  0  0  0  0  0  0  0
    2.6644    2.6393   18.1771 H   0  0  0  0  0  0  0  0  0  0  0  0
    4.2175    1.3874   16.7158 H   0  0  0  0  0  0  0  0  0  0  0  0
    7.2880   -0.8762   18.2622 H   0  0  0  0  0  0  0  0  0  0  0  0
    7.6568    0.4373   21.6668 C   0  0  0  0  0  0  0  0  0  0  0  0
    7.7706    1.6354   21.5136 O   0  0  0  0  0  0  0  0  0  0  0  0
    8.2411   -0.4083   22.8224 C   0  0  1  0  0  0  0  0  0  0  0  0
    7.4448   -0.1025   24.1194 C   0  0  0  0  0  0  0  0  0  0  0  0
    7.6991    1.2356   24.6151 N   0  0  0  0  0  0  0  0  0  0  0  0
    6.5725    2.1266   24.8553 C   0  0  0  0  0  0  0  0  0  0  0  0
    5.5538    1.5723   25.8028 C   0  0  0  0  0  0  0  0  0  0  0  0
    4.2827    1.0874   25.5673 C   0  0  0  0  0  0  0  0  0  0  0  0
    3.8418    0.6131   26.8167 C   0  0  0  0  0  0  0  0  0  0  0  0
    4.7613    0.7990   27.7558 N   0  0  0  0  0  0  0  0  0  0  0  0
    5.7915    1.3863   27.1262 N   0  0  0  0  0  0  0  0  0  0  0  0
    7.0009    1.7035   27.8592 C   0  0  0  0  0  0  0  0  0  0  0  0
    7.3228    2.7272   27.6418 H   0  0  0  0  0  0  0  0  0  0  0  0
    6.7670    1.6046   28.9210 H   0  0  0  0  0  0  0  0  0  0  0  0
    7.8129    1.0168   27.5962 H   0  0  0  0  0  0  0  0  0  0  0  0
    2.9086    0.1274   27.0793 H   0  0  0  0  0  0  0  0  0  0  0  0
    3.7922    1.0499   24.6023 H   0  0  0  0  0  0  0  0  0  0  0  0
    6.0682    2.3151   23.8959 H   0  0  0  0  0  0  0  0  0  0  0  0
    6.9921    3.0717   25.2115 H   0  0  0  0  0  0  0  0  0  0  0  0
    8.9768    1.6608   24.8128 C   0  0  0  0  0  0  0  0  0  0  0  0
    9.2644    2.5953   25.5559 O   0  0  0  0  0  0  0  0  0  0  0  0
   10.0226    0.9219   24.0293 C   0  0  0  0  0  0  0  0  0  0  0  0
   11.3460    1.2818   24.2477 C   0  0  0  0  0  0  0  0  0  0  0  0
   12.3640    0.7787   23.4657 C   0  0  0  0  0  0  0  0  0  0  0  0
   12.0095   -0.0781   22.4296 C   0  0  0  0  0  0  0  0  0  0  0  0
   12.9739   -0.5322   21.6157 F   0  0  0  0  0  0  0  0  0  0  0  0
   10.7064   -0.4729   22.1993 C   0  0  0  0  0  0  0  0  0  0  0  0
    9.6881   -0.0179   23.0475 C   0  0  0  0  0  0  0  0  0  0  0  0
   10.5122   -1.1026   21.3367 H   0  0  0  0  0  0  0  0  0  0  0  0
   13.4043    1.0525   23.6013 H   0  0  0  0  0  0  0  0  0  0  0  0
   11.4947    1.9968   25.0354 H   0  0  0  0  0  0  0  0  0  0  0  0
    6.3758   -0.1891   23.9172 H   0  0  0  0  0  0  0  0  0  0  0  0
    7.7204   -0.8315   24.8960 H   0  0  0  0  0  0  0  0  0  0  0  0
    5.9160   -2.0284   21.6952 H   0  0  0  0  0  0  0  0  0  0  0  0
    7.0652   -2.4203   20.4150 H   0  0  0  0  0  0  0  0  0  0  0  0
    8.9317   -2.1667   21.8208 H   0  0  0  0  0  0  0  0  0  0  0  0
    8.4847   -2.9636   24.1756 H   0  0  0  0  0  0  0  0  0  0  0  0
    7.6491   -3.9308   22.9524 H   0  0  0  0  0  0  0  0  0  0  0  0
    6.7535   -2.7373   23.8954 H   0  0  0  0  0  0  0  0  0  0  0  0
  1  2  1  0
  2  3  1  0
  3  4  1  0
  4  5  1  0
  5  6  2  0
  6  7  1  0
  7  8  2  0
  8  9  1  0
  9 10  2  0
 10 11  1  0
 11 12  2  0
 12 13  1  0
 13 14  2  0
 13 15  1  0
 12 16  1  0
 11 17  1  0
 10 18  1  0
  8 19  1  0
  6 20  1  0
  4 21  1  0
 21 22  2  0
 21 23  1  0
 23 24  1  1
 24 25  1  0
 25 26  1  0
 26 27  1  0
 27 28  2  0
 28 29  1  0
 29 30  2  0
 30 31  1  0
 31 32  1  0
 32 33  1  0
 32 34  1  0
 32 35  1  0
 29 36  1  0
 28 37  1  0
 26 38  1  0
 26 39  1  0
 25 40  1  0
 40 41  2  0
 40 42  1  0
 42 43  2  0
 43 44  1  0
 44 45  2  0
 45 46  1  0
 45 47  1  0
 47 48  2  0
 47 49  1  0
 44 50  1  0
 43 51  1  0
 24 52  1  0
 24 53  1  0
  3 54  1  0
  3 55  1  0
  2 56  1  6
  1 57  1  0
  1 58  1  0
  1 59  1  0
 23  2  1  0
 31 27  1  0
 48 42  1  0
 14  5  1  0
 48 23  1  0
 14  9  1  0
M  END
>  <cnnaffinities>  (79) 
[6.08959, 6.22205, 6.29847]

>  <score>  (79) 
6.08959

>  <index>  (79) 
80

>  <Smiles>  (79) 
C([C@]1(C(N(c2c(nc(c3c(c(c(c(c23)[H])[H])[H])[H])[H])[H])C(=O)[C@]21C(N(C(c1c(c(nn1C([H])([H])[H])[H])[H])([H])[H])C(=O)c1c(c(c(F)c(c21)[H])[H])[H])([H])[H])([H])[H])[H])([H])([H])[H]

>  <h>  (79) 
<NA>

>  <Training>  (79) 
True

>  <Success>  (79) 
True

>  <enamine_searched>  (79) 
False

>  <enamine_id>  (79) 
nan

$$$$

     RDKit          3D

 58 63  0  0  0  0  0  0  0  0999 V2000
    5.4576    4.9516   21.4147 C   0  0  0  0  0  0  0  0  0  0  0  0
    6.4438    4.5469   22.4650 C   0  0  0  0  0  0  0  0  0  0  0  0
    6.3469    3.5902   23.3377 N   0  0  0  0  0  0  0  0  0  0  0  0
    7.5823    3.5758   23.9889 C   0  0  0  0  0  0  0  0  0  0  0  0
    7.9671    2.5281   24.9924 C   0  0  0  0  0  0  0  0  0  0  0  0
    8.7145    1.4141   24.4131 N   0  0  0  0  0  0  0  0  0  0  0  0
    8.0564    0.1471   24.1608 C   0  0  0  0  0  0  0  0  0  0  0  0
    8.3515   -0.4122   22.7477 C   0  0  2  0  0  0  0  0  0  0  0  0
    7.6801    0.4353   21.6324 C   0  0  0  0  0  0  0  0  0  0  0  0
    7.8417    1.6146   21.4177 O   0  0  0  0  0  0  0  0  0  0  0  0
    6.8869   -0.3900   20.8645 N   0  0  0  0  0  0  0  0  0  0  0  0
    6.1282    0.1036   19.7745 C   0  0  0  0  0  0  0  0  0  0  0  0
    6.4435   -0.2266   18.4797 C   0  0  0  0  0  0  0  0  0  0  0  0
    5.7725    0.2228   17.3913 N   0  0  0  0  0  0  0  0  0  0  0  0
    4.7499    1.0189   17.5962 C   0  0  0  0  0  0  0  0  0  0  0  0
    4.2924    1.4168   18.8838 C   0  0  0  0  0  0  0  0  0  0  0  0
    3.1613    2.2614   19.0615 C   0  0  0  0  0  0  0  0  0  0  0  0
    2.7323    2.6018   20.3163 C   0  0  0  0  0  0  0  0  0  0  0  0
    3.4148    2.1111   21.4515 C   0  0  0  0  0  0  0  0  0  0  0  0
    4.5133    1.3026   21.3050 C   0  0  0  0  0  0  0  0  0  0  0  0
    4.9942    0.9446   20.0138 C   0  0  0  0  0  0  0  0  0  0  0  0
    5.0221    0.9250   22.1840 H   0  0  0  0  0  0  0  0  0  0  0  0
    3.0803    2.3883   22.4485 H   0  0  0  0  0  0  0  0  0  0  0  0
    1.8750    3.2573   20.4426 H   0  0  0  0  0  0  0  0  0  0  0  0
    2.6589    2.6376   18.1763 H   0  0  0  0  0  0  0  0  0  0  0  0
    4.2253    1.3840   16.7143 H   0  0  0  0  0  0  0  0  0  0  0  0
    7.2906   -0.8751   18.2607 H   0  0  0  0  0  0  0  0  0  0  0  0
    7.0712   -1.7988   21.1352 C   0  0  0  0  0  0  0  0  0  0  0  0
    7.7460   -1.8445   22.5292 C   0  0  2  0  0  0  0  0  0  0  0  0
    6.7493   -2.3354   23.5959 C   0  0  0  0  0  0  0  0  0  0  0  0
    7.2146   -2.4121   24.5837 H   0  0  0  0  0  0  0  0  0  0  0  0
    5.8779   -1.6742   23.6796 H   0  0  0  0  0  0  0  0  0  0  0  0
    6.3834   -3.3358   23.3339 H   0  0  0  0  0  0  0  0  0  0  0  0
    8.5687   -2.5695   22.5204 H   0  0  0  0  0  0  0  0  0  0  0  0
    6.0986   -2.3062   21.1290 H   0  0  0  0  0  0  0  0  0  0  0  0
    7.7046   -2.2623   20.3685 H   0  0  0  0  0  0  0  0  0  0  0  0
    9.8598   -0.3455   22.5404 C   0  0  0  0  0  0  0  0  0  0  0  0
   10.4568   -1.1599   21.5751 C   0  0  0  0  0  0  0  0  0  0  0  0
   11.8116   -1.0613   21.3497 C   0  0  0  0  0  0  0  0  0  0  0  0
   12.3518   -1.8595   20.4157 F   0  0  0  0  0  0  0  0  0  0  0  0
   12.6172   -0.1477   22.0164 C   0  0  0  0  0  0  0  0  0  0  0  0
   12.0204    0.6972   22.9337 C   0  0  0  0  0  0  0  0  0  0  0  0
   10.6511    0.6105   23.1932 C   0  0  0  0  0  0  0  0  0  0  0  0
   10.0366    1.6174   24.1237 C   0  0  0  0  0  0  0  0  0  0  0  0
   10.6551    2.5768   24.5659 O   0  0  0  0  0  0  0  0  0  0  0  0
   12.5880    1.4557   23.4618 H   0  0  0  0  0  0  0  0  0  0  0  0
   13.6725   -0.0978   21.7745 H   0  0  0  0  0  0  0  0  0  0  0  0
    9.9049   -1.8551   20.9518 H   0  0  0  0  0  0  0  0  0  0  0  0
    6.9837    0.3216   24.2569 H   0  0  0  0  0  0  0  0  0  0  0  0
    8.3766   -0.6043   24.9017 H   0  0  0  0  0  0  0  0  0  0  0  0
    7.0596    2.1277   25.4558 H   0  0  0  0  0  0  0  0  0  0  0  0
    8.6017    2.9751   25.7640 H   0  0  0  0  0  0  0  0  0  0  0  0
    8.3325    4.5878   23.5072 C   0  0  0  0  0  0  0  0  0  0  0  0
    7.6233    5.2192   22.5279 O   0  0  0  0  0  0  0  0  0  0  0  0
    9.3131    4.9721   23.7408 H   0  0  0  0  0  0  0  0  0  0  0  0
    5.6673    5.9530   21.0305 H   0  0  0  0  0  0  0  0  0  0  0  0
    4.4552    4.9206   21.8439 H   0  0  0  0  0  0  0  0  0  0  0  0
    5.4626    4.2347   20.5855 H   0  0  0  0  0  0  0  0  0  0  0  0
  1  2  1  0
  2  3  2  0
  3  4  1  0
  4  5  1  0
  5  6  1  0
  6  7  1  0
  8  7  1  1
  8  9  1  0
  9 10  2  0
  9 11  1  0
 11 12  1  0
 12 13  2  0
 13 14  1  0
 14 15  2  0
 15 16  1  0
 16 17  2  0
 17 18  1  0
 18 19  2  0
 19 20  1  0
 20 21  2  0
 20 22  1  0
 19 23  1  0
 18 24  1  0
 17 25  1  0
 15 26  1  0
 13 27  1  0
 11 28  1  0
 28 29  1  0
 29 30  1  0
 30 31  1  0
 30 32  1  0
 30 33  1  0
 29 34  1  6
 28 35  1  0
 28 36  1  0
  8 37  1  0
 37 38  2  0
 38 39  1  0
 39 40  1  0
 39 41  2  0
 41 42  1  0
 42 43  2  0
 43 44  1  0
 44 45  2  0
 42 46  1  0
 41 47  1  0
 38 48  1  0
  7 49  1  0
  7 50  1  0
  5 51  1  0
  5 52  1  0
  4 53  2  0
 53 54  1  0
 53 55  1  0
  1 56  1  0
  1 57  1  0
  1 58  1  0
 54  2  1  0
 44  6  1  0
 29  8  1  0
 43 37  1  0
 21 12  1  0
 21 16  1  0
M  END
>  <cnnaffinities>  (80) 
[6.24263]

>  <score>  (80) 
6.24263

>  <index>  (80) 
81

>  <Smiles>  (80) 
C(c1nc(C(N2C([C@@]3(C(=O)N(c4c(nc(c5c(c(c(c(c45)[H])[H])[H])[H])[H])[H])C([C@@]3(C([H])([H])[H])[H])([H])[H])c3c(c(F)c(c(c3C2=O)[H])[H])[H])([H])[H])([H])[H])c(o1)[H])([H])([H])[H]

>  <h>  (80) 
<NA>

>  <Training>  (80) 
True

>  <Success>  (80) 
True

>  <enamine_searched>  (80) 
False

>  <enamine_id>  (80) 
nan

$$$$

     RDKit          3D

 55 60  0  0  0  0  0  0  0  0999 V2000
    7.3895   -2.5958   23.7632 C   0  0  0  0  0  0  0  0  0  0  0  0
    7.8048   -1.8063   22.5123 C   0  0  1  0  0  0  0  0  0  0  0  0
    6.6453   -1.6549   21.5044 C   0  0  0  0  0  0  0  0  0  0  0  0
    6.9286   -0.4062   20.8251 N   0  0  0  0  0  0  0  0  0  0  0  0
    6.1405    0.1080   19.7595 C   0  0  0  0  0  0  0  0  0  0  0  0
    6.4501   -0.2159   18.4648 C   0  0  0  0  0  0  0  0  0  0  0  0
    5.7648    0.2259   17.3808 N   0  0  0  0  0  0  0  0  0  0  0  0
    4.7450    1.0202   17.5924 C   0  0  0  0  0  0  0  0  0  0  0  0
    4.2960    1.4210   18.8828 C   0  0  0  0  0  0  0  0  0  0  0  0
    3.1704    2.2710   19.0659 C   0  0  0  0  0  0  0  0  0  0  0  0
    2.7572    2.6225   20.3198 C   0  0  0  0  0  0  0  0  0  0  0  0
    3.4435    2.1304   21.4533 C   0  0  0  0  0  0  0  0  0  0  0  0
    4.5337    1.3063   21.3011 C   0  0  0  0  0  0  0  0  0  0  0  0
    5.0030    0.9426   20.0088 C   0  0  0  0  0  0  0  0  0  0  0  0
    5.0587    0.9439   22.1801 H   0  0  0  0  0  0  0  0  0  0  0  0
    3.1283    2.4297   22.4471 H   0  0  0  0  0  0  0  0  0  0  0  0
    1.9100    3.2920   20.4485 H   0  0  0  0  0  0  0  0  0  0  0  0
    2.6625    2.6452   18.1806 H   0  0  0  0  0  0  0  0  0  0  0  0
    4.2173    1.3843   16.7113 H   0  0  0  0  0  0  0  0  0  0  0  0
    7.2916   -0.8709   18.2487 H   0  0  0  0  0  0  0  0  0  0  0  0
    7.8360    0.4006   21.4784 C   0  0  0  0  0  0  0  0  0  0  0  0
    8.1494    1.5053   21.1043 O   0  0  0  0  0  0  0  0  0  0  0  0
    8.3537   -0.3546   22.7334 C   0  0  1  0  0  0  0  0  0  0  0  0
    7.7970    0.2793   24.0245 C   0  0  0  0  0  0  0  0  0  0  0  0
    8.3721    1.5866   24.2715 N   0  0  0  0  0  0  0  0  0  0  0  0
    7.5112    2.7150   24.5485 C   0  0  0  0  0  0  0  0  0  0  0  0
    7.3571    3.6153   23.3565 C   0  0  0  0  0  0  0  0  0  0  0  0
    8.1955    4.5059   22.9568 N   0  0  0  0  0  0  0  0  0  0  0  0
    7.5956    5.0693   21.8412 C   0  0  0  0  0  0  0  0  0  0  0  0
    6.4078    4.4681   21.6276 C   0  0  0  0  0  0  0  0  0  0  0  0
    6.2316    3.5381   22.6143 O   0  0  0  0  0  0  0  0  0  0  0  0
    5.6280    4.5495   20.8884 H   0  0  0  0  0  0  0  0  0  0  0  0
    8.0876    5.8770   21.3140 H   0  0  0  0  0  0  0  0  0  0  0  0
    7.9886    3.2838   25.3483 H   0  0  0  0  0  0  0  0  0  0  0  0
    6.5336    2.3477   24.8695 H   0  0  0  0  0  0  0  0  0  0  0  0
    9.7310    1.7780   24.3062 C   0  0  0  0  0  0  0  0  0  0  0  0
   10.2542    2.7318   24.8641 O   0  0  0  0  0  0  0  0  0  0  0  0
   10.5185    0.7479   23.5611 C   0  0  0  0  0  0  0  0  0  0  0  0
   11.9128    0.8379   23.5651 C   0  0  0  0  0  0  0  0  0  0  0  0
   12.6738   -0.0149   22.7837 C   0  0  0  0  0  0  0  0  0  0  0  0
   11.9977   -0.9318   21.9864 C   0  0  0  0  0  0  0  0  0  0  0  0
   12.6459   -1.8028   21.2031 F   0  0  0  0  0  0  0  0  0  0  0  0
   10.6317   -1.0193   21.9533 C   0  0  0  0  0  0  0  0  0  0  0  0
    9.8617   -0.2277   22.7948 C   0  0  0  0  0  0  0  0  0  0  0  0
   10.2302   -1.7179   21.2318 H   0  0  0  0  0  0  0  0  0  0  0  0
   13.7538    0.0364   22.7685 H   0  0  0  0  0  0  0  0  0  0  0  0
   12.3611    1.6043   24.1927 H   0  0  0  0  0  0  0  0  0  0  0  0
    8.0115   -0.3985   24.8670 H   0  0  0  0  0  0  0  0  0  0  0  0
    6.7135    0.3951   23.9058 H   0  0  0  0  0  0  0  0  0  0  0  0
    5.6753   -1.6244   22.0281 H   0  0  0  0  0  0  0  0  0  0  0  0
    6.5959   -2.4776   20.7820 H   0  0  0  0  0  0  0  0  0  0  0  0
    8.6004   -2.3690   22.0173 H   0  0  0  0  0  0  0  0  0  0  0  0
    8.2079   -2.6816   24.4889 H   0  0  0  0  0  0  0  0  0  0  0  0
    6.5447   -2.1135   24.2711 H   0  0  0  0  0  0  0  0  0  0  0  0
    7.0727   -3.6128   23.4990 H   0  0  0  0  0  0  0  0  0  0  0  0
  1  2  1  0
  2  3  1  0
  3  4  1  0
  4  5  1  0
  5  6  2  0
  6  7  1  0
  7  8  2  0
  8  9  1  0
  9 10  2  0
 10 11  1  0
 11 12  2  0
 12 13  1  0
 13 14  2  0
 13 15  1  0
 12 16  1  0
 11 17  1  0
 10 18  1  0
  8 19  1  0
  6 20  1  0
  4 21  1  0
 21 22  2  0
 21 23  1  0
 23 24  1  1
 24 25  1  0
 25 26  1  0
 26 27  1  0
 27 28  2  0
 28 29  1  0
 29 30  2  0
 30 31  1  0
 30 32  1  0
 29 33  1  0
 26 34  1  0
 26 35  1  0
 25 36  1  0
 36 37  2  0
 36 38  1  0
 38 39  2  0
 39 40  1  0
 40 41  2  0
 41 42  1  0
 41 43  1  0
 43 44  2  0
 43 45  1  0
 40 46  1  0
 39 47  1  0
 24 48  1  0
 24 49  1  0
  3 50  1  0
  3 51  1  0
  2 52  1  6
  1 53  1  0
  1 54  1  0
  1 55  1  0
 23  2  1  0
 31 27  1  0
 44 38  1  0
 14  5  1  0
 44 23  1  0
 14  9  1  0
M  END
>  <cnnaffinities>  (81) 
[5.76758, 6.18237]

>  <score>  (81) 
5.76758

>  <index>  (81) 
82

>  <Smiles>  (81) 
C([C@]1(C(N(c2c(nc(c3c(c(c(c(c23)[H])[H])[H])[H])[H])[H])C(=O)[C@]21C(N(C(c1nc(c(o1)[H])[H])([H])[H])C(=O)c1c(c(c(F)c(c21)[H])[H])[H])([H])[H])([H])[H])[H])([H])([H])[H]

>  <h>  (81) 
<NA>

>  <Training>  (81) 
True

>  <Success>  (81) 
True

>  <enamine_searched>  (81) 
False

>  <enamine_id>  (81) 
nan

$$$$

     RDKit          3D

 72 77  0  0  0  0  0  0  0  0999 V2000
    9.2101    6.0479   23.5068 C   0  0  0  0  0  0  0  0  0  0  0  0
    7.9853    6.0620   22.6036 C   0  0  2  0  0  0  0  0  0  0  0  0
    7.2531    7.3950   22.6990 C   0  0  0  0  0  0  0  0  0  0  0  0
    6.0769    7.4293   21.9224 O   0  0  0  0  0  0  0  0  0  0  0  0
    5.1578    6.4709   22.3993 C   0  0  0  0  0  0  0  0  0  0  0  0
    5.6770    5.0455   22.2599 C   0  0  1  0  0  0  0  0  0  0  0  0
    5.7491    4.6499   20.7985 C   0  0  0  0  0  0  0  0  0  0  0  0
    6.0583    3.6087   20.6962 H   0  0  0  0  0  0  0  0  0  0  0  0
    6.4485    5.2865   20.2524 H   0  0  0  0  0  0  0  0  0  0  0  0
    4.7717    4.7234   20.3149 H   0  0  0  0  0  0  0  0  0  0  0  0
    7.0283    4.9286   22.9630 N   0  0  0  0  0  4  0  0  0  0  0  0
    7.6517    3.5755   22.8429 C   0  0  0  0  0  0  0  0  0  0  0  0
    8.0742    2.9766   24.1903 C   0  0  0  0  0  0  0  0  0  0  0  0
    8.7700    1.7190   24.0062 N   0  0  0  0  0  0  0  0  0  0  0  0
    7.9721    0.5169   23.8490 C   0  0  0  0  0  0  0  0  0  0  0  0
    8.4202   -0.3420   22.6472 C   0  0  2  0  0  0  0  0  0  0  0  0
    8.0178    0.2875   21.2892 C   0  0  0  0  0  0  0  0  0  0  0  0
    8.5614    1.2024   20.7027 O   0  0  0  0  0  0  0  0  0  0  0  0
    6.9133   -0.3871   20.8251 N   0  0  0  0  0  0  0  0  0  0  0  0
    6.1543    0.1322   19.7498 C   0  0  0  0  0  0  0  0  0  0  0  0
    6.5009   -0.1606   18.4572 C   0  0  0  0  0  0  0  0  0  0  0  0
    5.8187    0.2756   17.3729 N   0  0  0  0  0  0  0  0  0  0  0  0
    4.7739    1.0434   17.5855 C   0  0  0  0  0  0  0  0  0  0  0  0
    4.3120    1.4280   18.8774 C   0  0  0  0  0  0  0  0  0  0  0  0
    3.1772    2.2610   19.0699 C   0  0  0  0  0  0  0  0  0  0  0  0
    2.7627    2.6096   20.3280 C   0  0  0  0  0  0  0  0  0  0  0  0
    3.4748    2.1556   21.4573 C   0  0  0  0  0  0  0  0  0  0  0  0
    4.5758    1.3481   21.3039 C   0  0  0  0  0  0  0  0  0  0  0  0
    5.0199    0.9573   20.0072 C   0  0  0  0  0  0  0  0  0  0  0  0
    5.1175    1.0195   22.1847 H   0  0  0  0  0  0  0  0  0  0  0  0
    3.1562    2.4471   22.4544 H   0  0  0  0  0  0  0  0  0  0  0  0
    1.9005    3.2570   20.4601 H   0  0  0  0  0  0  0  0  0  0  0  0
    2.6532    2.6257   18.1930 H   0  0  0  0  0  0  0  0  0  0  0  0
    4.2258    1.3938   16.7083 H   0  0  0  0  0  0  0  0  0  0  0  0
    7.3653   -0.7918   18.2595 H   0  0  0  0  0  0  0  0  0  0  0  0
    6.4561   -1.4603   21.6889 C   0  0  0  0  0  0  0  0  0  0  0  0
    7.6760   -1.7125   22.5840 C   0  0  2  0  0  0  0  0  0  0  0  0
    7.3921   -2.4261   23.9051 C   0  0  0  0  0  0  0  0  0  0  0  0
    8.3148   -2.5690   24.4821 H   0  0  0  0  0  0  0  0  0  0  0  0
    6.6831   -1.8706   24.5308 H   0  0  0  0  0  0  0  0  0  0  0  0
    6.9689   -3.4203   23.7226 H   0  0  0  0  0  0  0  0  0  0  0  0
    8.3392   -2.3620   22.0110 H   0  0  0  0  0  0  0  0  0  0  0  0
    6.1951   -2.3322   21.0822 H   0  0  0  0  0  0  0  0  0  0  0  0
    5.5662   -1.1805   22.2725 H   0  0  0  0  0  0  0  0  0  0  0  0
    9.9180   -0.4626   22.7010 C   0  0  0  0  0  0  0  0  0  0  0  0
   10.5072   -1.4146   21.8753 C   0  0  0  0  0  0  0  0  0  0  0  0
   11.8727   -1.4601   21.7437 C   0  0  0  0  0  0  0  0  0  0  0  0
   12.4488   -2.4503   20.4458 Cl  0  0  0  0  0  0  0  0  0  0  0  0
   12.7153   -0.6335   22.4821 C   0  0  0  0  0  0  0  0  0  0  0  0
   12.1364    0.3236   23.3043 C   0  0  0  0  0  0  0  0  0  0  0  0
   10.7432    0.4659   23.3477 C   0  0  0  0  0  0  0  0  0  0  0  0
   10.1377    1.7121   23.9501 C   0  0  0  0  0  0  0  0  0  0  0  0
   10.8163    2.6681   24.3020 O   0  0  0  0  0  0  0  0  0  0  0  0
   12.7307    1.0230   23.8881 H   0  0  0  0  0  0  0  0  0  0  0  0
   13.7846   -0.7072   22.3113 H   0  0  0  0  0  0  0  0  0  0  0  0
    9.9280   -2.0310   21.2027 H   0  0  0  0  0  0  0  0  0  0  0  0
    6.9255    0.8212   23.7328 H   0  0  0  0  0  0  0  0  0  0  0  0
    8.0593   -0.1126   24.7463 H   0  0  0  0  0  0  0  0  0  0  0  0
    8.7266    3.6435   24.7573 H   0  0  0  0  0  0  0  0  0  0  0  0
    7.1772    2.7788   24.7892 H   0  0  0  0  0  0  0  0  0  0  0  0
    8.5002    3.6346   22.1571 H   0  0  0  0  0  0  0  0  0  0  0  0
    6.9359    2.8911   22.3796 H   0  0  0  0  0  0  0  0  0  0  0  0
    6.8256    5.0387   23.9702 H   0  0  0  0  0  0  0  0  0  0  0  0
    4.9856    4.3593   22.7702 H   0  0  0  0  0  0  0  0  0  0  0  0
    4.2469    6.6027   21.8068 H   0  0  0  0  0  0  0  0  0  0  0  0
    4.9150    6.6561   23.4556 H   0  0  0  0  0  0  0  0  0  0  0  0
    7.0161    7.5961   23.7585 H   0  0  0  0  0  0  0  0  0  0  0  0
    7.8861    8.2046   22.3275 H   0  0  0  0  0  0  0  0  0  0  0  0
    8.2951    5.9124   21.5658 H   0  0  0  0  0  0  0  0  0  0  0  0
    9.8290    5.1603   23.3542 H   0  0  0  0  0  0  0  0  0  0  0  0
    9.8361    6.9246   23.3255 H   0  0  0  0  0  0  0  0  0  0  0  0
    8.9028    6.0724   24.5588 H   0  0  0  0  0  0  0  0  0  0  0  0
  1  2  1  0
  2  3  1  0
  3  4  1  0
  4  5  1  0
  5  6  1  0
  6  7  1  0
  7  8  1  0
  7  9  1  0
  7 10  1  0
  6 11  1  0
 11 12  1  0
 12 13  1  0
 13 14  1  0
 14 15  1  0
 16 15  1  1
 16 17  1  0
 17 18  2  0
 17 19  1  0
 19 20  1  0
 20 21  2  0
 21 22  1  0
 22 23  2  0
 23 24  1  0
 24 25  2  0
 25 26  1  0
 26 27  2  0
 27 28  1  0
 28 29  2  0
 28 30  1  0
 27 31  1  0
 26 32  1  0
 25 33  1  0
 23 34  1  0
 21 35  1  0
 19 36  1  0
 36 37  1  0
 37 38  1  0
 38 39  1  0
 38 40  1  0
 38 41  1  0
 37 42  1  6
 36 43  1  0
 36 44  1  0
 16 45  1  0
 45 46  2  0
 46 47  1  0
 47 48  1  0
 47 49  2  0
 49 50  1  0
 50 51  2  0
 51 52  1  0
 52 53  2  0
 50 54  1  0
 49 55  1  0
 46 56  1  0
 15 57  1  0
 15 58  1  0
 13 59  1  0
 13 60  1  0
 12 61  1  0
 12 62  1  0
 11 63  1  0
  6 64  1  1
  5 65  1  0
  5 66  1  0
  3 67  1  0
  3 68  1  0
  2 69  1  6
  1 70  1  0
  1 71  1  0
  1 72  1  0
 11  2  1  0
 52 14  1  0
 37 16  1  0
 51 45  1  0
 29 20  1  0
 29 24  1  0
M  CHG  1  11   1
M  END
>  <cnnaffinities>  (82) 
[6.43131, 6.71299, 6.66661]

>  <score>  (82) 
6.43131

>  <index>  (82) 
83

>  <Smiles>  (82) 
C([C@@]1(C(OC([C@@](C([H])([H])[H])([N+]1(C(C(N1C([C@@]2(C(=O)N(c3c(nc(c4c(c(c(c(c34)[H])[H])[H])[H])[H])[H])C([C@@]2(C([H])([H])[H])[H])([H])[H])c2c(c(Cl)c(c(c2C1=O)[H])[H])[H])([H])[H])([H])[H])([H])[H])[H])[H])([H])[H])([H])[H])[H])([H])([H])[H]

>  <h>  (82) 
<NA>

>  <Training>  (82) 
True

>  <Success>  (82) 
True

>  <enamine_searched>  (82) 
False

>  <enamine_id>  (82) 
nan

$$$$

     RDKit          3D

 60 65  0  0  0  0  0  0  0  0999 V2000
    6.2840    4.4150   22.5605 C   0  0  0  0  0  0  0  0  0  0  0  0
    6.7856    3.6630   23.6907 N   0  0  0  0  0  0  0  0  0  0  0  0
    6.0784    2.8504   24.5039 C   0  0  0  0  0  0  0  0  0  0  0  0
    4.8582    2.8112   24.6065 O   0  0  0  0  0  0  0  0  0  0  0  0
    6.9745    1.9637   25.3689 C   0  0  0  0  0  0  0  0  0  0  0  0
    8.0899    1.3336   24.7055 N   0  0  0  0  0  0  0  0  0  0  0  0
    7.9577    0.0034   24.1140 C   0  0  0  0  0  0  0  0  0  0  0  0
    8.6946   -0.1310   22.7481 C   0  0  2  0  0  0  0  0  0  0  0  0
    8.0390    0.7273   21.6301 C   0  0  0  0  0  0  0  0  0  0  0  0
    8.2384    1.9034   21.4121 O   0  0  0  0  0  0  0  0  0  0  0  0
    7.2314   -0.0903   20.8703 N   0  0  0  0  0  0  0  0  0  0  0  0
    6.3910    0.3441   19.8177 C   0  0  0  0  0  0  0  0  0  0  0  0
    6.6528   -0.0777   18.5361 C   0  0  0  0  0  0  0  0  0  0  0  0
    5.9008    0.2351   17.4543 N   0  0  0  0  0  0  0  0  0  0  0  0
    4.8396    0.9798   17.6546 C   0  0  0  0  0  0  0  0  0  0  0  0
    4.4297    1.4526   18.9333 C   0  0  0  0  0  0  0  0  0  0  0  0
    3.2490    2.2258   19.1006 C   0  0  0  0  0  0  0  0  0  0  0  0
    2.8289    2.6035   20.3459 C   0  0  0  0  0  0  0  0  0  0  0  0
    3.5757    2.2289   21.4868 C   0  0  0  0  0  0  0  0  0  0  0  0
    4.7386    1.5069   21.3502 C   0  0  0  0  0  0  0  0  0  0  0  0
    5.2080    1.1123   20.0642 C   0  0  0  0  0  0  0  0  0  0  0  0
    5.3139    1.2447   22.2355 H   0  0  0  0  0  0  0  0  0  0  0  0
    3.2600    2.5307   22.4791 H   0  0  0  0  0  0  0  0  0  0  0  0
    1.9229    3.1948   20.4567 H   0  0  0  0  0  0  0  0  0  0  0  0
    2.7020    2.5130   18.2075 H   0  0  0  0  0  0  0  0  0  0  0  0
    4.2267    1.2275   16.7861 H   0  0  0  0  0  0  0  0  0  0  0  0
    7.5268   -0.7012   18.3378 H   0  0  0  0  0  0  0  0  0  0  0  0
    7.2655   -1.4732   21.2875 C   0  0  0  0  0  0  0  0  0  0  0  0
    8.5460   -1.5483   22.1247 C   0  0  2  0  0  0  0  0  0  0  0  0
    8.5891   -2.7573   23.0512 C   0  0  0  0  0  0  0  0  0  0  0  0
    7.7729   -2.7353   23.7826 H   0  0  0  0  0  0  0  0  0  0  0  0
    8.4819   -3.6836   22.4745 H   0  0  0  0  0  0  0  0  0  0  0  0
    9.5344   -2.8087   23.6010 H   0  0  0  0  0  0  0  0  0  0  0  0
    9.3632   -1.6355   21.4041 H   0  0  0  0  0  0  0  0  0  0  0  0
    6.3723   -1.7342   21.8751 H   0  0  0  0  0  0  0  0  0  0  0  0
    7.2917   -2.1372   20.4199 H   0  0  0  0  0  0  0  0  0  0  0  0
   10.1053    0.3705   22.9469 C   0  0  0  0  0  0  0  0  0  0  0  0
   11.1894   -0.0772   22.1885 C   0  0  0  0  0  0  0  0  0  0  0  0
   12.4170    0.5350   22.3428 C   0  0  0  0  0  0  0  0  0  0  0  0
   13.7636    0.0428   21.3994 Cl  0  0  0  0  0  0  0  0  0  0  0  0
   12.6454    1.5679   23.2404 C   0  0  0  0  0  0  0  0  0  0  0  0
   11.5646    2.0821   23.9066 C   0  0  0  0  0  0  0  0  0  0  0  0
   10.3205    1.4765   23.7787 C   0  0  0  0  0  0  0  0  0  0  0  0
    9.2224    2.0776   24.5594 C   0  0  0  0  0  0  0  0  0  0  0  0
    9.3003    3.2178   25.0191 O   0  0  0  0  0  0  0  0  0  0  0  0
   11.6236    2.9909   24.4878 H   0  0  0  0  0  0  0  0  0  0  0  0
   13.6424    1.9692   23.3450 H   0  0  0  0  0  0  0  0  0  0  0  0
   11.1068   -0.8584   21.4438 H   0  0  0  0  0  0  0  0  0  0  0  0
    8.3654   -0.7457   24.8050 H   0  0  0  0  0  0  0  0  0  0  0  0
    6.8978   -0.2123   23.9939 H   0  0  0  0  0  0  0  0  0  0  0  0
    7.1517    2.4002   26.8062 C   0  0  0  0  0  0  0  0  0  0  0  0
    6.2882    1.2267   26.4818 C   0  0  0  0  0  0  0  0  0  0  0  0
    6.6514    0.2296   26.7163 H   0  0  0  0  0  0  0  0  0  0  0  0
    5.2146    1.3723   26.5058 H   0  0  0  0  0  0  0  0  0  0  0  0
    8.1422    2.2310   27.2194 H   0  0  0  0  0  0  0  0  0  0  0  0
    6.6855    3.3272   27.1191 H   0  0  0  0  0  0  0  0  0  0  0  0
    7.7617    3.7657   23.9252 H   0  0  0  0  0  0  0  0  0  0  0  0
    6.1119    3.7744   21.6842 H   0  0  0  0  0  0  0  0  0  0  0  0
    5.3629    4.9533   22.8063 H   0  0  0  0  0  0  0  0  0  0  0  0
    7.0663    5.1309   22.2966 H   0  0  0  0  0  0  0  0  0  0  0  0
  1  2  1  0
  2  3  1  0
  3  4  2  0
  3  5  1  0
  5  6  1  0
  6  7  1  0
  8  7  1  1
  8  9  1  0
  9 10  2  0
  9 11  1  0
 11 12  1  0
 12 13  2  0
 13 14  1  0
 14 15  2  0
 15 16  1  0
 16 17  2  0
 17 18  1  0
 18 19  2  0
 19 20  1  0
 20 21  2  0
 20 22  1  0
 19 23  1  0
 18 24  1  0
 17 25  1  0
 15 26  1  0
 13 27  1  0
 11 28  1  0
 28 29  1  0
 29 30  1  0
 30 31  1  0
 30 32  1  0
 30 33  1  0
 29 34  1  6
 28 35  1  0
 28 36  1  0
  8 37  1  0
 37 38  2  0
 38 39  1  0
 39 40  1  0
 39 41  2  0
 41 42  1  0
 42 43  2  0
 43 44  1  0
 44 45  2  0
 42 46  1  0
 41 47  1  0
 38 48  1  0
  7 49  1  0
  7 50  1  0
  5 51  1  0
 51 52  1  0
 52 53  1  0
 52 54  1  0
 51 55  1  0
 51 56  1  0
  2 57  1  0
  1 58  1  0
  1 59  1  0
  1 60  1  0
 52  5  1  0
 44  6  1  0
 29  8  1  0
 43 37  1  0
 21 12  1  0
 21 16  1  0
M  END
>  <cnnaffinities>  (83) 
[6.08492, 5.76886]

>  <score>  (83) 
6.08492

>  <index>  (83) 
84

>  <Smiles>  (83) 
C(N(C(=O)C1(N2C([C@@]3(C(=O)N(c4c(nc(c5c(c(c(c(c45)[H])[H])[H])[H])[H])[H])C([C@@]3(C([H])([H])[H])[H])([H])[H])c3c(c(Cl)c(c(c3C2=O)[H])[H])[H])([H])[H])C(C1([H])[H])([H])[H])[H])([H])([H])[H]

>  <h>  (83) 
<NA>

>  <Training>  (83) 
True

>  <Success>  (83) 
True

>  <enamine_searched>  (83) 
False

>  <enamine_id>  (83) 
nan

$$$$

     RDKit          3D

 55 60  0  0  0  0  0  0  0  0999 V2000
    7.3169   -2.5599   23.7902 C   0  0  0  0  0  0  0  0  0  0  0  0
    7.7445   -1.8394   22.5078 C   0  0  1  0  0  0  0  0  0  0  0  0
    6.5678   -1.6442   21.5353 C   0  0  0  0  0  0  0  0  0  0  0  0
    6.9027   -0.4330   20.8230 N   0  0  0  0  0  0  0  0  0  0  0  0
    6.1265    0.0922   19.7605 C   0  0  0  0  0  0  0  0  0  0  0  0
    6.4528   -0.2178   18.4666 C   0  0  0  0  0  0  0  0  0  0  0  0
    5.7785    0.2311   17.3789 N   0  0  0  0  0  0  0  0  0  0  0  0
    4.7512    1.0171   17.5922 C   0  0  0  0  0  0  0  0  0  0  0  0
    4.2997    1.4090   18.8857 C   0  0  0  0  0  0  0  0  0  0  0  0
    3.1734    2.2552   19.0602 C   0  0  0  0  0  0  0  0  0  0  0  0
    2.7549    2.6079   20.3128 C   0  0  0  0  0  0  0  0  0  0  0  0
    3.4427    2.1304   21.4512 C   0  0  0  0  0  0  0  0  0  0  0  0
    4.5373    1.3113   21.3095 C   0  0  0  0  0  0  0  0  0  0  0  0
    4.9996    0.9330   20.0160 C   0  0  0  0  0  0  0  0  0  0  0  0
    5.0614    0.9608   22.1951 H   0  0  0  0  0  0  0  0  0  0  0  0
    3.1012    2.4227   22.4412 H   0  0  0  0  0  0  0  0  0  0  0  0
    1.9035    3.2693   20.4433 H   0  0  0  0  0  0  0  0  0  0  0  0
    2.6657    2.6241   18.1737 H   0  0  0  0  0  0  0  0  0  0  0  0
    4.2097    1.3809   16.7175 H   0  0  0  0  0  0  0  0  0  0  0  0
    7.3095   -0.8586   18.2654 H   0  0  0  0  0  0  0  0  0  0  0  0
    7.8888    0.3220   21.4099 C   0  0  0  0  0  0  0  0  0  0  0  0
    8.2664    1.3900   20.9773 O   0  0  0  0  0  0  0  0  0  0  0  0
    8.4052   -0.4290   22.6615 C   0  0  1  0  0  0  0  0  0  0  0  0
    7.9516    0.2576   23.9623 C   0  0  0  0  0  0  0  0  0  0  0  0
    8.6527    1.4972   24.2091 N   0  0  0  0  0  0  0  0  0  0  0  0
    7.8759    2.6636   24.5559 C   0  0  0  0  0  0  0  0  0  0  0  0
    7.5368    3.5366   23.3825 C   0  0  0  0  0  0  0  0  0  0  0  0
    6.3592    3.7838   22.7626 C   0  0  0  0  0  0  0  0  0  0  0  0
    6.5264    4.8406   21.9208 O   0  0  0  0  0  0  0  0  0  0  0  0
    7.8245    5.1816   22.0761 C   0  0  0  0  0  0  0  0  0  0  0  0
    8.4725    4.4526   22.9183 N   0  0  0  0  0  0  0  0  0  0  0  0
    8.1814    6.0173   21.4965 H   0  0  0  0  0  0  0  0  0  0  0  0
    5.3659    3.3788   22.8551 H   0  0  0  0  0  0  0  0  0  0  0  0
    6.9760    2.3188   25.0871 H   0  0  0  0  0  0  0  0  0  0  0  0
    8.4995    3.2488   25.2376 H   0  0  0  0  0  0  0  0  0  0  0  0
   10.0207    1.5884   24.1655 C   0  0  0  0  0  0  0  0  0  0  0  0
   10.6469    2.4920   24.6969 O   0  0  0  0  0  0  0  0  0  0  0  0
   10.6817    0.5019   23.3792 C   0  0  0  0  0  0  0  0  0  0  0  0
   12.0768    0.4870   23.3255 C   0  0  0  0  0  0  0  0  0  0  0  0
   12.7351   -0.4251   22.5202 C   0  0  0  0  0  0  0  0  0  0  0  0
   11.9571   -1.2934   21.7593 C   0  0  0  0  0  0  0  0  0  0  0  0
   12.5349   -2.2001   20.9601 F   0  0  0  0  0  0  0  0  0  0  0  0
   10.5832   -1.2851   21.7864 C   0  0  0  0  0  0  0  0  0  0  0  0
    9.9179   -0.4214   22.6512 C   0  0  0  0  0  0  0  0  0  0  0  0
   10.0577   -1.9528   21.1132 H   0  0  0  0  0  0  0  0  0  0  0  0
   13.8162   -0.4640   22.4409 H   0  0  0  0  0  0  0  0  0  0  0  0
   12.6132    1.2209   23.9190 H   0  0  0  0  0  0  0  0  0  0  0  0
    8.1170   -0.4342   24.7990 H   0  0  0  0  0  0  0  0  0  0  0  0
    6.8823    0.4800   23.8985 H   0  0  0  0  0  0  0  0  0  0  0  0
    5.6176   -1.5394   22.0814 H   0  0  0  0  0  0  0  0  0  0  0  0
    6.4581   -2.4792   20.8358 H   0  0  0  0  0  0  0  0  0  0  0  0
    8.4813   -2.4755   22.0159 H   0  0  0  0  0  0  0  0  0  0  0  0
    8.1492   -2.6936   24.4917 H   0  0  0  0  0  0  0  0  0  0  0  0
    6.9191   -3.5547   23.5589 H   0  0  0  0  0  0  0  0  0  0  0  0
    6.5251   -2.0057   24.3086 H   0  0  0  0  0  0  0  0  0  0  0  0
  1  2  1  0
  2  3  1  0
  3  4  1  0
  4  5  1  0
  5  6  2  0
  6  7  1  0
  7  8  2  0
  8  9  1  0
  9 10  2  0
 10 11  1  0
 11 12  2  0
 12 13  1  0
 13 14  2  0
 13 15  1  0
 12 16  1  0
 11 17  1  0
 10 18  1  0
  8 19  1  0
  6 20  1  0
  4 21  1  0
 21 22  2  0
 21 23  1  0
 23 24  1  1
 24 25  1  0
 25 26  1  0
 26 27  1  0
 27 28  2  0
 28 29  1  0
 29 30  1  0
 30 31  2  0
 30 32  1  0
 28 33  1  0
 26 34  1  0
 26 35  1  0
 25 36  1  0
 36 37  2  0
 36 38  1  0
 38 39  2  0
 39 40  1  0
 40 41  2  0
 41 42  1  0
 41 43  1  0
 43 44  2  0
 43 45  1  0
 40 46  1  0
 39 47  1  0
 24 48  1  0
 24 49  1  0
  3 50  1  0
  3 51  1  0
  2 52  1  6
  1 53  1  0
  1 54  1  0
  1 55  1  0
 23  2  1  0
 31 27  1  0
 44 38  1  0
 14  5  1  0
 44 23  1  0
 14  9  1  0
M  END
>  <cnnaffinities>  (84) 
[5.73365, 5.62609]

>  <score>  (84) 
5.73365

>  <index>  (84) 
85

>  <Smiles>  (84) 
C([C@]1(C(N(c2c(nc(c3c(c(c(c(c23)[H])[H])[H])[H])[H])[H])C(=O)[C@]21C(N(C(c1c(oc(n1)[H])[H])([H])[H])C(=O)c1c(c(c(F)c(c21)[H])[H])[H])([H])[H])([H])[H])[H])([H])([H])[H]

>  <h>  (84) 
<NA>

>  <Training>  (84) 
True

>  <Success>  (84) 
True

>  <enamine_searched>  (84) 
False

>  <enamine_id>  (84) 
nan

$$$$

     RDKit          3D

 65 70  0  0  0  0  0  0  0  0999 V2000
    6.4915    4.3330   21.3884 C   0  0  0  0  0  0  0  0  0  0  0  0
    7.4129    3.8818   22.4221 N   0  0  0  0  0  0  0  0  0  0  0  0
    6.9147    3.3132   23.5543 C   0  0  0  0  0  0  0  0  0  0  0  0
    5.7143    3.2328   23.7787 O   0  0  0  0  0  0  0  0  0  0  0  0
    7.9450    2.7977   24.5736 C   0  0  0  0  0  0  0  0  0  0  0  0
    8.6656    1.6280   24.0894 N   0  0  0  0  0  0  0  0  0  0  0  0
    7.9074    0.3974   23.9295 C   0  0  0  0  0  0  0  0  0  0  0  0
    8.3406   -0.4034   22.6803 C   0  0  2  0  0  0  0  0  0  0  0  0
    7.9175    0.2980   21.3691 C   0  0  0  0  0  0  0  0  0  0  0  0
    8.4139    1.2962   20.8820 O   0  0  0  0  0  0  0  0  0  0  0  0
    6.8992   -0.4281   20.7942 N   0  0  0  0  0  0  0  0  0  0  0  0
    6.1448    0.1101   19.7300 C   0  0  0  0  0  0  0  0  0  0  0  0
    6.4949   -0.1781   18.4378 C   0  0  0  0  0  0  0  0  0  0  0  0
    5.8075    0.2562   17.3555 N   0  0  0  0  0  0  0  0  0  0  0  0
    4.7584    1.0139   17.5715 C   0  0  0  0  0  0  0  0  0  0  0  0
    4.2972    1.3941   18.8654 C   0  0  0  0  0  0  0  0  0  0  0  0
    3.1685    2.2336   19.0529 C   0  0  0  0  0  0  0  0  0  0  0  0
    2.7707    2.6019   20.3095 C   0  0  0  0  0  0  0  0  0  0  0  0
    3.4803    2.1468   21.4438 C   0  0  0  0  0  0  0  0  0  0  0  0
    4.5728    1.3283   21.2886 C   0  0  0  0  0  0  0  0  0  0  0  0
    5.0096    0.9311   19.9912 C   0  0  0  0  0  0  0  0  0  0  0  0
    5.1371    1.0248   22.1660 H   0  0  0  0  0  0  0  0  0  0  0  0
    3.1896    2.4687   22.4398 H   0  0  0  0  0  0  0  0  0  0  0  0
    1.9172    3.2607   20.4405 H   0  0  0  0  0  0  0  0  0  0  0  0
    2.6536    2.5975   18.1686 H   0  0  0  0  0  0  0  0  0  0  0  0
    4.2097    1.3738   16.6997 H   0  0  0  0  0  0  0  0  0  0  0  0
    7.3663   -0.7999   18.2405 H   0  0  0  0  0  0  0  0  0  0  0  0
    6.4073   -1.5050   21.6269 C   0  0  0  0  0  0  0  0  0  0  0  0
    7.6129   -1.7692   22.5231 C   0  0  2  0  0  0  0  0  0  0  0  0
    7.3683   -2.6494   23.7524 C   0  0  0  0  0  0  0  0  0  0  0  0
    6.2074   -2.3283   24.5631 N   0  0  0  0  0  0  0  0  0  0  0  0
    4.9828   -2.8526   24.3617 C   0  0  0  0  0  0  0  0  0  0  0  0
    3.9929   -2.4134   25.1686 N   0  0  0  0  0  0  0  0  0  0  0  0
    2.8053   -2.9129   24.8783 C   0  0  0  0  0  0  0  0  0  0  0  0
    2.5151   -3.7954   23.9174 N   0  0  0  0  0  0  0  0  0  0  0  0
    3.5809   -4.1761   23.2151 C   0  0  0  0  0  0  0  0  0  0  0  0
    4.8272   -3.7524   23.3681 N   0  0  0  0  0  0  0  0  0  0  0  0
    3.4123   -4.9111   22.4268 H   0  0  0  0  0  0  0  0  0  0  0  0
    1.9727   -2.5651   25.4904 H   0  0  0  0  0  0  0  0  0  0  0  0
    6.2657   -1.6295   25.2887 H   0  0  0  0  0  0  0  0  0  0  0  0
    7.2312   -3.6790   23.4158 H   0  0  0  0  0  0  0  0  0  0  0  0
    8.2553   -2.6185   24.3938 H   0  0  0  0  0  0  0  0  0  0  0  0
    8.2962   -2.3492   21.9047 H   0  0  0  0  0  0  0  0  0  0  0  0
    5.5104   -1.1996   22.1801 H   0  0  0  0  0  0  0  0  0  0  0  0
    6.1449   -2.3843   21.0308 H   0  0  0  0  0  0  0  0  0  0  0  0
    9.8477   -0.4937   22.6613 C   0  0  0  0  0  0  0  0  0  0  0  0
   10.4514   -1.3952   21.7792 C   0  0  0  0  0  0  0  0  0  0  0  0
   11.8115   -1.3751   21.5838 C   0  0  0  0  0  0  0  0  0  0  0  0
   12.4347   -2.4050   20.3376 Cl  0  0  0  0  0  0  0  0  0  0  0  0
   12.6407   -0.5328   22.3223 C   0  0  0  0  0  0  0  0  0  0  0  0
   12.0505    0.3537   23.2091 C   0  0  0  0  0  0  0  0  0  0  0  0
   10.6569    0.4393   23.3216 C   0  0  0  0  0  0  0  0  0  0  0  0
   10.0409    1.6113   24.0631 C   0  0  0  0  0  0  0  0  0  0  0  0
   10.7209    2.4965   24.5560 O   0  0  0  0  0  0  0  0  0  0  0  0
   12.6488    1.0188   23.8217 H   0  0  0  0  0  0  0  0  0  0  0  0
   13.7144   -0.5611   22.1622 H   0  0  0  0  0  0  0  0  0  0  0  0
    9.8966   -2.1200   21.1946 H   0  0  0  0  0  0  0  0  0  0  0  0
    8.0289   -0.2293   24.8236 H   0  0  0  0  0  0  0  0  0  0  0  0
    6.8544    0.6679   23.8489 H   0  0  0  0  0  0  0  0  0  0  0  0
    8.7037    3.5526   24.8020 H   0  0  0  0  0  0  0  0  0  0  0  0
    7.3906    2.5668   25.4943 H   0  0  0  0  0  0  0  0  0  0  0  0
    8.3152    3.5394   22.1200 H   0  0  0  0  0  0  0  0  0  0  0  0
    5.7016    4.9377   21.8426 H   0  0  0  0  0  0  0  0  0  0  0  0
    6.0274    3.4863   20.8627 H   0  0  0  0  0  0  0  0  0  0  0  0
    7.0272    4.9559   20.6703 H   0  0  0  0  0  0  0  0  0  0  0  0
  1  2  1  0
  2  3  1  0
  3  4  2  0
  3  5  1  0
  5  6  1  0
  6  7  1  0
  8  7  1  1
  8  9  1  0
  9 10  2  0
  9 11  1  0
 11 12  1  0
 12 13  2  0
 13 14  1  0
 14 15  2  0
 15 16  1  0
 16 17  2  0
 17 18  1  0
 18 19  2  0
 19 20  1  0
 20 21  2  0
 20 22  1  0
 19 23  1  0
 18 24  1  0
 17 25  1  0
 15 26  1  0
 13 27  1  0
 11 28  1  0
 28 29  1  0
 29 30  1  0
 30 31  1  0
 31 32  1  0
 32 33  2  0
 33 34  1  0
 34 35  2  0
 35 36  1  0
 36 37  2  0
 36 38  1  0
 34 39  1  0
 31 40  1  0
 30 41  1  0
 30 42  1  0
 29 43  1  6
 28 44  1  0
 28 45  1  0
  8 46  1  0
 46 47  2  0
 47 48  1  0
 48 49  1  0
 48 50  2  0
 50 51  1  0
 51 52  2  0
 52 53  1  0
 53 54  2  0
 51 55  1  0
 50 56  1  0
 47 57  1  0
  7 58  1  0
  7 59  1  0
  5 60  1  0
  5 61  1  0
  2 62  1  0
  1 63  1  0
  1 64  1  0
  1 65  1  0
 53  6  1  0
 29  8  1  0
 37 32  1  0
 52 46  1  0
 21 12  1  0
 21 16  1  0
M  END
>  <cnnaffinities>  (85) 
[6.11648, 6.409]

>  <score>  (85) 
6.11648

>  <index>  (85) 
86

>  <Smiles>  (85) 
C(N(C(=O)C(N1C([C@@]2(C(=O)N(c3c(nc(c4c(c(c(c(c34)[H])[H])[H])[H])[H])[H])C([C@@]2(C(N(c2nc(nc(n2)[H])[H])[H])([H])[H])[H])([H])[H])c2c(c(Cl)c(c(c2C1=O)[H])[H])[H])([H])[H])([H])[H])[H])([H])([H])[H]

>  <h>  (85) 
<NA>

>  <Training>  (85) 
True

>  <Success>  (85) 
True

>  <enamine_searched>  (85) 
False

>  <enamine_id>  (85) 
nan

$$$$

     RDKit          3D

 63 68  0  0  0  0  0  0  0  0999 V2000
    6.5942    4.3704   21.3447 C   0  0  0  0  0  0  0  0  0  0  0  0
    7.5850    3.9900   22.3363 N   0  0  0  0  0  0  0  0  0  0  0  0
    7.1275    3.3251   23.4363 C   0  0  0  0  0  0  0  0  0  0  0  0
    5.9353    3.1268   23.6129 O   0  0  0  0  0  0  0  0  0  0  0  0
    8.1482    2.8267   24.4538 C   0  0  0  0  0  0  0  0  0  0  0  0
    8.8177    1.6314   23.9848 N   0  0  0  0  0  0  0  0  0  0  0  0
    8.0411    0.4013   23.8760 C   0  0  0  0  0  0  0  0  0  0  0  0
    8.4425   -0.3913   22.6115 C   0  0  2  0  0  0  0  0  0  0  0  0
    7.9539    0.3076   21.3201 C   0  0  0  0  0  0  0  0  0  0  0  0
    8.4310    1.2859   20.7809 O   0  0  0  0  0  0  0  0  0  0  0  0
    6.8911   -0.4106   20.8237 N   0  0  0  0  0  0  0  0  0  0  0  0
    6.1221    0.0946   19.7542 C   0  0  0  0  0  0  0  0  0  0  0  0
    6.4746   -0.2023   18.4656 C   0  0  0  0  0  0  0  0  0  0  0  0
    5.7992    0.2341   17.3759 N   0  0  0  0  0  0  0  0  0  0  0  0
    4.7603    1.0041   17.5947 C   0  0  0  0  0  0  0  0  0  0  0  0
    4.2985    1.3965   18.8835 C   0  0  0  0  0  0  0  0  0  0  0  0
    3.1805    2.2492   19.0628 C   0  0  0  0  0  0  0  0  0  0  0  0
    2.7811    2.6220   20.3149 C   0  0  0  0  0  0  0  0  0  0  0  0
    3.4794    2.1629   21.4558 C   0  0  0  0  0  0  0  0  0  0  0  0
    4.5626    1.3308   21.3119 C   0  0  0  0  0  0  0  0  0  0  0  0
    4.9979    0.9270   20.0176 C   0  0  0  0  0  0  0  0  0  0  0  0
    5.1181    1.0221   22.1941 H   0  0  0  0  0  0  0  0  0  0  0  0
    3.1751    2.4888   22.4449 H   0  0  0  0  0  0  0  0  0  0  0  0
    1.9273    3.2803   20.4379 H   0  0  0  0  0  0  0  0  0  0  0  0
    2.6706    2.6114   18.1742 H   0  0  0  0  0  0  0  0  0  0  0  0
    4.2211    1.3634   16.7193 H   0  0  0  0  0  0  0  0  0  0  0  0
    7.3452   -0.8301   18.2857 H   0  0  0  0  0  0  0  0  0  0  0  0
    6.5074   -1.5526   21.6188 C   0  0  0  0  0  0  0  0  0  0  0  0
    7.7359   -1.7693   22.5010 C   0  0  2  0  0  0  0  0  0  0  0  0
    7.3942   -2.5099   23.7929 C   0  0  0  0  0  0  0  0  0  0  0  0
    6.8362   -3.8130   23.4820 N   0  0  0  0  0  0  0  0  0  0  0  0
    5.5289   -4.1458   23.4033 C   0  0  0  0  0  0  0  0  0  0  0  0
    5.4741   -5.4567   22.9788 C   0  0  0  0  0  0  0  0  0  0  0  0
    6.8307   -5.8120   22.7978 C   0  0  0  0  0  0  0  0  0  0  0  0
    7.6464   -4.8055   23.0942 N   0  0  0  0  0  0  0  0  0  0  0  0
    7.2504   -6.7709   22.5129 H   0  0  0  0  0  0  0  0  0  0  0  0
    4.5943   -6.0756   22.8401 H   0  0  0  0  0  0  0  0  0  0  0  0
    4.7490   -3.4266   23.6427 H   0  0  0  0  0  0  0  0  0  0  0  0
    8.2890   -2.6764   24.3976 H   0  0  0  0  0  0  0  0  0  0  0  0
    6.6509   -1.9456   24.3692 H   0  0  0  0  0  0  0  0  0  0  0  0
    8.4135   -2.4303   21.9573 H   0  0  0  0  0  0  0  0  0  0  0  0
    5.6055   -1.3582   22.2243 H   0  0  0  0  0  0  0  0  0  0  0  0
    6.3076   -2.4294   20.9958 H   0  0  0  0  0  0  0  0  0  0  0  0
    9.9460   -0.4651   22.5428 C   0  0  0  0  0  0  0  0  0  0  0  0
   10.5148   -1.3506   21.6315 C   0  0  0  0  0  0  0  0  0  0  0  0
   11.8759   -1.3806   21.4624 C   0  0  0  0  0  0  0  0  0  0  0  0
   12.4530   -2.4485   20.2311 Cl  0  0  0  0  0  0  0  0  0  0  0  0
   12.7272   -0.5802   22.2208 C   0  0  0  0  0  0  0  0  0  0  0  0
   12.1701    0.3296   23.0984 C   0  0  0  0  0  0  0  0  0  0  0  0
   10.7814    0.4359   23.2086 C   0  0  0  0  0  0  0  0  0  0  0  0
   10.1912    1.6039   23.9456 C   0  0  0  0  0  0  0  0  0  0  0  0
   10.8909    2.4808   24.4305 O   0  0  0  0  0  0  0  0  0  0  0  0
   12.7940    0.9960   23.6835 H   0  0  0  0  0  0  0  0  0  0  0  0
   13.7967   -0.6559   22.0786 H   0  0  0  0  0  0  0  0  0  0  0  0
    9.9278   -2.0229   21.0174 H   0  0  0  0  0  0  0  0  0  0  0  0
    6.9742    0.6579   23.8391 H   0  0  0  0  0  0  0  0  0  0  0  0
    8.2209   -0.2304   24.7616 H   0  0  0  0  0  0  0  0  0  0  0  0
    8.9219    3.5615   24.6749 H   0  0  0  0  0  0  0  0  0  0  0  0
    7.6005    2.6204   25.3754 H   0  0  0  0  0  0  0  0  0  0  0  0
    8.5015    3.7793   21.9618 H   0  0  0  0  0  0  0  0  0  0  0  0
    5.8236    4.9791   21.8216 H   0  0  0  0  0  0  0  0  0  0  0  0
    7.0551    4.9711   20.5557 H   0  0  0  0  0  0  0  0  0  0  0  0
    6.1155    3.4802   20.9123 H   0  0  0  0  0  0  0  0  0  0  0  0
  1  2  1  0
  2  3  1  0
  3  4  2  0
  3  5  1  0
  5  6  1  0
  6  7  1  0
  8  7  1  1
  8  9  1  0
  9 10  2  0
  9 11  1  0
 11 12  1  0
 12 13  2  0
 13 14  1  0
 14 15  2  0
 15 16  1  0
 16 17  2  0
 17 18  1  0
 18 19  2  0
 19 20  1  0
 20 21  2  0
 20 22  1  0
 19 23  1  0
 18 24  1  0
 17 25  1  0
 15 26  1  0
 13 27  1  0
 11 28  1  0
 28 29  1  0
 29 30  1  0
 30 31  1  0
 31 32  1  0
 32 33  2  0
 33 34  1  0
 34 35  2  0
 34 36  1  0
 33 37  1  0
 32 38  1  0
 30 39  1  0
 30 40  1  0
 29 41  1  6
 28 42  1  0
 28 43  1  0
  8 44  1  0
 44 45  2  0
 45 46  1  0
 46 47  1  0
 46 48  2  0
 48 49  1  0
 49 50  2  0
 50 51  1  0
 51 52  2  0
 49 53  1  0
 48 54  1  0
 45 55  1  0
  7 56  1  0
  7 57  1  0
  5 58  1  0
  5 59  1  0
  2 60  1  0
  1 61  1  0
  1 62  1  0
  1 63  1  0
 51  6  1  0
 29  8  1  0
 35 31  1  0
 50 44  1  0
 21 12  1  0
 21 16  1  0
M  END
>  <cnnaffinities>  (86) 
[6.49475]

>  <score>  (86) 
6.49475

>  <index>  (86) 
87

>  <Smiles>  (86) 
C(N(C(=O)C(N1C([C@@]2(C(=O)N(c3c(nc(c4c(c(c(c(c34)[H])[H])[H])[H])[H])[H])C([C@@]2(C(n2c(c(c(n2)[H])[H])[H])([H])[H])[H])([H])[H])c2c(c(Cl)c(c(c2C1=O)[H])[H])[H])([H])[H])([H])[H])[H])([H])([H])[H]

>  <h>  (86) 
<NA>

>  <Training>  (86) 
True

>  <Success>  (86) 
True

>  <enamine_searched>  (86) 
False

>  <enamine_id>  (86) 
nan

$$$$

     RDKit          3D

 64 68  0  0  0  0  0  0  0  0999 V2000
    2.2452   -2.7897   27.5042 C   0  0  0  0  0  0  0  0  0  0  0  0
    3.3885   -3.6328   28.0900 C   0  0  0  0  0  0  0  0  0  0  0  0
    4.3636   -4.0830   27.0049 C   0  0  0  0  0  0  0  0  0  0  0  0
    5.4806   -3.5847   27.0148 O   0  0  0  0  0  0  0  0  0  0  0  0
    3.9552   -4.8932   25.9440 N   0  0  0  0  0  0  0  0  0  0  0  0
    2.8417   -5.8312   26.0498 C   0  0  0  0  0  0  0  0  0  0  0  0
    3.3147   -7.2183   25.5836 C   0  0  0  0  0  0  0  0  0  0  0  0
    3.7038   -7.1421   24.1041 C   0  0  0  0  0  0  0  0  0  0  0  0
    4.5150   -5.9003   23.7977 C   0  0  0  0  0  0  0  0  0  0  0  0
    5.1685   -5.8020   22.5651 C   0  0  0  0  0  0  0  0  0  0  0  0
    5.8072   -4.6131   22.2051 C   0  0  0  0  0  0  0  0  0  0  0  0
    5.8473   -3.5316   23.0804 C   0  0  0  0  0  0  0  0  0  0  0  0
    6.3971   -2.3238   22.6490 N   0  0  0  0  0  0  0  0  0  0  0  0
    7.2095   -1.5194   23.5572 C   0  0  0  0  0  0  0  0  0  0  0  0
    8.6669   -1.6299   23.1839 C   0  0  0  0  0  0  0  0  0  0  0  0
    9.3202   -2.8739   23.1758 C   0  0  0  0  0  0  0  0  0  0  0  0
   10.6873   -2.9614   22.8776 C   0  0  0  0  0  0  0  0  0  0  0  0
   11.4080   -1.8027   22.5677 C   0  0  0  0  0  0  0  0  0  0  0  0
   10.7782   -0.5523   22.5932 C   0  0  0  0  0  0  0  0  0  0  0  0
   11.7846    1.0382   22.2207 Br  0  0  0  0  0  0  0  0  0  0  0  0
    9.4139   -0.4737   22.8969 C   0  0  0  0  0  0  0  0  0  0  0  0
    8.9390    0.5015   22.9135 H   0  0  0  0  0  0  0  0  0  0  0  0
   12.4633   -1.8645   22.3185 H   0  0  0  0  0  0  0  0  0  0  0  0
   11.2031   -3.9178   22.8862 H   0  0  0  0  0  0  0  0  0  0  0  0
    8.7574   -3.7760   23.4018 H   0  0  0  0  0  0  0  0  0  0  0  0
    6.8940   -0.4695   23.5278 H   0  0  0  0  0  0  0  0  0  0  0  0
    7.0816   -1.8640   24.5894 H   0  0  0  0  0  0  0  0  0  0  0  0
    6.1698   -1.8805   21.3465 C   0  0  0  0  0  0  0  0  0  0  0  0
    5.4324   -2.5092   20.5867 O   0  0  0  0  0  0  0  0  0  0  0  0
    6.8520   -0.5906   20.8527 C   0  0  0  0  0  0  0  0  0  0  0  0
    6.1138    0.0672   19.6907 C   0  0  0  0  0  0  0  0  0  0  0  0
    6.4950   -0.1865   18.3603 C   0  0  0  0  0  0  0  0  0  0  0  0
    5.8489    0.3145   17.2924 N   0  0  0  0  0  0  0  0  0  0  0  0
    4.7801    1.0992   17.5226 C   0  0  0  0  0  0  0  0  0  0  0  0
    4.3154    1.4099   18.8066 C   0  0  0  0  0  0  0  0  0  0  0  0
    3.1930    2.2316   19.0001 C   0  0  0  0  0  0  0  0  0  0  0  0
    2.7698    2.5487   20.2943 C   0  0  0  0  0  0  0  0  0  0  0  0
    3.4532    2.0387   21.4009 C   0  0  0  0  0  0  0  0  0  0  0  0
    4.5579    1.2034   21.2087 C   0  0  0  0  0  0  0  0  0  0  0  0
    5.0009    0.8892   19.9160 C   0  0  0  0  0  0  0  0  0  0  0  0
    5.0823    0.8050   22.0696 H   0  0  0  0  0  0  0  0  0  0  0  0
    3.1308    2.2961   22.4061 H   0  0  0  0  0  0  0  0  0  0  0  0
    1.9167    3.2033   20.4360 H   0  0  0  0  0  0  0  0  0  0  0  0
    2.6597    2.6447   18.1484 H   0  0  0  0  0  0  0  0  0  0  0  0
    4.2529    1.5110   16.6689 H   0  0  0  0  0  0  0  0  0  0  0  0
    7.3494   -0.8373   18.1985 H   0  0  0  0  0  0  0  0  0  0  0  0
    6.8915    0.1103   21.6906 H   0  0  0  0  0  0  0  0  0  0  0  0
    7.8883   -0.8127   20.5727 H   0  0  0  0  0  0  0  0  0  0  0  0
    5.2689   -3.6468   24.3426 C   0  0  0  0  0  0  0  0  0  0  0  0
    4.5873   -4.8176   24.7004 C   0  0  0  0  0  0  0  0  0  0  0  0
    5.3118   -2.8082   25.0313 H   0  0  0  0  0  0  0  0  0  0  0  0
    6.3006   -4.5212   21.2455 H   0  0  0  0  0  0  0  0  0  0  0  0
    5.1801   -6.6539   21.8972 H   0  0  0  0  0  0  0  0  0  0  0  0
    4.2601   -8.0411   23.8223 H   0  0  0  0  0  0  0  0  0  0  0  0
    2.7905   -7.1073   23.4988 H   0  0  0  0  0  0  0  0  0  0  0  0
    2.5127   -7.9547   25.7036 H   0  0  0  0  0  0  0  0  0  0  0  0
    4.1783   -7.5616   26.1668 H   0  0  0  0  0  0  0  0  0  0  0  0
    2.4512   -5.8872   27.0691 H   0  0  0  0  0  0  0  0  0  0  0  0
    2.0271   -5.5085   25.3913 H   0  0  0  0  0  0  0  0  0  0  0  0
    2.9915   -4.5006   28.6159 H   0  0  0  0  0  0  0  0  0  0  0  0
    3.9455   -3.0356   28.8154 H   0  0  0  0  0  0  0  0  0  0  0  0
    1.6915   -3.3630   26.7536 H   0  0  0  0  0  0  0  0  0  0  0  0
    1.5513   -2.4868   28.2963 H   0  0  0  0  0  0  0  0  0  0  0  0
    2.6384   -1.8871   27.0234 H   0  0  0  0  0  0  0  0  0  0  0  0
  1  2  1  0
  2  3  1  0
  3  4  2  0
  3  5  1  0
  5  6  1  0
  6  7  1  0
  7  8  1  0
  8  9  1  0
  9 10  2  0
 10 11  1  0
 11 12  2  0
 12 13  1  0
 13 14  1  0
 14 15  1  0
 15 16  2  0
 16 17  1  0
 17 18  2  0
 18 19  1  0
 19 20  1  0
 19 21  2  0
 21 22  1  0
 18 23  1  0
 17 24  1  0
 16 25  1  0
 14 26  1  0
 14 27  1  0
 13 28  1  0
 28 29  2  0
 28 30  1  0
 30 31  1  0
 31 32  2  0
 32 33  1  0
 33 34  2  0
 34 35  1  0
 35 36  2  0
 36 37  1  0
 37 38  2  0
 38 39  1  0
 39 40  2  0
 39 41  1  0
 38 42  1  0
 37 43  1  0
 36 44  1  0
 34 45  1  0
 32 46  1  0
 30 47  1  0
 30 48  1  0
 12 49  1  0
 49 50  2  0
 49 51  1  0
 11 52  1  0
 10 53  1  0
  8 54  1  0
  8 55  1  0
  7 56  1  0
  7 57  1  0
  6 58  1  0
  6 59  1  0
  2 60  1  0
  2 61  1  0
  1 62  1  0
  1 63  1  0
  1 64  1  0
 50  5  1  0
 50  9  1  0
 21 15  1  0
 40 31  1  0
 40 35  1  0
M  END
>  <cnnaffinities>  (87) 
[6.34233]

>  <score>  (87) 
6.34233

>  <index>  (87) 
88

>  <Smiles>  (87) 
C(C(C(=O)N1C(C(C(c2c(c(c(N(C(c3c(c(c(c(Br)c3[H])[H])[H])[H])([H])[H])C(=O)C(c3c(nc(c4c(c(c(c(c34)[H])[H])[H])[H])[H])[H])([H])[H])c(c12)[H])[H])[H])([H])[H])([H])[H])([H])[H])([H])[H])([H])([H])[H]

>  <h>  (87) 
<NA>

>  <Training>  (87) 
True

>  <Success>  (87) 
True

>  <enamine_searched>  (87) 
False

>  <enamine_id>  (87) 
nan

$$$$

     RDKit          3D

 38 40  0  0  0  0  0  0  0  0999 V2000
    5.1712   -2.1195   21.1672 O   0  0  0  0  0  0  0  0  0  0  0  0
    6.2094   -1.6671   21.6150 C   0  0  0  0  0  0  0  0  0  0  0  0
    6.9234   -0.4916   20.9087 C   0  0  0  0  0  0  0  0  0  0  0  0
    6.1139    0.0850   19.7708 C   0  0  0  0  0  0  0  0  0  0  0  0
    6.4218   -0.2143   18.4700 C   0  0  0  0  0  0  0  0  0  0  0  0
    5.7588    0.2377   17.3711 N   0  0  0  0  0  0  0  0  0  0  0  0
    4.7365    1.0302   17.5786 C   0  0  0  0  0  0  0  0  0  0  0  0
    4.2860    1.4180   18.8681 C   0  0  0  0  0  0  0  0  0  0  0  0
    3.1631    2.2668   19.0457 C   0  0  0  0  0  0  0  0  0  0  0  0
    2.7483    2.6218   20.3004 C   0  0  0  0  0  0  0  0  0  0  0  0
    3.4386    2.1348   21.4325 C   0  0  0  0  0  0  0  0  0  0  0  0
    4.5289    1.3107   21.2882 C   0  0  0  0  0  0  0  0  0  0  0  0
    4.9877    0.9322   19.9993 C   0  0  0  0  0  0  0  0  0  0  0  0
    5.0424    0.9373   22.1686 H   0  0  0  0  0  0  0  0  0  0  0  0
    3.1005    2.4174   22.4250 H   0  0  0  0  0  0  0  0  0  0  0  0
    1.8917    3.2795   20.4351 H   0  0  0  0  0  0  0  0  0  0  0  0
    2.6471    2.6431   18.1648 H   0  0  0  0  0  0  0  0  0  0  0  0
    4.2015    1.3988   16.6999 H   0  0  0  0  0  0  0  0  0  0  0  0
    7.2644   -0.8669   18.2446 H   0  0  0  0  0  0  0  0  0  0  0  0
    7.8881   -0.8501   20.5171 H   0  0  0  0  0  0  0  0  0  0  0  0
    7.1652    0.2917   21.6406 H   0  0  0  0  0  0  0  0  0  0  0  0
    6.7615   -2.1743   22.7808 N   0  0  0  0  0  0  0  0  0  0  0  0
    6.0668   -3.3256   23.3766 C   0  0  0  0  0  0  0  0  0  0  0  0
    6.3290   -4.6516   22.6903 C   0  0  0  0  0  0  0  0  0  0  0  0
    7.5485   -5.1661   22.5605 C   0  0  0  0  0  0  0  0  0  0  0  0
    8.7920   -4.5162   23.1200 C   0  0  0  0  0  0  0  0  0  0  0  0
    9.0881   -3.1097   22.5770 C   0  0  0  0  0  0  0  0  0  0  0  0
    8.1680   -2.0271   23.1423 C   0  0  0  0  0  0  0  0  0  0  0  0
    8.5148   -1.0335   22.8510 H   0  0  0  0  0  0  0  0  0  0  0  0
    8.2284   -2.0667   24.2349 H   0  0  0  0  0  0  0  0  0  0  0  0
   10.1329   -2.8487   22.7999 H   0  0  0  0  0  0  0  0  0  0  0  0
    9.0050   -3.1213   21.4855 H   0  0  0  0  0  0  0  0  0  0  0  0
    9.6504   -5.1523   22.9240 H   0  0  0  0  0  0  0  0  0  0  0  0
    8.7293   -4.4664   24.2159 H   0  0  0  0  0  0  0  0  0  0  0  0
    7.6684   -6.0821   21.9820 H   0  0  0  0  0  0  0  0  0  0  0  0
    5.4764   -5.1738   22.2581 H   0  0  0  0  0  0  0  0  0  0  0  0
    6.3924   -3.3912   24.4207 H   0  0  0  0  0  0  0  0  0  0  0  0
    4.9967   -3.1147   23.3898 H   0  0  0  0  0  0  0  0  0  0  0  0
  1  2  2  0
  2  3  1  0
  3  4  1  0
  4  5  2  0
  5  6  1  0
  6  7  2  0
  7  8  1  0
  8  9  2  0
  9 10  1  0
 10 11  2  0
 11 12  1  0
 12 13  2  0
 12 14  1  0
 11 15  1  0
 10 16  1  0
  9 17  1  0
  7 18  1  0
  5 19  1  0
  3 20  1  0
  3 21  1  0
  2 22  1  0
 22 23  1  0
 23 24  1  0
 24 25  2  0
 25 26  1  0
 26 27  1  0
 27 28  1  0
 28 29  1  0
 28 30  1  0
 27 31  1  0
 27 32  1  0
 26 33  1  0
 26 34  1  0
 25 35  1  0
 24 36  1  0
 23 37  1  0
 23 38  1  0
 13  4  1  0
 28 22  1  0
 13  8  1  0
M  END
>  <cnnaffinities>  (88) 
[4.51482, 5.06481, 5.31549]

>  <score>  (88) 
4.51482

>  <index>  (88) 
89

>  <Smiles>  (88) 
O=C(C(c1c(nc(c2c(c(c(c(c12)[H])[H])[H])[H])[H])[H])([H])[H])N1C(C(=C(C(C(C1([H])[H])([H])[H])([H])[H])[H])[H])([H])[H]

>  <h>  (88) 
<NA>

>  <Training>  (88) 
True

>  <Success>  (88) 
True

>  <enamine_searched>  (88) 
False

>  <enamine_id>  (88) 
nan

$$$$

     RDKit          3D

 62 67  0  0  0  0  0  0  0  0999 V2000
    7.3653   -2.6370   23.7141 C   0  0  0  0  0  0  0  0  0  0  0  0
    7.7035   -1.7400   22.5342 C   0  0  1  0  0  0  0  0  0  0  0  0
    6.6093   -1.6261   21.4764 C   0  0  0  0  0  0  0  0  0  0  0  0
    6.9152   -0.3649   20.8274 N   0  0  0  0  0  0  0  0  0  0  0  0
    6.1409    0.1221   19.7570 C   0  0  0  0  0  0  0  0  0  0  0  0
    6.4522   -0.2304   18.4720 C   0  0  0  0  0  0  0  0  0  0  0  0
    5.7772    0.2076   17.3826 N   0  0  0  0  0  0  0  0  0  0  0  0
    4.7605    1.0103   17.5928 C   0  0  0  0  0  0  0  0  0  0  0  0
    4.3202    1.4181   18.8849 C   0  0  0  0  0  0  0  0  0  0  0  0
    3.2000    2.2695   19.0600 C   0  0  0  0  0  0  0  0  0  0  0  0
    2.7802    2.6233   20.3120 C   0  0  0  0  0  0  0  0  0  0  0  0
    3.4511    2.1345   21.4560 C   0  0  0  0  0  0  0  0  0  0  0  0
    4.5359    1.3051   21.3144 C   0  0  0  0  0  0  0  0  0  0  0  0
    5.0132    0.9507   20.0162 C   0  0  0  0  0  0  0  0  0  0  0  0
    5.0293    0.9189   22.2027 H   0  0  0  0  0  0  0  0  0  0  0  0
    3.0998    2.4122   22.4460 H   0  0  0  0  0  0  0  0  0  0  0  0
    1.9221    3.2770   20.4343 H   0  0  0  0  0  0  0  0  0  0  0  0
    2.6952    2.6324   18.1697 H   0  0  0  0  0  0  0  0  0  0  0  0
    4.2148    1.3727   16.7199 H   0  0  0  0  0  0  0  0  0  0  0  0
    7.3022   -0.8859   18.2867 H   0  0  0  0  0  0  0  0  0  0  0  0
    7.6480    0.4993   21.6019 C   0  0  0  0  0  0  0  0  0  0  0  0
    7.8509    1.6755   21.3481 O   0  0  0  0  0  0  0  0  0  0  0  0
    8.1586   -0.2740   22.8276 C   0  0  1  0  0  0  0  0  0  0  0  0
    7.5963    0.2884   24.1443 C   0  0  0  0  0  0  0  0  0  0  0  0
    8.2071    1.5487   24.5346 N   0  0  0  0  0  0  0  0  0  0  0  0
    7.3100    2.5959   24.9981 C   0  0  0  0  0  0  0  0  0  0  0  0
    6.6796    3.3488   23.8333 C   0  0  0  0  0  0  0  0  0  0  0  0
    7.7061    4.1815   23.1491 N   0  0  0  0  0  4  0  0  0  0  0  0
    7.2615    5.1761   22.0838 C   0  0  0  0  0  0  0  0  0  0  0  0
    7.8371    6.3910   22.8669 C   0  0  0  0  0  0  0  0  0  0  0  0
    8.2999    5.3742   23.9467 C   0  0  0  0  0  0  0  0  0  0  0  0
    7.7902    5.4898   24.9025 H   0  0  0  0  0  0  0  0  0  0  0  0
    9.3683    5.2415   24.0869 H   0  0  0  0  0  0  0  0  0  0  0  0
    8.6334    6.9522   22.3701 H   0  0  0  0  0  0  0  0  0  0  0  0
    7.0631    7.0779   23.2232 H   0  0  0  0  0  0  0  0  0  0  0  0
    6.1822    5.1716   21.9368 H   0  0  0  0  0  0  0  0  0  0  0  0
    7.7645    4.9294   21.1554 H   0  0  0  0  0  0  0  0  0  0  0  0
    8.4090    3.5461   22.7360 H   0  0  0  0  0  0  0  0  0  0  0  0
    5.8503    3.9789   24.1679 H   0  0  0  0  0  0  0  0  0  0  0  0
    6.3040    2.6512   23.0842 H   0  0  0  0  0  0  0  0  0  0  0  0
    7.8858    3.2484   25.6581 H   0  0  0  0  0  0  0  0  0  0  0  0
    6.5258    2.1225   25.5967 H   0  0  0  0  0  0  0  0  0  0  0  0
    9.5656    1.7333   24.5277 C   0  0  0  0  0  0  0  0  0  0  0  0
   10.1187    2.6521   25.1239 O   0  0  0  0  0  0  0  0  0  0  0  0
   10.3409    0.7644   23.6583 C   0  0  0  0  0  0  0  0  0  0  0  0
   11.7385    0.7832   23.6014 C   0  0  0  0  0  0  0  0  0  0  0  0
   12.4588   -0.0503   22.7428 C   0  0  0  0  0  0  0  0  0  0  0  0
   11.7309   -0.8877   21.8911 C   0  0  0  0  0  0  0  0  0  0  0  0
   12.4221   -2.1299   20.8908 Cl  0  0  0  0  0  0  0  0  0  0  0  0
   10.3574   -0.8396   21.8719 C   0  0  0  0  0  0  0  0  0  0  0  0
    9.6527   -0.1229   22.8358 C   0  0  0  0  0  0  0  0  0  0  0  0
    9.8273   -1.3743   21.0952 H   0  0  0  0  0  0  0  0  0  0  0  0
   13.5443   -0.0464   22.7108 H   0  0  0  0  0  0  0  0  0  0  0  0
   12.2470    1.4767   24.2613 H   0  0  0  0  0  0  0  0  0  0  0  0
    7.7494   -0.4484   24.9382 H   0  0  0  0  0  0  0  0  0  0  0  0
    6.5143    0.4177   24.0611 H   0  0  0  0  0  0  0  0  0  0  0  0
    6.6473   -2.4413   20.7512 H   0  0  0  0  0  0  0  0  0  0  0  0
    5.6036   -1.6267   21.9229 H   0  0  0  0  0  0  0  0  0  0  0  0
    8.5504   -2.2193   22.0440 H   0  0  0  0  0  0  0  0  0  0  0  0
    7.1465   -3.6459   23.3504 H   0  0  0  0  0  0  0  0  0  0  0  0
    8.2229   -2.7073   24.3914 H   0  0  0  0  0  0  0  0  0  0  0  0
    6.4990   -2.2774   24.2780 H   0  0  0  0  0  0  0  0  0  0  0  0
  1  2  1  0
  2  3  1  0
  3  4  1  0
  4  5  1  0
  5  6  2  0
  6  7  1  0
  7  8  2  0
  8  9  1  0
  9 10  2  0
 10 11  1  0
 11 12  2  0
 12 13  1  0
 13 14  2  0
 13 15  1  0
 12 16  1  0
 11 17  1  0
 10 18  1  0
  8 19  1  0
  6 20  1  0
  4 21  1  0
 21 22  2  0
 21 23  1  0
 23 24  1  1
 24 25  1  0
 25 26  1  0
 26 27  1  0
 27 28  1  0
 28 29  1  0
 29 30  1  0
 30 31  1  0
 31 32  1  0
 31 33  1  0
 30 34  1  0
 30 35  1  0
 29 36  1  0
 29 37  1  0
 28 38  1  0
 27 39  1  0
 27 40  1  0
 26 41  1  0
 26 42  1  0
 25 43  1  0
 43 44  2  0
 43 45  1  0
 45 46  2  0
 46 47  1  0
 47 48  2  0
 48 49  1  0
 48 50  1  0
 50 51  2  0
 50 52  1  0
 47 53  1  0
 46 54  1  0
 24 55  1  0
 24 56  1  0
  3 57  1  0
  3 58  1  0
  2 59  1  6
  1 60  1  0
  1 61  1  0
  1 62  1  0
 23  2  1  0
 31 28  1  0
 51 45  1  0
 14  5  1  0
 51 23  1  0
 14  9  1  0
M  CHG  1  28   1
M  END
>  <cnnaffinities>  (89) 
[5.98488]

>  <score>  (89) 
5.98488

>  <index>  (89) 
90

>  <Smiles>  (89) 
C([C@]1(C(N(c2c(nc(c3c(c(c(c(c23)[H])[H])[H])[H])[H])[H])C(=O)[C@]21C(N(C(C([N+]1(C(C(C1([H])[H])([H])[H])([H])[H])[H])([H])[H])([H])[H])C(=O)c1c(c(c(Cl)c(c21)[H])[H])[H])([H])[H])([H])[H])[H])([H])([H])[H]

>  <h>  (89) 
<NA>

>  <Training>  (89) 
True

>  <Success>  (89) 
True

>  <enamine_searched>  (89) 
False

>  <enamine_id>  (89) 
nan

$$$$

     RDKit          3D

 56 61  0  0  0  0  0  0  0  0999 V2000
    7.0623   -2.4197   23.5054 C   0  0  0  0  0  0  0  0  0  0  0  0
    7.9473   -1.8438   22.4001 C   0  0  1  0  0  0  0  0  0  0  0  0
    7.2084   -1.7747   21.0471 C   0  0  0  0  0  0  0  0  0  0  0  0
    6.8992   -0.3746   20.8770 N   0  0  0  0  0  0  0  0  0  0  0  0
    6.1287    0.1001   19.7898 C   0  0  0  0  0  0  0  0  0  0  0  0
    6.4440   -0.2358   18.4968 C   0  0  0  0  0  0  0  0  0  0  0  0
    5.7819    0.2147   17.4010 N   0  0  0  0  0  0  0  0  0  0  0  0
    4.7583    1.0104   17.6009 C   0  0  0  0  0  0  0  0  0  0  0  0
    4.2983    1.3979   18.8907 C   0  0  0  0  0  0  0  0  0  0  0  0
    3.1761    2.2498   19.0607 C   0  0  0  0  0  0  0  0  0  0  0  0
    2.7560    2.6085   20.3104 C   0  0  0  0  0  0  0  0  0  0  0  0
    3.4287    2.1224   21.4546 C   0  0  0  0  0  0  0  0  0  0  0  0
    4.5019    1.2785   21.3194 C   0  0  0  0  0  0  0  0  0  0  0  0
    4.9854    0.9241   20.0292 C   0  0  0  0  0  0  0  0  0  0  0  0
    4.9969    0.8756   22.1994 H   0  0  0  0  0  0  0  0  0  0  0  0
    3.1003    2.4304   22.4444 H   0  0  0  0  0  0  0  0  0  0  0  0
    1.8988    3.2649   20.4303 H   0  0  0  0  0  0  0  0  0  0  0  0
    2.6738    2.6247   18.1733 H   0  0  0  0  0  0  0  0  0  0  0  0
    4.2259    1.3815   16.7234 H   0  0  0  0  0  0  0  0  0  0  0  0
    7.3009   -0.8780   18.2942 H   0  0  0  0  0  0  0  0  0  0  0  0
    7.7182    0.4517   21.6218 C   0  0  0  0  0  0  0  0  0  0  0  0
    7.8180    1.6442   21.4651 O   0  0  0  0  0  0  0  0  0  0  0  0
    8.5007   -0.4029   22.6411 C   0  0  1  0  0  0  0  0  0  0  0  0
    8.3159    0.0832   24.0945 C   0  0  0  0  0  0  0  0  0  0  0  0
    8.9434    1.3643   24.3564 N   0  0  0  0  0  0  0  0  0  0  0  0
    8.1968    2.3820   25.0809 C   0  0  0  0  0  0  0  0  0  0  0  0
    7.4056    3.3186   24.1927 C   0  0  0  0  0  0  0  0  0  0  0  0
    6.0286    3.3142   23.8588 C   0  0  0  0  0  0  0  0  0  0  0  0
    5.6989    4.2974   23.0296 N   0  0  0  0  0  0  0  0  0  0  0  0
    6.8551    4.9462   22.8326 N   0  0  0  0  0  0  0  0  0  0  0  0
    7.8994    4.3958   23.4946 C   0  0  0  0  0  0  0  0  0  0  0  0
    8.8952    4.8092   23.4164 H   0  0  0  0  0  0  0  0  0  0  0  0
    6.8987    5.6813   22.1470 H   0  0  0  0  0  0  0  0  0  0  0  0
    5.2663    2.6043   24.1562 H   0  0  0  0  0  0  0  0  0  0  0  0
    8.9333    2.9310   25.6732 H   0  0  0  0  0  0  0  0  0  0  0  0
    7.5416    1.8650   25.7883 H   0  0  0  0  0  0  0  0  0  0  0  0
   10.1755    1.7048   23.8714 C   0  0  0  0  0  0  0  0  0  0  0  0
   10.7402    2.7457   24.1930 O   0  0  0  0  0  0  0  0  0  0  0  0
   10.7749    0.7380   22.9053 C   0  0  0  0  0  0  0  0  0  0  0  0
   12.1150    0.8995   22.5420 C   0  0  0  0  0  0  0  0  0  0  0  0
   12.7321   -0.0119   21.7023 C   0  0  0  0  0  0  0  0  0  0  0  0
   11.9360   -1.0409   21.2063 C   0  0  0  0  0  0  0  0  0  0  0  0
   12.4476   -1.9968   20.4112 F   0  0  0  0  0  0  0  0  0  0  0  0
   10.5869   -1.1381   21.4396 C   0  0  0  0  0  0  0  0  0  0  0  0
    9.9884   -0.2811   22.3509 C   0  0  0  0  0  0  0  0  0  0  0  0
   10.0366   -1.9063   20.9065 H   0  0  0  0  0  0  0  0  0  0  0  0
   13.7815    0.0657   21.4237 H   0  0  0  0  0  0  0  0  0  0  0  0
   12.6470    1.7607   22.9379 H   0  0  0  0  0  0  0  0  0  0  0  0
    8.7641   -0.6737   24.7475 H   0  0  0  0  0  0  0  0  0  0  0  0
    7.2575    0.1561   24.3460 H   0  0  0  0  0  0  0  0  0  0  0  0
    6.2854   -2.3615   21.0362 H   0  0  0  0  0  0  0  0  0  0  0  0
    7.8455   -2.1370   20.2302 H   0  0  0  0  0  0  0  0  0  0  0  0
    8.7861   -2.5390   22.3279 H   0  0  0  0  0  0  0  0  0  0  0  0
    7.6142   -2.5020   24.4466 H   0  0  0  0  0  0  0  0  0  0  0  0
    6.1702   -1.8100   23.6757 H   0  0  0  0  0  0  0  0  0  0  0  0
    6.7397   -3.4309   23.2359 H   0  0  0  0  0  0  0  0  0  0  0  0
  1  2  1  0
  2  3  1  0
  3  4  1  0
  4  5  1  0
  5  6  2  0
  6  7  1  0
  7  8  2  0
  8  9  1  0
  9 10  2  0
 10 11  1  0
 11 12  2  0
 12 13  1  0
 13 14  2  0
 13 15  1  0
 12 16  1  0
 11 17  1  0
 10 18  1  0
  8 19  1  0
  6 20  1  0
  4 21  1  0
 21 22  2  0
 21 23  1  0
 23 24  1  1
 24 25  1  0
 25 26  1  0
 26 27  1  0
 27 28  1  0
 28 29  2  0
 29 30  1  0
 30 31  1  0
 31 32  1  0
 30 33  1  0
 28 34  1  0
 26 35  1  0
 26 36  1  0
 25 37  1  0
 37 38  2  0
 37 39  1  0
 39 40  2  0
 40 41  1  0
 41 42  2  0
 42 43  1  0
 42 44  1  0
 44 45  2  0
 44 46  1  0
 41 47  1  0
 40 48  1  0
 24 49  1  0
 24 50  1  0
  3 51  1  0
  3 52  1  0
  2 53  1  6
  1 54  1  0
  1 55  1  0
  1 56  1  0
 23  2  1  0
 31 27  2  0
 45 39  1  0
 14  5  1  0
 45 23  1  0
 14  9  1  0
M  END
>  <cnnaffinities>  (90) 
[6.16603, 6.24927]

>  <score>  (90) 
6.16603

>  <index>  (90) 
91

>  <Smiles>  (90) 
C([C@]1(C(N(c2c(nc(c3c(c(c(c(c23)[H])[H])[H])[H])[H])[H])C(=O)[C@]21C(N(C(c1c(nn(c1[H])[H])[H])([H])[H])C(=O)c1c(c(c(F)c(c21)[H])[H])[H])([H])[H])([H])[H])[H])([H])([H])[H]

>  <h>  (90) 
<NA>

>  <Training>  (90) 
True

>  <Success>  (90) 
True

>  <enamine_searched>  (90) 
False

>  <enamine_id>  (90) 
nan

$$$$

     RDKit          3D

 47 50  0  0  0  0  0  0  0  0999 V2000
    8.2796    1.5911   20.8578 O   0  0  0  0  0  0  0  0  0  0  0  0
    7.8666    0.6561   21.5171 C   0  0  0  0  0  0  0  0  0  0  0  0
    6.9577   -0.4233   20.9135 C   0  0  0  0  0  0  0  0  0  0  0  0
    6.1153    0.0897   19.7746 C   0  0  0  0  0  0  0  0  0  0  0  0
    6.4354   -0.2057   18.4766 C   0  0  0  0  0  0  0  0  0  0  0  0
    5.7721    0.2429   17.3776 N   0  0  0  0  0  0  0  0  0  0  0  0
    4.7429    1.0257   17.5845 C   0  0  0  0  0  0  0  0  0  0  0  0
    4.2849    1.4119   18.8726 C   0  0  0  0  0  0  0  0  0  0  0  0
    3.1691    2.2667   19.0467 C   0  0  0  0  0  0  0  0  0  0  0  0
    2.7680    2.6338   20.3006 C   0  0  0  0  0  0  0  0  0  0  0  0
    3.4634    2.1652   21.4361 C   0  0  0  0  0  0  0  0  0  0  0  0
    4.5506    1.3388   21.2952 C   0  0  0  0  0  0  0  0  0  0  0  0
    4.9889    0.9361   20.0041 C   0  0  0  0  0  0  0  0  0  0  0  0
    5.0866    0.9950   22.1789 H   0  0  0  0  0  0  0  0  0  0  0  0
    3.1358    2.4644   22.4284 H   0  0  0  0  0  0  0  0  0  0  0  0
    1.9211    3.3005   20.4283 H   0  0  0  0  0  0  0  0  0  0  0  0
    2.6621    2.6337   18.1584 H   0  0  0  0  0  0  0  0  0  0  0  0
    4.2120    1.3889   16.7030 H   0  0  0  0  0  0  0  0  0  0  0  0
    7.2828   -0.8537   18.2495 H   0  0  0  0  0  0  0  0  0  0  0  0
    6.3424   -0.8555   21.7082 H   0  0  0  0  0  0  0  0  0  0  0  0
    7.6015   -1.2323   20.5419 H   0  0  0  0  0  0  0  0  0  0  0  0
    8.1881    0.5047   22.8597 N   0  0  0  0  0  0  0  0  0  0  0  0
    7.8494   -0.6384   23.6111 C   0  0  0  0  0  0  0  0  0  0  0  0
    6.8050   -0.6583   24.4572 C   0  0  0  0  0  0  0  0  0  0  0  0
    6.0475    0.5229   24.8852 C   0  0  0  0  0  0  0  0  0  0  0  0
    6.5911    1.6245   25.4399 C   0  0  0  0  0  0  0  0  0  0  0  0
    8.0122    1.7491   25.8101 C   0  0  0  0  0  0  0  0  0  0  0  0
    9.0354    1.6170   24.9650 C   0  0  0  0  0  0  0  0  0  0  0  0
    8.9711    1.6270   23.4445 C   0  0  1  0  0  0  0  0  0  0  0  0
   10.3805    1.6286   22.8738 C   0  0  0  0  0  0  0  0  0  0  0  0
   10.9297    2.7709   22.2939 C   0  0  0  0  0  0  0  0  0  0  0  0
   12.2600    2.7738   21.8755 C   0  0  0  0  0  0  0  0  0  0  0  0
   13.0455    1.6349   22.0649 C   0  0  0  0  0  0  0  0  0  0  0  0
   12.4646    0.4673   22.5512 C   0  0  0  0  0  0  0  0  0  0  0  0
   11.1401    0.4695   22.9801 C   0  0  0  0  0  0  0  0  0  0  0  0
   10.6843   -0.4073   23.4505 H   0  0  0  0  0  0  0  0  0  0  0  0
   13.0423   -0.4523   22.5628 H   0  0  0  0  0  0  0  0  0  0  0  0
   14.1126    1.6301   21.8207 H   0  0  0  0  0  0  0  0  0  0  0  0
   12.6616    3.6420   21.3550 H   0  0  0  0  0  0  0  0  0  0  0  0
   10.3109    3.6652   22.1882 H   0  0  0  0  0  0  0  0  0  0  0  0
    8.4590    2.5279   23.0927 H   0  0  0  0  0  0  0  0  0  0  0  0
   10.0505    1.5875   25.3625 H   0  0  0  0  0  0  0  0  0  0  0  0
    8.2065    1.9934   26.8592 H   0  0  0  0  0  0  0  0  0  0  0  0
    5.9540    2.4578   25.7262 H   0  0  0  0  0  0  0  0  0  0  0  0
    4.9567    0.4599   24.8319 H   0  0  0  0  0  0  0  0  0  0  0  0
    6.5181   -1.6049   24.9094 H   0  0  0  0  0  0  0  0  0  0  0  0
    8.4296   -1.5375   23.3787 H   0  0  0  0  0  0  0  0  0  0  0  0
  1  2  2  0
  2  3  1  0
  3  4  1  0
  4  5  2  0
  5  6  1  0
  6  7  2  0
  7  8  1  0
  8  9  2  0
  9 10  1  0
 10 11  2  0
 11 12  1  0
 12 13  2  0
 12 14  1  0
 11 15  1  0
 10 16  1  0
  9 17  1  0
  7 18  1  0
  5 19  1  0
  3 20  1  0
  3 21  1  0
  2 22  1  0
 22 23  1  0
 23 24  2  3
 24 25  1  0
 25 26  2  3
 26 27  1  0
 27 28  2  3
 28 29  1  0
 29 30  1  0
 30 31  2  0
 31 32  1  0
 32 33  2  0
 33 34  1  0
 34 35  2  0
 35 36  1  0
 34 37  1  0
 33 38  1  0
 32 39  1  0
 31 40  1  0
 29 41  1  1
 28 42  1  0
 27 43  1  0
 26 44  1  0
 25 45  1  0
 24 46  1  0
 23 47  1  0
 13  4  1  0
 29 22  1  0
 35 30  1  0
 13  8  1  0
M  END
>  <cnnaffinities>  (91) 
[5.48023, 5.48146]

>  <score>  (91) 
5.48023

>  <index>  (91) 
92

>  <Smiles>  (91) 
O=C(C(c1c(nc(c2c(c(c(c(c12)[H])[H])[H])[H])[H])[H])([H])[H])N1C(=C(C(=C(C(=C([C@]1(c1c(c(c(c(c1[H])[H])[H])[H])[H])[H])[H])[H])[H])[H])[H])[H]

>  <h>  (91) 
<NA>

>  <Training>  (91) 
True

>  <Success>  (91) 
True

>  <enamine_searched>  (91) 
False

>  <enamine_id>  (91) 
nan

$$$$

     RDKit          3D

 58 62  0  0  0  0  0  0  0  0999 V2000
    6.5897    4.5897   21.4521 C   0  0  0  0  0  0  0  0  0  0  0  0
    6.8121    3.6019   22.5123 N   0  0  0  0  0  4  0  0  0  0  0  0
    7.9614    3.9371   23.4061 C   0  0  0  0  0  0  0  0  0  0  0  0
    8.2118    2.8330   24.4320 C   0  0  0  0  0  0  0  0  0  0  0  0
    8.8656    1.6573   23.8745 N   0  0  0  0  0  0  0  0  0  0  0  0
    8.1473    0.3983   23.8051 C   0  0  0  0  0  0  0  0  0  0  0  0
    8.5456   -0.4287   22.5639 C   0  0  2  0  0  0  0  0  0  0  0  0
    8.0371    0.2616   21.2721 C   0  0  0  0  0  0  0  0  0  0  0  0
    8.4842    1.2629   20.7498 O   0  0  0  0  0  0  0  0  0  0  0  0
    6.9328   -0.4209   20.8175 N   0  0  0  0  0  0  0  0  0  0  0  0
    6.1415    0.1057   19.7579 C   0  0  0  0  0  0  0  0  0  0  0  0
    6.4584   -0.2081   18.4631 C   0  0  0  0  0  0  0  0  0  0  0  0
    5.7698    0.2290   17.3806 N   0  0  0  0  0  0  0  0  0  0  0  0
    4.7465    1.0175   17.5977 C   0  0  0  0  0  0  0  0  0  0  0  0
    4.3011    1.4219   18.8883 C   0  0  0  0  0  0  0  0  0  0  0  0
    3.1808    2.2788   19.0682 C   0  0  0  0  0  0  0  0  0  0  0  0
    2.7826    2.6557   20.3211 C   0  0  0  0  0  0  0  0  0  0  0  0
    3.4810    2.1843   21.4528 C   0  0  0  0  0  0  0  0  0  0  0  0
    4.5662    1.3516   21.3075 C   0  0  0  0  0  0  0  0  0  0  0  0
    5.0164    0.9509   20.0168 C   0  0  0  0  0  0  0  0  0  0  0  0
    5.0749    0.9806   22.1932 H   0  0  0  0  0  0  0  0  0  0  0  0
    3.1615    2.4848   22.4485 H   0  0  0  0  0  0  0  0  0  0  0  0
    1.9335    3.3240   20.4459 H   0  0  0  0  0  0  0  0  0  0  0  0
    2.6696    2.6427   18.1808 H   0  0  0  0  0  0  0  0  0  0  0  0
    4.2152    1.3814   16.7175 H   0  0  0  0  0  0  0  0  0  0  0  0
    7.3036   -0.8608   18.2544 H   0  0  0  0  0  0  0  0  0  0  0  0
    6.5495   -1.5527   21.6396 C   0  0  0  0  0  0  0  0  0  0  0  0
    7.7895   -1.7986   22.5272 C   0  0  2  0  0  0  0  0  0  0  0  0
    7.4253   -2.4326   23.8779 C   0  0  0  0  0  0  0  0  0  0  0  0
    6.9648   -3.4194   23.7400 H   0  0  0  0  0  0  0  0  0  0  0  0
    8.3021   -2.5626   24.5251 H   0  0  0  0  0  0  0  0  0  0  0  0
    6.7015   -1.8116   24.4231 H   0  0  0  0  0  0  0  0  0  0  0  0
    8.4409   -2.4930   21.9902 H   0  0  0  0  0  0  0  0  0  0  0  0
    6.3011   -2.4141   21.0082 H   0  0  0  0  0  0  0  0  0  0  0  0
    5.6600   -1.3298   22.2513 H   0  0  0  0  0  0  0  0  0  0  0  0
   10.0569   -0.5026   22.5336 C   0  0  0  0  0  0  0  0  0  0  0  0
   10.6909   -1.4955   21.7914 C   0  0  0  0  0  0  0  0  0  0  0  0
   12.0611   -1.5117   21.7192 C   0  0  0  0  0  0  0  0  0  0  0  0
   12.6056   -2.4701   20.9659 F   0  0  0  0  0  0  0  0  0  0  0  0
   12.8698   -0.5802   22.3586 C   0  0  0  0  0  0  0  0  0  0  0  0
   12.2482    0.4470   23.0411 C   0  0  0  0  0  0  0  0  0  0  0  0
   10.8542    0.5049   23.1040 C   0  0  0  0  0  0  0  0  0  0  0  0
   10.2239    1.7092   23.7318 C   0  0  0  0  0  0  0  0  0  0  0  0
   10.8817    2.6827   24.0802 O   0  0  0  0  0  0  0  0  0  0  0  0
   12.8105    1.2469   23.5155 H   0  0  0  0  0  0  0  0  0  0  0  0
   13.9452   -0.6632   22.2723 H   0  0  0  0  0  0  0  0  0  0  0  0
   10.1758   -2.2554   21.2166 H   0  0  0  0  0  0  0  0  0  0  0  0
    8.3393   -0.2118   24.7026 H   0  0  0  0  0  0  0  0  0  0  0  0
    7.0777    0.6243   23.7436 H   0  0  0  0  0  0  0  0  0  0  0  0
    7.2604    2.5070   24.8664 H   0  0  0  0  0  0  0  0  0  0  0  0
    8.8561    3.2172   25.2256 H   0  0  0  0  0  0  0  0  0  0  0  0
    8.8560    4.0785   22.7909 H   0  0  0  0  0  0  0  0  0  0  0  0
    7.7570    4.8800   23.9236 H   0  0  0  0  0  0  0  0  0  0  0  0
    5.9372    3.5108   23.0828 H   0  0  0  0  0  0  0  0  0  0  0  0
    7.0239    2.6826   22.0638 H   0  0  0  0  0  0  0  0  0  0  0  0
    5.7263    4.2897   20.8574 H   0  0  0  0  0  0  0  0  0  0  0  0
    7.4730    4.6463   20.8132 H   0  0  0  0  0  0  0  0  0  0  0  0
    6.4242    5.5908   21.8654 H   0  0  0  0  0  0  0  0  0  0  0  0
  1  2  1  0
  2  3  1  0
  3  4  1  0
  4  5  1  0
  5  6  1  0
  7  6  1  1
  7  8  1  0
  8  9  2  0
  8 10  1  0
 10 11  1  0
 11 12  2  0
 12 13  1  0
 13 14  2  0
 14 15  1  0
 15 16  2  0
 16 17  1  0
 17 18  2  0
 18 19  1  0
 19 20  2  0
 19 21  1  0
 18 22  1  0
 17 23  1  0
 16 24  1  0
 14 25  1  0
 12 26  1  0
 10 27  1  0
 27 28  1  0
 28 29  1  0
 29 30  1  0
 29 31  1  0
 29 32  1  0
 28 33  1  6
 27 34  1  0
 27 35  1  0
  7 36  1  0
 36 37  2  0
 37 38  1  0
 38 39  1  0
 38 40  2  0
 40 41  1  0
 41 42  2  0
 42 43  1  0
 43 44  2  0
 41 45  1  0
 40 46  1  0
 37 47  1  0
  6 48  1  0
  6 49  1  0
  4 50  1  0
  4 51  1  0
  3 52  1  0
  3 53  1  0
  2 54  1  0
  2 55  1  0
  1 56  1  0
  1 57  1  0
  1 58  1  0
 43  5  1  0
 28  7  1  0
 42 36  1  0
 20 11  1  0
 20 15  1  0
M  CHG  1   2   1
M  END
>  <cnnaffinities>  (92) 
[5.89008]

>  <score>  (92) 
5.89008

>  <index>  (92) 
93

>  <Smiles>  (92) 
C([N+](C(C(N1C([C@@]2(C(=O)N(c3c(nc(c4c(c(c(c(c34)[H])[H])[H])[H])[H])[H])C([C@@]2(C([H])([H])[H])[H])([H])[H])c2c(c(F)c(c(c2C1=O)[H])[H])[H])([H])[H])([H])[H])([H])[H])([H])[H])([H])([H])[H]

>  <h>  (92) 
<NA>

>  <Training>  (92) 
True

>  <Success>  (92) 
True

>  <enamine_searched>  (92) 
False

>  <enamine_id>  (92) 
nan

$$$$

     RDKit          3D

 65 69  0  0  0  0  0  0  0  0999 V2000
    1.5635   -8.5908   24.6172 C   0  0  0  0  0  0  0  0  0  0  0  0
    2.7567   -8.2131   23.7347 C   0  0  0  0  0  0  0  0  0  0  0  0
    2.7287   -6.7397   23.4002 C   0  0  0  0  0  0  0  0  0  0  0  0
    1.9682   -6.2120   22.6307 O   0  0  0  0  0  0  0  0  0  0  0  0
    3.7479   -5.9195   24.1153 N   0  0  2  0  0  4  0  0  0  0  0  0
    3.1398   -4.8279   25.0117 C   0  0  0  0  0  0  0  0  0  0  0  0
    4.2250   -3.8449   25.3766 C   0  0  0  0  0  0  0  0  0  0  0  0
    4.7559   -3.2134   24.0956 C   0  0  0  0  0  0  0  0  0  0  0  0
    5.4462   -4.2464   23.2444 C   0  0  0  0  0  0  0  0  0  0  0  0
    6.6147   -3.9970   22.5142 C   0  0  0  0  0  0  0  0  0  0  0  0
    7.0566   -2.6591   22.3291 N   0  0  0  0  0  0  0  0  0  0  0  0
    8.4412   -2.3647   22.7316 C   0  0  0  0  0  0  0  0  0  0  0  0
    8.7654   -3.0564   24.0392 C   0  0  0  0  0  0  0  0  0  0  0  0
    9.5985   -4.1742   24.0986 C   0  0  0  0  0  0  0  0  0  0  0  0
    9.7406   -4.8931   25.2829 C   0  0  0  0  0  0  0  0  0  0  0  0
    9.0232   -4.5301   26.4184 C   0  0  0  0  0  0  0  0  0  0  0  0
    8.1984   -3.4153   26.3490 C   0  0  0  0  0  0  0  0  0  0  0  0
    7.2334   -2.9745   27.7396 Cl  0  0  0  0  0  0  0  0  0  0  0  0
    8.0966   -2.6530   25.1922 C   0  0  0  0  0  0  0  0  0  0  0  0
    7.4827   -1.7560   25.2028 H   0  0  0  0  0  0  0  0  0  0  0  0
    9.0782   -5.1101   27.3370 H   0  0  0  0  0  0  0  0  0  0  0  0
   10.3822   -5.7717   25.3147 H   0  0  0  0  0  0  0  0  0  0  0  0
   10.0739   -4.5336   23.1867 H   0  0  0  0  0  0  0  0  0  0  0  0
    8.5388   -1.2810   22.8576 H   0  0  0  0  0  0  0  0  0  0  0  0
    9.1600   -2.6792   21.9592 H   0  0  0  0  0  0  0  0  0  0  0  0
    6.2775   -1.9244   21.4438 C   0  0  0  0  0  0  0  0  0  0  0  0
    5.1786   -2.3168   21.0993 O   0  0  0  0  0  0  0  0  0  0  0  0
    6.8823   -0.6213   20.9141 C   0  0  0  0  0  0  0  0  0  0  0  0
    6.1009   -0.0064   19.7861 C   0  0  0  0  0  0  0  0  0  0  0  0
    6.4515   -0.2639   18.4872 C   0  0  0  0  0  0  0  0  0  0  0  0
    5.8183    0.2174   17.3851 N   0  0  0  0  0  0  0  0  0  0  0  0
    4.7859    0.9983   17.5917 C   0  0  0  0  0  0  0  0  0  0  0  0
    4.3011    1.3542   18.8802 C   0  0  0  0  0  0  0  0  0  0  0  0
    3.1874    2.2142   19.0525 C   0  0  0  0  0  0  0  0  0  0  0  0
    2.7681    2.5672   20.3072 C   0  0  0  0  0  0  0  0  0  0  0  0
    3.4412    2.0666   21.4444 C   0  0  0  0  0  0  0  0  0  0  0  0
    4.5129    1.2198   21.3033 C   0  0  0  0  0  0  0  0  0  0  0  0
    4.9767    0.8443   20.0139 C   0  0  0  0  0  0  0  0  0  0  0  0
    5.0148    0.8280   22.1829 H   0  0  0  0  0  0  0  0  0  0  0  0
    3.1087    2.3604   22.4370 H   0  0  0  0  0  0  0  0  0  0  0  0
    1.9258    3.2415   20.4329 H   0  0  0  0  0  0  0  0  0  0  0  0
    2.6962    2.6037   18.1644 H   0  0  0  0  0  0  0  0  0  0  0  0
    4.2827    1.3908   16.7078 H   0  0  0  0  0  0  0  0  0  0  0  0
    7.3126   -0.8966   18.2691 H   0  0  0  0  0  0  0  0  0  0  0  0
    6.9883    0.0806   21.7505 H   0  0  0  0  0  0  0  0  0  0  0  0
    7.8954   -0.8500   20.5587 H   0  0  0  0  0  0  0  0  0  0  0  0
    7.3493   -5.0289   21.9437 C   0  0  0  0  0  0  0  0  0  0  0  0
    6.8428   -6.3202   21.9626 C   0  0  0  0  0  0  0  0  0  0  0  0
    5.6112   -6.5603   22.5620 C   0  0  0  0  0  0  0  0  0  0  0  0
    4.9591   -5.5411   23.2495 C   0  0  0  0  0  0  0  0  0  0  0  0
    5.1923   -7.5584   22.5379 H   0  0  0  0  0  0  0  0  0  0  0  0
    7.4350   -7.1259   21.5424 H   0  0  0  0  0  0  0  0  0  0  0  0
    8.3026   -4.8057   21.4670 H   0  0  0  0  0  0  0  0  0  0  0  0
    5.4210   -2.3816   24.3249 H   0  0  0  0  0  0  0  0  0  0  0  0
    3.9277   -2.7914   23.5175 H   0  0  0  0  0  0  0  0  0  0  0  0
    5.0303   -4.3509   25.9316 H   0  0  0  0  0  0  0  0  0  0  0  0
    3.8120   -3.0887   26.0562 H   0  0  0  0  0  0  0  0  0  0  0  0
    2.3363   -4.3442   24.4479 H   0  0  0  0  0  0  0  0  0  0  0  0
    2.7101   -5.3058   25.9016 H   0  0  0  0  0  0  0  0  0  0  0  0
    4.1655   -6.5895   24.7974 H   0  0  0  0  0  0  0  0  0  0  0  0
    3.6779   -8.4233   24.2901 H   0  0  0  0  0  0  0  0  0  0  0  0
    2.7876   -8.7970   22.8093 H   0  0  0  0  0  0  0  0  0  0  0  0
    0.6082   -8.5203   24.0983 H   0  0  0  0  0  0  0  0  0  0  0  0
    1.5199   -7.9190   25.4802 H   0  0  0  0  0  0  0  0  0  0  0  0
    1.6511   -9.6161   24.9825 H   0  0  0  0  0  0  0  0  0  0  0  0
  1  2  1  0
  2  3  1  0
  3  4  2  0
  3  5  1  0
  5  6  1  0
  6  7  1  0
  7  8  1  0
  8  9  1  0
  9 10  2  0
 10 11  1  0
 11 12  1  0
 12 13  1  0
 13 14  2  0
 14 15  1  0
 15 16  2  0
 16 17  1  0
 17 18  1  0
 17 19  2  0
 19 20  1  0
 16 21  1  0
 15 22  1  0
 14 23  1  0
 12 24  1  0
 12 25  1  0
 11 26  1  0
 26 27  2  0
 26 28  1  0
 28 29  1  0
 29 30  2  0
 30 31  1  0
 31 32  2  0
 32 33  1  0
 33 34  2  0
 34 35  1  0
 35 36  2  0
 36 37  1  0
 37 38  2  0
 37 39  1  0
 36 40  1  0
 35 41  1  0
 34 42  1  0
 32 43  1  0
 30 44  1  0
 28 45  1  0
 28 46  1  0
 10 47  1  0
 47 48  2  0
 48 49  1  0
 49 50  2  0
 49 51  1  0
 48 52  1  0
 47 53  1  0
  8 54  1  0
  8 55  1  0
  7 56  1  0
  7 57  1  0
  6 58  1  0
  6 59  1  0
  5 60  1  1
  2 61  1  0
  2 62  1  0
  1 63  1  0
  1 64  1  0
  1 65  1  0
 50  5  1  0
 50  9  1  0
 19 13  1  0
 38 29  1  0
 38 33  1  0
M  CHG  1   5   1
M  END
>  <cnnaffinities>  (93) 
[5.91033]

>  <score>  (93) 
5.91033

>  <index>  (93) 
94

>  <Smiles>  (93) 
C(C(C(=O)[N@@+]1(C(C(C(c2c(N(C(c3c(c(c(c(Cl)c3[H])[H])[H])[H])([H])[H])C(=O)C(c3c(nc(c4c(c(c(c(c34)[H])[H])[H])[H])[H])[H])([H])[H])c(c(c(c12)[H])[H])[H])([H])[H])([H])[H])([H])[H])[H])([H])[H])([H])([H])[H]

>  <h>  (93) 
<NA>

>  <Training>  (93) 
True

>  <Success>  (93) 
True

>  <enamine_searched>  (93) 
False

>  <enamine_id>  (93) 
nan

$$$$

     RDKit          3D

 67 71  0  0  0  0  0  0  0  0999 V2000
    7.6071   -8.4347   22.9538 C   0  0  0  0  0  0  0  0  0  0  0  0
    6.6562   -7.3583   22.7402 N   0  0  0  0  0  0  0  0  0  0  0  0
    6.8320   -6.5152   21.6856 C   0  0  0  0  0  0  0  0  0  0  0  0
    7.6572   -6.7137   20.8132 O   0  0  0  0  0  0  0  0  0  0  0  0
    5.9151   -5.2905   21.6275 C   0  0  0  0  0  0  0  0  0  0  0  0
    6.3260   -4.2433   22.5510 N   0  0  0  0  0  0  0  0  0  0  0  0
    7.5529   -3.4562   22.3866 C   0  0  0  0  0  0  0  0  0  0  0  0
    7.2657   -1.9491   22.6378 C   0  0  2  0  0  0  0  0  0  0  0  0
    6.2273   -1.4892   21.5766 C   0  0  0  0  0  0  0  0  0  0  0  0
    5.1105   -1.9222   21.4016 O   0  0  0  0  0  0  0  0  0  0  0  0
    6.7969   -0.4978   20.7972 N   0  0  0  0  0  0  0  0  0  0  0  0
    6.0967    0.0820   19.7233 C   0  0  0  0  0  0  0  0  0  0  0  0
    6.4623   -0.1760   18.4269 C   0  0  0  0  0  0  0  0  0  0  0  0
    5.7984    0.2812   17.3385 N   0  0  0  0  0  0  0  0  0  0  0  0
    4.7500    1.0406   17.5543 C   0  0  0  0  0  0  0  0  0  0  0  0
    4.2865    1.4136   18.8485 C   0  0  0  0  0  0  0  0  0  0  0  0
    3.1585    2.2580   19.0227 C   0  0  0  0  0  0  0  0  0  0  0  0
    2.7650    2.6376   20.2770 C   0  0  0  0  0  0  0  0  0  0  0  0
    3.4753    2.1907   21.4143 C   0  0  0  0  0  0  0  0  0  0  0  0
    4.5629    1.3643   21.2732 C   0  0  0  0  0  0  0  0  0  0  0  0
    4.9850    0.9431   19.9785 C   0  0  0  0  0  0  0  0  0  0  0  0
    5.1085    1.0211   22.1469 H   0  0  0  0  0  0  0  0  0  0  0  0
    3.1545    2.5061   22.4035 H   0  0  0  0  0  0  0  0  0  0  0  0
    1.9126    3.3000   20.4038 H   0  0  0  0  0  0  0  0  0  0  0  0
    2.6400    2.6144   18.1357 H   0  0  0  0  0  0  0  0  0  0  0  0
    4.2108    1.4027   16.6788 H   0  0  0  0  0  0  0  0  0  0  0  0
    7.3205   -0.8149   18.2231 H   0  0  0  0  0  0  0  0  0  0  0  0
    8.2309   -0.4505   20.9194 C   0  0  0  0  0  0  0  0  0  0  0  0
    8.4602   -0.9703   22.3424 C   0  0  2  0  0  0  0  0  0  0  0  0
    9.9163   -1.4213   22.4734 C   0  0  0  0  0  0  0  0  0  0  0  0
   10.4769   -1.5131   24.1674 S   0  0  0  0  0  0  0  0  0  0  0  0
   10.3937   -0.1806   24.7438 O   0  0  0  0  0  0  0  0  0  0  0  0
    9.8276   -2.6660   24.7707 O   0  0  0  0  0  0  0  0  0  0  0  0
   12.0925   -1.8871   24.0707 N   0  0  0  0  0  0  0  0  0  0  0  0
   13.0244   -0.8470   23.6616 C   0  0  0  0  0  0  0  0  0  0  0  0
   14.0321   -1.1572   23.9525 H   0  0  0  0  0  0  0  0  0  0  0  0
   12.7833    0.0719   24.1914 H   0  0  0  0  0  0  0  0  0  0  0  0
   13.0269   -0.6702   22.5747 H   0  0  0  0  0  0  0  0  0  0  0  0
   12.3823   -3.1918   23.5145 C   0  0  0  0  0  0  0  0  0  0  0  0
   11.6901   -3.9273   23.9235 H   0  0  0  0  0  0  0  0  0  0  0  0
   12.3103   -3.2077   22.4198 H   0  0  0  0  0  0  0  0  0  0  0  0
   13.3993   -3.4474   23.8102 H   0  0  0  0  0  0  0  0  0  0  0  0
   10.0695   -2.4015   22.0115 H   0  0  0  0  0  0  0  0  0  0  0  0
   10.5698   -0.6904   21.9822 H   0  0  0  0  0  0  0  0  0  0  0  0
    8.3206   -0.1154   23.0028 H   0  0  0  0  0  0  0  0  0  0  0  0
    8.6016    0.5721   20.7909 H   0  0  0  0  0  0  0  0  0  0  0  0
    8.7279   -1.0928   20.1762 H   0  0  0  0  0  0  0  0  0  0  0  0
    6.7111   -1.9011   24.0681 C   0  0  0  0  0  0  0  0  0  0  0  0
    6.9235   -0.8272   24.9379 C   0  0  0  0  0  0  0  0  0  0  0  0
    6.5464   -0.9407   26.2620 C   0  0  0  0  0  0  0  0  0  0  0  0
    6.7991    0.0872   27.0880 F   0  0  0  0  0  0  0  0  0  0  0  0
    5.9449   -2.0691   26.7964 C   0  0  0  0  0  0  0  0  0  0  0  0
    5.6370   -3.0932   25.9291 C   0  0  0  0  0  0  0  0  0  0  0  0
    5.9877   -2.9947   24.5854 C   0  0  0  0  0  0  0  0  0  0  0  0
    5.6288   -4.1554   23.7196 C   0  0  0  0  0  0  0  0  0  0  0  0
    4.7896   -4.9895   24.0462 O   0  0  0  0  0  0  0  0  0  0  0  0
    5.1447   -3.9984   26.2642 H   0  0  0  0  0  0  0  0  0  0  0  0
    5.7578   -2.1389   27.8579 H   0  0  0  0  0  0  0  0  0  0  0  0
    7.3914    0.0974   24.6276 H   0  0  0  0  0  0  0  0  0  0  0  0
    8.2941   -3.7677   23.1315 H   0  0  0  0  0  0  0  0  0  0  0  0
    7.9913   -3.6368   21.4084 H   0  0  0  0  0  0  0  0  0  0  0  0
    5.8884   -4.9112   20.6036 H   0  0  0  0  0  0  0  0  0  0  0  0
    4.8897   -5.5623   21.8957 H   0  0  0  0  0  0  0  0  0  0  0  0
    5.9642   -7.1505   23.4496 H   0  0  0  0  0  0  0  0  0  0  0  0
    8.5917   -8.0517   23.2354 H   0  0  0  0  0  0  0  0  0  0  0  0
    7.7355   -9.0472   22.0656 H   0  0  0  0  0  0  0  0  0  0  0  0
    7.2653   -9.1044   23.7366 H   0  0  0  0  0  0  0  0  0  0  0  0
  1  2  1  0
  2  3  1  0
  3  4  2  0
  3  5  1  0
  5  6  1  0
  6  7  1  0
  8  7  1  6
  8  9  1  0
  9 10  2  0
  9 11  1  0
 11 12  1  0
 12 13  2  0
 13 14  1  0
 14 15  2  0
 15 16  1  0
 16 17  2  0
 17 18  1  0
 18 19  2  0
 19 20  1  0
 20 21  2  0
 20 22  1  0
 19 23  1  0
 18 24  1  0
 17 25  1  0
 15 26  1  0
 13 27  1  0
 11 28  1  0
 28 29  1  0
 29 30  1  0
 30 31  1  0
 31 32  2  0
 31 33  2  0
 31 34  1  0
 34 35  1  0
 35 36  1  0
 35 37  1  0
 35 38  1  0
 34 39  1  0
 39 40  1  0
 39 41  1  0
 39 42  1  0
 30 43  1  0
 30 44  1  0
 29 45  1  1
 28 46  1  0
 28 47  1  0
  8 48  1  0
 48 49  2  0
 49 50  1  0
 50 51  1  0
 50 52  2  0
 52 53  1  0
 53 54  2  0
 54 55  1  0
 55 56  2  0
 53 57  1  0
 52 58  1  0
 49 59  1  0
  7 60  1  0
  7 61  1  0
  5 62  1  0
  5 63  1  0
  2 64  1  0
  1 65  1  0
  1 66  1  0
  1 67  1  0
 55  6  1  0
 29  8  1  0
 54 48  1  0
 21 12  1  0
 21 16  1  0
M  END
>  <cnnaffinities>  (94) 
[6.92258]

>  <score>  (94) 
6.92258

>  <index>  (94) 
95

>  <Smiles>  (94) 
C(N(C(=O)C(N1C([C@@]2(C(=O)N(c3c(nc(c4c(c(c(c(c34)[H])[H])[H])[H])[H])[H])C([C@@]2(C(S(=O)(=O)N(C([H])([H])[H])C([H])([H])[H])([H])[H])[H])([H])[H])c2c(c(F)c(c(c2C1=O)[H])[H])[H])([H])[H])([H])[H])[H])([H])([H])[H]

>  <h>  (94) 
<NA>

>  <Training>  (94) 
True

>  <Success>  (94) 
True

>  <enamine_searched>  (94) 
False

>  <enamine_id>  (94) 
nan

$$$$

     RDKit          3D

 37 39  0  0  0  0  0  0  0  0999 V2000
    8.7106    1.1922   20.6738 O   0  0  0  0  0  0  0  0  0  0  0  0
    7.9019    0.6588   21.4153 C   0  0  0  0  0  0  0  0  0  0  0  0
    6.9413   -0.4230   20.9085 C   0  0  0  0  0  0  0  0  0  0  0  0
    6.0994    0.0867   19.7683 C   0  0  0  0  0  0  0  0  0  0  0  0
    6.4255   -0.2067   18.4696 C   0  0  0  0  0  0  0  0  0  0  0  0
    5.7650    0.2439   17.3716 N   0  0  0  0  0  0  0  0  0  0  0  0
    4.7362    1.0287   17.5789 C   0  0  0  0  0  0  0  0  0  0  0  0
    4.2798    1.4161   18.8681 C   0  0  0  0  0  0  0  0  0  0  0  0
    3.1637    2.2719   19.0434 C   0  0  0  0  0  0  0  0  0  0  0  0
    2.7621    2.6412   20.2987 C   0  0  0  0  0  0  0  0  0  0  0  0
    3.4580    2.1695   21.4319 C   0  0  0  0  0  0  0  0  0  0  0  0
    4.5421    1.3392   21.2889 C   0  0  0  0  0  0  0  0  0  0  0  0
    4.9810    0.9406   19.9973 C   0  0  0  0  0  0  0  0  0  0  0  0
    5.0718    0.9883   22.1681 H   0  0  0  0  0  0  0  0  0  0  0  0
    3.1314    2.4657   22.4249 H   0  0  0  0  0  0  0  0  0  0  0  0
    1.9137    3.3070   20.4268 H   0  0  0  0  0  0  0  0  0  0  0  0
    2.6555    2.6410   18.1576 H   0  0  0  0  0  0  0  0  0  0  0  0
    4.2062    1.3939   16.6983 H   0  0  0  0  0  0  0  0  0  0  0  0
    7.2717   -0.8574   18.2464 H   0  0  0  0  0  0  0  0  0  0  0  0
    7.5645   -1.2450   20.5382 H   0  0  0  0  0  0  0  0  0  0  0  0
    6.3291   -0.8362   21.7217 H   0  0  0  0  0  0  0  0  0  0  0  0
    7.7919    0.9993   22.7325 N   0  0  0  0  0  0  0  0  0  0  0  0
    8.7164    1.9765   23.3014 C   0  0  0  0  0  0  0  0  0  0  0  0
   10.1463    1.4618   23.4548 C   0  0  0  0  0  0  0  0  0  0  0  0
   10.4081    0.4999   24.4271 C   0  0  0  0  0  0  0  0  0  0  0  0
   11.6901   -0.0154   24.5306 C   0  0  0  0  0  0  0  0  0  0  0  0
   12.7219    0.4452   23.7351 C   0  0  0  0  0  0  0  0  0  0  0  0
   12.4845    1.4859   22.8573 C   0  0  0  0  0  0  0  0  0  0  0  0
   13.9049    2.2581   22.2236 Cl  0  0  0  0  0  0  0  0  0  0  0  0
   11.1867    1.9494   22.6496 C   0  0  0  0  0  0  0  0  0  0  0  0
   10.9557    2.6588   21.8603 H   0  0  0  0  0  0  0  0  0  0  0  0
   13.7222    0.0393   23.8007 H   0  0  0  0  0  0  0  0  0  0  0  0
   11.8808   -0.7514   25.2826 H   0  0  0  0  0  0  0  0  0  0  0  0
    9.6203    0.1574   25.1026 H   0  0  0  0  0  0  0  0  0  0  0  0
    8.2966    2.2532   24.2773 H   0  0  0  0  0  0  0  0  0  0  0  0
    8.7132    2.8696   22.6666 H   0  0  0  0  0  0  0  0  0  0  0  0
    7.1777    0.4775   23.3407 H   0  0  0  0  0  0  0  0  0  0  0  0
  1  2  2  0
  2  3  1  0
  3  4  1  0
  4  5  2  0
  5  6  1  0
  6  7  2  0
  7  8  1  0
  8  9  2  0
  9 10  1  0
 10 11  2  0
 11 12  1  0
 12 13  2  0
 12 14  1  0
 11 15  1  0
 10 16  1  0
  9 17  1  0
  7 18  1  0
  5 19  1  0
  3 20  1  0
  3 21  1  0
  2 22  1  0
 22 23  1  0
 23 24  1  0
 24 25  2  0
 25 26  1  0
 26 27  2  0
 27 28  1  0
 28 29  1  0
 28 30  2  0
 30 31  1  0
 27 32  1  0
 26 33  1  0
 25 34  1  0
 23 35  1  0
 23 36  1  0
 22 37  1  0
 13  4  1  0
 30 24  1  0
 13  8  1  0
M  END
>  <cnnaffinities>  (95) 
[4.61469]

>  <score>  (95) 
4.61469

>  <index>  (95) 
96

>  <Smiles>  (95) 
O=C(C(c1c(nc(c2c(c(c(c(c12)[H])[H])[H])[H])[H])[H])([H])[H])N(C(c1c(c(c(c(Cl)c1[H])[H])[H])[H])([H])[H])[H]

>  <h>  (95) 
<NA>

>  <Training>  (95) 
True

>  <Success>  (95) 
True

>  <enamine_searched>  (95) 
False

>  <enamine_id>  (95) 
nan

$$$$
