
     RDKit          3D

 51 54  0  0  0  0  0  0  0  0999 V2000
   12.6393   -0.7645   24.7487 C   0  0  0  0  0  0  0  0  0  0  0  0
   12.3572   -1.6355   23.6889 O   0  0  0  0  0  0  0  0  0  0  0  0
   11.0405   -1.8616   23.4321 C   0  0  0  0  0  0  0  0  0  0  0  0
   10.8135   -2.8800   22.5112 C   0  0  0  0  0  0  0  0  0  0  0  0
    9.5337   -3.1558   22.0697 C   0  0  0  0  0  0  0  0  0  0  0  0
    8.4489   -2.4163   22.5397 C   0  0  0  0  0  0  0  0  0  0  0  0
    7.1364   -2.7157   22.0507 N   0  0  0  0  0  0  0  0  0  0  0  0
    6.5461   -4.0070   22.4238 C   0  0  0  0  0  0  0  0  0  0  0  0
    5.9778   -4.0110   23.8349 C   0  0  0  0  0  0  0  0  0  0  0  0
    6.8153   -4.2162   24.9322 C   0  0  0  0  0  0  0  0  0  0  0  0
    6.3148   -4.1546   26.2295 C   0  0  0  0  0  0  0  0  0  0  0  0
    4.9665   -3.8932   26.4507 C   0  0  0  0  0  0  0  0  0  0  0  0
    4.1337   -3.7077   25.3539 C   0  0  0  0  0  0  0  0  0  0  0  0
    2.4439   -3.3672   25.6151 Cl  0  0  0  0  0  0  0  0  0  0  0  0
    4.6207   -3.7663   24.0537 C   0  0  0  0  0  0  0  0  0  0  0  0
    3.9479   -3.5933   23.2185 H   0  0  0  0  0  0  0  0  0  0  0  0
    4.5621   -3.8260   27.4567 H   0  0  0  0  0  0  0  0  0  0  0  0
    6.9832   -4.2939   27.0765 H   0  0  0  0  0  0  0  0  0  0  0  0
    7.8751   -4.4025   24.7685 H   0  0  0  0  0  0  0  0  0  0  0  0
    5.7566   -4.2378   21.7016 H   0  0  0  0  0  0  0  0  0  0  0  0
    7.3304   -4.7696   22.3413 H   0  0  0  0  0  0  0  0  0  0  0  0
    6.2904   -1.7868   21.4676 C   0  0  0  0  0  0  0  0  0  0  0  0
    5.0929   -1.9911   21.3944 O   0  0  0  0  0  0  0  0  0  0  0  0
    6.9305   -0.5152   20.8845 C   0  0  0  0  0  0  0  0  0  0  0  0
    6.1166    0.0821   19.7635 C   0  0  0  0  0  0  0  0  0  0  0  0
    6.4264   -0.2147   18.4622 C   0  0  0  0  0  0  0  0  0  0  0  0
    5.7615    0.2396   17.3667 N   0  0  0  0  0  0  0  0  0  0  0  0
    4.7370    1.0293   17.5804 C   0  0  0  0  0  0  0  0  0  0  0  0
    4.2870    1.4159   18.8704 C   0  0  0  0  0  0  0  0  0  0  0  0
    3.1657    2.2662   19.0454 C   0  0  0  0  0  0  0  0  0  0  0  0
    2.7501    2.6198   20.2993 C   0  0  0  0  0  0  0  0  0  0  0  0
    3.4390    2.1330   21.4318 C   0  0  0  0  0  0  0  0  0  0  0  0
    4.5262    1.3049   21.2883 C   0  0  0  0  0  0  0  0  0  0  0  0
    4.9884    0.9273   19.9994 C   0  0  0  0  0  0  0  0  0  0  0  0
    5.0282    0.9163   22.1688 H   0  0  0  0  0  0  0  0  0  0  0  0
    3.0980    2.4136   22.4248 H   0  0  0  0  0  0  0  0  0  0  0  0
    1.8919    3.2746   20.4287 H   0  0  0  0  0  0  0  0  0  0  0  0
    2.6576    2.6348   18.1571 H   0  0  0  0  0  0  0  0  0  0  0  0
    4.2060    1.3992   16.7013 H   0  0  0  0  0  0  0  0  0  0  0  0
    7.2712   -0.8658   18.2371 H   0  0  0  0  0  0  0  0  0  0  0  0
    7.0744    0.2121   21.6961 H   0  0  0  0  0  0  0  0  0  0  0  0
    7.9385   -0.7789   20.5428 H   0  0  0  0  0  0  0  0  0  0  0  0
    8.6726   -1.4358   23.5039 C   0  0  0  0  0  0  0  0  0  0  0  0
    9.9620   -1.1601   23.9669 C   0  0  0  0  0  0  0  0  0  0  0  0
   10.0881   -0.3848   24.7177 H   0  0  0  0  0  0  0  0  0  0  0  0
    7.8213   -0.8954   23.9124 H   0  0  0  0  0  0  0  0  0  0  0  0
    9.3712   -3.9314   21.3271 H   0  0  0  0  0  0  0  0  0  0  0  0
   11.6965   -3.3980   22.1569 H   0  0  0  0  0  0  0  0  0  0  0  0
   12.3392    0.2556   24.4902 H   0  0  0  0  0  0  0  0  0  0  0  0
   13.7182   -0.7951   24.9130 H   0  0  0  0  0  0  0  0  0  0  0  0
   12.0914   -1.0908   25.6400 H   0  0  0  0  0  0  0  0  0  0  0  0
  1  2  1  0
  2  3  1  0
  3  4  2  0
  4  5  1  0
  5  6  2  0
  6  7  1  0
  7  8  1  0
  8  9  1  0
  9 10  2  0
 10 11  1  0
 11 12  2  0
 12 13  1  0
 13 14  1  0
 13 15  2  0
 15 16  1  0
 12 17  1  0
 11 18  1  0
 10 19  1  0
  8 20  1  0
  8 21  1  0
  7 22  1  0
 22 23  2  0
 22 24  1  0
 24 25  1  0
 25 26  2  0
 26 27  1  0
 27 28  2  0
 28 29  1  0
 29 30  2  0
 30 31  1  0
 31 32  2  0
 32 33  1  0
 33 34  2  0
 33 35  1  0
 32 36  1  0
 31 37  1  0
 30 38  1  0
 28 39  1  0
 26 40  1  0
 24 41  1  0
 24 42  1  0
  6 43  1  0
 43 44  2  0
 44 45  1  0
 43 46  1  0
  5 47  1  0
  4 48  1  0
  1 49  1  0
  1 50  1  0
  1 51  1  0
 44  3  1  0
 15  9  1  0
 34 25  1  0
 34 29  1  0
M  END
>  <cnnaffinities>  (1) 
[6.13775]

>  <score>  (1) 
6.13775

>  <index>  (1) 
1

>  <Smiles>  (1) 
C(Oc1c(c(c(N(C(c2c(c(c(c(Cl)c2[H])[H])[H])[H])([H])[H])C(=O)C(c2c(nc(c3c(c(c(c(c23)[H])[H])[H])[H])[H])[H])([H])[H])c(c1[H])[H])[H])[H])([H])([H])[H]

>  <h>  (1) 
<NA>

>  <Training>  (1) 
True

>  <Success>  (1) 
True

>  <enamine_searched>  (1) 
False

>  <enamine_id>  (1) 
nan

$$$$

     RDKit          3D

 67 73  0  0  0  0  0  0  0  0999 V2000
    9.3264    2.2041   24.7478 O   0  0  0  0  0  0  0  0  0  0  0  0
    8.9068    1.0615   24.5929 C   0  0  0  0  0  0  0  0  0  0  0  0
    9.7411   -0.1593   24.3400 C   0  0  0  0  0  0  0  0  0  0  0  0
   11.1167   -0.2869   24.9285 C   0  0  0  0  0  0  0  0  0  0  0  0
   11.8252   -1.3255   25.0141 C   0  0  0  0  0  0  0  0  0  0  0  0
   11.2273   -3.3476   23.8863 C   0  0  0  0  0  0  0  0  0  0  0  0
   11.8995   -1.9963   22.4160 Cl  0  0  0  0  0  0  0  0  0  0  0  0
   10.1991   -1.4686   22.3059 C   0  0  0  0  0  0  0  0  0  0  0  0
    9.3778   -0.9658   23.2670 C   0  0  0  0  0  0  0  0  0  0  0  0
    7.8740   -1.0431   22.9832 C   0  0  1  0  0  0  0  0  0  0  0  0
    7.0611   -0.4613   24.1827 C   0  0  0  0  0  0  0  0  0  0  0  0
    7.5637    0.8360   24.5414 N   0  0  0  0  0  0  0  0  0  0  0  0
    6.6318    1.9063   24.8322 C   0  0  0  0  0  0  0  0  0  0  0  0
    5.7745    1.6030   26.0406 C   0  0  0  0  0  0  0  0  0  0  0  0
    4.5107    1.0620   25.9475 C   0  0  0  0  0  0  0  0  0  0  0  0
    3.8570    0.7255   27.1307 C   0  0  0  0  0  0  0  0  0  0  0  0
    4.3793    0.9143   28.3379 N   0  0  0  0  0  0  0  0  0  0  0  0
    5.5847    1.4566   28.4361 N   0  0  0  0  0  0  0  0  0  0  0  0
    6.2550    1.7864   27.3399 C   0  0  0  0  0  0  0  0  0  0  0  0
    7.2257    2.2387   27.5172 H   0  0  0  0  0  0  0  0  0  0  0  0
    2.8695    0.2713   27.1178 H   0  0  0  0  0  0  0  0  0  0  0  0
    4.0245    0.9094   24.9821 H   0  0  0  0  0  0  0  0  0  0  0  0
    7.2351    2.8028   24.9880 H   0  0  0  0  0  0  0  0  0  0  0  0
    6.0012    2.0620   23.9437 H   0  0  0  0  0  0  0  0  0  0  0  0
    7.0558   -1.0908   25.0827 H   0  0  0  0  0  0  0  0  0  0  0  0
    6.0111   -0.3465   23.8862 H   0  0  0  0  0  0  0  0  0  0  0  0
    7.5303   -0.1741   21.7511 C   0  0  0  0  0  0  0  0  0  0  0  0
    7.8853    0.9651   21.5286 O   0  0  0  0  0  0  0  0  0  0  0  0
    6.6928   -0.8927   20.9278 N   0  0  0  0  0  0  0  0  0  0  0  0
    6.0705   -0.2069   19.8471 C   0  0  0  0  0  0  0  0  0  0  0  0
    6.5341   -0.3924   18.5697 C   0  0  0  0  0  0  0  0  0  0  0  0
    5.9930    0.1815   17.4633 N   0  0  0  0  0  0  0  0  0  0  0  0
    4.9669    0.9788   17.6362 C   0  0  0  0  0  0  0  0  0  0  0  0
    4.4183    1.3014   18.9084 C   0  0  0  0  0  0  0  0  0  0  0  0
    3.3120    2.1815   19.0393 C   0  0  0  0  0  0  0  0  0  0  0  0
    2.8570    2.5522   20.2741 C   0  0  0  0  0  0  0  0  0  0  0  0
    3.4895    2.0538   21.4343 C   0  0  0  0  0  0  0  0  0  0  0  0
    4.5343    1.1692   21.3328 C   0  0  0  0  0  0  0  0  0  0  0  0
    5.0150    0.7418   20.0600 C   0  0  0  0  0  0  0  0  0  0  0  0
    5.0062    0.7930   22.2353 H   0  0  0  0  0  0  0  0  0  0  0  0
    3.1402    2.3696   22.4143 H   0  0  0  0  0  0  0  0  0  0  0  0
    2.0179    3.2353   20.3682 H   0  0  0  0  0  0  0  0  0  0  0  0
    2.8498    2.5636   18.1340 H   0  0  0  0  0  0  0  0  0  0  0  0
    4.5280    1.4328   16.7463 H   0  0  0  0  0  0  0  0  0  0  0  0
    7.4002   -1.0305   18.4011 H   0  0  0  0  0  0  0  0  0  0  0  0
    6.2683   -2.1573   21.5330 C   0  0  0  0  0  0  0  0  0  0  0  0
    7.4252   -2.4429   22.5074 C   0  0  2  0  0  0  0  0  0  0  0  0
    7.2484   -3.5005   23.6082 C   0  0  0  0  0  0  0  0  0  0  0  0
    5.9576   -3.5241   24.2755 N   0  0  0  0  0  0  0  0  0  0  0  0
    4.8875   -4.1469   23.7063 C   0  0  0  0  0  0  0  0  0  0  0  0
    3.5747   -3.8883   24.1441 C   0  0  0  0  0  0  0  0  0  0  0  0
    2.5700   -4.5345   23.4614 C   0  0  0  0  0  0  0  0  0  0  0  0
    2.7926   -5.3950   22.4560 N   0  0  0  0  0  0  0  0  0  0  0  0
    4.0702   -5.5828   22.1582 C   0  0  0  0  0  0  0  0  0  0  0  0
    5.1309   -4.9874   22.6928 N   0  0  0  0  0  0  0  0  0  0  0  0
    4.2973   -6.3093   21.3789 H   0  0  0  0  0  0  0  0  0  0  0  0
    1.5258   -4.3681   23.7263 H   0  0  0  0  0  0  0  0  0  0  0  0
    3.3700   -3.2205   24.9777 H   0  0  0  0  0  0  0  0  0  0  0  0
    5.7513   -2.7350   24.8716 H   0  0  0  0  0  0  0  0  0  0  0  0
    8.0212   -3.3337   24.3661 H   0  0  0  0  0  0  0  0  0  0  0  0
    7.3921   -4.4963   23.1888 H   0  0  0  0  0  0  0  0  0  0  0  0
    8.2676   -2.8096   21.9102 H   0  0  0  0  0  0  0  0  0  0  0  0
    5.3166   -2.0241   22.0672 H   0  0  0  0  0  0  0  0  0  0  0  0
    6.1361   -2.9486   20.7915 H   0  0  0  0  0  0  0  0  0  0  0  0
    9.8347   -1.8536   21.3666 H   0  0  0  0  0  0  0  0  0  0  0  0
   12.6990   -1.9121   25.0991 H   0  0  0  0  0  0  0  0  0  0  0  0
   11.4572    0.7291   25.2612 H   0  0  0  0  0  0  0  0  0  0  0  0
  1  2  2  0
  2  3  1  0
  3  4  2  0
  4  5  1  0
  5  6  2  0
  6  7  1  0
  6  8  1  0
  8  9  2  0
  9 10  1  0
 10 11  1  1
 11 12  1  0
 12 13  1  0
 13 14  1  0
 14 15  2  0
 15 16  1  0
 16 17  2  0
 17 18  1  0
 18 19  2  0
 19 20  1  0
 16 21  1  0
 15 22  1  0
 13 23  1  0
 13 24  1  0
 11 25  1  0
 11 26  1  0
 10 27  1  0
 27 28  2  0
 27 29  1  0
 29 30  1  0
 30 31  2  0
 31 32  1  0
 32 33  2  0
 33 34  1  0
 34 35  2  0
 35 36  1  0
 36 37  2  0
 37 38  1  0
 38 39  2  0
 38 40  1  0
 37 41  1  0
 36 42  1  0
 35 43  1  0
 33 44  1  0
 31 45  1  0
 29 46  1  0
 46 47  1  0
 47 48  1  0
 48 49  1  0
 49 50  1  0
 50 51  2  0
 51 52  1  0
 52 53  2  0
 53 54  1  0
 54 55  2  0
 54 56  1  0
 52 57  1  0
 51 58  1  0
 49 59  1  0
 48 60  1  0
 48 61  1  0
 47 62  1  6
 46 63  1  0
 46 64  1  0
  8 65  1  0
  5 66  1  0
  4 67  1  0
 12  2  1  0
 19 14  1  0
 39 30  1  0
 55 50  1  0
  9  3  1  0
 47 10  1  0
 39 34  1  0
M  END
>  <cnnaffinities>  (2) 
[7.12158]

>  <score>  (2) 
7.12158

>  <index>  (2) 
3

>  <Smiles>  (2) 
O=C1c2c(c(c(Cl)c(c2[C@@]2(C(N1C(c1c(c(nnc1[H])[H])[H])([H])[H])([H])[H])C(=O)N(c1c(nc(c3c(c(c(c(c13)[H])[H])[H])[H])[H])[H])C([C@@]2(C(N(c1c(c(nc(n1)[H])[H])[H])[H])([H])[H])[H])([H])[H])[H])[H])[H]

>  <h>  (2) 
<NA>

>  <Training>  (2) 
True

>  <Success>  (2) 
True

>  <enamine_searched>  (2) 
False

>  <enamine_id>  (2) 
nan

$$$$

     RDKit          3D

 41 44  0  0  0  0  0  0  0  0999 V2000
    7.3420   -0.3136   24.4626 C   0  0  0  0  0  0  0  0  0  0  0  0
    7.7792   -1.4949   23.5896 C   0  0  1  0  0  0  0  0  0  0  0  0
    8.5075   -2.5236   24.4152 C   0  0  0  0  0  0  0  0  0  0  0  0
    9.8871   -2.4916   24.7845 C   0  0  0  0  0  0  0  0  0  0  0  0
   10.2134   -3.4914   25.6512 C   0  0  0  0  0  0  0  0  0  0  0  0
    8.8503   -4.4771   26.0416 S   0  0  0  0  0  0  0  0  0  0  0  0
    7.8248   -3.5226   25.0277 C   0  0  0  0  0  0  0  0  0  0  0  0
    6.3479   -3.6563   24.8564 C   0  0  0  0  0  0  0  0  0  0  0  0
    5.9155   -3.2471   23.4413 C   0  0  0  0  0  0  0  0  0  0  0  0
    6.6446   -2.0932   22.8726 N   0  0  0  0  0  0  0  0  0  0  0  0
    6.2033   -1.6617   21.6363 C   0  0  0  0  0  0  0  0  0  0  0  0
    5.2546   -2.2063   21.0971 O   0  0  0  0  0  0  0  0  0  0  0  0
    6.9222   -0.4897   20.9164 C   0  0  0  0  0  0  0  0  0  0  0  0
    6.1154    0.0832   19.7719 C   0  0  0  0  0  0  0  0  0  0  0  0
    6.4215   -0.2150   18.4677 C   0  0  0  0  0  0  0  0  0  0  0  0
    5.7604    0.2383   17.3655 N   0  0  0  0  0  0  0  0  0  0  0  0
    4.7366    1.0317   17.5755 C   0  0  0  0  0  0  0  0  0  0  0  0
    4.2870    1.4200   18.8685 C   0  0  0  0  0  0  0  0  0  0  0  0
    3.1643    2.2716   19.0453 C   0  0  0  0  0  0  0  0  0  0  0  0
    2.7496    2.6273   20.3008 C   0  0  0  0  0  0  0  0  0  0  0  0
    3.4414    2.1424   21.4320 C   0  0  0  0  0  0  0  0  0  0  0  0
    4.5302    1.3166   21.2864 C   0  0  0  0  0  0  0  0  0  0  0  0
    4.9888    0.9332   19.9980 C   0  0  0  0  0  0  0  0  0  0  0  0
    5.0412    0.9465   22.1690 H   0  0  0  0  0  0  0  0  0  0  0  0
    3.1031    2.4217   22.4240 H   0  0  0  0  0  0  0  0  0  0  0  0
    1.8925    3.2809   20.4366 H   0  0  0  0  0  0  0  0  0  0  0  0
    2.6445    2.6435   18.1650 H   0  0  0  0  0  0  0  0  0  0  0  0
    4.1993    1.4006   16.6994 H   0  0  0  0  0  0  0  0  0  0  0  0
    7.2650   -0.8670   18.2479 H   0  0  0  0  0  0  0  0  0  0  0  0
    7.8689   -0.8780   20.5149 H   0  0  0  0  0  0  0  0  0  0  0  0
    7.1950    0.3135   21.6141 H   0  0  0  0  0  0  0  0  0  0  0  0
    4.8433   -3.0250   23.4473 H   0  0  0  0  0  0  0  0  0  0  0  0
    6.0425   -4.1041   22.7725 H   0  0  0  0  0  0  0  0  0  0  0  0
    5.8459   -3.0305   25.6085 H   0  0  0  0  0  0  0  0  0  0  0  0
    6.0199   -4.6774   25.0707 H   0  0  0  0  0  0  0  0  0  0  0  0
   11.1779   -3.6975   26.0934 H   0  0  0  0  0  0  0  0  0  0  0  0
   10.5942   -1.7389   24.4453 H   0  0  0  0  0  0  0  0  0  0  0  0
    8.4997   -1.1359   22.8455 H   0  0  0  0  0  0  0  0  0  0  0  0
    6.8216    0.4513   23.8813 H   0  0  0  0  0  0  0  0  0  0  0  0
    8.2112    0.1424   24.9470 H   0  0  0  0  0  0  0  0  0  0  0  0
    6.6702   -0.6651   25.2488 H   0  0  0  0  0  0  0  0  0  0  0  0
  1  2  1  0
  2  3  1  0
  3  4  1  0
  4  5  2  0
  5  6  1  0
  6  7  1  0
  7  8  1  0
  8  9  1  0
  9 10  1  0
 10 11  1  0
 11 12  2  0
 11 13  1  0
 13 14  1  0
 14 15  2  0
 15 16  1  0
 16 17  2  0
 17 18  1  0
 18 19  2  0
 19 20  1  0
 20 21  2  0
 21 22  1  0
 22 23  2  0
 22 24  1  0
 21 25  1  0
 20 26  1  0
 19 27  1  0
 17 28  1  0
 15 29  1  0
 13 30  1  0
 13 31  1  0
  9 32  1  0
  9 33  1  0
  8 34  1  0
  8 35  1  0
  5 36  1  0
  4 37  1  0
  2 38  1  6
  1 39  1  0
  1 40  1  0
  1 41  1  0
 10  2  1  0
 23 14  1  0
  7  3  2  0
 23 18  1  0
M  END
>  <cnnaffinities>  (3) 
[5.48389, 5.3755, 5.44272]

>  <score>  (3) 
5.48389

>  <index>  (3) 
4

>  <Smiles>  (3) 
C([C@]1(c2c(c(sc2C(C(N1C(=O)C(c1c(nc(c2c(c(c(c(c12)[H])[H])[H])[H])[H])[H])([H])[H])([H])[H])([H])[H])[H])[H])[H])([H])([H])[H]

>  <h>  (3) 
<NA>

>  <Training>  (3) 
True

>  <Success>  (3) 
True

>  <enamine_searched>  (3) 
False

>  <enamine_id>  (3) 
nan

$$$$

     RDKit          3D

 50 54  0  0  0  0  0  0  0  0999 V2000
    9.7193   -2.0262   21.9000 C   0  0  0  0  0  0  0  0  0  0  0  0
    8.6379   -1.0077   22.3313 C   0  0  1  0  0  0  0  0  0  0  0  0
    8.1970   -0.0951   21.1523 C   0  0  0  0  0  0  0  0  0  0  0  0
    6.8507   -0.5177   20.8351 N   0  0  0  0  0  0  0  0  0  0  0  0
    6.0949    0.0453   19.7732 C   0  0  0  0  0  0  0  0  0  0  0  0
    6.4402   -0.2243   18.4730 C   0  0  0  0  0  0  0  0  0  0  0  0
    5.7830    0.2473   17.3865 N   0  0  0  0  0  0  0  0  0  0  0  0
    4.7492    1.0258   17.5972 C   0  0  0  0  0  0  0  0  0  0  0  0
    4.2956    1.4145   18.8891 C   0  0  0  0  0  0  0  0  0  0  0  0
    3.1771    2.2742   19.0595 C   0  0  0  0  0  0  0  0  0  0  0  0
    2.7799    2.6566   20.3104 C   0  0  0  0  0  0  0  0  0  0  0  0
    3.4910    2.2039   21.4456 C   0  0  0  0  0  0  0  0  0  0  0  0
    4.5743    1.3722   21.3100 C   0  0  0  0  0  0  0  0  0  0  0  0
    4.9927    0.9314   20.0198 C   0  0  0  0  0  0  0  0  0  0  0  0
    5.1046    1.0219   22.1962 H   0  0  0  0  0  0  0  0  0  0  0  0
    3.1652    2.5078   22.4374 H   0  0  0  0  0  0  0  0  0  0  0  0
    1.9252    3.3185   20.4376 H   0  0  0  0  0  0  0  0  0  0  0  0
    2.6623    2.6307   18.1709 H   0  0  0  0  0  0  0  0  0  0  0  0
    4.2200    1.3856   16.7162 H   0  0  0  0  0  0  0  0  0  0  0  0
    7.2892   -0.8724   18.2579 H   0  0  0  0  0  0  0  0  0  0  0  0
    6.2978   -1.3854   21.7485 C   0  0  0  0  0  0  0  0  0  0  0  0
    5.1835   -1.8514   21.6573 O   0  0  0  0  0  0  0  0  0  0  0  0
    7.3226   -1.6242   22.8853 C   0  0  1  0  0  0  0  0  0  0  0  0
    7.4709   -3.1290   23.1792 C   0  0  0  0  0  0  0  0  0  0  0  0
    6.2877   -3.6751   23.7949 N   0  0  0  0  0  0  0  0  0  0  0  0
    5.7554   -4.9518   23.3714 C   0  0  0  0  0  0  0  0  0  0  0  0
    4.4381   -4.8293   22.7174 C   0  0  0  0  0  0  0  0  0  0  0  0
    3.3961   -4.7528   22.2214 N   0  0  0  0  0  0  0  0  0  0  0  0
    6.4564   -5.4120   22.6692 H   0  0  0  0  0  0  0  0  0  0  0  0
    5.6504   -5.6197   24.2314 H   0  0  0  0  0  0  0  0  0  0  0  0
    5.7101   -3.0759   24.8796 C   0  0  0  0  0  0  0  0  0  0  0  0
    4.9181   -3.6831   25.5844 O   0  0  0  0  0  0  0  0  0  0  0  0
    6.0779   -1.6372   25.0919 C   0  0  0  0  0  0  0  0  0  0  0  0
    5.5805   -0.9933   26.2214 C   0  0  0  0  0  0  0  0  0  0  0  0
    5.8031    0.3518   26.4283 C   0  0  0  0  0  0  0  0  0  0  0  0
    6.5221    1.0450   25.4659 C   0  0  0  0  0  0  0  0  0  0  0  0
    6.7242    2.3607   25.6491 F   0  0  0  0  0  0  0  0  0  0  0  0
    7.0316    0.4411   24.3354 C   0  0  0  0  0  0  0  0  0  0  0  0
    6.8351   -0.9347   24.1484 C   0  0  0  0  0  0  0  0  0  0  0  0
    7.5606    1.0671   23.6222 H   0  0  0  0  0  0  0  0  0  0  0  0
    5.4312    0.8844   27.2955 H   0  0  0  0  0  0  0  0  0  0  0  0
    5.0016   -1.5805   26.9206 H   0  0  0  0  0  0  0  0  0  0  0  0
    8.3550   -3.2838   23.8215 H   0  0  0  0  0  0  0  0  0  0  0  0
    7.6226   -3.6558   22.2394 H   0  0  0  0  0  0  0  0  0  0  0  0
    8.2149    0.9828   21.3936 H   0  0  0  0  0  0  0  0  0  0  0  0
    8.8530   -0.2330   20.2927 H   0  0  0  0  0  0  0  0  0  0  0  0
    9.1075   -0.4123   23.1237 H   0  0  0  0  0  0  0  0  0  0  0  0
   10.6440   -1.4999   21.6558 H   0  0  0  0  0  0  0  0  0  0  0  0
    9.3863   -2.6268   21.0382 H   0  0  0  0  0  0  0  0  0  0  0  0
    9.9893   -2.7145   22.7146 H   0  0  0  0  0  0  0  0  0  0  0  0
  1  2  1  0
  2  3  1  0
  3  4  1  0
  4  5  1  0
  5  6  2  0
  6  7  1  0
  7  8  2  0
  8  9  1  0
  9 10  2  0
 10 11  1  0
 11 12  2  0
 12 13  1  0
 13 14  2  0
 13 15  1  0
 12 16  1  0
 11 17  1  0
 10 18  1  0
  8 19  1  0
  6 20  1  0
  4 21  1  0
 21 22  2  0
 21 23  1  0
 23 24  1  1
 24 25  1  0
 25 26  1  0
 26 27  1  0
 27 28  3  0
 26 29  1  0
 26 30  1  0
 25 31  1  0
 31 32  2  0
 31 33  1  0
 33 34  2  0
 34 35  1  0
 35 36  2  0
 36 37  1  0
 36 38  1  0
 38 39  2  0
 38 40  1  0
 35 41  1  0
 34 42  1  0
 24 43  1  0
 24 44  1  0
  3 45  1  0
  3 46  1  0
  2 47  1  1
  1 48  1  0
  1 49  1  0
  1 50  1  0
 23  2  1  0
 39 33  1  0
 14  5  1  0
 39 23  1  0
 14  9  1  0
M  END
>  <cnnaffinities>  (4) 
[5.83183, 5.92965]

>  <score>  (4) 
5.83183

>  <index>  (4) 
5

>  <Smiles>  (4) 
C([C@]1(C(N(c2c(nc(c3c(c(c(c(c23)[H])[H])[H])[H])[H])[H])C(=O)[C@]21C(N(C(C#N)([H])[H])C(=O)c1c(c(c(F)c(c21)[H])[H])[H])([H])[H])([H])[H])[H])([H])([H])[H]

>  <h>  (4) 
<NA>

>  <Training>  (4) 
True

>  <Success>  (4) 
True

>  <enamine_searched>  (4) 
False

>  <enamine_id>  (4) 
nan

$$$$

     RDKit          3D

 65 69  0  0  0  0  0  0  0  0999 V2000
    7.9517   -6.1405   26.8856 C   0  0  0  0  0  0  0  0  0  0  0  0
    9.0984   -5.6387   26.0110 C   0  0  0  0  0  0  0  0  0  0  0  0
    8.5892   -4.7496   24.9244 C   0  0  0  0  0  0  0  0  0  0  0  0
    7.7370   -5.0378   24.1219 O   0  0  0  0  0  0  0  0  0  0  0  0
    9.3238   -3.5094   24.8001 N   0  0  1  0  0  4  0  0  0  0  0  0
   10.4675   -3.6477   23.7528 C   0  0  0  0  0  0  0  0  0  0  0  0
   11.0408   -2.2751   23.6158 C   0  0  0  0  0  0  0  0  0  0  0  0
    9.9706   -1.3160   23.1226 C   0  0  0  0  0  0  0  0  0  0  0  0
    8.6583   -1.3169   23.8605 C   0  0  0  0  0  0  0  0  0  0  0  0
    7.6793   -0.3140   23.7381 C   0  0  0  0  0  0  0  0  0  0  0  0
    7.8751    0.7726   22.8330 N   0  0  0  0  0  0  0  0  0  0  0  0
    8.2114    2.0741   23.4044 C   0  0  0  0  0  0  0  0  0  0  0  0
    7.0673    3.0590   23.3546 C   0  0  0  0  0  0  0  0  0  0  0  0
    6.2180    3.2371   24.4436 C   0  0  0  0  0  0  0  0  0  0  0  0
    5.1420    4.1136   24.3483 C   0  0  0  0  0  0  0  0  0  0  0  0
    4.9110    4.8169   23.1722 C   0  0  0  0  0  0  0  0  0  0  0  0
    5.7713    4.6328   22.0930 C   0  0  0  0  0  0  0  0  0  0  0  0
    5.4580    5.4792   20.6007 Cl  0  0  0  0  0  0  0  0  0  0  0  0
    6.8494    3.7687   22.1728 C   0  0  0  0  0  0  0  0  0  0  0  0
    7.5089    3.6187   21.3219 H   0  0  0  0  0  0  0  0  0  0  0  0
    4.0587    5.4798   23.0672 H   0  0  0  0  0  0  0  0  0  0  0  0
    4.4761    4.2386   25.1965 H   0  0  0  0  0  0  0  0  0  0  0  0
    6.4068    2.6929   25.3681 H   0  0  0  0  0  0  0  0  0  0  0  0
    8.5488    1.8976   24.4291 H   0  0  0  0  0  0  0  0  0  0  0  0
    9.0314    2.4846   22.8147 H   0  0  0  0  0  0  0  0  0  0  0  0
    7.7793    0.6861   21.4609 C   0  0  0  0  0  0  0  0  0  0  0  0
    8.3175    1.4955   20.7200 O   0  0  0  0  0  0  0  0  0  0  0  0
    6.9330   -0.4453   20.8867 C   0  0  0  0  0  0  0  0  0  0  0  0
    6.0933    0.0611   19.7526 C   0  0  0  0  0  0  0  0  0  0  0  0
    6.4293   -0.2125   18.4538 C   0  0  0  0  0  0  0  0  0  0  0  0
    5.7759    0.2509   17.3553 N   0  0  0  0  0  0  0  0  0  0  0  0
    4.7488    1.0368   17.5758 C   0  0  0  0  0  0  0  0  0  0  0  0
    4.2953    1.4221   18.8678 C   0  0  0  0  0  0  0  0  0  0  0  0
    3.1788    2.2763   19.0458 C   0  0  0  0  0  0  0  0  0  0  0  0
    2.7693    2.6379   20.2994 C   0  0  0  0  0  0  0  0  0  0  0  0
    3.4570    2.1478   21.4360 C   0  0  0  0  0  0  0  0  0  0  0  0
    4.5443    1.3216   21.2888 C   0  0  0  0  0  0  0  0  0  0  0  0
    4.9922    0.9340   19.9972 C   0  0  0  0  0  0  0  0  0  0  0  0
    5.0740    0.9721   22.1732 H   0  0  0  0  0  0  0  0  0  0  0  0
    3.1088    2.4174   22.4301 H   0  0  0  0  0  0  0  0  0  0  0  0
    1.9165    3.3001   20.4231 H   0  0  0  0  0  0  0  0  0  0  0  0
    2.6621    2.6388   18.1598 H   0  0  0  0  0  0  0  0  0  0  0  0
    4.2146    1.4112   16.7024 H   0  0  0  0  0  0  0  0  0  0  0  0
    7.2853   -0.8545   18.2503 H   0  0  0  0  0  0  0  0  0  0  0  0
    7.6207   -1.2247   20.5342 H   0  0  0  0  0  0  0  0  0  0  0  0
    6.3328   -0.8709   21.6942 H   0  0  0  0  0  0  0  0  0  0  0  0
    6.5530   -0.3086   24.5510 C   0  0  0  0  0  0  0  0  0  0  0  0
    6.3246   -1.3435   25.4528 C   0  0  0  0  0  0  0  0  0  0  0  0
    7.2400   -2.3800   25.5260 C   0  0  0  0  0  0  0  0  0  0  0  0
    8.3781   -2.3546   24.7149 C   0  0  0  0  0  0  0  0  0  0  0  0
    7.0773   -3.2116   26.2046 H   0  0  0  0  0  0  0  0  0  0  0  0
    5.4238   -1.3601   26.0598 H   0  0  0  0  0  0  0  0  0  0  0  0
    5.8470    0.5080   24.4430 H   0  0  0  0  0  0  0  0  0  0  0  0
    9.7884   -1.5028   22.0604 H   0  0  0  0  0  0  0  0  0  0  0  0
   10.3938   -0.3369   23.2206 H   0  0  0  0  0  0  0  0  0  0  0  0
   11.8843   -2.2783   22.9163 H   0  0  0  0  0  0  0  0  0  0  0  0
   11.4265   -1.9484   24.5903 H   0  0  0  0  0  0  0  0  0  0  0  0
   11.2065   -4.3771   24.1048 H   0  0  0  0  0  0  0  0  0  0  0  0
   10.0398   -4.0291   22.8241 H   0  0  0  0  0  0  0  0  0  0  0  0
    9.8642   -3.3638   25.6916 H   0  0  0  0  0  0  0  0  0  0  0  0
    9.6278   -6.3898   25.4366 H   0  0  0  0  0  0  0  0  0  0  0  0
    9.8830   -5.1133   26.5808 H   0  0  0  0  0  0  0  0  0  0  0  0
    7.5927   -5.2973   27.4914 H   0  0  0  0  0  0  0  0  0  0  0  0
    7.1282   -6.4871   26.2494 H   0  0  0  0  0  0  0  0  0  0  0  0
    8.2730   -6.9452   27.5540 H   0  0  0  0  0  0  0  0  0  0  0  0
  1  2  1  0
  2  3  1  0
  3  4  2  0
  3  5  1  0
  5  6  1  0
  6  7  1  0
  7  8  1  0
  8  9  1  0
  9 10  2  0
 10 11  1  0
 11 12  1  0
 12 13  1  0
 13 14  2  0
 14 15  1  0
 15 16  2  0
 16 17  1  0
 17 18  1  0
 17 19  2  0
 19 20  1  0
 16 21  1  0
 15 22  1  0
 14 23  1  0
 12 24  1  0
 12 25  1  0
 11 26  1  0
 26 27  2  0
 26 28  1  0
 28 29  1  0
 29 30  2  0
 30 31  1  0
 31 32  2  0
 32 33  1  0
 33 34  2  0
 34 35  1  0
 35 36  2  0
 36 37  1  0
 37 38  2  0
 37 39  1  0
 36 40  1  0
 35 41  1  0
 34 42  1  0
 32 43  1  0
 30 44  1  0
 28 45  1  0
 28 46  1  0
 10 47  1  0
 47 48  2  0
 48 49  1  0
 49 50  2  0
 49 51  1  0
 48 52  1  0
 47 53  1  0
  8 54  1  0
  8 55  1  0
  7 56  1  0
  7 57  1  0
  6 58  1  0
  6 59  1  0
  5 60  1  1
  2 61  1  0
  2 62  1  0
  1 63  1  0
  1 64  1  0
  1 65  1  0
 50  5  1  0
 50  9  1  0
 19 13  1  0
 38 29  1  0
 38 33  1  0
M  CHG  1   5   1
M  END
>  <cnnaffinities>  (5) 
[6.67408]

>  <score>  (5) 
6.67408

>  <index>  (5) 
6

>  <Smiles>  (5) 
C(C(C(=O)[N@+]1(C(C(C(c2c(N(C(c3c(c(c(c(Cl)c3[H])[H])[H])[H])([H])[H])C(=O)C(c3c(nc(c4c(c(c(c(c34)[H])[H])[H])[H])[H])[H])([H])[H])c(c(c(c12)[H])[H])[H])([H])[H])([H])[H])([H])[H])[H])([H])[H])([H])([H])[H]

>  <h>  (5) 
<NA>

>  <Training>  (5) 
True

>  <Success>  (5) 
True

>  <enamine_searched>  (5) 
False

>  <enamine_id>  (5) 
nan

$$$$

     RDKit          3D

 37 39  0  0  0  0  0  0  0  0999 V2000
    5.0834   -2.0911   21.2080 O   0  0  0  0  0  0  0  0  0  0  0  0
    6.2341   -1.7823   21.4851 C   0  0  0  0  0  0  0  0  0  0  0  0
    6.8989   -0.5371   20.9008 C   0  0  0  0  0  0  0  0  0  0  0  0
    6.1148    0.0569   19.7715 C   0  0  0  0  0  0  0  0  0  0  0  0
    6.4400   -0.2317   18.4725 C   0  0  0  0  0  0  0  0  0  0  0  0
    5.7848    0.2264   17.3727 N   0  0  0  0  0  0  0  0  0  0  0  0
    4.7581    1.0142   17.5855 C   0  0  0  0  0  0  0  0  0  0  0  0
    4.2997    1.3890   18.8770 C   0  0  0  0  0  0  0  0  0  0  0  0
    3.1826    2.2470   19.0465 C   0  0  0  0  0  0  0  0  0  0  0  0
    2.7664    2.6063   20.2991 C   0  0  0  0  0  0  0  0  0  0  0  0
    3.4503    2.1198   21.4379 C   0  0  0  0  0  0  0  0  0  0  0  0
    4.5302    1.2813   21.2996 C   0  0  0  0  0  0  0  0  0  0  0  0
    4.9875    0.8991   20.0069 C   0  0  0  0  0  0  0  0  0  0  0  0
    5.0379    0.9056   22.1828 H   0  0  0  0  0  0  0  0  0  0  0  0
    3.1147    2.4160   22.4296 H   0  0  0  0  0  0  0  0  0  0  0  0
    1.9118    3.2665   20.4279 H   0  0  0  0  0  0  0  0  0  0  0  0
    2.6783    2.6178   18.1578 H   0  0  0  0  0  0  0  0  0  0  0  0
    4.2252    1.3956   16.7143 H   0  0  0  0  0  0  0  0  0  0  0  0
    7.2911   -0.8782   18.2540 H   0  0  0  0  0  0  0  0  0  0  0  0
    7.8961   -0.8326   20.5495 H   0  0  0  0  0  0  0  0  0  0  0  0
    7.0488    0.1905   21.7109 H   0  0  0  0  0  0  0  0  0  0  0  0
    7.0067   -2.5399   22.3127 N   0  0  0  0  0  0  0  0  0  0  0  0
    8.2983   -2.1201   22.8692 C   0  0  0  0  0  0  0  0  0  0  0  0
    8.6481   -2.9663   24.0841 C   0  0  0  0  0  0  0  0  0  0  0  0
    8.7432   -4.4323   23.6348 C   0  0  0  0  0  0  0  0  0  0  0  0
    7.6003   -4.8674   22.6846 C   0  0  0  0  0  0  0  0  0  0  0  0
    6.4817   -3.8441   22.6840 C   0  0  0  0  0  0  0  0  0  0  0  0
    5.7037   -4.0891   21.9623 H   0  0  0  0  0  0  0  0  0  0  0  0
    6.0052   -3.7871   23.6702 H   0  0  0  0  0  0  0  0  0  0  0  0
    7.1997   -5.8511   22.9563 H   0  0  0  0  0  0  0  0  0  0  0  0
    7.9750   -4.9602   21.6567 H   0  0  0  0  0  0  0  0  0  0  0  0
    8.8333   -5.1122   24.4868 H   0  0  0  0  0  0  0  0  0  0  0  0
    9.6835   -4.4903   23.0955 H   0  0  0  0  0  0  0  0  0  0  0  0
    7.9143   -2.8141   24.8783 H   0  0  0  0  0  0  0  0  0  0  0  0
    9.6135   -2.6458   24.5010 H   0  0  0  0  0  0  0  0  0  0  0  0
    8.2584   -1.0587   23.1284 H   0  0  0  0  0  0  0  0  0  0  0  0
    9.1155   -2.2630   22.1485 H   0  0  0  0  0  0  0  0  0  0  0  0
  1  2  2  0
  2  3  1  0
  3  4  1  0
  4  5  2  0
  5  6  1  0
  6  7  2  0
  7  8  1  0
  8  9  2  0
  9 10  1  0
 10 11  2  0
 11 12  1  0
 12 13  2  0
 12 14  1  0
 11 15  1  0
 10 16  1  0
  9 17  1  0
  7 18  1  0
  5 19  1  0
  3 20  1  0
  3 21  1  0
  2 22  1  0
 22 23  1  0
 23 24  1  0
 24 25  1  0
 25 26  1  0
 26 27  1  0
 27 28  1  0
 27 29  1  0
 26 30  1  0
 26 31  1  0
 25 32  1  0
 25 33  1  0
 24 34  1  0
 24 35  1  0
 23 36  1  0
 23 37  1  0
 13  4  1  0
 27 22  1  0
 13  8  1  0
M  END
>  <cnnaffinities>  (6) 
[4.61784, 4.61784, 4.61397, 4.96255, 4.27995, 4.27794, 4.9053, 4.98484, 4.9848]

>  <score>  (6) 
4.61784

>  <index>  (6) 
7

>  <Smiles>  (6) 
O=C(C(c1c(nc(c2c(c(c(c(c12)[H])[H])[H])[H])[H])[H])([H])[H])N1C(C(C(C(C1([H])[H])([H])[H])([H])[H])([H])[H])([H])[H]

>  <h>  (6) 
<NA>

>  <Training>  (6) 
True

>  <Success>  (6) 
True

>  <enamine_searched>  (6) 
False

>  <enamine_id>  (6) 
nan

$$$$

     RDKit          3D

 66 71  0  0  0  0  0  0  0  0999 V2000
    9.6632   -2.0448   21.9124 C   0  0  0  0  0  0  0  0  0  0  0  0
    8.5930   -1.0283   22.3333 C   0  0  1  0  0  0  0  0  0  0  0  0
    8.1743   -0.1231   21.1570 C   0  0  0  0  0  0  0  0  0  0  0  0
    6.8467   -0.5708   20.7997 N   0  0  0  0  0  0  0  0  0  0  0  0
    6.0975    0.0284   19.7602 C   0  0  0  0  0  0  0  0  0  0  0  0
    6.4537   -0.2213   18.4604 C   0  0  0  0  0  0  0  0  0  0  0  0
    5.7985    0.2512   17.3727 N   0  0  0  0  0  0  0  0  0  0  0  0
    4.7626    1.0239   17.6001 C   0  0  0  0  0  0  0  0  0  0  0  0
    4.3072    1.3927   18.8980 C   0  0  0  0  0  0  0  0  0  0  0  0
    3.1913    2.2534   19.0609 C   0  0  0  0  0  0  0  0  0  0  0  0
    2.7943    2.6400   20.3085 C   0  0  0  0  0  0  0  0  0  0  0  0
    3.4980    2.1893   21.4487 C   0  0  0  0  0  0  0  0  0  0  0  0
    4.5756    1.3467   21.3248 C   0  0  0  0  0  0  0  0  0  0  0  0
    4.9977    0.9076   20.0308 C   0  0  0  0  0  0  0  0  0  0  0  0
    5.1043    1.0211   22.2224 H   0  0  0  0  0  0  0  0  0  0  0  0
    3.1768    2.5213   22.4314 H   0  0  0  0  0  0  0  0  0  0  0  0
    1.9471    3.3089   20.4288 H   0  0  0  0  0  0  0  0  0  0  0  0
    2.6805    2.6063   18.1684 H   0  0  0  0  0  0  0  0  0  0  0  0
    4.2255    1.4075   16.7330 H   0  0  0  0  0  0  0  0  0  0  0  0
    7.3094   -0.8678   18.2720 H   0  0  0  0  0  0  0  0  0  0  0  0
    6.2776   -1.4453   21.6958 C   0  0  0  0  0  0  0  0  0  0  0  0
    5.1871   -1.9586   21.5597 O   0  0  0  0  0  0  0  0  0  0  0  0
    7.2600   -1.6367   22.8662 C   0  0  1  0  0  0  0  0  0  0  0  0
    7.4036   -3.1363   23.1828 C   0  0  0  0  0  0  0  0  0  0  0  0
    6.2105   -3.6837   23.8176 N   0  0  0  0  0  0  0  0  0  0  0  0
    5.9581   -5.1097   23.6334 C   0  0  0  0  0  0  0  0  0  0  0  0
    6.9600   -5.9436   24.4471 C   0  0  0  0  0  0  0  0  0  0  0  0
    7.8854   -6.5223   23.9047 O   0  0  0  0  0  0  0  0  0  0  0  0
    6.7526   -5.9313   25.7983 N   0  0  0  0  0  0  0  0  0  0  0  0
    7.8486   -6.1440   26.7379 C   0  0  0  0  0  0  0  0  0  0  0  0
    9.0387   -5.2859   26.4693 C   0  0  0  0  0  0  0  0  0  0  0  0
   10.1688   -5.4343   25.6826 C   0  0  0  0  0  0  0  0  0  0  0  0
   10.8110   -4.1854   25.7462 C   0  0  0  0  0  0  0  0  0  0  0  0
   10.1408   -3.3465   26.5205 N   0  0  0  0  0  0  0  0  0  0  0  0
    9.0785   -4.0278   26.9524 N   0  0  0  0  0  0  0  0  0  0  0  0
    8.0726   -3.4169   27.7946 C   0  0  0  0  0  0  0  0  0  0  0  0
    8.2033   -2.3379   27.7306 H   0  0  0  0  0  0  0  0  0  0  0  0
    7.0851   -3.6868   27.4044 H   0  0  0  0  0  0  0  0  0  0  0  0
    8.1516   -3.7510   28.8378 H   0  0  0  0  0  0  0  0  0  0  0  0
   11.7131   -3.8332   25.2596 H   0  0  0  0  0  0  0  0  0  0  0  0
   10.4699   -6.2933   25.1115 H   0  0  0  0  0  0  0  0  0  0  0  0
    8.1886   -7.1670   26.7379 H   0  0  0  0  0  0  0  0  0  0  0  0
    7.4300   -5.9624   27.7353 H   0  0  0  0  0  0  0  0  0  0  0  0
    6.0056   -5.3282   26.1236 H   0  0  0  0  0  0  0  0  0  0  0  0
    4.9305   -5.3181   23.9356 H   0  0  0  0  0  0  0  0  0  0  0  0
    6.0627   -5.3429   22.5671 H   0  0  0  0  0  0  0  0  0  0  0  0
    5.6696   -3.0599   24.9040 C   0  0  0  0  0  0  0  0  0  0  0  0
    4.9862   -3.6664   25.7332 O   0  0  0  0  0  0  0  0  0  0  0  0
    5.9657   -1.5984   25.0585 C   0  0  0  0  0  0  0  0  0  0  0  0
    5.4672   -0.9434   26.1885 C   0  0  0  0  0  0  0  0  0  0  0  0
    5.7427    0.3938   26.4018 C   0  0  0  0  0  0  0  0  0  0  0  0
    6.5102    1.0875   25.4681 C   0  0  0  0  0  0  0  0  0  0  0  0
    6.9892    0.4445   24.3379 C   0  0  0  0  0  0  0  0  0  0  0  0
    6.7422   -0.9179   24.1134 C   0  0  0  0  0  0  0  0  0  0  0  0
    7.5988    1.0235   23.6489 H   0  0  0  0  0  0  0  0  0  0  0  0
    6.7581    2.1298   25.6381 H   0  0  0  0  0  0  0  0  0  0  0  0
    5.3745    0.8938   27.2924 H   0  0  0  0  0  0  0  0  0  0  0  0
    4.8631   -1.5111   26.8877 H   0  0  0  0  0  0  0  0  0  0  0  0
    8.2801   -3.2611   23.8285 H   0  0  0  0  0  0  0  0  0  0  0  0
    7.5918   -3.6951   22.2649 H   0  0  0  0  0  0  0  0  0  0  0  0
    8.1657    0.9410   21.4396 H   0  0  0  0  0  0  0  0  0  0  0  0
    8.8538   -0.2324   20.3099 H   0  0  0  0  0  0  0  0  0  0  0  0
    9.0378   -0.4342   23.1386 H   0  0  0  0  0  0  0  0  0  0  0  0
   10.6266   -1.5536   21.7664 H   0  0  0  0  0  0  0  0  0  0  0  0
    9.3784   -2.5671   20.9896 H   0  0  0  0  0  0  0  0  0  0  0  0
    9.8303   -2.7813   22.6998 H   0  0  0  0  0  0  0  0  0  0  0  0
  1  2  1  0
  2  3  1  0
  3  4  1  0
  4  5  1  0
  5  6  2  0
  6  7  1  0
  7  8  2  0
  8  9  1  0
  9 10  2  0
 10 11  1  0
 11 12  2  0
 12 13  1  0
 13 14  2  0
 13 15  1  0
 12 16  1  0
 11 17  1  0
 10 18  1  0
  8 19  1  0
  6 20  1  0
  4 21  1  0
 21 22  2  0
 21 23  1  0
 23 24  1  1
 24 25  1  0
 25 26  1  0
 26 27  1  0
 27 28  2  0
 27 29  1  0
 29 30  1  0
 30 31  1  0
 31 32  2  0
 32 33  1  0
 33 34  2  0
 34 35  1  0
 35 36  1  0
 36 37  1  0
 36 38  1  0
 36 39  1  0
 33 40  1  0
 32 41  1  0
 30 42  1  0
 30 43  1  0
 29 44  1  0
 26 45  1  0
 26 46  1  0
 25 47  1  0
 47 48  2  0
 47 49  1  0
 49 50  2  0
 50 51  1  0
 51 52  2  0
 52 53  1  0
 53 54  2  0
 53 55  1  0
 52 56  1  0
 51 57  1  0
 50 58  1  0
 24 59  1  0
 24 60  1  0
  3 61  1  0
  3 62  1  0
  2 63  1  1
  1 64  1  0
  1 65  1  0
  1 66  1  0
 23  2  1  0
 35 31  1  0
 54 49  1  0
 14  5  1  0
 54 23  1  0
 14  9  1  0
M  END
>  <cnnaffinities>  (7) 
[6.77811, 6.40936]

>  <score>  (7) 
6.77811

>  <index>  (7) 
8

>  <Smiles>  (7) 
C([C@]1(C(N(c2c(nc(c3c(c(c(c(c23)[H])[H])[H])[H])[H])[H])C(=O)[C@]21C(N(C(C(=O)N(C(c1c(c(nn1C([H])([H])[H])[H])[H])([H])[H])[H])([H])[H])C(=O)c1c(c(c(c(c21)[H])[H])[H])[H])([H])[H])([H])[H])[H])([H])([H])[H]

>  <h>  (7) 
<NA>

>  <Training>  (7) 
True

>  <Success>  (7) 
True

>  <enamine_searched>  (7) 
False

>  <enamine_id>  (7) 
nan

$$$$

     RDKit          3D

 54 57  0  0  0  0  0  0  0  0999 V2000
    1.9582   -5.0113   24.3404 C   0  0  0  0  0  0  0  0  0  0  0  0
    3.1332   -4.2601   24.1041 O   0  0  0  0  0  0  0  0  0  0  0  0
    3.1538   -2.9110   24.3432 C   0  0  0  0  0  0  0  0  0  0  0  0
    2.0484   -2.2017   24.8186 C   0  0  0  0  0  0  0  0  0  0  0  0
    2.1543   -0.8332   25.0652 C   0  0  0  0  0  0  0  0  0  0  0  0
    3.3407   -0.1599   24.8111 C   0  0  0  0  0  0  0  0  0  0  0  0
    4.4231   -0.8756   24.3096 C   0  0  0  0  0  0  0  0  0  0  0  0
    4.3714   -2.2429   24.0684 C   0  0  0  0  0  0  0  0  0  0  0  0
    5.5917   -3.0247   23.5531 C   0  0  2  0  0  0  0  0  0  0  0  0
    6.2438   -3.8923   24.6494 C   0  0  0  0  0  0  0  0  0  0  0  0
    7.3829   -3.2531   25.4448 C   0  0  2  0  0  0  0  0  0  0  0  0
    6.9242   -2.2272   26.4808 C   0  0  0  0  0  0  0  0  0  0  0  0
    7.7676   -1.8734   27.0853 H   0  0  0  0  0  0  0  0  0  0  0  0
    6.1835   -2.6598   27.1618 H   0  0  0  0  0  0  0  0  0  0  0  0
    6.4582   -1.3526   26.0212 H   0  0  0  0  0  0  0  0  0  0  0  0
    8.3889   -2.6922   24.4484 C   0  0  0  0  0  0  0  0  0  0  0  0
    7.7747   -1.6858   23.4845 C   0  0  0  0  0  0  0  0  0  0  0  0
    6.5765   -2.1980   22.8230 N   0  0  0  0  0  0  0  0  0  0  0  0
    6.1810   -1.7506   21.5707 C   0  0  0  0  0  0  0  0  0  0  0  0
    5.2718   -2.2980   20.9730 O   0  0  0  0  0  0  0  0  0  0  0  0
    6.9003   -0.5287   20.9185 C   0  0  0  0  0  0  0  0  0  0  0  0
    6.1107    0.0765   19.7742 C   0  0  0  0  0  0  0  0  0  0  0  0
    6.4212   -0.2158   18.4712 C   0  0  0  0  0  0  0  0  0  0  0  0
    5.7622    0.2415   17.3689 N   0  0  0  0  0  0  0  0  0  0  0  0
    4.7374    1.0316   17.5783 C   0  0  0  0  0  0  0  0  0  0  0  0
    4.2855    1.4181   18.8685 C   0  0  0  0  0  0  0  0  0  0  0  0
    3.1606    2.2630   19.0470 C   0  0  0  0  0  0  0  0  0  0  0  0
    2.7429    2.6184   20.3005 C   0  0  0  0  0  0  0  0  0  0  0  0
    3.4433    2.1380   21.4296 C   0  0  0  0  0  0  0  0  0  0  0  0
    4.5366    1.3201   21.2901 C   0  0  0  0  0  0  0  0  0  0  0  0
    4.9918    0.9340   20.0022 C   0  0  0  0  0  0  0  0  0  0  0  0
    5.0556    0.9577   22.1742 H   0  0  0  0  0  0  0  0  0  0  0  0
    3.1031    2.4253   22.4206 H   0  0  0  0  0  0  0  0  0  0  0  0
    1.8806    3.2686   20.4363 H   0  0  0  0  0  0  0  0  0  0  0  0
    2.6423    2.6334   18.1639 H   0  0  0  0  0  0  0  0  0  0  0  0
    4.2014    1.3995   16.6985 H   0  0  0  0  0  0  0  0  0  0  0  0
    7.2626   -0.8697   18.2446 H   0  0  0  0  0  0  0  0  0  0  0  0
    7.1423    0.2429   21.6648 H   0  0  0  0  0  0  0  0  0  0  0  0
    7.8639   -0.8793   20.5181 H   0  0  0  0  0  0  0  0  0  0  0  0
    8.5142   -1.4503   22.7141 H   0  0  0  0  0  0  0  0  0  0  0  0
    7.5822   -0.7420   24.0179 H   0  0  0  0  0  0  0  0  0  0  0  0
    8.8222   -3.5156   23.8733 H   0  0  0  0  0  0  0  0  0  0  0  0
    9.2187   -2.2165   24.9798 H   0  0  0  0  0  0  0  0  0  0  0  0
    7.8777   -4.0608   26.0065 H   0  0  0  0  0  0  0  0  0  0  0  0
    6.6307   -4.8026   24.1752 H   0  0  0  0  0  0  0  0  0  0  0  0
    5.4635   -4.2271   25.3365 H   0  0  0  0  0  0  0  0  0  0  0  0
    5.1889   -3.7191   22.8129 H   0  0  0  0  0  0  0  0  0  0  0  0
    5.3497   -0.3456   24.1236 H   0  0  0  0  0  0  0  0  0  0  0  0
    3.4125    0.9199   24.9349 H   0  0  0  0  0  0  0  0  0  0  0  0
    1.2790   -0.2755   25.3814 H   0  0  0  0  0  0  0  0  0  0  0  0
    1.0973   -2.6993   24.9985 H   0  0  0  0  0  0  0  0  0  0  0  0
    1.6328   -5.0008   25.3878 H   0  0  0  0  0  0  0  0  0  0  0  0
    2.2096   -6.0389   24.0854 H   0  0  0  0  0  0  0  0  0  0  0  0
    1.1116   -4.7119   23.7108 H   0  0  0  0  0  0  0  0  0  0  0  0
  1  2  1  0
  2  3  1  0
  3  4  2  0
  4  5  1  0
  5  6  2  0
  6  7  1  0
  7  8  2  0
  8  9  1  0
  9 10  1  0
 10 11  1  0
 11 12  1  0
 12 13  1  0
 12 14  1  0
 12 15  1  0
 11 16  1  0
 16 17  1  0
 17 18  1  0
 18 19  1  0
 19 20  2  0
 19 21  1  0
 21 22  1  0
 22 23  2  0
 23 24  1  0
 24 25  2  0
 25 26  1  0
 26 27  2  0
 27 28  1  0
 28 29  2  0
 29 30  1  0
 30 31  2  0
 30 32  1  0
 29 33  1  0
 28 34  1  0
 27 35  1  0
 25 36  1  0
 23 37  1  0
 21 38  1  0
 21 39  1  0
 17 40  1  0
 17 41  1  0
 16 42  1  0
 16 43  1  0
 11 44  1  1
 10 45  1  0
 10 46  1  0
  9 47  1  6
  7 48  1  0
  6 49  1  0
  5 50  1  0
  4 51  1  0
  1 52  1  0
  1 53  1  0
  1 54  1  0
  8  3  1  0
 18  9  1  0
 31 22  1  0
 31 26  1  0
M  END
>  <cnnaffinities>  (8) 
[5.61299]

>  <score>  (8) 
5.61299

>  <index>  (8) 
11

>  <Smiles>  (8) 
C(Oc1c(c(c(c(c1[C@@]1(C([C@](C([H])([H])[H])(C(C(N1C(=O)C(c1c(nc(c2c(c(c(c(c12)[H])[H])[H])[H])[H])[H])([H])[H])([H])[H])([H])[H])[H])([H])[H])[H])[H])[H])[H])[H])([H])([H])[H]

>  <h>  (8) 
<NA>

>  <Training>  (8) 
True

>  <Success>  (8) 
True

>  <enamine_searched>  (8) 
False

>  <enamine_id>  (8) 
nan

$$$$

     RDKit          3D

 47 50  0  0  0  0  0  0  0  0999 V2000
    5.4688   -2.5031   20.8604 O   0  0  0  0  0  0  0  0  0  0  0  0
    6.0762   -1.6919   21.5413 C   0  0  0  0  0  0  0  0  0  0  0  0
    6.8683   -0.5474   20.9024 C   0  0  0  0  0  0  0  0  0  0  0  0
    6.1082    0.0717   19.7716 C   0  0  0  0  0  0  0  0  0  0  0  0
    6.4325   -0.2372   18.4771 C   0  0  0  0  0  0  0  0  0  0  0  0
    5.7844    0.2244   17.3748 N   0  0  0  0  0  0  0  0  0  0  0  0
    4.7641    1.0170   17.5891 C   0  0  0  0  0  0  0  0  0  0  0  0
    4.2976    1.4046   18.8774 C   0  0  0  0  0  0  0  0  0  0  0  0
    3.1761    2.2549   19.0441 C   0  0  0  0  0  0  0  0  0  0  0  0
    2.7545    2.6201   20.2906 C   0  0  0  0  0  0  0  0  0  0  0  0
    3.4413    2.1491   21.4327 C   0  0  0  0  0  0  0  0  0  0  0  0
    4.5301    1.3196   21.2985 C   0  0  0  0  0  0  0  0  0  0  0  0
    4.9895    0.9229   20.0129 C   0  0  0  0  0  0  0  0  0  0  0  0
    5.0357    0.9780   22.1959 H   0  0  0  0  0  0  0  0  0  0  0  0
    3.1004    2.4472   22.4165 H   0  0  0  0  0  0  0  0  0  0  0  0
    1.8984    3.2756   20.4141 H   0  0  0  0  0  0  0  0  0  0  0  0
    2.6673    2.6194   18.1547 H   0  0  0  0  0  0  0  0  0  0  0  0
    4.2408    1.3944   16.7104 H   0  0  0  0  0  0  0  0  0  0  0  0
    7.2773   -0.8994   18.2875 H   0  0  0  0  0  0  0  0  0  0  0  0
    7.1378    0.2063   21.6439 H   0  0  0  0  0  0  0  0  0  0  0  0
    7.8096   -0.9705   20.5281 H   0  0  0  0  0  0  0  0  0  0  0  0
    6.0934   -1.7637   22.8954 N   0  0  0  0  0  0  0  0  0  0  0  0
    5.4357   -2.8839   23.5541 C   0  0  0  0  0  0  0  0  0  0  0  0
    5.9595   -2.8083   24.9917 C   0  0  2  0  0  0  0  0  0  0  0  0
    5.0661   -3.4465   26.0334 C   0  0  0  0  0  0  0  0  0  0  0  0
    4.9633   -4.8108   25.8047 F   0  0  0  0  0  0  0  0  0  0  0  0
    4.0543   -3.0189   25.9983 H   0  0  0  0  0  0  0  0  0  0  0  0
    5.4750   -3.2893   27.0431 H   0  0  0  0  0  0  0  0  0  0  0  0
    6.2452   -1.3148   25.2344 C   0  0  0  0  0  0  0  0  0  0  0  0
    5.0246   -0.5097   25.7293 C   0  0  0  0  0  0  0  0  0  0  0  0
    5.5995    0.8084   26.2586 C   0  0  0  0  0  0  0  0  0  0  0  0
    7.0221    0.4637   26.7486 C   0  0  0  0  0  0  0  0  0  0  0  0
    7.2857   -0.9924   26.3130 C   0  0  0  0  0  0  0  0  0  0  0  0
    7.1579   -1.6716   27.1645 H   0  0  0  0  0  0  0  0  0  0  0  0
    8.2996   -1.1215   25.9183 H   0  0  0  0  0  0  0  0  0  0  0  0
    7.7643    1.1236   26.2902 H   0  0  0  0  0  0  0  0  0  0  0  0
    7.1343    0.5614   27.8324 H   0  0  0  0  0  0  0  0  0  0  0  0
    5.6543    1.5578   25.4607 H   0  0  0  0  0  0  0  0  0  0  0  0
    4.9718    1.2173   27.0578 H   0  0  0  0  0  0  0  0  0  0  0  0
    4.2933   -0.3470   24.9308 H   0  0  0  0  0  0  0  0  0  0  0  0
    4.5516   -1.0303   26.5774 H   0  0  0  0  0  0  0  0  0  0  0  0
    6.7539   -0.8719   23.8426 C   0  0  0  0  0  0  0  0  0  0  0  0
    7.8466   -0.9976   23.7867 H   0  0  0  0  0  0  0  0  0  0  0  0
    6.5310    0.1828   23.6412 H   0  0  0  0  0  0  0  0  0  0  0  0
    6.9301   -3.3225   25.0137 H   0  0  0  0  0  0  0  0  0  0  0  0
    4.3457   -2.7766   23.4814 H   0  0  0  0  0  0  0  0  0  0  0  0
    5.7023   -3.8197   23.0577 H   0  0  0  0  0  0  0  0  0  0  0  0
  1  2  2  0
  2  3  1  0
  3  4  1  0
  4  5  2  0
  5  6  1  0
  6  7  2  0
  7  8  1  0
  8  9  2  0
  9 10  1  0
 10 11  2  0
 11 12  1  0
 12 13  2  0
 12 14  1  0
 11 15  1  0
 10 16  1  0
  9 17  1  0
  7 18  1  0
  5 19  1  0
  3 20  1  0
  3 21  1  0
  2 22  1  0
 22 23  1  0
 23 24  1  0
 24 25  1  0
 25 26  1  0
 25 27  1  0
 25 28  1  0
 24 29  1  0
 29 30  1  0
 30 31  1  0
 31 32  1  0
 32 33  1  0
 33 34  1  0
 33 35  1  0
 32 36  1  0
 32 37  1  0
 31 38  1  0
 31 39  1  0
 30 40  1  0
 30 41  1  0
 29 42  1  0
 42 43  1  0
 42 44  1  0
 24 45  1  6
 23 46  1  0
 23 47  1  0
 13  4  1  0
 42 22  1  0
 13  8  1  0
 33 29  1  0
M  END
>  <cnnaffinities>  (9) 
[5.27102, 5.46791, 5.27242, 5.4021, 5.4092]

>  <score>  (9) 
5.27102

>  <index>  (9) 
12

>  <Smiles>  (9) 
O=C(C(c1c(nc(c2c(c(c(c(c12)[H])[H])[H])[H])[H])[H])([H])[H])N1C([C@](C(F)([H])[H])(C2(C(C(C(C2([H])[H])([H])[H])([H])[H])([H])[H])C1([H])[H])[H])([H])[H]

>  <h>  (9) 
<NA>

>  <Training>  (9) 
True

>  <Success>  (9) 
True

>  <enamine_searched>  (9) 
False

>  <enamine_id>  (9) 
nan

$$$$

     RDKit          3D

 67 73  0  0  0  0  0  0  0  0999 V2000
    9.6447   -2.0016   21.9694 C   0  0  0  0  0  0  0  0  0  0  0  0
    8.5779   -0.9711   22.3696 C   0  0  1  0  0  0  0  0  0  0  0  0
    8.1499   -0.0823   21.1828 C   0  0  0  0  0  0  0  0  0  0  0  0
    6.8454   -0.5830   20.8006 N   0  0  0  0  0  0  0  0  0  0  0  0
    6.0892    0.0127   19.7630 C   0  0  0  0  0  0  0  0  0  0  0  0
    6.4535   -0.2278   18.4637 C   0  0  0  0  0  0  0  0  0  0  0  0
    5.8061    0.2531   17.3761 N   0  0  0  0  0  0  0  0  0  0  0  0
    4.7702    1.0259   17.6037 C   0  0  0  0  0  0  0  0  0  0  0  0
    4.3077    1.3870   18.9011 C   0  0  0  0  0  0  0  0  0  0  0  0
    3.1939    2.2502   19.0581 C   0  0  0  0  0  0  0  0  0  0  0  0
    2.7941    2.6400   20.3044 C   0  0  0  0  0  0  0  0  0  0  0  0
    3.4940    2.1872   21.4455 C   0  0  0  0  0  0  0  0  0  0  0  0
    4.5672    1.3369   21.3270 C   0  0  0  0  0  0  0  0  0  0  0  0
    4.9918    0.8959   20.0346 C   0  0  0  0  0  0  0  0  0  0  0  0
    5.0895    1.0095   22.2272 H   0  0  0  0  0  0  0  0  0  0  0  0
    3.1708    2.5224   22.4261 H   0  0  0  0  0  0  0  0  0  0  0  0
    1.9506    3.3138   20.4203 H   0  0  0  0  0  0  0  0  0  0  0  0
    2.6909    2.6047   18.1626 H   0  0  0  0  0  0  0  0  0  0  0  0
    4.2383    1.4129   16.7359 H   0  0  0  0  0  0  0  0  0  0  0  0
    7.3152   -0.8667   18.2775 H   0  0  0  0  0  0  0  0  0  0  0  0
    6.2934   -1.4694   21.6964 C   0  0  0  0  0  0  0  0  0  0  0  0
    5.2366   -2.0446   21.5378 O   0  0  0  0  0  0  0  0  0  0  0  0
    7.2499   -1.5708   22.9051 C   0  0  1  0  0  0  0  0  0  0  0  0
    7.4137   -3.0452   23.3219 C   0  0  0  0  0  0  0  0  0  0  0  0
    6.2194   -3.6014   23.9390 N   0  0  0  0  0  0  0  0  0  0  0  0
    5.7915   -4.9107   23.4648 C   0  0  0  0  0  0  0  0  0  0  0  0
    6.8457   -6.0046   23.6536 C   0  0  0  0  0  0  0  0  0  0  0  0
    7.0003   -6.4907   25.0556 N   0  0  2  0  0  4  0  0  0  0  0  0
    5.8138   -7.2939   25.5961 C   0  0  0  0  0  0  0  0  0  0  0  0
    5.7315   -6.7816   27.0442 C   0  0  2  0  0  0  0  0  0  0  0  0
    5.8791   -5.2892   26.8117 C   0  0  0  0  0  0  0  0  0  0  0  0
    7.2500   -5.4628   26.1761 C   0  0  1  0  0  0  0  0  0  0  0  0
    7.9336   -6.2006   27.3112 C   0  0  0  0  0  0  0  0  0  0  0  0
    6.9225   -7.1235   27.7694 O   0  0  0  0  0  0  0  0  0  0  0  0
    8.8489   -6.7165   26.9987 H   0  0  0  0  0  0  0  0  0  0  0  0
    8.1712   -5.5136   28.1301 H   0  0  0  0  0  0  0  0  0  0  0  0
    7.7755   -4.5939   25.7990 H   0  0  0  0  0  0  0  0  0  0  0  0
    5.1098   -4.9157   26.1450 H   0  0  0  0  0  0  0  0  0  0  0  0
    5.9379   -4.6938   27.7229 H   0  0  0  0  0  0  0  0  0  0  0  0
    4.8453   -7.1212   27.5788 H   0  0  0  0  0  0  0  0  0  0  0  0
    4.9142   -7.0161   25.0360 H   0  0  0  0  0  0  0  0  0  0  0  0
    6.0276   -8.3567   25.4898 H   0  0  0  0  0  0  0  0  0  0  0  0
    7.8427   -7.1024   25.0381 H   0  0  0  0  0  0  0  0  0  0  0  0
    6.5938   -6.8593   23.0122 H   0  0  0  0  0  0  0  0  0  0  0  0
    7.8278   -5.6482   23.3183 H   0  0  0  0  0  0  0  0  0  0  0  0
    4.8669   -5.1612   23.9847 H   0  0  0  0  0  0  0  0  0  0  0  0
    5.5448   -4.8274   22.3999 H   0  0  0  0  0  0  0  0  0  0  0  0
    5.3860   -2.8475   24.7134 C   0  0  0  0  0  0  0  0  0  0  0  0
    4.3436   -3.2701   25.2016 O   0  0  0  0  0  0  0  0  0  0  0  0
    5.8036   -1.4314   24.9636 C   0  0  0  0  0  0  0  0  0  0  0  0
    5.2486   -0.7608   26.0528 C   0  0  0  0  0  0  0  0  0  0  0  0
    5.5556    0.5627   26.2948 C   0  0  0  0  0  0  0  0  0  0  0  0
    6.4223    1.2097   25.4139 C   0  0  0  0  0  0  0  0  0  0  0  0
    6.8211    2.8809   25.6994 Cl  0  0  0  0  0  0  0  0  0  0  0  0
    6.9888    0.5525   24.3333 C   0  0  0  0  0  0  0  0  0  0  0  0
    6.6919   -0.7953   24.0942 C   0  0  0  0  0  0  0  0  0  0  0  0
    7.6772    1.1053   23.7034 H   0  0  0  0  0  0  0  0  0  0  0  0
    5.1355    1.0871   27.1470 H   0  0  0  0  0  0  0  0  0  0  0  0
    4.5765   -1.3127   26.7007 H   0  0  0  0  0  0  0  0  0  0  0  0
    8.2651   -3.1093   24.0154 H   0  0  0  0  0  0  0  0  0  0  0  0
    7.6507   -3.6288   22.4282 H   0  0  0  0  0  0  0  0  0  0  0  0
    8.0935    0.9802   21.4651 H   0  0  0  0  0  0  0  0  0  0  0  0
    8.8506   -0.1587   20.3487 H   0  0  0  0  0  0  0  0  0  0  0  0
    9.0247   -0.3675   23.1659 H   0  0  0  0  0  0  0  0  0  0  0  0
    9.8131   -2.7269   22.7697 H   0  0  0  0  0  0  0  0  0  0  0  0
   10.6103   -1.5147   21.8168 H   0  0  0  0  0  0  0  0  0  0  0  0
    9.3571   -2.5416   21.0571 H   0  0  0  0  0  0  0  0  0  0  0  0
  1  2  1  0
  2  3  1  0
  3  4  1  0
  4  5  1  0
  5  6  2  0
  6  7  1  0
  7  8  2  0
  8  9  1  0
  9 10  2  0
 10 11  1  0
 11 12  2  0
 12 13  1  0
 13 14  2  0
 13 15  1  0
 12 16  1  0
 11 17  1  0
 10 18  1  0
  8 19  1  0
  6 20  1  0
  4 21  1  0
 21 22  2  0
 21 23  1  0
 23 24  1  1
 24 25  1  0
 25 26  1  0
 26 27  1  0
 27 28  1  0
 28 29  1  0
 29 30  1  0
 30 31  1  0
 31 32  1  0
 32 33  1  0
 33 34  1  0
 33 35  1  0
 33 36  1  0
 32 37  1  6
 31 38  1  0
 31 39  1  0
 30 40  1  1
 29 41  1  0
 29 42  1  0
 28 43  1  6
 27 44  1  0
 27 45  1  0
 26 46  1  0
 26 47  1  0
 25 48  1  0
 48 49  2  0
 48 50  1  0
 50 51  2  0
 51 52  1  0
 52 53  2  0
 53 54  1  0
 53 55  1  0
 55 56  2  0
 55 57  1  0
 52 58  1  0
 51 59  1  0
 24 60  1  0
 24 61  1  0
  3 62  1  0
  3 63  1  0
  2 64  1  1
  1 65  1  0
  1 66  1  0
  1 67  1  0
 23  2  1  0
 32 28  1  0
 56 50  1  0
 14  5  1  0
 56 23  1  0
 14  9  1  0
 34 30  1  0
M  CHG  1  28   1
M  END
>  <cnnaffinities>  (10) 
[6.44088]

>  <score>  (10) 
6.44088

>  <index>  (10) 
14

>  <Smiles>  (10) 
C([C@]1(C(N(c2c(nc(c3c(c(c(c(c23)[H])[H])[H])[H])[H])[H])C(=O)[C@]21C(N(C(C([N@@+]1(C([C@@]3(C([C@]1(C(O3)([H])[H])[H])([H])[H])[H])([H])[H])[H])([H])[H])([H])[H])C(=O)c1c(c(c(Cl)c(c21)[H])[H])[H])([H])[H])([H])[H])[H])([H])([H])[H]

>  <h>  (10) 
<NA>

>  <Training>  (10) 
True

>  <Success>  (10) 
True

>  <enamine_searched>  (10) 
False

>  <enamine_id>  (10) 
nan

$$$$

     RDKit          3D

 47 50  0  0  0  0  0  0  0  0999 V2000
    8.6406   -4.5096   23.9878 C   0  0  0  0  0  0  0  0  0  0  0  0
    7.3756   -3.7646   24.4100 C   0  0  1  0  0  0  0  0  0  0  0  0
    7.6870   -2.3582   24.9370 C   0  0  0  0  0  0  0  0  0  0  0  0
    7.4172   -1.3748   23.7819 C   0  0  2  0  0  0  0  0  0  0  0  0
    6.6532   -0.1513   24.2619 C   0  0  0  0  0  0  0  0  0  0  0  0
    5.3223   -0.2551   24.6703 C   0  0  0  0  0  0  0  0  0  0  0  0
    4.6281    0.8589   25.1239 C   0  0  0  0  0  0  0  0  0  0  0  0
    5.2624    2.0971   25.1901 C   0  0  0  0  0  0  0  0  0  0  0  0
    6.5985    2.2056   24.8142 C   0  0  0  0  0  0  0  0  0  0  0  0
    7.2888    1.0850   24.3600 C   0  0  0  0  0  0  0  0  0  0  0  0
    8.3356    1.1718   24.0725 H   0  0  0  0  0  0  0  0  0  0  0  0
    7.1015    3.1662   24.8561 H   0  0  0  0  0  0  0  0  0  0  0  0
    4.7163    2.9710   25.5307 H   0  0  0  0  0  0  0  0  0  0  0  0
    3.5897    0.7594   25.4276 H   0  0  0  0  0  0  0  0  0  0  0  0
    4.8204   -1.2185   24.6456 H   0  0  0  0  0  0  0  0  0  0  0  0
    6.6989   -2.1658   22.7893 N   0  0  0  0  0  0  0  0  0  0  0  0
    6.2486   -1.7392   21.5619 C   0  0  0  0  0  0  0  0  0  0  0  0
    5.3932   -2.3668   20.9587 O   0  0  0  0  0  0  0  0  0  0  0  0
    6.9129   -0.4922   20.9200 C   0  0  0  0  0  0  0  0  0  0  0  0
    6.1112    0.0826   19.7729 C   0  0  0  0  0  0  0  0  0  0  0  0
    6.4204   -0.2153   18.4705 C   0  0  0  0  0  0  0  0  0  0  0  0
    5.7597    0.2395   17.3681 N   0  0  0  0  0  0  0  0  0  0  0  0
    4.7368    1.0319   17.5784 C   0  0  0  0  0  0  0  0  0  0  0  0
    4.2859    1.4205   18.8698 C   0  0  0  0  0  0  0  0  0  0  0  0
    3.1654    2.2710   19.0458 C   0  0  0  0  0  0  0  0  0  0  0  0
    2.7530    2.6273   20.2989 C   0  0  0  0  0  0  0  0  0  0  0  0
    3.4489    2.1395   21.4295 C   0  0  0  0  0  0  0  0  0  0  0  0
    4.5353    1.3120   21.2970 C   0  0  0  0  0  0  0  0  0  0  0  0
    4.9882    0.9340   20.0037 C   0  0  0  0  0  0  0  0  0  0  0  0
    5.0466    0.9462   22.1894 H   0  0  0  0  0  0  0  0  0  0  0  0
    3.1090    2.4252   22.4193 H   0  0  0  0  0  0  0  0  0  0  0  0
    1.8961    3.2841   20.4375 H   0  0  0  0  0  0  0  0  0  0  0  0
    2.6484    2.6424   18.1630 H   0  0  0  0  0  0  0  0  0  0  0  0
    4.2018    1.4001   16.6985 H   0  0  0  0  0  0  0  0  0  0  0  0
    7.2645   -0.8669   18.2451 H   0  0  0  0  0  0  0  0  0  0  0  0
    7.1482    0.2825   21.6610 H   0  0  0  0  0  0  0  0  0  0  0  0
    7.8816   -0.8259   20.5211 H   0  0  0  0  0  0  0  0  0  0  0  0
    6.4168   -3.5252   23.2366 C   0  0  0  0  0  0  0  0  0  0  0  0
    5.3648   -3.6559   23.5257 H   0  0  0  0  0  0  0  0  0  0  0  0
    6.5947   -4.2154   22.4098 H   0  0  0  0  0  0  0  0  0  0  0  0
    8.3633   -1.0401   23.3434 H   0  0  0  0  0  0  0  0  0  0  0  0
    7.0638   -2.1218   25.8033 H   0  0  0  0  0  0  0  0  0  0  0  0
    8.7174   -2.2773   25.2882 H   0  0  0  0  0  0  0  0  0  0  0  0
    6.8859   -4.3590   25.1844 H   0  0  0  0  0  0  0  0  0  0  0  0
    9.1810   -3.9580   23.2123 H   0  0  0  0  0  0  0  0  0  0  0  0
    8.4010   -5.5030   23.5961 H   0  0  0  0  0  0  0  0  0  0  0  0
    9.3251   -4.6410   24.8331 H   0  0  0  0  0  0  0  0  0  0  0  0
  1  2  1  0
  2  3  1  0
  3  4  1  0
  4  5  1  0
  5  6  2  0
  6  7  1  0
  7  8  2  0
  8  9  1  0
  9 10  2  0
 10 11  1  0
  9 12  1  0
  8 13  1  0
  7 14  1  0
  6 15  1  0
  4 16  1  0
 16 17  1  0
 17 18  2  0
 17 19  1  0
 19 20  1  0
 20 21  2  0
 21 22  1  0
 22 23  2  0
 23 24  1  0
 24 25  2  0
 25 26  1  0
 26 27  2  0
 27 28  1  0
 28 29  2  0
 28 30  1  0
 27 31  1  0
 26 32  1  0
 25 33  1  0
 23 34  1  0
 21 35  1  0
 19 36  1  0
 19 37  1  0
 16 38  1  0
 38 39  1  0
 38 40  1  0
  4 41  1  6
  3 42  1  0
  3 43  1  0
  2 44  1  1
  1 45  1  0
  1 46  1  0
  1 47  1  0
 38  2  1  0
 10  5  1  0
 29 20  1  0
 29 24  1  0
M  END
>  <cnnaffinities>  (11) 
[5.64237, 5.56045]

>  <score>  (11) 
5.64237

>  <index>  (11) 
16

>  <Smiles>  (11) 
C([C@]1(C([C@](c2c(c(c(c(c2[H])[H])[H])[H])[H])(N(C(=O)C(c2c(nc(c3c(c(c(c(c23)[H])[H])[H])[H])[H])[H])([H])[H])C1([H])[H])[H])([H])[H])[H])([H])([H])[H]

>  <h>  (11) 
<NA>

>  <Training>  (11) 
True

>  <Success>  (11) 
True

>  <enamine_searched>  (11) 
False

>  <enamine_id>  (11) 
nan

$$$$

     RDKit          3D

 58 63  0  0  0  0  0  0  0  0999 V2000
    9.6092   -2.0144   21.9865 C   0  0  0  0  0  0  0  0  0  0  0  0
    8.5467   -0.9660   22.3619 C   0  0  1  0  0  0  0  0  0  0  0  0
    8.2219   -0.0708   21.1334 C   0  0  0  0  0  0  0  0  0  0  0  0
    6.8995   -0.4826   20.7233 N   0  0  0  0  0  0  0  0  0  0  0  0
    6.1629    0.0975   19.6660 C   0  0  0  0  0  0  0  0  0  0  0  0
    6.4948   -0.1634   18.3617 C   0  0  0  0  0  0  0  0  0  0  0  0
    5.8050    0.3000   17.2900 N   0  0  0  0  0  0  0  0  0  0  0  0
    4.7620    1.0584   17.5372 C   0  0  0  0  0  0  0  0  0  0  0  0
    4.3192    1.4150   18.8420 C   0  0  0  0  0  0  0  0  0  0  0  0
    3.1922    2.2537   19.0400 C   0  0  0  0  0  0  0  0  0  0  0  0
    2.8161    2.6253   20.2999 C   0  0  0  0  0  0  0  0  0  0  0  0
    3.5394    2.1588   21.4220 C   0  0  0  0  0  0  0  0  0  0  0  0
    4.6178    1.3263   21.2629 C   0  0  0  0  0  0  0  0  0  0  0  0
    5.0370    0.9329   19.9544 C   0  0  0  0  0  0  0  0  0  0  0  0
    5.1501    0.9594   22.1408 H   0  0  0  0  0  0  0  0  0  0  0  0
    3.2323    2.4617   22.4186 H   0  0  0  0  0  0  0  0  0  0  0  0
    1.9645    3.2834   20.4472 H   0  0  0  0  0  0  0  0  0  0  0  0
    2.6510    2.5995   18.1638 H   0  0  0  0  0  0  0  0  0  0  0  0
    4.2083    1.4315   16.6767 H   0  0  0  0  0  0  0  0  0  0  0  0
    7.3437   -0.8105   18.1451 H   0  0  0  0  0  0  0  0  0  0  0  0
    6.2761   -1.3385   21.5953 C   0  0  0  0  0  0  0  0  0  0  0  0
    5.2076   -1.8749   21.3669 O   0  0  0  0  0  0  0  0  0  0  0  0
    7.1664   -1.5260   22.8365 C   0  0  1  0  0  0  0  0  0  0  0  0
    7.1354   -3.0287   23.1614 C   0  0  0  0  0  0  0  0  0  0  0  0
    5.7973   -3.3827   23.5894 N   0  0  0  0  0  0  0  0  0  0  0  0
    5.1175   -4.5032   22.9851 C   0  0  0  0  0  0  0  0  0  0  0  0
    5.6792   -5.7854   23.5054 C   0  0  0  0  0  0  0  0  0  0  0  0
    6.9375   -6.1398   23.4115 N   0  0  0  0  0  0  0  0  0  0  0  0
    7.0865   -7.2998   24.1169 N   0  0  0  0  0  0  0  0  0  0  0  0
    5.9195   -7.6051   24.6161 C   0  0  0  0  0  0  0  0  0  0  0  0
    4.9801   -6.6843   24.2468 N   0  0  0  0  0  0  0  0  0  0  0  0
    3.5635   -6.6442   24.5667 C   0  0  0  0  0  0  0  0  0  0  0  0
    2.9423   -6.7654   23.6724 H   0  0  0  0  0  0  0  0  0  0  0  0
    3.3041   -5.6983   25.0465 H   0  0  0  0  0  0  0  0  0  0  0  0
    3.3499   -7.4681   25.2461 H   0  0  0  0  0  0  0  0  0  0  0  0
    5.7379   -8.3943   25.3382 H   0  0  0  0  0  0  0  0  0  0  0  0
    5.2495   -4.4440   21.8999 H   0  0  0  0  0  0  0  0  0  0  0  0
    4.0502   -4.3984   23.1973 H   0  0  0  0  0  0  0  0  0  0  0  0
    5.3049   -2.8357   24.7358 C   0  0  0  0  0  0  0  0  0  0  0  0
    4.4668   -3.3920   25.4428 O   0  0  0  0  0  0  0  0  0  0  0  0
    5.8546   -1.4806   25.0378 C   0  0  0  0  0  0  0  0  0  0  0  0
    5.5279   -0.8986   26.2656 C   0  0  0  0  0  0  0  0  0  0  0  0
    5.8689    0.4158   26.5393 C   0  0  0  0  0  0  0  0  0  0  0  0
    6.5424    1.1220   25.5486 C   0  0  0  0  0  0  0  0  0  0  0  0
    6.8442    2.4153   25.7797 F   0  0  0  0  0  0  0  0  0  0  0  0
    6.9243    0.5516   24.3426 C   0  0  0  0  0  0  0  0  0  0  0  0
    6.6303   -0.7986   24.0828 C   0  0  0  0  0  0  0  0  0  0  0  0
    7.4817    1.1740   23.6471 H   0  0  0  0  0  0  0  0  0  0  0  0
    5.6243    0.9144   27.4757 H   0  0  0  0  0  0  0  0  0  0  0  0
    5.0044   -1.4981   27.0044 H   0  0  0  0  0  0  0  0  0  0  0  0
    7.8515   -3.2517   23.9650 H   0  0  0  0  0  0  0  0  0  0  0  0
    7.3862   -3.6442   22.2945 H   0  0  0  0  0  0  0  0  0  0  0  0
    8.9463   -0.2478   20.3336 H   0  0  0  0  0  0  0  0  0  0  0  0
    8.2337    1.0074   21.3616 H   0  0  0  0  0  0  0  0  0  0  0  0
    8.9838   -0.3781   23.1774 H   0  0  0  0  0  0  0  0  0  0  0  0
    9.7186   -2.7759   22.7636 H   0  0  0  0  0  0  0  0  0  0  0  0
   10.5884   -1.5342   21.8783 H   0  0  0  0  0  0  0  0  0  0  0  0
    9.3664   -2.5124   21.0384 H   0  0  0  0  0  0  0  0  0  0  0  0
  1  2  1  0
  2  3  1  0
  3  4  1  0
  4  5  1  0
  5  6  2  0
  6  7  1  0
  7  8  2  0
  8  9  1  0
  9 10  2  0
 10 11  1  0
 11 12  2  0
 12 13  1  0
 13 14  2  0
 13 15  1  0
 12 16  1  0
 11 17  1  0
 10 18  1  0
  8 19  1  0
  6 20  1  0
  4 21  1  0
 21 22  2  0
 21 23  1  0
 23 24  1  1
 24 25  1  0
 25 26  1  0
 26 27  1  0
 27 28  2  0
 28 29  1  0
 29 30  2  0
 30 31  1  0
 31 32  1  0
 32 33  1  0
 32 34  1  0
 32 35  1  0
 30 36  1  0
 26 37  1  0
 26 38  1  0
 25 39  1  0
 39 40  2  0
 39 41  1  0
 41 42  2  0
 42 43  1  0
 43 44  2  0
 44 45  1  0
 44 46  1  0
 46 47  2  0
 46 48  1  0
 43 49  1  0
 42 50  1  0
 24 51  1  0
 24 52  1  0
  3 53  1  0
  3 54  1  0
  2 55  1  1
  1 56  1  0
  1 57  1  0
  1 58  1  0
 23  2  1  0
 31 27  1  0
 47 41  1  0
 14  5  1  0
 47 23  1  0
 14  9  1  0
M  END
>  <cnnaffinities>  (12) 
[6.1694]

>  <score>  (12) 
6.1694

>  <index>  (12) 
17

>  <Smiles>  (12) 
C([C@]1(C(N(c2c(nc(c3c(c(c(c(c23)[H])[H])[H])[H])[H])[H])C(=O)[C@]21C(N(C(c1nnc(n1C([H])([H])[H])[H])([H])[H])C(=O)c1c(c(c(F)c(c21)[H])[H])[H])([H])[H])([H])[H])[H])([H])([H])[H]

>  <h>  (12) 
<NA>

>  <Training>  (12) 
True

>  <Success>  (12) 
True

>  <enamine_searched>  (12) 
False

>  <enamine_id>  (12) 
nan

$$$$

     RDKit          3D

 50 53  0  0  0  0  0  0  0  0999 V2000
    3.9011   -1.8263   29.3972 C   0  0  0  0  0  0  0  0  0  0  0  0
    3.9693   -2.1646   27.9151 C   0  0  1  0  0  0  0  0  0  0  0  0
    4.0173   -0.9053   27.0490 C   0  0  0  0  0  0  0  0  0  0  0  0
    4.1265   -1.2245   25.5557 C   0  0  0  0  0  0  0  0  0  0  0  0
    5.2865   -2.1853   25.1953 C   0  0  2  0  0  0  0  0  0  0  0  0
    6.6534   -1.4727   25.2924 C   0  0  0  0  0  0  0  0  0  0  0  0
    6.9252   -0.8666   23.9099 C   0  0  0  0  0  0  0  0  0  0  0  0
    6.0981   -1.6409   22.9919 N   0  0  0  0  0  0  0  0  0  0  0  0
    6.1471   -1.6293   21.6262 C   0  0  0  0  0  0  0  0  0  0  0  0
    5.5819   -2.4835   20.9615 O   0  0  0  0  0  0  0  0  0  0  0  0
    6.9099   -0.4855   20.9188 C   0  0  0  0  0  0  0  0  0  0  0  0
    6.1154    0.0912   19.7664 C   0  0  0  0  0  0  0  0  0  0  0  0
    6.4216   -0.2139   18.4634 C   0  0  0  0  0  0  0  0  0  0  0  0
    5.7590    0.2391   17.3630 N   0  0  0  0  0  0  0  0  0  0  0  0
    4.7357    1.0323   17.5746 C   0  0  0  0  0  0  0  0  0  0  0  0
    4.2863    1.4233   18.8679 C   0  0  0  0  0  0  0  0  0  0  0  0
    3.1622    2.2723   19.0440 C   0  0  0  0  0  0  0  0  0  0  0  0
    2.7492    2.6269   20.3004 C   0  0  0  0  0  0  0  0  0  0  0  0
    3.4429    2.1441   21.4315 C   0  0  0  0  0  0  0  0  0  0  0  0
    4.5334    1.3208   21.2876 C   0  0  0  0  0  0  0  0  0  0  0  0
    4.9898    0.9411   19.9958 C   0  0  0  0  0  0  0  0  0  0  0  0
    5.0479    0.9566   22.1724 H   0  0  0  0  0  0  0  0  0  0  0  0
    3.1055    2.4255   22.4236 H   0  0  0  0  0  0  0  0  0  0  0  0
    1.8912    3.2793   20.4365 H   0  0  0  0  0  0  0  0  0  0  0  0
    2.6412    2.6427   18.1643 H   0  0  0  0  0  0  0  0  0  0  0  0
    4.1981    1.4008   16.6994 H   0  0  0  0  0  0  0  0  0  0  0  0
    7.2664   -0.8676   18.2482 H   0  0  0  0  0  0  0  0  0  0  0  0
    7.8367   -0.9159   20.5175 H   0  0  0  0  0  0  0  0  0  0  0  0
    7.2121    0.3112   21.6092 H   0  0  0  0  0  0  0  0  0  0  0  0
    5.2287   -2.5790   23.6996 C   0  0  0  0  0  0  0  0  0  0  0  0
    5.5660   -3.6115   23.5487 H   0  0  0  0  0  0  0  0  0  0  0  0
    4.2090   -2.5250   23.3093 H   0  0  0  0  0  0  0  0  0  0  0  0
    7.9835   -0.9514   23.6509 H   0  0  0  0  0  0  0  0  0  0  0  0
    6.6510    0.1941   23.8877 H   0  0  0  0  0  0  0  0  0  0  0  0
    6.6771   -0.7047   26.0702 H   0  0  0  0  0  0  0  0  0  0  0  0
    7.4352   -2.1935   25.5541 H   0  0  0  0  0  0  0  0  0  0  0  0
    5.2163   -3.4244   26.1116 C   0  0  0  0  0  0  0  0  0  0  0  0
    5.1543   -3.0770   27.5989 C   0  0  0  0  0  0  0  0  0  0  0  0
    5.0912   -3.9942   28.1992 H   0  0  0  0  0  0  0  0  0  0  0  0
    6.0867   -2.5831   27.9018 H   0  0  0  0  0  0  0  0  0  0  0  0
    4.3267   -4.0141   25.8508 H   0  0  0  0  0  0  0  0  0  0  0  0
    6.0770   -4.0773   25.9184 H   0  0  0  0  0  0  0  0  0  0  0  0
    3.1805   -1.6847   25.2419 H   0  0  0  0  0  0  0  0  0  0  0  0
    4.2220   -0.2973   24.9771 H   0  0  0  0  0  0  0  0  0  0  0  0
    3.1211   -0.2973   27.2313 H   0  0  0  0  0  0  0  0  0  0  0  0
    4.8640   -0.2821   27.3637 H   0  0  0  0  0  0  0  0  0  0  0  0
    3.0560   -2.7116   27.6474 H   0  0  0  0  0  0  0  0  0  0  0  0
    3.0367   -1.1950   29.6232 H   0  0  0  0  0  0  0  0  0  0  0  0
    3.8335   -2.7309   30.0090 H   0  0  0  0  0  0  0  0  0  0  0  0
    4.8000   -1.2837   29.7066 H   0  0  0  0  0  0  0  0  0  0  0  0
  1  2  1  0
  2  3  1  0
  3  4  1  0
  5  4  1  1
  5  6  1  0
  6  7  1  0
  7  8  1  0
  8  9  1  0
  9 10  2  0
  9 11  1  0
 11 12  1  0
 12 13  2  0
 13 14  1  0
 14 15  2  0
 15 16  1  0
 16 17  2  0
 17 18  1  0
 18 19  2  0
 19 20  1  0
 20 21  2  0
 20 22  1  0
 19 23  1  0
 18 24  1  0
 17 25  1  0
 15 26  1  0
 13 27  1  0
 11 28  1  0
 11 29  1  0
  8 30  1  0
 30 31  1  0
 30 32  1  0
  7 33  1  0
  7 34  1  0
  6 35  1  0
  6 36  1  0
  5 37  1  0
 37 38  1  0
 38 39  1  0
 38 40  1  0
 37 41  1  0
 37 42  1  0
  4 43  1  0
  4 44  1  0
  3 45  1  0
  3 46  1  0
  2 47  1  6
  1 48  1  0
  1 49  1  0
  1 50  1  0
 38  2  1  0
 30  5  1  0
 21 12  1  0
 21 16  1  0
M  END
>  <cnnaffinities>  (13) 
[5.34416, 5.53509]

>  <score>  (13) 
5.34416

>  <index>  (13) 
18

>  <Smiles>  (13) 
C([C@]1(C(C([C@@]2(C(C(N(C(=O)C(c3c(nc(c4c(c(c(c(c34)[H])[H])[H])[H])[H])[H])([H])[H])C2([H])[H])([H])[H])([H])[H])C(C1([H])[H])([H])[H])([H])[H])([H])[H])[H])([H])([H])[H]

>  <h>  (13) 
<NA>

>  <Training>  (13) 
True

>  <Success>  (13) 
True

>  <enamine_searched>  (13) 
False

>  <enamine_id>  (13) 
nan

$$$$

     RDKit          3D

 67 71  0  0  0  0  0  0  0  0999 V2000
    3.6172   -5.2703   21.8559 O   0  0  0  0  0  0  0  0  0  0  0  0
    4.1775   -5.8474   22.7784 C   0  0  0  0  0  0  0  0  0  0  0  0
    5.6912   -5.7026   22.8716 C   0  0  0  0  0  0  0  0  0  0  0  0
    5.9190   -4.2270   22.7792 N   0  0  1  0  0  4  0  0  0  0  0  0
    5.1982   -3.5950   23.9471 C   0  0  0  0  0  0  0  0  0  0  0  0
    5.5273   -2.1550   24.2333 C   0  0  0  0  0  0  0  0  0  0  0  0
    4.7283   -1.4464   25.1352 C   0  0  0  0  0  0  0  0  0  0  0  0
    5.0750   -0.1680   25.5467 C   0  0  0  0  0  0  0  0  0  0  0  0
    6.2480    0.3955   25.0494 C   0  0  0  0  0  0  0  0  0  0  0  0
    6.7251    1.9871   25.5805 Cl  0  0  0  0  0  0  0  0  0  0  0  0
    7.0263   -0.2772   24.1172 C   0  0  0  0  0  0  0  0  0  0  0  0
    6.6449   -1.5484   23.6761 C   0  0  0  0  0  0  0  0  0  0  0  0
    7.3533   -2.2438   22.5308 C   0  0  2  0  0  0  0  0  0  0  0  0
    6.6504   -1.8742   21.2143 C   0  0  0  0  0  0  0  0  0  0  0  0
    5.9767   -2.6756   20.5816 O   0  0  0  0  0  0  0  0  0  0  0  0
    6.8046   -0.5638   20.8262 N   0  0  0  0  0  0  0  0  0  0  0  0
    6.0888    0.0129   19.7498 C   0  0  0  0  0  0  0  0  0  0  0  0
    6.4319   -0.2696   18.4548 C   0  0  0  0  0  0  0  0  0  0  0  0
    5.7946    0.2304   17.3639 N   0  0  0  0  0  0  0  0  0  0  0  0
    4.7761    1.0291   17.5788 C   0  0  0  0  0  0  0  0  0  0  0  0
    4.3191    1.4136   18.8725 C   0  0  0  0  0  0  0  0  0  0  0  0
    3.1979    2.2631   19.0495 C   0  0  0  0  0  0  0  0  0  0  0  0
    2.7856    2.6085   20.3066 C   0  0  0  0  0  0  0  0  0  0  0  0
    3.4712    2.1200   21.4400 C   0  0  0  0  0  0  0  0  0  0  0  0
    4.5525    1.2857   21.2987 C   0  0  0  0  0  0  0  0  0  0  0  0
    5.0005    0.9114   20.0007 C   0  0  0  0  0  0  0  0  0  0  0  0
    5.0487    0.8962   22.1844 H   0  0  0  0  0  0  0  0  0  0  0  0
    3.1299    2.4057   22.4304 H   0  0  0  0  0  0  0  0  0  0  0  0
    1.9279    3.2593   20.4403 H   0  0  0  0  0  0  0  0  0  0  0  0
    2.6836    2.6278   18.1662 H   0  0  0  0  0  0  0  0  0  0  0  0
    4.2497    1.4145   16.7056 H   0  0  0  0  0  0  0  0  0  0  0  0
    7.2746   -0.9309   18.2686 H   0  0  0  0  0  0  0  0  0  0  0  0
    7.1638    0.0857   21.5139 H   0  0  0  0  0  0  0  0  0  0  0  0
    7.3358   -3.7670   22.6925 C   0  0  0  0  0  0  0  0  0  0  0  0
    7.8290   -4.2295   21.8351 H   0  0  0  0  0  0  0  0  0  0  0  0
    7.8862   -4.0719   23.5888 H   0  0  0  0  0  0  0  0  0  0  0  0
    8.3857   -1.8794   22.4807 H   0  0  0  0  0  0  0  0  0  0  0  0
    7.9343    0.1908   23.7483 H   0  0  0  0  0  0  0  0  0  0  0  0
    4.4629    0.3791   26.2580 H   0  0  0  0  0  0  0  0  0  0  0  0
    3.8268   -1.9039   25.5396 H   0  0  0  0  0  0  0  0  0  0  0  0
    5.4161   -4.1916   24.8414 H   0  0  0  0  0  0  0  0  0  0  0  0
    4.1236   -3.6731   23.7710 H   0  0  0  0  0  0  0  0  0  0  0  0
    5.4522   -3.9228   21.8923 H   0  0  0  0  0  0  0  0  0  0  0  0
    6.0850   -6.1038   23.8136 H   0  0  0  0  0  0  0  0  0  0  0  0
    6.1436   -6.2181   22.0175 H   0  0  0  0  0  0  0  0  0  0  0  0
    3.5144   -6.4683   23.7805 N   0  0  0  0  0  0  0  0  0  0  0  0
    2.0764   -6.7015   23.6939 C   0  0  0  0  0  0  0  0  0  0  0  0
    1.2854   -5.3847   23.6191 C   0  0  0  0  0  0  0  0  0  0  0  0
   -0.2084   -5.5767   23.5822 C   0  0  0  0  0  0  0  0  0  0  0  0
   -0.9393   -5.6141   24.7704 C   0  0  0  0  0  0  0  0  0  0  0  0
   -2.3127   -5.8323   24.7587 C   0  0  0  0  0  0  0  0  0  0  0  0
   -2.9838   -6.0158   23.5535 C   0  0  0  0  0  0  0  0  0  0  0  0
   -4.4629   -6.2485   23.5374 C   0  0  0  0  0  0  0  0  0  0  0  0
   -5.0820   -5.3337   22.7358 F   0  0  0  0  0  0  0  0  0  0  0  0
   -4.7385   -7.4768   23.0102 F   0  0  0  0  0  0  0  0  0  0  0  0
   -4.9125   -6.1925   24.5363 H   0  0  0  0  0  0  0  0  0  0  0  0
   -2.2634   -5.9793   22.3597 C   0  0  0  0  0  0  0  0  0  0  0  0
   -0.8903   -5.7574   22.3750 C   0  0  0  0  0  0  0  0  0  0  0  0
   -0.3493   -5.7127   21.4291 H   0  0  0  0  0  0  0  0  0  0  0  0
   -2.7806   -6.1080   21.4131 H   0  0  0  0  0  0  0  0  0  0  0  0
   -2.8598   -5.8405   25.7009 H   0  0  0  0  0  0  0  0  0  0  0  0
   -0.4232   -5.4620   25.7172 H   0  0  0  0  0  0  0  0  0  0  0  0
    1.5553   -4.7531   24.4770 H   0  0  0  0  0  0  0  0  0  0  0  0
    1.6275   -4.8700   22.7194 H   0  0  0  0  0  0  0  0  0  0  0  0
    1.7732   -7.2949   24.5590 H   0  0  0  0  0  0  0  0  0  0  0  0
    1.8338   -7.3001   22.8048 H   0  0  0  0  0  0  0  0  0  0  0  0
    4.0352   -6.7980   24.5746 H   0  0  0  0  0  0  0  0  0  0  0  0
  1  2  2  0
  2  3  1  0
  3  4  1  0
  4  5  1  0
  5  6  1  0
  6  7  2  0
  7  8  1  0
  8  9  2  0
  9 10  1  0
  9 11  1  0
 11 12  2  0
 12 13  1  0
 13 14  1  0
 14 15  2  0
 14 16  1  0
 16 17  1  0
 17 18  2  0
 18 19  1  0
 19 20  2  0
 20 21  1  0
 21 22  2  0
 22 23  1  0
 23 24  2  0
 24 25  1  0
 25 26  2  0
 25 27  1  0
 24 28  1  0
 23 29  1  0
 22 30  1  0
 20 31  1  0
 18 32  1  0
 16 33  1  0
 13 34  1  0
 34 35  1  0
 34 36  1  0
 13 37  1  6
 11 38  1  0
  8 39  1  0
  7 40  1  0
  5 41  1  0
  5 42  1  0
  4 43  1  6
  3 44  1  0
  3 45  1  0
  2 46  1  0
 46 47  1  0
 47 48  1  0
 48 49  1  0
 49 50  2  0
 50 51  1  0
 51 52  2  0
 52 53  1  0
 53 54  1  0
 53 55  1  0
 53 56  1  0
 52 57  1  0
 57 58  2  0
 58 59  1  0
 57 60  1  0
 51 61  1  0
 50 62  1  0
 48 63  1  0
 48 64  1  0
 47 65  1  0
 47 66  1  0
 46 67  1  0
 34  4  1  0
 58 49  1  0
 12  6  1  0
 26 17  1  0
 26 21  1  0
M  CHG  1   4   1
M  END
>  <cnnaffinities>  (14) 
[5.75286]

>  <score>  (14) 
5.75286

>  <index>  (14) 
19

>  <Smiles>  (14) 
O=C(C([N@+]1(C(c2c(c(c(Cl)c(c2[C@](C(=O)N(c2c(nc(c3c(c(c(c(c23)[H])[H])[H])[H])[H])[H])[H])(C1([H])[H])[H])[H])[H])[H])([H])[H])[H])([H])[H])N(C(C(c1c(c(c(C(F)(F)[H])c(c1[H])[H])[H])[H])([H])[H])([H])[H])[H]

>  <h>  (14) 
<NA>

>  <Training>  (14) 
True

>  <Success>  (14) 
True

>  <enamine_searched>  (14) 
False

>  <enamine_id>  (14) 
nan

$$$$

     RDKit          3D

 66 70  0  0  0  0  0  0  0  0999 V2000
    4.2683    6.1435   20.6099 C   0  0  0  0  0  0  0  0  0  0  0  0
    5.3353    5.0612   20.7893 C   0  0  0  0  0  0  0  0  0  0  0  0
    6.6683    5.7667   20.6973 C   0  0  0  0  0  0  0  0  0  0  0  0
    6.9552    6.4370   19.7269 O   0  0  0  0  0  0  0  0  0  0  0  0
    7.4548    5.8462   21.8493 N   0  0  0  0  0  0  0  0  0  0  0  0
    8.0729    7.1575   22.0218 C   0  0  0  0  0  0  0  0  0  0  0  0
    8.0575    7.5215   23.4905 C   0  0  0  0  0  0  0  0  0  0  0  0
    8.8927    6.4952   24.2497 C   0  0  0  0  0  0  0  0  0  0  0  0
    8.5466    5.0654   23.8663 C   0  0  0  0  0  0  0  0  0  0  0  0
    8.9132    3.9993   24.6907 C   0  0  0  0  0  0  0  0  0  0  0  0
    8.6602    2.6786   24.3431 C   0  0  0  0  0  0  0  0  0  0  0  0
    8.0545    2.3932   23.1160 C   0  0  0  0  0  0  0  0  0  0  0  0
    7.7994    1.0291   22.7544 N   0  0  0  0  0  0  0  0  0  0  0  0
    7.7819    0.7156   21.3882 C   0  0  0  0  0  0  0  0  0  0  0  0
    8.4111    1.3814   20.5928 O   0  0  0  0  0  0  0  0  0  0  0  0
    6.9130   -0.4386   20.9092 C   0  0  0  0  0  0  0  0  0  0  0  0
    6.0726    0.0492   19.7600 C   0  0  0  0  0  0  0  0  0  0  0  0
    6.4186   -0.2191   18.4627 C   0  0  0  0  0  0  0  0  0  0  0  0
    5.7779    0.2514   17.3628 N   0  0  0  0  0  0  0  0  0  0  0  0
    4.7501    1.0413   17.5770 C   0  0  0  0  0  0  0  0  0  0  0  0
    4.2902    1.4293   18.8653 C   0  0  0  0  0  0  0  0  0  0  0  0
    3.1652    2.2740   19.0460 C   0  0  0  0  0  0  0  0  0  0  0  0
    2.7621    2.6352   20.3023 C   0  0  0  0  0  0  0  0  0  0  0  0
    3.4661    2.1750   21.4356 C   0  0  0  0  0  0  0  0  0  0  0  0
    4.5622    1.3598   21.2870 C   0  0  0  0  0  0  0  0  0  0  0  0
    4.9872    0.9418   19.9963 C   0  0  0  0  0  0  0  0  0  0  0  0
    5.1001    1.0248   22.1703 H   0  0  0  0  0  0  0  0  0  0  0  0
    3.1410    2.4687   22.4315 H   0  0  0  0  0  0  0  0  0  0  0  0
    1.9025    3.2877   20.4331 H   0  0  0  0  0  0  0  0  0  0  0  0
    2.6475    2.6309   18.1601 H   0  0  0  0  0  0  0  0  0  0  0  0
    4.2172    1.4066   16.6988 H   0  0  0  0  0  0  0  0  0  0  0  0
    7.2747   -0.8630   18.2549 H   0  0  0  0  0  0  0  0  0  0  0  0
    6.3161   -0.8302   21.7338 H   0  0  0  0  0  0  0  0  0  0  0  0
    7.5894   -1.2350   20.5798 H   0  0  0  0  0  0  0  0  0  0  0  0
    7.5331    0.0728   23.7344 N   0  0  0  0  0  0  0  0  0  0  0  0
    6.3941    0.2962   24.5946 C   0  0  0  0  0  0  0  0  0  0  0  0
    6.6452    0.0032   25.6201 H   0  0  0  0  0  0  0  0  0  0  0  0
    5.5081   -0.2721   24.2779 H   0  0  0  0  0  0  0  0  0  0  0  0
    6.1343    1.3585   24.5913 H   0  0  0  0  0  0  0  0  0  0  0  0
    8.3005   -1.1013   23.8729 C   0  0  0  0  0  0  0  0  0  0  0  0
    9.6610   -1.1326   23.5579 C   0  0  0  0  0  0  0  0  0  0  0  0
   10.4003   -2.2979   23.6386 C   0  0  0  0  0  0  0  0  0  0  0  0
    9.8122   -3.4754   24.0840 C   0  0  0  0  0  0  0  0  0  0  0  0
    8.4724   -3.4515   24.4384 C   0  0  0  0  0  0  0  0  0  0  0  0
    7.7193   -4.9236   25.0158 Cl  0  0  0  0  0  0  0  0  0  0  0  0
    7.7170   -2.2857   24.3550 C   0  0  0  0  0  0  0  0  0  0  0  0
    6.6817   -2.3181   24.6670 H   0  0  0  0  0  0  0  0  0  0  0  0
   10.3811   -4.3887   24.1796 H   0  0  0  0  0  0  0  0  0  0  0  0
   11.4507   -2.2676   23.3513 H   0  0  0  0  0  0  0  0  0  0  0  0
   10.1803   -0.2423   23.2926 H   0  0  0  0  0  0  0  0  0  0  0  0
    7.6670    3.4386   22.2738 C   0  0  0  0  0  0  0  0  0  0  0  0
    7.8683    4.7715   22.6668 C   0  0  0  0  0  0  0  0  0  0  0  0
    7.2272    3.2220   21.3054 H   0  0  0  0  0  0  0  0  0  0  0  0
    8.9039    1.8577   25.0114 H   0  0  0  0  0  0  0  0  0  0  0  0
    9.4017    4.2125   25.6418 H   0  0  0  0  0  0  0  0  0  0  0  0
    8.7838    6.6205   25.3349 H   0  0  0  0  0  0  0  0  0  0  0  0
    9.9534    6.6806   24.0207 H   0  0  0  0  0  0  0  0  0  0  0  0
    8.4409    8.5386   23.6362 H   0  0  0  0  0  0  0  0  0  0  0  0
    7.0192    7.5067   23.8413 H   0  0  0  0  0  0  0  0  0  0  0  0
    9.0867    7.1391   21.5996 H   0  0  0  0  0  0  0  0  0  0  0  0
    7.4749    7.8506   21.4279 H   0  0  0  0  0  0  0  0  0  0  0  0
    5.2264    4.2878   20.0240 H   0  0  0  0  0  0  0  0  0  0  0  0
    5.2507    4.5574   21.7519 H   0  0  0  0  0  0  0  0  0  0  0  0
    4.3522    6.9157   21.3823 H   0  0  0  0  0  0  0  0  0  0  0  0
    4.4248    6.6351   19.6485 H   0  0  0  0  0  0  0  0  0  0  0  0
    3.2581    5.7314   20.6412 H   0  0  0  0  0  0  0  0  0  0  0  0
  1  2  1  0
  2  3  1  0
  3  4  2  0
  3  5  1  0
  5  6  1  0
  6  7  1  0
  7  8  1  0
  8  9  1  0
  9 10  2  0
 10 11  1  0
 11 12  2  0
 12 13  1  0
 13 14  1  0
 14 15  2  0
 14 16  1  0
 16 17  1  0
 17 18  2  0
 18 19  1  0
 19 20  2  0
 20 21  1  0
 21 22  2  0
 22 23  1  0
 23 24  2  0
 24 25  1  0
 25 26  2  0
 25 27  1  0
 24 28  1  0
 23 29  1  0
 22 30  1  0
 20 31  1  0
 18 32  1  0
 16 33  1  0
 16 34  1  0
 13 35  1  0
 35 36  1  0
 36 37  1  0
 36 38  1  0
 36 39  1  0
 35 40  1  0
 40 41  2  0
 41 42  1  0
 42 43  2  0
 43 44  1  0
 44 45  1  0
 44 46  2  0
 46 47  1  0
 43 48  1  0
 42 49  1  0
 41 50  1  0
 12 51  1  0
 51 52  2  0
 51 53  1  0
 11 54  1  0
 10 55  1  0
  8 56  1  0
  8 57  1  0
  7 58  1  0
  7 59  1  0
  6 60  1  0
  6 61  1  0
  2 62  1  0
  2 63  1  0
  1 64  1  0
  1 65  1  0
  1 66  1  0
 52  5  1  0
 52  9  1  0
 26 17  1  0
 46 40  1  0
 26 21  1  0
M  END
>  <cnnaffinities>  (15) 
[7.051]

>  <score>  (15) 
7.051

>  <index>  (15) 
20

>  <Smiles>  (15) 
C(C(C(=O)N1C(C(C(c2c(c(c(N(C(=O)C(c3c(nc(c4c(c(c(c(c34)[H])[H])[H])[H])[H])[H])([H])[H])N(C([H])([H])[H])c3c(c(c(c(Cl)c3[H])[H])[H])[H])c(c12)[H])[H])[H])([H])[H])([H])[H])([H])[H])([H])[H])([H])([H])[H]

>  <h>  (15) 
<NA>

>  <Training>  (15) 
True

>  <Success>  (15) 
True

>  <enamine_searched>  (15) 
False

>  <enamine_id>  (15) 
nan

$$$$

     RDKit          3D

 41 44  0  0  0  0  0  0  0  0999 V2000
    5.6289   -2.5268   20.9376 O   0  0  0  0  0  0  0  0  0  0  0  0
    6.1272   -1.6406   21.6077 C   0  0  0  0  0  0  0  0  0  0  0  0
    6.9044   -0.4928   20.9194 C   0  0  0  0  0  0  0  0  0  0  0  0
    6.1147    0.0916   19.7659 C   0  0  0  0  0  0  0  0  0  0  0  0
    6.4230   -0.2139   18.4656 C   0  0  0  0  0  0  0  0  0  0  0  0
    5.7594    0.2397   17.3649 N   0  0  0  0  0  0  0  0  0  0  0  0
    4.7363    1.0322   17.5765 C   0  0  0  0  0  0  0  0  0  0  0  0
    4.2868    1.4228   18.8664 C   0  0  0  0  0  0  0  0  0  0  0  0
    3.1634    2.2691   19.0452 C   0  0  0  0  0  0  0  0  0  0  0  0
    2.7484    2.6252   20.2995 C   0  0  0  0  0  0  0  0  0  0  0  0
    3.4439    2.1432   21.4320 C   0  0  0  0  0  0  0  0  0  0  0  0
    4.5346    1.3215   21.2878 C   0  0  0  0  0  0  0  0  0  0  0  0
    4.9912    0.9416   19.9973 C   0  0  0  0  0  0  0  0  0  0  0  0
    5.0486    0.9551   22.1731 H   0  0  0  0  0  0  0  0  0  0  0  0
    3.1065    2.4266   22.4238 H   0  0  0  0  0  0  0  0  0  0  0  0
    1.8900    3.2785   20.4347 H   0  0  0  0  0  0  0  0  0  0  0  0
    2.6459    2.6389   18.1630 H   0  0  0  0  0  0  0  0  0  0  0  0
    4.2006    1.4001   16.6985 H   0  0  0  0  0  0  0  0  0  0  0  0
    7.2657   -0.8675   18.2439 H   0  0  0  0  0  0  0  0  0  0  0  0
    7.8332   -0.9210   20.5208 H   0  0  0  0  0  0  0  0  0  0  0  0
    7.1923    0.2941   21.6286 H   0  0  0  0  0  0  0  0  0  0  0  0
    5.9641   -1.6042   22.9793 N   0  0  0  0  0  0  0  0  0  0  0  0
    6.9117   -0.9608   23.8755 C   0  0  0  0  0  0  0  0  0  0  0  0
    6.8950   -1.5904   25.2670 C   0  0  0  0  0  0  0  0  0  0  0  0
    5.5031   -1.6243   25.8333 C   0  0  0  0  0  0  0  0  0  0  0  0
    5.1946   -1.4012   27.1774 C   0  0  0  0  0  0  0  0  0  0  0  0
    6.4623   -1.0413   28.3209 Cl  0  0  0  0  0  0  0  0  0  0  0  0
    3.8943   -1.4610   27.6608 C   0  0  0  0  0  0  0  0  0  0  0  0
    2.8727   -1.7718   26.7738 C   0  0  0  0  0  0  0  0  0  0  0  0
    3.1591   -2.0146   25.4352 C   0  0  0  0  0  0  0  0  0  0  0  0
    4.4653   -1.9390   24.9554 C   0  0  0  0  0  0  0  0  0  0  0  0
    4.7815   -2.2803   23.5135 C   0  0  0  0  0  0  0  0  0  0  0  0
    3.9230   -2.0155   22.8942 H   0  0  0  0  0  0  0  0  0  0  0  0
    4.8859   -3.3647   23.3907 H   0  0  0  0  0  0  0  0  0  0  0  0
    2.3499   -2.2805   24.7625 H   0  0  0  0  0  0  0  0  0  0  0  0
    1.8532   -1.8308   27.1410 H   0  0  0  0  0  0  0  0  0  0  0  0
    3.6978   -1.2740   28.7133 H   0  0  0  0  0  0  0  0  0  0  0  0
    7.5634   -1.0289   25.9187 H   0  0  0  0  0  0  0  0  0  0  0  0
    7.2987   -2.6080   25.2231 H   0  0  0  0  0  0  0  0  0  0  0  0
    7.9145   -1.0564   23.4516 H   0  0  0  0  0  0  0  0  0  0  0  0
    6.6934    0.1124   23.9643 H   0  0  0  0  0  0  0  0  0  0  0  0
  1  2  2  0
  2  3  1  0
  3  4  1  0
  4  5  2  0
  5  6  1  0
  6  7  2  0
  7  8  1  0
  8  9  2  0
  9 10  1  0
 10 11  2  0
 11 12  1  0
 12 13  2  0
 12 14  1  0
 11 15  1  0
 10 16  1  0
  9 17  1  0
  7 18  1  0
  5 19  1  0
  3 20  1  0
  3 21  1  0
  2 22  1  0
 22 23  1  0
 23 24  1  0
 24 25  1  0
 25 26  2  0
 26 27  1  0
 26 28  1  0
 28 29  2  0
 29 30  1  0
 30 31  2  0
 31 32  1  0
 32 33  1  0
 32 34  1  0
 30 35  1  0
 29 36  1  0
 28 37  1  0
 24 38  1  0
 24 39  1  0
 23 40  1  0
 23 41  1  0
 13  4  1  0
 32 22  1  0
 13  8  1  0
 31 25  1  0
M  END
>  <cnnaffinities>  (16) 
[5.23369, 5.27266]

>  <score>  (16) 
5.23369

>  <index>  (16) 
22

>  <Smiles>  (16) 
O=C(C(c1c(nc(c2c(c(c(c(c12)[H])[H])[H])[H])[H])[H])([H])[H])N1C(C(c2c(Cl)c(c(c(c2C1([H])[H])[H])[H])[H])([H])[H])([H])[H]

>  <h>  (16) 
<NA>

>  <Training>  (16) 
True

>  <Success>  (16) 
True

>  <enamine_searched>  (16) 
False

>  <enamine_id>  (16) 
nan

$$$$

     RDKit          3D

 69 74  0  0  0  0  0  0  0  0999 V2000
    1.7181   -8.5959   24.3531 C   0  0  0  0  0  0  0  0  0  0  0  0
    2.1600   -7.8208   23.1283 C   0  0  1  0  0  0  0  0  0  0  0  0
    3.1275   -6.7062   23.5372 C   0  0  0  0  0  0  0  0  0  0  0  0
    3.7236   -6.0621   22.3120 N   0  0  1  0  0  4  0  0  0  0  0  0
    4.5098   -4.8266   22.5753 C   0  0  0  0  0  0  0  0  0  0  0  0
    5.7649   -5.0091   23.4289 C   0  0  0  0  0  0  0  0  0  0  0  0
    6.2772   -3.7140   23.8422 N   0  0  0  0  0  0  0  0  0  0  0  0
    7.4402   -3.1432   23.1990 C   0  0  0  0  0  0  0  0  0  0  0  0
    7.2796   -1.6398   22.8805 C   0  0  2  0  0  0  0  0  0  0  0  0
    6.2970   -1.4369   21.7094 C   0  0  0  0  0  0  0  0  0  0  0  0
    5.1994   -1.9422   21.5823 O   0  0  0  0  0  0  0  0  0  0  0  0
    6.8519   -0.5601   20.8121 N   0  0  0  0  0  0  0  0  0  0  0  0
    6.1012    0.0241   19.7600 C   0  0  0  0  0  0  0  0  0  0  0  0
    6.4576   -0.2243   18.4598 C   0  0  0  0  0  0  0  0  0  0  0  0
    5.8007    0.2532   17.3732 N   0  0  0  0  0  0  0  0  0  0  0  0
    4.7653    1.0259   17.5962 C   0  0  0  0  0  0  0  0  0  0  0  0
    4.3072    1.3946   18.8920 C   0  0  0  0  0  0  0  0  0  0  0  0
    3.1933    2.2570   19.0628 C   0  0  0  0  0  0  0  0  0  0  0  0
    2.7995    2.6427   20.3107 C   0  0  0  0  0  0  0  0  0  0  0  0
    3.5052    2.1847   21.4490 C   0  0  0  0  0  0  0  0  0  0  0  0
    4.5784    1.3389   21.3173 C   0  0  0  0  0  0  0  0  0  0  0  0
    4.9987    0.9028   20.0247 C   0  0  0  0  0  0  0  0  0  0  0  0
    5.1094    0.9988   22.2090 H   0  0  0  0  0  0  0  0  0  0  0  0
    3.1845    2.5058   22.4352 H   0  0  0  0  0  0  0  0  0  0  0  0
    1.9503    3.3091   20.4388 H   0  0  0  0  0  0  0  0  0  0  0  0
    2.6786    2.6124   18.1720 H   0  0  0  0  0  0  0  0  0  0  0  0
    4.2324    1.4075   16.7238 H   0  0  0  0  0  0  0  0  0  0  0  0
    7.3108   -0.8692   18.2524 H   0  0  0  0  0  0  0  0  0  0  0  0
    8.1796   -0.1110   21.1603 C   0  0  0  0  0  0  0  0  0  0  0  0
    8.6010   -0.9975   22.3580 C   0  0  2  0  0  0  0  0  0  0  0  0
    9.7099   -1.9813   21.9535 C   0  0  0  0  0  0  0  0  0  0  0  0
   10.6399   -1.4438   21.7591 H   0  0  0  0  0  0  0  0  0  0  0  0
    9.4411   -2.5524   21.0568 H   0  0  0  0  0  0  0  0  0  0  0  0
    9.9413   -2.6888   22.7523 H   0  0  0  0  0  0  0  0  0  0  0  0
    9.0245   -0.3874   23.1639 H   0  0  0  0  0  0  0  0  0  0  0  0
    8.1695    0.9623   21.4045 H   0  0  0  0  0  0  0  0  0  0  0  0
    8.8606   -0.2387   20.3162 H   0  0  0  0  0  0  0  0  0  0  0  0
    6.7436   -0.9348   24.1228 C   0  0  0  0  0  0  0  0  0  0  0  0
    6.9365    0.4420   24.3163 C   0  0  0  0  0  0  0  0  0  0  0  0
    6.4287    1.0623   25.4464 C   0  0  0  0  0  0  0  0  0  0  0  0
    6.7020    2.7678   25.6851 Cl  0  0  0  0  0  0  0  0  0  0  0  0
    5.7091    0.3532   26.4060 C   0  0  0  0  0  0  0  0  0  0  0  0
    5.4874   -0.9943   26.1998 C   0  0  0  0  0  0  0  0  0  0  0  0
    5.9895   -1.6355   25.0690 C   0  0  0  0  0  0  0  0  0  0  0  0
    5.6493   -3.0839   24.8762 C   0  0  0  0  0  0  0  0  0  0  0  0
    4.8185   -3.6484   25.5808 O   0  0  0  0  0  0  0  0  0  0  0  0
    4.9153   -1.5840   26.9068 H   0  0  0  0  0  0  0  0  0  0  0  0
    5.3274    0.8661   27.2824 H   0  0  0  0  0  0  0  0  0  0  0  0
    7.4850    1.0505   23.6016 H   0  0  0  0  0  0  0  0  0  0  0  0
    7.6291   -3.6865   22.2705 H   0  0  0  0  0  0  0  0  0  0  0  0
    8.3142   -3.2591   23.8550 H   0  0  0  0  0  0  0  0  0  0  0  0
    5.5559   -5.5812   24.3354 H   0  0  0  0  0  0  0  0  0  0  0  0
    6.5428   -5.5357   22.8647 H   0  0  0  0  0  0  0  0  0  0  0  0
    4.7943   -4.3840   21.6177 H   0  0  0  0  0  0  0  0  0  0  0  0
    3.8437   -4.1239   23.0789 H   0  0  0  0  0  0  0  0  0  0  0  0
    4.4207   -7.1296   21.5113 C   0  0  0  0  0  0  0  0  0  0  0  0
    3.3723   -8.1675   21.1084 C   0  0  0  0  0  0  0  0  0  0  0  0
    2.7550   -8.7424   22.2408 O   0  0  0  0  0  0  0  0  0  0  0  0
    3.8187   -9.0050   20.5716 H   0  0  0  0  0  0  0  0  0  0  0  0
    2.6031   -7.7429   20.4445 H   0  0  0  0  0  0  0  0  0  0  0  0
    4.9149   -6.7037   20.6349 H   0  0  0  0  0  0  0  0  0  0  0  0
    5.1907   -7.5891   22.1328 H   0  0  0  0  0  0  0  0  0  0  0  0
    2.9135   -5.7380   21.7496 H   0  0  0  0  0  0  0  0  0  0  0  0
    2.6034   -5.9468   24.1305 H   0  0  0  0  0  0  0  0  0  0  0  0
    3.9479   -7.1212   24.1336 H   0  0  0  0  0  0  0  0  0  0  0  0
    1.2997   -7.3487   22.6220 H   0  0  0  0  0  0  0  0  0  0  0  0
    1.1746   -9.4964   24.0605 H   0  0  0  0  0  0  0  0  0  0  0  0
    2.5944   -8.9038   24.9371 H   0  0  0  0  0  0  0  0  0  0  0  0
    1.0806   -7.9731   24.9866 H   0  0  0  0  0  0  0  0  0  0  0  0
  1  2  1  0
  2  3  1  0
  3  4  1  0
  4  5  1  0
  5  6  1  0
  6  7  1  0
  7  8  1  0
  9  8  1  1
  9 10  1  0
 10 11  2  0
 10 12  1  0
 12 13  1  0
 13 14  2  0
 14 15  1  0
 15 16  2  0
 16 17  1  0
 17 18  2  0
 18 19  1  0
 19 20  2  0
 20 21  1  0
 21 22  2  0
 21 23  1  0
 20 24  1  0
 19 25  1  0
 18 26  1  0
 16 27  1  0
 14 28  1  0
 12 29  1  0
 29 30  1  0
 30 31  1  0
 31 32  1  0
 31 33  1  0
 31 34  1  0
 30 35  1  1
 29 36  1  0
 29 37  1  0
  9 38  1  0
 38 39  2  0
 39 40  1  0
 40 41  1  0
 40 42  2  0
 42 43  1  0
 43 44  2  0
 44 45  1  0
 45 46  2  0
 43 47  1  0
 42 48  1  0
 39 49  1  0
  8 50  1  0
  8 51  1  0
  6 52  1  0
  6 53  1  0
  5 54  1  0
  5 55  1  0
  4 56  1  0
 56 57  1  0
 57 58  1  0
 57 59  1  0
 57 60  1  0
 56 61  1  0
 56 62  1  0
  4 63  1  6
  3 64  1  0
  3 65  1  0
  2 66  1  6
  1 67  1  0
  1 68  1  0
  1 69  1  0
 58  2  1  0
 45  7  1  0
 30  9  1  0
 44 38  1  0
 22 13  1  0
 22 17  1  0
M  CHG  1   4   1
M  END
>  <cnnaffinities>  (17) 
[6.29472]

>  <score>  (17) 
6.29472

>  <index>  (17) 
23

>  <Smiles>  (17) 
C([C@]1(C([N@@+](C(C(N2C([C@@]3(C(=O)N(c4c(nc(c5c(c(c(c(c45)[H])[H])[H])[H])[H])[H])C([C@@]3(C([H])([H])[H])[H])([H])[H])c3c(c(Cl)c(c(c3C2=O)[H])[H])[H])([H])[H])([H])[H])([H])[H])(C(C(O1)([H])[H])([H])[H])[H])([H])[H])[H])([H])([H])[H]

>  <h>  (17) 
<NA>

>  <Training>  (17) 
True

>  <Success>  (17) 
True

>  <enamine_searched>  (17) 
False

>  <enamine_id>  (17) 
nan

$$$$

     RDKit          3D

 70 75  0  0  0  0  0  0  0  0999 V2000
    4.6410   -7.8049   24.0028 C   0  0  0  0  0  0  0  0  0  0  0  0
    5.9964   -7.4382   23.5394 N   0  0  0  0  0  4  0  0  0  0  0  0
    6.4327   -6.1015   24.0406 C   0  0  0  0  0  0  0  0  0  0  0  0
    5.6956   -4.9496   23.3438 C   0  0  0  0  0  0  0  0  0  0  0  0
    6.1721   -3.6625   23.7919 N   0  0  0  0  0  0  0  0  0  0  0  0
    7.4013   -3.1450   23.2310 C   0  0  0  0  0  0  0  0  0  0  0  0
    7.2692   -1.6478   22.8901 C   0  0  2  0  0  0  0  0  0  0  0  0
    6.3093   -1.4737   21.6894 C   0  0  0  0  0  0  0  0  0  0  0  0
    5.2456   -2.0308   21.5043 O   0  0  0  0  0  0  0  0  0  0  0  0
    6.8579   -0.5573   20.8246 N   0  0  0  0  0  0  0  0  0  0  0  0
    6.1081    0.0277   19.7741 C   0  0  0  0  0  0  0  0  0  0  0  0
    6.4681   -0.2210   18.4742 C   0  0  0  0  0  0  0  0  0  0  0  0
    5.8128    0.2531   17.3860 N   0  0  0  0  0  0  0  0  0  0  0  0
    4.7739    1.0235   17.6056 C   0  0  0  0  0  0  0  0  0  0  0  0
    4.3145    1.3922   18.9015 C   0  0  0  0  0  0  0  0  0  0  0  0
    3.1971    2.2508   19.0630 C   0  0  0  0  0  0  0  0  0  0  0  0
    2.7984    2.6401   20.3098 C   0  0  0  0  0  0  0  0  0  0  0  0
    3.5008    2.1880   21.4503 C   0  0  0  0  0  0  0  0  0  0  0  0
    4.5780    1.3434   21.3279 C   0  0  0  0  0  0  0  0  0  0  0  0
    5.0040    0.9059   20.0356 C   0  0  0  0  0  0  0  0  0  0  0  0
    5.1068    1.0148   22.2243 H   0  0  0  0  0  0  0  0  0  0  0  0
    3.1766    2.5138   22.4339 H   0  0  0  0  0  0  0  0  0  0  0  0
    1.9479    3.3052   20.4310 H   0  0  0  0  0  0  0  0  0  0  0  0
    2.6864    2.6013   18.1697 H   0  0  0  0  0  0  0  0  0  0  0  0
    4.2409    1.4054   16.7340 H   0  0  0  0  0  0  0  0  0  0  0  0
    7.3221   -0.8652   18.2700 H   0  0  0  0  0  0  0  0  0  0  0  0
    8.1784   -0.1022   21.1939 C   0  0  0  0  0  0  0  0  0  0  0  0
    8.5908   -0.9883   22.3921 C   0  0  2  0  0  0  0  0  0  0  0  0
    9.7391   -1.9196   21.9362 C   0  0  0  0  0  0  0  0  0  0  0  0
   10.1690   -2.8220   22.8934 O   0  0  0  0  0  0  0  0  0  0  0  0
   11.3679   -2.2091   23.6333 C   0  0  0  0  0  0  0  0  0  0  0  0
   12.0202   -2.9789   24.7923 C   0  0  0  0  0  0  0  0  0  0  0  0
   12.0076   -3.0888   24.5352 C   0  0  0  0  0  0  0  0  0  0  0  0
   14.5852   -3.1401   25.3512 O   0  0  0  0  0  0  0  0  0  0  0  0
   13.3284   -2.5267   25.0492 C   0  0  0  0  0  0  0  0  0  0  0  0
   13.2773   -2.2487   26.0762 H   0  0  0  0  0  0  0  0  0  0  0  0
   13.7448   -1.6913   24.4824 H   0  0  0  0  0  0  0  0  0  0  0  0
   11.2180   -4.3007   25.2308 H   0  0  0  0  0  0  0  0  0  0  0  0
   12.1366   -3.8351   23.5416 H   0  0  0  0  0  0  0  0  0  0  0  0
   11.6903   -2.5326   25.8637 H   0  0  0  0  0  0  0  0  0  0  0  0
   12.0028   -2.2131   22.7524 H   0  0  0  0  0  0  0  0  0  0  0  0
   11.0153   -1.1886   23.8638 H   0  0  0  0  0  0  0  0  0  0  0  0
   10.5902   -1.2799   21.6956 H   0  0  0  0  0  0  0  0  0  0  0  0
    9.4172   -2.4587   21.0200 H   0  0  0  0  0  0  0  0  0  0  0  0
    9.0034   -0.3937   23.2155 H   0  0  0  0  0  0  0  0  0  0  0  0
    8.8723   -0.2255   20.3589 H   0  0  0  0  0  0  0  0  0  0  0  0
    8.1629    0.9695   21.4399 H   0  0  0  0  0  0  0  0  0  0  0  0
    6.7045   -0.9329   24.1230 C   0  0  0  0  0  0  0  0  0  0  0  0
    6.9005    0.4422   24.3191 C   0  0  0  0  0  0  0  0  0  0  0  0
    6.4091    1.0620   25.4576 C   0  0  0  0  0  0  0  0  0  0  0  0
    6.6999    2.7633   25.6969 Cl  0  0  0  0  0  0  0  0  0  0  0  0
    5.6969    0.3556   26.4234 C   0  0  0  0  0  0  0  0  0  0  0  0
    5.4598   -0.9884   26.2129 C   0  0  0  0  0  0  0  0  0  0  0  0
    5.9393   -1.6267   25.0699 C   0  0  0  0  0  0  0  0  0  0  0  0
    5.5792   -3.0691   24.8659 C   0  0  0  0  0  0  0  0  0  0  0  0
    4.7817   -3.6582   25.5866 O   0  0  0  0  0  0  0  0  0  0  0  0
    4.8949   -1.5783   26.9260 H   0  0  0  0  0  0  0  0  0  0  0  0
    5.3317    0.8647   27.3083 H   0  0  0  0  0  0  0  0  0  0  0  0
    7.4437    1.0510   23.6029 H   0  0  0  0  0  0  0  0  0  0  0  0
    7.6199   -3.7014   22.3184 H   0  0  0  0  0  0  0  0  0  0  0  0
    8.2275   -3.2897   23.9334 H   0  0  0  0  0  0  0  0  0  0  0  0
    5.8419   -4.9878   22.2535 H   0  0  0  0  0  0  0  0  0  0  0  0
    4.6212   -4.9766   23.5462 H   0  0  0  0  0  0  0  0  0  0  0  0
    7.5078   -6.0199   23.8892 H   0  0  0  0  0  0  0  0  0  0  0  0
    6.2355   -6.0437   25.1121 H   0  0  0  0  0  0  0  0  0  0  0  0
    5.9733   -7.3792   22.4928 H   0  0  0  0  0  0  0  0  0  0  0  0
    6.6652   -8.1782   23.8280 H   0  0  0  0  0  0  0  0  0  0  0  0
    4.5332   -7.5744   25.0635 H   0  0  0  0  0  0  0  0  0  0  0  0
    3.8739   -7.2473   23.4637 H   0  0  0  0  0  0  0  0  0  0  0  0
    4.4645   -8.8662   23.8525 H   0  0  0  0  0  0  0  0  0  0  0  0
  1  2  1  0
  2  3  1  0
  3  4  1  0
  4  5  1  0
  5  6  1  0
  7  6  1  1
  7  8  1  0
  8  9  2  0
  8 10  1  0
 10 11  1  0
 11 12  2  0
 12 13  1  0
 13 14  2  0
 14 15  1  0
 15 16  2  0
 16 17  1  0
 17 18  2  0
 18 19  1  0
 19 20  2  0
 19 21  1  0
 18 22  1  0
 17 23  1  0
 16 24  1  0
 14 25  1  0
 12 26  1  0
 10 27  1  0
 27 28  1  0
 28 29  1  0
 29 30  1  0
 30 31  1  0
 31 32  1  0
 32 33  1  0
 33 34  1  0
 34 35  1  0
 35 36  1  0
 35 37  1  0
 33 38  1  0
 33 39  1  0
 32 40  1  0
 31 41  1  0
 31 42  1  0
 29 43  1  0
 29 44  1  0
 28 45  1  1
 27 46  1  0
 27 47  1  0
  7 48  1  0
 48 49  2  0
 49 50  1  0
 50 51  1  0
 50 52  2  0
 52 53  1  0
 53 54  2  0
 54 55  1  0
 55 56  2  0
 53 57  1  0
 52 58  1  0
 49 59  1  0
  6 60  1  0
  6 61  1  0
  4 62  1  0
  4 63  1  0
  3 64  1  0
  3 65  1  0
  2 66  1  0
  2 67  1  0
  1 68  1  0
  1 69  1  0
  1 70  1  0
 55  5  1  0
 28  7  1  0
 35 32  1  0
 54 48  1  0
 20 11  1  0
 20 15  1  0
M  CHG  1   2   1
M  END
>  <cnnaffinities>  (18) 
[6.90902]

>  <score>  (18) 
6.90902

>  <index>  (18) 
24

>  <Smiles>  (18) 
C([N+](C(C(N1C([C@@]2(C(=O)N(c3c(nc(c4c(c(c(c(c34)[H])[H])[H])[H])[H])[H])C([C@@]2(C(OC(C2(C(OC2([H])[H])([H])[H])[H])([H])[H])([H])[H])[H])([H])[H])c2c(c(Cl)c(c(c2C1=O)[H])[H])[H])([H])[H])([H])[H])([H])[H])([H])[H])([H])([H])[H]

>  <h>  (18) 
<NA>

>  <Training>  (18) 
True

>  <Success>  (18) 
True

>  <enamine_searched>  (18) 
False

>  <enamine_id>  (18) 
nan

$$$$

     RDKit          3D

 43 47  0  0  0  0  0  0  0  0999 V2000
    8.8520    0.4561   20.4573 O   0  0  0  0  0  0  0  0  0  0  0  0
    8.2181   -0.4265   20.9821 C   0  0  0  0  0  0  0  0  0  0  0  0
    8.6159   -1.4240   21.8295 N   0  0  0  0  0  0  0  0  0  0  0  0
    7.5122   -2.0965   22.4812 C   0  0  1  0  0  0  0  0  0  0  0  0
    7.5748   -3.6391   22.5381 C   0  0  0  0  0  0  0  0  0  0  0  0
    7.6720   -3.5893   24.0982 C   0  0  2  0  0  0  0  0  0  0  0  0
    6.6099   -4.3422   24.8364 C   0  0  0  0  0  0  0  0  0  0  0  0
    5.2614   -4.0986   24.5575 C   0  0  0  0  0  0  0  0  0  0  0  0
    4.2554   -4.7871   25.2249 C   0  0  0  0  0  0  0  0  0  0  0  0
    4.5827   -5.7419   26.1872 C   0  0  0  0  0  0  0  0  0  0  0  0
    5.9164   -6.0032   26.4766 C   0  0  0  0  0  0  0  0  0  0  0  0
    6.9093   -5.3041   25.8012 C   0  0  0  0  0  0  0  0  0  0  0  0
    8.5688   -5.6706   26.2015 Cl  0  0  0  0  0  0  0  0  0  0  0  0
    6.2087   -6.7375   27.2218 H   0  0  0  0  0  0  0  0  0  0  0  0
    3.8003   -6.2817   26.7142 H   0  0  0  0  0  0  0  0  0  0  0  0
    3.2160   -4.5730   24.9918 H   0  0  0  0  0  0  0  0  0  0  0  0
    5.0104   -3.3525   23.8007 H   0  0  0  0  0  0  0  0  0  0  0  0
    7.4901   -2.0368   24.0356 C   0  0  0  0  0  0  0  0  0  0  0  0
    8.3053   -1.4453   24.4663 H   0  0  0  0  0  0  0  0  0  0  0  0
    6.5523   -1.6620   24.4652 H   0  0  0  0  0  0  0  0  0  0  0  0
    8.6621   -3.8771   24.4614 H   0  0  0  0  0  0  0  0  0  0  0  0
    8.4376   -4.0527   22.0090 H   0  0  0  0  0  0  0  0  0  0  0  0
    6.6675   -4.1173   22.1501 H   0  0  0  0  0  0  0  0  0  0  0  0
    6.3180   -1.5147   21.7457 C   0  0  0  0  0  0  0  0  0  0  0  0
    5.1502   -1.7907   21.9182 O   0  0  0  0  0  0  0  0  0  0  0  0
    6.8256   -0.5817   20.8405 N   0  0  0  0  0  0  0  0  0  0  0  0
    6.1071    0.0395   19.7807 C   0  0  0  0  0  0  0  0  0  0  0  0
    6.4586   -0.2311   18.4795 C   0  0  0  0  0  0  0  0  0  0  0  0
    5.7901    0.2348   17.3964 N   0  0  0  0  0  0  0  0  0  0  0  0
    4.7623    1.0170   17.6148 C   0  0  0  0  0  0  0  0  0  0  0  0
    4.3133    1.4109   18.9040 C   0  0  0  0  0  0  0  0  0  0  0  0
    3.1908    2.2665   19.0644 C   0  0  0  0  0  0  0  0  0  0  0  0
    2.7859    2.6486   20.3117 C   0  0  0  0  0  0  0  0  0  0  0  0
    3.4934    2.1932   21.4460 C   0  0  0  0  0  0  0  0  0  0  0  0
    4.5793    1.3615   21.3173 C   0  0  0  0  0  0  0  0  0  0  0  0
    5.0106    0.9293   20.0323 C   0  0  0  0  0  0  0  0  0  0  0  0
    5.1046    1.0125   22.2004 H   0  0  0  0  0  0  0  0  0  0  0  0
    3.1666    2.4991   22.4338 H   0  0  0  0  0  0  0  0  0  0  0  0
    1.9301    3.3082   20.4355 H   0  0  0  0  0  0  0  0  0  0  0  0
    2.6792    2.6154   18.1726 H   0  0  0  0  0  0  0  0  0  0  0  0
    4.2290    1.3785   16.7379 H   0  0  0  0  0  0  0  0  0  0  0  0
    7.3040   -0.8788   18.2559 H   0  0  0  0  0  0  0  0  0  0  0  0
    9.5778   -1.5852   22.0822 H   0  0  0  0  0  0  0  0  0  0  0  0
  1  2  2  0
  2  3  1  0
  4  3  1  6
  4  5  1  0
  5  6  1  0
  6  7  1  0
  7  8  2  0
  8  9  1  0
  9 10  2  0
 10 11  1  0
 11 12  2  0
 12 13  1  0
 11 14  1  0
 10 15  1  0
  9 16  1  0
  8 17  1  0
  6 18  1  0
 18 19  1  0
 18 20  1  0
  6 21  1  6
  5 22  1  0
  5 23  1  0
  4 24  1  0
 24 25  2  0
 24 26  1  0
 26 27  1  0
 27 28  2  0
 28 29  1  0
 29 30  2  0
 30 31  1  0
 31 32  2  0
 32 33  1  0
 33 34  2  0
 34 35  1  0
 35 36  2  0
 35 37  1  0
 34 38  1  0
 33 39  1  0
 32 40  1  0
 30 41  1  0
 28 42  1  0
  3 43  1  0
 26  2  1  0
 36 27  1  0
 18  4  1  0
 36 31  1  0
 12  7  1  0
M  END
>  <cnnaffinities>  (19) 
[5.84477]

>  <score>  (19) 
5.84477

>  <index>  (19) 
26

>  <Smiles>  (19) 
O=C1N([C@]2(C([C@](c3c(c(c(c(c3Cl)[H])[H])[H])[H])(C2([H])[H])[H])([H])[H])C(=O)N1c1c(nc(c2c(c(c(c(c12)[H])[H])[H])[H])[H])[H])[H]

>  <h>  (19) 
<NA>

>  <Training>  (19) 
True

>  <Success>  (19) 
True

>  <enamine_searched>  (19) 
False

>  <enamine_id>  (19) 
nan

$$$$

     RDKit          3D

 46 48  0  0  0  0  0  0  0  0999 V2000
    7.6408    0.6571   24.4154 C   0  0  0  0  0  0  0  0  0  0  0  0
    7.8403   -0.8004   24.7994 C   0  0  0  0  0  0  0  0  0  0  0  0
    7.7532   -1.7559   23.6053 C   0  0  1  0  0  0  0  0  0  0  0  0
    8.2457   -3.1876   23.9091 C   0  0  0  0  0  0  0  0  0  0  0  0
    7.2355   -4.1506   24.5484 C   0  0  1  0  0  0  0  0  0  0  0  0
    7.2220   -4.1399   26.0745 C   0  0  0  0  0  0  0  0  0  0  0  0
    6.5766   -3.0793   26.6033 F   0  0  0  0  0  0  0  0  0  0  0  0
    8.4575   -4.1515   26.6060 F   0  0  0  0  0  0  0  0  0  0  0  0
    6.5933   -5.2364   26.5539 F   0  0  0  0  0  0  0  0  0  0  0  0
    5.8330   -3.9984   23.9561 C   0  0  0  0  0  0  0  0  0  0  0  0
    5.4203   -2.5410   23.7732 C   0  0  0  0  0  0  0  0  0  0  0  0
    6.4112   -1.7875   23.0038 N   0  0  0  0  0  0  0  0  0  0  0  0
    6.1769   -1.6258   21.6388 C   0  0  0  0  0  0  0  0  0  0  0  0
    5.3624   -2.3069   21.0436 O   0  0  0  0  0  0  0  0  0  0  0  0
    6.9249   -0.4885   20.9084 C   0  0  0  0  0  0  0  0  0  0  0  0
    6.1181    0.0905   19.7666 C   0  0  0  0  0  0  0  0  0  0  0  0
    6.4222   -0.2139   18.4629 C   0  0  0  0  0  0  0  0  0  0  0  0
    5.7594    0.2383   17.3634 N   0  0  0  0  0  0  0  0  0  0  0  0
    4.7357    1.0324   17.5750 C   0  0  0  0  0  0  0  0  0  0  0  0
    4.2867    1.4216   18.8679 C   0  0  0  0  0  0  0  0  0  0  0  0
    3.1645    2.2722   19.0441 C   0  0  0  0  0  0  0  0  0  0  0  0
    2.7502    2.6284   20.3008 C   0  0  0  0  0  0  0  0  0  0  0  0
    3.4427    2.1436   21.4316 C   0  0  0  0  0  0  0  0  0  0  0  0
    4.5323    1.3170   21.2870 C   0  0  0  0  0  0  0  0  0  0  0  0
    4.9902    0.9362   19.9975 C   0  0  0  0  0  0  0  0  0  0  0  0
    5.0423    0.9488   22.1718 H   0  0  0  0  0  0  0  0  0  0  0  0
    3.1050    2.4238   22.4236 H   0  0  0  0  0  0  0  0  0  0  0  0
    1.8932    3.2823   20.4367 H   0  0  0  0  0  0  0  0  0  0  0  0
    2.6441    2.6440   18.1644 H   0  0  0  0  0  0  0  0  0  0  0  0
    4.1989    1.4008   16.6992 H   0  0  0  0  0  0  0  0  0  0  0  0
    7.2654   -0.8673   18.2460 H   0  0  0  0  0  0  0  0  0  0  0  0
    7.2162    0.3037   21.6130 H   0  0  0  0  0  0  0  0  0  0  0  0
    7.8577   -0.9069   20.5085 H   0  0  0  0  0  0  0  0  0  0  0  0
    4.4597   -2.4839   23.2573 H   0  0  0  0  0  0  0  0  0  0  0  0
    5.2883   -2.0704   24.7510 H   0  0  0  0  0  0  0  0  0  0  0  0
    5.8238   -4.4626   22.9681 H   0  0  0  0  0  0  0  0  0  0  0  0
    5.0977   -4.5396   24.5645 H   0  0  0  0  0  0  0  0  0  0  0  0
    7.5819   -5.1695   24.3410 H   0  0  0  0  0  0  0  0  0  0  0  0
    8.5470   -3.6352   22.9564 H   0  0  0  0  0  0  0  0  0  0  0  0
    9.1579   -3.1443   24.5132 H   0  0  0  0  0  0  0  0  0  0  0  0
    8.4346   -1.3650   22.8431 H   0  0  0  0  0  0  0  0  0  0  0  0
    8.8333   -0.9061   25.2545 H   0  0  0  0  0  0  0  0  0  0  0  0
    7.1254   -1.0879   25.5705 H   0  0  0  0  0  0  0  0  0  0  0  0
    7.7470    1.3091   25.2863 H   0  0  0  0  0  0  0  0  0  0  0  0
    8.3790    0.9802   23.6725 H   0  0  0  0  0  0  0  0  0  0  0  0
    6.6438    0.8192   23.9958 H   0  0  0  0  0  0  0  0  0  0  0  0
  1  2  1  0
  2  3  1  0
  3  4  1  0
  4  5  1  0
  5  6  1  0
  6  7  1  0
  6  8  1  0
  6  9  1  0
  5 10  1  0
 10 11  1  0
 11 12  1  0
 12 13  1  0
 13 14  2  0
 13 15  1  0
 15 16  1  0
 16 17  2  0
 17 18  1  0
 18 19  2  0
 19 20  1  0
 20 21  2  0
 21 22  1  0
 22 23  2  0
 23 24  1  0
 24 25  2  0
 24 26  1  0
 23 27  1  0
 22 28  1  0
 21 29  1  0
 19 30  1  0
 17 31  1  0
 15 32  1  0
 15 33  1  0
 11 34  1  0
 11 35  1  0
 10 36  1  0
 10 37  1  0
  5 38  1  1
  4 39  1  0
  4 40  1  0
  3 41  1  6
  2 42  1  0
  2 43  1  0
  1 44  1  0
  1 45  1  0
  1 46  1  0
 12  3  1  0
 25 16  1  0
 25 20  1  0
M  END
>  <cnnaffinities>  (20) 
[5.51682]

>  <score>  (20) 
5.51682

>  <index>  (20) 
27

>  <Smiles>  (20) 
C(C([C@]1(C([C@@](C(F)(F)F)(C(C(N1C(=O)C(c1c(nc(c2c(c(c(c(c12)[H])[H])[H])[H])[H])[H])([H])[H])([H])[H])([H])[H])[H])([H])[H])[H])([H])[H])([H])([H])[H]

>  <h>  (20) 
<NA>

>  <Training>  (20) 
True

>  <Success>  (20) 
True

>  <enamine_searched>  (20) 
False

>  <enamine_id>  (20) 
nan

$$$$

     RDKit          3D

 70 75  0  0  0  0  0  0  0  0999 V2000
    8.1198   -5.5871   25.9517 C   0  0  0  0  0  0  0  0  0  0  0  0
    6.8092   -6.0400   25.4169 N   0  0  0  0  0  4  0  0  0  0  0  0
    6.7737   -6.1246   23.9244 C   0  0  0  0  0  0  0  0  0  0  0  0
    5.7931   -5.1014   23.3355 C   0  0  0  0  0  0  0  0  0  0  0  0
    6.0824   -3.7377   23.7475 N   0  0  0  0  0  0  0  0  0  0  0  0
    7.2442   -3.0991   23.1506 C   0  0  0  0  0  0  0  0  0  0  0  0
    6.9990   -1.6004   22.9018 C   0  0  2  0  0  0  0  0  0  0  0  0
    6.0529   -1.4399   21.6910 C   0  0  0  0  0  0  0  0  0  0  0  0
    4.9966   -2.0103   21.5119 O   0  0  0  0  0  0  0  0  0  0  0  0
    6.5934   -0.5171   20.8291 N   0  0  0  0  0  0  0  0  0  0  0  0
    5.8652    0.0118   19.7356 C   0  0  0  0  0  0  0  0  0  0  0  0
    6.2585   -0.2667   18.4495 C   0  0  0  0  0  0  0  0  0  0  0  0
    5.6535    0.2110   17.3335 N   0  0  0  0  0  0  0  0  0  0  0  0
    4.6305    1.0127   17.5109 C   0  0  0  0  0  0  0  0  0  0  0  0
    4.1212    1.3875   18.7864 C   0  0  0  0  0  0  0  0  0  0  0  0
    3.0232    2.2801   18.8973 C   0  0  0  0  0  0  0  0  0  0  0  0
    2.5708    2.6713   20.1252 C   0  0  0  0  0  0  0  0  0  0  0  0
    3.1844    2.1722   21.2965 C   0  0  0  0  0  0  0  0  0  0  0  0
    4.2343    1.2893   21.2185 C   0  0  0  0  0  0  0  0  0  0  0  0
    4.7420    0.8782   19.9485 C   0  0  0  0  0  0  0  0  0  0  0  0
    4.6702    0.9026   22.1372 H   0  0  0  0  0  0  0  0  0  0  0  0
    2.8167    2.4896   22.2679 H   0  0  0  0  0  0  0  0  0  0  0  0
    1.7468    3.3745   20.2062 H   0  0  0  0  0  0  0  0  0  0  0  0
    2.5720    2.6531   17.9804 H   0  0  0  0  0  0  0  0  0  0  0  0
    4.1461    1.4136   16.6198 H   0  0  0  0  0  0  0  0  0  0  0  0
    7.0999   -0.9359   18.2758 H   0  0  0  0  0  0  0  0  0  0  0  0
    7.9798   -0.2028   21.0949 C   0  0  0  0  0  0  0  0  0  0  0  0
    8.2882   -0.8195   22.4829 C   0  0  2  0  0  0  0  0  0  0  0  0
    9.6155   -1.5917   22.4216 C   0  0  0  0  0  0  0  0  0  0  0  0
   10.3914   -1.4678   23.5966 O   0  0  0  0  0  0  0  0  0  0  0  0
   11.7679   -1.5653   23.3688 C   0  0  0  0  0  0  0  0  0  0  0  0
   12.1719   -2.8268   23.9205 C   0  0  0  0  0  0  0  0  0  0  0  0
   10.1871   -3.9436   23.8987 F   0  0  0  0  0  0  0  0  0  0  0  0
   12.1889   -3.0018   25.5114 C   0  0  0  0  0  0  0  0  0  0  0  0
   12.9159   -3.8463   26.0416 O   0  0  0  0  0  0  0  0  0  0  0  0
   12.4963   -2.9385   23.7772 C   0  0  0  0  0  0  0  0  0  0  0  0
   13.5912   -2.7502   23.7480 H   0  0  0  0  0  0  0  0  0  0  0  0
   13.0340   -3.5158   22.9498 H   0  0  0  0  0  0  0  0  0  0  0  0
   12.3999   -1.9110   25.7191 H   0  0  0  0  0  0  0  0  0  0  0  0
   11.0844   -3.1993   25.6361 H   0  0  0  0  0  0  0  0  0  0  0  0
   11.9659   -1.5447   22.3084 H   0  0  0  0  0  0  0  0  0  0  0  0
   12.2349   -0.7150   23.8679 H   0  0  0  0  0  0  0  0  0  0  0  0
    9.4502   -2.6505   22.2028 H   0  0  0  0  0  0  0  0  0  0  0  0
   10.2032   -1.1926   21.5964 H   0  0  0  0  0  0  0  0  0  0  0  0
    8.4573   -0.0228   23.2144 H   0  0  0  0  0  0  0  0  0  0  0  0
    8.6352   -0.6286   20.3228 H   0  0  0  0  0  0  0  0  0  0  0  0
    8.1338    0.8832   21.0956 H   0  0  0  0  0  0  0  0  0  0  0  0
    6.3382   -0.9971   24.1363 C   0  0  0  0  0  0  0  0  0  0  0  0
    6.2737    0.3967   24.2720 C   0  0  0  0  0  0  0  0  0  0  0  0
    5.6802    0.9629   25.3871 C   0  0  0  0  0  0  0  0  0  0  0  0
    5.5791    2.6974   25.5147 Cl  0  0  0  0  0  0  0  0  0  0  0  0
    5.1564    0.1733   26.4107 C   0  0  0  0  0  0  0  0  0  0  0  0
    5.1733   -1.2004   26.2619 C   0  0  0  0  0  0  0  0  0  0  0  0
    5.7156   -1.7853   25.1142 C   0  0  0  0  0  0  0  0  0  0  0  0
    5.5780   -3.2614   24.9161 C   0  0  0  0  0  0  0  0  0  0  0  0
    5.0416   -4.0086   25.7454 O   0  0  0  0  0  0  0  0  0  0  0  0
    4.7491   -1.8531   27.0178 H   0  0  0  0  0  0  0  0  0  0  0  0
    4.7288    0.6426   27.2911 H   0  0  0  0  0  0  0  0  0  0  0  0
    6.6765    1.0576   23.5075 H   0  0  0  0  0  0  0  0  0  0  0  0
    7.4367   -3.5898   22.1940 H   0  0  0  0  0  0  0  0  0  0  0  0
    8.1320   -3.2363   23.7917 H   0  0  0  0  0  0  0  0  0  0  0  0
    5.8129   -5.1210   22.2398 H   0  0  0  0  0  0  0  0  0  0  0  0
    4.7737   -5.3234   23.6622 H   0  0  0  0  0  0  0  0  0  0  0  0
    6.4675   -7.1286   23.6189 H   0  0  0  0  0  0  0  0  0  0  0  0
    7.7869   -5.9491   23.5383 H   0  0  0  0  0  0  0  0  0  0  0  0
    6.0569   -5.3889   25.7363 H   0  0  0  0  0  0  0  0  0  0  0  0
    6.5914   -6.9721   25.8104 H   0  0  0  0  0  0  0  0  0  0  0  0
    8.9491   -6.1549   25.5152 H   0  0  0  0  0  0  0  0  0  0  0  0
    8.1460   -5.6980   27.0369 H   0  0  0  0  0  0  0  0  0  0  0  0
    8.3006   -4.5366   25.6978 H   0  0  0  0  0  0  0  0  0  0  0  0
  1  2  1  0
  2  3  1  0
  3  4  1  0
  4  5  1  0
  5  6  1  0
  7  6  1  1
  7  8  1  0
  8  9  2  0
  8 10  1  0
 10 11  1  0
 11 12  2  0
 12 13  1  0
 13 14  2  0
 14 15  1  0
 15 16  2  0
 16 17  1  0
 17 18  2  0
 18 19  1  0
 19 20  2  0
 19 21  1  0
 18 22  1  0
 17 23  1  0
 16 24  1  0
 14 25  1  0
 12 26  1  0
 10 27  1  0
 27 28  1  0
 28 29  1  0
 29 30  1  0
 30 31  1  0
 31 32  1  0
 32 33  1  0
 32 34  1  0
 34 35  1  0
 35 36  1  0
 36 37  1  0
 36 38  1  0
 34 39  1  0
 34 40  1  0
 31 41  1  0
 31 42  1  0
 29 43  1  0
 29 44  1  0
 28 45  1  1
 27 46  1  0
 27 47  1  0
  7 48  1  0
 48 49  2  0
 49 50  1  0
 50 51  1  0
 50 52  2  0
 52 53  1  0
 53 54  2  0
 54 55  1  0
 55 56  2  0
 53 57  1  0
 52 58  1  0
 49 59  1  0
  6 60  1  0
  6 61  1  0
  4 62  1  0
  4 63  1  0
  3 64  1  0
  3 65  1  0
  2 66  1  0
  2 67  1  0
  1 68  1  0
  1 69  1  0
  1 70  1  0
 55  5  1  0
 28  7  1  0
 36 32  1  0
 54 48  1  0
 20 11  1  0
 20 15  1  0
M  CHG  1   2   1
M  END
>  <cnnaffinities>  (21) 
[6.89336]

>  <score>  (21) 
6.89336

>  <index>  (21) 
28

>  <Smiles>  (21) 
C([N+](C(C(N1C([C@@]2(C(=O)N(c3c(nc(c4c(c(c(c(c34)[H])[H])[H])[H])[H])[H])C([C@@]2(C(OC(C2(F)C(OC2([H])[H])([H])[H])([H])[H])([H])[H])[H])([H])[H])c2c(c(Cl)c(c(c2C1=O)[H])[H])[H])([H])[H])([H])[H])([H])[H])([H])[H])([H])([H])[H]

>  <h>  (21) 
<NA>

>  <Training>  (21) 
True

>  <Success>  (21) 
True

>  <enamine_searched>  (21) 
False

>  <enamine_id>  (21) 
nan

$$$$

     RDKit          3D

 67 72  0  0  0  0  0  0  0  0999 V2000
    5.5146   -6.9238   25.7028 C   0  0  0  0  0  0  0  0  0  0  0  0
    6.7136   -6.2944   25.1067 N   0  0  0  0  0  4  0  0  0  0  0  0
    6.6059   -6.0968   23.6296 C   0  0  0  0  0  0  0  0  0  0  0  0
    5.7274   -4.8847   23.2956 C   0  0  0  0  0  0  0  0  0  0  0  0
    6.2462   -3.6649   23.8787 N   0  0  0  0  0  0  0  0  0  0  0  0
    7.4203   -3.1013   23.2583 C   0  0  0  0  0  0  0  0  0  0  0  0
    7.2539   -1.6131   22.8968 C   0  0  2  0  0  0  0  0  0  0  0  0
    6.2857   -1.4294   21.7145 C   0  0  0  0  0  0  0  0  0  0  0  0
    5.1894   -1.9385   21.5770 O   0  0  0  0  0  0  0  0  0  0  0  0
    6.8464   -0.5545   20.8186 N   0  0  0  0  0  0  0  0  0  0  0  0
    6.0964    0.0330   19.7716 C   0  0  0  0  0  0  0  0  0  0  0  0
    6.4546   -0.2236   18.4735 C   0  0  0  0  0  0  0  0  0  0  0  0
    5.7978    0.2461   17.3857 N   0  0  0  0  0  0  0  0  0  0  0  0
    4.7623    1.0210   17.6060 C   0  0  0  0  0  0  0  0  0  0  0  0
    4.3077    1.3996   18.9011 C   0  0  0  0  0  0  0  0  0  0  0  0
    3.1928    2.2619   19.0638 C   0  0  0  0  0  0  0  0  0  0  0  0
    2.7909    2.6513   20.3092 C   0  0  0  0  0  0  0  0  0  0  0  0
    3.4917    2.1987   21.4514 C   0  0  0  0  0  0  0  0  0  0  0  0
    4.5705    1.3584   21.3284 C   0  0  0  0  0  0  0  0  0  0  0  0
    4.9960    0.9152   20.0369 C   0  0  0  0  0  0  0  0  0  0  0  0
    5.0994    1.0342   22.2276 H   0  0  0  0  0  0  0  0  0  0  0  0
    3.1632    2.5183   22.4365 H   0  0  0  0  0  0  0  0  0  0  0  0
    1.9367    3.3127   20.4313 H   0  0  0  0  0  0  0  0  0  0  0  0
    2.6827    2.6139   18.1708 H   0  0  0  0  0  0  0  0  0  0  0  0
    4.2256    1.3958   16.7336 H   0  0  0  0  0  0  0  0  0  0  0  0
    7.3065   -0.8738   18.2726 H   0  0  0  0  0  0  0  0  0  0  0  0
    8.1742   -0.1124   21.1758 C   0  0  0  0  0  0  0  0  0  0  0  0
    8.5671   -0.9851   22.3815 C   0  0  2  0  0  0  0  0  0  0  0  0
    9.7056   -1.9504   22.0111 C   0  0  0  0  0  0  0  0  0  0  0  0
   10.2379   -2.6677   23.1668 N   0  0  0  0  0  0  0  0  0  0  0  0
   11.1664   -2.0728   23.9607 C   0  0  0  0  0  0  0  0  0  0  0  0
   11.3361   -0.7487   23.8343 N   0  0  0  0  0  0  0  0  0  0  0  0
   12.4471   -0.2946   24.3959 C   0  0  0  0  0  0  0  0  0  0  0  0
   13.2406   -0.9803   25.2087 N   0  0  0  0  0  0  0  0  0  0  0  0
   12.8133   -2.2299   25.4489 C   0  0  0  0  0  0  0  0  0  0  0  0
   11.8178   -2.8526   24.8459 N   0  0  0  0  0  0  0  0  0  0  0  0
   13.3113   -2.7959   26.2406 H   0  0  0  0  0  0  0  0  0  0  0  0
   12.7177    0.7434   24.1808 H   0  0  0  0  0  0  0  0  0  0  0  0
   10.3758   -3.6635   23.0733 H   0  0  0  0  0  0  0  0  0  0  0  0
    9.4168   -2.6495   21.2187 H   0  0  0  0  0  0  0  0  0  0  0  0
   10.5230   -1.3382   21.6544 H   0  0  0  0  0  0  0  0  0  0  0  0
    8.9970   -0.3808   23.1802 H   0  0  0  0  0  0  0  0  0  0  0  0
    8.1582    0.9598   21.4240 H   0  0  0  0  0  0  0  0  0  0  0  0
    8.8686   -0.2527   20.3442 H   0  0  0  0  0  0  0  0  0  0  0  0
    6.7234   -0.8883   24.1269 C   0  0  0  0  0  0  0  0  0  0  0  0
    6.9532    0.4833   24.3198 C   0  0  0  0  0  0  0  0  0  0  0  0
    6.4321    1.1184   25.4340 C   0  0  0  0  0  0  0  0  0  0  0  0
    6.7196    2.8244   25.6586 Cl  0  0  0  0  0  0  0  0  0  0  0  0
    5.6750    0.4248   26.3777 C   0  0  0  0  0  0  0  0  0  0  0  0
    5.4269   -0.9195   26.1769 C   0  0  0  0  0  0  0  0  0  0  0  0
    5.9345   -1.5720   25.0585 C   0  0  0  0  0  0  0  0  0  0  0  0
    5.5817   -3.0207   24.8717 C   0  0  0  0  0  0  0  0  0  0  0  0
    4.7449   -3.5848   25.5724 O   0  0  0  0  0  0  0  0  0  0  0  0
    4.8300   -1.5087   26.8642 H   0  0  0  0  0  0  0  0  0  0  0  0
    5.2786    0.9543   27.2356 H   0  0  0  0  0  0  0  0  0  0  0  0
    7.5496    1.0679   23.6218 H   0  0  0  0  0  0  0  0  0  0  0  0
    7.6203   -3.6589   22.3400 H   0  0  0  0  0  0  0  0  0  0  0  0
    8.2661   -3.1991   23.9411 H   0  0  0  0  0  0  0  0  0  0  0  0
    4.7168   -4.9988   23.6914 H   0  0  0  0  0  0  0  0  0  0  0  0
    5.6731   -4.7389   22.2104 H   0  0  0  0  0  0  0  0  0  0  0  0
    7.6202   -5.9694   23.2531 H   0  0  0  0  0  0  0  0  0  0  0  0
    6.1806   -6.9878   23.1679 H   0  0  0  0  0  0  0  0  0  0  0  0
    7.5538   -6.8639   25.3362 H   0  0  0  0  0  0  0  0  0  0  0  0
    6.8285   -5.3452   25.5323 H   0  0  0  0  0  0  0  0  0  0  0  0
    5.6950   -7.1469   26.7520 H   0  0  0  0  0  0  0  0  0  0  0  0
    5.2634   -7.8557   25.1880 H   0  0  0  0  0  0  0  0  0  0  0  0
    4.6645   -6.2471   25.6325 H   0  0  0  0  0  0  0  0  0  0  0  0
  1  2  1  0
  2  3  1  0
  3  4  1  0
  4  5  1  0
  5  6  1  0
  7  6  1  1
  7  8  1  0
  8  9  2  0
  8 10  1  0
 10 11  1  0
 11 12  2  0
 12 13  1  0
 13 14  2  0
 14 15  1  0
 15 16  2  0
 16 17  1  0
 17 18  2  0
 18 19  1  0
 19 20  2  0
 19 21  1  0
 18 22  1  0
 17 23  1  0
 16 24  1  0
 14 25  1  0
 12 26  1  0
 10 27  1  0
 27 28  1  0
 28 29  1  0
 29 30  1  0
 30 31  1  0
 31 32  2  0
 32 33  1  0
 33 34  2  0
 34 35  1  0
 35 36  2  0
 35 37  1  0
 33 38  1  0
 30 39  1  0
 29 40  1  0
 29 41  1  0
 28 42  1  1
 27 43  1  0
 27 44  1  0
  7 45  1  0
 45 46  2  0
 46 47  1  0
 47 48  1  0
 47 49  2  0
 49 50  1  0
 50 51  2  0
 51 52  1  0
 52 53  2  0
 50 54  1  0
 49 55  1  0
 46 56  1  0
  6 57  1  0
  6 58  1  0
  4 59  1  0
  4 60  1  0
  3 61  1  0
  3 62  1  0
  2 63  1  0
  2 64  1  0
  1 65  1  0
  1 66  1  0
  1 67  1  0
 52  5  1  0
 28  7  1  0
 36 31  1  0
 51 45  1  0
 20 11  1  0
 20 15  1  0
M  CHG  1   2   1
M  END
>  <cnnaffinities>  (22) 
[7.07617]

>  <score>  (22) 
7.07617

>  <index>  (22) 
29

>  <Smiles>  (22) 
C([N+](C(C(N1C([C@@]2(C(=O)N(c3c(nc(c4c(c(c(c(c34)[H])[H])[H])[H])[H])[H])C([C@@]2(C(N(c2nc(nc(n2)[H])[H])[H])([H])[H])[H])([H])[H])c2c(c(Cl)c(c(c2C1=O)[H])[H])[H])([H])[H])([H])[H])([H])[H])([H])[H])([H])([H])[H]

>  <h>  (22) 
<NA>

>  <Training>  (22) 
True

>  <Success>  (22) 
True

>  <enamine_searched>  (22) 
False

>  <enamine_id>  (22) 
nan

$$$$

     RDKit          3D

 72 77  0  0  0  0  0  0  0  0999 V2000
    9.6692   -2.1327   21.9105 C   0  0  0  0  0  0  0  0  0  0  0  0
    8.6174   -1.0848   22.3009 C   0  0  1  0  0  0  0  0  0  0  0  0
    8.2046   -0.2188   21.0918 C   0  0  0  0  0  0  0  0  0  0  0  0
    6.8303   -0.5690   20.8210 N   0  0  0  0  0  0  0  0  0  0  0  0
    6.0914    0.0265   19.7746 C   0  0  0  0  0  0  0  0  0  0  0  0
    6.4527   -0.2253   18.4732 C   0  0  0  0  0  0  0  0  0  0  0  0
    5.7974    0.2438   17.3853 N   0  0  0  0  0  0  0  0  0  0  0  0
    4.7613    1.0206   17.6031 C   0  0  0  0  0  0  0  0  0  0  0  0
    4.3088    1.3967   18.9014 C   0  0  0  0  0  0  0  0  0  0  0  0
    3.1937    2.2602   19.0613 C   0  0  0  0  0  0  0  0  0  0  0  0
    2.7936    2.6509   20.3093 C   0  0  0  0  0  0  0  0  0  0  0  0
    3.4931    2.2007   21.4515 C   0  0  0  0  0  0  0  0  0  0  0  0
    4.5716    1.3563   21.3292 C   0  0  0  0  0  0  0  0  0  0  0  0
    4.9930    0.9117   20.0354 C   0  0  0  0  0  0  0  0  0  0  0  0
    5.1059    1.0353   22.2239 H   0  0  0  0  0  0  0  0  0  0  0  0
    3.1685    2.5253   22.4366 H   0  0  0  0  0  0  0  0  0  0  0  0
    1.9387    3.3111   20.4307 H   0  0  0  0  0  0  0  0  0  0  0  0
    2.6816    2.6111   18.1708 H   0  0  0  0  0  0  0  0  0  0  0  0
    4.2246    1.3999   16.7336 H   0  0  0  0  0  0  0  0  0  0  0  0
    7.3031   -0.8775   18.2754 H   0  0  0  0  0  0  0  0  0  0  0  0
    6.2733   -1.4244   21.7327 C   0  0  0  0  0  0  0  0  0  0  0  0
    5.1579   -1.9051   21.6413 O   0  0  0  0  0  0  0  0  0  0  0  0
    7.2865   -1.6672   22.8654 C   0  0  1  0  0  0  0  0  0  0  0  0
    7.4092   -3.1695   23.1403 C   0  0  0  0  0  0  0  0  0  0  0  0
    6.3095   -3.7083   23.9090 N   0  0  0  0  0  0  0  0  0  0  0  0
    5.8743   -5.0584   23.6157 C   0  0  0  0  0  0  0  0  0  0  0  0
    4.5884   -5.1156   22.7844 C   0  0  0  0  0  0  0  0  0  0  0  0
    3.3647   -4.8553   23.6162 N   0  0  1  0  0  4  0  0  0  0  0  0
    2.9888   -3.4067   23.5443 C   0  0  0  0  0  0  0  0  0  0  0  0
    1.6758   -3.1322   24.2605 C   0  0  0  0  0  0  0  0  0  0  0  0
    0.6250   -3.9259   23.7452 O   0  0  0  0  0  0  0  0  0  0  0  0
    0.8635   -5.3342   23.8718 C   0  0  0  0  0  0  0  0  0  0  0  0
    0.8753   -5.7465   25.3398 C   0  0  0  0  0  0  0  0  0  0  0  0
   -0.0509   -5.4237   25.8275 H   0  0  0  0  0  0  0  0  0  0  0  0
    0.9564   -6.8353   25.4158 H   0  0  0  0  0  0  0  0  0  0  0  0
    1.7236   -5.3123   25.8752 H   0  0  0  0  0  0  0  0  0  0  0  0
   -0.2961   -6.0211   23.1538 C   0  0  0  0  0  0  0  0  0  0  0  0
   -0.1734   -7.1118   23.1549 H   0  0  0  0  0  0  0  0  0  0  0  0
   -1.2419   -5.7890   23.6535 H   0  0  0  0  0  0  0  0  0  0  0  0
   -0.3771   -5.6810   22.1168 H   0  0  0  0  0  0  0  0  0  0  0  0
    2.1850   -5.6949   23.1770 C   0  0  0  0  0  0  0  0  0  0  0  0
    2.0620   -5.5194   22.1067 H   0  0  0  0  0  0  0  0  0  0  0  0
    2.4062   -6.7558   23.3324 H   0  0  0  0  0  0  0  0  0  0  0  0
    1.3813   -2.0887   24.0926 H   0  0  0  0  0  0  0  0  0  0  0  0
    1.8094   -3.2788   25.3420 H   0  0  0  0  0  0  0  0  0  0  0  0
    2.9403   -3.1584   22.4837 H   0  0  0  0  0  0  0  0  0  0  0  0
    3.7759   -2.7874   23.9581 H   0  0  0  0  0  0  0  0  0  0  0  0
    3.6195   -5.0460   24.5991 H   0  0  0  0  0  0  0  0  0  0  0  0
    4.5005   -6.1093   22.3392 H   0  0  0  0  0  0  0  0  0  0  0  0
    4.6176   -4.3731   21.9767 H   0  0  0  0  0  0  0  0  0  0  0  0
    5.7211   -5.5765   24.5660 H   0  0  0  0  0  0  0  0  0  0  0  0
    6.6883   -5.5556   23.0807 H   0  0  0  0  0  0  0  0  0  0  0  0
    5.8005   -3.0832   25.0053 C   0  0  0  0  0  0  0  0  0  0  0  0
    5.0034   -3.6462   25.7581 O   0  0  0  0  0  0  0  0  0  0  0  0
    6.1756   -1.6384   25.1598 C   0  0  0  0  0  0  0  0  0  0  0  0
    5.7812   -0.9708   26.3195 C   0  0  0  0  0  0  0  0  0  0  0  0
    6.0027    0.3886   26.4544 C   0  0  0  0  0  0  0  0  0  0  0  0
    6.6209    1.0787   25.4112 C   0  0  0  0  0  0  0  0  0  0  0  0
    6.8766    2.8010   25.5536 Cl  0  0  0  0  0  0  0  0  0  0  0  0
    7.0384    0.4249   24.2645 C   0  0  0  0  0  0  0  0  0  0  0  0
    6.8410   -0.9579   24.1337 C   0  0  0  0  0  0  0  0  0  0  0  0
    7.5282    1.0007   23.4823 H   0  0  0  0  0  0  0  0  0  0  0  0
    5.6800    0.9323   27.3353 H   0  0  0  0  0  0  0  0  0  0  0  0
    5.2832   -1.5450   27.0961 H   0  0  0  0  0  0  0  0  0  0  0  0
    7.4622   -3.6965   22.1825 H   0  0  0  0  0  0  0  0  0  0  0  0
    8.3392   -3.3362   23.6924 H   0  0  0  0  0  0  0  0  0  0  0  0
    8.8323   -0.4282   20.2235 H   0  0  0  0  0  0  0  0  0  0  0  0
    8.2756    0.8559   21.2979 H   0  0  0  0  0  0  0  0  0  0  0  0
    9.0836   -0.4759   23.0829 H   0  0  0  0  0  0  0  0  0  0  0  0
    9.9056   -2.7945   22.7451 H   0  0  0  0  0  0  0  0  0  0  0  0
   10.6148   -1.6737   21.6225 H   0  0  0  0  0  0  0  0  0  0  0  0
    9.3314   -2.7580   21.0788 H   0  0  0  0  0  0  0  0  0  0  0  0
  1  2  1  0
  2  3  1  0
  3  4  1  0
  4  5  1  0
  5  6  2  0
  6  7  1  0
  7  8  2  0
  8  9  1  0
  9 10  2  0
 10 11  1  0
 11 12  2  0
 12 13  1  0
 13 14  2  0
 13 15  1  0
 12 16  1  0
 11 17  1  0
 10 18  1  0
  8 19  1  0
  6 20  1  0
  4 21  1  0
 21 22  2  0
 21 23  1  0
 23 24  1  1
 24 25  1  0
 25 26  1  0
 26 27  1  0
 27 28  1  0
 28 29  1  0
 29 30  1  0
 30 31  1  0
 31 32  1  0
 32 33  1  0
 33 34  1  0
 33 35  1  0
 33 36  1  0
 32 37  1  0
 37 38  1  0
 37 39  1  0
 37 40  1  0
 32 41  1  0
 41 42  1  0
 41 43  1  0
 30 44  1  0
 30 45  1  0
 29 46  1  0
 29 47  1  0
 28 48  1  1
 27 49  1  0
 27 50  1  0
 26 51  1  0
 26 52  1  0
 25 53  1  0
 53 54  2  0
 53 55  1  0
 55 56  2  0
 56 57  1  0
 57 58  2  0
 58 59  1  0
 58 60  1  0
 60 61  2  0
 60 62  1  0
 57 63  1  0
 56 64  1  0
 24 65  1  0
 24 66  1  0
  3 67  1  0
  3 68  1  0
  2 69  1  1
  1 70  1  0
  1 71  1  0
  1 72  1  0
 23  2  1  0
 41 28  1  0
 61 55  1  0
 14  5  1  0
 61 23  1  0
 14  9  1  0
M  CHG  1  28   1
M  END
>  <cnnaffinities>  (23) 
[6.23683, 6.33169]

>  <score>  (23) 
6.23683

>  <index>  (23) 
32

>  <Smiles>  (23) 
C([C@]1(C(N(c2c(nc(c3c(c(c(c(c23)[H])[H])[H])[H])[H])[H])C(=O)[C@]21C(N(C(C([N@+]1(C(C(OC(C([H])([H])[H])(C([H])([H])[H])C1([H])[H])([H])[H])([H])[H])[H])([H])[H])([H])[H])C(=O)c1c(c(c(Cl)c(c21)[H])[H])[H])([H])[H])([H])[H])[H])([H])([H])[H]

>  <h>  (23) 
<NA>

>  <Training>  (23) 
True

>  <Success>  (23) 
True

>  <enamine_searched>  (23) 
False

>  <enamine_id>  (23) 
nan

$$$$

     RDKit          3D

 44 47  0  0  0  0  0  0  0  0999 V2000
    5.4444   -2.3987   20.9432 O   0  0  0  0  0  0  0  0  0  0  0  0
    6.2321   -1.7171   21.5851 C   0  0  0  0  0  0  0  0  0  0  0  0
    6.9130   -0.4906   20.9239 C   0  0  0  0  0  0  0  0  0  0  0  0
    6.1135    0.0834   19.7718 C   0  0  0  0  0  0  0  0  0  0  0  0
    6.4209   -0.2150   18.4677 C   0  0  0  0  0  0  0  0  0  0  0  0
    5.7590    0.2397   17.3653 N   0  0  0  0  0  0  0  0  0  0  0  0
    4.7364    1.0322   17.5761 C   0  0  0  0  0  0  0  0  0  0  0  0
    4.2857    1.4220   18.8690 C   0  0  0  0  0  0  0  0  0  0  0  0
    3.1647    2.2727   19.0458 C   0  0  0  0  0  0  0  0  0  0  0  0
    2.7519    2.6297   20.2983 C   0  0  0  0  0  0  0  0  0  0  0  0
    3.4490    2.1412   21.4284 C   0  0  0  0  0  0  0  0  0  0  0  0
    4.5349    1.3136   21.2927 C   0  0  0  0  0  0  0  0  0  0  0  0
    4.9889    0.9357   20.0009 C   0  0  0  0  0  0  0  0  0  0  0  0
    5.0484    0.9465   22.1810 H   0  0  0  0  0  0  0  0  0  0  0  0
    3.1101    2.4288   22.4169 H   0  0  0  0  0  0  0  0  0  0  0  0
    1.8957    3.2858   20.4376 H   0  0  0  0  0  0  0  0  0  0  0  0
    2.6462    2.6443   18.1638 H   0  0  0  0  0  0  0  0  0  0  0  0
    4.2000    1.4007   16.6981 H   0  0  0  0  0  0  0  0  0  0  0  0
    7.2653   -0.8664   18.2450 H   0  0  0  0  0  0  0  0  0  0  0  0
    7.8740   -0.8397   20.5200 H   0  0  0  0  0  0  0  0  0  0  0  0
    7.1576    0.2943   21.6509 H   0  0  0  0  0  0  0  0  0  0  0  0
    6.5546   -2.0570   22.8728 N   0  0  0  0  0  0  0  0  0  0  0  0
    6.0867   -3.3286   23.4231 C   0  0  0  0  0  0  0  0  0  0  0  0
    6.6001   -3.3628   24.8648 C   0  0  0  0  0  0  0  0  0  0  0  0
    7.6639   -2.2660   24.9550 C   0  0  0  0  0  0  0  0  0  0  0  0
    7.3551   -1.2849   23.8127 C   0  0  2  0  0  0  0  0  0  0  0  0
    6.6479   -0.0320   24.2982 C   0  0  0  0  0  0  0  0  0  0  0  0
    7.3304    1.1829   24.3531 C   0  0  0  0  0  0  0  0  0  0  0  0
    6.6923    2.3321   24.8055 C   0  0  0  0  0  0  0  0  0  0  0  0
    5.3697    2.2928   25.2259 C   0  0  0  0  0  0  0  0  0  0  0  0
    4.7235    1.0676   25.1921 C   0  0  0  0  0  0  0  0  0  0  0  0
    3.4432    1.0105   25.5946 F   0  0  0  0  0  0  0  0  0  0  0  0
    5.3319   -0.0926   24.7459 C   0  0  0  0  0  0  0  0  0  0  0  0
    4.7630   -1.0179   24.7455 H   0  0  0  0  0  0  0  0  0  0  0  0
    4.8445    3.1791   25.5657 H   0  0  0  0  0  0  0  0  0  0  0  0
    7.2261    3.2728   24.8152 H   0  0  0  0  0  0  0  0  0  0  0  0
    8.3679    1.2293   24.0300 H   0  0  0  0  0  0  0  0  0  0  0  0
    8.2881   -0.9862   23.3321 H   0  0  0  0  0  0  0  0  0  0  0  0
    7.6559   -1.7664   25.9256 H   0  0  0  0  0  0  0  0  0  0  0  0
    8.6671   -2.6854   24.8400 H   0  0  0  0  0  0  0  0  0  0  0  0
    7.0162   -4.3377   25.1234 H   0  0  0  0  0  0  0  0  0  0  0  0
    5.7940   -3.1831   25.5807 H   0  0  0  0  0  0  0  0  0  0  0  0
    6.4905   -4.1487   22.8252 H   0  0  0  0  0  0  0  0  0  0  0  0
    4.9964   -3.4125   23.3742 H   0  0  0  0  0  0  0  0  0  0  0  0
  1  2  2  0
  2  3  1  0
  3  4  1  0
  4  5  2  0
  5  6  1  0
  6  7  2  0
  7  8  1  0
  8  9  2  0
  9 10  1  0
 10 11  2  0
 11 12  1  0
 12 13  2  0
 12 14  1  0
 11 15  1  0
 10 16  1  0
  9 17  1  0
  7 18  1  0
  5 19  1  0
  3 20  1  0
  3 21  1  0
  2 22  1  0
 22 23  1  0
 23 24  1  0
 24 25  1  0
 25 26  1  0
 26 27  1  0
 27 28  2  0
 28 29  1  0
 29 30  2  0
 30 31  1  0
 31 32  1  0
 31 33  2  0
 33 34  1  0
 30 35  1  0
 29 36  1  0
 28 37  1  0
 26 38  1  6
 25 39  1  0
 25 40  1  0
 24 41  1  0
 24 42  1  0
 23 43  1  0
 23 44  1  0
 13  4  1  0
 26 22  1  0
 33 27  1  0
 13  8  1  0
M  END
>  <cnnaffinities>  (24) 
[5.60628, 5.60536]

>  <score>  (24) 
5.60628

>  <index>  (24) 
33

>  <Smiles>  (24) 
O=C(C(c1c(nc(c2c(c(c(c(c12)[H])[H])[H])[H])[H])[H])([H])[H])N1C(C(C([C@@]1(c1c(c(c(c(F)c1[H])[H])[H])[H])[H])([H])[H])([H])[H])([H])[H]

>  <h>  (24) 
<NA>

>  <Training>  (24) 
True

>  <Success>  (24) 
True

>  <enamine_searched>  (24) 
False

>  <enamine_id>  (24) 
nan

$$$$

     RDKit          3D

 51 54  0  0  0  0  0  0  0  0999 V2000
   12.8649   -3.0728   26.1605 N   0  0  0  0  0  0  0  0  0  0  0  0
   12.6782   -2.4001   25.2407 C   0  0  0  0  0  0  0  0  0  0  0  0
   12.3897   -1.5810   24.0522 C   0  0  0  0  0  0  0  0  0  0  0  0
   11.0046   -1.8592   23.5108 C   0  0  0  0  0  0  0  0  0  0  0  0
    9.9020   -1.1593   23.9854 C   0  0  0  0  0  0  0  0  0  0  0  0
    8.6235   -1.4370   23.5165 C   0  0  0  0  0  0  0  0  0  0  0  0
    8.4204   -2.4315   22.5560 C   0  0  0  0  0  0  0  0  0  0  0  0
    7.1166   -2.7354   22.0509 N   0  0  0  0  0  0  0  0  0  0  0  0
    6.5245   -4.0271   22.4443 C   0  0  0  0  0  0  0  0  0  0  0  0
    5.9704   -4.0297   23.8589 C   0  0  0  0  0  0  0  0  0  0  0  0
    6.8206   -4.2271   24.9480 C   0  0  0  0  0  0  0  0  0  0  0  0
    6.3252   -4.1489   26.2436 C   0  0  0  0  0  0  0  0  0  0  0  0
    4.9830   -3.8757   26.4721 C   0  0  0  0  0  0  0  0  0  0  0  0
    4.1472   -3.6757   25.3833 C   0  0  0  0  0  0  0  0  0  0  0  0
    2.4674   -3.3265   25.6529 Cl  0  0  0  0  0  0  0  0  0  0  0  0
    4.6227   -3.7511   24.0818 C   0  0  0  0  0  0  0  0  0  0  0  0
    3.9549   -3.5729   23.2442 H   0  0  0  0  0  0  0  0  0  0  0  0
    4.5952   -3.8160   27.4829 H   0  0  0  0  0  0  0  0  0  0  0  0
    6.9932   -4.3008   27.0846 H   0  0  0  0  0  0  0  0  0  0  0  0
    7.8802   -4.4226   24.7830 H   0  0  0  0  0  0  0  0  0  0  0  0
    5.7457   -4.2920   21.7271 H   0  0  0  0  0  0  0  0  0  0  0  0
    7.2999   -4.7970   22.3640 H   0  0  0  0  0  0  0  0  0  0  0  0
    6.2912   -1.7702   21.4924 C   0  0  0  0  0  0  0  0  0  0  0  0
    5.0848   -1.9389   21.4069 O   0  0  0  0  0  0  0  0  0  0  0  0
    6.9387   -0.5063   20.8863 C   0  0  0  0  0  0  0  0  0  0  0  0
    6.1191    0.0924   19.7664 C   0  0  0  0  0  0  0  0  0  0  0  0
    6.4205   -0.2103   18.4643 C   0  0  0  0  0  0  0  0  0  0  0  0
    5.7584    0.2376   17.3620 N   0  0  0  0  0  0  0  0  0  0  0  0
    4.7357    1.0326   17.5753 C   0  0  0  0  0  0  0  0  0  0  0  0
    4.2850    1.4228   18.8682 C   0  0  0  0  0  0  0  0  0  0  0  0
    3.1604    2.2741   19.0435 C   0  0  0  0  0  0  0  0  0  0  0  0
    2.7453    2.6243   20.2987 C   0  0  0  0  0  0  0  0  0  0  0  0
    3.4342    2.1368   21.4294 C   0  0  0  0  0  0  0  0  0  0  0  0
    4.5239    1.3143   21.2879 C   0  0  0  0  0  0  0  0  0  0  0  0
    4.9861    0.9350   19.9993 C   0  0  0  0  0  0  0  0  0  0  0  0
    5.0255    0.9277   22.1687 H   0  0  0  0  0  0  0  0  0  0  0  0
    3.0915    2.4111   22.4214 H   0  0  0  0  0  0  0  0  0  0  0  0
    1.8876    3.2758   20.4338 H   0  0  0  0  0  0  0  0  0  0  0  0
    2.6412    2.6455   18.1621 H   0  0  0  0  0  0  0  0  0  0  0  0
    4.1971    1.4012   16.6997 H   0  0  0  0  0  0  0  0  0  0  0  0
    7.2635   -0.8652   18.2481 H   0  0  0  0  0  0  0  0  0  0  0  0
    7.9410   -0.7530   20.5189 H   0  0  0  0  0  0  0  0  0  0  0  0
    7.0824    0.2354   21.6806 H   0  0  0  0  0  0  0  0  0  0  0  0
    9.5201   -3.1623   22.1123 C   0  0  0  0  0  0  0  0  0  0  0  0
   10.7960   -2.8667   22.5768 C   0  0  0  0  0  0  0  0  0  0  0  0
   11.6521   -3.4301   22.2205 H   0  0  0  0  0  0  0  0  0  0  0  0
    9.3813   -3.9421   21.3703 H   0  0  0  0  0  0  0  0  0  0  0  0
    7.7765   -0.8853   23.9117 H   0  0  0  0  0  0  0  0  0  0  0  0
   10.0450   -0.3853   24.7346 H   0  0  0  0  0  0  0  0  0  0  0  0
   12.4948   -0.5304   24.3301 H   0  0  0  0  0  0  0  0  0  0  0  0
   13.1541   -1.7938   23.3013 H   0  0  0  0  0  0  0  0  0  0  0  0
  1  2  3  0
  2  3  1  0
  3  4  1  0
  4  5  2  0
  5  6  1  0
  6  7  2  0
  7  8  1  0
  8  9  1  0
  9 10  1  0
 10 11  2  0
 11 12  1  0
 12 13  2  0
 13 14  1  0
 14 15  1  0
 14 16  2  0
 16 17  1  0
 13 18  1  0
 12 19  1  0
 11 20  1  0
  9 21  1  0
  9 22  1  0
  8 23  1  0
 23 24  2  0
 23 25  1  0
 25 26  1  0
 26 27  2  0
 27 28  1  0
 28 29  2  0
 29 30  1  0
 30 31  2  0
 31 32  1  0
 32 33  2  0
 33 34  1  0
 34 35  2  0
 34 36  1  0
 33 37  1  0
 32 38  1  0
 31 39  1  0
 29 40  1  0
 27 41  1  0
 25 42  1  0
 25 43  1  0
  7 44  1  0
 44 45  2  0
 45 46  1  0
 44 47  1  0
  6 48  1  0
  5 49  1  0
  3 50  1  0
  3 51  1  0
 45  4  1  0
 16 10  1  0
 35 26  1  0
 35 30  1  0
M  END
>  <cnnaffinities>  (25) 
[6.42706]

>  <score>  (25) 
6.42706

>  <index>  (25) 
35

>  <Smiles>  (25) 
N#CC(c1c(c(c(N(C(c2c(c(c(c(Cl)c2[H])[H])[H])[H])([H])[H])C(=O)C(c2c(nc(c3c(c(c(c(c23)[H])[H])[H])[H])[H])[H])([H])[H])c(c1[H])[H])[H])[H])([H])[H]

>  <h>  (25) 
<NA>

>  <Training>  (25) 
True

>  <Success>  (25) 
True

>  <enamine_searched>  (25) 
False

>  <enamine_id>  (25) 
nan

$$$$

     RDKit          3D

 48 51  0  0  0  0  0  0  0  0999 V2000
   13.4256   -1.3709   24.3318 N   0  0  0  0  0  0  0  0  0  0  0  0
   12.3605   -1.6060   23.9414 C   0  0  0  0  0  0  0  0  0  0  0  0
   11.0240   -1.8922   23.4696 C   0  0  0  0  0  0  0  0  0  0  0  0
    9.9270   -1.1776   23.9583 C   0  0  0  0  0  0  0  0  0  0  0  0
    8.6471   -1.4540   23.4943 C   0  0  0  0  0  0  0  0  0  0  0  0
    8.4334   -2.4450   22.5316 C   0  0  0  0  0  0  0  0  0  0  0  0
    7.1237   -2.7417   22.0384 N   0  0  0  0  0  0  0  0  0  0  0  0
    6.5280   -4.0351   22.4240 C   0  0  0  0  0  0  0  0  0  0  0  0
    5.9678   -4.0423   23.8357 C   0  0  0  0  0  0  0  0  0  0  0  0
    6.8150   -4.2329   24.9280 C   0  0  0  0  0  0  0  0  0  0  0  0
    6.3148   -4.1598   26.2219 C   0  0  0  0  0  0  0  0  0  0  0  0
    4.9693   -3.8993   26.4460 C   0  0  0  0  0  0  0  0  0  0  0  0
    4.1352   -3.7075   25.3542 C   0  0  0  0  0  0  0  0  0  0  0  0
    2.4508   -3.3743   25.6178 Cl  0  0  0  0  0  0  0  0  0  0  0  0
    4.6164   -3.7782   24.0543 C   0  0  0  0  0  0  0  0  0  0  0  0
    3.9492   -3.6060   23.2147 H   0  0  0  0  0  0  0  0  0  0  0  0
    4.5768   -3.8434   27.4555 H   0  0  0  0  0  0  0  0  0  0  0  0
    6.9812   -4.3054   27.0655 H   0  0  0  0  0  0  0  0  0  0  0  0
    7.8765   -4.4193   24.7671 H   0  0  0  0  0  0  0  0  0  0  0  0
    7.3042   -4.8038   22.3441 H   0  0  0  0  0  0  0  0  0  0  0  0
    5.7508   -4.2972   21.7027 H   0  0  0  0  0  0  0  0  0  0  0  0
    6.2919   -1.7733   21.4882 C   0  0  0  0  0  0  0  0  0  0  0  0
    5.0892   -1.9390   21.4120 O   0  0  0  0  0  0  0  0  0  0  0  0
    6.9392   -0.5067   20.8859 C   0  0  0  0  0  0  0  0  0  0  0  0
    6.1184    0.0923   19.7661 C   0  0  0  0  0  0  0  0  0  0  0  0
    6.4207   -0.2102   18.4643 C   0  0  0  0  0  0  0  0  0  0  0  0
    5.7583    0.2378   17.3627 N   0  0  0  0  0  0  0  0  0  0  0  0
    4.7357    1.0326   17.5758 C   0  0  0  0  0  0  0  0  0  0  0  0
    4.2849    1.4227   18.8677 C   0  0  0  0  0  0  0  0  0  0  0  0
    3.1609    2.2737   19.0434 C   0  0  0  0  0  0  0  0  0  0  0  0
    2.7455    2.6241   20.2986 C   0  0  0  0  0  0  0  0  0  0  0  0
    3.4342    2.1367   21.4294 C   0  0  0  0  0  0  0  0  0  0  0  0
    4.5240    1.3139   21.2875 C   0  0  0  0  0  0  0  0  0  0  0  0
    4.9863    0.9349   19.9994 C   0  0  0  0  0  0  0  0  0  0  0  0
    5.0254    0.9273   22.1688 H   0  0  0  0  0  0  0  0  0  0  0  0
    3.0913    2.4112   22.4217 H   0  0  0  0  0  0  0  0  0  0  0  0
    1.8873    3.2760   20.4336 H   0  0  0  0  0  0  0  0  0  0  0  0
    2.6417    2.6453   18.1619 H   0  0  0  0  0  0  0  0  0  0  0  0
    4.1973    1.4012   16.6998 H   0  0  0  0  0  0  0  0  0  0  0  0
    7.2637   -0.8654   18.2482 H   0  0  0  0  0  0  0  0  0  0  0  0
    7.9425   -0.7517   20.5190 H   0  0  0  0  0  0  0  0  0  0  0  0
    7.0822    0.2328   21.6826 H   0  0  0  0  0  0  0  0  0  0  0  0
    9.5259   -3.1751   22.0690 C   0  0  0  0  0  0  0  0  0  0  0  0
   10.8088   -2.8931   22.5187 C   0  0  0  0  0  0  0  0  0  0  0  0
   11.6633   -3.4408   22.1430 H   0  0  0  0  0  0  0  0  0  0  0  0
    9.3743   -3.9484   21.3237 H   0  0  0  0  0  0  0  0  0  0  0  0
    7.8049   -0.9016   23.8975 H   0  0  0  0  0  0  0  0  0  0  0  0
   10.0842   -0.4002   24.6988 H   0  0  0  0  0  0  0  0  0  0  0  0
  1  2  3  0
  2  3  1  0
  3  4  2  0
  4  5  1  0
  5  6  2  0
  6  7  1  0
  7  8  1  0
  8  9  1  0
  9 10  2  0
 10 11  1  0
 11 12  2  0
 12 13  1  0
 13 14  1  0
 13 15  2  0
 15 16  1  0
 12 17  1  0
 11 18  1  0
 10 19  1  0
  8 20  1  0
  8 21  1  0
  7 22  1  0
 22 23  2  0
 22 24  1  0
 24 25  1  0
 25 26  2  0
 26 27  1  0
 27 28  2  0
 28 29  1  0
 29 30  2  0
 30 31  1  0
 31 32  2  0
 32 33  1  0
 33 34  2  0
 33 35  1  0
 32 36  1  0
 31 37  1  0
 30 38  1  0
 28 39  1  0
 26 40  1  0
 24 41  1  0
 24 42  1  0
  6 43  1  0
 43 44  2  0
 44 45  1  0
 43 46  1  0
  5 47  1  0
  4 48  1  0
 44  3  1  0
 15  9  1  0
 34 25  1  0
 34 29  1  0
M  END
>  <cnnaffinities>  (26) 
[6.50376]

>  <score>  (26) 
6.50376

>  <index>  (26) 
37

>  <Smiles>  (26) 
N#Cc1c(c(c(N(C(c2c(c(c(c(Cl)c2[H])[H])[H])[H])([H])[H])C(=O)C(c2c(nc(c3c(c(c(c(c23)[H])[H])[H])[H])[H])[H])([H])[H])c(c1[H])[H])[H])[H]

>  <h>  (26) 
<NA>

>  <Training>  (26) 
True

>  <Success>  (26) 
True

>  <enamine_searched>  (26) 
False

>  <enamine_id>  (26) 
nan

$$$$

     RDKit          3D

 72 77  0  0  0  0  0  0  0  0999 V2000
    2.8771   -5.4642   23.2637 C   0  0  0  0  0  0  0  0  0  0  0  0
    3.7366   -4.5307   22.4824 N   0  0  0  0  0  4  0  0  0  0  0  0
    5.0574   -5.1449   22.1399 C   0  0  0  0  0  0  0  0  0  0  0  0
    5.9825   -5.1682   23.3571 C   0  0  0  0  0  0  0  0  0  0  0  0
    6.2795   -3.8059   23.7723 N   0  0  0  0  0  0  0  0  0  0  0  0
    7.4234   -3.1714   23.1501 C   0  0  0  0  0  0  0  0  0  0  0  0
    7.1913   -1.6666   22.8812 C   0  0  2  0  0  0  0  0  0  0  0  0
    6.2297   -1.5030   21.6854 C   0  0  0  0  0  0  0  0  0  0  0  0
    5.1499   -2.0609   21.5426 O   0  0  0  0  0  0  0  0  0  0  0  0
    6.7821   -0.6076   20.8045 N   0  0  0  0  0  0  0  0  0  0  0  0
    6.0550   -0.0040   19.7558 C   0  0  0  0  0  0  0  0  0  0  0  0
    6.4473   -0.2293   18.4630 C   0  0  0  0  0  0  0  0  0  0  0  0
    5.8074    0.2625   17.3764 N   0  0  0  0  0  0  0  0  0  0  0  0
    4.7693    1.0320   17.6016 C   0  0  0  0  0  0  0  0  0  0  0  0
    4.2985    1.3856   18.8975 C   0  0  0  0  0  0  0  0  0  0  0  0
    3.1887    2.2489   19.0652 C   0  0  0  0  0  0  0  0  0  0  0  0
    2.7963    2.6341   20.3139 C   0  0  0  0  0  0  0  0  0  0  0  0
    3.4972    2.1773   21.4550 C   0  0  0  0  0  0  0  0  0  0  0  0
    4.5641    1.3217   21.3303 C   0  0  0  0  0  0  0  0  0  0  0  0
    4.9729    0.8862   20.0312 C   0  0  0  0  0  0  0  0  0  0  0  0
    5.0969    0.9848   22.2236 H   0  0  0  0  0  0  0  0  0  0  0  0
    3.1771    2.5084   22.4375 H   0  0  0  0  0  0  0  0  0  0  0  0
    1.9526    3.3067   20.4369 H   0  0  0  0  0  0  0  0  0  0  0  0
    2.6851    2.6088   18.1728 H   0  0  0  0  0  0  0  0  0  0  0  0
    4.2400    1.4219   16.7323 H   0  0  0  0  0  0  0  0  0  0  0  0
    7.3145   -0.8614   18.2719 H   0  0  0  0  0  0  0  0  0  0  0  0
    8.0946   -0.1198   21.1688 C   0  0  0  0  0  0  0  0  0  0  0  0
    8.4811   -0.9268   22.4178 C   0  0  2  0  0  0  0  0  0  0  0  0
    9.7151   -1.7962   22.1922 C   0  0  0  0  0  0  0  0  0  0  0  0
   10.2121   -2.2725   23.4313 O   0  0  0  0  0  0  0  0  0  0  0  0
   11.2700   -1.4815   23.9341 C   0  0  0  0  0  0  0  0  0  0  0  0
   12.5224   -1.7397   23.1283 C   0  0  0  0  0  0  0  0  0  0  0  0
   13.8482   -1.2454   23.7517 C   0  0  0  0  0  0  0  0  0  0  0  0
   14.2798   -2.9551   24.1644 S   0  0  0  0  0  0  0  0  0  0  0  0
   15.5072   -3.4176   23.5387 O   0  0  0  0  0  0  0  0  0  0  0  0
   13.9952   -3.2407   25.5559 O   0  0  0  0  0  0  0  0  0  0  0  0
   12.8381   -3.2407   23.1202 C   0  0  0  0  0  0  0  0  0  0  0  0
   12.0784   -3.8402   23.6125 H   0  0  0  0  0  0  0  0  0  0  0  0
   13.1289   -3.6300   22.1412 H   0  0  0  0  0  0  0  0  0  0  0  0
   13.8082   -0.6098   24.6380 H   0  0  0  0  0  0  0  0  0  0  0  0
   14.5243   -0.8501   22.9952 H   0  0  0  0  0  0  0  0  0  0  0  0
   12.4230   -1.4321   22.0931 H   0  0  0  0  0  0  0  0  0  0  0  0
   11.4188   -1.8005   24.9676 H   0  0  0  0  0  0  0  0  0  0  0  0
   11.0153   -0.4137   23.9453 H   0  0  0  0  0  0  0  0  0  0  0  0
    9.5116   -2.6435   21.5268 H   0  0  0  0  0  0  0  0  0  0  0  0
   10.4786   -1.1824   21.7220 H   0  0  0  0  0  0  0  0  0  0  0  0
    8.8018   -0.2540   23.2224 H   0  0  0  0  0  0  0  0  0  0  0  0
    8.0630    0.9590   21.3859 H   0  0  0  0  0  0  0  0  0  0  0  0
    8.8062   -0.2543   20.3470 H   0  0  0  0  0  0  0  0  0  0  0  0
    6.5996   -1.0150   24.1273 C   0  0  0  0  0  0  0  0  0  0  0  0
    6.7515    0.3650   24.3523 C   0  0  0  0  0  0  0  0  0  0  0  0
    6.2363    0.9494   25.4963 C   0  0  0  0  0  0  0  0  0  0  0  0
    6.4769    2.6576   25.7673 Cl  0  0  0  0  0  0  0  0  0  0  0  0
    5.5556    0.1875   26.4446 C   0  0  0  0  0  0  0  0  0  0  0  0
    5.3690   -1.1641   26.2078 C   0  0  0  0  0  0  0  0  0  0  0  0
    5.8640   -1.7667   25.0480 C   0  0  0  0  0  0  0  0  0  0  0  0
    5.5699   -3.2186   24.7785 C   0  0  0  0  0  0  0  0  0  0  0  0
    4.6860   -3.8217   25.3862 O   0  0  0  0  0  0  0  0  0  0  0  0
    4.8383   -1.7823   26.9226 H   0  0  0  0  0  0  0  0  0  0  0  0
    5.1777    0.6547   27.3470 H   0  0  0  0  0  0  0  0  0  0  0  0
    7.2803    1.0053   23.6495 H   0  0  0  0  0  0  0  0  0  0  0  0
    7.6047   -3.6571   22.1831 H   0  0  0  0  0  0  0  0  0  0  0  0
    8.3147   -3.2891   23.7762 H   0  0  0  0  0  0  0  0  0  0  0  0
    5.5392   -5.6925   24.2055 H   0  0  0  0  0  0  0  0  0  0  0  0
    6.9239   -5.6680   23.1048 H   0  0  0  0  0  0  0  0  0  0  0  0
    4.8981   -6.1518   21.7451 H   0  0  0  0  0  0  0  0  0  0  0  0
    5.4968   -4.5187   21.3687 H   0  0  0  0  0  0  0  0  0  0  0  0
    3.2404   -4.2727   21.6058 H   0  0  0  0  0  0  0  0  0  0  0  0
    3.8954   -3.6385   22.9986 H   0  0  0  0  0  0  0  0  0  0  0  0
    3.2708   -5.5876   24.2723 H   0  0  0  0  0  0  0  0  0  0  0  0
    2.8624   -6.4433   22.7727 H   0  0  0  0  0  0  0  0  0  0  0  0
    1.8601   -5.0792   23.3196 H   0  0  0  0  0  0  0  0  0  0  0  0
  1  2  1  0
  2  3  1  0
  3  4  1  0
  4  5  1  0
  5  6  1  0
  7  6  1  1
  7  8  1  0
  8  9  2  0
  8 10  1  0
 10 11  1  0
 11 12  2  0
 12 13  1  0
 13 14  2  0
 14 15  1  0
 15 16  2  0
 16 17  1  0
 17 18  2  0
 18 19  1  0
 19 20  2  0
 19 21  1  0
 18 22  1  0
 17 23  1  0
 16 24  1  0
 14 25  1  0
 12 26  1  0
 10 27  1  0
 27 28  1  0
 28 29  1  0
 29 30  1  0
 30 31  1  0
 31 32  1  0
 32 33  1  0
 33 34  1  0
 34 35  2  0
 34 36  2  0
 34 37  1  0
 37 38  1  0
 37 39  1  0
 33 40  1  0
 33 41  1  0
 32 42  1  0
 31 43  1  0
 31 44  1  0
 29 45  1  0
 29 46  1  0
 28 47  1  1
 27 48  1  0
 27 49  1  0
  7 50  1  0
 50 51  2  0
 51 52  1  0
 52 53  1  0
 52 54  2  0
 54 55  1  0
 55 56  2  0
 56 57  1  0
 57 58  2  0
 55 59  1  0
 54 60  1  0
 51 61  1  0
  6 62  1  0
  6 63  1  0
  4 64  1  0
  4 65  1  0
  3 66  1  0
  3 67  1  0
  2 68  1  0
  2 69  1  0
  1 70  1  0
  1 71  1  0
  1 72  1  0
 57  5  1  0
 28  7  1  0
 37 32  1  0
 56 50  1  0
 20 11  1  0
 20 15  1  0
M  CHG  1   2   1
M  END
>  <cnnaffinities>  (27) 
[6.70337]

>  <score>  (27) 
6.70337

>  <index>  (27) 
38

>  <Smiles>  (27) 
C([N+](C(C(N1C([C@@]2(C(=O)N(c3c(nc(c4c(c(c(c(c34)[H])[H])[H])[H])[H])[H])C([C@@]2(C(OC(C2(C(S(=O)(=O)C2([H])[H])([H])[H])[H])([H])[H])([H])[H])[H])([H])[H])c2c(c(Cl)c(c(c2C1=O)[H])[H])[H])([H])[H])([H])[H])([H])[H])([H])[H])([H])([H])[H]

>  <h>  (27) 
<NA>

>  <Training>  (27) 
True

>  <Success>  (27) 
True

>  <enamine_searched>  (27) 
False

>  <enamine_id>  (27) 
nan

$$$$

     RDKit          3D

 60 64  0  0  0  0  0  0  0  0999 V2000
   11.5179   -2.8460   21.8939 C   0  0  0  0  0  0  0  0  0  0  0  0
   10.5813   -1.8005   22.4388 C   0  0  0  0  0  0  0  0  0  0  0  0
    9.2751   -2.0628   21.9684 O   0  0  0  0  0  0  0  0  0  0  0  0
    8.3809   -1.0306   22.3461 C   0  0  1  0  0  0  0  0  0  0  0  0
    8.0303   -0.1786   21.1209 C   0  0  0  0  0  0  0  0  0  0  0  0
    6.7000   -0.6169   20.7787 N   0  0  0  0  0  0  0  0  0  0  0  0
    6.0014   -0.0038   19.7159 C   0  0  0  0  0  0  0  0  0  0  0  0
    6.4000   -0.2103   18.4193 C   0  0  0  0  0  0  0  0  0  0  0  0
    5.7680    0.2974   17.3328 N   0  0  0  0  0  0  0  0  0  0  0  0
    4.7274    1.0666   17.5493 C   0  0  0  0  0  0  0  0  0  0  0  0
    4.2517    1.4136   18.8470 C   0  0  0  0  0  0  0  0  0  0  0  0
    3.1418    2.2779   19.0308 C   0  0  0  0  0  0  0  0  0  0  0  0
    2.7668    2.6643   20.2862 C   0  0  0  0  0  0  0  0  0  0  0  0
    3.4885    2.2187   21.4176 C   0  0  0  0  0  0  0  0  0  0  0  0
    4.5531    1.3662   21.2727 C   0  0  0  0  0  0  0  0  0  0  0  0
    4.9315    0.9092   19.9754 C   0  0  0  0  0  0  0  0  0  0  0  0
    5.1157    1.0446   22.1502 H   0  0  0  0  0  0  0  0  0  0  0  0
    3.1917    2.5498   22.4077 H   0  0  0  0  0  0  0  0  0  0  0  0
    1.9171    3.3261   20.4245 H   0  0  0  0  0  0  0  0  0  0  0  0
    2.6175    2.6336   18.1476 H   0  0  0  0  0  0  0  0  0  0  0  0
    4.2153    1.4690   16.6740 H   0  0  0  0  0  0  0  0  0  0  0  0
    7.2608   -0.8439   18.2083 H   0  0  0  0  0  0  0  0  0  0  0  0
    6.1052   -1.4566   21.6932 C   0  0  0  0  0  0  0  0  0  0  0  0
    5.0016   -1.9465   21.5500 O   0  0  0  0  0  0  0  0  0  0  0  0
    7.0712   -1.6571   22.8860 C   0  0  1  0  0  0  0  0  0  0  0  0
    7.3222   -3.1593   23.1851 C   0  0  0  0  0  0  0  0  0  0  0  0
    6.2875   -3.8167   23.9678 N   0  0  0  0  0  0  0  0  0  0  0  0
    5.9877   -5.2062   23.6175 C   0  0  0  0  0  0  0  0  0  0  0  0
    4.7115   -5.2725   22.7595 C   0  0  0  0  0  0  0  0  0  0  0  0
    4.7628   -5.3681   21.5456 O   0  0  0  0  0  0  0  0  0  0  0  0
    3.5518   -5.1383   23.4601 N   0  0  0  0  0  0  0  0  0  0  0  0
    2.3645   -4.6931   22.7580 C   0  0  0  0  0  0  0  0  0  0  0  0
    1.6491   -4.2888   23.4788 H   0  0  0  0  0  0  0  0  0  0  0  0
    1.9167   -5.5339   22.2284 H   0  0  0  0  0  0  0  0  0  0  0  0
    2.6230   -3.9261   22.0226 H   0  0  0  0  0  0  0  0  0  0  0  0
    3.6520   -4.9115   24.4423 H   0  0  0  0  0  0  0  0  0  0  0  0
    5.9187   -5.8039   24.5330 H   0  0  0  0  0  0  0  0  0  0  0  0
    6.8137   -5.5849   23.0044 H   0  0  0  0  0  0  0  0  0  0  0  0
    5.5967   -3.1957   24.9637 C   0  0  0  0  0  0  0  0  0  0  0  0
    4.7738   -3.7957   25.6600 O   0  0  0  0  0  0  0  0  0  0  0  0
    5.8840   -1.7318   25.1369 C   0  0  0  0  0  0  0  0  0  0  0  0
    5.4668   -1.1215   26.3194 C   0  0  0  0  0  0  0  0  0  0  0  0
    5.7133    0.2185   26.5502 C   0  0  0  0  0  0  0  0  0  0  0  0
    6.3528    0.9633   25.5603 C   0  0  0  0  0  0  0  0  0  0  0  0
    6.6932    2.6486   25.8618 Cl  0  0  0  0  0  0  0  0  0  0  0  0
    6.7570    0.3825   24.3679 C   0  0  0  0  0  0  0  0  0  0  0  0
    6.5570   -0.9917   24.1514 C   0  0  0  0  0  0  0  0  0  0  0  0
    7.2644    1.0088   23.6358 H   0  0  0  0  0  0  0  0  0  0  0  0
    5.4335    0.6915   27.4862 H   0  0  0  0  0  0  0  0  0  0  0  0
    4.9670   -1.7338   27.0627 H   0  0  0  0  0  0  0  0  0  0  0  0
    7.3836   -3.6903   22.2367 H   0  0  0  0  0  0  0  0  0  0  0  0
    8.2939   -3.2508   23.6857 H   0  0  0  0  0  0  0  0  0  0  0  0
    8.0458    0.8996   21.3347 H   0  0  0  0  0  0  0  0  0  0  0  0
    8.7183   -0.3662   20.2918 H   0  0  0  0  0  0  0  0  0  0  0  0
    8.8677   -0.4417   23.1303 H   0  0  0  0  0  0  0  0  0  0  0  0
   10.8461   -0.8063   22.0995 H   0  0  0  0  0  0  0  0  0  0  0  0
   10.5977   -1.8057   23.5479 H   0  0  0  0  0  0  0  0  0  0  0  0
   12.5598   -2.5413   22.0134 H   0  0  0  0  0  0  0  0  0  0  0  0
   11.3162   -3.0466   20.8369 H   0  0  0  0  0  0  0  0  0  0  0  0
   11.3674   -3.7569   22.4664 H   0  0  0  0  0  0  0  0  0  0  0  0
  1  2  1  0
  2  3  1  0
  3  4  1  0
  4  5  1  0
  5  6  1  0
  6  7  1  0
  7  8  2  0
  8  9  1  0
  9 10  2  0
 10 11  1  0
 11 12  2  0
 12 13  1  0
 13 14  2  0
 14 15  1  0
 15 16  2  0
 15 17  1  0
 14 18  1  0
 13 19  1  0
 12 20  1  0
 10 21  1  0
  8 22  1  0
  6 23  1  0
 23 24  2  0
 23 25  1  0
 25 26  1  1
 26 27  1  0
 27 28  1  0
 28 29  1  0
 29 30  2  0
 29 31  1  0
 31 32  1  0
 32 33  1  0
 32 34  1  0
 32 35  1  0
 31 36  1  0
 28 37  1  0
 28 38  1  0
 27 39  1  0
 39 40  2  0
 39 41  1  0
 41 42  2  0
 42 43  1  0
 43 44  2  0
 44 45  1  0
 44 46  1  0
 46 47  2  0
 46 48  1  0
 43 49  1  0
 42 50  1  0
 26 51  1  0
 26 52  1  0
  5 53  1  0
  5 54  1  0
  4 55  1  1
  2 56  1  0
  2 57  1  0
  1 58  1  0
  1 59  1  0
  1 60  1  0
 25  4  1  0
 47 41  1  0
 16  7  1  0
 47 25  1  0
 16 11  1  0
M  END
>  <cnnaffinities>  (28) 
[6.29086]

>  <score>  (28) 
6.29086

>  <index>  (28) 
39

>  <Smiles>  (28) 
C(C(O[C@]1(C(N(c2c(nc(c3c(c(c(c(c23)[H])[H])[H])[H])[H])[H])C(=O)[C@]21C(N(C(C(=O)N(C([H])([H])[H])[H])([H])[H])C(=O)c1c(c(c(Cl)c(c21)[H])[H])[H])([H])[H])([H])[H])[H])([H])[H])([H])([H])[H]

>  <h>  (28) 
<NA>

>  <Training>  (28) 
True

>  <Success>  (28) 
True

>  <enamine_searched>  (28) 
False

>  <enamine_id>  (28) 
nan

$$$$

     RDKit          3D

 62 67  0  0  0  0  0  0  0  0999 V2000
    8.5060   -5.7333   25.4947 C   0  0  0  0  0  0  0  0  0  0  0  0
    7.8013   -6.3611   24.2969 C   0  0  0  0  0  0  0  0  0  0  0  0
    6.3677   -6.5883   24.4841 N   0  0  0  0  0  0  0  0  0  0  0  0
    5.9677   -7.6162   25.2472 N   0  0  0  0  0  0  0  0  0  0  0  0
    4.6455   -7.5476   25.2785 C   0  0  0  0  0  0  0  0  0  0  0  0
    4.1712   -6.4574   24.5311 C   0  0  0  0  0  0  0  0  0  0  0  0
    5.3076   -5.8751   24.0169 C   0  0  0  0  0  0  0  0  0  0  0  0
    5.5045   -4.6929   23.1351 C   0  0  0  0  0  0  0  0  0  0  0  0
    6.2226   -3.6223   23.8143 N   0  0  0  0  0  0  0  0  0  0  0  0
    7.4346   -3.0837   23.2407 C   0  0  0  0  0  0  0  0  0  0  0  0
    7.2896   -1.5945   22.8802 C   0  0  2  0  0  0  0  0  0  0  0  0
    6.3037   -1.4437   21.7034 C   0  0  0  0  0  0  0  0  0  0  0  0
    5.2245   -1.9904   21.5640 O   0  0  0  0  0  0  0  0  0  0  0  0
    6.8560   -0.5715   20.7987 N   0  0  0  0  0  0  0  0  0  0  0  0
    6.0989    0.0200   19.7603 C   0  0  0  0  0  0  0  0  0  0  0  0
    6.4565   -0.2256   18.4597 C   0  0  0  0  0  0  0  0  0  0  0  0
    5.8017    0.2491   17.3728 N   0  0  0  0  0  0  0  0  0  0  0  0
    4.7669    1.0221   17.6043 C   0  0  0  0  0  0  0  0  0  0  0  0
    4.3091    1.3854   18.9029 C   0  0  0  0  0  0  0  0  0  0  0  0
    3.1945    2.2474   19.0628 C   0  0  0  0  0  0  0  0  0  0  0  0
    2.7977    2.6368   20.3094 C   0  0  0  0  0  0  0  0  0  0  0  0
    3.5013    2.1858   21.4494 C   0  0  0  0  0  0  0  0  0  0  0  0
    4.5757    1.3384   21.3284 C   0  0  0  0  0  0  0  0  0  0  0  0
    4.9992    0.8989   20.0355 C   0  0  0  0  0  0  0  0  0  0  0  0
    5.1013    1.0088   22.2258 H   0  0  0  0  0  0  0  0  0  0  0  0
    3.1807    2.5226   22.4299 H   0  0  0  0  0  0  0  0  0  0  0  0
    1.9533    3.3090   20.4266 H   0  0  0  0  0  0  0  0  0  0  0  0
    2.6872    2.6004   18.1680 H   0  0  0  0  0  0  0  0  0  0  0  0
    4.2307    1.4077   16.7374 H   0  0  0  0  0  0  0  0  0  0  0  0
    7.3142   -0.8692   18.2708 H   0  0  0  0  0  0  0  0  0  0  0  0
    8.1857   -0.1142   21.1429 C   0  0  0  0  0  0  0  0  0  0  0  0
    8.6158   -0.9932   22.3337 C   0  0  2  0  0  0  0  0  0  0  0  0
    9.6953   -2.0191   21.9505 C   0  0  0  0  0  0  0  0  0  0  0  0
    9.4275   -2.5558   21.0301 H   0  0  0  0  0  0  0  0  0  0  0  0
   10.6589   -1.5227   21.8155 H   0  0  0  0  0  0  0  0  0  0  0  0
    9.8539   -2.7443   22.7519 H   0  0  0  0  0  0  0  0  0  0  0  0
    9.0524   -0.3739   23.1226 H   0  0  0  0  0  0  0  0  0  0  0  0
    8.1724    0.9549   21.4047 H   0  0  0  0  0  0  0  0  0  0  0  0
    8.8644   -0.2341   20.2986 H   0  0  0  0  0  0  0  0  0  0  0  0
    6.7695   -0.8664   24.1190 C   0  0  0  0  0  0  0  0  0  0  0  0
    7.0035    0.4985   24.3341 C   0  0  0  0  0  0  0  0  0  0  0  0
    6.5249    1.1031   25.4834 C   0  0  0  0  0  0  0  0  0  0  0  0
    6.7689    2.4102   25.6863 F   0  0  0  0  0  0  0  0  0  0  0  0
    5.8081    0.4132   26.4542 C   0  0  0  0  0  0  0  0  0  0  0  0
    5.5536   -0.9248   26.2313 C   0  0  0  0  0  0  0  0  0  0  0  0
    6.0062   -1.5523   25.0699 C   0  0  0  0  0  0  0  0  0  0  0  0
    5.5671   -2.9583   24.8165 C   0  0  0  0  0  0  0  0  0  0  0  0
    4.6386   -3.4439   25.4528 O   0  0  0  0  0  0  0  0  0  0  0  0
    4.9898   -1.5166   26.9446 H   0  0  0  0  0  0  0  0  0  0  0  0
    5.4481    0.9219   27.3425 H   0  0  0  0  0  0  0  0  0  0  0  0
    7.5769    1.1025   23.6405 H   0  0  0  0  0  0  0  0  0  0  0  0
    8.2756   -3.1903   23.9456 H   0  0  0  0  0  0  0  0  0  0  0  0
    7.6671   -3.6479   22.3371 H   0  0  0  0  0  0  0  0  0  0  0  0
    6.0688   -4.9668   22.2357 H   0  0  0  0  0  0  0  0  0  0  0  0
    4.5558   -4.2896   22.7737 H   0  0  0  0  0  0  0  0  0  0  0  0
    3.1611   -6.0723   24.4793 H   0  0  0  0  0  0  0  0  0  0  0  0
    4.0772   -8.2934   25.8211 H   0  0  0  0  0  0  0  0  0  0  0  0
    8.2539   -7.3352   24.0909 H   0  0  0  0  0  0  0  0  0  0  0  0
    7.9529   -5.7319   23.4151 H   0  0  0  0  0  0  0  0  0  0  0  0
    8.4387   -6.3931   26.3645 H   0  0  0  0  0  0  0  0  0  0  0  0
    8.1026   -4.7490   25.7612 H   0  0  0  0  0  0  0  0  0  0  0  0
    9.5602   -5.6110   25.2227 H   0  0  0  0  0  0  0  0  0  0  0  0
  1  2  1  0
  2  3  1  0
  3  4  1  0
  4  5  2  0
  5  6  1  0
  6  7  2  0
  7  8  1  0
  8  9  1  0
  9 10  1  0
 11 10  1  1
 11 12  1  0
 12 13  2  0
 12 14  1  0
 14 15  1  0
 15 16  2  0
 16 17  1  0
 17 18  2  0
 18 19  1  0
 19 20  2  0
 20 21  1  0
 21 22  2  0
 22 23  1  0
 23 24  2  0
 23 25  1  0
 22 26  1  0
 21 27  1  0
 20 28  1  0
 18 29  1  0
 16 30  1  0
 14 31  1  0
 31 32  1  0
 32 33  1  0
 33 34  1  0
 33 35  1  0
 33 36  1  0
 32 37  1  1
 31 38  1  0
 31 39  1  0
 11 40  1  0
 40 41  2  0
 41 42  1  0
 42 43  1  0
 42 44  2  0
 44 45  1  0
 45 46  2  0
 46 47  1  0
 47 48  2  0
 45 49  1  0
 44 50  1  0
 41 51  1  0
 10 52  1  0
 10 53  1  0
  8 54  1  0
  8 55  1  0
  6 56  1  0
  5 57  1  0
  2 58  1  0
  2 59  1  0
  1 60  1  0
  1 61  1  0
  1 62  1  0
  7  3  1  0
 47  9  1  0
 32 11  1  0
 46 40  1  0
 24 15  1  0
 24 19  1  0
M  END
>  <cnnaffinities>  (29) 
[6.42009]

>  <score>  (29) 
6.42009

>  <index>  (29) 
43

>  <Smiles>  (29) 
C(C(n1nc(c(c1C(N1C([C@@]2(C(=O)N(c3c(nc(c4c(c(c(c(c34)[H])[H])[H])[H])[H])[H])C([C@@]2(C([H])([H])[H])[H])([H])[H])c2c(c(F)c(c(c2C1=O)[H])[H])[H])([H])[H])([H])[H])[H])[H])([H])[H])([H])([H])[H]

>  <h>  (29) 
<NA>

>  <Training>  (29) 
True

>  <Success>  (29) 
True

>  <enamine_searched>  (29) 
False

>  <enamine_id>  (29) 
nan

$$$$

     RDKit          3D

 56 60  0  0  0  0  0  0  0  0999 V2000
    2.3071   -4.7407   22.3713 C   0  0  0  0  0  0  0  0  0  0  0  0
    3.4598   -4.0449   22.6968 N   0  0  0  0  0  0  0  0  0  0  0  0
    4.6942   -4.7867   22.2045 C   0  0  0  0  0  0  0  0  0  0  0  0
    4.7804   -5.1420   21.0625 O   0  0  0  0  0  0  0  0  0  0  0  0
    5.7212   -5.0078   23.3056 C   0  0  0  0  0  0  0  0  0  0  0  0
    6.2798   -3.7737   23.8366 N   0  0  0  0  0  0  0  0  0  0  0  0
    7.4335   -3.1896   23.1887 C   0  0  0  0  0  0  0  0  0  0  0  0
    7.2607   -1.6839   22.8833 C   0  0  2  0  0  0  0  0  0  0  0  0
    6.2356   -1.4948   21.7410 C   0  0  0  0  0  0  0  0  0  0  0  0
    5.1267   -2.0040   21.6760 O   0  0  0  0  0  0  0  0  0  0  0  0
    6.7796   -0.6400   20.8163 N   0  0  0  0  0  0  0  0  0  0  0  0
    6.0460   -0.0284   19.7699 C   0  0  0  0  0  0  0  0  0  0  0  0
    6.4367   -0.2439   18.4725 C   0  0  0  0  0  0  0  0  0  0  0  0
    5.8023    0.2529   17.3832 N   0  0  0  0  0  0  0  0  0  0  0  0
    4.7635    1.0234   17.6009 C   0  0  0  0  0  0  0  0  0  0  0  0
    4.2936    1.3825   18.8965 C   0  0  0  0  0  0  0  0  0  0  0  0
    3.1849    2.2520   19.0606 C   0  0  0  0  0  0  0  0  0  0  0  0
    2.7920    2.6445   20.3086 C   0  0  0  0  0  0  0  0  0  0  0  0
    3.4948    2.1913   21.4493 C   0  0  0  0  0  0  0  0  0  0  0  0
    4.5598    1.3326   21.3237 C   0  0  0  0  0  0  0  0  0  0  0  0
    4.9672    0.8788   20.0317 C   0  0  0  0  0  0  0  0  0  0  0  0
    5.0970    1.0039   22.2154 H   0  0  0  0  0  0  0  0  0  0  0  0
    3.1805    2.5259   22.4337 H   0  0  0  0  0  0  0  0  0  0  0  0
    1.9452    3.3147   20.4305 H   0  0  0  0  0  0  0  0  0  0  0  0
    2.6785    2.6097   18.1680 H   0  0  0  0  0  0  0  0  0  0  0  0
    4.2418    1.4172   16.7286 H   0  0  0  0  0  0  0  0  0  0  0  0
    7.3015   -0.8763   18.2728 H   0  0  0  0  0  0  0  0  0  0  0  0
    8.1114   -0.1725   21.1465 C   0  0  0  0  0  0  0  0  0  0  0  0
    8.5679   -1.0490   22.3301 C   0  0  2  0  0  0  0  0  0  0  0  0
    9.6722   -2.0360   21.9249 C   0  0  0  0  0  0  0  0  0  0  0  0
   10.6149   -1.5107   21.7609 H   0  0  0  0  0  0  0  0  0  0  0  0
    9.4100   -2.5864   21.0152 H   0  0  0  0  0  0  0  0  0  0  0  0
    9.8761   -2.7654   22.7111 H   0  0  0  0  0  0  0  0  0  0  0  0
    9.0087   -0.4317   23.1198 H   0  0  0  0  0  0  0  0  0  0  0  0
    8.0845    0.8945   21.4104 H   0  0  0  0  0  0  0  0  0  0  0  0
    8.7754   -0.2758   20.2868 H   0  0  0  0  0  0  0  0  0  0  0  0
    6.7566   -0.9811   24.1375 C   0  0  0  0  0  0  0  0  0  0  0  0
    6.9858    0.3845   24.3564 C   0  0  0  0  0  0  0  0  0  0  0  0
    6.4904    0.9768   25.5002 C   0  0  0  0  0  0  0  0  0  0  0  0
    6.7214    2.2848   25.7097 F   0  0  0  0  0  0  0  0  0  0  0  0
    5.7597    0.2732   26.4496 C   0  0  0  0  0  0  0  0  0  0  0  0
    5.4938   -1.0622   26.2111 C   0  0  0  0  0  0  0  0  0  0  0  0
    5.9607   -1.6835   25.0505 C   0  0  0  0  0  0  0  0  0  0  0  0
    5.5245   -3.0808   24.7277 C   0  0  0  0  0  0  0  0  0  0  0  0
    4.4673   -3.5679   25.1650 O   0  0  0  0  0  0  0  0  0  0  0  0
    4.9164   -1.6502   26.9167 H   0  0  0  0  0  0  0  0  0  0  0  0
    5.3908    0.7880   27.3287 H   0  0  0  0  0  0  0  0  0  0  0  0
    7.5448    1.0035   23.6615 H   0  0  0  0  0  0  0  0  0  0  0  0
    7.5869   -3.7099   22.2421 H   0  0  0  0  0  0  0  0  0  0  0  0
    8.3202   -3.3217   23.8240 H   0  0  0  0  0  0  0  0  0  0  0  0
    6.5303   -5.6234   22.9143 H   0  0  0  0  0  0  0  0  0  0  0  0
    5.2330   -5.5204   24.1407 H   0  0  0  0  0  0  0  0  0  0  0  0
    3.5577   -3.9660   23.7495 H   0  0  0  0  0  0  0  0  0  0  0  0
    1.4015   -4.2371   22.1088 H   0  0  0  0  0  0  0  0  0  0  0  0
    3.5013   -3.0874   22.2652 H   0  0  0  0  0  0  0  0  0  0  0  0
    2.4106   -5.8064   22.3286 H   0  0  0  0  0  0  0  0  0  0  0  0
  1  2  1  0
  2  3  1  0
  3  4  2  0
  3  5  1  0
  5  6  1  0
  6  7  1  0
  8  7  1  1
  8  9  1  0
  9 10  2  0
  9 11  1  0
 11 12  1  0
 12 13  2  0
 13 14  1  0
 14 15  2  0
 15 16  1  0
 16 17  2  0
 17 18  1  0
 18 19  2  0
 19 20  1  0
 20 21  2  0
 20 22  1  0
 19 23  1  0
 18 24  1  0
 17 25  1  0
 15 26  1  0
 13 27  1  0
 11 28  1  0
 28 29  1  0
 29 30  1  0
 30 31  1  0
 30 32  1  0
 30 33  1  0
 29 34  1  1
 28 35  1  0
 28 36  1  0
  8 37  1  0
 37 38  2  0
 38 39  1  0
 39 40  1  0
 39 41  2  0
 41 42  1  0
 42 43  2  0
 43 44  1  0
 44 45  2  0
 42 46  1  0
 41 47  1  0
 38 48  1  0
  7 49  1  0
  7 50  1  0
  5 51  1  0
  5 52  1  0
  2 53  1  0
  1 54  1  0
  1 55  1  0
  1 56  1  0
 44  6  1  0
 29  8  1  0
 43 37  1  0
 21 12  1  0
 21 16  1  0
M  END
>  <cnnaffinities>  (30) 
[6.0798]

>  <score>  (30) 
6.0798

>  <index>  (30) 
47

>  <Smiles>  (30) 
C(N(C(=O)C(N1C([C@@]2(C(=O)N(c3c(nc(c4c(c(c(c(c34)[H])[H])[H])[H])[H])[H])C([C@@]2(C([H])([H])[H])[H])([H])[H])c2c(c(F)c(c(c2C1=O)[H])[H])[H])([H])[H])([H])[H])[H])([H])([H])[H]

>  <h>  (30) 
<NA>

>  <Training>  (30) 
True

>  <Success>  (30) 
True

>  <enamine_searched>  (30) 
False

>  <enamine_id>  (30) 
nan

$$$$

     RDKit          3D

 41 43  0  0  0  0  0  0  0  0999 V2000
    4.7602   -6.7018   22.5075 C   0  0  0  0  0  0  0  0  0  0  0  0
    4.3354   -5.3337   22.0051 C   0  0  1  0  0  0  0  0  0  0  0  0
    4.6436   -4.1421   22.9244 C   0  0  0  0  0  0  0  0  0  0  0  0
    4.3068   -2.7793   22.3057 C   0  0  0  0  0  0  0  0  0  0  0  0
    5.3552   -2.2467   21.4467 N   0  0  0  0  0  0  0  0  0  0  0  0
    6.1546   -1.2352   21.9159 C   0  0  0  0  0  0  0  0  0  0  0  0
    6.1722   -0.9289   23.0997 O   0  0  0  0  0  0  0  0  0  0  0  0
    6.9712   -0.4486   20.8712 C   0  0  0  0  0  0  0  0  0  0  0  0
    6.1543    0.0874   19.7186 C   0  0  0  0  0  0  0  0  0  0  0  0
    6.4837   -0.1888   18.4154 C   0  0  0  0  0  0  0  0  0  0  0  0
    5.8090    0.2604   17.3243 N   0  0  0  0  0  0  0  0  0  0  0  0
    4.7619    1.0172   17.5474 C   0  0  0  0  0  0  0  0  0  0  0  0
    4.3101    1.3942   18.8412 C   0  0  0  0  0  0  0  0  0  0  0  0
    3.1808    2.2339   19.0300 C   0  0  0  0  0  0  0  0  0  0  0  0
    2.7853    2.5990   20.2903 C   0  0  0  0  0  0  0  0  0  0  0  0
    3.4928    2.1308   21.4149 C   0  0  0  0  0  0  0  0  0  0  0  0
    4.5825    1.3085   21.2648 C   0  0  0  0  0  0  0  0  0  0  0  0
    5.0238    0.9225   19.9636 C   0  0  0  0  0  0  0  0  0  0  0  0
    5.1102    0.9509   22.1403 H   0  0  0  0  0  0  0  0  0  0  0  0
    3.1673    2.4205   22.4108 H   0  0  0  0  0  0  0  0  0  0  0  0
    1.9337    3.2588   20.4315 H   0  0  0  0  0  0  0  0  0  0  0  0
    2.6480    2.5936   18.1559 H   0  0  0  0  0  0  0  0  0  0  0  0
    4.2125    1.3793   16.6764 H   0  0  0  0  0  0  0  0  0  0  0  0
    7.3520   -0.8131   18.1911 H   0  0  0  0  0  0  0  0  0  0  0  0
    7.7999   -1.0674   20.5001 H   0  0  0  0  0  0  0  0  0  0  0  0
    7.4435    0.3786   21.4091 H   0  0  0  0  0  0  0  0  0  0  0  0
    5.6009   -2.9414   20.2011 C   0  0  0  0  0  0  0  0  0  0  0  0
    5.8948   -4.4332   20.3450 C   0  0  0  0  0  0  0  0  0  0  0  0
    4.7920   -5.2282   20.6634 O   0  0  0  0  0  0  0  0  0  0  0  0
    6.7166   -4.5668   21.0637 H   0  0  0  0  0  0  0  0  0  0  0  0
    6.2191   -4.8310   19.3753 H   0  0  0  0  0  0  0  0  0  0  0  0
    6.4804   -2.4872   19.7592 H   0  0  0  0  0  0  0  0  0  0  0  0
    4.7710   -2.7904   19.4992 H   0  0  0  0  0  0  0  0  0  0  0  0
    4.1169   -2.0322   23.0777 H   0  0  0  0  0  0  0  0  0  0  0  0
    3.4069   -2.8914   21.6948 H   0  0  0  0  0  0  0  0  0  0  0  0
    4.0387   -4.2858   23.8290 H   0  0  0  0  0  0  0  0  0  0  0  0
    5.6805   -4.1379   23.2712 H   0  0  0  0  0  0  0  0  0  0  0  0
    3.2467   -5.3679   21.9031 H   0  0  0  0  0  0  0  0  0  0  0  0
    5.8381   -6.7562   22.6754 H   0  0  0  0  0  0  0  0  0  0  0  0
    4.2406   -6.9821   23.4256 H   0  0  0  0  0  0  0  0  0  0  0  0
    4.5034   -7.4378   21.7395 H   0  0  0  0  0  0  0  0  0  0  0  0
  1  2  1  0
  2  3  1  0
  3  4  1  0
  4  5  1  0
  5  6  1  0
  6  7  2  0
  6  8  1  0
  8  9  1  0
  9 10  2  0
 10 11  1  0
 11 12  2  0
 12 13  1  0
 13 14  2  0
 14 15  1  0
 15 16  2  0
 16 17  1  0
 17 18  2  0
 17 19  1  0
 16 20  1  0
 15 21  1  0
 14 22  1  0
 12 23  1  0
 10 24  1  0
  8 25  1  0
  8 26  1  0
  5 27  1  0
 27 28  1  0
 28 29  1  0
 28 30  1  0
 28 31  1  0
 27 32  1  0
 27 33  1  0
  4 34  1  0
  4 35  1  0
  3 36  1  0
  3 37  1  0
  2 38  1  6
  1 39  1  0
  1 40  1  0
  1 41  1  0
 29  2  1  0
 18  9  1  0
 18 13  1  0
M  END
>  <cnnaffinities>  (31) 
[4.70842, 5.03489]

>  <score>  (31) 
4.70842

>  <index>  (31) 
48

>  <Smiles>  (31) 
C([C@]1(C(C(N(C(=O)C(c2c(nc(c3c(c(c(c(c23)[H])[H])[H])[H])[H])[H])([H])[H])C(C(O1)([H])[H])([H])[H])([H])[H])([H])[H])[H])([H])([H])[H]

>  <h>  (31) 
<NA>

>  <Training>  (31) 
True

>  <Success>  (31) 
True

>  <enamine_searched>  (31) 
False

>  <enamine_id>  (31) 
nan

$$$$

     RDKit          3D

 42 45  0  0  0  0  0  0  0  0999 V2000
    4.7517   -4.4578   23.8464 C   0  0  0  0  0  0  0  0  0  0  0  0
    5.5357   -3.2584   24.1122 N   0  0  0  0  0  0  0  0  0  0  0  0
    6.8573   -3.0907   23.5341 C   0  0  0  0  0  0  0  0  0  0  0  0
    7.1113   -1.6540   23.0460 C   0  0  1  0  0  0  0  0  0  0  0  0
    6.2876   -1.3301   21.7840 C   0  0  0  0  0  0  0  0  0  0  0  0
    5.1545   -1.7372   21.6241 O   0  0  0  0  0  0  0  0  0  0  0  0
    6.8485   -0.4676   20.8613 N   0  0  0  0  0  0  0  0  0  0  0  0
    6.1013    0.0688   19.7766 C   0  0  0  0  0  0  0  0  0  0  0  0
    6.4394   -0.2139   18.4745 C   0  0  0  0  0  0  0  0  0  0  0  0
    5.7686    0.2387   17.3841 N   0  0  0  0  0  0  0  0  0  0  0  0
    4.7356    1.0260   17.5826 C   0  0  0  0  0  0  0  0  0  0  0  0
    4.2907    1.4202   18.8756 C   0  0  0  0  0  0  0  0  0  0  0  0
    3.1736    2.2816   19.0488 C   0  0  0  0  0  0  0  0  0  0  0  0
    2.7838    2.6675   20.3047 C   0  0  0  0  0  0  0  0  0  0  0  0
    3.4987    2.2131   21.4345 C   0  0  0  0  0  0  0  0  0  0  0  0
    4.5829    1.3824   21.2932 C   0  0  0  0  0  0  0  0  0  0  0  0
    4.9957    0.9462   20.0050 C   0  0  0  0  0  0  0  0  0  0  0  0
    5.1325    1.0443   22.1662 H   0  0  0  0  0  0  0  0  0  0  0  0
    3.1913    2.5241   22.4265 H   0  0  0  0  0  0  0  0  0  0  0  0
    1.9351    3.3312   20.4423 H   0  0  0  0  0  0  0  0  0  0  0  0
    2.6466    2.6458   18.1703 H   0  0  0  0  0  0  0  0  0  0  0  0
    4.2022    1.3971   16.7023 H   0  0  0  0  0  0  0  0  0  0  0  0
    7.2783   -0.8724   18.2546 H   0  0  0  0  0  0  0  0  0  0  0  0
    7.8491   -0.3587   20.8281 H   0  0  0  0  0  0  0  0  0  0  0  0
    6.7392   -0.6835   24.1422 C   0  0  0  0  0  0  0  0  0  0  0  0
    7.3601    0.5634   24.2040 C   0  0  0  0  0  0  0  0  0  0  0  0
    6.9722    1.4898   25.1580 C   0  0  0  0  0  0  0  0  0  0  0  0
    7.7562    3.0403   25.2173 Cl  0  0  0  0  0  0  0  0  0  0  0  0
    5.9542    1.2004   26.0635 C   0  0  0  0  0  0  0  0  0  0  0  0
    5.3343   -0.0376   25.9959 C   0  0  0  0  0  0  0  0  0  0  0  0
    5.7239   -0.9937   25.0443 C   0  0  0  0  0  0  0  0  0  0  0  0
    5.0159   -2.3289   24.9741 C   0  0  0  0  0  0  0  0  0  0  0  0
    4.0161   -2.5631   25.6358 O   0  0  0  0  0  0  0  0  0  0  0  0
    4.5385   -0.2610   26.6952 H   0  0  0  0  0  0  0  0  0  0  0  0
    5.6640    1.9469   26.8007 H   0  0  0  0  0  0  0  0  0  0  0  0
    8.1441    0.8150   23.4982 H   0  0  0  0  0  0  0  0  0  0  0  0
    8.1779   -1.5462   22.8169 H   0  0  0  0  0  0  0  0  0  0  0  0
    7.6220   -3.3638   24.2730 H   0  0  0  0  0  0  0  0  0  0  0  0
    6.9648   -3.7878   22.7047 H   0  0  0  0  0  0  0  0  0  0  0  0
    5.2934   -5.1208   23.1719 H   0  0  0  0  0  0  0  0  0  0  0  0
    3.8013   -4.2109   23.3683 H   0  0  0  0  0  0  0  0  0  0  0  0
    4.5276   -5.0167   24.7581 H   0  0  0  0  0  0  0  0  0  0  0  0
  1  2  1  0
  2  3  1  0
  3  4  1  0
  4  5  1  0
  5  6  2  0
  5  7  1  0
  7  8  1  0
  8  9  2  0
  9 10  1  0
 10 11  2  0
 11 12  1  0
 12 13  2  0
 13 14  1  0
 14 15  2  0
 15 16  1  0
 16 17  2  0
 16 18  1  0
 15 19  1  0
 14 20  1  0
 13 21  1  0
 11 22  1  0
  9 23  1  0
  7 24  1  0
  4 25  1  0
 25 26  2  0
 26 27  1  0
 27 28  1  0
 27 29  2  0
 29 30  1  0
 30 31  2  0
 31 32  1  0
 32 33  2  0
 30 34  1  0
 29 35  1  0
 26 36  1  0
  4 37  1  6
  3 38  1  0
  3 39  1  0
  1 40  1  0
  1 41  1  0
  1 42  1  0
 32  2  1  0
 17  8  1  0
 31 25  1  0
 17 12  1  0
M  END
>  <cnnaffinities>  (32) 
[5.62114]

>  <score>  (32) 
5.62114

>  <index>  (32) 
49

>  <Smiles>  (32) 
C(N1C([C@@](C(=O)N(c2c(nc(c3c(c(c(c(c23)[H])[H])[H])[H])[H])[H])[H])(c2c(c(Cl)c(c(c2C1=O)[H])[H])[H])[H])([H])[H])([H])([H])[H]

>  <h>  (32) 
<NA>

>  <Training>  (32) 
True

>  <Success>  (32) 
True

>  <enamine_searched>  (32) 
False

>  <enamine_id>  (32) 
nan

$$$$

     RDKit          3D

 38 41  0  0  0  0  0  0  0  0999 V2000
    5.0918   -1.9808   21.3320 O   0  0  0  0  0  0  0  0  0  0  0  0
    6.2777   -1.7688   21.5163 C   0  0  0  0  0  0  0  0  0  0  0  0
    6.9400   -0.5080   20.8975 C   0  0  0  0  0  0  0  0  0  0  0  0
    6.1194    0.0875   19.7715 C   0  0  0  0  0  0  0  0  0  0  0  0
    6.4225   -0.2109   18.4672 C   0  0  0  0  0  0  0  0  0  0  0  0
    5.7591    0.2376   17.3671 N   0  0  0  0  0  0  0  0  0  0  0  0
    4.7358    1.0322   17.5766 C   0  0  0  0  0  0  0  0  0  0  0  0
    4.2866    1.4204   18.8691 C   0  0  0  0  0  0  0  0  0  0  0  0
    3.1630    2.2718   19.0431 C   0  0  0  0  0  0  0  0  0  0  0  0
    2.7462    2.6244   20.2989 C   0  0  0  0  0  0  0  0  0  0  0  0
    3.4354    2.1366   21.4303 C   0  0  0  0  0  0  0  0  0  0  0  0
    4.5256    1.3117   21.2876 C   0  0  0  0  0  0  0  0  0  0  0  0
    4.9878    0.9331   19.9993 C   0  0  0  0  0  0  0  0  0  0  0  0
    5.0278    0.9270   22.1684 H   0  0  0  0  0  0  0  0  0  0  0  0
    3.0928    2.4122   22.4225 H   0  0  0  0  0  0  0  0  0  0  0  0
    1.8882    3.2774   20.4336 H   0  0  0  0  0  0  0  0  0  0  0  0
    2.6443    2.6443   18.1622 H   0  0  0  0  0  0  0  0  0  0  0  0
    4.1992    1.4004   16.7000 H   0  0  0  0  0  0  0  0  0  0  0  0
    7.2637   -0.8651   18.2452 H   0  0  0  0  0  0  0  0  0  0  0  0
    7.0932    0.2475   21.6812 H   0  0  0  0  0  0  0  0  0  0  0  0
    7.9389   -0.7574   20.5095 H   0  0  0  0  0  0  0  0  0  0  0  0
    7.0563   -2.6404   22.2532 N   0  0  0  0  0  0  0  0  0  0  0  0
    6.6257   -4.0344   22.4111 C   0  0  0  0  0  0  0  0  0  0  0  0
    6.7452   -4.5015   23.8601 C   0  0  0  0  0  0  0  0  0  0  0  0
    8.0913   -4.1329   24.4006 C   0  0  0  0  0  0  0  0  0  0  0  0
    8.8516   -4.8700   25.7713 S   0  0  0  0  0  0  0  0  0  0  0  0
   10.1975   -3.7959   25.6489 C   0  0  0  0  0  0  0  0  0  0  0  0
   10.0635   -2.9271   24.6061 C   0  0  0  0  0  0  0  0  0  0  0  0
    8.8457   -3.1272   23.8851 C   0  0  0  0  0  0  0  0  0  0  0  0
    8.4099   -2.3232   22.6873 C   0  0  0  0  0  0  0  0  0  0  0  0
    9.1513   -2.4625   21.8847 H   0  0  0  0  0  0  0  0  0  0  0  0
    8.4717   -1.2652   22.9614 H   0  0  0  0  0  0  0  0  0  0  0  0
   10.8053   -2.1701   24.3623 H   0  0  0  0  0  0  0  0  0  0  0  0
   11.0116   -3.8609   26.3596 H   0  0  0  0  0  0  0  0  0  0  0  0
    5.9681   -4.0207   24.4665 H   0  0  0  0  0  0  0  0  0  0  0  0
    6.5687   -5.5794   23.9342 H   0  0  0  0  0  0  0  0  0  0  0  0
    5.5939   -4.1210   22.0691 H   0  0  0  0  0  0  0  0  0  0  0  0
    7.2358   -4.6896   21.7734 H   0  0  0  0  0  0  0  0  0  0  0  0
  1  2  2  0
  2  3  1  0
  3  4  1  0
  4  5  2  0
  5  6  1  0
  6  7  2  0
  7  8  1  0
  8  9  2  0
  9 10  1  0
 10 11  2  0
 11 12  1  0
 12 13  2  0
 12 14  1  0
 11 15  1  0
 10 16  1  0
  9 17  1  0
  7 18  1  0
  5 19  1  0
  3 20  1  0
  3 21  1  0
  2 22  1  0
 22 23  1  0
 23 24  1  0
 24 25  1  0
 25 26  1  0
 26 27  1  0
 27 28  2  0
 28 29  1  0
 29 30  1  0
 30 31  1  0
 30 32  1  0
 28 33  1  0
 27 34  1  0
 24 35  1  0
 24 36  1  0
 23 37  1  0
 23 38  1  0
 13  4  1  0
 30 22  1  0
 13  8  1  0
 29 25  2  0
M  END
>  <cnnaffinities>  (33) 
[5.44801]

>  <score>  (33) 
5.44801

>  <index>  (33) 
50

>  <Smiles>  (33) 
O=C(C(c1c(nc(c2c(c(c(c(c12)[H])[H])[H])[H])[H])[H])([H])[H])N1C(C(c2sc(c(c2C1([H])[H])[H])[H])([H])[H])([H])[H]

>  <h>  (33) 
<NA>

>  <Training>  (33) 
True

>  <Success>  (33) 
True

>  <enamine_searched>  (33) 
False

>  <enamine_id>  (33) 
nan

$$$$

     RDKit          3D

 41 43  0  0  0  0  0  0  0  0999 V2000
    5.4649   -2.3591   21.0017 O   0  0  0  0  0  0  0  0  0  0  0  0
    6.1716   -1.6124   21.6540 C   0  0  0  0  0  0  0  0  0  0  0  0
    6.9182   -0.4792   20.9153 C   0  0  0  0  0  0  0  0  0  0  0  0
    6.1124    0.0875   19.7667 C   0  0  0  0  0  0  0  0  0  0  0  0
    6.4204   -0.2143   18.4625 C   0  0  0  0  0  0  0  0  0  0  0  0
    5.7592    0.2393   17.3625 N   0  0  0  0  0  0  0  0  0  0  0  0
    4.7351    1.0325   17.5750 C   0  0  0  0  0  0  0  0  0  0  0  0
    4.2860    1.4219   18.8676 C   0  0  0  0  0  0  0  0  0  0  0  0
    3.1628    2.2711   19.0444 C   0  0  0  0  0  0  0  0  0  0  0  0
    2.7494    2.6259   20.3010 C   0  0  0  0  0  0  0  0  0  0  0  0
    3.4437    2.1429   21.4330 C   0  0  0  0  0  0  0  0  0  0  0  0
    4.5344    1.3182   21.2889 C   0  0  0  0  0  0  0  0  0  0  0  0
    4.9891    0.9373   19.9976 C   0  0  0  0  0  0  0  0  0  0  0  0
    5.0453    0.9498   22.1767 H   0  0  0  0  0  0  0  0  0  0  0  0
    3.1072    2.4213   22.4259 H   0  0  0  0  0  0  0  0  0  0  0  0
    1.8906    3.2779   20.4368 H   0  0  0  0  0  0  0  0  0  0  0  0
    2.6414    2.6420   18.1650 H   0  0  0  0  0  0  0  0  0  0  0  0
    4.1979    1.4011   16.6996 H   0  0  0  0  0  0  0  0  0  0  0  0
    7.2656   -0.8668   18.2477 H   0  0  0  0  0  0  0  0  0  0  0  0
    7.2507    0.3223   21.5807 H   0  0  0  0  0  0  0  0  0  0  0  0
    7.8283   -0.9378   20.5061 H   0  0  0  0  0  0  0  0  0  0  0  0
    6.3400   -1.8361   23.0181 N   0  0  0  0  0  0  0  0  0  0  0  0
    5.7931   -3.1031   23.5356 C   0  0  0  0  0  0  0  0  0  0  0  0
    4.2901   -3.0850   23.8131 C   0  0  0  0  0  0  0  0  0  0  0  0
    3.9142   -2.3633   25.0989 C   0  0  0  0  0  0  0  0  0  0  0  0
    4.3556   -0.6066   25.1400 S   0  0  0  0  0  0  0  0  0  0  0  0
    6.1473   -0.7883   25.3089 C   0  0  0  0  0  0  0  0  0  0  0  0
    6.8775   -0.8671   23.9603 C   0  0  1  0  0  0  0  0  0  0  0  0
    8.3650   -1.1323   24.1663 C   0  0  0  0  0  0  0  0  0  0  0  0
    9.0109   -1.1598   22.9913 F   0  0  0  0  0  0  0  0  0  0  0  0
    8.9360   -0.1806   24.9258 F   0  0  0  0  0  0  0  0  0  0  0  0
    8.5778   -2.3133   24.7775 F   0  0  0  0  0  0  0  0  0  0  0  0
    6.8099    0.1353   23.5333 H   0  0  0  0  0  0  0  0  0  0  0  0
    6.5042    0.0824   25.8675 H   0  0  0  0  0  0  0  0  0  0  0  0
    6.3557   -1.6564   25.9369 H   0  0  0  0  0  0  0  0  0  0  0  0
    4.3930   -2.8382   25.9630 H   0  0  0  0  0  0  0  0  0  0  0  0
    2.8342   -2.4207   25.2679 H   0  0  0  0  0  0  0  0  0  0  0  0
    3.7867   -2.6142   22.9672 H   0  0  0  0  0  0  0  0  0  0  0  0
    3.9191   -4.1191   23.8811 H   0  0  0  0  0  0  0  0  0  0  0  0
    6.3400   -3.3766   24.4386 H   0  0  0  0  0  0  0  0  0  0  0  0
    6.0173   -3.8773   22.8005 H   0  0  0  0  0  0  0  0  0  0  0  0
  1  2  2  0
  2  3  1  0
  3  4  1  0
  4  5  2  0
  5  6  1  0
  6  7  2  0
  7  8  1  0
  8  9  2  0
  9 10  1  0
 10 11  2  0
 11 12  1  0
 12 13  2  0
 12 14  1  0
 11 15  1  0
 10 16  1  0
  9 17  1  0
  7 18  1  0
  5 19  1  0
  3 20  1  0
  3 21  1  0
  2 22  1  0
 22 23  1  0
 23 24  1  0
 24 25  1  0
 25 26  1  0
 26 27  1  0
 27 28  1  0
 28 29  1  0
 29 30  1  0
 29 31  1  0
 29 32  1  0
 28 33  1  6
 27 34  1  0
 27 35  1  0
 25 36  1  0
 25 37  1  0
 24 38  1  0
 24 39  1  0
 23 40  1  0
 23 41  1  0
 13  4  1  0
 28 22  1  0
 13  8  1  0
M  END
>  <cnnaffinities>  (34) 
[5.59739, 5.52107, 5.52108, 5.33096, 5.33104, 5.33119, 5.63736, 5.63738, 5.63738, 5.63751, 5.49586, 5.49611, 5.49613]

>  <score>  (34) 
5.59739

>  <index>  (34) 
56

>  <Smiles>  (34) 
O=C(C(c1c(nc(c2c(c(c(c(c12)[H])[H])[H])[H])[H])[H])([H])[H])N1C(C(C(SC([C@]1(C(F)(F)F)[H])([H])[H])([H])[H])([H])[H])([H])[H]

>  <h>  (34) 
<NA>

>  <Training>  (34) 
True

>  <Success>  (34) 
True

>  <enamine_searched>  (34) 
False

>  <enamine_id>  (34) 
nan

$$$$

     RDKit          3D

 38 41  0  0  0  0  0  0  0  0999 V2000
    5.0918   -1.9808   21.3320 O   0  0  0  0  0  0  0  0  0  0  0  0
    6.2777   -1.7688   21.5163 C   0  0  0  0  0  0  0  0  0  0  0  0
    6.9400   -0.5080   20.8975 C   0  0  0  0  0  0  0  0  0  0  0  0
    6.1194    0.0875   19.7715 C   0  0  0  0  0  0  0  0  0  0  0  0
    6.4225   -0.2109   18.4672 C   0  0  0  0  0  0  0  0  0  0  0  0
    5.7591    0.2376   17.3671 N   0  0  0  0  0  0  0  0  0  0  0  0
    4.7358    1.0322   17.5766 C   0  0  0  0  0  0  0  0  0  0  0  0
    4.2866    1.4204   18.8691 C   0  0  0  0  0  0  0  0  0  0  0  0
    3.1630    2.2718   19.0431 C   0  0  0  0  0  0  0  0  0  0  0  0
    2.7462    2.6244   20.2989 C   0  0  0  0  0  0  0  0  0  0  0  0
    3.4354    2.1366   21.4303 C   0  0  0  0  0  0  0  0  0  0  0  0
    4.5256    1.3117   21.2876 C   0  0  0  0  0  0  0  0  0  0  0  0
    4.9878    0.9331   19.9993 C   0  0  0  0  0  0  0  0  0  0  0  0
    5.0278    0.9270   22.1684 H   0  0  0  0  0  0  0  0  0  0  0  0
    3.0928    2.4122   22.4225 H   0  0  0  0  0  0  0  0  0  0  0  0
    1.8882    3.2774   20.4336 H   0  0  0  0  0  0  0  0  0  0  0  0
    2.6443    2.6443   18.1622 H   0  0  0  0  0  0  0  0  0  0  0  0
    4.1992    1.4004   16.7000 H   0  0  0  0  0  0  0  0  0  0  0  0
    7.2637   -0.8651   18.2452 H   0  0  0  0  0  0  0  0  0  0  0  0
    7.0932    0.2475   21.6812 H   0  0  0  0  0  0  0  0  0  0  0  0
    7.9389   -0.7574   20.5095 H   0  0  0  0  0  0  0  0  0  0  0  0
    7.0563   -2.6404   22.2532 N   0  0  0  0  0  0  0  0  0  0  0  0
    6.6257   -4.0344   22.4111 C   0  0  0  0  0  0  0  0  0  0  0  0
    6.7452   -4.5015   23.8601 C   0  0  0  0  0  0  0  0  0  0  0  0
    8.0913   -4.1329   24.4006 C   0  0  0  0  0  0  0  0  0  0  0  0
    8.8516   -4.8700   25.7713 S   0  0  0  0  0  0  0  0  0  0  0  0
   10.1975   -3.7959   25.6489 C   0  0  0  0  0  0  0  0  0  0  0  0
   10.0635   -2.9271   24.6061 C   0  0  0  0  0  0  0  0  0  0  0  0
    8.8457   -3.1272   23.8851 C   0  0  0  0  0  0  0  0  0  0  0  0
    8.4099   -2.3232   22.6873 C   0  0  0  0  0  0  0  0  0  0  0  0
    9.1513   -2.4625   21.8847 H   0  0  0  0  0  0  0  0  0  0  0  0
    8.4717   -1.2652   22.9614 H   0  0  0  0  0  0  0  0  0  0  0  0
   10.8053   -2.1701   24.3623 H   0  0  0  0  0  0  0  0  0  0  0  0
   11.0116   -3.8609   26.3596 H   0  0  0  0  0  0  0  0  0  0  0  0
    5.9681   -4.0207   24.4665 H   0  0  0  0  0  0  0  0  0  0  0  0
    6.5687   -5.5794   23.9342 H   0  0  0  0  0  0  0  0  0  0  0  0
    5.5939   -4.1210   22.0691 H   0  0  0  0  0  0  0  0  0  0  0  0
    7.2358   -4.6896   21.7734 H   0  0  0  0  0  0  0  0  0  0  0  0
  1  2  2  0
  2  3  1  0
  3  4  1  0
  4  5  2  0
  5  6  1  0
  6  7  2  0
  7  8  1  0
  8  9  2  0
  9 10  1  0
 10 11  2  0
 11 12  1  0
 12 13  2  0
 12 14  1  0
 11 15  1  0
 10 16  1  0
  9 17  1  0
  7 18  1  0
  5 19  1  0
  3 20  1  0
  3 21  1  0
  2 22  1  0
 22 23  1  0
 23 24  1  0
 24 25  1  0
 25 26  1  0
 26 27  1  0
 27 28  2  0
 28 29  1  0
 29 30  1  0
 30 31  1  0
 30 32  1  0
 28 33  1  0
 27 34  1  0
 24 35  1  0
 24 36  1  0
 23 37  1  0
 23 38  1  0
 13  4  1  0
 30 22  1  0
 13  8  1  0
 29 25  2  0
M  END
>  <cnnaffinities>  (35) 
[5.44801]

>  <score>  (35) 
5.44801

>  <index>  (35) 
60

>  <Smiles>  (35) 
O=C(C(c1c(nc(c2c(c(c(c(c12)[H])[H])[H])[H])[H])[H])([H])[H])N1C(C(c2sc(c(c2C1([H])[H])[H])[H])([H])[H])([H])[H]

>  <h>  (35) 
<NA>

>  <Training>  (35) 
True

>  <Success>  (35) 
True

>  <enamine_searched>  (35) 
False

>  <enamine_id>  (35) 
nan

$$$$

     RDKit          3D

 70 76  0  0  0  0  0  0  0  0999 V2000
    9.6887   -1.9786   22.0071 C   0  0  0  0  0  0  0  0  0  0  0  0
    8.6015   -0.9500   22.3746 C   0  0  1  0  0  0  0  0  0  0  0  0
    8.1988   -0.1182   21.1349 C   0  0  0  0  0  0  0  0  0  0  0  0
    6.8637   -0.5557   20.8087 N   0  0  0  0  0  0  0  0  0  0  0  0
    6.1075    0.0220   19.7601 C   0  0  0  0  0  0  0  0  0  0  0  0
    6.4659   -0.2205   18.4586 C   0  0  0  0  0  0  0  0  0  0  0  0
    5.8101    0.2583   17.3729 N   0  0  0  0  0  0  0  0  0  0  0  0
    4.7713    1.0264   17.5980 C   0  0  0  0  0  0  0  0  0  0  0  0
    4.3148    1.3888   18.8960 C   0  0  0  0  0  0  0  0  0  0  0  0
    3.1969    2.2449   19.0589 C   0  0  0  0  0  0  0  0  0  0  0  0
    2.8029    2.6388   20.3051 C   0  0  0  0  0  0  0  0  0  0  0  0
    3.5125    2.1922   21.4446 C   0  0  0  0  0  0  0  0  0  0  0  0
    4.5886    1.3475   21.3216 C   0  0  0  0  0  0  0  0  0  0  0  0
    5.0062    0.9021   20.0286 C   0  0  0  0  0  0  0  0  0  0  0  0
    5.1241    1.0258   22.2177 H   0  0  0  0  0  0  0  0  0  0  0  0
    3.1927    2.5249   22.4280 H   0  0  0  0  0  0  0  0  0  0  0  0
    1.9550    3.3072   20.4271 H   0  0  0  0  0  0  0  0  0  0  0  0
    2.6867    2.5942   18.1645 H   0  0  0  0  0  0  0  0  0  0  0  0
    4.2327    1.4148   16.7323 H   0  0  0  0  0  0  0  0  0  0  0  0
    7.3222   -0.8601   18.2481 H   0  0  0  0  0  0  0  0  0  0  0  0
    6.3164   -1.4301   21.7163 C   0  0  0  0  0  0  0  0  0  0  0  0
    5.2716   -2.0203   21.5411 O   0  0  0  0  0  0  0  0  0  0  0  0
    7.2660   -1.5295   22.9364 C   0  0  1  0  0  0  0  0  0  0  0  0
    7.3881   -3.0089   23.3409 C   0  0  0  0  0  0  0  0  0  0  0  0
    6.1871   -3.4628   23.9946 N   0  0  0  0  0  0  0  0  0  0  0  0
    5.6151   -4.7288   23.6337 C   0  0  0  0  0  0  0  0  0  0  0  0
    6.2096   -5.8461   24.4821 C   0  0  0  0  0  0  0  0  0  0  0  0
    5.5504   -7.1641   24.2121 N   0  0  2  0  0  4  0  0  0  0  0  0
    5.5785   -7.4130   22.7380 C   0  0  0  0  0  0  0  0  0  0  0  0
    4.1896   -7.0618   22.1994 C   0  0  0  0  0  0  0  0  0  0  0  0
    3.2216   -7.1197   23.3845 C   0  0  0  0  0  0  0  0  0  0  0  0
    2.0486   -8.1076   23.2551 C   0  0  0  0  0  0  0  0  0  0  0  0
    1.0888   -7.0578   23.1162 O   0  0  0  0  0  0  0  0  0  0  0  0
    2.0935   -6.0687   23.3487 C   0  0  0  0  0  0  0  0  0  0  0  0
    1.8946   -5.5249   24.2810 H   0  0  0  0  0  0  0  0  0  0  0  0
    2.1430   -5.3603   22.5103 H   0  0  0  0  0  0  0  0  0  0  0  0
    1.8566   -8.7006   24.1562 H   0  0  0  0  0  0  0  0  0  0  0  0
    2.0774   -8.7561   22.3715 H   0  0  0  0  0  0  0  0  0  0  0  0
    4.0988   -7.2536   24.6338 C   0  0  0  0  0  0  0  0  0  0  0  0
    3.9515   -8.2239   25.1099 H   0  0  0  0  0  0  0  0  0  0  0  0
    3.9161   -6.4762   25.3750 H   0  0  0  0  0  0  0  0  0  0  0  0
    4.2282   -6.0400   21.8035 H   0  0  0  0  0  0  0  0  0  0  0  0
    3.8640   -7.7015   21.3744 H   0  0  0  0  0  0  0  0  0  0  0  0
    6.3641   -6.8076   22.2977 H   0  0  0  0  0  0  0  0  0  0  0  0
    5.9290   -8.4223   22.5968 H   0  0  0  0  0  0  0  0  0  0  0  0
    6.0800   -7.8765   24.7244 H   0  0  0  0  0  0  0  0  0  0  0  0
    7.2779   -5.9460   24.2583 H   0  0  0  0  0  0  0  0  0  0  0  0
    6.1105   -5.6082   25.5394 H   0  0  0  0  0  0  0  0  0  0  0  0
    5.8072   -4.8589   22.5616 H   0  0  0  0  0  0  0  0  0  0  0  0
    4.5316   -4.6620   23.7713 H   0  0  0  0  0  0  0  0  0  0  0  0
    5.6643   -2.8323   25.0758 C   0  0  0  0  0  0  0  0  0  0  0  0
    4.9204   -3.3987   25.8682 O   0  0  0  0  0  0  0  0  0  0  0  0
    6.0217   -1.3934   25.1808 C   0  0  0  0  0  0  0  0  0  0  0  0
    5.5878   -0.7187   26.3194 C   0  0  0  0  0  0  0  0  0  0  0  0
    5.8296    0.6288   26.4709 C   0  0  0  0  0  0  0  0  0  0  0  0
    6.5067    1.2897   25.4488 C   0  0  0  0  0  0  0  0  0  0  0  0
    6.8286    2.9932   25.6263 Cl  0  0  0  0  0  0  0  0  0  0  0  0
    6.9528    0.6266   24.3110 C   0  0  0  0  0  0  0  0  0  0  0  0
    6.7382   -0.7517   24.1592 C   0  0  0  0  0  0  0  0  0  0  0  0
    7.4853    1.2061   23.5636 H   0  0  0  0  0  0  0  0  0  0  0  0
    5.5026    1.1592   27.3593 H   0  0  0  0  0  0  0  0  0  0  0  0
    5.0648   -1.2859   27.0828 H   0  0  0  0  0  0  0  0  0  0  0  0
    8.2563   -3.1351   24.0058 H   0  0  0  0  0  0  0  0  0  0  0  0
    7.5487   -3.6187   22.4473 H   0  0  0  0  0  0  0  0  0  0  0  0
    8.2114    0.9632   21.3249 H   0  0  0  0  0  0  0  0  0  0  0  0
    8.8815   -0.2991   20.3015 H   0  0  0  0  0  0  0  0  0  0  0  0
    9.0480   -0.3103   23.1417 H   0  0  0  0  0  0  0  0  0  0  0  0
   10.6471   -1.4770   21.8448 H   0  0  0  0  0  0  0  0  0  0  0  0
    9.8554   -2.7101   22.8000 H   0  0  0  0  0  0  0  0  0  0  0  0
    9.4358   -2.5354   21.0975 H   0  0  0  0  0  0  0  0  0  0  0  0
  1  2  1  0
  2  3  1  0
  3  4  1  0
  4  5  1  0
  5  6  2  0
  6  7  1  0
  7  8  2  0
  8  9  1  0
  9 10  2  0
 10 11  1  0
 11 12  2  0
 12 13  1  0
 13 14  2  0
 13 15  1  0
 12 16  1  0
 11 17  1  0
 10 18  1  0
  8 19  1  0
  6 20  1  0
  4 21  1  0
 21 22  2  0
 21 23  1  0
 23 24  1  1
 24 25  1  0
 25 26  1  0
 26 27  1  0
 27 28  1  0
 28 29  1  0
 29 30  1  0
 30 31  1  0
 31 32  1  0
 32 33  1  0
 33 34  1  0
 34 35  1  0
 34 36  1  0
 32 37  1  0
 32 38  1  0
 31 39  1  0
 39 40  1  0
 39 41  1  0
 30 42  1  0
 30 43  1  0
 29 44  1  0
 29 45  1  0
 28 46  1  1
 27 47  1  0
 27 48  1  0
 26 49  1  0
 26 50  1  0
 25 51  1  0
 51 52  2  0
 51 53  1  0
 53 54  2  0
 54 55  1  0
 55 56  2  0
 56 57  1  0
 56 58  1  0
 58 59  2  0
 58 60  1  0
 55 61  1  0
 54 62  1  0
 24 63  1  0
 24 64  1  0
  3 65  1  0
  3 66  1  0
  2 67  1  1
  1 68  1  0
  1 69  1  0
  1 70  1  0
 23  2  1  0
 39 28  1  0
 59 53  1  0
 14  5  1  0
 59 23  1  0
 14  9  1  0
 34 31  1  0
M  CHG  1  28   1
M  END
>  <cnnaffinities>  (36) 
[6.44949]

>  <score>  (36) 
6.44949

>  <index>  (36) 
62

>  <Smiles>  (36) 
C([C@]1(C(N(c2c(nc(c3c(c(c(c(c23)[H])[H])[H])[H])[H])[H])C(=O)[C@]21C(N(C(C([N@@+]1(C(C(C3(C(OC3([H])[H])([H])[H])C1([H])[H])([H])[H])([H])[H])[H])([H])[H])([H])[H])C(=O)c1c(c(c(Cl)c(c21)[H])[H])[H])([H])[H])([H])[H])[H])([H])([H])[H]

>  <h>  (36) 
<NA>

>  <Training>  (36) 
True

>  <Success>  (36) 
True

>  <enamine_searched>  (36) 
False

>  <enamine_id>  (36) 
nan

$$$$

     RDKit          3D

 66 71  0  0  0  0  0  0  0  0999 V2000
    9.7010   -1.9836   21.9786 C   0  0  0  0  0  0  0  0  0  0  0  0
    8.5738   -1.0149   22.3609 C   0  0  1  0  0  0  0  0  0  0  0  0
    8.1665   -0.1251   21.1643 C   0  0  0  0  0  0  0  0  0  0  0  0
    6.8496   -0.5803   20.7948 N   0  0  0  0  0  0  0  0  0  0  0  0
    6.1022    0.0163   19.7523 C   0  0  0  0  0  0  0  0  0  0  0  0
    6.4635   -0.2232   18.4523 C   0  0  0  0  0  0  0  0  0  0  0  0
    5.8096    0.2594   17.3677 N   0  0  0  0  0  0  0  0  0  0  0  0
    4.7710    1.0279   17.5952 C   0  0  0  0  0  0  0  0  0  0  0  0
    4.3124    1.3857   18.8943 C   0  0  0  0  0  0  0  0  0  0  0  0
    3.1985    2.2477   19.0626 C   0  0  0  0  0  0  0  0  0  0  0  0
    2.8056    2.6349   20.3123 C   0  0  0  0  0  0  0  0  0  0  0  0
    3.5092    2.1767   21.4499 C   0  0  0  0  0  0  0  0  0  0  0  0
    4.5803    1.3256   21.3215 C   0  0  0  0  0  0  0  0  0  0  0  0
    5.0005    0.8915   20.0250 C   0  0  0  0  0  0  0  0  0  0  0  0
    5.1086    0.9859   22.2146 H   0  0  0  0  0  0  0  0  0  0  0  0
    3.1904    2.5054   22.4354 H   0  0  0  0  0  0  0  0  0  0  0  0
    1.9597    3.3057   20.4371 H   0  0  0  0  0  0  0  0  0  0  0  0
    2.6876    2.6023   18.1712 H   0  0  0  0  0  0  0  0  0  0  0  0
    4.2376    1.4195   16.7275 H   0  0  0  0  0  0  0  0  0  0  0  0
    7.3190   -0.8651   18.2469 H   0  0  0  0  0  0  0  0  0  0  0  0
    6.2910   -1.4780   21.6646 C   0  0  0  0  0  0  0  0  0  0  0  0
    5.2065   -2.0007   21.4953 O   0  0  0  0  0  0  0  0  0  0  0  0
    7.2485   -1.6708   22.8577 C   0  0  1  0  0  0  0  0  0  0  0  0
    7.4104   -3.1704   23.1824 C   0  0  0  0  0  0  0  0  0  0  0  0
    6.2394   -3.7349   23.8094 N   0  0  0  0  0  0  0  0  0  0  0  0
    5.7262   -5.0226   23.3943 C   0  0  0  0  0  0  0  0  0  0  0  0
    4.4899   -4.8262   22.5125 C   0  0  0  0  0  0  0  0  0  0  0  0
    3.7333   -6.0842   22.2806 N   0  0  0  0  0  4  0  0  0  0  0  0
    4.6446   -7.1560   21.4100 C   0  0  0  0  0  0  0  0  0  0  0  0
    4.0657   -7.9427   20.4055 C   0  0  0  0  0  0  0  0  0  0  0  0
    2.3520   -8.5897   22.5152 O   0  0  0  0  0  0  0  0  0  0  0  0
    2.0291   -7.6491   23.3042 C   0  0  0  0  0  0  0  0  0  0  0  0
    3.1712   -6.5964   23.5647 C   0  0  0  0  0  0  0  0  0  0  0  0
    2.7733   -5.7424   24.1307 H   0  0  0  0  0  0  0  0  0  0  0  0
    3.9555   -7.0556   24.1801 H   0  0  0  0  0  0  0  0  0  0  0  0
    1.1539   -7.0034   22.9403 H   0  0  0  0  0  0  0  0  0  0  0  0
    1.7210   -7.9775   24.3630 H   0  0  0  0  0  0  0  0  0  0  0  0
    3.3425   -8.6912   20.6419 H   0  0  0  0  0  0  0  0  0  0  0  0
    4.2498   -7.7528   19.3563 H   0  0  0  0  0  0  0  0  0  0  0  0
    5.3957   -6.4729   20.9642 H   0  0  0  0  0  0  0  0  0  0  0  0
    5.1401   -7.7535   22.2023 H   0  0  0  0  0  0  0  0  0  0  0  0
    2.9275   -5.8980   21.6523 H   0  0  0  0  0  0  0  0  0  0  0  0
    4.7897   -4.3886   21.5593 H   0  0  0  0  0  0  0  0  0  0  0  0
    3.8252   -4.1024   22.9900 H   0  0  0  0  0  0  0  0  0  0  0  0
    6.5094   -5.5649   22.8496 H   0  0  0  0  0  0  0  0  0  0  0  0
    5.5003   -5.5748   24.3111 H   0  0  0  0  0  0  0  0  0  0  0  0
    5.6011   -3.1166   24.8425 C   0  0  0  0  0  0  0  0  0  0  0  0
    4.7739   -3.6980   25.5383 O   0  0  0  0  0  0  0  0  0  0  0  0
    5.9364   -1.6696   25.0400 C   0  0  0  0  0  0  0  0  0  0  0  0
    5.4573   -1.0394   26.1863 C   0  0  0  0  0  0  0  0  0  0  0  0
    5.6864    0.3041   26.3997 C   0  0  0  0  0  0  0  0  0  0  0  0
    6.3965    1.0172   25.4377 C   0  0  0  0  0  0  0  0  0  0  0  0
    6.6891    2.7140   25.6931 Cl  0  0  0  0  0  0  0  0  0  0  0  0
    6.8916    0.4042   24.2993 C   0  0  0  0  0  0  0  0  0  0  0  0
    6.6916   -0.9685   24.0940 C   0  0  0  0  0  0  0  0  0  0  0  0
    7.4531    1.0133   23.5973 H   0  0  0  0  0  0  0  0  0  0  0  0
    5.3206    0.8043   27.2884 H   0  0  0  0  0  0  0  0  0  0  0  0
    4.9040   -1.6370   26.9017 H   0  0  0  0  0  0  0  0  0  0  0  0
    7.6139   -3.7231   22.2624 H   0  0  0  0  0  0  0  0  0  0  0  0
    8.2726   -3.2930   23.8516 H   0  0  0  0  0  0  0  0  0  0  0  0
    8.1458    0.9451   21.4150 H   0  0  0  0  0  0  0  0  0  0  0  0
    8.8576   -0.2387   20.3277 H   0  0  0  0  0  0  0  0  0  0  0  0
    8.9747   -0.4033   23.1759 H   0  0  0  0  0  0  0  0  0  0  0  0
    9.8923   -2.7185   22.7627 H   0  0  0  0  0  0  0  0  0  0  0  0
    9.4795   -2.5267   21.0526 H   0  0  0  0  0  0  0  0  0  0  0  0
   10.6346   -1.4320   21.8482 H   0  0  0  0  0  0  0  0  0  0  0  0
  1  2  1  0
  2  3  1  0
  3  4  1  0
  4  5  1  0
  5  6  2  0
  6  7  1  0
  7  8  2  0
  8  9  1  0
  9 10  2  0
 10 11  1  0
 11 12  2  0
 12 13  1  0
 13 14  2  0
 13 15  1  0
 12 16  1  0
 11 17  1  0
 10 18  1  0
  8 19  1  0
  6 20  1  0
  4 21  1  0
 21 22  2  0
 21 23  1  0
 23 24  1  1
 24 25  1  0
 25 26  1  0
 26 27  1  0
 27 28  1  0
 28 29  1  0
 29 30  1  0
 30 31  1  0
 31 32  1  0
 32 33  1  0
 33 34  1  0
 33 35  1  0
 32 36  1  0
 32 37  1  0
 30 38  1  0
 30 39  1  0
 29 40  1  0
 29 41  1  0
 28 42  1  0
 27 43  1  0
 27 44  1  0
 26 45  1  0
 26 46  1  0
 25 47  1  0
 47 48  2  0
 47 49  1  0
 49 50  2  0
 50 51  1  0
 51 52  2  0
 52 53  1  0
 52 54  1  0
 54 55  2  0
 54 56  1  0
 51 57  1  0
 50 58  1  0
 24 59  1  0
 24 60  1  0
  3 61  1  0
  3 62  1  0
  2 63  1  1
  1 64  1  0
  1 65  1  0
  1 66  1  0
 23  2  1  0
 33 28  1  0
 55 49  1  0
 14  5  1  0
 55 23  1  0
 14  9  1  0
M  CHG  1  28   1
M  END
>  <cnnaffinities>  (37) 
[6.17945]

>  <score>  (37) 
6.17945

>  <index>  (37) 
64

>  <Smiles>  (37) 
C([C@]1(C(N(c2c(nc(c3c(c(c(c(c23)[H])[H])[H])[H])[H])[H])C(=O)[C@]21C(N(C(C([N+]1(C(C(OC(C1([H])[H])([H])[H])([H])[H])([H])[H])[H])([H])[H])([H])[H])C(=O)c1c(c(c(Cl)c(c21)[H])[H])[H])([H])[H])([H])[H])[H])([H])([H])[H]

>  <h>  (37) 
<NA>

>  <Training>  (37) 
True

>  <Success>  (37) 
True

>  <enamine_searched>  (37) 
False

>  <enamine_id>  (37) 
nan

$$$$

     RDKit          3D

 54 59  0  0  0  0  0  0  0  0999 V2000
    8.5664    3.6357   23.2306 C   0  0  0  0  0  0  0  0  0  0  0  0
    7.5459    2.7320   23.7379 N   0  0  0  0  0  0  0  0  0  0  0  0
    7.6870    2.2464   25.0029 C   0  0  0  0  0  0  0  0  0  0  0  0
    8.5868    2.6209   25.7330 O   0  0  0  0  0  0  0  0  0  0  0  0
    6.6420    1.2181   25.4757 C   0  0  0  0  0  0  0  0  0  0  0  0
    6.9806   -0.1545   25.1507 N   0  0  0  0  0  0  0  0  0  0  0  0
    7.7374   -0.9771   25.9061 C   0  0  0  0  0  0  0  0  0  0  0  0
    7.0813   -1.9819   26.5754 O   0  0  0  0  0  0  0  0  0  0  0  0
    7.8601   -2.2835   25.3570 C   0  0  0  0  0  0  0  0  0  0  0  0
    8.8599   -3.3974   25.6011 C   0  0  0  0  0  0  0  0  0  0  0  0
    8.1851   -4.7263   25.3217 C   0  0  0  0  0  0  0  0  0  0  0  0
    7.0819   -4.8272   24.5818 C   0  0  0  0  0  0  0  0  0  0  0  0
    6.4378   -6.4076   24.2057 Cl  0  0  0  0  0  0  0  0  0  0  0  0
    6.2425   -3.6959   24.0326 C   0  0  0  0  0  0  0  0  0  0  0  0
    6.9318   -2.3587   24.1526 C   0  0  1  0  0  0  0  0  0  0  0  0
    6.2826   -0.9802   24.1815 C   0  0  2  0  0  0  0  0  0  0  0  0
    7.0258   -1.4218   22.9613 C   0  0  2  0  0  0  0  0  0  0  0  0
    6.2333   -1.4224   21.6929 C   0  0  0  0  0  0  0  0  0  0  0  0
    5.2177   -2.0344   21.4203 O   0  0  0  0  0  0  0  0  0  0  0  0
    6.8569   -0.5434   20.8205 N   0  0  0  0  0  0  0  0  0  0  0  0
    6.1128    0.0336   19.7528 C   0  0  0  0  0  0  0  0  0  0  0  0
    6.4567   -0.2319   18.4526 C   0  0  0  0  0  0  0  0  0  0  0  0
    5.7928    0.2419   17.3679 N   0  0  0  0  0  0  0  0  0  0  0  0
    4.7589    1.0201   17.5852 C   0  0  0  0  0  0  0  0  0  0  0  0
    4.3089    1.3974   18.8823 C   0  0  0  0  0  0  0  0  0  0  0  0
    3.1929    2.2567   19.0629 C   0  0  0  0  0  0  0  0  0  0  0  0
    2.8040    2.6367   20.3173 C   0  0  0  0  0  0  0  0  0  0  0  0
    3.5104    2.1746   21.4524 C   0  0  0  0  0  0  0  0  0  0  0  0
    4.5846    1.3312   21.3059 C   0  0  0  0  0  0  0  0  0  0  0  0
    5.0054    0.9085   20.0090 C   0  0  0  0  0  0  0  0  0  0  0  0
    5.1226    0.9690   22.1820 H   0  0  0  0  0  0  0  0  0  0  0  0
    3.1935    2.4868   22.4434 H   0  0  0  0  0  0  0  0  0  0  0  0
    1.9547    3.3010   20.4500 H   0  0  0  0  0  0  0  0  0  0  0  0
    2.6724    2.6158   18.1787 H   0  0  0  0  0  0  0  0  0  0  0  0
    4.2186    1.3983   16.7141 H   0  0  0  0  0  0  0  0  0  0  0  0
    7.3065   -0.8796   18.2430 H   0  0  0  0  0  0  0  0  0  0  0  0
    8.0966    0.0377   21.2847 C   0  0  0  0  0  0  0  0  0  0  0  0
    8.4663   -0.8377   22.5972 C   0  0  0  0  0  0  0  0  0  0  0  0
    9.4272   -1.1537   23.3532 C   0  0  0  0  0  0  0  0  0  0  0  0
    9.9760   -3.2685   24.7803 F   0  0  0  0  0  0  0  0  0  0  0  0
   10.3806   -1.1872   23.8443 H   0  0  0  0  0  0  0  0  0  0  0  0
    7.9745    1.0862   21.5845 H   0  0  0  0  0  0  0  0  0  0  0  0
    8.8716   -0.0024   20.5218 H   0  0  0  0  0  0  0  0  0  0  0  0
    5.2110   -0.8504   24.0835 H   0  0  0  0  0  0  0  0  0  0  0  0
    5.9508   -3.8918   22.9963 H   0  0  0  0  0  0  0  0  0  0  0  0
    5.3234   -3.6847   24.6279 H   0  0  0  0  0  0  0  0  0  0  0  0
    8.6351   -5.6080   25.7575 H   0  0  0  0  0  0  0  0  0  0  0  0
    9.2445   -3.3893   26.6296 H   0  0  0  0  0  0  0  0  0  0  0  0
    6.5488    1.3347   26.5615 H   0  0  0  0  0  0  0  0  0  0  0  0
    5.6648    1.4423   25.0304 H   0  0  0  0  0  0  0  0  0  0  0  0
    6.7460    2.4877   23.1679 H   0  0  0  0  0  0  0  0  0  0  0  0
    8.7182    4.4746   23.9178 H   0  0  0  0  0  0  0  0  0  0  0  0
    9.5266    3.1159   23.1571 H   0  0  0  0  0  0  0  0  0  0  0  0
    8.2827    4.0165   22.2457 H   0  0  0  0  0  0  0  0  0  0  0  0
  1  2  1  0
  2  3  1  0
  3  4  2  0
  3  5  1  0
  5  6  1  0
  6  7  1  0
  7  8  2  0
  7  9  1  0
  9 10  2  0
 10 11  1  0
 11 12  2  0
 12 13  1  0
 12 14  1  0
 15 14  1  6
 15 16  1  0
 16 17  1  0
 17 18  1  6
 18 19  2  0
 18 20  1  0
 20 21  1  0
 21 22  2  0
 22 23  1  0
 23 24  2  0
 24 25  1  0
 25 26  2  0
 26 27  1  0
 27 28  2  0
 28 29  1  0
 29 30  2  0
 29 31  1  0
 28 32  1  0
 27 33  1  0
 26 34  1  0
 24 35  1  0
 22 36  1  0
 20 37  1  0
 37 38  1  0
 38 39  2  0
 39 40  1  0
 39 41  1  0
 37 42  1  0
 37 43  1  0
 16 44  1  6
 14 45  1  0
 14 46  1  0
 11 47  1  0
 10 48  1  0
  5 49  1  0
  5 50  1  0
  2 51  1  0
  1 52  1  0
  1 53  1  0
  1 54  1  0
 16  6  1  0
 38 17  1  0
 15  9  1  0
 30 21  1  0
 17 15  1  0
 30 25  1  0
M  END
>  <cnnaffinities>  (38) 
[6.46903]

>  <score>  (38) 
6.46903

>  <index>  (38) 
65

>  <Smiles>  (38) 
C(N(C(=O)C(N1C(=O)C2=C(C(=C(Cl)C([C@]32[C@@]1([C@@]13C(=O)N(c2c(nc(c3c(c(c(c(c23)[H])[H])[H])[H])[H])[H])C(/C/1=C(\F)/[H])([H])[H])[H])([H])[H])[H])[H])([H])[H])[H])([H])([H])[H]

>  <h>  (38) 
<NA>

>  <Training>  (38) 
True

>  <Success>  (38) 
True

>  <enamine_searched>  (38) 
False

>  <enamine_id>  (38) 
nan

$$$$

     RDKit          3D

 47 50  0  0  0  0  0  0  0  0999 V2000
    5.4688   -2.4304   20.9129 O   0  0  0  0  0  0  0  0  0  0  0  0
    6.1382   -1.6672   21.5835 C   0  0  0  0  0  0  0  0  0  0  0  0
    6.9057   -0.5050   20.9139 C   0  0  0  0  0  0  0  0  0  0  0  0
    6.1175    0.0892   19.7656 C   0  0  0  0  0  0  0  0  0  0  0  0
    6.4228   -0.2138   18.4632 C   0  0  0  0  0  0  0  0  0  0  0  0
    5.7601    0.2403   17.3642 N   0  0  0  0  0  0  0  0  0  0  0  0
    4.7365    1.0319   17.5753 C   0  0  0  0  0  0  0  0  0  0  0  0
    4.2865    1.4203   18.8677 C   0  0  0  0  0  0  0  0  0  0  0  0
    3.1620    2.2679   19.0466 C   0  0  0  0  0  0  0  0  0  0  0  0
    2.7481    2.6221   20.3024 C   0  0  0  0  0  0  0  0  0  0  0  0
    3.4442    2.1412   21.4344 C   0  0  0  0  0  0  0  0  0  0  0  0
    4.5361    1.3203   21.2848 C   0  0  0  0  0  0  0  0  0  0  0  0
    4.9916    0.9373   19.9965 C   0  0  0  0  0  0  0  0  0  0  0  0
    5.0616    0.9618   22.1644 H   0  0  0  0  0  0  0  0  0  0  0  0
    3.1072    2.4221   22.4288 H   0  0  0  0  0  0  0  0  0  0  0  0
    1.8880    3.2738   20.4387 H   0  0  0  0  0  0  0  0  0  0  0  0
    2.6412    2.6392   18.1661 H   0  0  0  0  0  0  0  0  0  0  0  0
    4.1994    1.4002   16.6990 H   0  0  0  0  0  0  0  0  0  0  0  0
    7.2658   -0.8686   18.2438 H   0  0  0  0  0  0  0  0  0  0  0  0
    7.8532   -0.9034   20.5239 H   0  0  0  0  0  0  0  0  0  0  0  0
    7.1654    0.2745   21.6458 H   0  0  0  0  0  0  0  0  0  0  0  0
    6.1918   -1.7438   22.9677 N   0  0  0  0  0  0  0  0  0  0  0  0
    7.4459   -1.6666   23.7166 C   0  0  0  0  0  0  0  0  0  0  0  0
    7.2225   -1.0293   25.0780 C   0  0  0  0  0  0  0  0  0  0  0  0
    6.1376   -1.7604   25.8679 C   0  0  1  0  0  0  0  0  0  0  0  0
    5.8695   -1.1103   27.2366 C   0  0  0  0  0  0  0  0  0  0  0  0
    5.1185    0.2184   27.1462 C   0  0  0  0  0  0  0  0  0  0  0  0
    3.8591    0.0737   26.3216 C   0  0  0  0  0  0  0  0  0  0  0  0
    3.2389    1.2895   26.1834 F   0  0  0  0  0  0  0  0  0  0  0  0
    2.9668   -0.7127   27.0062 F   0  0  0  0  0  0  0  0  0  0  0  0
    4.1011   -0.5393   24.9583 C   0  0  0  0  0  0  0  0  0  0  0  0
    4.8426   -1.8784   25.0488 C   0  0  1  0  0  0  0  0  0  0  0  0
    5.1293   -2.4697   23.6632 C   0  0  0  0  0  0  0  0  0  0  0  0
    5.3645   -3.5412   23.7619 H   0  0  0  0  0  0  0  0  0  0  0  0
    4.2329   -2.4186   23.0426 H   0  0  0  0  0  0  0  0  0  0  0  0
    4.1703   -2.5628   25.5776 H   0  0  0  0  0  0  0  0  0  0  0  0
    4.6730    0.1794   24.3673 H   0  0  0  0  0  0  0  0  0  0  0  0
    3.1314   -0.6633   24.4712 H   0  0  0  0  0  0  0  0  0  0  0  0
    4.8537    0.5977   28.1380 H   0  0  0  0  0  0  0  0  0  0  0  0
    5.7356    0.9789   26.6626 H   0  0  0  0  0  0  0  0  0  0  0  0
    6.8180   -0.9544   27.7619 H   0  0  0  0  0  0  0  0  0  0  0  0
    5.2849   -1.7990   27.8560 H   0  0  0  0  0  0  0  0  0  0  0  0
    6.5070   -2.7791   26.0508 H   0  0  0  0  0  0  0  0  0  0  0  0
    6.9599    0.0219   24.9425 H   0  0  0  0  0  0  0  0  0  0  0  0
    8.1592   -1.0322   25.6457 H   0  0  0  0  0  0  0  0  0  0  0  0
    7.8838   -2.6683   23.8606 H   0  0  0  0  0  0  0  0  0  0  0  0
    8.1747   -1.0986   23.1371 H   0  0  0  0  0  0  0  0  0  0  0  0
  1  2  2  0
  2  3  1  0
  3  4  1  0
  4  5  2  0
  5  6  1  0
  6  7  2  0
  7  8  1  0
  8  9  2  0
  9 10  1  0
 10 11  2  0
 11 12  1  0
 12 13  2  0
 12 14  1  0
 11 15  1  0
 10 16  1  0
  9 17  1  0
  7 18  1  0
  5 19  1  0
  3 20  1  0
  3 21  1  0
  2 22  1  0
 22 23  1  0
 23 24  1  0
 24 25  1  0
 25 26  1  0
 26 27  1  0
 27 28  1  0
 28 29  1  0
 28 30  1  0
 28 31  1  0
 31 32  1  0
 32 33  1  0
 33 34  1  0
 33 35  1  0
 32 36  1  1
 31 37  1  0
 31 38  1  0
 27 39  1  0
 27 40  1  0
 26 41  1  0
 26 42  1  0
 25 43  1  1
 24 44  1  0
 24 45  1  0
 23 46  1  0
 23 47  1  0
 13  4  1  0
 33 22  1  0
 13  8  1  0
 32 25  1  0
M  END
>  <cnnaffinities>  (39) 
[5.53527, 5.5352]

>  <score>  (39) 
5.53527

>  <index>  (39) 
66

>  <Smiles>  (39) 
O=C(C(c1c(nc(c2c(c(c(c(c12)[H])[H])[H])[H])[H])[H])([H])[H])N1C(C([C@]2(C(C(C(F)(F)C([C@]2(C1([H])[H])[H])([H])[H])([H])[H])([H])[H])[H])([H])[H])([H])[H]

>  <h>  (39) 
<NA>

>  <Training>  (39) 
True

>  <Success>  (39) 
True

>  <enamine_searched>  (39) 
False

>  <enamine_id>  (39) 
nan

$$$$

     RDKit          3D

 57 62  0  0  0  0  0  0  0  0999 V2000
    8.0218   -6.9985   24.0772 C   0  0  0  0  0  0  0  0  0  0  0  0
    6.6601   -6.7181   23.5814 C   0  0  0  0  0  0  0  0  0  0  0  0
    6.3931   -5.6660   22.8741 N   0  0  0  0  0  0  0  0  0  0  0  0
    5.0645   -5.4844   23.1369 C   0  0  0  0  0  0  0  0  0  0  0  0
    4.5005   -4.1223   22.8816 C   0  0  0  0  0  0  0  0  0  0  0  0
    5.3448   -3.1469   23.5518 N   0  0  0  0  0  0  0  0  0  0  0  0
    6.7241   -2.9233   23.1296 C   0  0  0  0  0  0  0  0  0  0  0  0
    6.8943   -1.4380   22.7995 C   0  0  2  0  0  0  0  0  0  0  0  0
    6.0798   -1.2380   21.5103 C   0  0  0  0  0  0  0  0  0  0  0  0
    4.9748   -1.6792   21.2599 O   0  0  0  0  0  0  0  0  0  0  0  0
    6.8287   -0.5136   20.6129 N   0  0  0  0  0  0  0  0  0  0  0  0
    6.1640    0.1494   19.5594 C   0  0  0  0  0  0  0  0  0  0  0  0
    6.5485   -0.0466   18.2594 C   0  0  0  0  0  0  0  0  0  0  0  0
    5.8715    0.4432   17.1934 N   0  0  0  0  0  0  0  0  0  0  0  0
    4.8009    1.1660   17.4389 C   0  0  0  0  0  0  0  0  0  0  0  0
    4.3355    1.4898   18.7455 C   0  0  0  0  0  0  0  0  0  0  0  0
    3.1804    2.2803   18.9704 C   0  0  0  0  0  0  0  0  0  0  0  0
    2.7964    2.6110   20.2409 C   0  0  0  0  0  0  0  0  0  0  0  0
    3.5554    2.1757   21.3509 C   0  0  0  0  0  0  0  0  0  0  0  0
    4.6688    1.3991   21.1672 C   0  0  0  0  0  0  0  0  0  0  0  0
    5.0594    1.0087   19.8498 C   0  0  0  0  0  0  0  0  0  0  0  0
    5.2475    1.0666   22.0297 H   0  0  0  0  0  0  0  0  0  0  0  0
    3.2472    2.4427   22.3565 H   0  0  0  0  0  0  0  0  0  0  0  0
    1.9155    3.2238   20.4062 H   0  0  0  0  0  0  0  0  0  0  0  0
    2.6243    2.6300   18.1061 H   0  0  0  0  0  0  0  0  0  0  0  0
    4.2445    1.5387   16.5784 H   0  0  0  0  0  0  0  0  0  0  0  0
    7.4265   -0.6535   18.0388 H   0  0  0  0  0  0  0  0  0  0  0  0
    8.0979   -0.0700   21.1531 C   0  0  0  0  0  0  0  0  0  0  0  0
    8.3313   -0.9848   22.3798 C   0  0  2  0  0  0  0  0  0  0  0  0
    9.3378   -2.0927   22.0411 C   0  0  0  0  0  0  0  0  0  0  0  0
    9.0453   -2.6438   21.1403 H   0  0  0  0  0  0  0  0  0  0  0  0
    9.4430   -2.8072   22.8633 H   0  0  0  0  0  0  0  0  0  0  0  0
   10.3258   -1.6479   21.8646 H   0  0  0  0  0  0  0  0  0  0  0  0
    8.7681   -0.4300   23.2164 H   0  0  0  0  0  0  0  0  0  0  0  0
    8.8855   -0.1856   20.4067 H   0  0  0  0  0  0  0  0  0  0  0  0
    8.0498    0.9939   21.4313 H   0  0  0  0  0  0  0  0  0  0  0  0
    6.3835   -0.6403   24.0056 C   0  0  0  0  0  0  0  0  0  0  0  0
    6.8026    0.6761   24.2463 C   0  0  0  0  0  0  0  0  0  0  0  0
    6.5877    1.2369   25.4944 C   0  0  0  0  0  0  0  0  0  0  0  0
    7.0766    2.4634   25.7517 F   0  0  0  0  0  0  0  0  0  0  0  0
    5.9317    0.5667   26.5215 C   0  0  0  0  0  0  0  0  0  0  0  0
    5.3927   -0.6721   26.2381 C   0  0  0  0  0  0  0  0  0  0  0  0
    5.5691   -1.2371   24.9779 C   0  0  0  0  0  0  0  0  0  0  0  0
    4.8594   -2.5079   24.6583 C   0  0  0  0  0  0  0  0  0  0  0  0
    3.9094   -2.9271   25.3007 O   0  0  0  0  0  0  0  0  0  0  0  0
    4.8276   -1.2366   26.9736 H   0  0  0  0  0  0  0  0  0  0  0  0
    5.8288    1.0297   27.4957 H   0  0  0  0  0  0  0  0  0  0  0  0
    7.3262    1.2713   23.5037 H   0  0  0  0  0  0  0  0  0  0  0  0
    7.4029   -3.2332   23.9342 H   0  0  0  0  0  0  0  0  0  0  0  0
    6.9276   -3.5291   22.2501 H   0  0  0  0  0  0  0  0  0  0  0  0
    4.4791   -3.8984   21.8111 H   0  0  0  0  0  0  0  0  0  0  0  0
    3.5031   -4.0371   23.3173 H   0  0  0  0  0  0  0  0  0  0  0  0
    4.5005   -6.4509   23.7971 N   0  0  0  0  0  0  0  0  0  0  0  0
    5.5769   -7.2896   24.1006 O   0  0  0  0  0  0  0  0  0  0  0  0
    8.6441   -6.2254   23.6528 H   0  0  0  0  0  0  0  0  0  0  0  0
    8.3860   -7.9904   23.8401 H   0  0  0  0  0  0  0  0  0  0  0  0
    8.0266   -6.8459   25.1593 H   0  0  0  0  0  0  0  0  0  0  0  0
  1  2  1  0
  2  3  2  0
  3  4  1  0
  4  5  1  0
  5  6  1  0
  6  7  1  0
  8  7  1  1
  8  9  1  0
  9 10  2  0
  9 11  1  0
 11 12  1  0
 12 13  2  0
 13 14  1  0
 14 15  2  0
 15 16  1  0
 16 17  2  0
 17 18  1  0
 18 19  2  0
 19 20  1  0
 20 21  2  0
 20 22  1  0
 19 23  1  0
 18 24  1  0
 17 25  1  0
 15 26  1  0
 13 27  1  0
 11 28  1  0
 28 29  1  0
 29 30  1  0
 30 31  1  0
 30 32  1  0
 30 33  1  0
 29 34  1  1
 28 35  1  0
 28 36  1  0
  8 37  1  0
 37 38  2  0
 38 39  1  0
 39 40  1  0
 39 41  2  0
 41 42  1  0
 42 43  2  0
 43 44  1  0
 44 45  2  0
 42 46  1  0
 41 47  1  0
 38 48  1  0
  7 49  1  0
  7 50  1  0
  5 51  1  0
  5 52  1  0
  4 53  2  0
 53 54  1  0
  1 55  1  0
  1 56  1  0
  1 57  1  0
 54  2  1  0
 44  6  1  0
 29  8  1  0
 43 37  1  0
 21 12  1  0
 21 16  1  0
M  END
>  <cnnaffinities>  (40) 
[6.04945]

>  <score>  (40) 
6.04945

>  <index>  (40) 
68

>  <Smiles>  (40) 
C(c1nc(C(N2C([C@@]3(C(=O)N(c4c(nc(c5c(c(c(c(c45)[H])[H])[H])[H])[H])[H])C([C@@]3(C([H])([H])[H])[H])([H])[H])c3c(c(F)c(c(c3C2=O)[H])[H])[H])([H])[H])([H])[H])no1)([H])([H])[H]

>  <h>  (40) 
<NA>

>  <Training>  (40) 
True

>  <Success>  (40) 
True

>  <enamine_searched>  (40) 
False

>  <enamine_id>  (40) 
nan

$$$$

     RDKit          3D

 64 68  0  0  0  0  0  0  0  0999 V2000
    2.4406   -1.8791   27.4710 C   0  0  0  0  0  0  0  0  0  0  0  0
    3.1431   -1.8071   26.1065 C   0  0  0  0  0  0  0  0  0  0  0  0
    4.6430   -1.5357   26.2150 C   0  0  0  0  0  0  0  0  0  0  0  0
    5.0353   -0.4564   26.6113 O   0  0  0  0  0  0  0  0  0  0  0  0
    5.5222   -2.5462   25.7968 N   0  0  0  0  0  0  0  0  0  0  0  0
    5.2682   -3.9473   26.1469 C   0  0  0  0  0  0  0  0  0  0  0  0
    6.5510   -4.6080   26.6505 C   0  0  0  0  0  0  0  0  0  0  0  0
    7.6057   -4.5573   25.5467 C   0  0  0  0  0  0  0  0  0  0  0  0
    7.7177   -3.1721   24.9442 C   0  0  0  0  0  0  0  0  0  0  0  0
    8.8414   -2.8420   24.1955 C   0  0  0  0  0  0  0  0  0  0  0  0
    8.9678   -1.6255   23.5416 C   0  0  0  0  0  0  0  0  0  0  0  0
    7.9286   -0.7018   23.6466 C   0  0  0  0  0  0  0  0  0  0  0  0
    8.0073    0.5406   22.9444 N   0  0  0  0  0  0  0  0  0  0  0  0
    8.4519    1.7132   23.6965 C   0  0  0  0  0  0  0  0  0  0  0  0
    7.3222    2.3474   24.4606 C   0  0  0  0  0  0  0  0  0  0  0  0
    6.3602    3.0896   23.7820 C   0  0  0  0  0  0  0  0  0  0  0  0
    5.2732    3.6095   24.4753 C   0  0  0  0  0  0  0  0  0  0  0  0
    5.1331    3.3990   25.8439 C   0  0  0  0  0  0  0  0  0  0  0  0
    6.1097    2.6707   26.5119 C   0  0  0  0  0  0  0  0  0  0  0  0
    5.9531    2.3880   28.2249 Cl  0  0  0  0  0  0  0  0  0  0  0  0
    7.1986    2.1433   25.8326 C   0  0  0  0  0  0  0  0  0  0  0  0
    7.9168    1.5399   26.3803 H   0  0  0  0  0  0  0  0  0  0  0  0
    4.2840    3.7884   26.3959 H   0  0  0  0  0  0  0  0  0  0  0  0
    4.5232    4.1851   23.9389 H   0  0  0  0  0  0  0  0  0  0  0  0
    6.4693    3.2367   22.7081 H   0  0  0  0  0  0  0  0  0  0  0  0
    9.2106    1.4022   24.4224 H   0  0  0  0  0  0  0  0  0  0  0  0
    8.8661    2.4158   22.9647 H   0  0  0  0  0  0  0  0  0  0  0  0
    7.7504    0.6863   21.5928 C   0  0  0  0  0  0  0  0  0  0  0  0
    8.1489    1.6492   20.9675 O   0  0  0  0  0  0  0  0  0  0  0  0
    6.9392   -0.4290   20.9074 C   0  0  0  0  0  0  0  0  0  0  0  0
    6.1139    0.0969   19.7638 C   0  0  0  0  0  0  0  0  0  0  0  0
    6.4263   -0.1952   18.4629 C   0  0  0  0  0  0  0  0  0  0  0  0
    5.7612    0.2559   17.3668 N   0  0  0  0  0  0  0  0  0  0  0  0
    4.7290    1.0412   17.5742 C   0  0  0  0  0  0  0  0  0  0  0  0
    4.2890    1.4185   18.8709 C   0  0  0  0  0  0  0  0  0  0  0  0
    3.1640    2.2446   19.0856 C   0  0  0  0  0  0  0  0  0  0  0  0
    2.4626    2.6330   18.0052 F   0  0  0  0  0  0  0  0  0  0  0  0
    2.7509    2.6327   20.3239 C   0  0  0  0  0  0  0  0  0  0  0  0
    3.4523    2.1466   21.4475 C   0  0  0  0  0  0  0  0  0  0  0  0
    4.5392    1.3252   21.2979 C   0  0  0  0  0  0  0  0  0  0  0  0
    4.9952    0.9461   20.0054 C   0  0  0  0  0  0  0  0  0  0  0  0
    5.0537    0.9478   22.1781 H   0  0  0  0  0  0  0  0  0  0  0  0
    3.0930    2.4150   22.4388 H   0  0  0  0  0  0  0  0  0  0  0  0
    1.8921    3.2867   20.4144 H   0  0  0  0  0  0  0  0  0  0  0  0
    4.1941    1.4048   16.6984 H   0  0  0  0  0  0  0  0  0  0  0  0
    7.2726   -0.8455   18.2362 H   0  0  0  0  0  0  0  0  0  0  0  0
    7.6556   -1.1663   20.5227 H   0  0  0  0  0  0  0  0  0  0  0  0
    6.3323   -0.9433   21.6628 H   0  0  0  0  0  0  0  0  0  0  0  0
    6.8119   -0.9862   24.4185 C   0  0  0  0  0  0  0  0  0  0  0  0
    6.6915   -2.2215   25.0733 C   0  0  0  0  0  0  0  0  0  0  0  0
    6.0142   -0.2525   24.4697 H   0  0  0  0  0  0  0  0  0  0  0  0
    9.8586   -1.3952   22.9637 H   0  0  0  0  0  0  0  0  0  0  0  0
    9.6372   -3.5779   24.1186 H   0  0  0  0  0  0  0  0  0  0  0  0
    8.5867   -4.8752   25.9268 H   0  0  0  0  0  0  0  0  0  0  0  0
    7.3466   -5.2814   24.7537 H   0  0  0  0  0  0  0  0  0  0  0  0
    6.3462   -5.6465   26.9397 H   0  0  0  0  0  0  0  0  0  0  0  0
    6.9109   -4.0802   27.5454 H   0  0  0  0  0  0  0  0  0  0  0  0
    4.5029   -3.9445   26.9295 H   0  0  0  0  0  0  0  0  0  0  0  0
    4.8727   -4.5052   25.2801 H   0  0  0  0  0  0  0  0  0  0  0  0
    2.9473   -2.6927   25.4874 H   0  0  0  0  0  0  0  0  0  0  0  0
    2.7554   -0.9374   25.5570 H   0  0  0  0  0  0  0  0  0  0  0  0
    2.6029   -0.9505   28.0314 H   0  0  0  0  0  0  0  0  0  0  0  0
    2.8033   -2.7172   28.0813 H   0  0  0  0  0  0  0  0  0  0  0  0
    1.3592   -2.0040   27.3334 H   0  0  0  0  0  0  0  0  0  0  0  0
  1  2  1  0
  2  3  1  0
  3  4  2  0
  3  5  1  0
  5  6  1  0
  6  7  1  0
  7  8  1  0
  8  9  1  0
  9 10  2  0
 10 11  1  0
 11 12  2  0
 12 13  1  0
 13 14  1  0
 14 15  1  0
 15 16  2  0
 16 17  1  0
 17 18  2  0
 18 19  1  0
 19 20  1  0
 19 21  2  0
 21 22  1  0
 18 23  1  0
 17 24  1  0
 16 25  1  0
 14 26  1  0
 14 27  1  0
 13 28  1  0
 28 29  2  0
 28 30  1  0
 30 31  1  0
 31 32  2  0
 32 33  1  0
 33 34  2  0
 34 35  1  0
 35 36  2  0
 36 37  1  0
 36 38  1  0
 38 39  2  0
 39 40  1  0
 40 41  2  0
 40 42  1  0
 39 43  1  0
 38 44  1  0
 34 45  1  0
 32 46  1  0
 30 47  1  0
 30 48  1  0
 12 49  1  0
 49 50  2  0
 49 51  1  0
 11 52  1  0
 10 53  1  0
  8 54  1  0
  8 55  1  0
  7 56  1  0
  7 57  1  0
  6 58  1  0
  6 59  1  0
  2 60  1  0
  2 61  1  0
  1 62  1  0
  1 63  1  0
  1 64  1  0
 50  5  1  0
 50  9  1  0
 21 15  1  0
 41 31  1  0
 41 35  1  0
M  END
>  <cnnaffinities>  (41) 
[6.46206, 6.36739, 5.91513]

>  <score>  (41) 
6.46206

>  <index>  (41) 
69

>  <Smiles>  (41) 
C(C(C(=O)N1C(C(C(c2c(c(c(N(C(c3c(c(c(c(Cl)c3[H])[H])[H])[H])([H])[H])C(=O)C(c3c(nc(c4c(F)c(c(c(c34)[H])[H])[H])[H])[H])([H])[H])c(c12)[H])[H])[H])([H])[H])([H])[H])([H])[H])([H])[H])([H])([H])[H]

>  <h>  (41) 
<NA>

>  <Training>  (41) 
True

>  <Success>  (41) 
True

>  <enamine_searched>  (41) 
False

>  <enamine_id>  (41) 
nan

$$$$

     RDKit          3D

 59 64  0  0  0  0  0  0  0  0999 V2000
    9.7121   -2.0030   21.8590 C   0  0  0  0  0  0  0  0  0  0  0  0
    8.6668   -0.9886   22.3152 C   0  0  1  0  0  0  0  0  0  0  0  0
    8.2132   -0.0805   21.1458 C   0  0  0  0  0  0  0  0  0  0  0  0
    6.8626   -0.4908   20.8414 N   0  0  0  0  0  0  0  0  0  0  0  0
    6.1008    0.0609   19.7714 C   0  0  0  0  0  0  0  0  0  0  0  0
    6.4371   -0.2132   18.4699 C   0  0  0  0  0  0  0  0  0  0  0  0
    5.7678    0.2415   17.3792 N   0  0  0  0  0  0  0  0  0  0  0  0
    4.7365    1.0290   17.5807 C   0  0  0  0  0  0  0  0  0  0  0  0
    4.2893    1.4228   18.8746 C   0  0  0  0  0  0  0  0  0  0  0  0
    3.1706    2.2822   19.0518 C   0  0  0  0  0  0  0  0  0  0  0  0
    2.7794    2.6565   20.3076 C   0  0  0  0  0  0  0  0  0  0  0  0
    3.4870    2.1955   21.4383 C   0  0  0  0  0  0  0  0  0  0  0  0
    4.5702    1.3661   21.2969 C   0  0  0  0  0  0  0  0  0  0  0  0
    4.9940    0.9425   20.0091 C   0  0  0  0  0  0  0  0  0  0  0  0
    5.1151    1.0147   22.1729 H   0  0  0  0  0  0  0  0  0  0  0  0
    3.1734    2.4988   22.4322 H   0  0  0  0  0  0  0  0  0  0  0  0
    1.9282    3.3178   20.4477 H   0  0  0  0  0  0  0  0  0  0  0  0
    2.6413    2.6494   18.1727 H   0  0  0  0  0  0  0  0  0  0  0  0
    4.1990    1.4002   16.7006 H   0  0  0  0  0  0  0  0  0  0  0  0
    7.2779   -0.8733   18.2594 H   0  0  0  0  0  0  0  0  0  0  0  0
    6.3365   -1.3594   21.7719 C   0  0  0  0  0  0  0  0  0  0  0  0
    5.2210   -1.8406   21.7176 O   0  0  0  0  0  0  0  0  0  0  0  0
    7.3657   -1.6026   22.8897 C   0  0  1  0  0  0  0  0  0  0  0  0
    7.4706   -3.1231   23.1566 C   0  0  0  0  0  0  0  0  0  0  0  0
    6.2343   -3.6233   23.7289 N   0  0  0  0  0  0  0  0  0  0  0  0
    5.6435   -4.8519   23.2029 C   0  0  0  0  0  0  0  0  0  0  0  0
    6.0421   -5.9669   23.9653 C   0  0  0  0  0  0  0  0  0  0  0  0
    5.3145   -6.4440   24.8991 N   0  0  0  0  0  0  0  0  0  0  0  0
    6.1104   -7.3965   25.3943 C   0  0  0  0  0  0  0  0  0  0  0  0
    7.3591   -7.2374   24.8107 C   0  0  0  0  0  0  0  0  0  0  0  0
    7.4138   -6.4705   23.4975 N   0  0  0  0  0  0  0  0  0  0  0  0
    7.4138   -6.4705   23.4975 C   0  0  0  0  0  0  0  0  0  0  0  0
    7.3193   -6.3621   22.3134 H   0  0  0  0  0  0  0  0  0  0  0  0
    8.5066   -5.8364   23.5529 H   0  0  0  0  0  0  0  0  0  0  0  0
    8.6957   -7.5740   23.4160 H   0  0  0  0  0  0  0  0  0  0  0  0
    9.1257   -6.8523   23.4834 H   0  0  0  0  0  0  0  0  0  0  0  0
    5.8319   -8.0092   26.2674 H   0  0  0  0  0  0  0  0  0  0  0  0
    5.9576   -5.0682   22.1892 H   0  0  0  0  0  0  0  0  0  0  0  0
    4.5683   -4.8527   23.2967 H   0  0  0  0  0  0  0  0  0  0  0  0
    5.6962   -3.0617   24.8566 C   0  0  0  0  0  0  0  0  0  0  0  0
    4.9012   -3.6510   25.5762 O   0  0  0  0  0  0  0  0  0  0  0  0
    6.0889   -1.6334   25.1024 C   0  0  0  0  0  0  0  0  0  0  0  0
    5.5926   -0.9864   26.2410 C   0  0  0  0  0  0  0  0  0  0  0  0
    5.8154    0.3597   26.4592 C   0  0  0  0  0  0  0  0  0  0  0  0
    6.5279    1.0568   25.4929 C   0  0  0  0  0  0  0  0  0  0  0  0
    6.7257    2.3739   25.6717 F   0  0  0  0  0  0  0  0  0  0  0  0
    7.0324    0.4498   24.3576 C   0  0  0  0  0  0  0  0  0  0  0  0
    6.8610   -0.9271   24.1652 C   0  0  0  0  0  0  0  0  0  0  0  0
    7.5470    1.0702   23.6323 H   0  0  0  0  0  0  0  0  0  0  0  0
    5.4369    0.8783   27.3378 H   0  0  0  0  0  0  0  0  0  0  0  0
    5.0076   -1.5404   26.9660 H   0  0  0  0  0  0  0  0  0  0  0  0
    7.6745   -3.6462   22.2200 H   0  0  0  0  0  0  0  0  0  0  0  0
    8.3201   -3.3084   23.8364 H   0  0  0  0  0  0  0  0  0  0  0  0
    8.2558    0.9861   21.4064 H   0  0  0  0  0  0  0  0  0  0  0  0
    8.8506   -0.2086   20.2764 H   0  0  0  0  0  0  0  0  0  0  0  0
    9.1579   -0.3957   23.0931 H   0  0  0  0  0  0  0  0  0  0  0  0
   10.0979   -2.6381   22.6540 H   0  0  0  0  0  0  0  0  0  0  0  0
   10.6149   -1.4848   21.5817 H   0  0  0  0  0  0  0  0  0  0  0  0
    9.3799   -2.6176   21.0169 H   0  0  0  0  0  0  0  0  0  0  0  0
  1  2  1  0
  2  3  1  0
  3  4  1  0
  4  5  1  0
  5  6  2  0
  6  7  1  0
  7  8  2  0
  8  9  1  0
  9 10  2  0
 10 11  1  0
 11 12  2  0
 12 13  1  0
 13 14  2  0
 13 15  1  0
 12 16  1  0
 11 17  1  0
 10 18  1  0
  8 19  1  0
  6 20  1  0
  4 21  1  0
 21 22  2  0
 21 23  1  0
 23 24  1  1
 24 25  1  0
 25 26  1  0
 26 27  1  0
 27 28  2  0
 28 29  1  0
 29 30  2  0
 30 31  1  0
 31 32  1  0
 32 33  1  0
 32 34  1  0
 32 35  1  0
 30 36  1  0
 29 37  1  0
 26 38  1  0
 26 39  1  0
 25 40  1  0
 40 41  2  0
 40 42  1  0
 42 43  2  0
 43 44  1  0
 44 45  2  0
 45 46  1  0
 45 47  1  0
 47 48  2  0
 47 49  1  0
 44 50  1  0
 43 51  1  0
 24 52  1  0
 24 53  1  0
  3 54  1  0
  3 55  1  0
  2 56  1  1
  1 57  1  0
  1 58  1  0
  1 59  1  0
 23  2  1  0
 31 27  1  0
 48 42  1  0
 14  5  1  0
 48 23  1  0
 14  9  1  0
M  END
>  <cnnaffinities>  (42) 
[6.03961]

>  <score>  (42) 
6.03961

>  <index>  (42) 
71

>  <Smiles>  (42) 
C([C@]1(C(N(c2c(nc(c3c(c(c(c(c23)[H])[H])[H])[H])[H])[H])C(=O)[C@]21C(N(C(c1nc(c(n1C([H])([H])[H])[H])[H])([H])[H])C(=O)c1c(c(c(F)c(c21)[H])[H])[H])([H])[H])([H])[H])[H])([H])([H])[H]

>  <h>  (42) 
<NA>

>  <Training>  (42) 
True

>  <Success>  (42) 
True

>  <enamine_searched>  (42) 
False

>  <enamine_id>  (42) 
nan

$$$$

     RDKit          3D

 60 64  0  0  0  0  0  0  0  0999 V2000
    2.4215   -4.7405   22.3559 C   0  0  0  0  0  0  0  0  0  0  0  0
    3.5906   -4.0823   22.6919 N   0  0  0  0  0  0  0  0  0  0  0  0
    4.8095   -4.8417   22.2387 C   0  0  0  0  0  0  0  0  0  0  0  0
    4.8867   -5.1900   21.0965 O   0  0  0  0  0  0  0  0  0  0  0  0
    5.8794   -5.0417   23.2972 C   0  0  0  0  0  0  0  0  0  0  0  0
    6.3687   -3.7736   23.8276 N   0  0  0  0  0  0  0  0  0  0  0  0
    7.5072   -3.1312   23.1728 C   0  0  0  0  0  0  0  0  0  0  0  0
    7.2516   -1.6311   22.8739 C   0  0  2  0  0  0  0  0  0  0  0  0
    6.2157   -1.4867   21.7375 C   0  0  0  0  0  0  0  0  0  0  0  0
    5.1194   -2.0322   21.6854 O   0  0  0  0  0  0  0  0  0  0  0  0
    6.7198   -0.6256   20.8010 N   0  0  0  0  0  0  0  0  0  0  0  0
    5.9795   -0.0417   19.7454 C   0  0  0  0  0  0  0  0  0  0  0  0
    6.3851   -0.2501   18.4535 C   0  0  0  0  0  0  0  0  0  0  0  0
    5.7632    0.2567   17.3624 N   0  0  0  0  0  0  0  0  0  0  0  0
    4.7272    1.0356   17.5743 C   0  0  0  0  0  0  0  0  0  0  0  0
    4.2440    1.3867   18.8689 C   0  0  0  0  0  0  0  0  0  0  0  0
    3.1447    2.2687   19.0437 C   0  0  0  0  0  0  0  0  0  0  0  0
    2.7649    2.6583   20.2981 C   0  0  0  0  0  0  0  0  0  0  0  0
    3.4676    2.1958   21.4343 C   0  0  0  0  0  0  0  0  0  0  0  0
    4.5195    1.3247   21.2984 C   0  0  0  0  0  0  0  0  0  0  0  0
    4.9093    0.8729   20.0017 C   0  0  0  0  0  0  0  0  0  0  0  0
    5.0664    0.9861   22.1801 H   0  0  0  0  0  0  0  0  0  0  0  0
    3.1683    2.5354   22.4215 H   0  0  0  0  0  0  0  0  0  0  0  0
    1.9299    3.3407   20.4295 H   0  0  0  0  0  0  0  0  0  0  0  0
    2.6355    2.6412   18.1593 H   0  0  0  0  0  0  0  0  0  0  0  0
    4.2290    1.4455   16.6962 H   0  0  0  0  0  0  0  0  0  0  0  0
    7.2556   -0.8790   18.2654 H   0  0  0  0  0  0  0  0  0  0  0  0
    8.0054   -0.0543   21.1361 C   0  0  0  0  0  0  0  0  0  0  0  0
    8.5010   -0.8793   22.3282 C   0  0  2  0  0  0  0  0  0  0  0  0
    9.6310   -1.6882   21.9410 N   0  0  0  0  0  0  0  0  0  0  0  0
   10.7190   -1.8518   22.7547 C   0  0  0  0  0  0  0  0  0  0  0  0
   10.8738   -1.2064   23.7787 O   0  0  0  0  0  0  0  0  0  0  0  0
   11.5986   -2.9944   22.3260 C   0  0  0  0  0  0  0  0  0  0  0  0
   11.0305   -3.8966   22.5808 H   0  0  0  0  0  0  0  0  0  0  0  0
   11.7910   -2.9926   21.2472 H   0  0  0  0  0  0  0  0  0  0  0  0
   12.5386   -2.9918   22.8764 H   0  0  0  0  0  0  0  0  0  0  0  0
    9.5490   -2.2545   21.1100 H   0  0  0  0  0  0  0  0  0  0  0  0
    8.9129   -0.2578   23.1211 H   0  0  0  0  0  0  0  0  0  0  0  0
    8.6908   -0.1292   20.2911 H   0  0  0  0  0  0  0  0  0  0  0  0
    7.9090    1.0139   21.3762 H   0  0  0  0  0  0  0  0  0  0  0  0
    6.7129   -0.9727   24.1362 C   0  0  0  0  0  0  0  0  0  0  0  0
    6.8835    0.3980   24.3781 C   0  0  0  0  0  0  0  0  0  0  0  0
    6.3895    0.9643   25.5405 C   0  0  0  0  0  0  0  0  0  0  0  0
    6.6411    2.6667   25.8285 Cl  0  0  0  0  0  0  0  0  0  0  0  0
    5.7003    0.2037   26.4849 C   0  0  0  0  0  0  0  0  0  0  0  0
    5.4756   -1.1339   26.2187 C   0  0  0  0  0  0  0  0  0  0  0  0
    5.9504   -1.7156   25.0424 C   0  0  0  0  0  0  0  0  0  0  0  0
    5.5603   -3.1157   24.7041 C   0  0  0  0  0  0  0  0  0  0  0  0
    4.5210   -3.6258   25.1455 O   0  0  0  0  0  0  0  0  0  0  0  0
    4.9235   -1.7453   26.9236 H   0  0  0  0  0  0  0  0  0  0  0  0
    5.3366    0.6752   27.3932 H   0  0  0  0  0  0  0  0  0  0  0  0
    7.4121    1.0346   23.6730 H   0  0  0  0  0  0  0  0  0  0  0  0
    7.6728   -3.6550   22.2302 H   0  0  0  0  0  0  0  0  0  0  0  0
    8.4078   -3.2315   23.7892 H   0  0  0  0  0  0  0  0  0  0  0  0
    5.4519   -5.6129   24.1288 H   0  0  0  0  0  0  0  0  0  0  0  0
    6.6778   -5.6241   22.8214 H   0  0  0  0  0  0  0  0  0  0  0  0
    3.6614   -3.9836   23.7376 H   0  0  0  0  0  0  0  0  0  0  0  0
    1.4847   -4.2167   22.3032 H   0  0  0  0  0  0  0  0  0  0  0  0
    3.7026   -3.1211   22.2683 H   0  0  0  0  0  0  0  0  0  0  0  0
    2.5196   -5.8043   22.2498 H   0  0  0  0  0  0  0  0  0  0  0  0
  1  2  1  0
  2  3  1  0
  3  4  2  0
  3  5  1  0
  5  6  1  0
  6  7  1  0
  8  7  1  1
  8  9  1  0
  9 10  2  0
  9 11  1  0
 11 12  1  0
 12 13  2  0
 13 14  1  0
 14 15  2  0
 15 16  1  0
 16 17  2  0
 17 18  1  0
 18 19  2  0
 19 20  1  0
 20 21  2  0
 20 22  1  0
 19 23  1  0
 18 24  1  0
 17 25  1  0
 15 26  1  0
 13 27  1  0
 11 28  1  0
 28 29  1  0
 29 30  1  0
 30 31  1  0
 31 32  2  0
 31 33  1  0
 33 34  1  0
 33 35  1  0
 33 36  1  0
 30 37  1  0
 29 38  1  1
 28 39  1  0
 28 40  1  0
  8 41  1  0
 41 42  2  0
 42 43  1  0
 43 44  1  0
 43 45  2  0
 45 46  1  0
 46 47  2  0
 47 48  1  0
 48 49  2  0
 46 50  1  0
 45 51  1  0
 42 52  1  0
  7 53  1  0
  7 54  1  0
  5 55  1  0
  5 56  1  0
  2 57  1  0
  1 58  1  0
  1 59  1  0
  1 60  1  0
 48  6  1  0
 29  8  1  0
 47 41  1  0
 21 12  1  0
 21 16  1  0
M  END
>  <cnnaffinities>  (43) 
[6.73203]

>  <score>  (43) 
6.73203

>  <index>  (43) 
72

>  <Smiles>  (43) 
C(N(C(=O)C(N1C([C@@]2(C(=O)N(c3c(nc(c4c(c(c(c(c34)[H])[H])[H])[H])[H])[H])C([C@@]2(N(C(=O)C([H])([H])[H])[H])[H])([H])[H])c2c(c(Cl)c(c(c2C1=O)[H])[H])[H])([H])[H])([H])[H])[H])([H])([H])[H]

>  <h>  (43) 
<NA>

>  <Training>  (43) 
True

>  <Success>  (43) 
True

>  <enamine_searched>  (43) 
False

>  <enamine_id>  (43) 
nan

$$$$

     RDKit          3D

 56 61  0  0  0  0  0  0  0  0999 V2000
    9.7385   -1.9978   21.9227 C   0  0  0  0  0  0  0  0  0  0  0  0
    8.6448   -0.9942   22.3336 C   0  0  1  0  0  0  0  0  0  0  0  0
    8.2018   -0.0982   21.1436 C   0  0  0  0  0  0  0  0  0  0  0  0
    6.8503   -0.5126   20.8342 N   0  0  0  0  0  0  0  0  0  0  0  0
    6.0970    0.0496   19.7701 C   0  0  0  0  0  0  0  0  0  0  0  0
    6.4414   -0.2227   18.4710 C   0  0  0  0  0  0  0  0  0  0  0  0
    5.7818    0.2456   17.3817 N   0  0  0  0  0  0  0  0  0  0  0  0
    4.7505    1.0269   17.5970 C   0  0  0  0  0  0  0  0  0  0  0  0
    4.2952    1.4135   18.8890 C   0  0  0  0  0  0  0  0  0  0  0  0
    3.1789    2.2756   19.0599 C   0  0  0  0  0  0  0  0  0  0  0  0
    2.7824    2.6571   20.3098 C   0  0  0  0  0  0  0  0  0  0  0  0
    3.4911    2.2029   21.4464 C   0  0  0  0  0  0  0  0  0  0  0  0
    4.5723    1.3692   21.3118 C   0  0  0  0  0  0  0  0  0  0  0  0
    4.9923    0.9302   20.0216 C   0  0  0  0  0  0  0  0  0  0  0  0
    5.1055    1.0291   22.2008 H   0  0  0  0  0  0  0  0  0  0  0  0
    3.1647    2.5095   22.4352 H   0  0  0  0  0  0  0  0  0  0  0  0
    1.9292    3.3172   20.4376 H   0  0  0  0  0  0  0  0  0  0  0  0
    2.6636    2.6316   18.1700 H   0  0  0  0  0  0  0  0  0  0  0  0
    4.2178    1.3899   16.7180 H   0  0  0  0  0  0  0  0  0  0  0  0
    7.2895   -0.8728   18.2617 H   0  0  0  0  0  0  0  0  0  0  0  0
    6.2997   -1.3856   21.7441 C   0  0  0  0  0  0  0  0  0  0  0  0
    5.1854   -1.8594   21.6538 O   0  0  0  0  0  0  0  0  0  0  0  0
    7.3270   -1.6261   22.8779 C   0  0  1  0  0  0  0  0  0  0  0  0
    7.4725   -3.1361   23.1550 C   0  0  0  0  0  0  0  0  0  0  0  0
    6.2802   -3.6860   23.7530 N   0  0  0  0  0  0  0  0  0  0  0  0
    5.6521   -4.8425   23.1477 C   0  0  0  0  0  0  0  0  0  0  0  0
    4.0961   -4.8397   23.0420 C   0  0  0  0  0  0  0  0  0  0  0  0
    3.9976   -6.0529   23.9638 N   0  0  0  0  0  4  0  0  0  0  0  0
    5.5216   -6.1280   24.0192 C   0  0  0  0  0  0  0  0  0  0  0  0
    5.8939   -7.0527   23.5854 H   0  0  0  0  0  0  0  0  0  0  0  0
    5.8942   -6.0325   25.0348 H   0  0  0  0  0  0  0  0  0  0  0  0
    3.5142   -6.8847   23.5771 H   0  0  0  0  0  0  0  0  0  0  0  0
    3.6134   -5.7844   24.8917 H   0  0  0  0  0  0  0  0  0  0  0  0
    3.6069   -3.9619   23.4568 H   0  0  0  0  0  0  0  0  0  0  0  0
    3.6733   -5.0420   22.0614 H   0  0  0  0  0  0  0  0  0  0  0  0
    6.1714   -4.9636   22.1887 H   0  0  0  0  0  0  0  0  0  0  0  0
    5.7542   -3.1280   24.8844 C   0  0  0  0  0  0  0  0  0  0  0  0
    4.9864   -3.7601   25.6126 O   0  0  0  0  0  0  0  0  0  0  0  0
    6.1070   -1.6821   25.1145 C   0  0  0  0  0  0  0  0  0  0  0  0
    5.6288   -1.0415   26.2587 C   0  0  0  0  0  0  0  0  0  0  0  0
    5.8247    0.3139   26.4465 C   0  0  0  0  0  0  0  0  0  0  0  0
    6.4971    1.0428   25.4687 C   0  0  0  0  0  0  0  0  0  0  0  0
    6.7074    2.7583   25.6841 Cl  0  0  0  0  0  0  0  0  0  0  0  0
    6.9917    0.4282   24.3321 C   0  0  0  0  0  0  0  0  0  0  0  0
    6.8250   -0.9540   24.1534 C   0  0  0  0  0  0  0  0  0  0  0  0
    7.4883    1.0482   23.5900 H   0  0  0  0  0  0  0  0  0  0  0  0
    5.4520    0.8200   27.3282 H   0  0  0  0  0  0  0  0  0  0  0  0
    5.0819   -1.6379   26.9805 H   0  0  0  0  0  0  0  0  0  0  0  0
    7.6651   -3.6525   22.2131 H   0  0  0  0  0  0  0  0  0  0  0  0
    8.3321   -3.2860   23.8260 H   0  0  0  0  0  0  0  0  0  0  0  0
    8.2216    0.9798   21.3776 H   0  0  0  0  0  0  0  0  0  0  0  0
    8.8574   -0.2501   20.2844 H   0  0  0  0  0  0  0  0  0  0  0  0
    9.0894   -0.3892   23.1336 H   0  0  0  0  0  0  0  0  0  0  0  0
   10.6565   -1.4621   21.6755 H   0  0  0  0  0  0  0  0  0  0  0  0
    9.4278   -2.6038   21.0631 H   0  0  0  0  0  0  0  0  0  0  0  0
    9.9990   -2.6771   22.7393 H   0  0  0  0  0  0  0  0  0  0  0  0
  1  2  1  0
  2  3  1  0
  3  4  1  0
  4  5  1  0
  5  6  2  0
  6  7  1  0
  7  8  2  0
  8  9  1  0
  9 10  2  0
 10 11  1  0
 11 12  2  0
 12 13  1  0
 13 14  2  0
 13 15  1  0
 12 16  1  0
 11 17  1  0
 10 18  1  0
  8 19  1  0
  6 20  1  0
  4 21  1  0
 21 22  2  0
 21 23  1  0
 23 24  1  1
 24 25  1  0
 25 26  1  0
 26 27  1  0
 27 28  1  0
 28 29  1  0
 29 30  1  0
 29 31  1  0
 28 32  1  0
 28 33  1  0
 27 34  1  0
 27 35  1  0
 26 36  1  0
 25 37  1  0
 37 38  2  0
 37 39  1  0
 39 40  2  0
 40 41  1  0
 41 42  2  0
 42 43  1  0
 42 44  1  0
 44 45  2  0
 44 46  1  0
 41 47  1  0
 40 48  1  0
 24 49  1  0
 24 50  1  0
  3 51  1  0
  3 52  1  0
  2 53  1  1
  1 54  1  0
  1 55  1  0
  1 56  1  0
 23  2  1  0
 29 26  1  0
 45 39  1  0
 14  5  1  0
 45 23  1  0
 14  9  1  0
M  CHG  1  28   1
M  END
>  <cnnaffinities>  (44) 
[6.03271, 6.03328]

>  <score>  (44) 
6.03271

>  <index>  (44) 
73

>  <Smiles>  (44) 
C([C@]1(C(N(c2c(nc(c3c(c(c(c(c23)[H])[H])[H])[H])[H])[H])C(=O)[C@]21C(N(C1(C([N+](C1([H])[H])([H])[H])([H])[H])[H])C(=O)c1c(c(c(Cl)c(c21)[H])[H])[H])([H])[H])([H])[H])[H])([H])([H])[H]

>  <h>  (44) 
<NA>

>  <Training>  (44) 
True

>  <Success>  (44) 
True

>  <enamine_searched>  (44) 
False

>  <enamine_id>  (44) 
nan

$$$$

     RDKit          3D

 55 60  0  0  0  0  0  0  0  0999 V2000
    9.6232   -2.0567   21.9716 C   0  0  0  0  0  0  0  0  0  0  0  0
    8.5753   -0.9942   22.3497 C   0  0  1  0  0  0  0  0  0  0  0  0
    8.2084   -0.1042   21.1374 C   0  0  0  0  0  0  0  0  0  0  0  0
    6.8696   -0.5031   20.7784 N   0  0  0  0  0  0  0  0  0  0  0  0
    6.1270    0.0715   19.7264 C   0  0  0  0  0  0  0  0  0  0  0  0
    6.4691   -0.1983   18.4267 C   0  0  0  0  0  0  0  0  0  0  0  0
    5.7971    0.2658   17.3461 N   0  0  0  0  0  0  0  0  0  0  0  0
    4.7590    1.0350   17.5780 C   0  0  0  0  0  0  0  0  0  0  0  0
    4.3114    1.4044   18.8773 C   0  0  0  0  0  0  0  0  0  0  0  0
    3.1894    2.2527   19.0530 C   0  0  0  0  0  0  0  0  0  0  0  0
    2.7990    2.6387   20.3039 C   0  0  0  0  0  0  0  0  0  0  0  0
    3.5094    2.1847   21.4405 C   0  0  0  0  0  0  0  0  0  0  0  0
    4.5875    1.3463   21.3033 C   0  0  0  0  0  0  0  0  0  0  0  0
    5.0117    0.9251   20.0035 C   0  0  0  0  0  0  0  0  0  0  0  0
    5.1137    0.9971   22.1937 H   0  0  0  0  0  0  0  0  0  0  0  0
    3.1906    2.5049   22.4291 H   0  0  0  0  0  0  0  0  0  0  0  0
    1.9495    3.3037   20.4320 H   0  0  0  0  0  0  0  0  0  0  0  0
    2.6712    2.6016   18.1638 H   0  0  0  0  0  0  0  0  0  0  0  0
    4.2123    1.4146   16.7143 H   0  0  0  0  0  0  0  0  0  0  0  0
    7.3160   -0.8512   18.2182 H   0  0  0  0  0  0  0  0  0  0  0  0
    6.2666   -1.3379   21.6804 C   0  0  0  0  0  0  0  0  0  0  0  0
    5.1806   -1.8558   21.5026 O   0  0  0  0  0  0  0  0  0  0  0  0
    7.2122   -1.5322   22.8825 C   0  0  1  0  0  0  0  0  0  0  0  0
    7.1964   -3.0358   23.1728 C   0  0  0  0  0  0  0  0  0  0  0  0
    5.8989   -3.4000   23.7116 N   0  0  0  0  0  0  0  0  0  0  0  0
    5.1527   -4.4900   23.1057 C   0  0  0  0  0  0  0  0  0  0  0  0
    5.8051   -5.7746   23.4776 C   0  0  0  0  0  0  0  0  0  0  0  0
    7.1370   -6.1018   23.1146 C   0  0  0  0  0  0  0  0  0  0  0  0
    7.3721   -7.1996   23.8541 C   0  0  0  0  0  0  0  0  0  0  0  0
    6.2936   -7.5289   24.5816 O   0  0  0  0  0  0  0  0  0  0  0  0
    5.2982   -6.6102   24.3344 N   0  0  0  0  0  0  0  0  0  0  0  0
    8.2490   -7.8124   23.9766 H   0  0  0  0  0  0  0  0  0  0  0  0
    7.7715   -5.5560   22.4322 H   0  0  0  0  0  0  0  0  0  0  0  0
    4.1299   -4.4915   23.4781 H   0  0  0  0  0  0  0  0  0  0  0  0
    5.1278   -4.3381   22.0195 H   0  0  0  0  0  0  0  0  0  0  0  0
    5.4827   -2.8675   24.8981 C   0  0  0  0  0  0  0  0  0  0  0  0
    4.7231   -3.4459   25.6569 O   0  0  0  0  0  0  0  0  0  0  0  0
    5.9846   -1.4765   25.1287 C   0  0  0  0  0  0  0  0  0  0  0  0
    5.6178   -0.8575   26.3204 C   0  0  0  0  0  0  0  0  0  0  0  0
    5.8889    0.4783   26.5212 C   0  0  0  0  0  0  0  0  0  0  0  0
    6.5600    1.1662   25.5184 C   0  0  0  0  0  0  0  0  0  0  0  0
    6.8184    2.4723   25.7111 F   0  0  0  0  0  0  0  0  0  0  0  0
    6.9980    0.5572   24.3558 C   0  0  0  0  0  0  0  0  0  0  0  0
    6.7314   -0.8054   24.1454 C   0  0  0  0  0  0  0  0  0  0  0  0
    7.5605    1.1653   23.6538 H   0  0  0  0  0  0  0  0  0  0  0  0
    5.5660    0.9953   27.4140 H   0  0  0  0  0  0  0  0  0  0  0  0
    5.0910   -1.4520   27.0609 H   0  0  0  0  0  0  0  0  0  0  0  0
    7.3558   -3.5969   22.2495 H   0  0  0  0  0  0  0  0  0  0  0  0
    7.9941   -3.2912   23.8871 H   0  0  0  0  0  0  0  0  0  0  0  0
    8.2278    0.9680   21.3740 H   0  0  0  0  0  0  0  0  0  0  0  0
    8.8998   -0.2595   20.3086 H   0  0  0  0  0  0  0  0  0  0  0  0
    9.0414   -0.3981   23.1399 H   0  0  0  0  0  0  0  0  0  0  0  0
   10.5982   -1.5817   21.8195 H   0  0  0  0  0  0  0  0  0  0  0  0
    9.3589   -2.5937   21.0537 H   0  0  0  0  0  0  0  0  0  0  0  0
    9.7470   -2.8039   22.7605 H   0  0  0  0  0  0  0  0  0  0  0  0
  1  2  1  0
  2  3  1  0
  3  4  1  0
  4  5  1  0
  5  6  2  0
  6  7  1  0
  7  8  2  0
  8  9  1  0
  9 10  2  0
 10 11  1  0
 11 12  2  0
 12 13  1  0
 13 14  2  0
 13 15  1  0
 12 16  1  0
 11 17  1  0
 10 18  1  0
  8 19  1  0
  6 20  1  0
  4 21  1  0
 21 22  2  0
 21 23  1  0
 23 24  1  1
 24 25  1  0
 25 26  1  0
 26 27  1  0
 27 28  1  0
 28 29  2  0
 29 30  1  0
 30 31  1  0
 29 32  1  0
 28 33  1  0
 26 34  1  0
 26 35  1  0
 25 36  1  0
 36 37  2  0
 36 38  1  0
 38 39  2  0
 39 40  1  0
 40 41  2  0
 41 42  1  0
 41 43  1  0
 43 44  2  0
 43 45  1  0
 40 46  1  0
 39 47  1  0
 24 48  1  0
 24 49  1  0
  3 50  1  0
  3 51  1  0
  2 52  1  1
  1 53  1  0
  1 54  1  0
  1 55  1  0
 23  2  1  0
 31 27  2  0
 44 38  1  0
 14  5  1  0
 44 23  1  0
 14  9  1  0
M  END
>  <cnnaffinities>  (45) 
[5.86778]

>  <score>  (45) 
5.86778

>  <index>  (45) 
74

>  <Smiles>  (45) 
C([C@]1(C(N(c2c(nc(c3c(c(c(c(c23)[H])[H])[H])[H])[H])[H])C(=O)[C@]21C(N(C(c1c(c(on1)[H])[H])([H])[H])C(=O)c1c(c(c(F)c(c21)[H])[H])[H])([H])[H])([H])[H])[H])([H])([H])[H]

>  <h>  (45) 
<NA>

>  <Training>  (45) 
True

>  <Success>  (45) 
True

>  <enamine_searched>  (45) 
False

>  <enamine_id>  (45) 
nan

$$$$

     RDKit          3D

 61 65  0  0  0  0  0  0  0  0999 V2000
    9.7091   -1.9738   21.9710 C   0  0  0  0  0  0  0  0  0  0  0  0
    8.6070   -0.9701   22.3506 C   0  0  1  0  0  0  0  0  0  0  0  0
    8.1879   -0.0958   21.1486 C   0  0  0  0  0  0  0  0  0  0  0  0
    6.8583   -0.5420   20.8027 N   0  0  0  0  0  0  0  0  0  0  0  0
    6.1020    0.0430   19.7616 C   0  0  0  0  0  0  0  0  0  0  0  0
    6.4531   -0.2194   18.4648 C   0  0  0  0  0  0  0  0  0  0  0  0
    5.7958    0.2483   17.3763 N   0  0  0  0  0  0  0  0  0  0  0  0
    4.7612    1.0224   17.6026 C   0  0  0  0  0  0  0  0  0  0  0  0
    4.3066    1.3972   18.8978 C   0  0  0  0  0  0  0  0  0  0  0  0
    3.1924    2.2584   19.0627 C   0  0  0  0  0  0  0  0  0  0  0  0
    2.7931    2.6449   20.3081 C   0  0  0  0  0  0  0  0  0  0  0  0
    3.4948    2.1928   21.4509 C   0  0  0  0  0  0  0  0  0  0  0  0
    4.5734    1.3521   21.3263 C   0  0  0  0  0  0  0  0  0  0  0  0
    4.9973    0.9131   20.0338 C   0  0  0  0  0  0  0  0  0  0  0  0
    5.1034    1.0293   22.2259 H   0  0  0  0  0  0  0  0  0  0  0  0
    3.1694    2.5234   22.4329 H   0  0  0  0  0  0  0  0  0  0  0  0
    1.9446    3.3127   20.4291 H   0  0  0  0  0  0  0  0  0  0  0  0
    2.6823    2.6117   18.1687 H   0  0  0  0  0  0  0  0  0  0  0  0
    4.2241    1.4056   16.7343 H   0  0  0  0  0  0  0  0  0  0  0  0
    7.3069   -0.8693   18.2781 H   0  0  0  0  0  0  0  0  0  0  0  0
    6.3004   -1.4172   21.6993 C   0  0  0  0  0  0  0  0  0  0  0  0
    5.2160   -1.9468   21.5570 O   0  0  0  0  0  0  0  0  0  0  0  0
    7.2829   -1.5944   22.8714 C   0  0  1  0  0  0  0  0  0  0  0  0
    7.4275   -3.0877   23.1717 C   0  0  0  0  0  0  0  0  0  0  0  0
    6.1992   -3.5891   23.7368 N   0  0  0  0  0  0  0  0  0  0  0  0
    5.5761   -4.7588   23.1471 C   0  0  0  0  0  0  0  0  0  0  0  0
    6.4379   -5.9702   23.4596 C   0  0  0  0  0  0  0  0  0  0  0  0
    6.6505   -6.0571   24.9384 N   0  0  0  0  0  4  0  0  0  0  0  0
    5.6219   -6.8617   25.6242 C   0  0  0  0  0  0  0  0  0  0  0  0
    4.6699   -6.3339   25.6348 H   0  0  0  0  0  0  0  0  0  0  0  0
    5.9362   -7.0308   26.6549 H   0  0  0  0  0  0  0  0  0  0  0  0
    5.5116   -7.8223   25.1180 H   0  0  0  0  0  0  0  0  0  0  0  0
    7.9997   -6.5491   25.2007 C   0  0  0  0  0  0  0  0  0  0  0  0
    8.7594   -5.8192   24.9167 H   0  0  0  0  0  0  0  0  0  0  0  0
    8.1600   -7.4658   24.6204 H   0  0  0  0  0  0  0  0  0  0  0  0
    8.1594   -6.7985   26.2473 H   0  0  0  0  0  0  0  0  0  0  0  0
    6.5734   -5.1108   25.3060 H   0  0  0  0  0  0  0  0  0  0  0  0
    6.0322   -6.9106   23.0750 H   0  0  0  0  0  0  0  0  0  0  0  0
    7.4221   -5.8288   23.0031 H   0  0  0  0  0  0  0  0  0  0  0  0
    4.5801   -4.8469   23.5866 H   0  0  0  0  0  0  0  0  0  0  0  0
    5.4781   -4.5784   22.0727 H   0  0  0  0  0  0  0  0  0  0  0  0
    5.6765   -3.0347   24.8617 C   0  0  0  0  0  0  0  0  0  0  0  0
    4.9874   -3.6929   25.6386 O   0  0  0  0  0  0  0  0  0  0  0  0
    5.9959   -1.5960   25.0746 C   0  0  0  0  0  0  0  0  0  0  0  0
    5.5192   -0.9673   26.2240 C   0  0  0  0  0  0  0  0  0  0  0  0
    5.7414    0.3791   26.4280 C   0  0  0  0  0  0  0  0  0  0  0  0
    6.4474    1.0867   25.4564 C   0  0  0  0  0  0  0  0  0  0  0  0
    6.7152    2.7901   25.6801 Cl  0  0  0  0  0  0  0  0  0  0  0  0
    6.9479    0.4709   24.3219 C   0  0  0  0  0  0  0  0  0  0  0  0
    6.7454   -0.8985   24.1200 C   0  0  0  0  0  0  0  0  0  0  0  0
    7.5092    1.0662   23.6080 H   0  0  0  0  0  0  0  0  0  0  0  0
    5.3653    0.8832   27.3109 H   0  0  0  0  0  0  0  0  0  0  0  0
    4.9686   -1.5615   26.9440 H   0  0  0  0  0  0  0  0  0  0  0  0
    7.6682   -3.6300   22.2507 H   0  0  0  0  0  0  0  0  0  0  0  0
    8.2636   -3.2249   23.8767 H   0  0  0  0  0  0  0  0  0  0  0  0
    8.1789    0.9734   21.4062 H   0  0  0  0  0  0  0  0  0  0  0  0
    8.8657   -0.2304   20.3036 H   0  0  0  0  0  0  0  0  0  0  0  0
    9.0263   -0.3526   23.1530 H   0  0  0  0  0  0  0  0  0  0  0  0
    9.4484   -2.5385   21.0649 H   0  0  0  0  0  0  0  0  0  0  0  0
   10.6612   -1.4618   21.8079 H   0  0  0  0  0  0  0  0  0  0  0  0
    9.8942   -2.6802   22.7835 H   0  0  0  0  0  0  0  0  0  0  0  0
  1  2  1  0
  2  3  1  0
  3  4  1  0
  4  5  1  0
  5  6  2  0
  6  7  1  0
  7  8  2  0
  8  9  1  0
  9 10  2  0
 10 11  1  0
 11 12  2  0
 12 13  1  0
 13 14  2  0
 13 15  1  0
 12 16  1  0
 11 17  1  0
 10 18  1  0
  8 19  1  0
  6 20  1  0
  4 21  1  0
 21 22  2  0
 21 23  1  0
 23 24  1  1
 24 25  1  0
 25 26  1  0
 26 27  1  0
 27 28  1  0
 28 29  1  0
 29 30  1  0
 29 31  1  0
 29 32  1  0
 28 33  1  0
 33 34  1  0
 33 35  1  0
 33 36  1  0
 28 37  1  0
 27 38  1  0
 27 39  1  0
 26 40  1  0
 26 41  1  0
 25 42  1  0
 42 43  2  0
 42 44  1  0
 44 45  2  0
 45 46  1  0
 46 47  2  0
 47 48  1  0
 47 49  1  0
 49 50  2  0
 49 51  1  0
 46 52  1  0
 45 53  1  0
 24 54  1  0
 24 55  1  0
  3 56  1  0
  3 57  1  0
  2 58  1  1
  1 59  1  0
  1 60  1  0
  1 61  1  0
 23  2  1  0
 50 44  1  0
 14  5  1  0
 50 23  1  0
 14  9  1  0
M  CHG  1  28   1
M  END
>  <cnnaffinities>  (46) 
[6.02889]

>  <score>  (46) 
6.02889

>  <index>  (46) 
76

>  <Smiles>  (46) 
C([C@]1(C(N(c2c(nc(c3c(c(c(c(c23)[H])[H])[H])[H])[H])[H])C(=O)[C@]21C(N(C(C([N+](C([H])([H])[H])(C([H])([H])[H])[H])([H])[H])([H])[H])C(=O)c1c(c(c(Cl)c(c21)[H])[H])[H])([H])[H])([H])[H])[H])([H])([H])[H]

>  <h>  (46) 
<NA>

>  <Training>  (46) 
True

>  <Success>  (46) 
True

>  <enamine_searched>  (46) 
False

>  <enamine_id>  (46) 
nan

$$$$

     RDKit          3D

 57 60  0  0  0  0  0  0  0  0999 V2000
    3.6295   -7.2526   25.7047 C   0  0  0  0  0  0  0  0  0  0  0  0
    2.9168   -5.9379   25.3360 C   0  0  0  0  0  0  0  0  0  0  0  0
    2.2682   -5.3272   26.5957 C   0  0  0  0  0  0  0  0  0  0  0  0
    3.0484   -5.0453   27.3023 H   0  0  0  0  0  0  0  0  0  0  0  0
    1.6980   -4.4304   26.3473 H   0  0  0  0  0  0  0  0  0  0  0  0
    1.6052   -6.0448   27.0808 H   0  0  0  0  0  0  0  0  0  0  0  0
    1.8287   -6.2921   24.3852 C   0  0  0  0  0  0  0  0  0  0  0  0
    0.9775   -6.5861   23.6602 N   0  0  0  0  0  0  0  0  0  0  0  0
    3.8412   -4.8955   24.6779 C   0  0  0  0  0  0  0  0  0  0  0  0
    5.2269   -4.9182   24.8380 C   0  0  0  0  0  0  0  0  0  0  0  0
    6.0400   -3.9289   24.2901 C   0  0  0  0  0  0  0  0  0  0  0  0
    5.4983   -2.8850   23.5388 C   0  0  0  0  0  0  0  0  0  0  0  0
    6.3465   -1.8806   22.9621 N   0  0  0  0  0  0  0  0  0  0  0  0
    7.2134   -1.1015   23.8450 C   0  0  0  0  0  0  0  0  0  0  0  0
    6.5932    0.2048   24.3128 C   0  0  0  0  0  0  0  0  0  0  0  0
    7.2199    1.4275   24.0774 C   0  0  0  0  0  0  0  0  0  0  0  0
    6.6133    2.6164   24.4660 C   0  0  0  0  0  0  0  0  0  0  0  0
    5.3790    2.6077   25.1013 C   0  0  0  0  0  0  0  0  0  0  0  0
    4.7729    1.3830   25.3588 C   0  0  0  0  0  0  0  0  0  0  0  0
    3.2312    1.3593   26.1692 Cl  0  0  0  0  0  0  0  0  0  0  0  0
    5.3672    0.1856   24.9809 C   0  0  0  0  0  0  0  0  0  0  0  0
    4.8700   -0.7568   25.2039 H   0  0  0  0  0  0  0  0  0  0  0  0
    4.9006    3.5359   25.3917 H   0  0  0  0  0  0  0  0  0  0  0  0
    7.1086    3.5577   24.2601 H   0  0  0  0  0  0  0  0  0  0  0  0
    8.1920    1.4536   23.5864 H   0  0  0  0  0  0  0  0  0  0  0  0
    7.4552   -1.7024   24.7281 H   0  0  0  0  0  0  0  0  0  0  0  0
    8.1677   -0.9179   23.3451 H   0  0  0  0  0  0  0  0  0  0  0  0
    6.2470   -1.6750   21.5863 C   0  0  0  0  0  0  0  0  0  0  0  0
    5.6233   -2.4508   20.8852 O   0  0  0  0  0  0  0  0  0  0  0  0
    6.9343   -0.4654   20.9120 C   0  0  0  0  0  0  0  0  0  0  0  0
    6.1214    0.0940   19.7612 C   0  0  0  0  0  0  0  0  0  0  0  0
    6.4229   -0.2116   18.4590 C   0  0  0  0  0  0  0  0  0  0  0  0
    5.7569    0.2395   17.3573 N   0  0  0  0  0  0  0  0  0  0  0  0
    4.7346    1.0336   17.5742 C   0  0  0  0  0  0  0  0  0  0  0  0
    4.2828    1.4257   18.8670 C   0  0  0  0  0  0  0  0  0  0  0  0
    3.1598    2.2749   19.0454 C   0  0  0  0  0  0  0  0  0  0  0  0
    2.7449    2.6219   20.2999 C   0  0  0  0  0  0  0  0  0  0  0  0
    3.4353    2.1278   21.4294 C   0  0  0  0  0  0  0  0  0  0  0  0
    4.5245    1.3030   21.2900 C   0  0  0  0  0  0  0  0  0  0  0  0
    4.9861    0.9356   19.9963 C   0  0  0  0  0  0  0  0  0  0  0  0
    5.0287    0.9256   22.1786 H   0  0  0  0  0  0  0  0  0  0  0  0
    3.0907    2.4029   22.4208 H   0  0  0  0  0  0  0  0  0  0  0  0
    1.8874    3.2725   20.4395 H   0  0  0  0  0  0  0  0  0  0  0  0
    2.6392    2.6471   18.1660 H   0  0  0  0  0  0  0  0  0  0  0  0
    4.1955    1.4021   16.6996 H   0  0  0  0  0  0  0  0  0  0  0  0
    7.2692   -0.8643   18.2492 H   0  0  0  0  0  0  0  0  0  0  0  0
    7.8905   -0.8297   20.5144 H   0  0  0  0  0  0  0  0  0  0  0  0
    7.1706    0.3346   21.6160 H   0  0  0  0  0  0  0  0  0  0  0  0
    4.1080   -2.8354   23.4081 C   0  0  0  0  0  0  0  0  0  0  0  0
    3.2976   -3.8190   23.9693 C   0  0  0  0  0  0  0  0  0  0  0  0
    2.2194   -3.7416   23.8432 H   0  0  0  0  0  0  0  0  0  0  0  0
    3.6528   -2.0235   22.8523 H   0  0  0  0  0  0  0  0  0  0  0  0
    7.1167   -4.0006   24.4230 H   0  0  0  0  0  0  0  0  0  0  0  0
    5.7023   -5.7087   25.4126 H   0  0  0  0  0  0  0  0  0  0  0  0
    2.9050   -7.9967   26.0404 H   0  0  0  0  0  0  0  0  0  0  0  0
    4.3336   -7.0925   26.5209 H   0  0  0  0  0  0  0  0  0  0  0  0
    4.1675   -7.6614   24.8490 H   0  0  0  0  0  0  0  0  0  0  0  0
  1  2  1  0
  2  3  1  0
  3  4  1  0
  3  5  1  0
  3  6  1  0
  2  7  1  0
  7  8  3  0
  2  9  1  0
  9 10  2  0
 10 11  1  0
 11 12  2  0
 12 13  1  0
 13 14  1  0
 14 15  1  0
 15 16  2  0
 16 17  1  0
 17 18  2  0
 18 19  1  0
 19 20  1  0
 19 21  2  0
 21 22  1  0
 18 23  1  0
 17 24  1  0
 16 25  1  0
 14 26  1  0
 14 27  1  0
 13 28  1  0
 28 29  2  0
 28 30  1  0
 30 31  1  0
 31 32  2  0
 32 33  1  0
 33 34  2  0
 34 35  1  0
 35 36  2  0
 36 37  1  0
 37 38  2  0
 38 39  1  0
 39 40  2  0
 39 41  1  0
 38 42  1  0
 37 43  1  0
 36 44  1  0
 34 45  1  0
 32 46  1  0
 30 47  1  0
 30 48  1  0
 12 49  1  0
 49 50  2  0
 50 51  1  0
 49 52  1  0
 11 53  1  0
 10 54  1  0
  1 55  1  0
  1 56  1  0
  1 57  1  0
 50  9  1  0
 21 15  1  0
 40 31  1  0
 40 35  1  0
M  END
>  <cnnaffinities>  (47) 
[6.19918]

>  <score>  (47) 
6.19918

>  <index>  (47) 
77

>  <Smiles>  (47) 
C(C(C([H])([H])[H])(C#N)c1c(c(c(N(C(c2c(c(c(c(Cl)c2[H])[H])[H])[H])([H])[H])C(=O)C(c2c(nc(c3c(c(c(c(c23)[H])[H])[H])[H])[H])[H])([H])[H])c(c1[H])[H])[H])[H])([H])([H])[H]

>  <h>  (47) 
<NA>

>  <Training>  (47) 
True

>  <Success>  (47) 
True

>  <enamine_searched>  (47) 
False

>  <enamine_id>  (47) 
nan

$$$$

     RDKit          3D

 40 42  0  0  0  0  0  0  0  0999 V2000
    8.6836   -5.3951   25.0958 C   0  0  0  0  0  0  0  0  0  0  0  0
    8.3666   -4.5948   23.8359 C   0  0  0  0  0  0  0  0  0  0  0  0
    8.6749   -3.1036   23.9427 C   0  0  0  0  0  0  0  0  0  0  0  0
    8.4340   -2.4206   22.5865 C   0  0  0  0  0  0  0  0  0  0  0  0
    7.0934   -2.7076   22.0937 N   0  0  0  0  0  0  0  0  0  0  0  0
    6.2757   -1.8111   21.4505 C   0  0  0  0  0  0  0  0  0  0  0  0
    5.0863   -2.0405   21.2945 O   0  0  0  0  0  0  0  0  0  0  0  0
    6.9173   -0.5259   20.9016 C   0  0  0  0  0  0  0  0  0  0  0  0
    6.1184    0.0787   19.7715 C   0  0  0  0  0  0  0  0  0  0  0  0
    6.4321   -0.2193   18.4680 C   0  0  0  0  0  0  0  0  0  0  0  0
    5.7696    0.2372   17.3702 N   0  0  0  0  0  0  0  0  0  0  0  0
    4.7428    1.0250   17.5846 C   0  0  0  0  0  0  0  0  0  0  0  0
    4.2894    1.4107   18.8748 C   0  0  0  0  0  0  0  0  0  0  0  0
    3.1696    2.2617   19.0458 C   0  0  0  0  0  0  0  0  0  0  0  0
    2.7538    2.6172   20.3019 C   0  0  0  0  0  0  0  0  0  0  0  0
    3.4411    2.1305   21.4346 C   0  0  0  0  0  0  0  0  0  0  0  0
    4.5260    1.2989   21.2924 C   0  0  0  0  0  0  0  0  0  0  0  0
    4.9877    0.9215   20.0034 C   0  0  0  0  0  0  0  0  0  0  0  0
    5.0294    0.9088   22.1700 H   0  0  0  0  0  0  0  0  0  0  0  0
    3.1029    2.4155   22.4260 H   0  0  0  0  0  0  0  0  0  0  0  0
    1.8983    3.2724   20.4247 H   0  0  0  0  0  0  0  0  0  0  0  0
    2.6683    2.6271   18.1538 H   0  0  0  0  0  0  0  0  0  0  0  0
    4.2139    1.3961   16.7054 H   0  0  0  0  0  0  0  0  0  0  0  0
    7.2773   -0.8687   18.2385 H   0  0  0  0  0  0  0  0  0  0  0  0
    7.9215   -0.7788   20.5386 H   0  0  0  0  0  0  0  0  0  0  0  0
    7.0637    0.1909   21.7223 H   0  0  0  0  0  0  0  0  0  0  0  0
    6.7147   -4.1130   22.0112 C   0  0  0  0  0  0  0  0  0  0  0  0
    6.9446   -4.8391   23.3317 C   0  0  0  0  0  0  0  0  0  0  0  0
    6.2110   -4.5169   24.0837 H   0  0  0  0  0  0  0  0  0  0  0  0
    6.7981   -5.9155   23.1615 H   0  0  0  0  0  0  0  0  0  0  0  0
    7.3131   -4.6018   21.2212 H   0  0  0  0  0  0  0  0  0  0  0  0
    5.6640   -4.1134   21.7061 H   0  0  0  0  0  0  0  0  0  0  0  0
    9.1866   -2.7934   21.8642 H   0  0  0  0  0  0  0  0  0  0  0  0
    8.5491   -1.3336   22.6806 H   0  0  0  0  0  0  0  0  0  0  0  0
    9.7415   -2.9999   24.1877 H   0  0  0  0  0  0  0  0  0  0  0  0
    8.0836   -2.6236   24.7350 H   0  0  0  0  0  0  0  0  0  0  0  0
    9.0330   -4.8990   23.0346 H   0  0  0  0  0  0  0  0  0  0  0  0
    9.7333   -5.2974   25.3829 H   0  0  0  0  0  0  0  0  0  0  0  0
    8.4774   -6.4544   24.9320 H   0  0  0  0  0  0  0  0  0  0  0  0
    8.0822   -5.0815   25.9534 H   0  0  0  0  0  0  0  0  0  0  0  0
  1  2  1  0
  2  3  1  0
  3  4  1  0
  4  5  1  0
  5  6  1  0
  6  7  2  0
  6  8  1  0
  8  9  1  0
  9 10  2  0
 10 11  1  0
 11 12  2  0
 12 13  1  0
 13 14  2  0
 14 15  1  0
 15 16  2  0
 16 17  1  0
 17 18  2  0
 17 19  1  0
 16 20  1  0
 15 21  1  0
 14 22  1  0
 12 23  1  0
 10 24  1  0
  8 25  1  0
  8 26  1  0
  5 27  1  0
 27 28  1  0
 28 29  1  0
 28 30  1  0
 27 31  1  0
 27 32  1  0
  4 33  1  0
  4 34  1  0
  3 35  1  0
  3 36  1  0
  2 37  1  0
  1 38  1  0
  1 39  1  0
  1 40  1  0
 28  2  1  0
 18  9  1  0
 18 13  1  0
M  END
>  <cnnaffinities>  (48) 
[4.64852, 4.64957, 4.78173, 4.78142, 4.99867, 4.99862]

>  <score>  (48) 
4.64852

>  <index>  (48) 
79

>  <Smiles>  (48) 
C(C1(C(C(N(C(=O)C(c2c(nc(c3c(c(c(c(c23)[H])[H])[H])[H])[H])[H])([H])[H])C(C1([H])[H])([H])[H])([H])[H])([H])[H])[H])([H])([H])[H]

>  <h>  (48) 
<NA>

>  <Training>  (48) 
True

>  <Success>  (48) 
True

>  <enamine_searched>  (48) 
False

>  <enamine_id>  (48) 
nan

$$$$

     RDKit          3D

 59 64  0  0  0  0  0  0  0  0999 V2000
    9.6570   -1.8483   22.0374 C   0  0  0  0  0  0  0  0  0  0  0  0
    8.4984   -0.9056   22.4091 C   0  0  1  0  0  0  0  0  0  0  0  0
    8.1313    0.0310   21.2296 C   0  0  0  0  0  0  0  0  0  0  0  0
    6.8756   -0.4810   20.7419 N   0  0  0  0  0  0  0  0  0  0  0  0
    6.1326    0.0953   19.6926 C   0  0  0  0  0  0  0  0  0  0  0  0
    6.4720   -0.1760   18.3942 C   0  0  0  0  0  0  0  0  0  0  0  0
    5.7973    0.2937   17.3182 N   0  0  0  0  0  0  0  0  0  0  0  0
    4.7564    1.0580   17.5559 C   0  0  0  0  0  0  0  0  0  0  0  0
    4.3039    1.4149   18.8588 C   0  0  0  0  0  0  0  0  0  0  0  0
    3.1805    2.2592   19.0480 C   0  0  0  0  0  0  0  0  0  0  0  0
    2.7890    2.6251   20.3051 C   0  0  0  0  0  0  0  0  0  0  0  0
    3.4940    2.1493   21.4358 C   0  0  0  0  0  0  0  0  0  0  0  0
    4.5703    1.3103   21.2862 C   0  0  0  0  0  0  0  0  0  0  0  0
    5.0051    0.9253   19.9786 C   0  0  0  0  0  0  0  0  0  0  0  0
    5.0858    0.9296   22.1696 H   0  0  0  0  0  0  0  0  0  0  0  0
    3.1705    2.4498   22.4286 H   0  0  0  0  0  0  0  0  0  0  0  0
    1.9390    3.2880   20.4422 H   0  0  0  0  0  0  0  0  0  0  0  0
    2.6576    2.6143   18.1641 H   0  0  0  0  0  0  0  0  0  0  0  0
    4.2114    1.4402   16.6920 H   0  0  0  0  0  0  0  0  0  0  0  0
    7.3182   -0.8286   18.1827 H   0  0  0  0  0  0  0  0  0  0  0  0
    6.2699   -1.3922   21.5638 C   0  0  0  0  0  0  0  0  0  0  0  0
    5.2193   -1.9441   21.2933 O   0  0  0  0  0  0  0  0  0  0  0  0
    7.1590   -1.6120   22.7983 C   0  0  1  0  0  0  0  0  0  0  0  0
    7.2797   -3.1298   22.9619 C   0  0  0  0  0  0  0  0  0  0  0  0
    5.9779   -3.6547   23.3016 N   0  0  0  0  0  0  0  0  0  0  0  0
    5.3951   -4.7344   22.5354 C   0  0  0  0  0  0  0  0  0  0  0  0
    6.0230   -6.0001   22.9822 C   0  0  0  0  0  0  0  0  0  0  0  0
    7.3653   -6.1872   23.1800 C   0  0  0  0  0  0  0  0  0  0  0  0
    7.4595   -7.4634   23.7319 C   0  0  0  0  0  0  0  0  0  0  0  0
    6.2583   -8.0084   23.9155 N   0  0  0  0  0  0  0  0  0  0  0  0
    5.3869   -7.1022   23.4464 N   0  0  0  0  0  0  0  0  0  0  0  0
    3.9757   -7.2158   23.7897 C   0  0  0  0  0  0  0  0  0  0  0  0
    3.3646   -7.2930   22.8860 H   0  0  0  0  0  0  0  0  0  0  0  0
    3.8877   -8.1348   24.3690 H   0  0  0  0  0  0  0  0  0  0  0  0
    3.6426   -6.3502   24.3792 H   0  0  0  0  0  0  0  0  0  0  0  0
    8.3718   -7.9676   24.0156 H   0  0  0  0  0  0  0  0  0  0  0  0
    8.1319   -5.4334   23.0567 H   0  0  0  0  0  0  0  0  0  0  0  0
    4.3115   -4.7382   22.6786 H   0  0  0  0  0  0  0  0  0  0  0  0
    5.5770   -4.5275   21.4739 H   0  0  0  0  0  0  0  0  0  0  0  0
    5.4113   -3.3078   24.4872 C   0  0  0  0  0  0  0  0  0  0  0  0
    4.6249   -4.0345   25.0886 O   0  0  0  0  0  0  0  0  0  0  0  0
    5.7660   -1.9233   24.9284 C   0  0  0  0  0  0  0  0  0  0  0  0
    5.2650   -1.4802   26.1487 C   0  0  0  0  0  0  0  0  0  0  0  0
    5.4123   -0.1616   26.5242 C   0  0  0  0  0  0  0  0  0  0  0  0
    6.0808    0.6888   25.6542 C   0  0  0  0  0  0  0  0  0  0  0  0
    6.1969    1.9798   26.0104 F   0  0  0  0  0  0  0  0  0  0  0  0
    6.6426    0.2646   24.4629 C   0  0  0  0  0  0  0  0  0  0  0  0
    6.5161   -1.0800   24.0856 C   0  0  0  0  0  0  0  0  0  0  0  0
    7.1849    0.9995   23.8747 H   0  0  0  0  0  0  0  0  0  0  0  0
    4.9997    0.2199   27.4492 H   0  0  0  0  0  0  0  0  0  0  0  0
    4.7588   -2.2039   26.7778 H   0  0  0  0  0  0  0  0  0  0  0  0
    7.6363   -3.6088   22.0428 H   0  0  0  0  0  0  0  0  0  0  0  0
    7.9983   -3.3274   23.7731 H   0  0  0  0  0  0  0  0  0  0  0  0
    8.0296    1.0786   21.5468 H   0  0  0  0  0  0  0  0  0  0  0  0
    8.8864    0.0124   20.4406 H   0  0  0  0  0  0  0  0  0  0  0  0
    8.8528   -0.3249   23.2679 H   0  0  0  0  0  0  0  0  0  0  0  0
   10.5907   -1.2850   21.9619 H   0  0  0  0  0  0  0  0  0  0  0  0
    9.8147   -2.6178   22.7970 H   0  0  0  0  0  0  0  0  0  0  0  0
    9.4883   -2.3561   21.0809 H   0  0  0  0  0  0  0  0  0  0  0  0
  1  2  1  0
  2  3  1  0
  3  4  1  0
  4  5  1  0
  5  6  2  0
  6  7  1  0
  7  8  2  0
  8  9  1  0
  9 10  2  0
 10 11  1  0
 11 12  2  0
 12 13  1  0
 13 14  2  0
 13 15  1  0
 12 16  1  0
 11 17  1  0
 10 18  1  0
  8 19  1  0
  6 20  1  0
  4 21  1  0
 21 22  2  0
 21 23  1  0
 23 24  1  1
 24 25  1  0
 25 26  1  0
 26 27  1  0
 27 28  2  0
 28 29  1  0
 29 30  2  0
 30 31  1  0
 31 32  1  0
 32 33  1  0
 32 34  1  0
 32 35  1  0
 29 36  1  0
 28 37  1  0
 26 38  1  0
 26 39  1  0
 25 40  1  0
 40 41  2  0
 40 42  1  0
 42 43  2  0
 43 44  1  0
 44 45  2  0
 45 46  1  0
 45 47  1  0
 47 48  2  0
 47 49  1  0
 44 50  1  0
 43 51  1  0
 24 52  1  0
 24 53  1  0
  3 54  1  0
  3 55  1  0
  2 56  1  1
  1 57  1  0
  1 58  1  0
  1 59  1  0
 23  2  1  0
 31 27  1  0
 48 42  1  0
 14  5  1  0
 48 23  1  0
 14  9  1  0
M  END
>  <cnnaffinities>  (49) 
[6.39331]

>  <score>  (49) 
6.39331

>  <index>  (49) 
80

>  <Smiles>  (49) 
C([C@]1(C(N(c2c(nc(c3c(c(c(c(c23)[H])[H])[H])[H])[H])[H])C(=O)[C@]21C(N(C(c1c(c(nn1C([H])([H])[H])[H])[H])([H])[H])C(=O)c1c(c(c(F)c(c21)[H])[H])[H])([H])[H])([H])[H])[H])([H])([H])[H]

>  <h>  (49) 
<NA>

>  <Training>  (49) 
True

>  <Success>  (49) 
True

>  <enamine_searched>  (49) 
False

>  <enamine_id>  (49) 
nan

$$$$

     RDKit          3D

 58 63  0  0  0  0  0  0  0  0999 V2000
    7.7911   -6.8967   24.0614 C   0  0  0  0  0  0  0  0  0  0  0  0
    6.3707   -6.5648   23.7679 C   0  0  0  0  0  0  0  0  0  0  0  0
    5.9961   -5.8034   22.7939 N   0  0  0  0  0  0  0  0  0  0  0  0
    4.7414   -5.3491   23.1884 C   0  0  0  0  0  0  0  0  0  0  0  0
    4.3414   -3.9829   22.7306 C   0  0  0  0  0  0  0  0  0  0  0  0
    5.1784   -3.0015   23.4242 N   0  0  0  0  0  0  0  0  0  0  0  0
    6.5902   -2.8434   23.0795 C   0  0  0  0  0  0  0  0  0  0  0  0
    6.8112   -1.3603   22.7292 C   0  0  2  0  0  0  0  0  0  0  0  0
    6.0540   -1.1586   21.4057 C   0  0  0  0  0  0  0  0  0  0  0  0
    4.9559   -1.5874   21.1122 O   0  0  0  0  0  0  0  0  0  0  0  0
    6.8315   -0.4077   20.5496 N   0  0  0  0  0  0  0  0  0  0  0  0
    6.1958    0.2685   19.4828 C   0  0  0  0  0  0  0  0  0  0  0  0
    6.5787    0.0663   18.1824 C   0  0  0  0  0  0  0  0  0  0  0  0
    5.9017    0.5548   17.1146 N   0  0  0  0  0  0  0  0  0  0  0  0
    4.8208    1.2653   17.3574 C   0  0  0  0  0  0  0  0  0  0  0  0
    4.3452    1.5827   18.6618 C   0  0  0  0  0  0  0  0  0  0  0  0
    3.1575    2.3220   18.8957 C   0  0  0  0  0  0  0  0  0  0  0  0
    2.7677    2.6359   20.1696 C   0  0  0  0  0  0  0  0  0  0  0  0
    3.5497    2.2365   21.2758 C   0  0  0  0  0  0  0  0  0  0  0  0
    4.6919    1.5057   21.0825 C   0  0  0  0  0  0  0  0  0  0  0  0
    5.0846    1.1225   19.7648 C   0  0  0  0  0  0  0  0  0  0  0  0
    5.2898    1.1933   21.9388 H   0  0  0  0  0  0  0  0  0  0  0  0
    3.2337    2.4900   22.2831 H   0  0  0  0  0  0  0  0  0  0  0  0
    1.8578    3.2029   20.3394 H   0  0  0  0  0  0  0  0  0  0  0  0
    2.5770    2.6420   18.0360 H   0  0  0  0  0  0  0  0  0  0  0  0
    4.2655    1.6330   16.4951 H   0  0  0  0  0  0  0  0  0  0  0  0
    7.4494   -0.5502   17.9561 H   0  0  0  0  0  0  0  0  0  0  0  0
    8.0997   -0.0093   21.1256 C   0  0  0  0  0  0  0  0  0  0  0  0
    8.2630   -0.9305   22.3582 C   0  0  2  0  0  0  0  0  0  0  0  0
    9.2171   -2.0870   22.0618 C   0  0  0  0  0  0  0  0  0  0  0  0
    9.2582   -2.7852   22.9029 H   0  0  0  0  0  0  0  0  0  0  0  0
   10.2299   -1.7053   21.8930 H   0  0  0  0  0  0  0  0  0  0  0  0
    8.8964   -2.6388   21.1724 H   0  0  0  0  0  0  0  0  0  0  0  0
    8.6935   -0.3758   23.1973 H   0  0  0  0  0  0  0  0  0  0  0  0
    8.9216   -0.1475   20.4212 H   0  0  0  0  0  0  0  0  0  0  0  0
    8.0837    1.0566   21.3942 H   0  0  0  0  0  0  0  0  0  0  0  0
    6.2883   -0.5447   23.9248 C   0  0  0  0  0  0  0  0  0  0  0  0
    6.7374    0.7600   24.2012 C   0  0  0  0  0  0  0  0  0  0  0  0
    6.5611    1.2836   25.4741 C   0  0  0  0  0  0  0  0  0  0  0  0
    7.0606    2.4989   25.7631 F   0  0  0  0  0  0  0  0  0  0  0  0
    5.9056    0.5962   26.4880 C   0  0  0  0  0  0  0  0  0  0  0  0
    5.3298   -0.6165   26.1709 C   0  0  0  0  0  0  0  0  0  0  0  0
    5.4730   -1.1503   24.8937 C   0  0  0  0  0  0  0  0  0  0  0  0
    4.7071   -2.3857   24.5498 C   0  0  0  0  0  0  0  0  0  0  0  0
    3.7416   -2.7841   25.1853 O   0  0  0  0  0  0  0  0  0  0  0  0
    4.7779   -1.1978   26.9012 H   0  0  0  0  0  0  0  0  0  0  0  0
    5.8443    1.0155   27.4854 H   0  0  0  0  0  0  0  0  0  0  0  0
    7.2684    1.3727   23.4762 H   0  0  0  0  0  0  0  0  0  0  0  0
    6.8153   -3.5028   22.2417 H   0  0  0  0  0  0  0  0  0  0  0  0
    7.2444   -3.1396   23.9163 H   0  0  0  0  0  0  0  0  0  0  0  0
    3.2973   -3.7645   22.9731 H   0  0  0  0  0  0  0  0  0  0  0  0
    4.5138   -3.8728   21.6524 H   0  0  0  0  0  0  0  0  0  0  0  0
    4.3435   -6.0390   24.2803 C   0  0  0  0  0  0  0  0  0  0  0  0
    5.3971   -6.8275   24.6654 O   0  0  0  0  0  0  0  0  0  0  0  0
    3.4738   -6.0121   24.9210 H   0  0  0  0  0  0  0  0  0  0  0  0
    8.0412   -6.7953   25.1184 H   0  0  0  0  0  0  0  0  0  0  0  0
    8.0683   -7.8836   23.6986 H   0  0  0  0  0  0  0  0  0  0  0  0
    8.3887   -6.1634   23.5345 H   0  0  0  0  0  0  0  0  0  0  0  0
  1  2  1  0
  2  3  2  0
  3  4  1  0
  4  5  1  0
  5  6  1  0
  6  7  1  0
  8  7  1  1
  8  9  1  0
  9 10  2  0
  9 11  1  0
 11 12  1  0
 12 13  2  0
 13 14  1  0
 14 15  2  0
 15 16  1  0
 16 17  2  0
 17 18  1  0
 18 19  2  0
 19 20  1  0
 20 21  2  0
 20 22  1  0
 19 23  1  0
 18 24  1  0
 17 25  1  0
 15 26  1  0
 13 27  1  0
 11 28  1  0
 28 29  1  0
 29 30  1  0
 30 31  1  0
 30 32  1  0
 30 33  1  0
 29 34  1  1
 28 35  1  0
 28 36  1  0
  8 37  1  0
 37 38  2  0
 38 39  1  0
 39 40  1  0
 39 41  2  0
 41 42  1  0
 42 43  2  0
 43 44  1  0
 44 45  2  0
 42 46  1  0
 41 47  1  0
 38 48  1  0
  7 49  1  0
  7 50  1  0
  5 51  1  0
  5 52  1  0
  4 53  2  0
 53 54  1  0
 53 55  1  0
  1 56  1  0
  1 57  1  0
  1 58  1  0
 54  2  1  0
 44  6  1  0
 29  8  1  0
 43 37  1  0
 21 12  1  0
 21 16  1  0
M  END
>  <cnnaffinities>  (50) 
[6.12992]

>  <score>  (50) 
6.12992

>  <index>  (50) 
81

>  <Smiles>  (50) 
C(c1nc(C(N2C([C@@]3(C(=O)N(c4c(nc(c5c(c(c(c(c45)[H])[H])[H])[H])[H])[H])C([C@@]3(C([H])([H])[H])[H])([H])[H])c3c(c(F)c(c(c3C2=O)[H])[H])[H])([H])[H])([H])[H])c(o1)[H])([H])([H])[H]

>  <h>  (50) 
<NA>

>  <Training>  (50) 
True

>  <Success>  (50) 
True

>  <enamine_searched>  (50) 
False

>  <enamine_id>  (50) 
nan

$$$$

     RDKit          3D

 60 65  0  0  0  0  0  0  0  0999 V2000
    2.1824   -5.6999   22.6368 C   0  0  0  0  0  0  0  0  0  0  0  0
    3.4545   -5.0593   22.3967 N   0  0  0  0  0  0  0  0  0  0  0  0
    4.4838   -5.8334   21.9807 C   0  0  0  0  0  0  0  0  0  0  0  0
    4.3695   -7.0324   21.7831 O   0  0  0  0  0  0  0  0  0  0  0  0
    5.7312   -5.0679   21.6176 C   0  0  0  0  0  0  0  0  0  0  0  0
    6.4235   -4.2921   22.6007 N   0  0  0  0  0  0  0  0  0  0  0  0
    7.5204   -3.4187   22.2317 C   0  0  0  0  0  0  0  0  0  0  0  0
    7.2405   -1.9674   22.6673 C   0  0  2  0  0  0  0  0  0  0  0  0
    6.1617   -1.3998   21.7155 C   0  0  0  0  0  0  0  0  0  0  0  0
    4.9840   -1.7149   21.6759 O   0  0  0  0  0  0  0  0  0  0  0  0
    6.7537   -0.5304   20.8238 N   0  0  0  0  0  0  0  0  0  0  0  0
    6.0622    0.0469   19.7453 C   0  0  0  0  0  0  0  0  0  0  0  0
    6.4537   -0.1938   18.4511 C   0  0  0  0  0  0  0  0  0  0  0  0
    5.8108    0.2798   17.3571 N   0  0  0  0  0  0  0  0  0  0  0  0
    4.7605    1.0401   17.5626 C   0  0  0  0  0  0  0  0  0  0  0  0
    4.2830    1.4062   18.8543 C   0  0  0  0  0  0  0  0  0  0  0  0
    3.1623    2.2601   19.0220 C   0  0  0  0  0  0  0  0  0  0  0  0
    2.7689    2.6524   20.2732 C   0  0  0  0  0  0  0  0  0  0  0  0
    3.4742    2.2059   21.4138 C   0  0  0  0  0  0  0  0  0  0  0  0
    4.5448    1.3595   21.2803 C   0  0  0  0  0  0  0  0  0  0  0  0
    4.9609    0.9231   19.9895 C   0  0  0  0  0  0  0  0  0  0  0  0
    5.0768    1.0028   22.1567 H   0  0  0  0  0  0  0  0  0  0  0  0
    3.1613    2.5334   22.4015 H   0  0  0  0  0  0  0  0  0  0  0  0
    1.9200    3.3202   20.3941 H   0  0  0  0  0  0  0  0  0  0  0  0
    2.6481    2.6072   18.1301 H   0  0  0  0  0  0  0  0  0  0  0  0
    4.2379    1.4203   16.6839 H   0  0  0  0  0  0  0  0  0  0  0  0
    7.3146   -0.8300   18.2485 H   0  0  0  0  0  0  0  0  0  0  0  0
    8.1985   -0.4990   20.9196 C   0  0  0  0  0  0  0  0  0  0  0  0
    8.4611   -1.0518   22.3321 C   0  0  2  0  0  0  0  0  0  0  0  0
    9.8170   -1.7316   22.4528 C   0  0  0  0  0  0  0  0  0  0  0  0
    9.9229   -2.2325   23.4195 H   0  0  0  0  0  0  0  0  0  0  0  0
   10.6392   -1.0254   22.3393 H   0  0  0  0  0  0  0  0  0  0  0  0
    9.9356   -2.4926   21.6743 H   0  0  0  0  0  0  0  0  0  0  0  0
    8.4178   -0.2016   23.0154 H   0  0  0  0  0  0  0  0  0  0  0  0
    8.5531    0.5269   20.7829 H   0  0  0  0  0  0  0  0  0  0  0  0
    8.6714   -1.1186   20.1441 H   0  0  0  0  0  0  0  0  0  0  0  0
    6.8143   -2.0032   24.1327 C   0  0  0  0  0  0  0  0  0  0  0  0
    6.8232   -0.8383   24.9129 C   0  0  0  0  0  0  0  0  0  0  0  0
    6.4195   -0.8845   26.2348 C   0  0  0  0  0  0  0  0  0  0  0  0
    6.3850    0.5923   27.1503 Cl  0  0  0  0  0  0  0  0  0  0  0  0
    6.0518   -2.0787   26.8530 C   0  0  0  0  0  0  0  0  0  0  0  0
    6.0475   -3.2346   26.0970 C   0  0  0  0  0  0  0  0  0  0  0  0
    6.3770   -3.1964   24.7418 C   0  0  0  0  0  0  0  0  0  0  0  0
    6.1613   -4.4405   23.9441 C   0  0  0  0  0  0  0  0  0  0  0  0
    5.7042   -5.4720   24.4075 O   0  0  0  0  0  0  0  0  0  0  0  0
    5.7776   -4.1907   26.5361 H   0  0  0  0  0  0  0  0  0  0  0  0
    5.7548   -2.0845   27.8953 H   0  0  0  0  0  0  0  0  0  0  0  0
    7.1411    0.1106   24.4940 H   0  0  0  0  0  0  0  0  0  0  0  0
    8.4499   -3.7716   22.6931 H   0  0  0  0  0  0  0  0  0  0  0  0
    7.6547   -3.4283   21.1575 H   0  0  0  0  0  0  0  0  0  0  0  0
    6.5707   -5.6418   20.5372 C   0  0  0  0  0  0  0  0  0  0  0  0
    5.6444   -4.5104   20.2162 C   0  0  0  0  0  0  0  0  0  0  0  0
    6.0389   -3.5015   20.0989 H   0  0  0  0  0  0  0  0  0  0  0  0
    4.7603   -4.7483   19.6367 H   0  0  0  0  0  0  0  0  0  0  0  0
    7.6238   -5.3775   20.5978 H   0  0  0  0  0  0  0  0  0  0  0  0
    6.3138   -6.6325   20.1705 H   0  0  0  0  0  0  0  0  0  0  0  0
    3.5985   -4.0665   22.5274 H   0  0  0  0  0  0  0  0  0  0  0  0
    2.2139   -6.2840   23.5624 H   0  0  0  0  0  0  0  0  0  0  0  0
    1.9834   -6.4025   21.8226 H   0  0  0  0  0  0  0  0  0  0  0  0
    1.3881   -4.9521   22.6782 H   0  0  0  0  0  0  0  0  0  0  0  0
  1  2  1  0
  2  3  1  0
  3  4  2  0
  3  5  1  0
  5  6  1  0
  6  7  1  0
  8  7  1  6
  8  9  1  0
  9 10  2  0
  9 11  1  0
 11 12  1  0
 12 13  2  0
 13 14  1  0
 14 15  2  0
 15 16  1  0
 16 17  2  0
 17 18  1  0
 18 19  2  0
 19 20  1  0
 20 21  2  0
 20 22  1  0
 19 23  1  0
 18 24  1  0
 17 25  1  0
 15 26  1  0
 13 27  1  0
 11 28  1  0
 28 29  1  0
 29 30  1  0
 30 31  1  0
 30 32  1  0
 30 33  1  0
 29 34  1  1
 28 35  1  0
 28 36  1  0
  8 37  1  0
 37 38  2  0
 38 39  1  0
 39 40  1  0
 39 41  2  0
 41 42  1  0
 42 43  2  0
 43 44  1  0
 44 45  2  0
 42 46  1  0
 41 47  1  0
 38 48  1  0
  7 49  1  0
  7 50  1  0
  5 51  1  0
 51 52  1  0
 52 53  1  0
 52 54  1  0
 51 55  1  0
 51 56  1  0
  2 57  1  0
  1 58  1  0
  1 59  1  0
  1 60  1  0
 52  5  1  0
 44  6  1  0
 29  8  1  0
 43 37  1  0
 21 12  1  0
 21 16  1  0
M  END
>  <cnnaffinities>  (51) 
[5.79418]

>  <score>  (51) 
5.79418

>  <index>  (51) 
84

>  <Smiles>  (51) 
C(N(C(=O)C1(N2C([C@@]3(C(=O)N(c4c(nc(c5c(c(c(c(c45)[H])[H])[H])[H])[H])[H])C([C@@]3(C([H])([H])[H])[H])([H])[H])c3c(c(Cl)c(c(c3C2=O)[H])[H])[H])([H])[H])C(C1([H])[H])([H])[H])[H])([H])([H])[H]

>  <h>  (51) 
<NA>

>  <Training>  (51) 
True

>  <Success>  (51) 
True

>  <enamine_searched>  (51) 
False

>  <enamine_id>  (51) 
nan

$$$$

     RDKit          3D

 55 60  0  0  0  0  0  0  0  0999 V2000
    9.7008   -1.9113   22.0073 C   0  0  0  0  0  0  0  0  0  0  0  0
    8.5895   -0.9116   22.3696 C   0  0  1  0  0  0  0  0  0  0  0  0
    8.1791   -0.0288   21.1690 C   0  0  0  0  0  0  0  0  0  0  0  0
    6.8743   -0.5053   20.7821 N   0  0  0  0  0  0  0  0  0  0  0  0
    6.1134    0.0678   19.7437 C   0  0  0  0  0  0  0  0  0  0  0  0
    6.4571   -0.2086   18.4475 C   0  0  0  0  0  0  0  0  0  0  0  0
    5.7918    0.2521   17.3638 N   0  0  0  0  0  0  0  0  0  0  0  0
    4.7561    1.0258   17.5929 C   0  0  0  0  0  0  0  0  0  0  0  0
    4.3043    1.3996   18.8914 C   0  0  0  0  0  0  0  0  0  0  0  0
    3.1867    2.2561   19.0594 C   0  0  0  0  0  0  0  0  0  0  0  0
    2.7890    2.6404   20.3085 C   0  0  0  0  0  0  0  0  0  0  0  0
    3.4915    2.1850   21.4480 C   0  0  0  0  0  0  0  0  0  0  0  0
    4.5708    1.3456   21.3201 C   0  0  0  0  0  0  0  0  0  0  0  0
    4.9994    0.9219   20.0214 C   0  0  0  0  0  0  0  0  0  0  0  0
    5.0924    1.0031   22.2158 H   0  0  0  0  0  0  0  0  0  0  0  0
    3.1675    2.5116   22.4323 H   0  0  0  0  0  0  0  0  0  0  0  0
    1.9411    3.3085   20.4303 H   0  0  0  0  0  0  0  0  0  0  0  0
    2.6761    2.6106   18.1687 H   0  0  0  0  0  0  0  0  0  0  0  0
    4.2187    1.4073   16.7252 H   0  0  0  0  0  0  0  0  0  0  0  0
    7.3067   -0.8639   18.2606 H   0  0  0  0  0  0  0  0  0  0  0  0
    6.2987   -1.3706   21.6726 C   0  0  0  0  0  0  0  0  0  0  0  0
    5.2196   -1.9034   21.4974 O   0  0  0  0  0  0  0  0  0  0  0  0
    7.2597   -1.5424   22.8679 C   0  0  1  0  0  0  0  0  0  0  0  0
    7.3479   -3.0388   23.1523 C   0  0  0  0  0  0  0  0  0  0  0  0
    6.0424   -3.4720   23.5792 N   0  0  0  0  0  0  0  0  0  0  0  0
    5.4347   -4.6078   22.9202 C   0  0  0  0  0  0  0  0  0  0  0  0
    6.0986   -5.8498   23.4151 C   0  0  0  0  0  0  0  0  0  0  0  0
    5.9868   -6.4015   24.6425 C   0  0  0  0  0  0  0  0  0  0  0  0
    7.0635   -7.1940   24.8335 O   0  0  0  0  0  0  0  0  0  0  0  0
    7.7652   -7.1144   23.6957 C   0  0  0  0  0  0  0  0  0  0  0  0
    7.2454   -6.3472   22.7981 N   0  0  0  0  0  0  0  0  0  0  0  0
    8.6824   -7.6861   23.6692 H   0  0  0  0  0  0  0  0  0  0  0  0
    5.3156   -6.2615   25.4747 H   0  0  0  0  0  0  0  0  0  0  0  0
    4.3665   -4.5655   23.1403 H   0  0  0  0  0  0  0  0  0  0  0  0
    5.5751   -4.4794   21.8396 H   0  0  0  0  0  0  0  0  0  0  0  0
    5.5547   -3.0248   24.7725 C   0  0  0  0  0  0  0  0  0  0  0  0
    4.8173   -3.6815   25.4938 O   0  0  0  0  0  0  0  0  0  0  0  0
    5.9519   -1.6144   25.0600 C   0  0  0  0  0  0  0  0  0  0  0  0
    5.4538   -1.0256   26.2182 C   0  0  0  0  0  0  0  0  0  0  0  0
    5.6429    0.3170   26.4611 C   0  0  0  0  0  0  0  0  0  0  0  0
    6.3517    1.0443   25.5146 C   0  0  0  0  0  0  0  0  0  0  0  0
    6.5164    2.3594   25.7321 F   0  0  0  0  0  0  0  0  0  0  0  0
    6.8837    0.4819   24.3679 C   0  0  0  0  0  0  0  0  0  0  0  0
    6.7016   -0.8842   24.1274 C   0  0  0  0  0  0  0  0  0  0  0  0
    7.4377    1.1190   23.6866 H   0  0  0  0  0  0  0  0  0  0  0  0
    5.2308    0.8061   27.3363 H   0  0  0  0  0  0  0  0  0  0  0  0
    4.9043   -1.6609   26.8995 H   0  0  0  0  0  0  0  0  0  0  0  0
    8.1016   -3.2408   23.9304 H   0  0  0  0  0  0  0  0  0  0  0  0
    7.6288   -3.5911   22.2558 H   0  0  0  0  0  0  0  0  0  0  0  0
    8.8809   -0.1256   20.3412 H   0  0  0  0  0  0  0  0  0  0  0  0
    8.1351    1.0356   21.4405 H   0  0  0  0  0  0  0  0  0  0  0  0
    8.9975   -0.2971   23.1790 H   0  0  0  0  0  0  0  0  0  0  0  0
    9.8723   -2.6212   22.8205 H   0  0  0  0  0  0  0  0  0  0  0  0
    9.4684   -2.4736   21.0941 H   0  0  0  0  0  0  0  0  0  0  0  0
   10.6555   -1.4009   21.8712 H   0  0  0  0  0  0  0  0  0  0  0  0
  1  2  1  0
  2  3  1  0
  3  4  1  0
  4  5  1  0
  5  6  2  0
  6  7  1  0
  7  8  2  0
  8  9  1  0
  9 10  2  0
 10 11  1  0
 11 12  2  0
 12 13  1  0
 13 14  2  0
 13 15  1  0
 12 16  1  0
 11 17  1  0
 10 18  1  0
  8 19  1  0
  6 20  1  0
  4 21  1  0
 21 22  2  0
 21 23  1  0
 23 24  1  1
 24 25  1  0
 25 26  1  0
 26 27  1  0
 27 28  2  0
 28 29  1  0
 29 30  1  0
 30 31  2  0
 30 32  1  0
 28 33  1  0
 26 34  1  0
 26 35  1  0
 25 36  1  0
 36 37  2  0
 36 38  1  0
 38 39  2  0
 39 40  1  0
 40 41  2  0
 41 42  1  0
 41 43  1  0
 43 44  2  0
 43 45  1  0
 40 46  1  0
 39 47  1  0
 24 48  1  0
 24 49  1  0
  3 50  1  0
  3 51  1  0
  2 52  1  1
  1 53  1  0
  1 54  1  0
  1 55  1  0
 23  2  1  0
 31 27  1  0
 44 38  1  0
 14  5  1  0
 44 23  1  0
 14  9  1  0
M  END
>  <cnnaffinities>  (52) 
[6.05015]

>  <score>  (52) 
6.05015

>  <index>  (52) 
85

>  <Smiles>  (52) 
C([C@]1(C(N(c2c(nc(c3c(c(c(c(c23)[H])[H])[H])[H])[H])[H])C(=O)[C@]21C(N(C(c1c(oc(n1)[H])[H])([H])[H])C(=O)c1c(c(c(F)c(c21)[H])[H])[H])([H])[H])([H])[H])[H])([H])([H])[H]

>  <h>  (52) 
<NA>

>  <Training>  (52) 
True

>  <Success>  (52) 
True

>  <enamine_searched>  (52) 
False

>  <enamine_id>  (52) 
nan

$$$$

     RDKit          3D

 64 68  0  0  0  0  0  0  0  0999 V2000
    1.1494   -3.8394   27.2824 C   0  0  0  0  0  0  0  0  0  0  0  0
    1.6939   -3.7116   25.8496 C   0  0  0  0  0  0  0  0  0  0  0  0
    3.1994   -4.0047   25.7229 C   0  0  0  0  0  0  0  0  0  0  0  0
    3.9989   -3.1519   26.0889 O   0  0  0  0  0  0  0  0  0  0  0  0
    3.6335   -5.0863   24.9717 N   0  0  0  0  0  0  0  0  0  0  0  0
    2.9512   -6.3709   25.1212 C   0  0  0  0  0  0  0  0  0  0  0  0
    3.9864   -7.4806   25.3558 C   0  0  0  0  0  0  0  0  0  0  0  0
    4.9509   -7.5437   24.1725 C   0  0  0  0  0  0  0  0  0  0  0  0
    5.5014   -6.1803   23.8350 C   0  0  0  0  0  0  0  0  0  0  0  0
    6.6638   -6.0853   23.0650 C   0  0  0  0  0  0  0  0  0  0  0  0
    7.1473   -4.8403   22.6601 C   0  0  0  0  0  0  0  0  0  0  0  0
    6.4733   -3.6787   23.0232 C   0  0  0  0  0  0  0  0  0  0  0  0
    6.9564   -2.4437   22.5929 N   0  0  0  0  0  0  0  0  0  0  0  0
    8.0405   -1.8569   23.3663 C   0  0  0  0  0  0  0  0  0  0  0  0
    7.4816   -1.4006   24.6957 C   0  0  0  0  0  0  0  0  0  0  0  0
    7.5720   -2.2357   25.8218 C   0  0  0  0  0  0  0  0  0  0  0  0
    7.0038   -1.8469   27.0386 C   0  0  0  0  0  0  0  0  0  0  0  0
    6.3388   -0.6210   27.1378 C   0  0  0  0  0  0  0  0  0  0  0  0
    6.2502    0.2248   26.0298 C   0  0  0  0  0  0  0  0  0  0  0  0
    5.3190    1.8871   26.1629 Br  0  0  0  0  0  0  0  0  0  0  0  0
    6.8231   -0.1649   24.8148 C   0  0  0  0  0  0  0  0  0  0  0  0
    6.7503    0.4976   23.9585 H   0  0  0  0  0  0  0  0  0  0  0  0
    5.8752   -0.3263   28.0725 H   0  0  0  0  0  0  0  0  0  0  0  0
    7.0745   -2.4996   27.9022 H   0  0  0  0  0  0  0  0  0  0  0  0
    8.0890   -3.1881   25.7478 H   0  0  0  0  0  0  0  0  0  0  0  0
    8.8326   -2.6020   23.5209 H   0  0  0  0  0  0  0  0  0  0  0  0
    8.4813   -1.0129   22.8255 H   0  0  0  0  0  0  0  0  0  0  0  0
    6.2782   -1.7304   21.6061 C   0  0  0  0  0  0  0  0  0  0  0  0
    5.2312   -2.1930   21.1596 O   0  0  0  0  0  0  0  0  0  0  0  0
    6.9127   -0.4846   20.9359 C   0  0  0  0  0  0  0  0  0  0  0  0
    6.1057    0.1046   19.7630 C   0  0  0  0  0  0  0  0  0  0  0  0
    6.4493   -0.2018   18.4262 C   0  0  0  0  0  0  0  0  0  0  0  0
    5.7781    0.2553   17.3510 N   0  0  0  0  0  0  0  0  0  0  0  0
    4.7173    1.0543   17.5712 C   0  0  0  0  0  0  0  0  0  0  0  0
    4.2914    1.4217   18.8517 C   0  0  0  0  0  0  0  0  0  0  0  0
    3.1792    2.2592   19.0283 C   0  0  0  0  0  0  0  0  0  0  0  0
    2.7572    2.6154   20.3107 C   0  0  0  0  0  0  0  0  0  0  0  0
    3.4417    2.1287   21.4278 C   0  0  0  0  0  0  0  0  0  0  0  0
    4.5545    1.2929   21.2545 C   0  0  0  0  0  0  0  0  0  0  0  0
    4.9932    0.9375   19.9715 C   0  0  0  0  0  0  0  0  0  0  0  0
    5.0817    0.9079   22.1210 H   0  0  0  0  0  0  0  0  0  0  0  0
    3.1033    2.4043   22.4226 H   0  0  0  0  0  0  0  0  0  0  0  0
    1.9026    3.2741   20.4357 H   0  0  0  0  0  0  0  0  0  0  0  0
    2.6438    2.6462   18.1654 H   0  0  0  0  0  0  0  0  0  0  0  0
    4.1568    1.4377   16.7212 H   0  0  0  0  0  0  0  0  0  0  0  0
    7.2931   -0.8644   18.2549 H   0  0  0  0  0  0  0  0  0  0  0  0
    7.8982   -0.7825   20.5621 H   0  0  0  0  0  0  0  0  0  0  0  0
    7.0786    0.2860   21.7000 H   0  0  0  0  0  0  0  0  0  0  0  0
    5.3105   -3.7648   23.7890 C   0  0  0  0  0  0  0  0  0  0  0  0
    4.8189   -5.0093   24.2148 C   0  0  0  0  0  0  0  0  0  0  0  0
    4.7737   -2.8573   24.0437 H   0  0  0  0  0  0  0  0  0  0  0  0
    8.0407   -4.7492   22.0557 H   0  0  0  0  0  0  0  0  0  0  0  0
    7.1793   -6.9968   22.7782 H   0  0  0  0  0  0  0  0  0  0  0  0
    5.7720   -8.2323   24.3951 H   0  0  0  0  0  0  0  0  0  0  0  0
    4.4063   -7.9234   23.3034 H   0  0  0  0  0  0  0  0  0  0  0  0
    4.5460   -7.2875   26.2805 H   0  0  0  0  0  0  0  0  0  0  0  0
    3.4723   -8.4431   25.4600 H   0  0  0  0  0  0  0  0  0  0  0  0
    2.2757   -6.3363   25.9848 H   0  0  0  0  0  0  0  0  0  0  0  0
    2.3550   -6.5830   24.2244 H   0  0  0  0  0  0  0  0  0  0  0  0
    1.1379   -4.3791   25.1782 H   0  0  0  0  0  0  0  0  0  0  0  0
    1.5377   -2.6863   25.4984 H   0  0  0  0  0  0  0  0  0  0  0  0
    1.3080   -4.8574   27.6585 H   0  0  0  0  0  0  0  0  0  0  0  0
    1.6540   -3.1253   27.9462 H   0  0  0  0  0  0  0  0  0  0  0  0
    0.0714   -3.6222   27.3036 H   0  0  0  0  0  0  0  0  0  0  0  0
  1  2  1  0
  2  3  1  0
  3  4  2  0
  3  5  1  0
  5  6  1  0
  6  7  1  0
  7  8  1  0
  8  9  1  0
  9 10  2  0
 10 11  1  0
 11 12  2  0
 12 13  1  0
 13 14  1  0
 14 15  1  0
 15 16  2  0
 16 17  1  0
 17 18  2  0
 18 19  1  0
 19 20  1  0
 19 21  2  0
 21 22  1  0
 18 23  1  0
 17 24  1  0
 16 25  1  0
 14 26  1  0
 14 27  1  0
 13 28  1  0
 28 29  2  0
 28 30  1  0
 30 31  1  0
 31 32  2  0
 32 33  1  0
 33 34  2  0
 34 35  1  0
 35 36  2  0
 36 37  1  0
 37 38  2  0
 38 39  1  0
 39 40  2  0
 39 41  1  0
 38 42  1  0
 37 43  1  0
 36 44  1  0
 34 45  1  0
 32 46  1  0
 30 47  1  0
 30 48  1  0
 12 49  1  0
 49 50  2  0
 49 51  1  0
 11 52  1  0
 10 53  1  0
  8 54  1  0
  8 55  1  0
  7 56  1  0
  7 57  1  0
  6 58  1  0
  6 59  1  0
  2 60  1  0
  2 61  1  0
  1 62  1  0
  1 63  1  0
  1 64  1  0
 50  5  1  0
 50  9  1  0
 21 15  1  0
 40 31  1  0
 40 35  1  0
M  END
>  <cnnaffinities>  (53) 
[6.67107]

>  <score>  (53) 
6.67107

>  <index>  (53) 
88

>  <Smiles>  (53) 
C(C(C(=O)N1C(C(C(c2c(c(c(N(C(c3c(c(c(c(Br)c3[H])[H])[H])[H])([H])[H])C(=O)C(c3c(nc(c4c(c(c(c(c34)[H])[H])[H])[H])[H])[H])([H])[H])c(c12)[H])[H])[H])([H])[H])([H])[H])([H])[H])([H])[H])([H])([H])[H]

>  <h>  (53) 
<NA>

>  <Training>  (53) 
True

>  <Success>  (53) 
True

>  <enamine_searched>  (53) 
False

>  <enamine_id>  (53) 
nan

$$$$

     RDKit          3D

 38 40  0  0  0  0  0  0  0  0999 V2000
    5.0979   -1.9796   21.3855 O   0  0  0  0  0  0  0  0  0  0  0  0
    6.2964   -1.7853   21.4739 C   0  0  0  0  0  0  0  0  0  0  0  0
    6.9403   -0.5054   20.8930 C   0  0  0  0  0  0  0  0  0  0  0  0
    6.1185    0.0902   19.7701 C   0  0  0  0  0  0  0  0  0  0  0  0
    6.4234   -0.2103   18.4684 C   0  0  0  0  0  0  0  0  0  0  0  0
    5.7589    0.2380   17.3699 N   0  0  0  0  0  0  0  0  0  0  0  0
    4.7362    1.0317   17.5786 C   0  0  0  0  0  0  0  0  0  0  0  0
    4.2868    1.4193   18.8684 C   0  0  0  0  0  0  0  0  0  0  0  0
    3.1641    2.2693   19.0436 C   0  0  0  0  0  0  0  0  0  0  0  0
    2.7458    2.6239   20.2975 C   0  0  0  0  0  0  0  0  0  0  0  0
    3.4359    2.1371   21.4303 C   0  0  0  0  0  0  0  0  0  0  0  0
    4.5255    1.3119   21.2868 C   0  0  0  0  0  0  0  0  0  0  0  0
    4.9887    0.9341   20.0001 C   0  0  0  0  0  0  0  0  0  0  0  0
    5.0267    0.9230   22.1672 H   0  0  0  0  0  0  0  0  0  0  0  0
    3.0932    2.4128   22.4232 H   0  0  0  0  0  0  0  0  0  0  0  0
    1.8870    3.2783   20.4317 H   0  0  0  0  0  0  0  0  0  0  0  0
    2.6489    2.6416   18.1605 H   0  0  0  0  0  0  0  0  0  0  0  0
    4.2024    1.3991   16.6992 H   0  0  0  0  0  0  0  0  0  0  0  0
    7.2633   -0.8654   18.2439 H   0  0  0  0  0  0  0  0  0  0  0  0
    7.0803    0.2298   21.6977 H   0  0  0  0  0  0  0  0  0  0  0  0
    7.9443   -0.7508   20.5153 H   0  0  0  0  0  0  0  0  0  0  0  0
    7.1303   -2.7329   22.0352 N   0  0  0  0  0  0  0  0  0  0  0  0
    6.5958   -4.0783   22.2146 C   0  0  0  0  0  0  0  0  0  0  0  0
    5.8793   -4.3500   23.5178 C   0  0  0  0  0  0  0  0  0  0  0  0
    6.2182   -3.8307   24.6951 C   0  0  0  0  0  0  0  0  0  0  0  0
    7.3498   -2.8627   24.9404 C   0  0  0  0  0  0  0  0  0  0  0  0
    8.5722   -3.0624   24.0415 C   0  0  0  0  0  0  0  0  0  0  0  0
    8.4260   -2.4580   22.6397 C   0  0  0  0  0  0  0  0  0  0  0  0
    9.2361   -2.8301   21.9967 H   0  0  0  0  0  0  0  0  0  0  0  0
    8.5440   -1.3747   22.7189 H   0  0  0  0  0  0  0  0  0  0  0  0
    9.4477   -2.6037   24.5140 H   0  0  0  0  0  0  0  0  0  0  0  0
    8.8150   -4.1265   23.9822 H   0  0  0  0  0  0  0  0  0  0  0  0
    7.6438   -2.9235   25.9948 H   0  0  0  0  0  0  0  0  0  0  0  0
    6.9843   -1.8396   24.7996 H   0  0  0  0  0  0  0  0  0  0  0  0
    5.6462   -4.1338   25.5700 H   0  0  0  0  0  0  0  0  0  0  0  0
    5.0148   -5.0136   23.4652 H   0  0  0  0  0  0  0  0  0  0  0  0
    7.4368   -4.7731   22.1225 H   0  0  0  0  0  0  0  0  0  0  0  0
    5.9323   -4.2999   21.3782 H   0  0  0  0  0  0  0  0  0  0  0  0
  1  2  2  0
  2  3  1  0
  3  4  1  0
  4  5  2  0
  5  6  1  0
  6  7  2  0
  7  8  1  0
  8  9  2  0
  9 10  1  0
 10 11  2  0
 11 12  1  0
 12 13  2  0
 12 14  1  0
 11 15  1  0
 10 16  1  0
  9 17  1  0
  7 18  1  0
  5 19  1  0
  3 20  1  0
  3 21  1  0
  2 22  1  0
 22 23  1  0
 23 24  1  0
 24 25  2  0
 25 26  1  0
 26 27  1  0
 27 28  1  0
 28 29  1  0
 28 30  1  0
 27 31  1  0
 27 32  1  0
 26 33  1  0
 26 34  1  0
 25 35  1  0
 24 36  1  0
 23 37  1  0
 23 38  1  0
 13  4  1  0
 28 22  1  0
 13  8  1  0
M  END
>  <cnnaffinities>  (54) 
[5.10357, 5.15554, 4.76989]

>  <score>  (54) 
5.10357

>  <index>  (54) 
89

>  <Smiles>  (54) 
O=C(C(c1c(nc(c2c(c(c(c(c12)[H])[H])[H])[H])[H])[H])([H])[H])N1C(C(=C(C(C(C1([H])[H])([H])[H])([H])[H])[H])[H])([H])[H]

>  <h>  (54) 
<NA>

>  <Training>  (54) 
True

>  <Success>  (54) 
True

>  <enamine_searched>  (54) 
False

>  <enamine_id>  (54) 
nan

$$$$

     RDKit          3D

 62 67  0  0  0  0  0  0  0  0999 V2000
    9.7289   -1.9759   21.9460 C   0  0  0  0  0  0  0  0  0  0  0  0
    8.6286   -0.9764   22.3531 C   0  0  1  0  0  0  0  0  0  0  0  0
    8.1887   -0.0799   21.1634 C   0  0  0  0  0  0  0  0  0  0  0  0
    6.8494   -0.5196   20.8333 N   0  0  0  0  0  0  0  0  0  0  0  0
    6.0963    0.0454   19.7721 C   0  0  0  0  0  0  0  0  0  0  0  0
    6.4433   -0.2242   18.4705 C   0  0  0  0  0  0  0  0  0  0  0  0
    5.7856    0.2461   17.3839 N   0  0  0  0  0  0  0  0  0  0  0  0
    4.7523    1.0264   17.5989 C   0  0  0  0  0  0  0  0  0  0  0  0
    4.2971    1.4100   18.8937 C   0  0  0  0  0  0  0  0  0  0  0  0
    3.1807    2.2732   19.0600 C   0  0  0  0  0  0  0  0  0  0  0  0
    2.7839    2.6560   20.3121 C   0  0  0  0  0  0  0  0  0  0  0  0
    3.4917    2.2017   21.4480 C   0  0  0  0  0  0  0  0  0  0  0  0
    4.5725    1.3645   21.3161 C   0  0  0  0  0  0  0  0  0  0  0  0
    4.9909    0.9257   20.0226 C   0  0  0  0  0  0  0  0  0  0  0  0
    5.1037    1.0233   22.2041 H   0  0  0  0  0  0  0  0  0  0  0  0
    3.1640    2.5100   22.4363 H   0  0  0  0  0  0  0  0  0  0  0  0
    1.9302    3.3164   20.4372 H   0  0  0  0  0  0  0  0  0  0  0  0
    2.6676    2.6285   18.1709 H   0  0  0  0  0  0  0  0  0  0  0  0
    4.2209    1.3885   16.7211 H   0  0  0  0  0  0  0  0  0  0  0  0
    7.2930   -0.8718   18.2623 H   0  0  0  0  0  0  0  0  0  0  0  0
    6.2968   -1.3881   21.7426 C   0  0  0  0  0  0  0  0  0  0  0  0
    5.1834   -1.8668   21.6471 O   0  0  0  0  0  0  0  0  0  0  0  0
    7.3123   -1.6123   22.8892 C   0  0  1  0  0  0  0  0  0  0  0  0
    7.4790   -3.1150   23.1858 C   0  0  0  0  0  0  0  0  0  0  0  0
    6.3080   -3.6819   23.8053 N   0  0  0  0  0  0  0  0  0  0  0  0
    5.8169   -4.9714   23.3669 C   0  0  0  0  0  0  0  0  0  0  0  0
    4.5360   -4.8132   22.5395 C   0  0  0  0  0  0  0  0  0  0  0  0
    3.7139   -6.0521   22.4823 N   0  0  0  0  0  4  0  0  0  0  0  0
    4.4133   -7.3870   22.2453 C   0  0  0  0  0  0  0  0  0  0  0  0
    3.9253   -7.9356   23.6202 C   0  0  0  0  0  0  0  0  0  0  0  0
    3.1794   -6.5922   23.8333 C   0  0  0  0  0  0  0  0  0  0  0  0
    3.4449   -5.9481   24.6694 H   0  0  0  0  0  0  0  0  0  0  0  0
    2.1006   -6.6918   23.7804 H   0  0  0  0  0  0  0  0  0  0  0  0
    3.2076   -8.7321   23.4856 H   0  0  0  0  0  0  0  0  0  0  0  0
    4.6934   -8.2394   24.3398 H   0  0  0  0  0  0  0  0  0  0  0  0
    3.9822   -7.8909   21.3823 H   0  0  0  0  0  0  0  0  0  0  0  0
    5.4805   -7.2803   22.0638 H   0  0  0  0  0  0  0  0  0  0  0  0
    2.9617   -5.8882   21.8003 H   0  0  0  0  0  0  0  0  0  0  0  0
    3.8794   -4.0680   22.9806 H   0  0  0  0  0  0  0  0  0  0  0  0
    4.7682   -4.5350   21.5136 H   0  0  0  0  0  0  0  0  0  0  0  0
    6.6160   -5.4463   22.7832 H   0  0  0  0  0  0  0  0  0  0  0  0
    5.6490   -5.5753   24.2643 H   0  0  0  0  0  0  0  0  0  0  0  0
    5.6859   -3.0882   24.8588 C   0  0  0  0  0  0  0  0  0  0  0  0
    4.8572   -3.6869   25.5375 O   0  0  0  0  0  0  0  0  0  0  0  0
    6.0323   -1.6400   25.0826 C   0  0  0  0  0  0  0  0  0  0  0  0
    5.5150   -0.9988   26.2057 C   0  0  0  0  0  0  0  0  0  0  0  0
    5.7223    0.3533   26.4000 C   0  0  0  0  0  0  0  0  0  0  0  0
    6.4449    1.0715   25.4513 C   0  0  0  0  0  0  0  0  0  0  0  0
    6.6702    2.7846   25.6766 Cl  0  0  0  0  0  0  0  0  0  0  0  0
    6.9757    0.4515   24.3340 C   0  0  0  0  0  0  0  0  0  0  0  0
    6.7917   -0.9271   24.1469 C   0  0  0  0  0  0  0  0  0  0  0  0
    7.5137    1.0653   23.6167 H   0  0  0  0  0  0  0  0  0  0  0  0
    5.3201    0.8645   27.2643 H   0  0  0  0  0  0  0  0  0  0  0  0
    4.9341   -1.5979   26.8967 H   0  0  0  0  0  0  0  0  0  0  0  0
    7.6454   -3.6425   22.2440 H   0  0  0  0  0  0  0  0  0  0  0  0
    8.3585   -3.2449   23.8386 H   0  0  0  0  0  0  0  0  0  0  0  0
    8.1852    0.9965   21.4058 H   0  0  0  0  0  0  0  0  0  0  0  0
    8.8582   -0.2096   20.3107 H   0  0  0  0  0  0  0  0  0  0  0  0
    9.0668   -0.3733   23.1571 H   0  0  0  0  0  0  0  0  0  0  0  0
    9.4266   -2.5755   21.0777 H   0  0  0  0  0  0  0  0  0  0  0  0
    9.9795   -2.6646   22.7591 H   0  0  0  0  0  0  0  0  0  0  0  0
   10.6458   -1.4306   21.7105 H   0  0  0  0  0  0  0  0  0  0  0  0
  1  2  1  0
  2  3  1  0
  3  4  1  0
  4  5  1  0
  5  6  2  0
  6  7  1  0
  7  8  2  0
  8  9  1  0
  9 10  2  0
 10 11  1  0
 11 12  2  0
 12 13  1  0
 13 14  2  0
 13 15  1  0
 12 16  1  0
 11 17  1  0
 10 18  1  0
  8 19  1  0
  6 20  1  0
  4 21  1  0
 21 22  2  0
 21 23  1  0
 23 24  1  1
 24 25  1  0
 25 26  1  0
 26 27  1  0
 27 28  1  0
 28 29  1  0
 29 30  1  0
 30 31  1  0
 31 32  1  0
 31 33  1  0
 30 34  1  0
 30 35  1  0
 29 36  1  0
 29 37  1  0
 28 38  1  0
 27 39  1  0
 27 40  1  0
 26 41  1  0
 26 42  1  0
 25 43  1  0
 43 44  2  0
 43 45  1  0
 45 46  2  0
 46 47  1  0
 47 48  2  0
 48 49  1  0
 48 50  1  0
 50 51  2  0
 50 52  1  0
 47 53  1  0
 46 54  1  0
 24 55  1  0
 24 56  1  0
  3 57  1  0
  3 58  1  0
  2 59  1  1
  1 60  1  0
  1 61  1  0
  1 62  1  0
 23  2  1  0
 31 28  1  0
 51 45  1  0
 14  5  1  0
 51 23  1  0
 14  9  1  0
M  CHG  1  28   1
M  END
>  <cnnaffinities>  (55) 
[6.02836, 6.03316]

>  <score>  (55) 
6.02836

>  <index>  (55) 
90

>  <Smiles>  (55) 
C([C@]1(C(N(c2c(nc(c3c(c(c(c(c23)[H])[H])[H])[H])[H])[H])C(=O)[C@]21C(N(C(C([N+]1(C(C(C1([H])[H])([H])[H])([H])[H])[H])([H])[H])([H])[H])C(=O)c1c(c(c(Cl)c(c21)[H])[H])[H])([H])[H])([H])[H])[H])([H])([H])[H]

>  <h>  (55) 
<NA>

>  <Training>  (55) 
True

>  <Success>  (55) 
True

>  <enamine_searched>  (55) 
False

>  <enamine_id>  (55) 
nan

$$$$

     RDKit          3D

 47 50  0  0  0  0  0  0  0  0999 V2000
    5.3696   -2.3406   20.9425 O   0  0  0  0  0  0  0  0  0  0  0  0
    6.0540   -1.5690   21.5879 C   0  0  0  0  0  0  0  0  0  0  0  0
    6.9191   -0.5082   20.9057 C   0  0  0  0  0  0  0  0  0  0  0  0
    6.1474    0.0866   19.7606 C   0  0  0  0  0  0  0  0  0  0  0  0
    6.4569   -0.2201   18.4633 C   0  0  0  0  0  0  0  0  0  0  0  0
    5.7952    0.2323   17.3638 N   0  0  0  0  0  0  0  0  0  0  0  0
    4.7679    1.0207   17.5791 C   0  0  0  0  0  0  0  0  0  0  0  0
    4.3168    1.4078   18.8707 C   0  0  0  0  0  0  0  0  0  0  0  0
    3.1884    2.2493   19.0414 C   0  0  0  0  0  0  0  0  0  0  0  0
    2.7699    2.6123   20.2931 C   0  0  0  0  0  0  0  0  0  0  0  0
    3.4661    2.1367   21.4267 C   0  0  0  0  0  0  0  0  0  0  0  0
    4.5568    1.3140   21.2914 C   0  0  0  0  0  0  0  0  0  0  0  0
    5.0186    0.9290   19.9987 C   0  0  0  0  0  0  0  0  0  0  0  0
    5.0650    0.9540   22.1836 H   0  0  0  0  0  0  0  0  0  0  0  0
    3.1284    2.4290   22.4163 H   0  0  0  0  0  0  0  0  0  0  0  0
    1.9095    3.2636   20.4217 H   0  0  0  0  0  0  0  0  0  0  0  0
    2.6713    2.6092   18.1579 H   0  0  0  0  0  0  0  0  0  0  0  0
    4.2237    1.3920   16.7105 H   0  0  0  0  0  0  0  0  0  0  0  0
    7.2987   -0.8815   18.2584 H   0  0  0  0  0  0  0  0  0  0  0  0
    7.2085    0.2585   21.6293 H   0  0  0  0  0  0  0  0  0  0  0  0
    7.8395   -1.0028   20.5589 H   0  0  0  0  0  0  0  0  0  0  0  0
    6.0314   -1.6309   22.9842 N   0  0  0  0  0  0  0  0  0  0  0  0
    4.8981   -2.2971   23.5013 C   0  0  0  0  0  0  0  0  0  0  0  0
    4.9066   -3.5267   24.0240 C   0  0  0  0  0  0  0  0  0  0  0  0
    6.0454   -4.2656   24.5153 C   0  0  0  0  0  0  0  0  0  0  0  0
    6.9982   -3.7765   25.3392 C   0  0  0  0  0  0  0  0  0  0  0  0
    7.0083   -2.4502   25.9273 C   0  0  0  0  0  0  0  0  0  0  0  0
    6.7627   -1.2732   25.3270 C   0  0  0  0  0  0  0  0  0  0  0  0
    7.0302   -1.0041   23.8737 C   0  0  1  0  0  0  0  0  0  0  0  0
    8.4689   -1.3891   23.5522 C   0  0  0  0  0  0  0  0  0  0  0  0
    8.8245   -2.5626   22.9001 C   0  0  0  0  0  0  0  0  0  0  0  0
   10.1649   -2.8249   22.6383 C   0  0  0  0  0  0  0  0  0  0  0  0
   11.1676   -1.9947   23.1243 C   0  0  0  0  0  0  0  0  0  0  0  0
   10.8117   -0.8733   23.8685 C   0  0  0  0  0  0  0  0  0  0  0  0
    9.4706   -0.5681   24.0634 C   0  0  0  0  0  0  0  0  0  0  0  0
    9.2147    0.3350   24.6181 H   0  0  0  0  0  0  0  0  0  0  0  0
   11.5683   -0.2366   24.3151 H   0  0  0  0  0  0  0  0  0  0  0  0
   12.2100   -2.2370   22.9179 H   0  0  0  0  0  0  0  0  0  0  0  0
   10.4262   -3.6955   22.0488 H   0  0  0  0  0  0  0  0  0  0  0  0
    8.0629   -3.2731   22.5866 H   0  0  0  0  0  0  0  0  0  0  0  0
    6.9979    0.0866   23.7461 H   0  0  0  0  0  0  0  0  0  0  0  0
    6.5324   -0.4256   25.9663 H   0  0  0  0  0  0  0  0  0  0  0  0
    7.2625   -2.4297   26.9860 H   0  0  0  0  0  0  0  0  0  0  0  0
    7.7227   -4.4731   25.7518 H   0  0  0  0  0  0  0  0  0  0  0  0
    6.0294   -5.3362   24.3245 H   0  0  0  0  0  0  0  0  0  0  0  0
    3.9412   -4.0269   24.0622 H   0  0  0  0  0  0  0  0  0  0  0  0
    3.9451   -1.7983   23.3292 H   0  0  0  0  0  0  0  0  0  0  0  0
  1  2  2  0
  2  3  1  0
  3  4  1  0
  4  5  2  0
  5  6  1  0
  6  7  2  0
  7  8  1  0
  8  9  2  0
  9 10  1  0
 10 11  2  0
 11 12  1  0
 12 13  2  0
 12 14  1  0
 11 15  1  0
 10 16  1  0
  9 17  1  0
  7 18  1  0
  5 19  1  0
  3 20  1  0
  3 21  1  0
  2 22  1  0
 22 23  1  0
 23 24  2  3
 24 25  1  0
 25 26  2  3
 26 27  1  0
 27 28  2  3
 28 29  1  0
 29 30  1  0
 30 31  2  0
 31 32  1  0
 32 33  2  0
 33 34  1  0
 34 35  2  0
 35 36  1  0
 34 37  1  0
 33 38  1  0
 32 39  1  0
 31 40  1  0
 29 41  1  1
 28 42  1  0
 27 43  1  0
 26 44  1  0
 25 45  1  0
 24 46  1  0
 23 47  1  0
 13  4  1  0
 29 22  1  0
 35 30  1  0
 13  8  1  0
M  END
>  <cnnaffinities>  (56) 
[5.84334, 5.84314]

>  <score>  (56) 
5.84334

>  <index>  (56) 
92

>  <Smiles>  (56) 
O=C(C(c1c(nc(c2c(c(c(c(c12)[H])[H])[H])[H])[H])[H])([H])[H])N1C(=C(C(=C(C(=C([C@]1(c1c(c(c(c(c1[H])[H])[H])[H])[H])[H])[H])[H])[H])[H])[H])[H]

>  <h>  (56) 
<NA>

>  <Training>  (56) 
True

>  <Success>  (56) 
True

>  <enamine_searched>  (56) 
False

>  <enamine_id>  (56) 
nan

$$$$

     RDKit          3D

 58 62  0  0  0  0  0  0  0  0999 V2000
    5.5948   -7.0403   25.6260 C   0  0  0  0  0  0  0  0  0  0  0  0
    6.7820   -6.4123   24.9972 N   0  0  0  0  0  4  0  0  0  0  0  0
    6.6127   -6.1523   23.5330 C   0  0  0  0  0  0  0  0  0  0  0  0
    5.7392   -4.9162   23.2606 C   0  0  0  0  0  0  0  0  0  0  0  0
    6.2902   -3.6932   23.8183 N   0  0  0  0  0  0  0  0  0  0  0  0
    7.4600   -3.1318   23.1891 C   0  0  0  0  0  0  0  0  0  0  0  0
    7.3128   -1.6270   22.8846 C   0  0  2  0  0  0  0  0  0  0  0  0
    6.2920   -1.3956   21.7417 C   0  0  0  0  0  0  0  0  0  0  0  0
    5.1805   -1.8714   21.6376 O   0  0  0  0  0  0  0  0  0  0  0  0
    6.8468   -0.5229   20.8359 N   0  0  0  0  0  0  0  0  0  0  0  0
    6.0946    0.0422   19.7729 C   0  0  0  0  0  0  0  0  0  0  0  0
    6.4428   -0.2256   18.4746 C   0  0  0  0  0  0  0  0  0  0  0  0
    5.7854    0.2473   17.3860 N   0  0  0  0  0  0  0  0  0  0  0  0
    4.7529    1.0255   17.6009 C   0  0  0  0  0  0  0  0  0  0  0  0
    4.2967    1.4115   18.8914 C   0  0  0  0  0  0  0  0  0  0  0  0
    3.1803    2.2732   19.0621 C   0  0  0  0  0  0  0  0  0  0  0  0
    2.7820    2.6567   20.3101 C   0  0  0  0  0  0  0  0  0  0  0  0
    3.4922    2.2031   21.4483 C   0  0  0  0  0  0  0  0  0  0  0  0
    4.5726    1.3680   21.3132 C   0  0  0  0  0  0  0  0  0  0  0  0
    4.9924    0.9262   20.0246 C   0  0  0  0  0  0  0  0  0  0  0  0
    5.1034    1.0212   22.2012 H   0  0  0  0  0  0  0  0  0  0  0  0
    3.1653    2.5098   22.4373 H   0  0  0  0  0  0  0  0  0  0  0  0
    1.9279    3.3176   20.4364 H   0  0  0  0  0  0  0  0  0  0  0  0
    2.6679    2.6287   18.1700 H   0  0  0  0  0  0  0  0  0  0  0  0
    4.2220    1.3869   16.7199 H   0  0  0  0  0  0  0  0  0  0  0  0
    7.2921   -0.8725   18.2597 H   0  0  0  0  0  0  0  0  0  0  0  0
    8.1933   -0.1005   21.1551 C   0  0  0  0  0  0  0  0  0  0  0  0
    8.6341   -1.0109   22.3340 C   0  0  2  0  0  0  0  0  0  0  0  0
    9.7136   -2.0302   21.9123 C   0  0  0  0  0  0  0  0  0  0  0  0
    9.9614   -2.7260   22.7229 H   0  0  0  0  0  0  0  0  0  0  0  0
   10.6433   -1.5059   21.6746 H   0  0  0  0  0  0  0  0  0  0  0  0
    9.3904   -2.6217   21.0451 H   0  0  0  0  0  0  0  0  0  0  0  0
    9.0962   -0.4151   23.1298 H   0  0  0  0  0  0  0  0  0  0  0  0
    8.2061    0.9775   21.3953 H   0  0  0  0  0  0  0  0  0  0  0  0
    8.8532   -0.2367   20.2969 H   0  0  0  0  0  0  0  0  0  0  0  0
    6.8210   -0.9301   24.1450 C   0  0  0  0  0  0  0  0  0  0  0  0
    7.0323    0.4443   24.3346 C   0  0  0  0  0  0  0  0  0  0  0  0
    6.5314    1.0514   25.4674 C   0  0  0  0  0  0  0  0  0  0  0  0
    6.7366    2.3675   25.6524 F   0  0  0  0  0  0  0  0  0  0  0  0
    5.8144    0.3547   26.4305 C   0  0  0  0  0  0  0  0  0  0  0  0
    5.5816   -0.9909   26.2266 C   0  0  0  0  0  0  0  0  0  0  0  0
    6.0638   -1.6359   25.0901 C   0  0  0  0  0  0  0  0  0  0  0  0
    5.6956   -3.0811   24.8780 C   0  0  0  0  0  0  0  0  0  0  0  0
    4.9033   -3.6762   25.6017 O   0  0  0  0  0  0  0  0  0  0  0  0
    5.0059   -1.5842   26.9253 H   0  0  0  0  0  0  0  0  0  0  0  0
    5.4471    0.8885   27.2975 H   0  0  0  0  0  0  0  0  0  0  0  0
    7.5665    1.0703   23.6245 H   0  0  0  0  0  0  0  0  0  0  0  0
    8.3367   -3.2838   23.8386 H   0  0  0  0  0  0  0  0  0  0  0  0
    7.6099   -3.6648   22.2488 H   0  0  0  0  0  0  0  0  0  0  0  0
    5.6232   -4.7754   22.1778 H   0  0  0  0  0  0  0  0  0  0  0  0
    4.7503   -5.0308   23.7059 H   0  0  0  0  0  0  0  0  0  0  0  0
    6.1548   -7.0262   23.0673 H   0  0  0  0  0  0  0  0  0  0  0  0
    7.6091   -6.0191   23.1158 H   0  0  0  0  0  0  0  0  0  0  0  0
    7.6170   -7.0184   25.1568 H   0  0  0  0  0  0  0  0  0  0  0  0
    6.9443   -5.4801   25.4458 H   0  0  0  0  0  0  0  0  0  0  0  0
    5.3163   -7.9591   25.1029 H   0  0  0  0  0  0  0  0  0  0  0  0
    4.7484   -6.3568   25.5878 H   0  0  0  0  0  0  0  0  0  0  0  0
    5.8102   -7.2799   26.6655 H   0  0  0  0  0  0  0  0  0  0  0  0
  1  2  1  0
  2  3  1  0
  3  4  1  0
  4  5  1  0
  5  6  1  0
  7  6  1  1
  7  8  1  0
  8  9  2  0
  8 10  1  0
 10 11  1  0
 11 12  2  0
 12 13  1  0
 13 14  2  0
 14 15  1  0
 15 16  2  0
 16 17  1  0
 17 18  2  0
 18 19  1  0
 19 20  2  0
 19 21  1  0
 18 22  1  0
 17 23  1  0
 16 24  1  0
 14 25  1  0
 12 26  1  0
 10 27  1  0
 27 28  1  0
 28 29  1  0
 29 30  1  0
 29 31  1  0
 29 32  1  0
 28 33  1  1
 27 34  1  0
 27 35  1  0
  7 36  1  0
 36 37  2  0
 37 38  1  0
 38 39  1  0
 38 40  2  0
 40 41  1  0
 41 42  2  0
 42 43  1  0
 43 44  2  0
 41 45  1  0
 40 46  1  0
 37 47  1  0
  6 48  1  0
  6 49  1  0
  4 50  1  0
  4 51  1  0
  3 52  1  0
  3 53  1  0
  2 54  1  0
  2 55  1  0
  1 56  1  0
  1 57  1  0
  1 58  1  0
 43  5  1  0
 28  7  1  0
 42 36  1  0
 20 11  1  0
 20 15  1  0
M  CHG  1   2   1
M  END
>  <cnnaffinities>  (57) 
[6.00678]

>  <score>  (57) 
6.00678

>  <index>  (57) 
93

>  <Smiles>  (57) 
C([N+](C(C(N1C([C@@]2(C(=O)N(c3c(nc(c4c(c(c(c(c34)[H])[H])[H])[H])[H])[H])C([C@@]2(C([H])([H])[H])[H])([H])[H])c2c(c(F)c(c(c2C1=O)[H])[H])[H])([H])[H])([H])[H])([H])[H])([H])[H])([H])([H])[H]

>  <h>  (57) 
<NA>

>  <Training>  (57) 
True

>  <Success>  (57) 
True

>  <enamine_searched>  (57) 
False

>  <enamine_id>  (57) 
nan

$$$$

     RDKit          3D

 65 69  0  0  0  0  0  0  0  0999 V2000
    8.6452   -5.8283   27.6163 C   0  0  0  0  0  0  0  0  0  0  0  0
    9.9022   -5.4209   26.8413 C   0  0  0  0  0  0  0  0  0  0  0  0
    9.7856   -3.9143   26.6669 C   0  0  0  0  0  0  0  0  0  0  0  0
    9.6918   -3.1981   27.6257 O   0  0  0  0  0  0  0  0  0  0  0  0
    9.7716   -3.3459   25.2653 N   0  0  2  0  0  4  0  0  0  0  0  0
   11.1812   -2.9170   24.7403 C   0  0  0  0  0  0  0  0  0  0  0  0
   11.0339   -2.4140   23.3253 C   0  0  0  0  0  0  0  0  0  0  0  0
   10.1699   -1.1637   23.2830 C   0  0  0  0  0  0  0  0  0  0  0  0
    8.8399   -1.3027   23.9903 C   0  0  0  0  0  0  0  0  0  0  0  0
    7.7843   -0.3915   23.7515 C   0  0  0  0  0  0  0  0  0  0  0  0
    7.9587    0.7303   22.8678 N   0  0  0  0  0  0  0  0  0  0  0  0
    8.2897    2.0377   23.4478 C   0  0  0  0  0  0  0  0  0  0  0  0
    7.1300    3.0093   23.4357 C   0  0  0  0  0  0  0  0  0  0  0  0
    6.9440    3.8536   22.3383 C   0  0  0  0  0  0  0  0  0  0  0  0
    5.8496    4.7078   22.2958 C   0  0  0  0  0  0  0  0  0  0  0  0
    4.9342    4.7282   23.3483 C   0  0  0  0  0  0  0  0  0  0  0  0
    5.1338    3.8885   24.4379 C   0  0  0  0  0  0  0  0  0  0  0  0
    3.9770    3.8783   25.7439 Cl  0  0  0  0  0  0  0  0  0  0  0  0
    6.2267    3.0345   24.4950 C   0  0  0  0  0  0  0  0  0  0  0  0
    6.3720    2.3939   25.3625 H   0  0  0  0  0  0  0  0  0  0  0  0
    4.0562    5.3641   23.3153 H   0  0  0  0  0  0  0  0  0  0  0  0
    5.7005    5.3546   21.4323 H   0  0  0  0  0  0  0  0  0  0  0  0
    7.6570    3.8275   21.5166 H   0  0  0  0  0  0  0  0  0  0  0  0
    9.0876    2.4866   22.8529 H   0  0  0  0  0  0  0  0  0  0  0  0
    8.6426    1.8548   24.4682 H   0  0  0  0  0  0  0  0  0  0  0  0
    7.7967    0.6891   21.4940 C   0  0  0  0  0  0  0  0  0  0  0  0
    8.3151    1.5154   20.7598 O   0  0  0  0  0  0  0  0  0  0  0  0
    6.9464   -0.4306   20.8999 C   0  0  0  0  0  0  0  0  0  0  0  0
    6.1096    0.0818   19.7616 C   0  0  0  0  0  0  0  0  0  0  0  0
    6.4342   -0.2060   18.4623 C   0  0  0  0  0  0  0  0  0  0  0  0
    5.7719    0.2461   17.3635 N   0  0  0  0  0  0  0  0  0  0  0  0
    4.7461    1.0335   17.5795 C   0  0  0  0  0  0  0  0  0  0  0  0
    4.2969    1.4271   18.8701 C   0  0  0  0  0  0  0  0  0  0  0  0
    3.1805    2.2776   19.0464 C   0  0  0  0  0  0  0  0  0  0  0  0
    2.7686    2.6404   20.2974 C   0  0  0  0  0  0  0  0  0  0  0  0
    3.4635    2.1624   21.4374 C   0  0  0  0  0  0  0  0  0  0  0  0
    4.5552    1.3466   21.2888 C   0  0  0  0  0  0  0  0  0  0  0  0
    5.0021    0.9489   20.0017 C   0  0  0  0  0  0  0  0  0  0  0  0
    5.0841    0.9969   22.1737 H   0  0  0  0  0  0  0  0  0  0  0  0
    3.1128    2.4332   22.4296 H   0  0  0  0  0  0  0  0  0  0  0  0
    1.9100    3.2910   20.4208 H   0  0  0  0  0  0  0  0  0  0  0  0
    2.6614    2.6376   18.1588 H   0  0  0  0  0  0  0  0  0  0  0  0
    4.2079    1.3996   16.7047 H   0  0  0  0  0  0  0  0  0  0  0  0
    7.2843   -0.8536   18.2520 H   0  0  0  0  0  0  0  0  0  0  0  0
    7.6403   -1.2035   20.5441 H   0  0  0  0  0  0  0  0  0  0  0  0
    6.3360   -0.8747   21.6893 H   0  0  0  0  0  0  0  0  0  0  0  0
    6.5751   -0.5248   24.4209 C   0  0  0  0  0  0  0  0  0  0  0  0
    6.3614   -1.5995   25.2819 C   0  0  0  0  0  0  0  0  0  0  0  0
    7.3911   -2.5018   25.5265 C   0  0  0  0  0  0  0  0  0  0  0  0
    8.6344   -2.3197   24.9238 C   0  0  0  0  0  0  0  0  0  0  0  0
    7.2284   -3.3491   26.1843 H   0  0  0  0  0  0  0  0  0  0  0  0
    5.3996   -1.7220   25.7708 H   0  0  0  0  0  0  0  0  0  0  0  0
    5.7922    0.2091   24.2422 H   0  0  0  0  0  0  0  0  0  0  0  0
   10.0258   -0.8824   22.2399 H   0  0  0  0  0  0  0  0  0  0  0  0
   10.7275   -0.3611   23.7782 H   0  0  0  0  0  0  0  0  0  0  0  0
   10.6235   -3.1927   22.6689 H   0  0  0  0  0  0  0  0  0  0  0  0
   12.0247   -2.1612   22.9350 H   0  0  0  0  0  0  0  0  0  0  0  0
   11.8522   -3.7778   24.7959 H   0  0  0  0  0  0  0  0  0  0  0  0
   11.5689   -2.1353   25.3983 H   0  0  0  0  0  0  0  0  0  0  0  0
    9.5343   -4.1899   24.6984 H   0  0  0  0  0  0  0  0  0  0  0  0
   10.7990   -5.5936   27.4477 H   0  0  0  0  0  0  0  0  0  0  0  0
   10.0541   -5.9363   25.8912 H   0  0  0  0  0  0  0  0  0  0  0  0
    8.6538   -6.8463   28.0014 H   0  0  0  0  0  0  0  0  0  0  0  0
    7.7487   -5.7040   27.0038 H   0  0  0  0  0  0  0  0  0  0  0  0
    8.5774   -5.1350   28.4536 H   0  0  0  0  0  0  0  0  0  0  0  0
  1  2  1  0
  2  3  1  0
  3  4  2  0
  3  5  1  0
  5  6  1  0
  6  7  1  0
  7  8  1  0
  8  9  1  0
  9 10  2  0
 10 11  1  0
 11 12  1  0
 12 13  1  0
 13 14  2  0
 14 15  1  0
 15 16  2  0
 16 17  1  0
 17 18  1  0
 17 19  2  0
 19 20  1  0
 16 21  1  0
 15 22  1  0
 14 23  1  0
 12 24  1  0
 12 25  1  0
 11 26  1  0
 26 27  2  0
 26 28  1  0
 28 29  1  0
 29 30  2  0
 30 31  1  0
 31 32  2  0
 32 33  1  0
 33 34  2  0
 34 35  1  0
 35 36  2  0
 36 37  1  0
 37 38  2  0
 37 39  1  0
 36 40  1  0
 35 41  1  0
 34 42  1  0
 32 43  1  0
 30 44  1  0
 28 45  1  0
 28 46  1  0
 10 47  1  0
 47 48  2  0
 48 49  1  0
 49 50  2  0
 49 51  1  0
 48 52  1  0
 47 53  1  0
  8 54  1  0
  8 55  1  0
  7 56  1  0
  7 57  1  0
  6 58  1  0
  6 59  1  0
  5 60  1  6
  2 61  1  0
  2 62  1  0
  1 63  1  0
  1 64  1  0
  1 65  1  0
 50  5  1  0
 50  9  1  0
 19 13  1  0
 38 29  1  0
 38 33  1  0
M  CHG  1   5   1
M  END
>  <cnnaffinities>  (58) 
[6.25156]

>  <score>  (58) 
6.25156

>  <index>  (58) 
94

>  <Smiles>  (58) 
C(C(C(=O)[N@@+]1(C(C(C(c2c(N(C(c3c(c(c(c(Cl)c3[H])[H])[H])[H])([H])[H])C(=O)C(c3c(nc(c4c(c(c(c(c34)[H])[H])[H])[H])[H])[H])([H])[H])c(c(c(c12)[H])[H])[H])([H])[H])([H])[H])([H])[H])[H])([H])[H])([H])([H])[H]

>  <h>  (58) 
<NA>

>  <Training>  (58) 
True

>  <Success>  (58) 
True

>  <enamine_searched>  (58) 
False

>  <enamine_id>  (58) 
nan

$$$$

     RDKit          3D

 37 39  0  0  0  0  0  0  0  0999 V2000
    5.8652   -2.6571   20.8461 O   0  0  0  0  0  0  0  0  0  0  0  0
    6.1823   -1.6995   21.5322 C   0  0  0  0  0  0  0  0  0  0  0  0
    6.9043   -0.4907   20.9143 C   0  0  0  0  0  0  0  0  0  0  0  0
    6.1125    0.0954   19.7646 C   0  0  0  0  0  0  0  0  0  0  0  0
    6.4222   -0.2113   18.4637 C   0  0  0  0  0  0  0  0  0  0  0  0
    5.7580    0.2404   17.3638 N   0  0  0  0  0  0  0  0  0  0  0  0
    4.7366    1.0324   17.5757 C   0  0  0  0  0  0  0  0  0  0  0  0
    4.2855    1.4245   18.8648 C   0  0  0  0  0  0  0  0  0  0  0  0
    3.1625    2.2726   19.0441 C   0  0  0  0  0  0  0  0  0  0  0  0
    2.7492    2.6279   20.2971 C   0  0  0  0  0  0  0  0  0  0  0  0
    3.4425    2.1453   21.4305 C   0  0  0  0  0  0  0  0  0  0  0  0
    4.5322    1.3222   21.2855 C   0  0  0  0  0  0  0  0  0  0  0  0
    4.9881    0.9419   19.9968 C   0  0  0  0  0  0  0  0  0  0  0  0
    5.0452    0.9554   22.1702 H   0  0  0  0  0  0  0  0  0  0  0  0
    3.1048    2.4295   22.4221 H   0  0  0  0  0  0  0  0  0  0  0  0
    1.8909    3.2823   20.4336 H   0  0  0  0  0  0  0  0  0  0  0  0
    2.6433    2.6426   18.1614 H   0  0  0  0  0  0  0  0  0  0  0  0
    4.1991    1.4007   16.6985 H   0  0  0  0  0  0  0  0  0  0  0  0
    7.2659   -0.8661   18.2452 H   0  0  0  0  0  0  0  0  0  0  0  0
    7.8593   -0.8578   20.5169 H   0  0  0  0  0  0  0  0  0  0  0  0
    7.1506    0.2719   21.6649 H   0  0  0  0  0  0  0  0  0  0  0  0
    5.8653   -1.6495   22.8579 N   0  0  0  0  0  0  0  0  0  0  0  0
    5.2087   -2.7729   23.5146 C   0  0  0  0  0  0  0  0  0  0  0  0
    6.1014   -3.9742   23.6874 C   0  0  0  0  0  0  0  0  0  0  0  0
    5.9173   -5.1117   22.9138 C   0  0  0  0  0  0  0  0  0  0  0  0
    6.7890   -6.1792   23.0531 C   0  0  0  0  0  0  0  0  0  0  0  0
    7.8493   -6.1522   23.9433 C   0  0  0  0  0  0  0  0  0  0  0  0
    8.0210   -5.0109   24.7089 C   0  0  0  0  0  0  0  0  0  0  0  0
    9.3389   -4.9512   25.8343 Cl  0  0  0  0  0  0  0  0  0  0  0  0
    7.1612   -3.9285   24.5900 C   0  0  0  0  0  0  0  0  0  0  0  0
    7.3290   -3.0471   25.2001 H   0  0  0  0  0  0  0  0  0  0  0  0
    8.5224   -6.9988   24.0359 H   0  0  0  0  0  0  0  0  0  0  0  0
    6.6199   -7.0648   22.4772 H   0  0  0  0  0  0  0  0  0  0  0  0
    5.1130   -5.1537   22.1817 H   0  0  0  0  0  0  0  0  0  0  0  0
    4.8665   -2.4292   24.4911 H   0  0  0  0  0  0  0  0  0  0  0  0
    4.3185   -3.0395   22.9468 H   0  0  0  0  0  0  0  0  0  0  0  0
    6.1666   -0.8767   23.4199 H   0  0  0  0  0  0  0  0  0  0  0  0
  1  2  2  0
  2  3  1  0
  3  4  1  0
  4  5  2  0
  5  6  1  0
  6  7  2  0
  7  8  1  0
  8  9  2  0
  9 10  1  0
 10 11  2  0
 11 12  1  0
 12 13  2  0
 12 14  1  0
 11 15  1  0
 10 16  1  0
  9 17  1  0
  7 18  1  0
  5 19  1  0
  3 20  1  0
  3 21  1  0
  2 22  1  0
 22 23  1  0
 23 24  1  0
 24 25  2  0
 25 26  1  0
 26 27  2  0
 27 28  1  0
 28 29  1  0
 28 30  2  0
 30 31  1  0
 27 32  1  0
 26 33  1  0
 25 34  1  0
 23 35  1  0
 23 36  1  0
 22 37  1  0
 13  4  1  0
 30 24  1  0
 13  8  1  0
M  END
>  <cnnaffinities>  (59) 
[4.80835]

>  <score>  (59) 
4.80835

>  <index>  (59) 
96

>  <Smiles>  (59) 
O=C(C(c1c(nc(c2c(c(c(c(c12)[H])[H])[H])[H])[H])[H])([H])[H])N(C(c1c(c(c(c(Cl)c1[H])[H])[H])[H])([H])[H])[H]

>  <h>  (59) 
<NA>

>  <Training>  (59) 
True

>  <Success>  (59) 
True

>  <enamine_searched>  (59) 
False

>  <enamine_id>  (59) 
nan

$$$$
