
     RDKit          3D

 63 69  0  0  0  0  0  0  0  0999 V2000
    4.7884   -4.6680   24.7289 O   0  0  0  0  0  0  0  0  0  0  0  0
    5.6129   -3.9036   24.2424 C   0  0  0  0  0  0  0  0  0  0  0  0
    6.1641   -2.7174   24.9777 C   0  0  0  0  0  0  0  0  0  0  0  0
    5.9510   -2.6036   26.3484 C   0  0  0  0  0  0  0  0  0  0  0  0
    6.1898   -1.4095   27.0055 C   0  0  0  0  0  0  0  0  0  0  0  0
    6.6439   -0.3220   26.2646 C   0  0  0  0  0  0  0  0  0  0  0  0
    6.7783    1.2324   27.0426 Cl  0  0  0  0  0  0  0  0  0  0  0  0
    6.9715   -0.4580   24.9289 C   0  0  0  0  0  0  0  0  0  0  0  0
    6.7949   -1.6857   24.2725 C   0  0  0  0  0  0  0  0  0  0  0  0
    7.2468   -1.8756   22.8332 C   0  0  1  0  0  0  0  0  0  0  0  0
    7.3055   -3.3875   22.5451 C   0  0  0  0  0  0  0  0  0  0  0  0
    6.0734   -4.0160   22.9572 N   0  0  0  0  0  0  0  0  0  0  0  0
    5.5517   -5.0401   22.0790 C   0  0  0  0  0  0  0  0  0  0  0  0
    6.2902   -6.3187   22.2677 C   0  0  0  0  0  0  0  0  0  0  0  0
    7.3077   -6.8044   21.6384 N   0  0  0  0  0  0  0  0  0  0  0  0
    7.7363   -7.9026   22.3877 N   0  0  0  0  0  0  0  0  0  0  0  0
    6.9155   -7.9903   23.3781 C   0  0  0  0  0  0  0  0  0  0  0  0
    5.9672   -7.0366   23.3701 O   0  0  0  0  0  0  0  0  0  0  0  0
    6.8908   -8.6846   24.1987 H   0  0  0  0  0  0  0  0  0  0  0  0
    5.5895   -4.6664   21.0501 H   0  0  0  0  0  0  0  0  0  0  0  0
    4.5116   -5.1953   22.3283 H   0  0  0  0  0  0  0  0  0  0  0  0
    8.1672   -3.8787   23.0037 H   0  0  0  0  0  0  0  0  0  0  0  0
    7.4152   -3.5374   21.4775 H   0  0  0  0  0  0  0  0  0  0  0  0
    6.2243   -1.3222   21.8136 C   0  0  0  0  0  0  0  0  0  0  0  0
    5.0707   -1.6626   21.6939 O   0  0  0  0  0  0  0  0  0  0  0  0
    6.8570   -0.4304   20.9660 N   0  0  0  0  0  0  0  0  0  0  0  0
    6.1607    0.1085   19.8587 C   0  0  0  0  0  0  0  0  0  0  0  0
    6.5438   -0.1729   18.5712 C   0  0  0  0  0  0  0  0  0  0  0  0
    5.8771    0.2341   17.4659 N   0  0  0  0  0  0  0  0  0  0  0  0
    4.8017    0.9652   17.6326 C   0  0  0  0  0  0  0  0  0  0  0  0
    4.3125    1.3669   18.9072 C   0  0  0  0  0  0  0  0  0  0  0  0
    3.1653    2.1950   19.0450 C   0  0  0  0  0  0  0  0  0  0  0  0
    2.7455    2.5976   20.2841 C   0  0  0  0  0  0  0  0  0  0  0  0
    3.4545    2.1971   21.4371 C   0  0  0  0  0  0  0  0  0  0  0  0
    4.5637    1.3977   21.3295 C   0  0  0  0  0  0  0  0  0  0  0  0
    5.0137    0.9463   20.0575 C   0  0  0  0  0  0  0  0  0  0  0  0
    5.1025    1.0959   22.2201 H   0  0  0  0  0  0  0  0  0  0  0  0
    3.1181    2.5281   22.4154 H   0  0  0  0  0  0  0  0  0  0  0  0
    1.8792    3.2459   20.3852 H   0  0  0  0  0  0  0  0  0  0  0  0
    2.6448    2.5223   18.1482 H   0  0  0  0  0  0  0  0  0  0  0  0
    4.2684    1.2759   16.7322 H   0  0  0  0  0  0  0  0  0  0  0  0
    7.4258   -0.7838   18.3865 H   0  0  0  0  0  0  0  0  0  0  0  0
    8.3077   -0.5560   21.0404 C   0  0  0  0  0  0  0  0  0  0  0  0
    8.5543   -1.1141   22.4548 C   0  0  2  0  0  0  0  0  0  0  0  0
    9.8887   -1.8659   22.5807 C   0  0  0  0  0  0  0  0  0  0  0  0
    9.9943   -2.5286   23.8737 N   0  0  0  0  0  0  0  0  0  0  0  0
   11.1486   -2.9861   24.4075 C   0  0  0  0  0  0  0  0  0  0  0  0
   12.3312   -2.5092   23.9676 N   0  0  0  0  0  0  0  0  0  0  0  0
   13.3865   -2.9581   24.6459 C   0  0  0  0  0  0  0  0  0  0  0  0
   13.3753   -3.8106   25.6800 N   0  0  0  0  0  0  0  0  0  0  0  0
   12.1407   -4.2457   25.9918 C   0  0  0  0  0  0  0  0  0  0  0  0
   11.0131   -3.8974   25.4027 N   0  0  0  0  0  0  0  0  0  0  0  0
   12.0480   -4.9493   26.8266 H   0  0  0  0  0  0  0  0  0  0  0  0
   14.3648   -2.5592   24.3546 H   0  0  0  0  0  0  0  0  0  0  0  0
    9.1519   -2.8891   24.3207 H   0  0  0  0  0  0  0  0  0  0  0  0
   10.7413   -1.1796   22.5065 H   0  0  0  0  0  0  0  0  0  0  0  0
   10.0137   -2.5864   21.7607 H   0  0  0  0  0  0  0  0  0  0  0  0
    8.6318   -0.2668   23.1356 H   0  0  0  0  0  0  0  0  0  0  0  0
    8.6882   -1.2579   20.2813 H   0  0  0  0  0  0  0  0  0  0  0  0
    8.7757    0.4222   20.8933 H   0  0  0  0  0  0  0  0  0  0  0  0
    7.3634    0.4113   24.4204 H   0  0  0  0  0  0  0  0  0  0  0  0
    6.0139   -1.3120   28.0699 H   0  0  0  0  0  0  0  0  0  0  0  0
    5.5784   -3.4758   26.8684 H   0  0  0  0  0  0  0  0  0  0  0  0
  1  2  2  0
  2  3  1  0
  3  4  2  0
  4  5  1  0
  5  6  2  0
  6  7  1  0
  6  8  1  0
  8  9  2  0
  9 10  1  0
 10 11  1  6
 11 12  1  0
 12 13  1  0
 13 14  1  0
 14 15  2  0
 15 16  1  0
 16 17  2  0
 17 18  1  0
 17 19  1  0
 13 20  1  0
 13 21  1  0
 11 22  1  0
 11 23  1  0
 10 24  1  0
 24 25  2  0
 24 26  1  0
 26 27  1  0
 27 28  2  0
 28 29  1  0
 29 30  2  0
 30 31  1  0
 31 32  2  0
 32 33  1  0
 33 34  2  0
 34 35  1  0
 35 36  2  0
 35 37  1  0
 34 38  1  0
 33 39  1  0
 32 40  1  0
 30 41  1  0
 28 42  1  0
 26 43  1  0
 43 44  1  0
 44 45  1  0
 45 46  1  0
 46 47  1  0
 47 48  2  0
 48 49  1  0
 49 50  2  0
 50 51  1  0
 51 52  2  0
 51 53  1  0
 49 54  1  0
 46 55  1  0
 45 56  1  0
 45 57  1  0
 44 58  1  1
 43 59  1  0
 43 60  1  0
  8 61  1  0
  5 62  1  0
  4 63  1  0
 12  2  1  0
 18 14  1  0
 36 27  1  0
 52 47  1  0
  9  3  1  0
 44 10  1  0
 36 31  1  0
M  END
>  <cnnaffinities>  (1) 
[7.34131]

>  <score>  (1) 
7.34131

>  <index>  (1) 
0

>  <Smiles>  (1) 
O=C1c2c(c(c(Cl)c(c2[C@@]2(C(N1C(c1nnc(o1)[H])([H])[H])([H])[H])C(=O)N(c1c(nc(c3c(c(c(c(c13)[H])[H])[H])[H])[H])[H])C([C@@]2(C(N(c1nc(nc(n1)[H])[H])[H])([H])[H])[H])([H])[H])[H])[H])[H]

>  <h>  (1) 
<NA>

>  <Training>  (1) 
True

>  <Success>  (1) 
True

>  <enamine_searched>  (1) 
False

>  <enamine_id>  (1) 
nan

$$$$

     RDKit          3D

 51 54  0  0  0  0  0  0  0  0999 V2000
   12.6117   -0.6175   24.6811 C   0  0  0  0  0  0  0  0  0  0  0  0
   12.3380   -1.6319   23.7500 O   0  0  0  0  0  0  0  0  0  0  0  0
   11.0378   -1.8616   23.4402 C   0  0  0  0  0  0  0  0  0  0  0  0
   10.8235   -2.8831   22.5146 C   0  0  0  0  0  0  0  0  0  0  0  0
    9.5430   -3.1564   22.0657 C   0  0  0  0  0  0  0  0  0  0  0  0
    8.4538   -2.4199   22.5356 C   0  0  0  0  0  0  0  0  0  0  0  0
    7.1380   -2.7146   22.0520 N   0  0  0  0  0  0  0  0  0  0  0  0
    6.5489   -4.0057   22.4257 C   0  0  0  0  0  0  0  0  0  0  0  0
    5.9788   -4.0082   23.8371 C   0  0  0  0  0  0  0  0  0  0  0  0
    6.8169   -4.2128   24.9331 C   0  0  0  0  0  0  0  0  0  0  0  0
    6.3153   -4.1540   26.2301 C   0  0  0  0  0  0  0  0  0  0  0  0
    4.9663   -3.8941   26.4495 C   0  0  0  0  0  0  0  0  0  0  0  0
    4.1342   -3.7056   25.3535 C   0  0  0  0  0  0  0  0  0  0  0  0
    2.4444   -3.3649   25.6145 Cl  0  0  0  0  0  0  0  0  0  0  0  0
    4.6221   -3.7612   24.0541 C   0  0  0  0  0  0  0  0  0  0  0  0
    3.9481   -3.5888   23.2183 H   0  0  0  0  0  0  0  0  0  0  0  0
    4.5612   -3.8277   27.4556 H   0  0  0  0  0  0  0  0  0  0  0  0
    6.9828   -4.2965   27.0772 H   0  0  0  0  0  0  0  0  0  0  0  0
    7.8763   -4.4034   24.7675 H   0  0  0  0  0  0  0  0  0  0  0  0
    5.7603   -4.2280   21.7011 H   0  0  0  0  0  0  0  0  0  0  0  0
    7.3312   -4.7685   22.3390 H   0  0  0  0  0  0  0  0  0  0  0  0
    6.2948   -1.7892   21.4686 C   0  0  0  0  0  0  0  0  0  0  0  0
    5.0949   -1.9996   21.3811 O   0  0  0  0  0  0  0  0  0  0  0  0
    6.9302   -0.5162   20.8875 C   0  0  0  0  0  0  0  0  0  0  0  0
    6.1174    0.0809   19.7681 C   0  0  0  0  0  0  0  0  0  0  0  0
    6.4246   -0.2161   18.4661 C   0  0  0  0  0  0  0  0  0  0  0  0
    5.7566    0.2356   17.3757 N   0  0  0  0  0  0  0  0  0  0  0  0
    4.7327    1.0240   17.5850 C   0  0  0  0  0  0  0  0  0  0  0  0
    4.2824    1.4084   18.8771 C   0  0  0  0  0  0  0  0  0  0  0  0
    3.1596    2.2566   19.0496 C   0  0  0  0  0  0  0  0  0  0  0  0
    2.7448    2.6124   20.3036 C   0  0  0  0  0  0  0  0  0  0  0  0
    3.4338    2.1240   21.4370 C   0  0  0  0  0  0  0  0  0  0  0  0
    4.5216    1.2981   21.2936 C   0  0  0  0  0  0  0  0  0  0  0  0
    4.9843    0.9219   20.0033 C   0  0  0  0  0  0  0  0  0  0  0  0
    5.0282    0.9122   22.1722 H   0  0  0  0  0  0  0  0  0  0  0  0
    3.0978    2.4130   22.4288 H   0  0  0  0  0  0  0  0  0  0  0  0
    1.8932    3.2748   20.4297 H   0  0  0  0  0  0  0  0  0  0  0  0
    2.6575    2.6322   18.1612 H   0  0  0  0  0  0  0  0  0  0  0  0
    4.2043    1.3950   16.7063 H   0  0  0  0  0  0  0  0  0  0  0  0
    7.2718   -0.8648   18.2383 H   0  0  0  0  0  0  0  0  0  0  0  0
    7.0728    0.2085   21.7009 H   0  0  0  0  0  0  0  0  0  0  0  0
    7.9375   -0.7802   20.5442 H   0  0  0  0  0  0  0  0  0  0  0  0
    8.6689   -1.4398   23.4994 C   0  0  0  0  0  0  0  0  0  0  0  0
    9.9538   -1.1587   23.9608 C   0  0  0  0  0  0  0  0  0  0  0  0
   10.0871   -0.3791   24.7018 H   0  0  0  0  0  0  0  0  0  0  0  0
    7.8216   -0.8958   23.9106 H   0  0  0  0  0  0  0  0  0  0  0  0
    9.3795   -3.9271   21.3155 H   0  0  0  0  0  0  0  0  0  0  0  0
   11.6935   -3.4280   22.1532 H   0  0  0  0  0  0  0  0  0  0  0  0
   12.4608    0.3706   24.2344 H   0  0  0  0  0  0  0  0  0  0  0  0
   13.6591   -0.7491   24.9541 H   0  0  0  0  0  0  0  0  0  0  0  0
   11.9608   -0.7227   25.5528 H   0  0  0  0  0  0  0  0  0  0  0  0
  1  2  1  0
  2  3  1  0
  3  4  2  0
  4  5  1  0
  5  6  2  0
  6  7  1  0
  7  8  1  0
  8  9  1  0
  9 10  2  0
 10 11  1  0
 11 12  2  0
 12 13  1  0
 13 14  1  0
 13 15  2  0
 15 16  1  0
 12 17  1  0
 11 18  1  0
 10 19  1  0
  8 20  1  0
  8 21  1  0
  7 22  1  0
 22 23  2  0
 22 24  1  0
 24 25  1  0
 25 26  2  0
 26 27  1  0
 27 28  2  0
 28 29  1  0
 29 30  2  0
 30 31  1  0
 31 32  2  0
 32 33  1  0
 33 34  2  0
 33 35  1  0
 32 36  1  0
 31 37  1  0
 30 38  1  0
 28 39  1  0
 26 40  1  0
 24 41  1  0
 24 42  1  0
  6 43  1  0
 43 44  2  0
 44 45  1  0
 43 46  1  0
  5 47  1  0
  4 48  1  0
  1 49  1  0
  1 50  1  0
  1 51  1  0
 44  3  1  0
 15  9  1  0
 34 25  1  0
 34 29  1  0
M  END
>  <cnnaffinities>  (2) 
[5.97478]

>  <score>  (2) 
5.97478

>  <index>  (2) 
1

>  <Smiles>  (2) 
C(Oc1c(c(c(N(C(c2c(c(c(c(Cl)c2[H])[H])[H])[H])([H])[H])C(=O)C(c2c(nc(c3c(c(c(c(c23)[H])[H])[H])[H])[H])[H])([H])[H])c(c1[H])[H])[H])[H])([H])([H])[H]

>  <h>  (2) 
<NA>

>  <Training>  (2) 
True

>  <Success>  (2) 
True

>  <enamine_searched>  (2) 
False

>  <enamine_id>  (2) 
nan

$$$$

     RDKit          3D

 56 60  0  0  0  0  0  0  0  0999 V2000
    6.7285    4.4703   21.3300 C   0  0  0  0  0  0  0  0  0  0  0  0
    7.5988    4.0621   22.4173 N   0  0  0  0  0  0  0  0  0  0  0  0
    7.0420    3.3781   23.4449 C   0  0  0  0  0  0  0  0  0  0  0  0
    5.8322    3.2319   23.5582 O   0  0  0  0  0  0  0  0  0  0  0  0
    7.9877    2.8079   24.5136 C   0  0  0  0  0  0  0  0  0  0  0  0
    8.7333    1.6418   24.0868 N   0  0  0  0  0  0  0  0  0  0  0  0
    8.0180    0.3834   23.9490 C   0  0  0  0  0  0  0  0  0  0  0  0
    8.4386   -0.3680   22.6700 C   0  0  2  0  0  0  0  0  0  0  0  0
    7.9213    0.3585   21.4021 C   0  0  0  0  0  0  0  0  0  0  0  0
    8.3187    1.4129   20.9518 O   0  0  0  0  0  0  0  0  0  0  0  0
    6.9300   -0.4018   20.8303 N   0  0  0  0  0  0  0  0  0  0  0  0
    6.1445    0.1116   19.7630 C   0  0  0  0  0  0  0  0  0  0  0  0
    6.4545   -0.2108   18.4688 C   0  0  0  0  0  0  0  0  0  0  0  0
    5.7663    0.2262   17.3863 N   0  0  0  0  0  0  0  0  0  0  0  0
    4.7431    1.0157   17.5961 C   0  0  0  0  0  0  0  0  0  0  0  0
    4.2925    1.4163   18.8859 C   0  0  0  0  0  0  0  0  0  0  0  0
    3.1668    2.2671   19.0683 C   0  0  0  0  0  0  0  0  0  0  0  0
    2.7607    2.6316   20.3218 C   0  0  0  0  0  0  0  0  0  0  0  0
    3.4578    2.1545   21.4549 C   0  0  0  0  0  0  0  0  0  0  0  0
    4.5486    1.3321   21.3047 C   0  0  0  0  0  0  0  0  0  0  0  0
    5.0090    0.9472   20.0147 C   0  0  0  0  0  0  0  0  0  0  0  0
    5.0774    0.9769   22.1852 H   0  0  0  0  0  0  0  0  0  0  0  0
    3.1521    2.4567   22.4508 H   0  0  0  0  0  0  0  0  0  0  0  0
    1.9142    3.3008   20.4467 H   0  0  0  0  0  0  0  0  0  0  0  0
    2.6614    2.6405   18.1803 H   0  0  0  0  0  0  0  0  0  0  0  0
    4.2146    1.3810   16.7146 H   0  0  0  0  0  0  0  0  0  0  0  0
    7.2982   -0.8628   18.2556 H   0  0  0  0  0  0  0  0  0  0  0  0
    6.6038   -1.6161   21.5478 C   0  0  0  0  0  0  0  0  0  0  0  0
    7.7740   -1.7722   22.5339 C   0  0  2  0  0  0  0  0  0  0  0  0
    7.3286   -2.3898   23.8407 N   0  0  0  0  0  4  0  0  0  0  0  0
    6.5989   -1.7999   24.2755 H   0  0  0  0  0  0  0  0  0  0  0  0
    8.1244   -2.4827   24.4930 H   0  0  0  0  0  0  0  0  0  0  0  0
    6.9407   -3.3326   23.6685 H   0  0  0  0  0  0  0  0  0  0  0  0
    8.5143   -2.4482   22.1186 H   0  0  0  0  0  0  0  0  0  0  0  0
    5.6560   -1.5188   22.0970 H   0  0  0  0  0  0  0  0  0  0  0  0
    6.5050   -2.4514   20.8475 H   0  0  0  0  0  0  0  0  0  0  0  0
    9.9411   -0.3952   22.6258 C   0  0  0  0  0  0  0  0  0  0  0  0
   10.5690   -1.2554   21.7287 C   0  0  0  0  0  0  0  0  0  0  0  0
   11.9405   -1.2562   21.6146 C   0  0  0  0  0  0  0  0  0  0  0  0
   12.5779   -2.2970   20.3634 Cl  0  0  0  0  0  0  0  0  0  0  0  0
   12.7344   -0.4256   22.4162 C   0  0  0  0  0  0  0  0  0  0  0  0
   12.1075    0.4889   23.2285 C   0  0  0  0  0  0  0  0  0  0  0  0
   10.7226    0.5464   23.2970 C   0  0  0  0  0  0  0  0  0  0  0  0
   10.0944    1.7167   23.9709 C   0  0  0  0  0  0  0  0  0  0  0  0
   10.7474    2.6873   24.3447 O   0  0  0  0  0  0  0  0  0  0  0  0
   12.6791    1.2228   23.7784 H   0  0  0  0  0  0  0  0  0  0  0  0
   13.8180   -0.4036   22.3809 H   0  0  0  0  0  0  0  0  0  0  0  0
   10.0164   -1.9023   21.0590 H   0  0  0  0  0  0  0  0  0  0  0  0
    8.1942   -0.2657   24.8193 H   0  0  0  0  0  0  0  0  0  0  0  0
    6.9588    0.6453   23.8778 H   0  0  0  0  0  0  0  0  0  0  0  0
    7.3392    2.5561   25.3637 H   0  0  0  0  0  0  0  0  0  0  0  0
    8.7480    3.5291   24.8250 H   0  0  0  0  0  0  0  0  0  0  0  0
    8.5992    4.0148   22.2918 H   0  0  0  0  0  0  0  0  0  0  0  0
    5.9728    5.1673   21.7038 H   0  0  0  0  0  0  0  0  0  0  0  0
    7.3080    4.9679   20.5591 H   0  0  0  0  0  0  0  0  0  0  0  0
    6.2054    3.5964   20.9207 H   0  0  0  0  0  0  0  0  0  0  0  0
  1  2  1  0
  2  3  1  0
  3  4  2  0
  3  5  1  0
  5  6  1  0
  6  7  1  0
  8  7  1  1
  8  9  1  0
  9 10  2  0
  9 11  1  0
 11 12  1  0
 12 13  2  0
 13 14  1  0
 14 15  2  0
 15 16  1  0
 16 17  2  0
 17 18  1  0
 18 19  2  0
 19 20  1  0
 20 21  2  0
 20 22  1  0
 19 23  1  0
 18 24  1  0
 17 25  1  0
 15 26  1  0
 13 27  1  0
 11 28  1  0
 28 29  1  0
 29 30  1  0
 30 31  1  0
 30 32  1  0
 30 33  1  0
 29 34  1  6
 28 35  1  0
 28 36  1  0
  8 37  1  0
 37 38  2  0
 38 39  1  0
 39 40  1  0
 39 41  2  0
 41 42  1  0
 42 43  2  0
 43 44  1  0
 44 45  2  0
 42 46  1  0
 41 47  1  0
 38 48  1  0
  7 49  1  0
  7 50  1  0
  5 51  1  0
  5 52  1  0
  2 53  1  0
  1 54  1  0
  1 55  1  0
  1 56  1  0
 44  6  1  0
 29  8  1  0
 43 37  1  0
 21 12  1  0
 21 16  1  0
M  CHG  1  30   1
M  END
>  <cnnaffinities>  (3) 
[5.98011]

>  <score>  (3) 
5.98011

>  <index>  (3) 
2

>  <Smiles>  (3) 
C(N(C(=O)C(N1C([C@@]2(C(=O)N(c3c(nc(c4c(c(c(c(c34)[H])[H])[H])[H])[H])[H])C([C@@]2([N+]([H])([H])[H])[H])([H])[H])c2c(c(Cl)c(c(c2C1=O)[H])[H])[H])([H])[H])([H])[H])[H])([H])([H])[H]

>  <h>  (3) 
<NA>

>  <Training>  (3) 
True

>  <Success>  (3) 
True

>  <enamine_searched>  (3) 
False

>  <enamine_id>  (3) 
nan

$$$$

     RDKit          3D

 67 73  0  0  0  0  0  0  0  0999 V2000
    8.9849    2.9225   24.9887 O   0  0  0  0  0  0  0  0  0  0  0  0
    8.7605    1.8088   24.5384 C   0  0  0  0  0  0  0  0  0  0  0  0
    9.8210    0.9561   23.8584 C   0  0  0  0  0  0  0  0  0  0  0  0
   11.1906    1.2357   23.9755 C   0  0  0  0  0  0  0  0  0  0  0  0
   12.1342    0.5721   23.1933 C   0  0  0  0  0  0  0  0  0  0  0  0
   11.6521   -0.2862   22.1975 C   0  0  0  0  0  0  0  0  0  0  0  0
   12.6163   -1.0695   20.9892 Cl  0  0  0  0  0  0  0  0  0  0  0  0
   10.3120   -0.5685   22.0799 C   0  0  0  0  0  0  0  0  0  0  0  0
    9.4054   -0.0680   23.0063 C   0  0  0  0  0  0  0  0  0  0  0  0
    7.9587   -0.4595   22.8784 C   0  0  1  0  0  0  0  0  0  0  0  0
    7.2356   -0.0942   24.1881 C   0  0  0  0  0  0  0  0  0  0  0  0
    7.4950    1.2792   24.5609 N   0  0  0  0  0  0  0  0  0  0  0  0
    6.3409    2.0954   24.9141 C   0  0  0  0  0  0  0  0  0  0  0  0
    5.6672    1.6153   26.1865 C   0  0  0  0  0  0  0  0  0  0  0  0
    6.2368    1.8361   27.4231 C   0  0  0  0  0  0  0  0  0  0  0  0
    5.5928    1.3005   28.5378 C   0  0  0  0  0  0  0  0  0  0  0  0
    4.4651    0.5961   28.4654 N   0  0  0  0  0  0  0  0  0  0  0  0
    3.9182    0.3636   27.2805 N   0  0  0  0  0  0  0  0  0  0  0  0
    4.4906    0.8526   26.1810 C   0  0  0  0  0  0  0  0  0  0  0  0
    3.9765    0.6045   25.2494 H   0  0  0  0  0  0  0  0  0  0  0  0
    5.9911    1.4460   29.5448 H   0  0  0  0  0  0  0  0  0  0  0  0
    7.1693    2.3967   27.5218 H   0  0  0  0  0  0  0  0  0  0  0  0
    6.6928    3.1234   25.0301 H   0  0  0  0  0  0  0  0  0  0  0  0
    5.6141    2.0700   24.0845 H   0  0  0  0  0  0  0  0  0  0  0  0
    6.1593   -0.2239   24.0781 H   0  0  0  0  0  0  0  0  0  0  0  0
    7.5476   -0.7556   25.0049 H   0  0  0  0  0  0  0  0  0  0  0  0
    7.4162    0.3706   21.7101 C   0  0  0  0  0  0  0  0  0  0  0  0
    7.5576    1.5640   21.5473 O   0  0  0  0  0  0  0  0  0  0  0  0
    6.7644   -0.4735   20.8506 N   0  0  0  0  0  0  0  0  0  0  0  0
    6.0485    0.0522   19.7654 C   0  0  0  0  0  0  0  0  0  0  0  0
    6.4060   -0.2566   18.4806 C   0  0  0  0  0  0  0  0  0  0  0  0
    5.7569    0.2104   17.3905 N   0  0  0  0  0  0  0  0  0  0  0  0
    4.7322    1.0062   17.5849 C   0  0  0  0  0  0  0  0  0  0  0  0
    4.2617    1.3940   18.8722 C   0  0  0  0  0  0  0  0  0  0  0  0
    3.1420    2.2463   19.0504 C   0  0  0  0  0  0  0  0  0  0  0  0
    2.7159    2.5889   20.3046 C   0  0  0  0  0  0  0  0  0  0  0  0
    3.3792    2.0880   21.4482 C   0  0  0  0  0  0  0  0  0  0  0  0
    4.4594    1.2602   21.3026 C   0  0  0  0  0  0  0  0  0  0  0  0
    4.9356    0.9084   20.0058 C   0  0  0  0  0  0  0  0  0  0  0  0
    4.9747    0.8684   22.1739 H   0  0  0  0  0  0  0  0  0  0  0  0
    3.0327    2.3694   22.4386 H   0  0  0  0  0  0  0  0  0  0  0  0
    1.8670    3.2541   20.4281 H   0  0  0  0  0  0  0  0  0  0  0  0
    2.6502    2.6311   18.1621 H   0  0  0  0  0  0  0  0  0  0  0  0
    4.2116    1.3808   16.7018 H   0  0  0  0  0  0  0  0  0  0  0  0
    7.2671   -0.8971   18.2876 H   0  0  0  0  0  0  0  0  0  0  0  0
    6.6437   -1.8405   21.3164 C   0  0  0  0  0  0  0  0  0  0  0  0
    7.7419   -1.9109   22.3851 C   0  0  2  0  0  0  0  0  0  0  0  0
    7.5913   -2.9792   23.4576 C   0  0  0  0  0  0  0  0  0  0  0  0
    7.6791   -4.2830   22.8429 N   0  0  0  0  0  0  0  0  0  0  0  0
    7.2968   -5.4330   23.4451 C   0  0  0  0  0  0  0  0  0  0  0  0
    6.6916   -5.4284   24.7159 C   0  0  0  0  0  0  0  0  0  0  0  0
    6.2578   -6.6447   25.1871 C   0  0  0  0  0  0  0  0  0  0  0  0
    6.4292   -7.8001   24.5287 N   0  0  0  0  0  0  0  0  0  0  0  0
    7.0441   -7.6836   23.3552 C   0  0  0  0  0  0  0  0  0  0  0  0
    7.4946   -6.5774   22.7708 N   0  0  0  0  0  0  0  0  0  0  0  0
    7.1698   -8.6068   22.7854 H   0  0  0  0  0  0  0  0  0  0  0  0
    5.7390   -6.7035   26.1438 H   0  0  0  0  0  0  0  0  0  0  0  0
    6.5802   -4.5122   25.2882 H   0  0  0  0  0  0  0  0  0  0  0  0
    8.0283   -4.3652   21.8996 H   0  0  0  0  0  0  0  0  0  0  0  0
    8.3745   -2.8372   24.2204 H   0  0  0  0  0  0  0  0  0  0  0  0
    6.6277   -2.8618   23.9720 H   0  0  0  0  0  0  0  0  0  0  0  0
    8.6548   -2.1622   21.8435 H   0  0  0  0  0  0  0  0  0  0  0  0
    5.6324   -2.0610   21.6916 H   0  0  0  0  0  0  0  0  0  0  0  0
    6.8290   -2.5077   20.4785 H   0  0  0  0  0  0  0  0  0  0  0  0
   10.0073   -1.1462   21.2142 H   0  0  0  0  0  0  0  0  0  0  0  0
   13.2012    0.7507   23.3223 H   0  0  0  0  0  0  0  0  0  0  0  0
   11.4829    2.0097   24.6757 H   0  0  0  0  0  0  0  0  0  0  0  0
  1  2  2  0
  2  3  1  0
  3  4  2  0
  4  5  1  0
  5  6  2  0
  6  7  1  0
  6  8  1  0
  8  9  2  0
  9 10  1  0
 10 11  1  1
 11 12  1  0
 12 13  1  0
 13 14  1  0
 14 15  2  0
 15 16  1  0
 16 17  2  0
 17 18  1  0
 18 19  2  0
 19 20  1  0
 16 21  1  0
 15 22  1  0
 13 23  1  0
 13 24  1  0
 11 25  1  0
 11 26  1  0
 10 27  1  0
 27 28  2  0
 27 29  1  0
 29 30  1  0
 30 31  2  0
 31 32  1  0
 32 33  2  0
 33 34  1  0
 34 35  2  0
 35 36  1  0
 36 37  2  0
 37 38  1  0
 38 39  2  0
 38 40  1  0
 37 41  1  0
 36 42  1  0
 35 43  1  0
 33 44  1  0
 31 45  1  0
 29 46  1  0
 46 47  1  0
 47 48  1  0
 48 49  1  0
 49 50  1  0
 50 51  2  0
 51 52  1  0
 52 53  2  0
 53 54  1  0
 54 55  2  0
 54 56  1  0
 52 57  1  0
 51 58  1  0
 49 59  1  0
 48 60  1  0
 48 61  1  0
 47 62  1  6
 46 63  1  0
 46 64  1  0
  8 65  1  0
  5 66  1  0
  4 67  1  0
 12  2  1  0
 19 14  1  0
 39 30  1  0
 55 50  1  0
  9  3  1  0
 47 10  1  0
 39 34  1  0
M  END
>  <cnnaffinities>  (4) 
[6.23746, 6.29267, 6.45365]

>  <score>  (4) 
6.23746

>  <index>  (4) 
3

>  <Smiles>  (4) 
O=C1c2c(c(c(Cl)c(c2[C@@]2(C(N1C(c1c(c(nnc1[H])[H])[H])([H])[H])([H])[H])C(=O)N(c1c(nc(c3c(c(c(c(c13)[H])[H])[H])[H])[H])[H])C([C@@]2(C(N(c1c(c(nc(n1)[H])[H])[H])[H])([H])[H])[H])([H])[H])[H])[H])[H]

>  <h>  (4) 
<NA>

>  <Training>  (4) 
True

>  <Success>  (4) 
True

>  <enamine_searched>  (4) 
False

>  <enamine_id>  (4) 
nan

$$$$

     RDKit          3D

 41 44  0  0  0  0  0  0  0  0999 V2000
    9.0707    2.1838   23.9936 C   0  0  0  0  0  0  0  0  0  0  0  0
    9.7225    1.2468   22.9768 C   0  0  1  0  0  0  0  0  0  0  0  0
   10.9810    0.6435   23.5297 C   0  0  0  0  0  0  0  0  0  0  0  0
   12.2968    1.2049   23.5608 C   0  0  0  0  0  0  0  0  0  0  0  0
   13.2135    0.3432   24.0768 C   0  0  0  0  0  0  0  0  0  0  0  0
   12.4932   -1.1256   24.5889 S   0  0  0  0  0  0  0  0  0  0  0  0
   10.9274   -0.5869   24.1068 C   0  0  0  0  0  0  0  0  0  0  0  0
    9.6447   -1.3485   24.2587 C   0  0  0  0  0  0  0  0  0  0  0  0
    8.7918   -1.1831   22.9978 C   0  0  0  0  0  0  0  0  0  0  0  0
    8.7793    0.2030   22.5079 N   0  0  0  0  0  0  0  0  0  0  0  0
    7.9447    0.5913   21.4869 C   0  0  0  0  0  0  0  0  0  0  0  0
    7.9783    1.7225   21.0252 O   0  0  0  0  0  0  0  0  0  0  0  0
    6.9713   -0.4443   20.9199 C   0  0  0  0  0  0  0  0  0  0  0  0
    6.1323    0.0843   19.7871 C   0  0  0  0  0  0  0  0  0  0  0  0
    6.4473   -0.2095   18.4834 C   0  0  0  0  0  0  0  0  0  0  0  0
    5.7785    0.2320   17.3867 N   0  0  0  0  0  0  0  0  0  0  0  0
    4.7478    1.0159   17.5949 C   0  0  0  0  0  0  0  0  0  0  0  0
    4.3007    1.4082   18.8865 C   0  0  0  0  0  0  0  0  0  0  0  0
    3.1745    2.2554   19.0533 C   0  0  0  0  0  0  0  0  0  0  0  0
    2.7739    2.6309   20.3097 C   0  0  0  0  0  0  0  0  0  0  0  0
    3.4726    2.1668   21.4439 C   0  0  0  0  0  0  0  0  0  0  0  0
    4.5647    1.3400   21.3055 C   0  0  0  0  0  0  0  0  0  0  0  0
    5.0113    0.9404   20.0156 C   0  0  0  0  0  0  0  0  0  0  0  0
    5.1042    1.0007   22.1822 H   0  0  0  0  0  0  0  0  0  0  0  0
    3.1461    2.4706   22.4353 H   0  0  0  0  0  0  0  0  0  0  0  0
    1.9233    3.2956   20.4331 H   0  0  0  0  0  0  0  0  0  0  0  0
    2.6606    2.6173   18.1649 H   0  0  0  0  0  0  0  0  0  0  0  0
    4.2101    1.3828   16.7193 H   0  0  0  0  0  0  0  0  0  0  0  0
    7.2922   -0.8621   18.2654 H   0  0  0  0  0  0  0  0  0  0  0  0
    6.3270   -0.8198   21.7230 H   0  0  0  0  0  0  0  0  0  0  0  0
    7.5548   -1.2984   20.5588 H   0  0  0  0  0  0  0  0  0  0  0  0
    9.1946   -1.8596   22.2279 H   0  0  0  0  0  0  0  0  0  0  0  0
    7.7642   -1.5163   23.2133 H   0  0  0  0  0  0  0  0  0  0  0  0
    9.8360   -2.4125   24.4457 H   0  0  0  0  0  0  0  0  0  0  0  0
    9.0899   -0.9576   25.1268 H   0  0  0  0  0  0  0  0  0  0  0  0
   14.2786    0.4674   24.1691 H   0  0  0  0  0  0  0  0  0  0  0  0
   12.5397    2.2033   23.2097 H   0  0  0  0  0  0  0  0  0  0  0  0
    9.9693    1.8240   22.0756 H   0  0  0  0  0  0  0  0  0  0  0  0
    8.7556    1.6183   24.8759 H   0  0  0  0  0  0  0  0  0  0  0  0
    9.8150    2.9255   24.2954 H   0  0  0  0  0  0  0  0  0  0  0  0
    8.2053    2.6938   23.5671 H   0  0  0  0  0  0  0  0  0  0  0  0
  1  2  1  0
  2  3  1  0
  3  4  1  0
  4  5  2  0
  5  6  1  0
  6  7  1  0
  7  8  1  0
  8  9  1  0
  9 10  1  0
 10 11  1  0
 11 12  2  0
 11 13  1  0
 13 14  1  0
 14 15  2  0
 15 16  1  0
 16 17  2  0
 17 18  1  0
 18 19  2  0
 19 20  1  0
 20 21  2  0
 21 22  1  0
 22 23  2  0
 22 24  1  0
 21 25  1  0
 20 26  1  0
 19 27  1  0
 17 28  1  0
 15 29  1  0
 13 30  1  0
 13 31  1  0
  9 32  1  0
  9 33  1  0
  8 34  1  0
  8 35  1  0
  5 36  1  0
  4 37  1  0
  2 38  1  6
  1 39  1  0
  1 40  1  0
  1 41  1  0
 10  2  1  0
 23 14  1  0
  7  3  2  0
 23 18  1  0
M  END
>  <cnnaffinities>  (5) 
[5.98529, 5.34017]

>  <score>  (5) 
5.98529

>  <index>  (5) 
4

>  <Smiles>  (5) 
C([C@]1(c2c(c(sc2C(C(N1C(=O)C(c1c(nc(c2c(c(c(c(c12)[H])[H])[H])[H])[H])[H])([H])[H])([H])[H])([H])[H])[H])[H])[H])([H])([H])[H]

>  <h>  (5) 
<NA>

>  <Training>  (5) 
True

>  <Success>  (5) 
True

>  <enamine_searched>  (5) 
False

>  <enamine_id>  (5) 
nan

$$$$

     RDKit          3D

 50 54  0  0  0  0  0  0  0  0999 V2000
    9.7433   -1.9723   21.8255 C   0  0  0  0  0  0  0  0  0  0  0  0
    8.6632   -0.9844   22.3186 C   0  0  1  0  0  0  0  0  0  0  0  0
    8.2146   -0.0731   21.1509 C   0  0  0  0  0  0  0  0  0  0  0  0
    6.8646   -0.4948   20.8457 N   0  0  0  0  0  0  0  0  0  0  0  0
    6.1013    0.0540   19.7787 C   0  0  0  0  0  0  0  0  0  0  0  0
    6.4387   -0.2227   18.4790 C   0  0  0  0  0  0  0  0  0  0  0  0
    5.7736    0.2443   17.3962 N   0  0  0  0  0  0  0  0  0  0  0  0
    4.7420    1.0232   17.5992 C   0  0  0  0  0  0  0  0  0  0  0  0
    4.2902    1.4127   18.8888 C   0  0  0  0  0  0  0  0  0  0  0  0
    3.1695    2.2675   19.0615 C   0  0  0  0  0  0  0  0  0  0  0  0
    2.7751    2.6508   20.3115 C   0  0  0  0  0  0  0  0  0  0  0  0
    3.4878    2.1968   21.4466 C   0  0  0  0  0  0  0  0  0  0  0  0
    4.5719    1.3690   21.3089 C   0  0  0  0  0  0  0  0  0  0  0  0
    4.9926    0.9331   20.0200 C   0  0  0  0  0  0  0  0  0  0  0  0
    5.1078    1.0185   22.1916 H   0  0  0  0  0  0  0  0  0  0  0  0
    3.1670    2.5068   22.4380 H   0  0  0  0  0  0  0  0  0  0  0  0
    1.9256    3.3212   20.4394 H   0  0  0  0  0  0  0  0  0  0  0  0
    2.6571    2.6343   18.1747 H   0  0  0  0  0  0  0  0  0  0  0  0
    4.2161    1.3843   16.7149 H   0  0  0  0  0  0  0  0  0  0  0  0
    7.2864   -0.8718   18.2575 H   0  0  0  0  0  0  0  0  0  0  0  0
    6.3266   -1.3749   21.7549 C   0  0  0  0  0  0  0  0  0  0  0  0
    5.2119   -1.8447   21.6703 O   0  0  0  0  0  0  0  0  0  0  0  0
    7.3518   -1.6201   22.8845 C   0  0  1  0  0  0  0  0  0  0  0  0
    7.4843   -3.1298   23.1742 C   0  0  0  0  0  0  0  0  0  0  0  0
    6.2911   -3.6749   23.7905 N   0  0  0  0  0  0  0  0  0  0  0  0
    5.7555   -4.9581   23.3653 C   0  0  0  0  0  0  0  0  0  0  0  0
    4.4379   -4.8340   22.7133 C   0  0  0  0  0  0  0  0  0  0  0  0
    3.3973   -4.7507   22.2190 N   0  0  0  0  0  0  0  0  0  0  0  0
    6.4492   -5.4253   22.6593 H   0  0  0  0  0  0  0  0  0  0  0  0
    5.6521   -5.6348   24.2199 H   0  0  0  0  0  0  0  0  0  0  0  0
    5.7123   -3.0733   24.8753 C   0  0  0  0  0  0  0  0  0  0  0  0
    4.9223   -3.6783   25.5864 O   0  0  0  0  0  0  0  0  0  0  0  0
    6.0819   -1.6329   25.0877 C   0  0  0  0  0  0  0  0  0  0  0  0
    5.5812   -0.9885   26.2187 C   0  0  0  0  0  0  0  0  0  0  0  0
    5.8011    0.3562   26.4317 C   0  0  0  0  0  0  0  0  0  0  0  0
    6.5203    1.0489   25.4676 C   0  0  0  0  0  0  0  0  0  0  0  0
    6.7248    2.3657   25.6510 F   0  0  0  0  0  0  0  0  0  0  0  0
    7.0326    0.4429   24.3367 C   0  0  0  0  0  0  0  0  0  0  0  0
    6.8512   -0.9342   24.1486 C   0  0  0  0  0  0  0  0  0  0  0  0
    7.5557    1.0701   23.6201 H   0  0  0  0  0  0  0  0  0  0  0  0
    5.4260    0.8890   27.3000 H   0  0  0  0  0  0  0  0  0  0  0  0
    4.9988   -1.5641   26.9251 H   0  0  0  0  0  0  0  0  0  0  0  0
    8.3609   -3.2973   23.8198 H   0  0  0  0  0  0  0  0  0  0  0  0
    7.6326   -3.6607   22.2366 H   0  0  0  0  0  0  0  0  0  0  0  0
    8.2606    0.9971   21.4060 H   0  0  0  0  0  0  0  0  0  0  0  0
    8.8575   -0.2178   20.2820 H   0  0  0  0  0  0  0  0  0  0  0  0
    9.1451   -0.3853   23.1014 H   0  0  0  0  0  0  0  0  0  0  0  0
   10.6100   -1.4260   21.4233 H   0  0  0  0  0  0  0  0  0  0  0  0
    9.3719   -2.6259   21.0247 H   0  0  0  0  0  0  0  0  0  0  0  0
   10.1160   -2.6112   22.6340 H   0  0  0  0  0  0  0  0  0  0  0  0
  1  2  1  0
  2  3  1  0
  3  4  1  0
  4  5  1  0
  5  6  2  0
  6  7  1  0
  7  8  2  0
  8  9  1  0
  9 10  2  0
 10 11  1  0
 11 12  2  0
 12 13  1  0
 13 14  2  0
 13 15  1  0
 12 16  1  0
 11 17  1  0
 10 18  1  0
  8 19  1  0
  6 20  1  0
  4 21  1  0
 21 22  2  0
 21 23  1  0
 23 24  1  1
 24 25  1  0
 25 26  1  0
 26 27  1  0
 27 28  3  0
 26 29  1  0
 26 30  1  0
 25 31  1  0
 31 32  2  0
 31 33  1  0
 33 34  2  0
 34 35  1  0
 35 36  2  0
 36 37  1  0
 36 38  1  0
 38 39  2  0
 38 40  1  0
 35 41  1  0
 34 42  1  0
 24 43  1  0
 24 44  1  0
  3 45  1  0
  3 46  1  0
  2 47  1  1
  1 48  1  0
  1 49  1  0
  1 50  1  0
 23  2  1  0
 39 33  1  0
 14  5  1  0
 39 23  1  0
 14  9  1  0
M  END
>  <cnnaffinities>  (6) 
[5.96209, 6.2417]

>  <score>  (6) 
5.96209

>  <index>  (6) 
5

>  <Smiles>  (6) 
C([C@]1(C(N(c2c(nc(c3c(c(c(c(c23)[H])[H])[H])[H])[H])[H])C(=O)[C@]21C(N(C(C#N)([H])[H])C(=O)c1c(c(c(F)c(c21)[H])[H])[H])([H])[H])([H])[H])[H])([H])([H])[H]

>  <h>  (6) 
<NA>

>  <Training>  (6) 
True

>  <Success>  (6) 
True

>  <enamine_searched>  (6) 
False

>  <enamine_id>  (6) 
nan

$$$$

     RDKit          3D

 65 69  0  0  0  0  0  0  0  0999 V2000
    8.4257    9.1406   24.8982 C   0  0  0  0  0  0  0  0  0  0  0  0
    9.2678    7.8583   24.9302 C   0  0  0  0  0  0  0  0  0  0  0  0
    8.7118    6.8594   23.9365 C   0  0  0  0  0  0  0  0  0  0  0  0
    8.7071    7.0333   22.7486 O   0  0  0  0  0  0  0  0  0  0  0  0
    8.0721    5.6177   24.4764 N   0  0  1  0  0  4  0  0  0  0  0  0
    6.5485    5.6260   24.1972 C   0  0  0  0  0  0  0  0  0  0  0  0
    5.9594    4.2887   24.5758 C   0  0  0  0  0  0  0  0  0  0  0  0
    6.5376    3.1746   23.7088 C   0  0  0  0  0  0  0  0  0  0  0  0
    8.0524    3.1795   23.6779 C   0  0  0  0  0  0  0  0  0  0  0  0
    8.7702    2.0619   23.2051 C   0  0  0  0  0  0  0  0  0  0  0  0
    8.0486    0.8843   22.8086 N   0  0  0  0  0  0  0  0  0  0  0  0
    7.7198   -0.0937   23.8487 C   0  0  0  0  0  0  0  0  0  0  0  0
    8.6635   -1.2793   23.8484 C   0  0  0  0  0  0  0  0  0  0  0  0
    8.2780   -2.5146   23.3261 C   0  0  0  0  0  0  0  0  0  0  0  0
    9.1829   -3.5760   23.2713 C   0  0  0  0  0  0  0  0  0  0  0  0
   10.4961   -3.3876   23.6913 C   0  0  0  0  0  0  0  0  0  0  0  0
   10.8931   -2.1385   24.1427 C   0  0  0  0  0  0  0  0  0  0  0  0
   12.5958   -1.8451   24.4052 Cl  0  0  0  0  0  0  0  0  0  0  0  0
    9.9750   -1.1101   24.2981 C   0  0  0  0  0  0  0  0  0  0  0  0
   10.2821   -0.1924   24.7934 H   0  0  0  0  0  0  0  0  0  0  0  0
   11.2198   -4.1928   23.7082 H   0  0  0  0  0  0  0  0  0  0  0  0
    8.8685   -4.5321   22.8538 H   0  0  0  0  0  0  0  0  0  0  0  0
    7.2824   -2.6356   22.8982 H   0  0  0  0  0  0  0  0  0  0  0  0
    7.7959    0.4423   24.8039 H   0  0  0  0  0  0  0  0  0  0  0  0
    6.6826   -0.4443   23.7376 H   0  0  0  0  0  0  0  0  0  0  0  0
    7.9269    0.6725   21.4429 C   0  0  0  0  0  0  0  0  0  0  0  0
    8.5523    1.3391   20.6396 O   0  0  0  0  0  0  0  0  0  0  0  0
    6.9600   -0.4107   20.9207 C   0  0  0  0  0  0  0  0  0  0  0  0
    6.1159    0.0936   19.7720 C   0  0  0  0  0  0  0  0  0  0  0  0
    6.4284   -0.2066   18.4714 C   0  0  0  0  0  0  0  0  0  0  0  0
    5.7575    0.2393   17.3768 N   0  0  0  0  0  0  0  0  0  0  0  0
    4.7328    1.0267   17.5837 C   0  0  0  0  0  0  0  0  0  0  0  0
    4.2817    1.4168   18.8738 C   0  0  0  0  0  0  0  0  0  0  0  0
    3.1647    2.2715   19.0515 C   0  0  0  0  0  0  0  0  0  0  0  0
    2.7634    2.6448   20.3046 C   0  0  0  0  0  0  0  0  0  0  0  0
    3.4615    2.1687   21.4367 C   0  0  0  0  0  0  0  0  0  0  0  0
    4.5406    1.3321   21.2908 C   0  0  0  0  0  0  0  0  0  0  0  0
    4.9887    0.9373   20.0019 C   0  0  0  0  0  0  0  0  0  0  0  0
    5.0595    0.9795   22.1781 H   0  0  0  0  0  0  0  0  0  0  0  0
    3.1505    2.4782   22.4320 H   0  0  0  0  0  0  0  0  0  0  0  0
    1.9201    3.3162   20.4325 H   0  0  0  0  0  0  0  0  0  0  0  0
    2.6565    2.6448   18.1657 H   0  0  0  0  0  0  0  0  0  0  0  0
    4.2022    1.3944   16.7037 H   0  0  0  0  0  0  0  0  0  0  0  0
    7.2744   -0.8564   18.2454 H   0  0  0  0  0  0  0  0  0  0  0  0
    6.3260   -0.8121   21.7146 H   0  0  0  0  0  0  0  0  0  0  0  0
    7.5918   -1.2304   20.5539 H   0  0  0  0  0  0  0  0  0  0  0  0
   10.1580    2.0754   23.1443 C   0  0  0  0  0  0  0  0  0  0  0  0
   10.8623    3.1995   23.5737 C   0  0  0  0  0  0  0  0  0  0  0  0
   10.1684    4.3144   24.0234 C   0  0  0  0  0  0  0  0  0  0  0  0
    8.7749    4.3110   24.0439 C   0  0  0  0  0  0  0  0  0  0  0  0
   10.7026    5.2092   24.3251 H   0  0  0  0  0  0  0  0  0  0  0  0
   11.9475    3.2193   23.5297 H   0  0  0  0  0  0  0  0  0  0  0  0
   10.6893    1.2109   22.7515 H   0  0  0  0  0  0  0  0  0  0  0  0
    6.1761    2.1991   24.0475 H   0  0  0  0  0  0  0  0  0  0  0  0
    6.1727    3.3004   22.6771 H   0  0  0  0  0  0  0  0  0  0  0  0
    6.1435    4.0837   25.6386 H   0  0  0  0  0  0  0  0  0  0  0  0
    4.8724    4.3326   24.4401 H   0  0  0  0  0  0  0  0  0  0  0  0
    6.4349    5.8359   23.1320 H   0  0  0  0  0  0  0  0  0  0  0  0
    6.0919    6.4462   24.7616 H   0  0  0  0  0  0  0  0  0  0  0  0
    8.1724    5.6546   25.5127 H   0  0  0  0  0  0  0  0  0  0  0  0
    9.2927    7.4083   25.9289 H   0  0  0  0  0  0  0  0  0  0  0  0
   10.2980    8.0718   24.6223 H   0  0  0  0  0  0  0  0  0  0  0  0
    7.3922    8.9338   25.1982 H   0  0  0  0  0  0  0  0  0  0  0  0
    8.8363    9.9006   25.5679 H   0  0  0  0  0  0  0  0  0  0  0  0
    8.4024    9.5458   23.8831 H   0  0  0  0  0  0  0  0  0  0  0  0
  1  2  1  0
  2  3  1  0
  3  4  2  0
  3  5  1  0
  5  6  1  0
  6  7  1  0
  7  8  1  0
  8  9  1  0
  9 10  2  0
 10 11  1  0
 11 12  1  0
 12 13  1  0
 13 14  2  0
 14 15  1  0
 15 16  2  0
 16 17  1  0
 17 18  1  0
 17 19  2  0
 19 20  1  0
 16 21  1  0
 15 22  1  0
 14 23  1  0
 12 24  1  0
 12 25  1  0
 11 26  1  0
 26 27  2  0
 26 28  1  0
 28 29  1  0
 29 30  2  0
 30 31  1  0
 31 32  2  0
 32 33  1  0
 33 34  2  0
 34 35  1  0
 35 36  2  0
 36 37  1  0
 37 38  2  0
 37 39  1  0
 36 40  1  0
 35 41  1  0
 34 42  1  0
 32 43  1  0
 30 44  1  0
 28 45  1  0
 28 46  1  0
 10 47  1  0
 47 48  2  0
 48 49  1  0
 49 50  2  0
 49 51  1  0
 48 52  1  0
 47 53  1  0
  8 54  1  0
  8 55  1  0
  7 56  1  0
  7 57  1  0
  6 58  1  0
  6 59  1  0
  5 60  1  1
  2 61  1  0
  2 62  1  0
  1 63  1  0
  1 64  1  0
  1 65  1  0
 50  5  1  0
 50  9  1  0
 19 13  1  0
 38 29  1  0
 38 33  1  0
M  CHG  1   5   1
M  END
>  <cnnaffinities>  (7) 
[6.77711, 6.41637]

>  <score>  (7) 
6.77711

>  <index>  (7) 
6

>  <Smiles>  (7) 
C(C(C(=O)[N@+]1(C(C(C(c2c(N(C(c3c(c(c(c(Cl)c3[H])[H])[H])[H])([H])[H])C(=O)C(c3c(nc(c4c(c(c(c(c34)[H])[H])[H])[H])[H])[H])([H])[H])c(c(c(c12)[H])[H])[H])([H])[H])([H])[H])([H])[H])[H])([H])[H])([H])([H])[H]

>  <h>  (7) 
<NA>

>  <Training>  (7) 
True

>  <Success>  (7) 
True

>  <enamine_searched>  (7) 
False

>  <enamine_id>  (7) 
nan

$$$$

     RDKit          3D

 37 39  0  0  0  0  0  0  0  0999 V2000
    8.6834    1.2104   20.6579 O   0  0  0  0  0  0  0  0  0  0  0  0
    7.8831    0.6901   21.4042 C   0  0  0  0  0  0  0  0  0  0  0  0
    6.9601   -0.4375   20.9100 C   0  0  0  0  0  0  0  0  0  0  0  0
    6.1074    0.0790   19.7690 C   0  0  0  0  0  0  0  0  0  0  0  0
    6.4261   -0.2093   18.4679 C   0  0  0  0  0  0  0  0  0  0  0  0
    5.7577    0.2439   17.3748 N   0  0  0  0  0  0  0  0  0  0  0  0
    4.7315    1.0292   17.5820 C   0  0  0  0  0  0  0  0  0  0  0  0
    4.2844    1.4182   18.8714 C   0  0  0  0  0  0  0  0  0  0  0  0
    3.1670    2.2707   19.0500 C   0  0  0  0  0  0  0  0  0  0  0  0
    2.7647    2.6474   20.3017 C   0  0  0  0  0  0  0  0  0  0  0  0
    3.4647    2.1709   21.4335 C   0  0  0  0  0  0  0  0  0  0  0  0
    4.5458    1.3365   21.2872 C   0  0  0  0  0  0  0  0  0  0  0  0
    4.9922    0.9389   20.0002 C   0  0  0  0  0  0  0  0  0  0  0  0
    5.0622    0.9730   22.1682 H   0  0  0  0  0  0  0  0  0  0  0  0
    3.1382    2.4694   22.4253 H   0  0  0  0  0  0  0  0  0  0  0  0
    1.9186    3.3181   20.4302 H   0  0  0  0  0  0  0  0  0  0  0  0
    2.6568    2.6460   18.1662 H   0  0  0  0  0  0  0  0  0  0  0  0
    4.2020    1.3956   16.6995 H   0  0  0  0  0  0  0  0  0  0  0  0
    7.2721   -0.8556   18.2374 H   0  0  0  0  0  0  0  0  0  0  0  0
    6.3360   -0.8287   21.7242 H   0  0  0  0  0  0  0  0  0  0  0  0
    7.5895   -1.2524   20.5333 H   0  0  0  0  0  0  0  0  0  0  0  0
    7.6679    1.1419   22.7108 N   0  0  0  0  0  0  0  0  0  0  0  0
    7.8998    2.5545   22.9837 C   0  0  0  0  0  0  0  0  0  0  0  0
    6.9301    3.0407   24.0570 C   0  0  0  0  0  0  0  0  0  0  0  0
    7.0147    2.1797   25.3121 C   0  0  0  0  0  0  0  0  0  0  0  0
    6.8029    0.7106   24.9635 C   0  0  0  0  0  0  0  0  0  0  0  0
    7.7678    0.2663   23.8735 C   0  0  0  0  0  0  0  0  0  0  0  0
    8.7905    0.2604   24.2887 H   0  0  0  0  0  0  0  0  0  0  0  0
    7.5635   -0.7533   23.5535 H   0  0  0  0  0  0  0  0  0  0  0  0
    5.7800    0.5596   24.6043 H   0  0  0  0  0  0  0  0  0  0  0  0
    6.9219    0.0811   25.8511 H   0  0  0  0  0  0  0  0  0  0  0  0
    7.9998    2.3082   25.7783 H   0  0  0  0  0  0  0  0  0  0  0  0
    6.2801    2.5063   26.0570 H   0  0  0  0  0  0  0  0  0  0  0  0
    5.9108    3.0067   23.6528 H   0  0  0  0  0  0  0  0  0  0  0  0
    7.1272    4.0898   24.2938 H   0  0  0  0  0  0  0  0  0  0  0  0
    7.7472    3.0908   22.0483 H   0  0  0  0  0  0  0  0  0  0  0  0
    8.9359    2.7592   23.2920 H   0  0  0  0  0  0  0  0  0  0  0  0
  1  2  2  0
  2  3  1  0
  3  4  1  0
  4  5  2  0
  5  6  1  0
  6  7  2  0
  7  8  1  0
  8  9  2  0
  9 10  1  0
 10 11  2  0
 11 12  1  0
 12 13  2  0
 12 14  1  0
 11 15  1  0
 10 16  1  0
  9 17  1  0
  7 18  1  0
  5 19  1  0
  3 20  1  0
  3 21  1  0
  2 22  1  0
 22 23  1  0
 23 24  1  0
 24 25  1  0
 25 26  1  0
 26 27  1  0
 27 28  1  0
 27 29  1  0
 26 30  1  0
 26 31  1  0
 25 32  1  0
 25 33  1  0
 24 34  1  0
 24 35  1  0
 23 36  1  0
 23 37  1  0
 13  4  1  0
 27 22  1  0
 13  8  1  0
M  END
>  <cnnaffinities>  (8) 
[4.83001, 4.56448, 4.92319, 4.97219, 4.58123, 4.58132]

>  <score>  (8) 
4.83001

>  <index>  (8) 
7

>  <Smiles>  (8) 
O=C(C(c1c(nc(c2c(c(c(c(c12)[H])[H])[H])[H])[H])[H])([H])[H])N1C(C(C(C(C1([H])[H])([H])[H])([H])[H])([H])[H])([H])[H]

>  <h>  (8) 
<NA>

>  <Training>  (8) 
True

>  <Success>  (8) 
True

>  <enamine_searched>  (8) 
False

>  <enamine_id>  (8) 
nan

$$$$

     RDKit          3D

 66 71  0  0  0  0  0  0  0  0999 V2000
    7.7992   -3.1368   23.1659 C   0  0  0  0  0  0  0  0  0  0  0  0
    7.8374   -1.9911   22.1584 C   0  0  1  0  0  0  0  0  0  0  0  0
    6.6773   -1.9283   21.1468 C   0  0  0  0  0  0  0  0  0  0  0  0
    6.6594   -0.5332   20.7601 N   0  0  0  0  0  0  0  0  0  0  0  0
    5.9063   -0.0230   19.6759 C   0  0  0  0  0  0  0  0  0  0  0  0
    6.2441   -0.3123   18.3764 C   0  0  0  0  0  0  0  0  0  0  0  0
    5.6157    0.2017   17.2927 N   0  0  0  0  0  0  0  0  0  0  0  0
    4.6143    1.0221   17.5058 C   0  0  0  0  0  0  0  0  0  0  0  0
    4.1407    1.3775   18.7992 C   0  0  0  0  0  0  0  0  0  0  0  0
    3.0607    2.2795   18.9874 C   0  0  0  0  0  0  0  0  0  0  0  0
    2.6558    2.6231   20.2493 C   0  0  0  0  0  0  0  0  0  0  0  0
    3.2684    2.0396   21.3813 C   0  0  0  0  0  0  0  0  0  0  0  0
    4.2781    1.1280   21.2188 C   0  0  0  0  0  0  0  0  0  0  0  0
    4.7805    0.8209   19.9219 C   0  0  0  0  0  0  0  0  0  0  0  0
    4.7176    0.6430   22.0828 H   0  0  0  0  0  0  0  0  0  0  0  0
    2.9507    2.3260   22.3803 H   0  0  0  0  0  0  0  0  0  0  0  0
    1.8581    3.3449   20.3880 H   0  0  0  0  0  0  0  0  0  0  0  0
    2.5856    2.7116   18.1104 H   0  0  0  0  0  0  0  0  0  0  0  0
    4.1312    1.4446   16.6267 H   0  0  0  0  0  0  0  0  0  0  0  0
    7.0906   -0.9685   18.1766 H   0  0  0  0  0  0  0  0  0  0  0  0
    7.2432    0.2868   21.6835 C   0  0  0  0  0  0  0  0  0  0  0  0
    7.1517    1.4967   21.6801 O   0  0  0  0  0  0  0  0  0  0  0  0
    7.9361   -0.5574   22.7668 C   0  0  1  0  0  0  0  0  0  0  0  0
    7.1090   -0.3765   24.0715 C   0  0  0  0  0  0  0  0  0  0  0  0
    7.2707    0.9551   24.6300 N   0  0  0  0  0  0  0  0  0  0  0  0
    6.1378    1.6298   25.2467 C   0  0  0  0  0  0  0  0  0  0  0  0
    6.1204    3.1498   25.0189 C   0  0  0  0  0  0  0  0  0  0  0  0
    5.9329    3.9428   25.9208 O   0  0  0  0  0  0  0  0  0  0  0  0
    6.3208    3.5243   23.7124 N   0  0  0  0  0  0  0  0  0  0  0  0
    6.9358    4.8198   23.4501 C   0  0  0  0  0  0  0  0  0  0  0  0
    8.3469    4.5766   22.9649 C   0  0  0  0  0  0  0  0  0  0  0  0
    8.7233    3.8137   21.8866 C   0  0  0  0  0  0  0  0  0  0  0  0
   10.1265    3.8362   21.8805 C   0  0  0  0  0  0  0  0  0  0  0  0
   10.6024    4.5343   22.9054 N   0  0  0  0  0  0  0  0  0  0  0  0
    9.5090    4.9695   23.5537 N   0  0  0  0  0  0  0  0  0  0  0  0
    9.7154    5.6732   24.7973 C   0  0  0  0  0  0  0  0  0  0  0  0
   10.4694    5.1466   25.3885 H   0  0  0  0  0  0  0  0  0  0  0  0
   10.0745    6.6817   24.5857 H   0  0  0  0  0  0  0  0  0  0  0  0
    8.7826    5.7020   25.3662 H   0  0  0  0  0  0  0  0  0  0  0  0
   10.8031    3.3215   21.2113 H   0  0  0  0  0  0  0  0  0  0  0  0
    8.0812    3.3294   21.1591 H   0  0  0  0  0  0  0  0  0  0  0  0
    6.3493    5.3526   22.6865 H   0  0  0  0  0  0  0  0  0  0  0  0
    6.8896    5.4174   24.3709 H   0  0  0  0  0  0  0  0  0  0  0  0
    6.6234    2.8062   23.0518 H   0  0  0  0  0  0  0  0  0  0  0  0
    5.2283    1.2106   24.7961 H   0  0  0  0  0  0  0  0  0  0  0  0
    6.0721    1.4748   26.3325 H   0  0  0  0  0  0  0  0  0  0  0  0
    8.5032    1.5482   24.7369 C   0  0  0  0  0  0  0  0  0  0  0  0
    8.6440    2.5894   25.3600 O   0  0  0  0  0  0  0  0  0  0  0  0
    9.6225    0.8998   23.9743 C   0  0  0  0  0  0  0  0  0  0  0  0
   10.9337    1.3412   24.1821 C   0  0  0  0  0  0  0  0  0  0  0  0
   11.9933    0.8004   23.4812 C   0  0  0  0  0  0  0  0  0  0  0  0
   11.7341   -0.1547   22.4991 C   0  0  0  0  0  0  0  0  0  0  0  0
   10.4326   -0.5431   22.2304 C   0  0  0  0  0  0  0  0  0  0  0  0
    9.3601   -0.0793   23.0099 C   0  0  0  0  0  0  0  0  0  0  0  0
   10.2717   -1.2058   21.3807 H   0  0  0  0  0  0  0  0  0  0  0  0
   12.5489   -0.6075   21.9381 H   0  0  0  0  0  0  0  0  0  0  0  0
   13.0139    1.1402   23.6593 H   0  0  0  0  0  0  0  0  0  0  0  0
   11.1293    2.1605   24.8533 H   0  0  0  0  0  0  0  0  0  0  0  0
    7.4086   -1.1328   24.8085 H   0  0  0  0  0  0  0  0  0  0  0  0
    6.0476   -0.5184   23.8407 H   0  0  0  0  0  0  0  0  0  0  0  0
    5.7177   -2.2449   21.5861 H   0  0  0  0  0  0  0  0  0  0  0  0
    6.8437   -2.5082   20.2446 H   0  0  0  0  0  0  0  0  0  0  0  0
    8.7337   -2.1404   21.5527 H   0  0  0  0  0  0  0  0  0  0  0  0
    6.8701   -3.1464   23.7478 H   0  0  0  0  0  0  0  0  0  0  0  0
    7.8946   -4.1078   22.6674 H   0  0  0  0  0  0  0  0  0  0  0  0
    8.6337   -3.0460   23.8722 H   0  0  0  0  0  0  0  0  0  0  0  0
  1  2  1  0
  2  3  1  0
  3  4  1  0
  4  5  1  0
  5  6  2  0
  6  7  1  0
  7  8  2  0
  8  9  1  0
  9 10  2  0
 10 11  1  0
 11 12  2  0
 12 13  1  0
 13 14  2  0
 13 15  1  0
 12 16  1  0
 11 17  1  0
 10 18  1  0
  8 19  1  0
  6 20  1  0
  4 21  1  0
 21 22  2  0
 21 23  1  0
 23 24  1  1
 24 25  1  0
 25 26  1  0
 26 27  1  0
 27 28  2  0
 27 29  1  0
 29 30  1  0
 30 31  1  0
 31 32  2  0
 32 33  1  0
 33 34  2  0
 34 35  1  0
 35 36  1  0
 36 37  1  0
 36 38  1  0
 36 39  1  0
 33 40  1  0
 32 41  1  0
 30 42  1  0
 30 43  1  0
 29 44  1  0
 26 45  1  0
 26 46  1  0
 25 47  1  0
 47 48  2  0
 47 49  1  0
 49 50  2  0
 50 51  1  0
 51 52  2  0
 52 53  1  0
 53 54  2  0
 53 55  1  0
 52 56  1  0
 51 57  1  0
 50 58  1  0
 24 59  1  0
 24 60  1  0
  3 61  1  0
  3 62  1  0
  2 63  1  6
  1 64  1  0
  1 65  1  0
  1 66  1  0
 23  2  1  0
 35 31  1  0
 54 49  1  0
 14  5  1  0
 54 23  1  0
 14  9  1  0
M  END
>  <cnnaffinities>  (9) 
[6.51631]

>  <score>  (9) 
6.51631

>  <index>  (9) 
8

>  <Smiles>  (9) 
C([C@]1(C(N(c2c(nc(c3c(c(c(c(c23)[H])[H])[H])[H])[H])[H])C(=O)[C@]21C(N(C(C(=O)N(C(c1c(c(nn1C([H])([H])[H])[H])[H])([H])[H])[H])([H])[H])C(=O)c1c(c(c(c(c21)[H])[H])[H])[H])([H])[H])([H])[H])[H])([H])([H])[H]

>  <h>  (9) 
<NA>

>  <Training>  (9) 
True

>  <Success>  (9) 
True

>  <enamine_searched>  (9) 
False

>  <enamine_id>  (9) 
nan

$$$$

     RDKit          3D

 58 63  0  0  0  0  0  0  0  0999 V2000
    7.3307   -9.3375   23.7977 C   0  0  0  0  0  0  0  0  0  0  0  0
    7.0747   -8.0600   23.0856 C   0  0  0  0  0  0  0  0  0  0  0  0
    5.8505   -7.3595   22.9228 C   0  0  0  0  0  0  0  0  0  0  0  0
    6.2303   -6.2236   22.2857 C   0  0  0  0  0  0  0  0  0  0  0  0
    5.5835   -4.9119   22.0441 C   0  0  0  0  0  0  0  0  0  0  0  0
    6.1048   -3.9054   22.9500 N   0  0  0  0  0  0  0  0  0  0  0  0
    7.3580   -3.2323   22.6597 C   0  0  0  0  0  0  0  0  0  0  0  0
    7.1452   -1.7037   22.6835 C   0  0  2  0  0  0  0  0  0  0  0  0
    6.3149   -1.3870   21.4270 C   0  0  0  0  0  0  0  0  0  0  0  0
    5.3125   -1.9589   21.0414 O   0  0  0  0  0  0  0  0  0  0  0  0
    6.9129   -0.3607   20.7390 N   0  0  0  0  0  0  0  0  0  0  0  0
    6.1616    0.1968   19.6754 C   0  0  0  0  0  0  0  0  0  0  0  0
    6.4453   -0.1383   18.3783 C   0  0  0  0  0  0  0  0  0  0  0  0
    5.7379    0.3021   17.3101 N   0  0  0  0  0  0  0  0  0  0  0  0
    4.7032    1.0709   17.5463 C   0  0  0  0  0  0  0  0  0  0  0  0
    4.2626    1.4366   18.8489 C   0  0  0  0  0  0  0  0  0  0  0  0
    3.1229    2.2541   19.0568 C   0  0  0  0  0  0  0  0  0  0  0  0
    2.7210    2.5699   20.3246 C   0  0  0  0  0  0  0  0  0  0  0  0
    3.4247    2.0689   21.4449 C   0  0  0  0  0  0  0  0  0  0  0  0
    4.5297    1.2748   21.2726 C   0  0  0  0  0  0  0  0  0  0  0  0
    4.9919    0.9628   19.9581 C   0  0  0  0  0  0  0  0  0  0  0  0
    5.0513    0.8650   22.1385 H   0  0  0  0  0  0  0  0  0  0  0  0
    3.0876    2.3260   22.4449 H   0  0  0  0  0  0  0  0  0  0  0  0
    1.8634    3.2176   20.4777 H   0  0  0  0  0  0  0  0  0  0  0  0
    2.5959    2.6333   18.1843 H   0  0  0  0  0  0  0  0  0  0  0  0
    4.1458    1.4279   16.6805 H   0  0  0  0  0  0  0  0  0  0  0  0
    7.2752   -0.8090   18.1651 H   0  0  0  0  0  0  0  0  0  0  0  0
    8.0302    0.2475   21.4379 C   0  0  0  0  0  0  0  0  0  0  0  0
    8.4414   -0.8458   22.4580 C   0  0  2  0  0  0  0  0  0  0  0  0
    9.6571   -1.6280   21.9343 C   0  0  0  0  0  0  0  0  0  0  0  0
    9.4439   -2.1197   20.9768 H   0  0  0  0  0  0  0  0  0  0  0  0
    9.9699   -2.3953   22.6494 H   0  0  0  0  0  0  0  0  0  0  0  0
   10.5073   -0.9504   21.7833 H   0  0  0  0  0  0  0  0  0  0  0  0
    8.7410   -0.3932   23.4102 H   0  0  0  0  0  0  0  0  0  0  0  0
    8.8327    0.4910   20.7324 H   0  0  0  0  0  0  0  0  0  0  0  0
    7.7388    1.1841   21.9393 H   0  0  0  0  0  0  0  0  0  0  0  0
    6.4061   -1.3526   23.9807 C   0  0  0  0  0  0  0  0  0  0  0  0
    6.3828   -0.0433   24.4884 C   0  0  0  0  0  0  0  0  0  0  0  0
    5.7620    0.2098   25.7035 C   0  0  0  0  0  0  0  0  0  0  0  0
    5.7447    1.4698   26.1786 F   0  0  0  0  0  0  0  0  0  0  0  0
    5.1684   -0.7834   26.4771 C   0  0  0  0  0  0  0  0  0  0  0  0
    5.1523   -2.0617   25.9580 C   0  0  0  0  0  0  0  0  0  0  0  0
    5.7110   -2.3315   24.7106 C   0  0  0  0  0  0  0  0  0  0  0  0
    5.4472   -3.6800   24.1259 C   0  0  0  0  0  0  0  0  0  0  0  0
    4.6742   -4.4901   24.6151 O   0  0  0  0  0  0  0  0  0  0  0  0
    4.6934   -2.8859   26.4947 H   0  0  0  0  0  0  0  0  0  0  0  0
    4.7269   -0.5451   27.4414 H   0  0  0  0  0  0  0  0  0  0  0  0
    6.8615    0.7862   23.9750 H   0  0  0  0  0  0  0  0  0  0  0  0
    7.6838   -3.5552   21.6742 H   0  0  0  0  0  0  0  0  0  0  0  0
    8.1436   -3.5246   23.3683 H   0  0  0  0  0  0  0  0  0  0  0  0
    5.7451   -4.5587   21.0206 H   0  0  0  0  0  0  0  0  0  0  0  0
    4.5105   -4.9948   22.2219 H   0  0  0  0  0  0  0  0  0  0  0  0
    7.5417   -6.2539   22.0378 O   0  0  0  0  0  0  0  0  0  0  0  0
    8.0746   -7.4178   22.5416 N   0  0  0  0  0  0  0  0  0  0  0  0
    4.8603   -7.6340   23.2535 H   0  0  0  0  0  0  0  0  0  0  0  0
    6.6948   -9.4259   24.6790 H   0  0  0  0  0  0  0  0  0  0  0  0
    7.1529  -10.1859   23.1356 H   0  0  0  0  0  0  0  0  0  0  0  0
    8.3652   -9.3644   24.1323 H   0  0  0  0  0  0  0  0  0  0  0  0
  1  2  1  0
  2  3  1  0
  3  4  2  0
  4  5  1  0
  5  6  1  0
  6  7  1  0
  8  7  1  1
  8  9  1  0
  9 10  2  0
  9 11  1  0
 11 12  1  0
 12 13  2  0
 13 14  1  0
 14 15  2  0
 15 16  1  0
 16 17  2  0
 17 18  1  0
 18 19  2  0
 19 20  1  0
 20 21  2  0
 20 22  1  0
 19 23  1  0
 18 24  1  0
 17 25  1  0
 15 26  1  0
 13 27  1  0
 11 28  1  0
 28 29  1  0
 29 30  1  0
 30 31  1  0
 30 32  1  0
 30 33  1  0
 29 34  1  1
 28 35  1  0
 28 36  1  0
  8 37  1  0
 37 38  2  0
 38 39  1  0
 39 40  1  0
 39 41  2  0
 41 42  1  0
 42 43  2  0
 43 44  1  0
 44 45  2  0
 42 46  1  0
 41 47  1  0
 38 48  1  0
  7 49  1  0
  7 50  1  0
  5 51  1  0
  5 52  1  0
  4 53  1  0
 53 54  1  0
  3 55  1  0
  1 56  1  0
  1 57  1  0
  1 58  1  0
 54  2  2  0
 44  6  1  0
 29  8  1  0
 43 37  1  0
 21 12  1  0
 21 16  1  0
M  END
>  <cnnaffinities>  (10) 
[6.63243]

>  <score>  (10) 
6.63243

>  <index>  (10) 
9

>  <Smiles>  (10) 
C(c1c(c(C(N2C([C@@]3(C(=O)N(c4c(nc(c5c(c(c(c(c45)[H])[H])[H])[H])[H])[H])C([C@@]3(C([H])([H])[H])[H])([H])[H])c3c(c(F)c(c(c3C2=O)[H])[H])[H])([H])[H])([H])[H])on1)[H])([H])([H])[H]

>  <h>  (10) 
<NA>

>  <Training>  (10) 
True

>  <Success>  (10) 
True

>  <enamine_searched>  (10) 
False

>  <enamine_id>  (10) 
nan

$$$$

     RDKit          3D

 72 77  0  0  0  0  0  0  0  0999 V2000
    1.4284    2.1149   25.1764 C   0  0  0  0  0  0  0  0  0  0  0  0
    2.8437    1.7996   25.6440 C   0  0  1  0  0  0  0  0  0  0  0  0
    3.6867    3.0640   25.8308 C   0  0  0  0  0  0  0  0  0  0  0  0
    4.8387    2.7952   26.7675 N   0  0  0  0  0  4  0  0  0  0  0  0
    5.8285    1.7702   26.2469 C   0  0  0  0  0  0  0  0  0  0  0  0
    6.4467    2.1856   24.9115 C   0  0  0  0  0  0  0  0  0  0  0  0
    7.5222    1.2980   24.5045 N   0  0  0  0  0  0  0  0  0  0  0  0
    7.1765   -0.0675   24.1317 C   0  0  0  0  0  0  0  0  0  0  0  0
    7.8088   -0.5064   22.7909 C   0  0  2  0  0  0  0  0  0  0  0  0
    7.1907    0.2932   21.6376 C   0  0  0  0  0  0  0  0  0  0  0  0
    7.2754    1.4935   21.4828 O   0  0  0  0  0  0  0  0  0  0  0  0
    6.5143   -0.5660   20.8060 N   0  0  0  0  0  0  0  0  0  0  0  0
    5.8157   -0.0128   19.7056 C   0  0  0  0  0  0  0  0  0  0  0  0
    6.2071   -0.2706   18.4174 C   0  0  0  0  0  0  0  0  0  0  0  0
    5.5981    0.2541   17.3273 N   0  0  0  0  0  0  0  0  0  0  0  0
    4.5836    1.0643   17.5178 C   0  0  0  0  0  0  0  0  0  0  0  0
    4.0841    1.4227   18.8046 C   0  0  0  0  0  0  0  0  0  0  0  0
    2.9872    2.3079   18.9967 C   0  0  0  0  0  0  0  0  0  0  0  0
    2.5681    2.6387   20.2580 C   0  0  0  0  0  0  0  0  0  0  0  0
    3.2232    2.1070   21.3881 C   0  0  0  0  0  0  0  0  0  0  0  0
    4.2792    1.2516   21.2341 C   0  0  0  0  0  0  0  0  0  0  0  0
    4.7308    0.8835   19.9334 C   0  0  0  0  0  0  0  0  0  0  0  0
    4.8022    0.8740   22.1057 H   0  0  0  0  0  0  0  0  0  0  0  0
    2.9029    2.3872   22.3855 H   0  0  0  0  0  0  0  0  0  0  0  0
    1.7317    3.3157   20.3975 H   0  0  0  0  0  0  0  0  0  0  0  0
    2.5002    2.7354   18.1259 H   0  0  0  0  0  0  0  0  0  0  0  0
    4.1130    1.4777   16.6248 H   0  0  0  0  0  0  0  0  0  0  0  0
    7.0634   -0.9142   18.2191 H   0  0  0  0  0  0  0  0  0  0  0  0
    6.3015   -1.8760   21.4099 C   0  0  0  0  0  0  0  0  0  0  0  0
    7.5003   -1.9883   22.3799 C   0  0  2  0  0  0  0  0  0  0  0  0
    7.3612   -3.0093   23.5138 C   0  0  0  0  0  0  0  0  0  0  0  0
    7.3000   -4.0307   23.1194 H   0  0  0  0  0  0  0  0  0  0  0  0
    6.4714   -2.8341   24.1268 H   0  0  0  0  0  0  0  0  0  0  0  0
    8.2316   -2.9776   24.1815 H   0  0  0  0  0  0  0  0  0  0  0  0
    8.3431   -2.3302   21.7727 H   0  0  0  0  0  0  0  0  0  0  0  0
    5.3464   -1.9179   21.9604 H   0  0  0  0  0  0  0  0  0  0  0  0
    6.2937   -2.6431   20.6312 H   0  0  0  0  0  0  0  0  0  0  0  0
    9.2678   -0.1349   22.8158 C   0  0  0  0  0  0  0  0  0  0  0  0
   10.1082   -0.7055   21.8650 C   0  0  0  0  0  0  0  0  0  0  0  0
   11.4621   -0.4859   21.9217 C   0  0  0  0  0  0  0  0  0  0  0  0
   12.4015   -1.4330   20.8093 Cl  0  0  0  0  0  0  0  0  0  0  0  0
   12.0041    0.4369   22.8166 C   0  0  0  0  0  0  0  0  0  0  0  0
   11.1353    1.1487   23.6335 C   0  0  0  0  0  0  0  0  0  0  0  0
    9.7603    0.8959   23.6228 C   0  0  0  0  0  0  0  0  0  0  0  0
    8.7981    1.7873   24.3814 C   0  0  0  0  0  0  0  0  0  0  0  0
    9.1311    2.8770   24.8327 O   0  0  0  0  0  0  0  0  0  0  0  0
   11.5123    1.9460   24.2610 H   0  0  0  0  0  0  0  0  0  0  0  0
   13.0719    0.6201   22.8515 H   0  0  0  0  0  0  0  0  0  0  0  0
    9.7370   -1.3116   21.0459 H   0  0  0  0  0  0  0  0  0  0  0  0
    6.0881   -0.1325   24.0446 H   0  0  0  0  0  0  0  0  0  0  0  0
    7.4953   -0.7628   24.9202 H   0  0  0  0  0  0  0  0  0  0  0  0
    5.6837    2.1734   24.1150 H   0  0  0  0  0  0  0  0  0  0  0  0
    6.8771    3.1870   24.9745 H   0  0  0  0  0  0  0  0  0  0  0  0
    6.6202    1.6638   26.9934 H   0  0  0  0  0  0  0  0  0  0  0  0
    5.3176    0.8032   26.1863 H   0  0  0  0  0  0  0  0  0  0  0  0
    4.2937    2.4244   28.1256 C   0  0  0  0  0  0  0  0  0  0  0  0
    2.9254    1.7255   28.0330 C   0  0  2  0  0  0  0  0  0  0  0  0
    2.7059    0.7432   29.1696 C   0  0  0  0  0  0  0  0  0  0  0  0
    1.7195    0.2797   29.0898 H   0  0  0  0  0  0  0  0  0  0  0  0
    2.7681    1.2381   30.1452 H   0  0  0  0  0  0  0  0  0  0  0  0
    3.4555   -0.0541   29.1308 H   0  0  0  0  0  0  0  0  0  0  0  0
    2.8325    0.9909   26.8202 O   0  0  0  0  0  0  0  0  0  0  0  0
    2.1381    2.4968   28.0683 H   0  0  0  0  0  0  0  0  0  0  0  0
    5.0228    1.7599   28.5953 H   0  0  0  0  0  0  0  0  0  0  0  0
    4.2169    3.3220   28.7460 H   0  0  0  0  0  0  0  0  0  0  0  0
    5.3737    3.6725   26.8792 H   0  0  0  0  0  0  0  0  0  0  0  0
    4.0645    3.4167   24.8685 H   0  0  0  0  0  0  0  0  0  0  0  0
    3.0843    3.8725   26.2590 H   0  0  0  0  0  0  0  0  0  0  0  0
    3.3261    1.1671   24.8870 H   0  0  0  0  0  0  0  0  0  0  0  0
    0.8707    1.1899   25.0127 H   0  0  0  0  0  0  0  0  0  0  0  0
    0.8842    2.7128   25.9163 H   0  0  0  0  0  0  0  0  0  0  0  0
    1.4492    2.6765   24.2349 H   0  0  0  0  0  0  0  0  0  0  0  0
  1  2  1  0
  2  3  1  0
  3  4  1  0
  4  5  1  0
  5  6  1  0
  6  7  1  0
  7  8  1  0
  9  8  1  1
  9 10  1  0
 10 11  2  0
 10 12  1  0
 12 13  1  0
 13 14  2  0
 14 15  1  0
 15 16  2  0
 16 17  1  0
 17 18  2  0
 18 19  1  0
 19 20  2  0
 20 21  1  0
 21 22  2  0
 21 23  1  0
 20 24  1  0
 19 25  1  0
 18 26  1  0
 16 27  1  0
 14 28  1  0
 12 29  1  0
 29 30  1  0
 30 31  1  0
 31 32  1  0
 31 33  1  0
 31 34  1  0
 30 35  1  6
 29 36  1  0
 29 37  1  0
  9 38  1  0
 38 39  2  0
 39 40  1  0
 40 41  1  0
 40 42  2  0
 42 43  1  0
 43 44  2  0
 44 45  1  0
 45 46  2  0
 43 47  1  0
 42 48  1  0
 39 49  1  0
  8 50  1  0
  8 51  1  0
  6 52  1  0
  6 53  1  0
  5 54  1  0
  5 55  1  0
  4 56  1  0
 56 57  1  0
 57 58  1  0
 58 59  1  0
 58 60  1  0
 58 61  1  0
 57 62  1  0
 57 63  1  6
 56 64  1  0
 56 65  1  0
  4 66  1  0
  3 67  1  0
  3 68  1  0
  2 69  1  6
  1 70  1  0
  1 71  1  0
  1 72  1  0
 62  2  1  0
 45  7  1  0
 30  9  1  0
 44 38  1  0
 22 13  1  0
 22 17  1  0
M  CHG  1   4   1
M  END
>  <cnnaffinities>  (11) 
[6.03497, 6.19632]

>  <score>  (11) 
6.03497

>  <index>  (11) 
10

>  <Smiles>  (11) 
C([C@]1(C([N+](C(C(N2C([C@@]3(C(=O)N(c4c(nc(c5c(c(c(c(c45)[H])[H])[H])[H])[H])[H])C([C@@]3(C([H])([H])[H])[H])([H])[H])c3c(c(Cl)c(c(c3C2=O)[H])[H])[H])([H])[H])([H])[H])([H])[H])(C([C@](C([H])([H])[H])(O1)[H])([H])[H])[H])([H])[H])[H])([H])([H])[H]

>  <h>  (11) 
<NA>

>  <Training>  (11) 
True

>  <Success>  (11) 
True

>  <enamine_searched>  (11) 
False

>  <enamine_id>  (11) 
nan

$$$$

     RDKit          3D

 54 57  0  0  0  0  0  0  0  0999 V2000
    4.8796    1.9202   25.3045 C   0  0  0  0  0  0  0  0  0  0  0  0
    6.1361    1.9670   24.6641 O   0  0  0  0  0  0  0  0  0  0  0  0
    6.4402    2.9883   23.8105 C   0  0  0  0  0  0  0  0  0  0  0  0
    5.5515    4.0274   23.5139 C   0  0  0  0  0  0  0  0  0  0  0  0
    5.9384    5.0316   22.6260 C   0  0  0  0  0  0  0  0  0  0  0  0
    7.1972    5.0150   22.0461 C   0  0  0  0  0  0  0  0  0  0  0  0
    8.0723    3.9819   22.3668 C   0  0  0  0  0  0  0  0  0  0  0  0
    7.7274    2.9602   23.2379 C   0  0  0  0  0  0  0  0  0  0  0  0
    8.6568    1.7834   23.5087 C   0  0  2  0  0  0  0  0  0  0  0  0
   10.1648    2.0525   23.3440 C   0  0  0  0  0  0  0  0  0  0  0  0
   10.9924    0.8536   23.8300 C   0  0  2  0  0  0  0  0  0  0  0  0
   12.4879    1.0792   23.6141 C   0  0  0  0  0  0  0  0  0  0  0  0
   12.8383    1.9815   24.1250 H   0  0  0  0  0  0  0  0  0  0  0  0
   13.0862    0.2305   23.9682 H   0  0  0  0  0  0  0  0  0  0  0  0
   12.7018    1.2099   22.5487 H   0  0  0  0  0  0  0  0  0  0  0  0
   10.5199   -0.4274   23.1382 C   0  0  0  0  0  0  0  0  0  0  0  0
    8.9991   -0.6102   23.2631 C   0  0  0  0  0  0  0  0  0  0  0  0
    8.2611    0.5602   22.7869 N   0  0  0  0  0  0  0  0  0  0  0  0
    7.9300    0.6540   21.4241 C   0  0  0  0  0  0  0  0  0  0  0  0
    8.3445    1.5300   20.6961 O   0  0  0  0  0  0  0  0  0  0  0  0
    6.9761   -0.4305   20.8966 C   0  0  0  0  0  0  0  0  0  0  0  0
    6.1118    0.0833   19.7689 C   0  0  0  0  0  0  0  0  0  0  0  0
    6.4260   -0.2089   18.4679 C   0  0  0  0  0  0  0  0  0  0  0  0
    5.7573    0.2411   17.3734 N   0  0  0  0  0  0  0  0  0  0  0  0
    4.7320    1.0288   17.5803 C   0  0  0  0  0  0  0  0  0  0  0  0
    4.2850    1.4188   18.8696 C   0  0  0  0  0  0  0  0  0  0  0  0
    3.1662    2.2697   19.0474 C   0  0  0  0  0  0  0  0  0  0  0  0
    2.7625    2.6417   20.3003 C   0  0  0  0  0  0  0  0  0  0  0  0
    3.4644    2.1639   21.4327 C   0  0  0  0  0  0  0  0  0  0  0  0
    4.5479    1.3315   21.2910 C   0  0  0  0  0  0  0  0  0  0  0  0
    4.9927    0.9369   20.0020 C   0  0  0  0  0  0  0  0  0  0  0  0
    5.0714    0.9759   22.1743 H   0  0  0  0  0  0  0  0  0  0  0  0
    3.1370    2.4665   22.4245 H   0  0  0  0  0  0  0  0  0  0  0  0
    1.9130    3.3090   20.4261 H   0  0  0  0  0  0  0  0  0  0  0  0
    2.6555    2.6462   18.1640 H   0  0  0  0  0  0  0  0  0  0  0  0
    4.2018    1.3959   16.6984 H   0  0  0  0  0  0  0  0  0  0  0  0
    7.2737   -0.8523   18.2392 H   0  0  0  0  0  0  0  0  0  0  0  0
    6.3692   -0.8302   21.7210 H   0  0  0  0  0  0  0  0  0  0  0  0
    7.5889   -1.2637   20.5238 H   0  0  0  0  0  0  0  0  0  0  0  0
    8.6692   -1.4845   22.6983 H   0  0  0  0  0  0  0  0  0  0  0  0
    8.7407   -0.7784   24.3179 H   0  0  0  0  0  0  0  0  0  0  0  0
   10.7968   -0.3853   22.0777 H   0  0  0  0  0  0  0  0  0  0  0  0
   11.0500   -1.2957   23.5531 H   0  0  0  0  0  0  0  0  0  0  0  0
   10.8232    0.7325   24.9094 H   0  0  0  0  0  0  0  0  0  0  0  0
   10.4542    2.9452   23.9141 H   0  0  0  0  0  0  0  0  0  0  0  0
   10.3989    2.2594   22.2926 H   0  0  0  0  0  0  0  0  0  0  0  0
    8.5169    1.5180   24.5620 H   0  0  0  0  0  0  0  0  0  0  0  0
    9.0402    3.9593   21.8778 H   0  0  0  0  0  0  0  0  0  0  0  0
    7.5019    5.7835   21.3395 H   0  0  0  0  0  0  0  0  0  0  0  0
    5.2507    5.8351   22.3804 H   0  0  0  0  0  0  0  0  0  0  0  0
    4.5617    4.0695   23.9622 H   0  0  0  0  0  0  0  0  0  0  0  0
    4.6958    2.7758   25.9653 H   0  0  0  0  0  0  0  0  0  0  0  0
    4.9061    1.0231   25.9182 H   0  0  0  0  0  0  0  0  0  0  0  0
    4.0306    1.8264   24.6145 H   0  0  0  0  0  0  0  0  0  0  0  0
  1  2  1  0
  2  3  1  0
  3  4  2  0
  4  5  1  0
  5  6  2  0
  6  7  1  0
  7  8  2  0
  8  9  1  0
  9 10  1  0
 10 11  1  0
 11 12  1  0
 12 13  1  0
 12 14  1  0
 12 15  1  0
 11 16  1  0
 16 17  1  0
 17 18  1  0
 18 19  1  0
 19 20  2  0
 19 21  1  0
 21 22  1  0
 22 23  2  0
 23 24  1  0
 24 25  2  0
 25 26  1  0
 26 27  2  0
 27 28  1  0
 28 29  2  0
 29 30  1  0
 30 31  2  0
 30 32  1  0
 29 33  1  0
 28 34  1  0
 27 35  1  0
 25 36  1  0
 23 37  1  0
 21 38  1  0
 21 39  1  0
 17 40  1  0
 17 41  1  0
 16 42  1  0
 16 43  1  0
 11 44  1  1
 10 45  1  0
 10 46  1  0
  9 47  1  1
  7 48  1  0
  6 49  1  0
  5 50  1  0
  4 51  1  0
  1 52  1  0
  1 53  1  0
  1 54  1  0
  8  3  1  0
 18  9  1  0
 31 22  1  0
 31 26  1  0
M  END
>  <cnnaffinities>  (12) 
[5.87479]

>  <score>  (12) 
5.87479

>  <index>  (12) 
11

>  <Smiles>  (12) 
C(Oc1c(c(c(c(c1[C@@]1(C([C@](C([H])([H])[H])(C(C(N1C(=O)C(c1c(nc(c2c(c(c(c(c12)[H])[H])[H])[H])[H])[H])([H])[H])([H])[H])([H])[H])[H])([H])[H])[H])[H])[H])[H])[H])([H])([H])[H]

>  <h>  (12) 
<NA>

>  <Training>  (12) 
True

>  <Success>  (12) 
True

>  <enamine_searched>  (12) 
False

>  <enamine_id>  (12) 
nan

$$$$

     RDKit          3D

 47 50  0  0  0  0  0  0  0  0999 V2000
    5.5442   -2.4534   20.9636 O   0  0  0  0  0  0  0  0  0  0  0  0
    6.1670   -1.6402   21.6269 C   0  0  0  0  0  0  0  0  0  0  0  0
    6.9117   -0.4827   20.9213 C   0  0  0  0  0  0  0  0  0  0  0  0
    6.1151    0.0897   19.7711 C   0  0  0  0  0  0  0  0  0  0  0  0
    6.4211   -0.2144   18.4669 C   0  0  0  0  0  0  0  0  0  0  0  0
    5.7552    0.2379   17.3714 N   0  0  0  0  0  0  0  0  0  0  0  0
    4.7329    1.0317   17.5773 C   0  0  0  0  0  0  0  0  0  0  0  0
    4.2846    1.4214   18.8706 C   0  0  0  0  0  0  0  0  0  0  0  0
    3.1590    2.2668   19.0456 C   0  0  0  0  0  0  0  0  0  0  0  0
    2.7483    2.6256   20.3022 C   0  0  0  0  0  0  0  0  0  0  0  0
    3.4413    2.1405   21.4327 C   0  0  0  0  0  0  0  0  0  0  0  0
    4.5319    1.3163   21.2901 C   0  0  0  0  0  0  0  0  0  0  0  0
    4.9891    0.9389   19.9981 C   0  0  0  0  0  0  0  0  0  0  0  0
    5.0468    0.9527   22.1738 H   0  0  0  0  0  0  0  0  0  0  0  0
    3.1070    2.4273   22.4234 H   0  0  0  0  0  0  0  0  0  0  0  0
    1.8944    3.2829   20.4356 H   0  0  0  0  0  0  0  0  0  0  0  0
    2.6438    2.6437   18.1659 H   0  0  0  0  0  0  0  0  0  0  0  0
    4.1991    1.3990   16.6992 H   0  0  0  0  0  0  0  0  0  0  0  0
    7.2656   -0.8659   18.2467 H   0  0  0  0  0  0  0  0  0  0  0  0
    7.2159    0.3157   21.6081 H   0  0  0  0  0  0  0  0  0  0  0  0
    7.8395   -0.9047   20.5140 H   0  0  0  0  0  0  0  0  0  0  0  0
    6.2232   -1.7419   22.9882 N   0  0  0  0  0  0  0  0  0  0  0  0
    5.5944   -2.8701   23.6712 C   0  0  0  0  0  0  0  0  0  0  0  0
    6.1600   -2.8315   25.0931 C   0  0  2  0  0  0  0  0  0  0  0  0
    5.2630   -3.5318   26.1039 C   0  0  0  0  0  0  0  0  0  0  0  0
    5.8688   -3.6075   27.3535 F   0  0  0  0  0  0  0  0  0  0  0  0
    5.0414   -4.5609   25.7906 H   0  0  0  0  0  0  0  0  0  0  0  0
    4.3087   -3.0181   26.2407 H   0  0  0  0  0  0  0  0  0  0  0  0
    6.5136   -1.3365   25.3335 C   0  0  0  0  0  0  0  0  0  0  0  0
    7.6046   -1.1317   26.3878 C   0  0  0  0  0  0  0  0  0  0  0  0
    6.9548   -0.7417   27.7281 C   0  0  0  0  0  0  0  0  0  0  0  0
    5.4761   -0.4719   27.4141 C   0  0  0  0  0  0  0  0  0  0  0  0
    5.3514   -0.4940   25.8809 C   0  0  0  0  0  0  0  0  0  0  0  0
    4.3814   -0.8588   25.5383 H   0  0  0  0  0  0  0  0  0  0  0  0
    5.4489    0.5262   25.4999 H   0  0  0  0  0  0  0  0  0  0  0  0
    5.1529    0.4911   27.8164 H   0  0  0  0  0  0  0  0  0  0  0  0
    4.8474   -1.2394   27.8680 H   0  0  0  0  0  0  0  0  0  0  0  0
    7.0603   -1.5368   28.4702 H   0  0  0  0  0  0  0  0  0  0  0  0
    7.4496    0.1440   28.1380 H   0  0  0  0  0  0  0  0  0  0  0  0
    8.3067   -0.3539   26.0660 H   0  0  0  0  0  0  0  0  0  0  0  0
    8.1477   -2.0639   26.4848 H   0  0  0  0  0  0  0  0  0  0  0  0
    6.9557   -0.9003   23.9193 C   0  0  0  0  0  0  0  0  0  0  0  0
    6.7222    0.1546   23.7643 H   0  0  0  0  0  0  0  0  0  0  0  0
    8.0398   -1.0188   23.7942 H   0  0  0  0  0  0  0  0  0  0  0  0
    7.1029   -3.3933   25.1063 H   0  0  0  0  0  0  0  0  0  0  0  0
    5.8279   -3.8111   23.1711 H   0  0  0  0  0  0  0  0  0  0  0  0
    4.5033   -2.7733   23.6743 H   0  0  0  0  0  0  0  0  0  0  0  0
  1  2  2  0
  2  3  1  0
  3  4  1  0
  4  5  2  0
  5  6  1  0
  6  7  2  0
  7  8  1  0
  8  9  2  0
  9 10  1  0
 10 11  2  0
 11 12  1  0
 12 13  2  0
 12 14  1  0
 11 15  1  0
 10 16  1  0
  9 17  1  0
  7 18  1  0
  5 19  1  0
  3 20  1  0
  3 21  1  0
  2 22  1  0
 22 23  1  0
 23 24  1  0
 24 25  1  0
 25 26  1  0
 25 27  1  0
 25 28  1  0
 24 29  1  0
 29 30  1  0
 30 31  1  0
 31 32  1  0
 32 33  1  0
 33 34  1  0
 33 35  1  0
 32 36  1  0
 32 37  1  0
 31 38  1  0
 31 39  1  0
 30 40  1  0
 30 41  1  0
 29 42  1  0
 42 43  1  0
 42 44  1  0
 24 45  1  6
 23 46  1  0
 23 47  1  0
 13  4  1  0
 42 22  1  0
 13  8  1  0
 33 29  1  0
M  END
>  <cnnaffinities>  (13) 
[5.35867, 5.35791, 5.43307, 5.43554, 5.18596, 5.13878, 5.09217]

>  <score>  (13) 
5.35867

>  <index>  (13) 
12

>  <Smiles>  (13) 
O=C(C(c1c(nc(c2c(c(c(c(c12)[H])[H])[H])[H])[H])[H])([H])[H])N1C([C@](C(F)([H])[H])(C2(C(C(C(C2([H])[H])([H])[H])([H])[H])([H])[H])C1([H])[H])[H])([H])[H]

>  <h>  (13) 
<NA>

>  <Training>  (13) 
True

>  <Success>  (13) 
True

>  <enamine_searched>  (13) 
False

>  <enamine_id>  (13) 
nan

$$$$

     RDKit          3D

 67 72  0  0  0  0  0  0  0  0999 V2000
    7.6476   -8.4222   23.0357 C   0  0  0  0  0  0  0  0  0  0  0  0
    6.7013   -7.3552   22.7919 N   0  0  0  0  0  0  0  0  0  0  0  0
    6.8559   -6.5407   21.7091 C   0  0  0  0  0  0  0  0  0  0  0  0
    7.6199   -6.7518   20.7847 O   0  0  0  0  0  0  0  0  0  0  0  0
    6.0305   -5.2526   21.7516 C   0  0  0  0  0  0  0  0  0  0  0  0
    6.6063   -4.2945   22.6790 N   0  0  0  0  0  0  0  0  0  0  0  0
    7.7249   -3.4212   22.3360 C   0  0  0  0  0  0  0  0  0  0  0  0
    7.3985   -1.9456   22.6801 C   0  0  2  0  0  0  0  0  0  0  0  0
    6.3118   -1.4718   21.6812 C   0  0  0  0  0  0  0  0  0  0  0  0
    5.1906   -1.9215   21.5548 O   0  0  0  0  0  0  0  0  0  0  0  0
    6.8367   -0.4766   20.8820 N   0  0  0  0  0  0  0  0  0  0  0  0
    6.1050    0.0644   19.8051 C   0  0  0  0  0  0  0  0  0  0  0  0
    6.4637   -0.2168   18.5109 C   0  0  0  0  0  0  0  0  0  0  0  0
    5.8015    0.2290   17.4185 N   0  0  0  0  0  0  0  0  0  0  0  0
    4.7603    0.9990   17.6184 C   0  0  0  0  0  0  0  0  0  0  0  0
    4.2964    1.3860   18.9072 C   0  0  0  0  0  0  0  0  0  0  0  0
    3.1713    2.2353   19.0619 C   0  0  0  0  0  0  0  0  0  0  0  0
    2.7711    2.6343   20.3074 C   0  0  0  0  0  0  0  0  0  0  0  0
    3.4702    2.1963   21.4544 C   0  0  0  0  0  0  0  0  0  0  0  0
    4.5546    1.3618   21.3323 C   0  0  0  0  0  0  0  0  0  0  0  0
    4.9879    0.9248   20.0464 C   0  0  0  0  0  0  0  0  0  0  0  0
    5.0892    1.0283   22.2162 H   0  0  0  0  0  0  0  0  0  0  0  0
    3.1474    2.5296   22.4368 H   0  0  0  0  0  0  0  0  0  0  0  0
    1.9227    3.3034   20.4192 H   0  0  0  0  0  0  0  0  0  0  0  0
    2.6635    2.5831   18.1664 H   0  0  0  0  0  0  0  0  0  0  0  0
    4.2282    1.3591   16.7377 H   0  0  0  0  0  0  0  0  0  0  0  0
    7.3164   -0.8650   18.3135 H   0  0  0  0  0  0  0  0  0  0  0  0
    8.2770   -0.3849   20.9751 C   0  0  0  0  0  0  0  0  0  0  0  0
    8.5645   -0.9553   22.3665 C   0  0  2  0  0  0  0  0  0  0  0  0
    9.9866   -1.4755   22.4572 C   0  0  0  0  0  0  0  0  0  0  0  0
   10.2044   -1.9838   23.7539 O   0  0  0  0  0  0  0  0  0  0  0  0
   11.5334   -2.4181   23.9615 C   0  0  0  0  0  0  0  0  0  0  0  0
   12.4588   -1.3095   24.4063 C   0  0  0  0  0  0  0  0  0  0  0  0
   13.2084   -0.4859   23.4007 C   0  0  0  0  0  0  0  0  0  0  0  0
   13.9274   -1.5378   24.2055 C   0  0  0  0  0  0  0  0  0  0  0  0
   14.6319   -1.2329   24.9725 H   0  0  0  0  0  0  0  0  0  0  0  0
   14.2067   -2.4660   23.7119 H   0  0  0  0  0  0  0  0  0  0  0  0
   13.0251   -0.6579   22.3419 H   0  0  0  0  0  0  0  0  0  0  0  0
   13.3997    0.5532   23.6462 H   0  0  0  0  0  0  0  0  0  0  0  0
   12.1458   -0.7798   25.3020 H   0  0  0  0  0  0  0  0  0  0  0  0
   11.4829   -3.1970   24.7332 H   0  0  0  0  0  0  0  0  0  0  0  0
   11.9390   -2.8915   23.0479 H   0  0  0  0  0  0  0  0  0  0  0  0
   10.1492   -2.2592   21.6977 H   0  0  0  0  0  0  0  0  0  0  0  0
   10.7000   -0.6664   22.2298 H   0  0  0  0  0  0  0  0  0  0  0  0
    8.4756   -0.1382   23.0800 H   0  0  0  0  0  0  0  0  0  0  0  0
    8.6003    0.6559   20.8683 H   0  0  0  0  0  0  0  0  0  0  0  0
    8.7794   -0.9740   20.1916 H   0  0  0  0  0  0  0  0  0  0  0  0
    6.9153   -1.9384   24.1291 C   0  0  0  0  0  0  0  0  0  0  0  0
    6.8911   -0.7653   24.8942 C   0  0  0  0  0  0  0  0  0  0  0  0
    6.4309   -0.7924   26.2007 C   0  0  0  0  0  0  0  0  0  0  0  0
    6.3801    0.6948   27.1079 Cl  0  0  0  0  0  0  0  0  0  0  0  0
    6.0013   -1.9702   26.8140 C   0  0  0  0  0  0  0  0  0  0  0  0
    5.9937   -3.1254   26.0640 C   0  0  0  0  0  0  0  0  0  0  0  0
    6.4037   -3.0978   24.7368 C   0  0  0  0  0  0  0  0  0  0  0  0
    6.1631   -4.3347   23.9584 C   0  0  0  0  0  0  0  0  0  0  0  0
    5.5600   -5.3080   24.4211 O   0  0  0  0  0  0  0  0  0  0  0  0
    5.6430   -4.0736   26.4584 H   0  0  0  0  0  0  0  0  0  0  0  0
    5.6504   -1.9708   27.8388 H   0  0  0  0  0  0  0  0  0  0  0  0
    7.2065    0.1847   24.4785 H   0  0  0  0  0  0  0  0  0  0  0  0
    8.6156   -3.7259   22.8980 H   0  0  0  0  0  0  0  0  0  0  0  0
    7.9478   -3.5074   21.2792 H   0  0  0  0  0  0  0  0  0  0  0  0
    5.0137   -5.4545   22.1034 H   0  0  0  0  0  0  0  0  0  0  0  0
    5.9745   -4.8063   20.7547 H   0  0  0  0  0  0  0  0  0  0  0  0
    6.2052   -6.9588   23.5791 H   0  0  0  0  0  0  0  0  0  0  0  0
    7.1397   -9.2728   23.4997 H   0  0  0  0  0  0  0  0  0  0  0  0
    8.4821   -8.0823   23.6694 H   0  0  0  0  0  0  0  0  0  0  0  0
    8.0296   -8.7262   22.0655 H   0  0  0  0  0  0  0  0  0  0  0  0
  1  2  1  0
  2  3  1  0
  3  4  2  0
  3  5  1  0
  5  6  1  0
  6  7  1  0
  8  7  1  6
  8  9  1  0
  9 10  2  0
  9 11  1  0
 11 12  1  0
 12 13  2  0
 13 14  1  0
 14 15  2  0
 15 16  1  0
 16 17  2  0
 17 18  1  0
 18 19  2  0
 19 20  1  0
 20 21  2  0
 20 22  1  0
 19 23  1  0
 18 24  1  0
 17 25  1  0
 15 26  1  0
 13 27  1  0
 11 28  1  0
 28 29  1  0
 29 30  1  0
 30 31  1  0
 31 32  1  0
 32 33  1  0
 33 34  1  0
 34 35  1  0
 35 36  1  0
 35 37  1  0
 34 38  1  0
 34 39  1  0
 33 40  1  0
 32 41  1  0
 32 42  1  0
 30 43  1  0
 30 44  1  0
 29 45  1  1
 28 46  1  0
 28 47  1  0
  8 48  1  0
 48 49  2  0
 49 50  1  0
 50 51  1  0
 50 52  2  0
 52 53  1  0
 53 54  2  0
 54 55  1  0
 55 56  2  0
 53 57  1  0
 52 58  1  0
 49 59  1  0
  7 60  1  0
  7 61  1  0
  5 62  1  0
  5 63  1  0
  2 64  1  0
  1 65  1  0
  1 66  1  0
  1 67  1  0
 55  6  1  0
 29  8  1  0
 35 33  1  0
 54 48  1  0
 21 12  1  0
 21 16  1  0
M  END
>  <cnnaffinities>  (14) 
[7.23302]

>  <score>  (14) 
7.23302

>  <index>  (14) 
13

>  <Smiles>  (14) 
C(N(C(=O)C(N1C([C@@]2(C(=O)N(c3c(nc(c4c(c(c(c(c34)[H])[H])[H])[H])[H])[H])C([C@@]2(C(OC(C2(C(C2([H])[H])([H])[H])[H])([H])[H])([H])[H])[H])([H])[H])c2c(c(Cl)c(c(c2C1=O)[H])[H])[H])([H])[H])([H])[H])[H])([H])([H])[H]

>  <h>  (14) 
<NA>

>  <Training>  (14) 
True

>  <Success>  (14) 
True

>  <enamine_searched>  (14) 
False

>  <enamine_id>  (14) 
nan

$$$$

     RDKit          3D

 67 73  0  0  0  0  0  0  0  0999 V2000
    7.3850   -2.4003   23.9121 C   0  0  0  0  0  0  0  0  0  0  0  0
    7.7420   -1.7637   22.5682 C   0  0  1  0  0  0  0  0  0  0  0  0
    6.5260   -1.5407   21.6526 C   0  0  0  0  0  0  0  0  0  0  0  0
    6.9184   -0.4157   20.8240 N   0  0  0  0  0  0  0  0  0  0  0  0
    6.1361    0.1061   19.7622 C   0  0  0  0  0  0  0  0  0  0  0  0
    6.4550   -0.2095   18.4657 C   0  0  0  0  0  0  0  0  0  0  0  0
    5.7689    0.2287   17.3859 N   0  0  0  0  0  0  0  0  0  0  0  0
    4.7439    1.0174   17.5974 C   0  0  0  0  0  0  0  0  0  0  0  0
    4.2951    1.4180   18.8896 C   0  0  0  0  0  0  0  0  0  0  0  0
    3.1672    2.2632   19.0651 C   0  0  0  0  0  0  0  0  0  0  0  0
    2.7587    2.6256   20.3202 C   0  0  0  0  0  0  0  0  0  0  0  0
    3.4570    2.1552   21.4530 C   0  0  0  0  0  0  0  0  0  0  0  0
    4.5604    1.3473   21.3095 C   0  0  0  0  0  0  0  0  0  0  0  0
    5.0082    0.9523   20.0159 C   0  0  0  0  0  0  0  0  0  0  0  0
    5.0923    1.0020   22.1890 H   0  0  0  0  0  0  0  0  0  0  0  0
    3.1245    2.4441   22.4455 H   0  0  0  0  0  0  0  0  0  0  0  0
    1.9105    3.2942   20.4450 H   0  0  0  0  0  0  0  0  0  0  0  0
    2.6591    2.6295   18.1799 H   0  0  0  0  0  0  0  0  0  0  0  0
    4.2108    1.3801   16.7205 H   0  0  0  0  0  0  0  0  0  0  0  0
    7.3034   -0.8601   18.2634 H   0  0  0  0  0  0  0  0  0  0  0  0
    8.0289    0.2549   21.2738 C   0  0  0  0  0  0  0  0  0  0  0  0
    8.5565    1.1821   20.6945 O   0  0  0  0  0  0  0  0  0  0  0  0
    8.4672   -0.3847   22.6111 C   0  0  1  0  0  0  0  0  0  0  0  0
    8.0278    0.4729   23.8152 C   0  0  0  0  0  0  0  0  0  0  0  0
    8.7206    1.7444   23.8732 N   0  0  0  0  0  0  0  0  0  0  0  0
    7.9689    2.9737   24.0283 C   0  0  0  0  0  0  0  0  0  0  0  0
    7.7016    3.6471   22.6826 C   0  0  0  0  0  0  0  0  0  0  0  0
    6.9497    4.9302   22.8372 N   0  0  2  0  0  4  0  0  0  0  0  0
    5.4617    4.7673   23.2220 C   0  0  0  0  0  0  0  0  0  0  0  0
    4.7400    5.5007   22.0820 C   0  0  2  0  0  0  0  0  0  0  0  0
    5.5970    5.1282   20.8750 C   0  0  0  0  0  0  0  0  0  0  0  0
    6.8501    5.7156   21.5316 C   0  0  1  0  0  0  0  0  0  0  0  0
    6.3394    7.1128   21.8652 C   0  0  0  0  0  0  0  0  0  0  0  0
    4.9644    6.9065   22.2267 O   0  0  0  0  0  0  0  0  0  0  0  0
    6.8848    7.5663   22.7006 H   0  0  0  0  0  0  0  0  0  0  0  0
    6.3897    7.7843   20.9982 H   0  0  0  0  0  0  0  0  0  0  0  0
    7.7952    5.6828   21.0011 H   0  0  0  0  0  0  0  0  0  0  0  0
    5.6192    4.0534   20.6591 H   0  0  0  0  0  0  0  0  0  0  0  0
    5.3132    5.6976   19.9997 H   0  0  0  0  0  0  0  0  0  0  0  0
    3.6655    5.3381   22.0248 H   0  0  0  0  0  0  0  0  0  0  0  0
    5.2146    3.7029   23.2301 H   0  0  0  0  0  0  0  0  0  0  0  0
    5.2787    5.2141   24.1955 H   0  0  0  0  0  0  0  0  0  0  0  0
    7.4557    5.4992   23.5391 H   0  0  0  0  0  0  0  0  0  0  0  0
    8.6546    3.8513   22.1811 H   0  0  0  0  0  0  0  0  0  0  0  0
    7.1353    2.9676   22.0347 H   0  0  0  0  0  0  0  0  0  0  0  0
    8.5421    3.6367   24.6802 H   0  0  0  0  0  0  0  0  0  0  0  0
    7.0256    2.7103   24.5186 H   0  0  0  0  0  0  0  0  0  0  0  0
   10.0764    1.8207   23.7648 C   0  0  0  0  0  0  0  0  0  0  0  0
   10.7177    2.8174   24.0737 O   0  0  0  0  0  0  0  0  0  0  0  0
   10.7287    0.5915   23.2097 C   0  0  0  0  0  0  0  0  0  0  0  0
   12.1212    0.5232   23.1825 C   0  0  0  0  0  0  0  0  0  0  0  0
   12.7496   -0.5271   22.5402 C   0  0  0  0  0  0  0  0  0  0  0  0
   11.9709   -1.4897   21.8704 C   0  0  0  0  0  0  0  0  0  0  0  0
   12.4956   -2.7892   20.8077 Cl  0  0  0  0  0  0  0  0  0  0  0  0
   10.6042   -1.4499   21.9457 C   0  0  0  0  0  0  0  0  0  0  0  0
    9.9642   -0.4402   22.6464 C   0  0  0  0  0  0  0  0  0  0  0  0
   10.0605   -2.2161   21.4003 H   0  0  0  0  0  0  0  0  0  0  0  0
   13.8370   -0.5243   22.5597 H   0  0  0  0  0  0  0  0  0  0  0  0
   12.7191    1.3155   23.6373 H   0  0  0  0  0  0  0  0  0  0  0  0
    6.9546    0.6678   23.7407 H   0  0  0  0  0  0  0  0  0  0  0  0
    8.2306   -0.1054   24.7295 H   0  0  0  0  0  0  0  0  0  0  0  0
    6.3038   -2.4153   21.0322 H   0  0  0  0  0  0  0  0  0  0  0  0
    5.6300   -1.3146   22.2471 H   0  0  0  0  0  0  0  0  0  0  0  0
    8.4101   -2.4509   22.0473 H   0  0  0  0  0  0  0  0  0  0  0  0
    8.2601   -2.5107   24.5653 H   0  0  0  0  0  0  0  0  0  0  0  0
    6.9490   -3.3963   23.7717 H   0  0  0  0  0  0  0  0  0  0  0  0
    6.6444   -1.7912   24.4431 H   0  0  0  0  0  0  0  0  0  0  0  0
  1  2  1  0
  2  3  1  0
  3  4  1  0
  4  5  1  0
  5  6  2  0
  6  7  1  0
  7  8  2  0
  8  9  1  0
  9 10  2  0
 10 11  1  0
 11 12  2  0
 12 13  1  0
 13 14  2  0
 13 15  1  0
 12 16  1  0
 11 17  1  0
 10 18  1  0
  8 19  1  0
  6 20  1  0
  4 21  1  0
 21 22  2  0
 21 23  1  0
 23 24  1  1
 24 25  1  0
 25 26  1  0
 26 27  1  0
 27 28  1  0
 28 29  1  0
 29 30  1  0
 30 31  1  0
 31 32  1  0
 32 33  1  0
 33 34  1  0
 33 35  1  0
 33 36  1  0
 32 37  1  6
 31 38  1  0
 31 39  1  0
 30 40  1  6
 29 41  1  0
 29 42  1  0
 28 43  1  1
 27 44  1  0
 27 45  1  0
 26 46  1  0
 26 47  1  0
 25 48  1  0
 48 49  2  0
 48 50  1  0
 50 51  2  0
 51 52  1  0
 52 53  2  0
 53 54  1  0
 53 55  1  0
 55 56  2  0
 55 57  1  0
 52 58  1  0
 51 59  1  0
 24 60  1  0
 24 61  1  0
  3 62  1  0
  3 63  1  0
  2 64  1  6
  1 65  1  0
  1 66  1  0
  1 67  1  0
 23  2  1  0
 32 28  1  0
 56 50  1  0
 14  5  1  0
 56 23  1  0
 14  9  1  0
 34 30  1  0
M  CHG  1  28   1
M  END
>  <cnnaffinities>  (15) 
[6.56686]

>  <score>  (15) 
6.56686

>  <index>  (15) 
14

>  <Smiles>  (15) 
C([C@]1(C(N(c2c(nc(c3c(c(c(c(c23)[H])[H])[H])[H])[H])[H])C(=O)[C@]21C(N(C(C([N@@+]1(C([C@@]3(C([C@]1(C(O3)([H])[H])[H])([H])[H])[H])([H])[H])[H])([H])[H])([H])[H])C(=O)c1c(c(c(Cl)c(c21)[H])[H])[H])([H])[H])([H])[H])[H])([H])([H])[H]

>  <h>  (15) 
<NA>

>  <Training>  (15) 
True

>  <Success>  (15) 
True

>  <enamine_searched>  (15) 
False

>  <enamine_id>  (15) 
nan

$$$$

     RDKit          3D

 72 77  0  0  0  0  0  0  0  0999 V2000
    6.9641    7.7625   21.5453 C   0  0  0  0  0  0  0  0  0  0  0  0
    5.9815    6.6102   21.4614 C   0  0  1  0  0  0  0  0  0  0  0  0
    6.7142    5.2636   21.3866 C   0  0  0  0  0  0  0  0  0  0  0  0
    6.9419    4.6852   22.7400 N   0  0  2  0  0  4  0  0  0  0  0  0
    7.6482    3.3897   22.6355 C   0  0  0  0  0  0  0  0  0  0  0  0
    8.0853    2.8651   23.9953 C   0  0  0  0  0  0  0  0  0  0  0  0
    8.7893    1.6164   23.8335 N   0  0  0  0  0  0  0  0  0  0  0  0
    8.0894    0.3504   23.7626 C   0  0  0  0  0  0  0  0  0  0  0  0
    8.4992   -0.4772   22.5126 C   0  0  2  0  0  0  0  0  0  0  0  0
    8.0430    0.1780   21.1889 C   0  0  0  0  0  0  0  0  0  0  0  0
    8.5872    1.0703   20.5743 O   0  0  0  0  0  0  0  0  0  0  0  0
    6.8831   -0.4478   20.7918 N   0  0  0  0  0  0  0  0  0  0  0  0
    6.1090    0.0807   19.7380 C   0  0  0  0  0  0  0  0  0  0  0  0
    6.4484   -0.2036   18.4401 C   0  0  0  0  0  0  0  0  0  0  0  0
    5.7584    0.2369   17.3628 N   0  0  0  0  0  0  0  0  0  0  0  0
    4.7264    1.0123   17.5896 C   0  0  0  0  0  0  0  0  0  0  0  0
    4.2901    1.4078   18.8877 C   0  0  0  0  0  0  0  0  0  0  0  0
    3.1821    2.2701   19.0741 C   0  0  0  0  0  0  0  0  0  0  0  0
    2.8011    2.6468   20.3311 C   0  0  0  0  0  0  0  0  0  0  0  0
    3.4957    2.1700   21.4629 C   0  0  0  0  0  0  0  0  0  0  0  0
    4.5739    1.3296   21.3153 C   0  0  0  0  0  0  0  0  0  0  0  0
    4.9940    0.9287   20.0111 C   0  0  0  0  0  0  0  0  0  0  0  0
    5.1085    0.9948   22.1988 H   0  0  0  0  0  0  0  0  0  0  0  0
    3.1716    2.4729   22.4528 H   0  0  0  0  0  0  0  0  0  0  0  0
    1.9614    3.3193   20.4623 H   0  0  0  0  0  0  0  0  0  0  0  0
    2.6690    2.6332   18.1917 H   0  0  0  0  0  0  0  0  0  0  0  0
    4.1740    1.3708   16.7235 H   0  0  0  0  0  0  0  0  0  0  0  0
    7.3170   -0.8291   18.2469 H   0  0  0  0  0  0  0  0  0  0  0  0
    6.4626   -1.5314   21.6594 C   0  0  0  0  0  0  0  0  0  0  0  0
    7.7540   -1.8326   22.4301 C   0  0  2  0  0  0  0  0  0  0  0  0
    7.5643   -2.5697   23.7446 C   0  0  0  0  0  0  0  0  0  0  0  0
    7.0995   -3.5469   23.5777 H   0  0  0  0  0  0  0  0  0  0  0  0
    8.5320   -2.7288   24.2339 H   0  0  0  0  0  0  0  0  0  0  0  0
    6.9243   -2.0007   24.4303 H   0  0  0  0  0  0  0  0  0  0  0  0
    8.3357   -2.4691   21.7577 H   0  0  0  0  0  0  0  0  0  0  0  0
    5.6396   -1.2454   22.3362 H   0  0  0  0  0  0  0  0  0  0  0  0
    6.1251   -2.3877   21.0638 H   0  0  0  0  0  0  0  0  0  0  0  0
    9.9974   -0.5565   22.4982 C   0  0  0  0  0  0  0  0  0  0  0  0
   10.6363   -1.5423   21.7502 C   0  0  0  0  0  0  0  0  0  0  0  0
   11.9939   -1.4935   21.5602 C   0  0  0  0  0  0  0  0  0  0  0  0
   12.6343   -2.5998   20.3659 Cl  0  0  0  0  0  0  0  0  0  0  0  0
   12.7627   -0.5187   22.2141 C   0  0  0  0  0  0  0  0  0  0  0  0
   12.1345    0.4717   22.9272 C   0  0  0  0  0  0  0  0  0  0  0  0
   10.7582    0.4861   23.0293 C   0  0  0  0  0  0  0  0  0  0  0  0
   10.1310    1.6894   23.6331 C   0  0  0  0  0  0  0  0  0  0  0  0
   10.7833    2.7018   23.8939 O   0  0  0  0  0  0  0  0  0  0  0  0
   12.7088    1.2782   23.3642 H   0  0  0  0  0  0  0  0  0  0  0  0
   13.8337   -0.4376   22.1280 H   0  0  0  0  0  0  0  0  0  0  0  0
   10.0848   -2.3523   21.2913 H   0  0  0  0  0  0  0  0  0  0  0  0
    8.3532   -0.2444   24.6470 H   0  0  0  0  0  0  0  0  0  0  0  0
    7.0066    0.5330   23.7999 H   0  0  0  0  0  0  0  0  0  0  0  0
    8.7727    3.5846   24.4493 H   0  0  0  0  0  0  0  0  0  0  0  0
    7.2297    2.7304   24.6678 H   0  0  0  0  0  0  0  0  0  0  0  0
    8.5292    3.5105   21.9957 H   0  0  0  0  0  0  0  0  0  0  0  0
    6.9913    2.6670   22.1383 H   0  0  0  0  0  0  0  0  0  0  0  0
    5.6821    4.6062   23.6054 C   0  0  1  0  0  0  0  0  0  0  0  0
    5.9930    5.1328   25.0086 C   0  0  0  0  0  0  0  0  0  0  0  0
    5.1297    5.0056   25.6684 H   0  0  0  0  0  0  0  0  0  0  0  0
    6.2407    6.1969   24.9397 H   0  0  0  0  0  0  0  0  0  0  0  0
    6.8460    4.6176   25.4603 H   0  0  0  0  0  0  0  0  0  0  0  0
    4.5896    5.4197   22.9253 C   0  0  0  0  0  0  0  0  0  0  0  0
    5.1129    6.6832   22.5855 O   0  0  0  0  0  0  0  0  0  0  0  0
    3.7538    5.5755   23.6132 H   0  0  0  0  0  0  0  0  0  0  0  0
    4.1965    4.8928   22.0419 H   0  0  0  0  0  0  0  0  0  0  0  0
    5.3724    3.5565   23.6406 H   0  0  0  0  0  0  0  0  0  0  0  0
    7.5945    5.3293   23.2286 H   0  0  0  0  0  0  0  0  0  0  0  0
    7.6860    5.4135   20.9136 H   0  0  0  0  0  0  0  0  0  0  0  0
    6.1666    4.5334   20.7748 H   0  0  0  0  0  0  0  0  0  0  0  0
    5.3862    6.7036   20.5375 H   0  0  0  0  0  0  0  0  0  0  0  0
    6.4557    8.7292   21.5409 H   0  0  0  0  0  0  0  0  0  0  0  0
    7.5841    7.6795   22.4465 H   0  0  0  0  0  0  0  0  0  0  0  0
    7.6197    7.7026   20.6760 H   0  0  0  0  0  0  0  0  0  0  0  0
  1  2  1  0
  2  3  1  0
  3  4  1  0
  4  5  1  0
  5  6  1  0
  6  7  1  0
  7  8  1  0
  9  8  1  1
  9 10  1  0
 10 11  2  0
 10 12  1  0
 12 13  1  0
 13 14  2  0
 14 15  1  0
 15 16  2  0
 16 17  1  0
 17 18  2  0
 18 19  1  0
 19 20  2  0
 20 21  1  0
 21 22  2  0
 21 23  1  0
 20 24  1  0
 19 25  1  0
 18 26  1  0
 16 27  1  0
 14 28  1  0
 12 29  1  0
 29 30  1  0
 30 31  1  0
 31 32  1  0
 31 33  1  0
 31 34  1  0
 30 35  1  6
 29 36  1  0
 29 37  1  0
  9 38  1  0
 38 39  2  0
 39 40  1  0
 40 41  1  0
 40 42  2  0
 42 43  1  0
 43 44  2  0
 44 45  1  0
 45 46  2  0
 43 47  1  0
 42 48  1  0
 39 49  1  0
  8 50  1  0
  8 51  1  0
  6 52  1  0
  6 53  1  0
  5 54  1  0
  5 55  1  0
  4 56  1  0
 56 57  1  0
 57 58  1  0
 57 59  1  0
 57 60  1  0
 56 61  1  0
 61 62  1  0
 61 63  1  0
 61 64  1  0
 56 65  1  1
  4 66  1  1
  3 67  1  0
  3 68  1  0
  2 69  1  6
  1 70  1  0
  1 71  1  0
  1 72  1  0
 62  2  1  0
 45  7  1  0
 30  9  1  0
 44 38  1  0
 22 13  1  0
 22 17  1  0
M  CHG  1   4   1
M  END
>  <cnnaffinities>  (16) 
[6.63395]

>  <score>  (16) 
6.63395

>  <index>  (16) 
15

>  <Smiles>  (16) 
C([C@]1(C([N@+](C(C(N2C([C@@]3(C(=O)N(c4c(nc(c5c(c(c(c(c45)[H])[H])[H])[H])[H])[H])C([C@@]3(C([H])([H])[H])[H])([H])[H])c3c(c(Cl)c(c(c3C2=O)[H])[H])[H])([H])[H])([H])[H])([H])[H])([C@@](C([H])([H])[H])(C(O1)([H])[H])[H])[H])([H])[H])[H])([H])([H])[H]

>  <h>  (16) 
<NA>

>  <Training>  (16) 
True

>  <Success>  (16) 
True

>  <enamine_searched>  (16) 
False

>  <enamine_id>  (16) 
nan

$$$$

     RDKit          3D

 47 50  0  0  0  0  0  0  0  0999 V2000
    8.6407   -4.5099   23.9882 C   0  0  0  0  0  0  0  0  0  0  0  0
    7.3764   -3.7667   24.4107 C   0  0  1  0  0  0  0  0  0  0  0  0
    7.6857   -2.3607   24.9372 C   0  0  0  0  0  0  0  0  0  0  0  0
    7.4141   -1.3769   23.7819 C   0  0  2  0  0  0  0  0  0  0  0  0
    6.6542   -0.1527   24.2668 C   0  0  0  0  0  0  0  0  0  0  0  0
    5.3232   -0.2573   24.6739 C   0  0  0  0  0  0  0  0  0  0  0  0
    4.6280    0.8574   25.1259 C   0  0  0  0  0  0  0  0  0  0  0  0
    5.2627    2.0953   25.1906 C   0  0  0  0  0  0  0  0  0  0  0  0
    6.5980    2.2045   24.8154 C   0  0  0  0  0  0  0  0  0  0  0  0
    7.2894    1.0838   24.3627 C   0  0  0  0  0  0  0  0  0  0  0  0
    8.3347    1.1724   24.0711 H   0  0  0  0  0  0  0  0  0  0  0  0
    7.0997    3.1658   24.8530 H   0  0  0  0  0  0  0  0  0  0  0  0
    4.7164    2.9700   25.5293 H   0  0  0  0  0  0  0  0  0  0  0  0
    3.5884    0.7608   25.4273 H   0  0  0  0  0  0  0  0  0  0  0  0
    4.8175   -1.2195   24.6455 H   0  0  0  0  0  0  0  0  0  0  0  0
    6.6906   -2.1630   22.7891 N   0  0  0  0  0  0  0  0  0  0  0  0
    6.2476   -1.7363   21.5627 C   0  0  0  0  0  0  0  0  0  0  0  0
    5.3928   -2.3602   20.9510 O   0  0  0  0  0  0  0  0  0  0  0  0
    6.9148   -0.4918   20.9194 C   0  0  0  0  0  0  0  0  0  0  0  0
    6.1138    0.0844   19.7748 C   0  0  0  0  0  0  0  0  0  0  0  0
    6.4198   -0.2146   18.4704 C   0  0  0  0  0  0  0  0  0  0  0  0
    5.7550    0.2384   17.3743 N   0  0  0  0  0  0  0  0  0  0  0  0
    4.7328    1.0317   17.5788 C   0  0  0  0  0  0  0  0  0  0  0  0
    4.2839    1.4196   18.8735 C   0  0  0  0  0  0  0  0  0  0  0  0
    3.1593    2.2668   19.0467 C   0  0  0  0  0  0  0  0  0  0  0  0
    2.7501    2.6249   20.3015 C   0  0  0  0  0  0  0  0  0  0  0  0
    3.4448    2.1365   21.4305 C   0  0  0  0  0  0  0  0  0  0  0  0
    4.5337    1.3101   21.2977 C   0  0  0  0  0  0  0  0  0  0  0  0
    4.9870    0.9350   20.0016 C   0  0  0  0  0  0  0  0  0  0  0  0
    5.0468    0.9460   22.1872 H   0  0  0  0  0  0  0  0  0  0  0  0
    3.1088    2.4256   22.4201 H   0  0  0  0  0  0  0  0  0  0  0  0
    1.8968    3.2851   20.4372 H   0  0  0  0  0  0  0  0  0  0  0  0
    2.6462    2.6442   18.1662 H   0  0  0  0  0  0  0  0  0  0  0  0
    4.2004    1.3987   16.6992 H   0  0  0  0  0  0  0  0  0  0  0  0
    7.2642   -0.8662   18.2455 H   0  0  0  0  0  0  0  0  0  0  0  0
    7.1486    0.2857   21.6567 H   0  0  0  0  0  0  0  0  0  0  0  0
    7.8826   -0.8263   20.5193 H   0  0  0  0  0  0  0  0  0  0  0  0
    6.4166   -3.5248   23.2376 C   0  0  0  0  0  0  0  0  0  0  0  0
    5.3668   -3.6593   23.5300 H   0  0  0  0  0  0  0  0  0  0  0  0
    6.5996   -4.2142   22.4121 H   0  0  0  0  0  0  0  0  0  0  0  0
    8.3620   -1.0492   23.3420 H   0  0  0  0  0  0  0  0  0  0  0  0
    7.0665   -2.1263   25.8072 H   0  0  0  0  0  0  0  0  0  0  0  0
    8.7179   -2.2761   25.2774 H   0  0  0  0  0  0  0  0  0  0  0  0
    6.8854   -4.3581   25.1864 H   0  0  0  0  0  0  0  0  0  0  0  0
    9.1788   -3.9568   23.2139 H   0  0  0  0  0  0  0  0  0  0  0  0
    8.4032   -5.5015   23.5935 H   0  0  0  0  0  0  0  0  0  0  0  0
    9.3246   -4.6397   24.8324 H   0  0  0  0  0  0  0  0  0  0  0  0
  1  2  1  0
  2  3  1  0
  3  4  1  0
  4  5  1  0
  5  6  2  0
  6  7  1  0
  7  8  2  0
  8  9  1  0
  9 10  2  0
 10 11  1  0
  9 12  1  0
  8 13  1  0
  7 14  1  0
  6 15  1  0
  4 16  1  0
 16 17  1  0
 17 18  2  0
 17 19  1  0
 19 20  1  0
 20 21  2  0
 21 22  1  0
 22 23  2  0
 23 24  1  0
 24 25  2  0
 25 26  1  0
 26 27  2  0
 27 28  1  0
 28 29  2  0
 28 30  1  0
 27 31  1  0
 26 32  1  0
 25 33  1  0
 23 34  1  0
 21 35  1  0
 19 36  1  0
 19 37  1  0
 16 38  1  0
 38 39  1  0
 38 40  1  0
  4 41  1  6
  3 42  1  0
  3 43  1  0
  2 44  1  1
  1 45  1  0
  1 46  1  0
  1 47  1  0
 38  2  1  0
 10  5  1  0
 29 20  1  0
 29 24  1  0
M  END
>  <cnnaffinities>  (17) 
[5.63934, 5.56994]

>  <score>  (17) 
5.63934

>  <index>  (17) 
16

>  <Smiles>  (17) 
C([C@]1(C([C@](c2c(c(c(c(c2[H])[H])[H])[H])[H])(N(C(=O)C(c2c(nc(c3c(c(c(c(c23)[H])[H])[H])[H])[H])[H])([H])[H])C1([H])[H])[H])([H])[H])[H])([H])([H])[H]

>  <h>  (17) 
<NA>

>  <Training>  (17) 
True

>  <Success>  (17) 
True

>  <enamine_searched>  (17) 
False

>  <enamine_id>  (17) 
nan

$$$$

     RDKit          3D

 58 63  0  0  0  0  0  0  0  0999 V2000
    9.7168   -1.9626   21.8338 C   0  0  0  0  0  0  0  0  0  0  0  0
    8.6451   -0.9751   22.3135 C   0  0  1  0  0  0  0  0  0  0  0  0
    8.2010   -0.0640   21.1546 C   0  0  0  0  0  0  0  0  0  0  0  0
    6.8655   -0.5016   20.8325 N   0  0  0  0  0  0  0  0  0  0  0  0
    6.1032    0.0505   19.7824 C   0  0  0  0  0  0  0  0  0  0  0  0
    6.4569   -0.2200   18.4858 C   0  0  0  0  0  0  0  0  0  0  0  0
    5.7883    0.2342   17.4018 N   0  0  0  0  0  0  0  0  0  0  0  0
    4.7513    1.0071   17.6133 C   0  0  0  0  0  0  0  0  0  0  0  0
    4.2977    1.3872   18.9089 C   0  0  0  0  0  0  0  0  0  0  0  0
    3.1796    2.2448   19.0711 C   0  0  0  0  0  0  0  0  0  0  0  0
    2.7836    2.6410   20.3173 C   0  0  0  0  0  0  0  0  0  0  0  0
    3.4824    2.1899   21.4609 C   0  0  0  0  0  0  0  0  0  0  0  0
    4.5615    1.3491   21.3372 C   0  0  0  0  0  0  0  0  0  0  0  0
    4.9905    0.9135   20.0441 C   0  0  0  0  0  0  0  0  0  0  0  0
    5.0951    1.0206   22.2304 H   0  0  0  0  0  0  0  0  0  0  0  0
    3.1646    2.5213   22.4458 H   0  0  0  0  0  0  0  0  0  0  0  0
    1.9360    3.3107   20.4360 H   0  0  0  0  0  0  0  0  0  0  0  0
    2.6731    2.6034   18.1793 H   0  0  0  0  0  0  0  0  0  0  0  0
    4.2180    1.3842   16.7384 H   0  0  0  0  0  0  0  0  0  0  0  0
    7.3082   -0.8718   18.2866 H   0  0  0  0  0  0  0  0  0  0  0  0
    6.3308   -1.4014   21.7131 C   0  0  0  0  0  0  0  0  0  0  0  0
    5.2468   -1.9308   21.5738 O   0  0  0  0  0  0  0  0  0  0  0  0
    7.3306   -1.6007   22.8664 C   0  0  1  0  0  0  0  0  0  0  0  0
    7.4642   -3.0975   23.1838 C   0  0  0  0  0  0  0  0  0  0  0  0
    6.2703   -3.6328   23.8134 N   0  0  0  0  0  0  0  0  0  0  0  0
    5.6803   -4.8193   23.2145 C   0  0  0  0  0  0  0  0  0  0  0  0
    6.6247   -5.9776   23.2665 C   0  0  0  0  0  0  0  0  0  0  0  0
    7.3445   -6.4510   22.2837 N   0  0  0  0  0  0  0  0  0  0  0  0
    8.0510   -7.5243   22.7743 N   0  0  0  0  0  0  0  0  0  0  0  0
    7.7413   -7.6450   24.0370 C   0  0  0  0  0  0  0  0  0  0  0  0
    6.8596   -6.6722   24.4139 N   0  0  0  0  0  0  0  0  0  0  0  0
    6.2097   -6.3305   25.6666 C   0  0  0  0  0  0  0  0  0  0  0  0
    5.1358   -6.4870   25.5808 H   0  0  0  0  0  0  0  0  0  0  0  0
    6.3835   -5.2737   25.8780 H   0  0  0  0  0  0  0  0  0  0  0  0
    6.5928   -6.8897   26.5122 H   0  0  0  0  0  0  0  0  0  0  0  0
    8.1014   -8.4191   24.6956 H   0  0  0  0  0  0  0  0  0  0  0  0
    5.4466   -4.5997   22.1690 H   0  0  0  0  0  0  0  0  0  0  0  0
    4.7425   -5.0071   23.7476 H   0  0  0  0  0  0  0  0  0  0  0  0
    5.6441   -3.0016   24.8407 C   0  0  0  0  0  0  0  0  0  0  0  0
    4.7866   -3.5405   25.5373 O   0  0  0  0  0  0  0  0  0  0  0  0
    6.0472   -1.5843   25.0599 C   0  0  0  0  0  0  0  0  0  0  0  0
    5.5613   -0.9636   26.2075 C   0  0  0  0  0  0  0  0  0  0  0  0
    5.8000    0.3759   26.4301 C   0  0  0  0  0  0  0  0  0  0  0  0
    6.5250    1.0664   25.4655 C   0  0  0  0  0  0  0  0  0  0  0  0
    6.7513    2.3771   25.6610 F   0  0  0  0  0  0  0  0  0  0  0  0
    7.0269    0.4718   24.3221 C   0  0  0  0  0  0  0  0  0  0  0  0
    6.8167   -0.8960   24.1163 C   0  0  0  0  0  0  0  0  0  0  0  0
    7.5841    1.0815   23.6167 H   0  0  0  0  0  0  0  0  0  0  0  0
    5.4217    0.8997   27.3019 H   0  0  0  0  0  0  0  0  0  0  0  0
    4.9835   -1.5689   26.8964 H   0  0  0  0  0  0  0  0  0  0  0  0
    7.6307   -3.6633   22.2687 H   0  0  0  0  0  0  0  0  0  0  0  0
    8.3292   -3.2512   23.8380 H   0  0  0  0  0  0  0  0  0  0  0  0
    8.2147    1.0004   21.4182 H   0  0  0  0  0  0  0  0  0  0  0  0
    8.8547   -0.1866   20.2942 H   0  0  0  0  0  0  0  0  0  0  0  0
    9.1086   -0.3932   23.1133 H   0  0  0  0  0  0  0  0  0  0  0  0
   10.0792   -2.6022   22.6427 H   0  0  0  0  0  0  0  0  0  0  0  0
    9.3423   -2.6067   21.0325 H   0  0  0  0  0  0  0  0  0  0  0  0
   10.5826   -1.4197   21.4409 H   0  0  0  0  0  0  0  0  0  0  0  0
  1  2  1  0
  2  3  1  0
  3  4  1  0
  4  5  1  0
  5  6  2  0
  6  7  1  0
  7  8  2  0
  8  9  1  0
  9 10  2  0
 10 11  1  0
 11 12  2  0
 12 13  1  0
 13 14  2  0
 13 15  1  0
 12 16  1  0
 11 17  1  0
 10 18  1  0
  8 19  1  0
  6 20  1  0
  4 21  1  0
 21 22  2  0
 21 23  1  0
 23 24  1  1
 24 25  1  0
 25 26  1  0
 26 27  1  0
 27 28  2  0
 28 29  1  0
 29 30  2  0
 30 31  1  0
 31 32  1  0
 32 33  1  0
 32 34  1  0
 32 35  1  0
 30 36  1  0
 26 37  1  0
 26 38  1  0
 25 39  1  0
 39 40  2  0
 39 41  1  0
 41 42  2  0
 42 43  1  0
 43 44  2  0
 44 45  1  0
 44 46  1  0
 46 47  2  0
 46 48  1  0
 43 49  1  0
 42 50  1  0
 24 51  1  0
 24 52  1  0
  3 53  1  0
  3 54  1  0
  2 55  1  1
  1 56  1  0
  1 57  1  0
  1 58  1  0
 23  2  1  0
 31 27  1  0
 47 41  1  0
 14  5  1  0
 47 23  1  0
 14  9  1  0
M  END
>  <cnnaffinities>  (18) 
[6.34939]

>  <score>  (18) 
6.34939

>  <index>  (18) 
17

>  <Smiles>  (18) 
C([C@]1(C(N(c2c(nc(c3c(c(c(c(c23)[H])[H])[H])[H])[H])[H])C(=O)[C@]21C(N(C(c1nnc(n1C([H])([H])[H])[H])([H])[H])C(=O)c1c(c(c(F)c(c21)[H])[H])[H])([H])[H])([H])[H])[H])([H])([H])[H]

>  <h>  (18) 
<NA>

>  <Training>  (18) 
True

>  <Success>  (18) 
True

>  <enamine_searched>  (18) 
False

>  <enamine_id>  (18) 
nan

$$$$

     RDKit          3D

 50 53  0  0  0  0  0  0  0  0999 V2000
    3.9011   -1.8264   29.3972 C   0  0  0  0  0  0  0  0  0  0  0  0
    3.9695   -2.1646   27.9153 C   0  0  1  0  0  0  0  0  0  0  0  0
    4.0176   -0.9055   27.0491 C   0  0  0  0  0  0  0  0  0  0  0  0
    4.1277   -1.2252   25.5559 C   0  0  0  0  0  0  0  0  0  0  0  0
    5.2887   -2.1858   25.1965 C   0  0  2  0  0  0  0  0  0  0  0  0
    6.6541   -1.4723   25.2926 C   0  0  0  0  0  0  0  0  0  0  0  0
    6.9255   -0.8659   23.9099 C   0  0  0  0  0  0  0  0  0  0  0  0
    6.0995   -1.6410   22.9929 N   0  0  0  0  0  0  0  0  0  0  0  0
    6.1456   -1.6289   21.6269 C   0  0  0  0  0  0  0  0  0  0  0  0
    5.5822   -2.4844   20.9633 O   0  0  0  0  0  0  0  0  0  0  0  0
    6.9092   -0.4856   20.9200 C   0  0  0  0  0  0  0  0  0  0  0  0
    6.1157    0.0916   19.7688 C   0  0  0  0  0  0  0  0  0  0  0  0
    6.4215   -0.2140   18.4659 C   0  0  0  0  0  0  0  0  0  0  0  0
    5.7550    0.2383   17.3709 N   0  0  0  0  0  0  0  0  0  0  0  0
    4.7330    1.0317   17.5771 C   0  0  0  0  0  0  0  0  0  0  0  0
    4.2845    1.4221   18.8699 C   0  0  0  0  0  0  0  0  0  0  0  0
    3.1582    2.2668   19.0456 C   0  0  0  0  0  0  0  0  0  0  0  0
    2.7472    2.6242   20.3019 C   0  0  0  0  0  0  0  0  0  0  0  0
    3.4403    2.1405   21.4328 C   0  0  0  0  0  0  0  0  0  0  0  0
    4.5323    1.3188   21.2885 C   0  0  0  0  0  0  0  0  0  0  0  0
    4.9895    0.9407   19.9969 C   0  0  0  0  0  0  0  0  0  0  0  0
    5.0483    0.9560   22.1724 H   0  0  0  0  0  0  0  0  0  0  0  0
    3.1055    2.4261   22.4242 H   0  0  0  0  0  0  0  0  0  0  0  0
    1.8921    3.2803   20.4356 H   0  0  0  0  0  0  0  0  0  0  0  0
    2.6419    2.6429   18.1660 H   0  0  0  0  0  0  0  0  0  0  0  0
    4.1985    1.3992   16.6995 H   0  0  0  0  0  0  0  0  0  0  0  0
    7.2659   -0.8670   18.2472 H   0  0  0  0  0  0  0  0  0  0  0  0
    7.8355   -0.9157   20.5176 H   0  0  0  0  0  0  0  0  0  0  0  0
    7.2119    0.3115   21.6094 H   0  0  0  0  0  0  0  0  0  0  0  0
    5.2407   -2.5846   23.7037 C   0  0  0  0  0  0  0  0  0  0  0  0
    5.5749   -3.6161   23.5508 H   0  0  0  0  0  0  0  0  0  0  0  0
    4.2265   -2.5578   23.3131 H   0  0  0  0  0  0  0  0  0  0  0  0
    7.9833   -0.9507   23.6503 H   0  0  0  0  0  0  0  0  0  0  0  0
    6.6508    0.1945   23.8870 H   0  0  0  0  0  0  0  0  0  0  0  0
    6.6762   -0.7049   26.0700 H   0  0  0  0  0  0  0  0  0  0  0  0
    7.4348   -2.1940   25.5539 H   0  0  0  0  0  0  0  0  0  0  0  0
    5.2166   -3.4243   26.1121 C   0  0  0  0  0  0  0  0  0  0  0  0
    5.1542   -3.0771   27.5991 C   0  0  0  0  0  0  0  0  0  0  0  0
    5.0912   -3.9942   28.1993 H   0  0  0  0  0  0  0  0  0  0  0  0
    6.0865   -2.5834   27.9019 H   0  0  0  0  0  0  0  0  0  0  0  0
    4.3269   -4.0137   25.8505 H   0  0  0  0  0  0  0  0  0  0  0  0
    6.0767   -4.0774   25.9182 H   0  0  0  0  0  0  0  0  0  0  0  0
    3.1817   -1.6866   25.2451 H   0  0  0  0  0  0  0  0  0  0  0  0
    4.2222   -0.2979   24.9773 H   0  0  0  0  0  0  0  0  0  0  0  0
    3.1213   -0.2975   27.2313 H   0  0  0  0  0  0  0  0  0  0  0  0
    4.8637   -0.2821   27.3639 H   0  0  0  0  0  0  0  0  0  0  0  0
    3.0564   -2.7115   27.6473 H   0  0  0  0  0  0  0  0  0  0  0  0
    3.0368   -1.1950   29.6233 H   0  0  0  0  0  0  0  0  0  0  0  0
    3.8335   -2.7308   30.0091 H   0  0  0  0  0  0  0  0  0  0  0  0
    4.7998   -1.2838   29.7067 H   0  0  0  0  0  0  0  0  0  0  0  0
  1  2  1  0
  2  3  1  0
  3  4  1  0
  5  4  1  1
  5  6  1  0
  6  7  1  0
  7  8  1  0
  8  9  1  0
  9 10  2  0
  9 11  1  0
 11 12  1  0
 12 13  2  0
 13 14  1  0
 14 15  2  0
 15 16  1  0
 16 17  2  0
 17 18  1  0
 18 19  2  0
 19 20  1  0
 20 21  2  0
 20 22  1  0
 19 23  1  0
 18 24  1  0
 17 25  1  0
 15 26  1  0
 13 27  1  0
 11 28  1  0
 11 29  1  0
  8 30  1  0
 30 31  1  0
 30 32  1  0
  7 33  1  0
  7 34  1  0
  6 35  1  0
  6 36  1  0
  5 37  1  0
 37 38  1  0
 38 39  1  0
 38 40  1  0
 37 41  1  0
 37 42  1  0
  4 43  1  0
  4 44  1  0
  3 45  1  0
  3 46  1  0
  2 47  1  6
  1 48  1  0
  1 49  1  0
  1 50  1  0
 38  2  1  0
 30  5  1  0
 21 12  1  0
 21 16  1  0
M  END
>  <cnnaffinities>  (19) 
[5.24577]

>  <score>  (19) 
5.24577

>  <index>  (19) 
18

>  <Smiles>  (19) 
C([C@]1(C(C([C@@]2(C(C(N(C(=O)C(c3c(nc(c4c(c(c(c(c34)[H])[H])[H])[H])[H])[H])([H])[H])C2([H])[H])([H])[H])([H])[H])C(C1([H])[H])([H])[H])([H])[H])([H])[H])[H])([H])([H])[H]

>  <h>  (19) 
<NA>

>  <Training>  (19) 
True

>  <Success>  (19) 
True

>  <enamine_searched>  (19) 
False

>  <enamine_id>  (19) 
nan

$$$$

     RDKit          3D

 67 71  0  0  0  0  0  0  0  0999 V2000
    3.6025   -5.2851   21.8654 O   0  0  0  0  0  0  0  0  0  0  0  0
    4.1764   -5.8515   22.7880 C   0  0  0  0  0  0  0  0  0  0  0  0
    5.6885   -5.6848   22.8576 C   0  0  0  0  0  0  0  0  0  0  0  0
    5.9011   -4.2063   22.7776 N   0  0  1  0  0  4  0  0  0  0  0  0
    5.1889   -3.5905   23.9534 C   0  0  0  0  0  0  0  0  0  0  0  0
    5.5294   -2.1557   24.2568 C   0  0  0  0  0  0  0  0  0  0  0  0
    4.7263   -1.4469   25.1542 C   0  0  0  0  0  0  0  0  0  0  0  0
    5.0683   -0.1652   25.5622 C   0  0  0  0  0  0  0  0  0  0  0  0
    6.2413    0.4003   25.0661 C   0  0  0  0  0  0  0  0  0  0  0  0
    6.7079    2.0002   25.5827 Cl  0  0  0  0  0  0  0  0  0  0  0  0
    7.0284   -0.2752   24.1443 C   0  0  0  0  0  0  0  0  0  0  0  0
    6.6503   -1.5464   23.7067 C   0  0  0  0  0  0  0  0  0  0  0  0
    7.3372   -2.2209   22.5409 C   0  0  2  0  0  0  0  0  0  0  0  0
    6.5893   -1.8139   21.2660 C   0  0  0  0  0  0  0  0  0  0  0  0
    5.8103   -2.5560   20.6836 O   0  0  0  0  0  0  0  0  0  0  0  0
    6.8128   -0.5298   20.8450 N   0  0  0  0  0  0  0  0  0  0  0  0
    6.0941    0.0444   19.7727 C   0  0  0  0  0  0  0  0  0  0  0  0
    6.4368   -0.2492   18.4808 C   0  0  0  0  0  0  0  0  0  0  0  0
    5.7935    0.2381   17.3919 N   0  0  0  0  0  0  0  0  0  0  0  0
    4.7679    1.0266   17.5979 C   0  0  0  0  0  0  0  0  0  0  0  0
    4.3107    1.4207   18.8890 C   0  0  0  0  0  0  0  0  0  0  0  0
    3.1812    2.2585   19.0641 C   0  0  0  0  0  0  0  0  0  0  0  0
    2.7623    2.6067   20.3181 C   0  0  0  0  0  0  0  0  0  0  0  0
    3.4503    2.1251   21.4546 C   0  0  0  0  0  0  0  0  0  0  0  0
    4.5414    1.3059   21.3157 C   0  0  0  0  0  0  0  0  0  0  0  0
    4.9969    0.9304   20.0207 C   0  0  0  0  0  0  0  0  0  0  0  0
    5.0366    0.9157   22.2018 H   0  0  0  0  0  0  0  0  0  0  0  0
    3.1000    2.4047   22.4437 H   0  0  0  0  0  0  0  0  0  0  0  0
    1.9054    3.2598   20.4472 H   0  0  0  0  0  0  0  0  0  0  0  0
    2.6655    2.6194   18.1792 H   0  0  0  0  0  0  0  0  0  0  0  0
    4.2261    1.3822   16.7201 H   0  0  0  0  0  0  0  0  0  0  0  0
    7.2928   -0.8938   18.2972 H   0  0  0  0  0  0  0  0  0  0  0  0
    7.2470    0.1125   21.4936 H   0  0  0  0  0  0  0  0  0  0  0  0
    7.3145   -3.7449   22.6744 C   0  0  0  0  0  0  0  0  0  0  0  0
    7.7874   -4.1936   21.7973 H   0  0  0  0  0  0  0  0  0  0  0  0
    7.8724   -4.0652   23.5603 H   0  0  0  0  0  0  0  0  0  0  0  0
    8.3683   -1.8563   22.4662 H   0  0  0  0  0  0  0  0  0  0  0  0
    7.9315    0.1931   23.7644 H   0  0  0  0  0  0  0  0  0  0  0  0
    4.4477    0.3872   26.2629 H   0  0  0  0  0  0  0  0  0  0  0  0
    3.8197   -1.9037   25.5480 H   0  0  0  0  0  0  0  0  0  0  0  0
    5.4080   -4.2037   24.8360 H   0  0  0  0  0  0  0  0  0  0  0  0
    4.1111   -3.6652   23.7823 H   0  0  0  0  0  0  0  0  0  0  0  0
    5.4255   -3.8781   21.9038 H   0  0  0  0  0  0  0  0  0  0  0  0
    6.1071   -6.0921   23.7873 H   0  0  0  0  0  0  0  0  0  0  0  0
    6.1372   -6.1824   21.9908 H   0  0  0  0  0  0  0  0  0  0  0  0
    3.5167   -6.4835   23.7805 N   0  0  0  0  0  0  0  0  0  0  0  0
    2.0776   -6.6987   23.6928 C   0  0  0  0  0  0  0  0  0  0  0  0
    1.2864   -5.3820   23.6141 C   0  0  0  0  0  0  0  0  0  0  0  0
   -0.2079   -5.5775   23.5806 C   0  0  0  0  0  0  0  0  0  0  0  0
   -0.9400   -5.6135   24.7683 C   0  0  0  0  0  0  0  0  0  0  0  0
   -2.3137   -5.8311   24.7566 C   0  0  0  0  0  0  0  0  0  0  0  0
   -2.9853   -6.0151   23.5522 C   0  0  0  0  0  0  0  0  0  0  0  0
   -4.4635   -6.2489   23.5378 C   0  0  0  0  0  0  0  0  0  0  0  0
   -5.0852   -5.3363   22.7366 F   0  0  0  0  0  0  0  0  0  0  0  0
   -4.7403   -7.4763   23.0095 F   0  0  0  0  0  0  0  0  0  0  0  0
   -4.9130   -6.1933   24.5363 H   0  0  0  0  0  0  0  0  0  0  0  0
   -2.2656   -5.9770   22.3583 C   0  0  0  0  0  0  0  0  0  0  0  0
   -0.8924   -5.7561   22.3744 C   0  0  0  0  0  0  0  0  0  0  0  0
   -0.3502   -5.7135   21.4297 H   0  0  0  0  0  0  0  0  0  0  0  0
   -2.7849   -6.1073   21.4130 H   0  0  0  0  0  0  0  0  0  0  0  0
   -2.8623   -5.8429   25.6977 H   0  0  0  0  0  0  0  0  0  0  0  0
   -0.4250   -5.4636   25.7154 H   0  0  0  0  0  0  0  0  0  0  0  0
    1.5559   -4.7544   24.4741 H   0  0  0  0  0  0  0  0  0  0  0  0
    1.6205   -4.8614   22.7139 H   0  0  0  0  0  0  0  0  0  0  0  0
    1.7734   -7.2896   24.5574 H   0  0  0  0  0  0  0  0  0  0  0  0
    1.8421   -7.2946   22.8034 H   0  0  0  0  0  0  0  0  0  0  0  0
    4.0330   -6.8029   24.5852 H   0  0  0  0  0  0  0  0  0  0  0  0
  1  2  2  0
  2  3  1  0
  3  4  1  0
  4  5  1  0
  5  6  1  0
  6  7  2  0
  7  8  1  0
  8  9  2  0
  9 10  1  0
  9 11  1  0
 11 12  2  0
 12 13  1  0
 13 14  1  0
 14 15  2  0
 14 16  1  0
 16 17  1  0
 17 18  2  0
 18 19  1  0
 19 20  2  0
 20 21  1  0
 21 22  2  0
 22 23  1  0
 23 24  2  0
 24 25  1  0
 25 26  2  0
 25 27  1  0
 24 28  1  0
 23 29  1  0
 22 30  1  0
 20 31  1  0
 18 32  1  0
 16 33  1  0
 13 34  1  0
 34 35  1  0
 34 36  1  0
 13 37  1  6
 11 38  1  0
  8 39  1  0
  7 40  1  0
  5 41  1  0
  5 42  1  0
  4 43  1  6
  3 44  1  0
  3 45  1  0
  2 46  1  0
 46 47  1  0
 47 48  1  0
 48 49  1  0
 49 50  2  0
 50 51  1  0
 51 52  2  0
 52 53  1  0
 53 54  1  0
 53 55  1  0
 53 56  1  0
 52 57  1  0
 57 58  2  0
 58 59  1  0
 57 60  1  0
 51 61  1  0
 50 62  1  0
 48 63  1  0
 48 64  1  0
 47 65  1  0
 47 66  1  0
 46 67  1  0
 34  4  1  0
 58 49  1  0
 12  6  1  0
 26 17  1  0
 26 21  1  0
M  CHG  1   4   1
M  END
>  <cnnaffinities>  (20) 
[5.73715]

>  <score>  (20) 
5.73715

>  <index>  (20) 
19

>  <Smiles>  (20) 
O=C(C([N@+]1(C(c2c(c(c(Cl)c(c2[C@](C(=O)N(c2c(nc(c3c(c(c(c(c23)[H])[H])[H])[H])[H])[H])[H])(C1([H])[H])[H])[H])[H])[H])([H])[H])[H])([H])[H])N(C(C(c1c(c(c(C(F)(F)[H])c(c1[H])[H])[H])[H])([H])[H])([H])[H])[H]

>  <h>  (20) 
<NA>

>  <Training>  (20) 
True

>  <Success>  (20) 
True

>  <enamine_searched>  (20) 
False

>  <enamine_id>  (20) 
nan

$$$$

     RDKit          3D

 66 70  0  0  0  0  0  0  0  0999 V2000
    4.1689    7.1869   21.4028 C   0  0  0  0  0  0  0  0  0  0  0  0
    5.3607    6.2782   21.1157 C   0  0  0  0  0  0  0  0  0  0  0  0
    5.7996    5.4341   22.2918 C   0  0  0  0  0  0  0  0  0  0  0  0
    5.0747    4.5551   22.7218 O   0  0  0  0  0  0  0  0  0  0  0  0
    7.0713    5.6745   22.8181 N   0  0  0  0  0  0  0  0  0  0  0  0
    7.5793    7.0336   22.9946 C   0  0  0  0  0  0  0  0  0  0  0  0
    8.1229    7.2007   24.4072 C   0  0  0  0  0  0  0  0  0  0  0  0
    9.2654    6.2124   24.6228 C   0  0  0  0  0  0  0  0  0  0  0  0
    8.9220    4.8181   24.1443 C   0  0  0  0  0  0  0  0  0  0  0  0
    9.6813    3.7257   24.5613 C   0  0  0  0  0  0  0  0  0  0  0  0
    9.4110    2.4327   24.1293 C   0  0  0  0  0  0  0  0  0  0  0  0
    8.3690    2.2352   23.2225 C   0  0  0  0  0  0  0  0  0  0  0  0
    8.0176    0.9258   22.7757 N   0  0  0  0  0  0  0  0  0  0  0  0
    7.8998    0.7327   21.3887 C   0  0  0  0  0  0  0  0  0  0  0  0
    8.4734    1.4632   20.6141 O   0  0  0  0  0  0  0  0  0  0  0  0
    6.9897   -0.3945   20.9163 C   0  0  0  0  0  0  0  0  0  0  0  0
    6.1138    0.0732   19.7819 C   0  0  0  0  0  0  0  0  0  0  0  0
    6.4331   -0.2177   18.4795 C   0  0  0  0  0  0  0  0  0  0  0  0
    5.7639    0.2272   17.3857 N   0  0  0  0  0  0  0  0  0  0  0  0
    4.7377    1.0140   17.5942 C   0  0  0  0  0  0  0  0  0  0  0  0
    4.2881    1.4050   18.8834 C   0  0  0  0  0  0  0  0  0  0  0  0
    3.1736    2.2636   19.0582 C   0  0  0  0  0  0  0  0  0  0  0  0
    2.7775    2.6444   20.3131 C   0  0  0  0  0  0  0  0  0  0  0  0
    3.4723    2.1676   21.4478 C   0  0  0  0  0  0  0  0  0  0  0  0
    4.5576    1.3366   21.3001 C   0  0  0  0  0  0  0  0  0  0  0  0
    4.9966    0.9275   20.0125 C   0  0  0  0  0  0  0  0  0  0  0  0
    5.0816    0.9973   22.1897 H   0  0  0  0  0  0  0  0  0  0  0  0
    3.1771    2.4876   22.4432 H   0  0  0  0  0  0  0  0  0  0  0  0
    1.9368    3.3224   20.4363 H   0  0  0  0  0  0  0  0  0  0  0  0
    2.6668    2.6368   18.1711 H   0  0  0  0  0  0  0  0  0  0  0  0
    4.2079    1.3819   16.7148 H   0  0  0  0  0  0  0  0  0  0  0  0
    7.2823   -0.8616   18.2555 H   0  0  0  0  0  0  0  0  0  0  0  0
    6.4287   -0.7678   21.7764 H   0  0  0  0  0  0  0  0  0  0  0  0
    7.6314   -1.2106   20.5635 H   0  0  0  0  0  0  0  0  0  0  0  0
    8.1158   -0.1520   23.6402 N   0  0  0  0  0  0  0  0  0  0  0  0
    9.0552   -1.2205   23.3633 C   0  0  0  0  0  0  0  0  0  0  0  0
    8.5666   -2.1839   23.5471 H   0  0  0  0  0  0  0  0  0  0  0  0
    9.9577   -1.1747   23.9906 H   0  0  0  0  0  0  0  0  0  0  0  0
    9.3696   -1.1816   22.3205 H   0  0  0  0  0  0  0  0  0  0  0  0
    7.3956   -0.1267   24.8279 C   0  0  0  0  0  0  0  0  0  0  0  0
    7.7810   -0.9516   25.8826 C   0  0  0  0  0  0  0  0  0  0  0  0
    7.1392   -0.8648   27.1071 C   0  0  0  0  0  0  0  0  0  0  0  0
    6.0685   -0.0002   27.2754 C   0  0  0  0  0  0  0  0  0  0  0  0
    5.6448    0.7752   26.2034 C   0  0  0  0  0  0  0  0  0  0  0  0
    4.2503    1.8149   26.3865 Cl  0  0  0  0  0  0  0  0  0  0  0  0
    6.3015    0.7357   24.9878 C   0  0  0  0  0  0  0  0  0  0  0  0
    5.9688    1.3783   24.1814 H   0  0  0  0  0  0  0  0  0  0  0  0
    5.5568    0.0550   28.2235 H   0  0  0  0  0  0  0  0  0  0  0  0
    7.4722   -1.4855   27.9347 H   0  0  0  0  0  0  0  0  0  0  0  0
    8.5901   -1.6475   25.7249 H   0  0  0  0  0  0  0  0  0  0  0  0
    7.6073    3.3029   22.7713 C   0  0  0  0  0  0  0  0  0  0  0  0
    7.8552    4.5915   23.2615 C   0  0  0  0  0  0  0  0  0  0  0  0
    6.8284    3.1324   22.0295 H   0  0  0  0  0  0  0  0  0  0  0  0
    9.9902    1.5812   24.4760 H   0  0  0  0  0  0  0  0  0  0  0  0
   10.5017    3.8976   25.2552 H   0  0  0  0  0  0  0  0  0  0  0  0
   10.1512    6.5588   24.0716 H   0  0  0  0  0  0  0  0  0  0  0  0
    9.5676    6.1765   25.6772 H   0  0  0  0  0  0  0  0  0  0  0  0
    7.3199    7.0180   25.1281 H   0  0  0  0  0  0  0  0  0  0  0  0
    8.4678    8.2291   24.5558 H   0  0  0  0  0  0  0  0  0  0  0  0
    8.3696    7.2480   22.2602 H   0  0  0  0  0  0  0  0  0  0  0  0
    6.7449    7.7122   22.8060 H   0  0  0  0  0  0  0  0  0  0  0  0
    6.2104    6.8264   20.7042 H   0  0  0  0  0  0  0  0  0  0  0  0
    5.0635    5.5419   20.3633 H   0  0  0  0  0  0  0  0  0  0  0  0
    3.8616    7.7011   20.4862 H   0  0  0  0  0  0  0  0  0  0  0  0
    4.3763    7.9499   22.1603 H   0  0  0  0  0  0  0  0  0  0  0  0
    3.3235    6.5886   21.7492 H   0  0  0  0  0  0  0  0  0  0  0  0
  1  2  1  0
  2  3  1  0
  3  4  2  0
  3  5  1  0
  5  6  1  0
  6  7  1  0
  7  8  1  0
  8  9  1  0
  9 10  2  0
 10 11  1  0
 11 12  2  0
 12 13  1  0
 13 14  1  0
 14 15  2  0
 14 16  1  0
 16 17  1  0
 17 18  2  0
 18 19  1  0
 19 20  2  0
 20 21  1  0
 21 22  2  0
 22 23  1  0
 23 24  2  0
 24 25  1  0
 25 26  2  0
 25 27  1  0
 24 28  1  0
 23 29  1  0
 22 30  1  0
 20 31  1  0
 18 32  1  0
 16 33  1  0
 16 34  1  0
 13 35  1  0
 35 36  1  0
 36 37  1  0
 36 38  1  0
 36 39  1  0
 35 40  1  0
 40 41  2  0
 41 42  1  0
 42 43  2  0
 43 44  1  0
 44 45  1  0
 44 46  2  0
 46 47  1  0
 43 48  1  0
 42 49  1  0
 41 50  1  0
 12 51  1  0
 51 52  2  0
 51 53  1  0
 11 54  1  0
 10 55  1  0
  8 56  1  0
  8 57  1  0
  7 58  1  0
  7 59  1  0
  6 60  1  0
  6 61  1  0
  2 62  1  0
  2 63  1  0
  1 64  1  0
  1 65  1  0
  1 66  1  0
 52  5  1  0
 52  9  1  0
 26 17  1  0
 46 40  1  0
 26 21  1  0
M  END
>  <cnnaffinities>  (21) 
[6.50199, 6.52387]

>  <score>  (21) 
6.50199

>  <index>  (21) 
20

>  <Smiles>  (21) 
C(C(C(=O)N1C(C(C(c2c(c(c(N(C(=O)C(c3c(nc(c4c(c(c(c(c34)[H])[H])[H])[H])[H])[H])([H])[H])N(C([H])([H])[H])c3c(c(c(c(Cl)c3[H])[H])[H])[H])c(c12)[H])[H])[H])([H])[H])([H])[H])([H])[H])([H])[H])([H])([H])[H]

>  <h>  (21) 
<NA>

>  <Training>  (21) 
True

>  <Success>  (21) 
True

>  <enamine_searched>  (21) 
False

>  <enamine_id>  (21) 
nan

$$$$

     RDKit          3D

 59 64  0  0  0  0  0  0  0  0999 V2000
    9.8264   -1.6514   22.5651 C   0  0  0  0  0  0  0  0  0  0  0  0
    8.4703   -0.9557   22.4298 C   0  0  1  0  0  0  0  0  0  0  0  0
    8.2345   -0.4822   20.9841 C   0  0  0  0  0  0  0  0  0  0  0  0
    6.7886   -0.3916   20.8924 N   0  0  0  0  0  0  0  0  0  0  0  0
    6.0945    0.1382   19.7878 C   0  0  0  0  0  0  0  0  0  0  0  0
    6.4750   -0.1383   18.4984 C   0  0  0  0  0  0  0  0  0  0  0  0
    5.8000    0.2753   17.4004 N   0  0  0  0  0  0  0  0  0  0  0  0
    4.7288    1.0094   17.5825 C   0  0  0  0  0  0  0  0  0  0  0  0
    4.2512    1.4083   18.8627 C   0  0  0  0  0  0  0  0  0  0  0  0
    3.1039    2.2312   19.0175 C   0  0  0  0  0  0  0  0  0  0  0  0
    2.6985    2.6280   20.2628 C   0  0  0  0  0  0  0  0  0  0  0  0
    3.4146    2.2187   21.4089 C   0  0  0  0  0  0  0  0  0  0  0  0
    4.5211    1.4195   21.2858 C   0  0  0  0  0  0  0  0  0  0  0  0
    4.9568    0.9799   20.0035 C   0  0  0  0  0  0  0  0  0  0  0  0
    5.0643    1.1031   22.1689 H   0  0  0  0  0  0  0  0  0  0  0  0
    3.0868    2.5395   22.3935 H   0  0  0  0  0  0  0  0  0  0  0  0
    1.8351    3.2773   20.3763 H   0  0  0  0  0  0  0  0  0  0  0  0
    2.5782    2.5637   18.1260 H   0  0  0  0  0  0  0  0  0  0  0  0
    4.1875    1.3261   16.6902 H   0  0  0  0  0  0  0  0  0  0  0  0
    7.3536   -0.7532   18.3074 H   0  0  0  0  0  0  0  0  0  0  0  0
    6.1517   -1.2295   21.7882 C   0  0  0  0  0  0  0  0  0  0  0  0
    4.9972   -1.5778   21.6787 O   0  0  0  0  0  0  0  0  0  0  0  0
    7.1783   -1.7414   22.8295 C   0  0  1  0  0  0  0  0  0  0  0  0
    7.2777   -3.2557   22.5681 C   0  0  0  0  0  0  0  0  0  0  0  0
    6.0264   -3.8878   22.9197 N   0  0  0  0  0  0  0  0  0  0  0  0
    5.3889   -4.7629   21.9468 C   0  0  0  0  0  0  0  0  0  0  0  0
    6.0500   -6.1218   21.9328 C   0  0  0  0  0  0  0  0  0  0  0  0
    7.2495   -6.5076   21.2949 C   0  0  0  0  0  0  0  0  0  0  0  0
    7.8130   -7.5531   21.8782 N   0  0  0  0  0  0  0  0  0  0  0  0
    6.9520   -7.9130   22.8352 N   0  0  0  0  0  0  0  0  0  0  0  0
    7.3501   -8.8297   23.8771 C   0  0  0  0  0  0  0  0  0  0  0  0
    7.7491   -8.2983   24.7498 H   0  0  0  0  0  0  0  0  0  0  0  0
    6.4901   -9.4246   24.1669 H   0  0  0  0  0  0  0  0  0  0  0  0
    8.1252   -9.4692   23.4744 H   0  0  0  0  0  0  0  0  0  0  0  0
    5.8702   -7.1002   22.8830 C   0  0  0  0  0  0  0  0  0  0  0  0
    5.0789   -7.2675   23.6102 H   0  0  0  0  0  0  0  0  0  0  0  0
    7.7914   -6.0426   20.4861 H   0  0  0  0  0  0  0  0  0  0  0  0
    5.4286   -4.2599   20.9704 H   0  0  0  0  0  0  0  0  0  0  0  0
    4.3339   -4.8399   22.2192 H   0  0  0  0  0  0  0  0  0  0  0  0
    5.5509   -3.8078   24.1947 C   0  0  0  0  0  0  0  0  0  0  0  0
    4.7433   -4.6044   24.6580 O   0  0  0  0  0  0  0  0  0  0  0  0
    6.0765   -2.6309   24.9601 C   0  0  0  0  0  0  0  0  0  0  0  0
    5.8525   -2.5728   26.3384 C   0  0  0  0  0  0  0  0  0  0  0  0
    6.1087   -1.4108   27.0449 C   0  0  0  0  0  0  0  0  0  0  0  0
    6.5856   -0.3181   26.3256 C   0  0  0  0  0  0  0  0  0  0  0  0
    6.7556    0.8501   26.9722 F   0  0  0  0  0  0  0  0  0  0  0  0
    6.9156   -0.3817   24.9849 C   0  0  0  0  0  0  0  0  0  0  0  0
    6.7185   -1.5775   24.2786 C   0  0  0  0  0  0  0  0  0  0  0  0
    7.3428    0.5019   24.5209 H   0  0  0  0  0  0  0  0  0  0  0  0
    5.9389   -1.3142   28.1150 H   0  0  0  0  0  0  0  0  0  0  0  0
    5.4754   -3.4575   26.8430 H   0  0  0  0  0  0  0  0  0  0  0  0
    8.1007   -3.6880   23.1515 H   0  0  0  0  0  0  0  0  0  0  0  0
    7.4580   -3.4444   21.5097 H   0  0  0  0  0  0  0  0  0  0  0  0
    8.6441   -1.2037   20.2597 H   0  0  0  0  0  0  0  0  0  0  0  0
    8.6919    0.4920   20.7879 H   0  0  0  0  0  0  0  0  0  0  0  0
    8.4864   -0.0570   23.0490 H   0  0  0  0  0  0  0  0  0  0  0  0
    9.9052   -2.5089   21.8859 H   0  0  0  0  0  0  0  0  0  0  0  0
   10.0178   -2.0143   23.5796 H   0  0  0  0  0  0  0  0  0  0  0  0
   10.6352   -0.9572   22.2994 H   0  0  0  0  0  0  0  0  0  0  0  0
  1  2  1  0
  2  3  1  0
  3  4  1  0
  4  5  1  0
  5  6  2  0
  6  7  1  0
  7  8  2  0
  8  9  1  0
  9 10  2  0
 10 11  1  0
 11 12  2  0
 12 13  1  0
 13 14  2  0
 13 15  1  0
 12 16  1  0
 11 17  1  0
 10 18  1  0
  8 19  1  0
  6 20  1  0
  4 21  1  0
 21 22  2  0
 21 23  1  0
 23 24  1  6
 24 25  1  0
 25 26  1  0
 26 27  1  0
 27 28  1  0
 28 29  2  0
 29 30  1  0
 30 31  1  0
 31 32  1  0
 31 33  1  0
 31 34  1  0
 30 35  1  0
 35 36  1  0
 28 37  1  0
 26 38  1  0
 26 39  1  0
 25 40  1  0
 40 41  2  0
 40 42  1  0
 42 43  2  0
 43 44  1  0
 44 45  2  0
 45 46  1  0
 45 47  1  0
 47 48  2  0
 47 49  1  0
 44 50  1  0
 43 51  1  0
 24 52  1  0
 24 53  1  0
  3 54  1  0
  3 55  1  0
  2 56  1  1
  1 57  1  0
  1 58  1  0
  1 59  1  0
 23  2  1  0
 35 27  2  0
 48 42  1  0
 14  5  1  0
 48 23  1  0
 14  9  1  0
M  END
>  <cnnaffinities>  (22) 
[6.68318]

>  <score>  (22) 
6.68318

>  <index>  (22) 
21

>  <Smiles>  (22) 
C([C@]1(C(N(c2c(nc(c3c(c(c(c(c23)[H])[H])[H])[H])[H])[H])C(=O)[C@]21C(N(C(c1c(nn(C([H])([H])[H])c1[H])[H])([H])[H])C(=O)c1c(c(c(F)c(c21)[H])[H])[H])([H])[H])([H])[H])[H])([H])([H])[H]

>  <h>  (22) 
<NA>

>  <Training>  (22) 
True

>  <Success>  (22) 
True

>  <enamine_searched>  (22) 
False

>  <enamine_id>  (22) 
nan

$$$$

     RDKit          3D

 41 44  0  0  0  0  0  0  0  0999 V2000
    8.4567    1.4781   20.7888 O   0  0  0  0  0  0  0  0  0  0  0  0
    7.8156    0.7347   21.5108 C   0  0  0  0  0  0  0  0  0  0  0  0
    6.9738   -0.4008   20.9307 C   0  0  0  0  0  0  0  0  0  0  0  0
    6.1181    0.0875   19.7932 C   0  0  0  0  0  0  0  0  0  0  0  0
    6.4453   -0.2055   18.4976 C   0  0  0  0  0  0  0  0  0  0  0  0
    5.7770    0.2319   17.3992 N   0  0  0  0  0  0  0  0  0  0  0  0
    4.7417    1.0062   17.6023 C   0  0  0  0  0  0  0  0  0  0  0  0
    4.2808    1.3902   18.8893 C   0  0  0  0  0  0  0  0  0  0  0  0
    3.1615    2.2453   19.0557 C   0  0  0  0  0  0  0  0  0  0  0  0
    2.7581    2.6258   20.3057 C   0  0  0  0  0  0  0  0  0  0  0  0
    3.4498    2.1571   21.4458 C   0  0  0  0  0  0  0  0  0  0  0  0
    4.5354    1.3244   21.3108 C   0  0  0  0  0  0  0  0  0  0  0  0
    4.9832    0.9223   20.0224 C   0  0  0  0  0  0  0  0  0  0  0  0
    5.0690    0.9875   22.1945 H   0  0  0  0  0  0  0  0  0  0  0  0
    3.1260    2.4665   22.4359 H   0  0  0  0  0  0  0  0  0  0  0  0
    1.9145    3.3014   20.4276 H   0  0  0  0  0  0  0  0  0  0  0  0
    2.6604    2.6151   18.1640 H   0  0  0  0  0  0  0  0  0  0  0  0
    4.2147    1.3749   16.7200 H   0  0  0  0  0  0  0  0  0  0  0  0
    7.3008   -0.8466   18.2903 H   0  0  0  0  0  0  0  0  0  0  0  0
    6.3594   -0.8478   21.7190 H   0  0  0  0  0  0  0  0  0  0  0  0
    7.6763   -1.1624   20.5702 H   0  0  0  0  0  0  0  0  0  0  0  0
    7.7709    0.9058   22.8719 N   0  0  0  0  0  0  0  0  0  0  0  0
    7.4713   -0.1644   23.8203 C   0  0  0  0  0  0  0  0  0  0  0  0
    8.1358    0.1105   25.1657 C   0  0  0  0  0  0  0  0  0  0  0  0
    7.7084    1.4700   25.6598 C   0  0  0  0  0  0  0  0  0  0  0  0
    7.4120    1.7610   26.9898 C   0  0  0  0  0  0  0  0  0  0  0  0
    7.6658    0.5514   28.2274 Cl  0  0  0  0  0  0  0  0  0  0  0  0
    6.9093    3.0022   27.3687 C   0  0  0  0  0  0  0  0  0  0  0  0
    6.7627    3.9996   26.4086 C   0  0  0  0  0  0  0  0  0  0  0  0
    7.2115    3.7796   25.1106 C   0  0  0  0  0  0  0  0  0  0  0  0
    7.6684    2.5191   24.7332 C   0  0  0  0  0  0  0  0  0  0  0  0
    8.1251    2.2468   23.3255 C   0  0  0  0  0  0  0  0  0  0  0  0
    9.2076    2.3822   23.2226 H   0  0  0  0  0  0  0  0  0  0  0  0
    7.6782    2.9538   22.6188 H   0  0  0  0  0  0  0  0  0  0  0  0
    7.1771    4.5842   24.3759 H   0  0  0  0  0  0  0  0  0  0  0  0
    6.3537    4.9723   26.6904 H   0  0  0  0  0  0  0  0  0  0  0  0
    6.6740    3.1844   28.4134 H   0  0  0  0  0  0  0  0  0  0  0  0
    9.2254    0.0808   25.0459 H   0  0  0  0  0  0  0  0  0  0  0  0
    7.8813   -0.6653   25.8933 H   0  0  0  0  0  0  0  0  0  0  0  0
    7.8171   -1.1199   23.4106 H   0  0  0  0  0  0  0  0  0  0  0  0
    6.3877   -0.2454   23.9836 H   0  0  0  0  0  0  0  0  0  0  0  0
  1  2  2  0
  2  3  1  0
  3  4  1  0
  4  5  2  0
  5  6  1  0
  6  7  2  0
  7  8  1  0
  8  9  2  0
  9 10  1  0
 10 11  2  0
 11 12  1  0
 12 13  2  0
 12 14  1  0
 11 15  1  0
 10 16  1  0
  9 17  1  0
  7 18  1  0
  5 19  1  0
  3 20  1  0
  3 21  1  0
  2 22  1  0
 22 23  1  0
 23 24  1  0
 24 25  1  0
 25 26  2  0
 26 27  1  0
 26 28  1  0
 28 29  2  0
 29 30  1  0
 30 31  2  0
 31 32  1  0
 32 33  1  0
 32 34  1  0
 30 35  1  0
 29 36  1  0
 28 37  1  0
 24 38  1  0
 24 39  1  0
 23 40  1  0
 23 41  1  0
 13  4  1  0
 32 22  1  0
 13  8  1  0
 31 25  1  0
M  END
>  <cnnaffinities>  (23) 
[5.03875, 5.84596]

>  <score>  (23) 
5.03875

>  <index>  (23) 
22

>  <Smiles>  (23) 
O=C(C(c1c(nc(c2c(c(c(c(c12)[H])[H])[H])[H])[H])[H])([H])[H])N1C(C(c2c(Cl)c(c(c(c2C1([H])[H])[H])[H])[H])([H])[H])([H])[H]

>  <h>  (23) 
<NA>

>  <Training>  (23) 
True

>  <Success>  (23) 
True

>  <enamine_searched>  (23) 
False

>  <enamine_id>  (23) 
nan

$$$$

     RDKit          3D

 69 74  0  0  0  0  0  0  0  0999 V2000
    4.2953    6.7167   20.9378 C   0  0  0  0  0  0  0  0  0  0  0  0
    5.0861    6.1776   22.1081 C   0  0  1  0  0  0  0  0  0  0  0  0
    6.0678    5.0829   21.6964 C   0  0  0  0  0  0  0  0  0  0  0  0
    6.7973    4.6291   22.9239 N   0  0  1  0  0  4  0  0  0  0  0  0
    7.6570    3.4430   22.7522 C   0  0  0  0  0  0  0  0  0  0  0  0
    7.9964    2.8264   24.1139 C   0  0  0  0  0  0  0  0  0  0  0  0
    8.7026    1.5775   23.9543 N   0  0  0  0  0  0  0  0  0  0  0  0
    7.9422    0.3562   23.7818 C   0  0  0  0  0  0  0  0  0  0  0  0
    8.3906   -0.4742   22.5508 C   0  0  2  0  0  0  0  0  0  0  0  0
    7.9208    0.2038   21.2460 C   0  0  0  0  0  0  0  0  0  0  0  0
    8.4416    1.1562   20.7040 O   0  0  0  0  0  0  0  0  0  0  0  0
    6.8004   -0.4579   20.7875 N   0  0  0  0  0  0  0  0  0  0  0  0
    6.0465    0.0771   19.7069 C   0  0  0  0  0  0  0  0  0  0  0  0
    6.3992   -0.1820   18.4078 C   0  0  0  0  0  0  0  0  0  0  0  0
    5.7017    0.2616   17.3325 N   0  0  0  0  0  0  0  0  0  0  0  0
    4.6539    1.0194   17.5503 C   0  0  0  0  0  0  0  0  0  0  0  0
    4.2073    1.4115   18.8466 C   0  0  0  0  0  0  0  0  0  0  0  0
    3.1014    2.2806   19.0631 C   0  0  0  0  0  0  0  0  0  0  0  0
    2.7507    2.6595   20.3296 C   0  0  0  0  0  0  0  0  0  0  0  0
    3.4697    2.1863   21.4484 C   0  0  0  0  0  0  0  0  0  0  0  0
    4.5443    1.3518   21.2627 C   0  0  0  0  0  0  0  0  0  0  0  0
    4.9298    0.9309   19.9616 C   0  0  0  0  0  0  0  0  0  0  0  0
    5.1190    1.0237   22.1186 H   0  0  0  0  0  0  0  0  0  0  0  0
    3.2055    2.5006   22.4535 H   0  0  0  0  0  0  0  0  0  0  0  0
    1.9318    3.3554   20.4876 H   0  0  0  0  0  0  0  0  0  0  0  0
    2.5722    2.6725   18.1988 H   0  0  0  0  0  0  0  0  0  0  0  0
    4.1091    1.3705   16.6732 H   0  0  0  0  0  0  0  0  0  0  0  0
    7.2813   -0.7831   18.1939 H   0  0  0  0  0  0  0  0  0  0  0  0
    6.3363   -1.4915   21.7083 C   0  0  0  0  0  0  0  0  0  0  0  0
    7.6437   -1.8310   22.4520 C   0  0  2  0  0  0  0  0  0  0  0  0
    7.5319   -2.6443   23.7392 C   0  0  0  0  0  0  0  0  0  0  0  0
    7.1153   -3.6400   23.5534 H   0  0  0  0  0  0  0  0  0  0  0  0
    6.9036   -2.1541   24.4933 H   0  0  0  0  0  0  0  0  0  0  0  0
    8.5273   -2.7924   24.1753 H   0  0  0  0  0  0  0  0  0  0  0  0
    8.2275   -2.4100   21.7335 H   0  0  0  0  0  0  0  0  0  0  0  0
    5.9259   -2.3332   21.1415 H   0  0  0  0  0  0  0  0  0  0  0  0
    5.5476   -1.1313   22.3943 H   0  0  0  0  0  0  0  0  0  0  0  0
    9.8982   -0.5473   22.5257 C   0  0  0  0  0  0  0  0  0  0  0  0
   10.5467   -1.4629   21.6945 C   0  0  0  0  0  0  0  0  0  0  0  0
   11.9184   -1.4065   21.5353 C   0  0  0  0  0  0  0  0  0  0  0  0
   12.6205   -2.4311   20.3052 Cl  0  0  0  0  0  0  0  0  0  0  0  0
   12.6829   -0.4791   22.2555 C   0  0  0  0  0  0  0  0  0  0  0  0
   12.0444    0.4743   23.0046 C   0  0  0  0  0  0  0  0  0  0  0  0
   10.6627    0.4697   23.1051 C   0  0  0  0  0  0  0  0  0  0  0  0
   10.0382    1.6735   23.7155 C   0  0  0  0  0  0  0  0  0  0  0  0
   10.6735    2.6939   23.9453 O   0  0  0  0  0  0  0  0  0  0  0  0
   12.5744    1.2815   23.4994 H   0  0  0  0  0  0  0  0  0  0  0  0
   13.7626   -0.4243   22.1809 H   0  0  0  0  0  0  0  0  0  0  0  0
    9.9946   -2.2044   21.1252 H   0  0  0  0  0  0  0  0  0  0  0  0
    8.0565   -0.2629   24.6787 H   0  0  0  0  0  0  0  0  0  0  0  0
    6.8884    0.6480   23.6856 H   0  0  0  0  0  0  0  0  0  0  0  0
    7.0707    2.6425   24.6749 H   0  0  0  0  0  0  0  0  0  0  0  0
    8.6369    3.4921   24.6980 H   0  0  0  0  0  0  0  0  0  0  0  0
    8.5690    3.7303   22.2174 H   0  0  0  0  0  0  0  0  0  0  0  0
    7.1360    2.7175   22.1201 H   0  0  0  0  0  0  0  0  0  0  0  0
    7.5528    5.8077   23.4702 C   0  0  0  0  0  0  0  0  0  0  0  0
    6.5594    6.9069   23.8096 C   0  0  0  0  0  0  0  0  0  0  0  0
    5.7629    7.2769   22.7038 O   0  0  0  0  0  0  0  0  0  0  0  0
    5.9382    6.5358   24.6460 H   0  0  0  0  0  0  0  0  0  0  0  0
    7.0758    7.8120   24.1397 H   0  0  0  0  0  0  0  0  0  0  0  0
    8.0835    5.5036   24.3714 H   0  0  0  0  0  0  0  0  0  0  0  0
    8.2926    6.1240   22.7235 H   0  0  0  0  0  0  0  0  0  0  0  0
    6.0604    4.3472   23.6025 H   0  0  0  0  0  0  0  0  0  0  0  0
    5.5363    4.2282   21.2613 H   0  0  0  0  0  0  0  0  0  0  0  0
    6.7809    5.4687   20.9553 H   0  0  0  0  0  0  0  0  0  0  0  0
    4.4206    5.7219   22.8627 H   0  0  0  0  0  0  0  0  0  0  0  0
    3.7838    5.8941   20.4213 H   0  0  0  0  0  0  0  0  0  0  0  0
    3.5539    7.4425   21.2814 H   0  0  0  0  0  0  0  0  0  0  0  0
    4.9776    7.2271   20.2468 H   0  0  0  0  0  0  0  0  0  0  0  0
  1  2  1  0
  2  3  1  0
  3  4  1  0
  4  5  1  0
  5  6  1  0
  6  7  1  0
  7  8  1  0
  9  8  1  1
  9 10  1  0
 10 11  2  0
 10 12  1  0
 12 13  1  0
 13 14  2  0
 14 15  1  0
 15 16  2  0
 16 17  1  0
 17 18  2  0
 18 19  1  0
 19 20  2  0
 20 21  1  0
 21 22  2  0
 21 23  1  0
 20 24  1  0
 19 25  1  0
 18 26  1  0
 16 27  1  0
 14 28  1  0
 12 29  1  0
 29 30  1  0
 30 31  1  0
 31 32  1  0
 31 33  1  0
 31 34  1  0
 30 35  1  6
 29 36  1  0
 29 37  1  0
  9 38  1  0
 38 39  2  0
 39 40  1  0
 40 41  1  0
 40 42  2  0
 42 43  1  0
 43 44  2  0
 44 45  1  0
 45 46  2  0
 43 47  1  0
 42 48  1  0
 39 49  1  0
  8 50  1  0
  8 51  1  0
  6 52  1  0
  6 53  1  0
  5 54  1  0
  5 55  1  0
  4 56  1  0
 56 57  1  0
 57 58  1  0
 57 59  1  0
 57 60  1  0
 56 61  1  0
 56 62  1  0
  4 63  1  1
  3 64  1  0
  3 65  1  0
  2 66  1  1
  1 67  1  0
  1 68  1  0
  1 69  1  0
 58  2  1  0
 45  7  1  0
 30  9  1  0
 44 38  1  0
 22 13  1  0
 22 17  1  0
M  CHG  1   4   1
M  END
>  <cnnaffinities>  (24) 
[6.50602]

>  <score>  (24) 
6.50602

>  <index>  (24) 
23

>  <Smiles>  (24) 
C([C@]1(C([N@@+](C(C(N2C([C@@]3(C(=O)N(c4c(nc(c5c(c(c(c(c45)[H])[H])[H])[H])[H])[H])C([C@@]3(C([H])([H])[H])[H])([H])[H])c3c(c(Cl)c(c(c3C2=O)[H])[H])[H])([H])[H])([H])[H])([H])[H])(C(C(O1)([H])[H])([H])[H])[H])([H])[H])[H])([H])([H])[H]

>  <h>  (24) 
<NA>

>  <Training>  (24) 
True

>  <Success>  (24) 
True

>  <enamine_searched>  (24) 
False

>  <enamine_id>  (24) 
nan

$$$$

     RDKit          3D

 70 75  0  0  0  0  0  0  0  0999 V2000
    6.5251    4.5891   21.3309 C   0  0  0  0  0  0  0  0  0  0  0  0
    6.8339    3.6267   22.3942 N   0  0  0  0  0  4  0  0  0  0  0  0
    7.9195    4.0539   23.3084 C   0  0  0  0  0  0  0  0  0  0  0  0
    8.1232    3.0533   24.4427 C   0  0  0  0  0  0  0  0  0  0  0  0
    8.7111    1.8150   23.9725 N   0  0  0  0  0  0  0  0  0  0  0  0
    7.9387    0.5896   23.9091 C   0  0  0  0  0  0  0  0  0  0  0  0
    8.3269   -0.2667   22.6849 C   0  0  2  0  0  0  0  0  0  0  0  0
    7.7751    0.4181   21.4252 C   0  0  0  0  0  0  0  0  0  0  0  0
    7.9595    1.5823   21.0888 O   0  0  0  0  0  0  0  0  0  0  0  0
    6.9115   -0.4317   20.7941 N   0  0  0  0  0  0  0  0  0  0  0  0
    6.1112    0.0866   19.7462 C   0  0  0  0  0  0  0  0  0  0  0  0
    6.4539   -0.2056   18.4552 C   0  0  0  0  0  0  0  0  0  0  0  0
    5.7712    0.2358   17.3759 N   0  0  0  0  0  0  0  0  0  0  0  0
    4.7408    1.0130   17.6039 C   0  0  0  0  0  0  0  0  0  0  0  0
    4.3081    1.4156   18.9000 C   0  0  0  0  0  0  0  0  0  0  0  0
    3.1924    2.2704   19.0801 C   0  0  0  0  0  0  0  0  0  0  0  0
    2.8030    2.6563   20.3322 C   0  0  0  0  0  0  0  0  0  0  0  0
    3.5003    2.1980   21.4691 C   0  0  0  0  0  0  0  0  0  0  0  0
    4.5824    1.3611   21.3263 C   0  0  0  0  0  0  0  0  0  0  0  0
    5.0154    0.9472   20.0273 C   0  0  0  0  0  0  0  0  0  0  0  0
    5.0872    1.0067   22.2231 H   0  0  0  0  0  0  0  0  0  0  0  0
    3.1700    2.5045   22.4585 H   0  0  0  0  0  0  0  0  0  0  0  0
    1.9479    3.3115   20.4550 H   0  0  0  0  0  0  0  0  0  0  0  0
    2.6699    2.6141   18.1930 H   0  0  0  0  0  0  0  0  0  0  0  0
    4.1807    1.3673   16.7385 H   0  0  0  0  0  0  0  0  0  0  0  0
    7.3330   -0.8205   18.2741 H   0  0  0  0  0  0  0  0  0  0  0  0
    6.4787   -1.5376   21.6333 C   0  0  0  0  0  0  0  0  0  0  0  0
    7.6099   -1.6531   22.6571 C   0  0  2  0  0  0  0  0  0  0  0  0
    7.1656   -2.2623   23.9814 C   0  0  0  0  0  0  0  0  0  0  0  0
    6.0741   -1.5456   24.5310 O   0  0  0  0  0  0  0  0  0  0  0  0
    5.7037   -2.0023   25.8180 C   0  0  0  0  0  0  0  0  0  0  0  0
    4.6091   -1.0937   26.3459 C   0  0  0  0  0  0  0  0  0  0  0  0
    3.2649   -1.2406   25.6219 C   0  0  0  0  0  0  0  0  0  0  0  0
    2.6105   -1.7185   26.8029 O   0  0  0  0  0  0  0  0  0  0  0  0
    3.8312   -1.6337   27.5502 C   0  0  0  0  0  0  0  0  0  0  0  0
    3.7350   -0.9569   28.4078 H   0  0  0  0  0  0  0  0  0  0  0  0
    4.1684   -2.6239   27.8855 H   0  0  0  0  0  0  0  0  0  0  0  0
    2.8152   -0.3123   25.2500 H   0  0  0  0  0  0  0  0  0  0  0  0
    3.2870   -2.0125   24.8418 H   0  0  0  0  0  0  0  0  0  0  0  0
    4.9622   -0.0637   26.4438 H   0  0  0  0  0  0  0  0  0  0  0  0
    6.5720   -2.0059   26.4989 H   0  0  0  0  0  0  0  0  0  0  0  0
    5.3296   -3.0395   25.7532 H   0  0  0  0  0  0  0  0  0  0  0  0
    8.0173   -2.2629   24.6820 H   0  0  0  0  0  0  0  0  0  0  0  0
    6.8832   -3.3150   23.8131 H   0  0  0  0  0  0  0  0  0  0  0  0
    8.3264   -2.3728   22.2614 H   0  0  0  0  0  0  0  0  0  0  0  0
    5.5196   -1.3269   22.1236 H   0  0  0  0  0  0  0  0  0  0  0  0
    6.3671   -2.4451   21.0349 H   0  0  0  0  0  0  0  0  0  0  0  0
    9.8358   -0.3597   22.6112 C   0  0  0  0  0  0  0  0  0  0  0  0
   10.4442   -1.3556   21.8479 C   0  0  0  0  0  0  0  0  0  0  0  0
   11.8172   -1.4098   21.7428 C   0  0  0  0  0  0  0  0  0  0  0  0
   12.4069   -2.6324   20.6449 Cl  0  0  0  0  0  0  0  0  0  0  0  0
   12.6337   -0.5048   22.4396 C   0  0  0  0  0  0  0  0  0  0  0  0
   12.0344    0.5006   23.1629 C   0  0  0  0  0  0  0  0  0  0  0  0
   10.6519    0.6017   23.2083 C   0  0  0  0  0  0  0  0  0  0  0  0
   10.0703    1.8099   23.8501 C   0  0  0  0  0  0  0  0  0  0  0  0
   10.7672    2.7454   24.2303 O   0  0  0  0  0  0  0  0  0  0  0  0
   12.6169    1.2606   23.6737 H   0  0  0  0  0  0  0  0  0  0  0  0
   13.7137   -0.4873   22.4070 H   0  0  0  0  0  0  0  0  0  0  0  0
    9.8676   -2.0913   21.2972 H   0  0  0  0  0  0  0  0  0  0  0  0
    8.1045   -0.0012   24.8137 H   0  0  0  0  0  0  0  0  0  0  0  0
    6.8745    0.8275   23.8679 H   0  0  0  0  0  0  0  0  0  0  0  0
    8.8245    3.4666   25.1665 H   0  0  0  0  0  0  0  0  0  0  0  0
    7.1827    2.8217   24.9558 H   0  0  0  0  0  0  0  0  0  0  0  0
    8.8516    4.1363   22.7363 H   0  0  0  0  0  0  0  0  0  0  0  0
    7.7115    5.0377   23.7478 H   0  0  0  0  0  0  0  0  0  0  0  0
    5.9682    3.4716   22.9465 H   0  0  0  0  0  0  0  0  0  0  0  0
    7.1024    2.7286   21.9377 H   0  0  0  0  0  0  0  0  0  0  0  0
    6.3670    5.5953   21.7365 H   0  0  0  0  0  0  0  0  0  0  0  0
    7.3543    4.6375   20.6191 H   0  0  0  0  0  0  0  0  0  0  0  0
    5.6195    4.2663   20.8084 H   0  0  0  0  0  0  0  0  0  0  0  0
  1  2  1  0
  2  3  1  0
  3  4  1  0
  4  5  1  0
  5  6  1  0
  7  6  1  1
  7  8  1  0
  8  9  2  0
  8 10  1  0
 10 11  1  0
 11 12  2  0
 12 13  1  0
 13 14  2  0
 14 15  1  0
 15 16  2  0
 16 17  1  0
 17 18  2  0
 18 19  1  0
 19 20  2  0
 19 21  1  0
 18 22  1  0
 17 23  1  0
 16 24  1  0
 14 25  1  0
 12 26  1  0
 10 27  1  0
 27 28  1  0
 28 29  1  0
 29 30  1  0
 30 31  1  0
 31 32  1  0
 32 33  1  0
 33 34  1  0
 34 35  1  0
 35 36  1  0
 35 37  1  0
 33 38  1  0
 33 39  1  0
 32 40  1  0
 31 41  1  0
 31 42  1  0
 29 43  1  0
 29 44  1  0
 28 45  1  6
 27 46  1  0
 27 47  1  0
  7 48  1  0
 48 49  2  0
 49 50  1  0
 50 51  1  0
 50 52  2  0
 52 53  1  0
 53 54  2  0
 54 55  1  0
 55 56  2  0
 53 57  1  0
 52 58  1  0
 49 59  1  0
  6 60  1  0
  6 61  1  0
  4 62  1  0
  4 63  1  0
  3 64  1  0
  3 65  1  0
  2 66  1  0
  2 67  1  0
  1 68  1  0
  1 69  1  0
  1 70  1  0
 55  5  1  0
 28  7  1  0
 35 32  1  0
 54 48  1  0
 20 11  1  0
 20 15  1  0
M  CHG  1   2   1
M  END
>  <cnnaffinities>  (25) 
[6.00358, 6.9723]

>  <score>  (25) 
6.00358

>  <index>  (25) 
24

>  <Smiles>  (25) 
C([N+](C(C(N1C([C@@]2(C(=O)N(c3c(nc(c4c(c(c(c(c34)[H])[H])[H])[H])[H])[H])C([C@@]2(C(OC(C2(C(OC2([H])[H])([H])[H])[H])([H])[H])([H])[H])[H])([H])[H])c2c(c(Cl)c(c(c2C1=O)[H])[H])[H])([H])[H])([H])[H])([H])[H])([H])[H])([H])([H])[H]

>  <h>  (25) 
<NA>

>  <Training>  (25) 
True

>  <Success>  (25) 
True

>  <enamine_searched>  (25) 
False

>  <enamine_id>  (25) 
nan

$$$$

     RDKit          3D

 68 73  0  0  0  0  0  0  0  0999 V2000
    6.4904    4.4167   21.3639 C   0  0  0  0  0  0  0  0  0  0  0  0
    7.4318    4.0243   22.4025 N   0  0  0  0  0  0  0  0  0  0  0  0
    6.9389    3.3727   23.4988 C   0  0  0  0  0  0  0  0  0  0  0  0
    5.7434    3.1990   23.6823 O   0  0  0  0  0  0  0  0  0  0  0  0
    7.9882    2.8850   24.5091 C   0  0  0  0  0  0  0  0  0  0  0  0
    8.6938    1.7147   24.0162 N   0  0  0  0  0  0  0  0  0  0  0  0
    7.9716    0.4559   23.8815 C   0  0  0  0  0  0  0  0  0  0  0  0
    8.3977   -0.3452   22.6190 C   0  0  2  0  0  0  0  0  0  0  0  0
    7.8668    0.3281   21.3464 C   0  0  0  0  0  0  0  0  0  0  0  0
    8.2875    1.3467   20.8249 O   0  0  0  0  0  0  0  0  0  0  0  0
    6.8314   -0.4216   20.8509 N   0  0  0  0  0  0  0  0  0  0  0  0
    6.0814    0.0810   19.7679 C   0  0  0  0  0  0  0  0  0  0  0  0
    6.4528   -0.2035   18.4806 C   0  0  0  0  0  0  0  0  0  0  0  0
    5.7764    0.2307   17.3935 N   0  0  0  0  0  0  0  0  0  0  0  0
    4.7275    0.9929   17.5932 C   0  0  0  0  0  0  0  0  0  0  0  0
    4.2582    1.3859   18.8800 C   0  0  0  0  0  0  0  0  0  0  0  0
    3.1341    2.2330   19.0613 C   0  0  0  0  0  0  0  0  0  0  0  0
    2.7428    2.6149   20.3174 C   0  0  0  0  0  0  0  0  0  0  0  0
    3.4544    2.1707   21.4550 C   0  0  0  0  0  0  0  0  0  0  0  0
    4.5415    1.3441   21.3061 C   0  0  0  0  0  0  0  0  0  0  0  0
    4.9646    0.9285   20.0120 C   0  0  0  0  0  0  0  0  0  0  0  0
    5.1150    1.0437   22.1783 H   0  0  0  0  0  0  0  0  0  0  0  0
    3.1720    2.5107   22.4473 H   0  0  0  0  0  0  0  0  0  0  0  0
    1.8902    3.2752   20.4438 H   0  0  0  0  0  0  0  0  0  0  0  0
    2.6187    2.5931   18.1762 H   0  0  0  0  0  0  0  0  0  0  0  0
    4.1935    1.3437   16.7103 H   0  0  0  0  0  0  0  0  0  0  0  0
    7.3365   -0.8099   18.2894 H   0  0  0  0  0  0  0  0  0  0  0  0
    6.4878   -1.5896   21.6381 C   0  0  0  0  0  0  0  0  0  0  0  0
    7.7371   -1.7554   22.5183 C   0  0  2  0  0  0  0  0  0  0  0  0
    7.5307   -2.4870   23.8522 C   0  0  0  0  0  0  0  0  0  0  0  0
    7.1816   -3.8897   23.7468 N   0  0  0  0  0  0  0  0  0  0  0  0
    5.8432   -4.2702   23.6199 C   0  0  0  0  0  0  0  0  0  0  0  0
    5.3932   -5.5470   23.2007 C   0  0  0  0  0  0  0  0  0  0  0  0
    4.0709   -5.6289   23.2181 N   0  0  0  0  0  0  0  0  0  0  0  0
    3.6498   -4.4481   23.6742 N   0  0  0  0  0  0  0  0  0  0  0  0
    2.2288   -4.1914   23.6719 C   0  0  0  0  0  0  0  0  0  0  0  0
    1.8588   -4.1409   22.6441 H   0  0  0  0  0  0  0  0  0  0  0  0
    1.7031   -5.0048   24.1777 H   0  0  0  0  0  0  0  0  0  0  0  0
    2.0209   -3.2490   24.1808 H   0  0  0  0  0  0  0  0  0  0  0  0
    4.6810   -3.5888   23.9305 C   0  0  0  0  0  0  0  0  0  0  0  0
    4.5168   -2.6029   24.3551 H   0  0  0  0  0  0  0  0  0  0  0  0
    5.9799   -6.4093   22.9012 H   0  0  0  0  0  0  0  0  0  0  0  0
    7.7950   -4.4141   23.1342 H   0  0  0  0  0  0  0  0  0  0  0  0
    8.4596   -2.4126   24.4332 H   0  0  0  0  0  0  0  0  0  0  0  0
    6.7464   -1.9943   24.4332 H   0  0  0  0  0  0  0  0  0  0  0  0
    8.4376   -2.3609   21.9379 H   0  0  0  0  0  0  0  0  0  0  0  0
    6.3072   -2.4533   20.9877 H   0  0  0  0  0  0  0  0  0  0  0  0
    5.5731   -1.4334   22.2321 H   0  0  0  0  0  0  0  0  0  0  0  0
    9.9034   -0.3627   22.5368 C   0  0  0  0  0  0  0  0  0  0  0  0
   10.5478   -1.2036   21.6233 C   0  0  0  0  0  0  0  0  0  0  0  0
   11.9232   -1.2083   21.5313 C   0  0  0  0  0  0  0  0  0  0  0  0
   12.6135   -2.1709   20.2484 Cl  0  0  0  0  0  0  0  0  0  0  0  0
   12.6935   -0.4122   22.3858 C   0  0  0  0  0  0  0  0  0  0  0  0
   12.0576    0.4934   23.2027 C   0  0  0  0  0  0  0  0  0  0  0  0
   10.6728    0.5785   23.2208 C   0  0  0  0  0  0  0  0  0  0  0  0
   10.0546    1.7675   23.8863 C   0  0  0  0  0  0  0  0  0  0  0  0
   10.7206    2.7257   24.2518 O   0  0  0  0  0  0  0  0  0  0  0  0
   12.6245    1.1829   23.8131 H   0  0  0  0  0  0  0  0  0  0  0  0
   13.7746   -0.4020   22.3667 H   0  0  0  0  0  0  0  0  0  0  0  0
   10.0038   -1.8408   20.9359 H   0  0  0  0  0  0  0  0  0  0  0  0
    6.9040    0.6864   23.8233 H   0  0  0  0  0  0  0  0  0  0  0  0
    8.1514   -0.1502   24.7803 H   0  0  0  0  0  0  0  0  0  0  0  0
    8.7576    3.6389   24.7201 H   0  0  0  0  0  0  0  0  0  0  0  0
    7.4559    2.6652   25.4417 H   0  0  0  0  0  0  0  0  0  0  0  0
    8.3732    3.8028   22.0947 H   0  0  0  0  0  0  0  0  0  0  0  0
    5.6881    5.0129   21.8062 H   0  0  0  0  0  0  0  0  0  0  0  0
    7.0013    5.0137   20.6032 H   0  0  0  0  0  0  0  0  0  0  0  0
    6.0172    3.5467   20.8856 H   0  0  0  0  0  0  0  0  0  0  0  0
  1  2  1  0
  2  3  1  0
  3  4  2  0
  3  5  1  0
  5  6  1  0
  6  7  1  0
  8  7  1  1
  8  9  1  0
  9 10  2  0
  9 11  1  0
 11 12  1  0
 12 13  2  0
 13 14  1  0
 14 15  2  0
 15 16  1  0
 16 17  2  0
 17 18  1  0
 18 19  2  0
 19 20  1  0
 20 21  2  0
 20 22  1  0
 19 23  1  0
 18 24  1  0
 17 25  1  0
 15 26  1  0
 13 27  1  0
 11 28  1  0
 28 29  1  0
 29 30  1  0
 30 31  1  0
 31 32  1  0
 32 33  1  0
 33 34  2  0
 34 35  1  0
 35 36  1  0
 36 37  1  0
 36 38  1  0
 36 39  1  0
 35 40  1  0
 40 41  1  0
 33 42  1  0
 31 43  1  0
 30 44  1  0
 30 45  1  0
 29 46  1  6
 28 47  1  0
 28 48  1  0
  8 49  1  0
 49 50  2  0
 50 51  1  0
 51 52  1  0
 51 53  2  0
 53 54  1  0
 54 55  2  0
 55 56  1  0
 56 57  2  0
 54 58  1  0
 53 59  1  0
 50 60  1  0
  7 61  1  0
  7 62  1  0
  5 63  1  0
  5 64  1  0
  2 65  1  0
  1 66  1  0
  1 67  1  0
  1 68  1  0
 56  6  1  0
 29  8  1  0
 40 32  2  0
 55 49  1  0
 21 12  1  0
 21 16  1  0
M  END
>  <cnnaffinities>  (26) 
[6.88237]

>  <score>  (26) 
6.88237

>  <index>  (26) 
25

>  <Smiles>  (26) 
C(N(C(=O)C(N1C([C@@]2(C(=O)N(c3c(nc(c4c(c(c(c(c34)[H])[H])[H])[H])[H])[H])C([C@@]2(C(N(c2c(nn(C([H])([H])[H])c2[H])[H])[H])([H])[H])[H])([H])[H])c2c(c(Cl)c(c(c2C1=O)[H])[H])[H])([H])[H])([H])[H])[H])([H])([H])[H]

>  <h>  (26) 
<NA>

>  <Training>  (26) 
True

>  <Success>  (26) 
True

>  <enamine_searched>  (26) 
False

>  <enamine_id>  (26) 
nan

$$$$

     RDKit          3D

 43 47  0  0  0  0  0  0  0  0999 V2000
    8.9716    0.4882   20.6031 O   0  0  0  0  0  0  0  0  0  0  0  0
    8.2751   -0.3962   21.0314 C   0  0  0  0  0  0  0  0  0  0  0  0
    8.6438   -1.4424   21.8324 N   0  0  0  0  0  0  0  0  0  0  0  0
    7.5294   -2.0979   22.4783 C   0  0  1  0  0  0  0  0  0  0  0  0
    7.5642   -3.6367   22.5472 C   0  0  0  0  0  0  0  0  0  0  0  0
    7.5957   -3.5923   24.1036 C   0  0  2  0  0  0  0  0  0  0  0  0
    6.4928   -4.3199   24.8362 C   0  0  0  0  0  0  0  0  0  0  0  0
    5.8187   -5.4010   24.2614 C   0  0  0  0  0  0  0  0  0  0  0  0
    4.7844   -6.0492   24.9237 C   0  0  0  0  0  0  0  0  0  0  0  0
    4.4041   -5.6363   26.1992 C   0  0  0  0  0  0  0  0  0  0  0  0
    5.0871   -4.5915   26.8152 C   0  0  0  0  0  0  0  0  0  0  0  0
    6.1302   -3.9671   26.1408 C   0  0  0  0  0  0  0  0  0  0  0  0
    7.0161   -2.7080   26.9710 Cl  0  0  0  0  0  0  0  0  0  0  0  0
    4.8277   -4.2522   27.8141 H   0  0  0  0  0  0  0  0  0  0  0  0
    3.5947   -6.1364   26.7248 H   0  0  0  0  0  0  0  0  0  0  0  0
    4.2771   -6.8764   24.4334 H   0  0  0  0  0  0  0  0  0  0  0  0
    6.1200   -5.7211   23.2665 H   0  0  0  0  0  0  0  0  0  0  0  0
    7.4726   -2.0373   24.0262 C   0  0  0  0  0  0  0  0  0  0  0  0
    8.3094   -1.4902   24.4764 H   0  0  0  0  0  0  0  0  0  0  0  0
    6.5313   -1.6319   24.4113 H   0  0  0  0  0  0  0  0  0  0  0  0
    8.5752   -3.8964   24.5063 H   0  0  0  0  0  0  0  0  0  0  0  0
    6.6644   -4.0700   22.0998 H   0  0  0  0  0  0  0  0  0  0  0  0
    8.4516   -4.0578   22.0684 H   0  0  0  0  0  0  0  0  0  0  0  0
    6.3453   -1.4993   21.7302 C   0  0  0  0  0  0  0  0  0  0  0  0
    5.1773   -1.7741   21.8826 O   0  0  0  0  0  0  0  0  0  0  0  0
    6.8704   -0.5478   20.8435 N   0  0  0  0  0  0  0  0  0  0  0  0
    6.1265    0.0559   19.7835 C   0  0  0  0  0  0  0  0  0  0  0  0
    6.4603   -0.2283   18.4811 C   0  0  0  0  0  0  0  0  0  0  0  0
    5.7816    0.2329   17.4040 N   0  0  0  0  0  0  0  0  0  0  0  0
    4.7557    1.0135   17.6187 C   0  0  0  0  0  0  0  0  0  0  0  0
    4.3083    1.4071   18.9062 C   0  0  0  0  0  0  0  0  0  0  0  0
    3.1837    2.2593   19.0681 C   0  0  0  0  0  0  0  0  0  0  0  0
    2.7799    2.6447   20.3139 C   0  0  0  0  0  0  0  0  0  0  0  0
    3.4901    2.1891   21.4481 C   0  0  0  0  0  0  0  0  0  0  0  0
    4.5782    1.3606   21.3175 C   0  0  0  0  0  0  0  0  0  0  0  0
    5.0148    0.9299   20.0335 C   0  0  0  0  0  0  0  0  0  0  0  0
    5.1051    1.0149   22.2011 H   0  0  0  0  0  0  0  0  0  0  0  0
    3.1678    2.5013   22.4347 H   0  0  0  0  0  0  0  0  0  0  0  0
    1.9298    3.3121   20.4364 H   0  0  0  0  0  0  0  0  0  0  0  0
    2.6748    2.6163   18.1769 H   0  0  0  0  0  0  0  0  0  0  0  0
    4.2256    1.3751   16.7393 H   0  0  0  0  0  0  0  0  0  0  0  0
    7.3013   -0.8780   18.2562 H   0  0  0  0  0  0  0  0  0  0  0  0
    9.6035   -1.5890   22.1007 H   0  0  0  0  0  0  0  0  0  0  0  0
  1  2  2  0
  2  3  1  0
  4  3  1  6
  4  5  1  0
  5  6  1  0
  6  7  1  0
  7  8  2  0
  8  9  1  0
  9 10  2  0
 10 11  1  0
 11 12  2  0
 12 13  1  0
 11 14  1  0
 10 15  1  0
  9 16  1  0
  8 17  1  0
  6 18  1  0
 18 19  1  0
 18 20  1  0
  6 21  1  1
  5 22  1  0
  5 23  1  0
  4 24  1  0
 24 25  2  0
 24 26  1  0
 26 27  1  0
 27 28  2  0
 28 29  1  0
 29 30  2  0
 30 31  1  0
 31 32  2  0
 32 33  1  0
 33 34  2  0
 34 35  1  0
 35 36  2  0
 35 37  1  0
 34 38  1  0
 33 39  1  0
 32 40  1  0
 30 41  1  0
 28 42  1  0
  3 43  1  0
 26  2  1  0
 36 27  1  0
 18  4  1  0
 36 31  1  0
 12  7  1  0
M  END
>  <cnnaffinities>  (27) 
[6.01578]

>  <score>  (27) 
6.01578

>  <index>  (27) 
26

>  <Smiles>  (27) 
O=C1N([C@]2(C([C@](c3c(c(c(c(c3Cl)[H])[H])[H])[H])(C2([H])[H])[H])([H])[H])C(=O)N1c1c(nc(c2c(c(c(c(c12)[H])[H])[H])[H])[H])[H])[H]

>  <h>  (27) 
<NA>

>  <Training>  (27) 
True

>  <Success>  (27) 
True

>  <enamine_searched>  (27) 
False

>  <enamine_id>  (27) 
nan

$$$$

     RDKit          3D

 46 48  0  0  0  0  0  0  0  0999 V2000
    7.6344    0.6653   24.4177 C   0  0  0  0  0  0  0  0  0  0  0  0
    7.8337   -0.8023   24.7994 C   0  0  0  0  0  0  0  0  0  0  0  0
    7.7522   -1.7518   23.5958 C   0  0  1  0  0  0  0  0  0  0  0  0
    8.2392   -3.1877   23.9038 C   0  0  0  0  0  0  0  0  0  0  0  0
    7.2316   -4.1459   24.5561 C   0  0  1  0  0  0  0  0  0  0  0  0
    7.1698   -4.0732   26.0753 C   0  0  0  0  0  0  0  0  0  0  0  0
    6.5486   -2.9700   26.5542 F   0  0  0  0  0  0  0  0  0  0  0  0
    8.3991   -4.0955   26.6154 F   0  0  0  0  0  0  0  0  0  0  0  0
    6.4728   -5.1288   26.5532 F   0  0  0  0  0  0  0  0  0  0  0  0
    5.8423   -4.0055   23.9411 C   0  0  0  0  0  0  0  0  0  0  0  0
    5.4339   -2.5428   23.7690 C   0  0  0  0  0  0  0  0  0  0  0  0
    6.4138   -1.7863   23.0003 N   0  0  0  0  0  0  0  0  0  0  0  0
    6.1562   -1.6239   21.6485 C   0  0  0  0  0  0  0  0  0  0  0  0
    5.3242   -2.3068   21.0775 O   0  0  0  0  0  0  0  0  0  0  0  0
    6.9183   -0.5017   20.9128 C   0  0  0  0  0  0  0  0  0  0  0  0
    6.1168    0.0847   19.7757 C   0  0  0  0  0  0  0  0  0  0  0  0
    6.4235   -0.2176   18.4761 C   0  0  0  0  0  0  0  0  0  0  0  0
    5.7567    0.2343   17.3809 N   0  0  0  0  0  0  0  0  0  0  0  0
    4.7345    1.0254   17.5853 C   0  0  0  0  0  0  0  0  0  0  0  0
    4.2839    1.4125   18.8750 C   0  0  0  0  0  0  0  0  0  0  0  0
    3.1603    2.2583   19.0502 C   0  0  0  0  0  0  0  0  0  0  0  0
    2.7457    2.6184   20.3027 C   0  0  0  0  0  0  0  0  0  0  0  0
    3.4392    2.1355   21.4370 C   0  0  0  0  0  0  0  0  0  0  0  0
    4.5286    1.3139   21.2936 C   0  0  0  0  0  0  0  0  0  0  0  0
    4.9883    0.9306   20.0050 C   0  0  0  0  0  0  0  0  0  0  0  0
    5.0450    0.9485   22.1769 H   0  0  0  0  0  0  0  0  0  0  0  0
    3.1069    2.4256   22.4282 H   0  0  0  0  0  0  0  0  0  0  0  0
    1.8970    3.2824   20.4313 H   0  0  0  0  0  0  0  0  0  0  0  0
    2.6568    2.6341   18.1631 H   0  0  0  0  0  0  0  0  0  0  0  0
    4.2079    1.3936   16.7026 H   0  0  0  0  0  0  0  0  0  0  0  0
    7.2645   -0.8690   18.2418 H   0  0  0  0  0  0  0  0  0  0  0  0
    7.2123    0.2680   21.6372 H   0  0  0  0  0  0  0  0  0  0  0  0
    7.8529   -0.9207   20.5139 H   0  0  0  0  0  0  0  0  0  0  0  0
    4.4982   -2.4922   23.2172 H   0  0  0  0  0  0  0  0  0  0  0  0
    5.3197   -2.0566   24.7437 H   0  0  0  0  0  0  0  0  0  0  0  0
    5.8322   -4.4702   22.9483 H   0  0  0  0  0  0  0  0  0  0  0  0
    5.1136   -4.5290   24.5681 H   0  0  0  0  0  0  0  0  0  0  0  0
    7.5918   -5.1682   24.3765 H   0  0  0  0  0  0  0  0  0  0  0  0
    8.5344   -3.6297   22.9453 H   0  0  0  0  0  0  0  0  0  0  0  0
    9.1362   -3.1388   24.5256 H   0  0  0  0  0  0  0  0  0  0  0  0
    8.4216   -1.3576   22.8240 H   0  0  0  0  0  0  0  0  0  0  0  0
    8.8308   -0.9284   25.2455 H   0  0  0  0  0  0  0  0  0  0  0  0
    7.1225   -1.1108   25.5687 H   0  0  0  0  0  0  0  0  0  0  0  0
    7.7442    1.3187   25.2887 H   0  0  0  0  0  0  0  0  0  0  0  0
    8.3772    0.9877   23.6752 H   0  0  0  0  0  0  0  0  0  0  0  0
    6.6387    0.8391   23.9910 H   0  0  0  0  0  0  0  0  0  0  0  0
  1  2  1  0
  2  3  1  0
  3  4  1  0
  4  5  1  0
  5  6  1  0
  6  7  1  0
  6  8  1  0
  6  9  1  0
  5 10  1  0
 10 11  1  0
 11 12  1  0
 12 13  1  0
 13 14  2  0
 13 15  1  0
 15 16  1  0
 16 17  2  0
 17 18  1  0
 18 19  2  0
 19 20  1  0
 20 21  2  0
 21 22  1  0
 22 23  2  0
 23 24  1  0
 24 25  2  0
 24 26  1  0
 23 27  1  0
 22 28  1  0
 21 29  1  0
 19 30  1  0
 17 31  1  0
 15 32  1  0
 15 33  1  0
 11 34  1  0
 11 35  1  0
 10 36  1  0
 10 37  1  0
  5 38  1  1
  4 39  1  0
  4 40  1  0
  3 41  1  6
  2 42  1  0
  2 43  1  0
  1 44  1  0
  1 45  1  0
  1 46  1  0
 12  3  1  0
 25 16  1  0
 25 20  1  0
M  END
>  <cnnaffinities>  (28) 
[5.45365, 5.58905]

>  <score>  (28) 
5.45365

>  <index>  (28) 
27

>  <Smiles>  (28) 
C(C([C@]1(C([C@@](C(F)(F)F)(C(C(N1C(=O)C(c1c(nc(c2c(c(c(c(c12)[H])[H])[H])[H])[H])[H])([H])[H])([H])[H])([H])[H])[H])([H])[H])[H])([H])[H])([H])([H])[H]

>  <h>  (28) 
<NA>

>  <Training>  (28) 
True

>  <Success>  (28) 
True

>  <enamine_searched>  (28) 
False

>  <enamine_id>  (28) 
nan

$$$$

     RDKit          3D

 70 75  0  0  0  0  0  0  0  0999 V2000
    6.4637    4.5925   21.4460 C   0  0  0  0  0  0  0  0  0  0  0  0
    6.8118    3.5780   22.4446 N   0  0  0  0  0  4  0  0  0  0  0  0
    7.8190    4.0193   23.4314 C   0  0  0  0  0  0  0  0  0  0  0  0
    8.0498    2.9708   24.5178 C   0  0  0  0  0  0  0  0  0  0  0  0
    8.6733    1.7579   24.0168 N   0  0  0  0  0  0  0  0  0  0  0  0
    7.9326    0.5114   23.9390 C   0  0  0  0  0  0  0  0  0  0  0  0
    8.3209   -0.3105   22.6851 C   0  0  2  0  0  0  0  0  0  0  0  0
    7.7416    0.3918   21.4480 C   0  0  0  0  0  0  0  0  0  0  0  0
    7.9359    1.5505   21.1079 O   0  0  0  0  0  0  0  0  0  0  0  0
    6.8786   -0.4495   20.8074 N   0  0  0  0  0  0  0  0  0  0  0  0
    6.1010    0.0836   19.7511 C   0  0  0  0  0  0  0  0  0  0  0  0
    6.4524   -0.2036   18.4601 C   0  0  0  0  0  0  0  0  0  0  0  0
    5.7677    0.2378   17.3845 N   0  0  0  0  0  0  0  0  0  0  0  0
    4.7338    1.0109   17.6100 C   0  0  0  0  0  0  0  0  0  0  0  0
    4.2972    1.4149   18.9051 C   0  0  0  0  0  0  0  0  0  0  0  0
    3.1814    2.2722   19.0857 C   0  0  0  0  0  0  0  0  0  0  0  0
    2.7932    2.6610   20.3380 C   0  0  0  0  0  0  0  0  0  0  0  0
    3.4982    2.2050   21.4718 C   0  0  0  0  0  0  0  0  0  0  0  0
    4.5807    1.3687   21.3252 C   0  0  0  0  0  0  0  0  0  0  0  0
    5.0085    0.9506   20.0280 C   0  0  0  0  0  0  0  0  0  0  0  0
    5.0998    1.0088   22.2111 H   0  0  0  0  0  0  0  0  0  0  0  0
    3.1818    2.5211   22.4625 H   0  0  0  0  0  0  0  0  0  0  0  0
    1.9423    3.3245   20.4616 H   0  0  0  0  0  0  0  0  0  0  0  0
    2.6650    2.6199   18.1971 H   0  0  0  0  0  0  0  0  0  0  0  0
    4.1864    1.3660   16.7382 H   0  0  0  0  0  0  0  0  0  0  0  0
    7.3287   -0.8201   18.2676 H   0  0  0  0  0  0  0  0  0  0  0  0
    6.4491   -1.5571   21.6452 C   0  0  0  0  0  0  0  0  0  0  0  0
    7.6350   -1.7084   22.6001 C   0  0  2  0  0  0  0  0  0  0  0  0
    7.2864   -2.3917   23.9065 C   0  0  0  0  0  0  0  0  0  0  0  0
    6.1436   -1.7520   24.4572 O   0  0  0  0  0  0  0  0  0  0  0  0
    5.7760   -2.2026   25.7348 C   0  0  0  0  0  0  0  0  0  0  0  0
    6.3676   -1.3216   26.8062 C   0  0  0  0  0  0  0  0  0  0  0  0
    7.7529   -1.4367   26.7433 F   0  0  0  0  0  0  0  0  0  0  0  0
    5.8304   -1.4434   28.2288 C   0  0  0  0  0  0  0  0  0  0  0  0
    5.3354   -0.0952   28.1949 O   0  0  0  0  0  0  0  0  0  0  0  0
    5.9248    0.1387   26.9083 C   0  0  0  0  0  0  0  0  0  0  0  0
    5.2023    0.5049   26.1696 H   0  0  0  0  0  0  0  0  0  0  0  0
    6.7812    0.8222   26.9615 H   0  0  0  0  0  0  0  0  0  0  0  0
    6.6261   -1.5870   28.9708 H   0  0  0  0  0  0  0  0  0  0  0  0
    5.0295   -2.1716   28.3993 H   0  0  0  0  0  0  0  0  0  0  0  0
    4.6823   -2.1661   25.7962 H   0  0  0  0  0  0  0  0  0  0  0  0
    6.1062   -3.2400   25.8936 H   0  0  0  0  0  0  0  0  0  0  0  0
    7.0719   -3.4564   23.7241 H   0  0  0  0  0  0  0  0  0  0  0  0
    8.1390   -2.3360   24.5958 H   0  0  0  0  0  0  0  0  0  0  0  0
    8.3460   -2.3615   22.0961 H   0  0  0  0  0  0  0  0  0  0  0  0
    5.5274   -1.3186   22.1895 H   0  0  0  0  0  0  0  0  0  0  0  0
    6.2749   -2.4531   21.0427 H   0  0  0  0  0  0  0  0  0  0  0  0
    9.8309   -0.3713   22.5876 C   0  0  0  0  0  0  0  0  0  0  0  0
   10.4509   -1.3306   21.7803 C   0  0  0  0  0  0  0  0  0  0  0  0
   11.8228   -1.3653   21.6554 C   0  0  0  0  0  0  0  0  0  0  0  0
   12.4598   -2.5190   20.5079 Cl  0  0  0  0  0  0  0  0  0  0  0  0
   12.6181   -0.4732   22.3831 C   0  0  0  0  0  0  0  0  0  0  0  0
   12.0146    0.5077   23.1379 C   0  0  0  0  0  0  0  0  0  0  0  0
   10.6283    0.5940   23.1982 C   0  0  0  0  0  0  0  0  0  0  0  0
   10.0278    1.7877   23.8638 C   0  0  0  0  0  0  0  0  0  0  0  0
   10.7169    2.7311   24.2328 O   0  0  0  0  0  0  0  0  0  0  0  0
   12.6056    1.2497   23.6623 H   0  0  0  0  0  0  0  0  0  0  0  0
   13.6948   -0.4433   22.3468 H   0  0  0  0  0  0  0  0  0  0  0  0
    9.9030   -2.0525   21.1904 H   0  0  0  0  0  0  0  0  0  0  0  0
    6.8731    0.7538   23.8658 H   0  0  0  0  0  0  0  0  0  0  0  0
    8.0975   -0.0840   24.8481 H   0  0  0  0  0  0  0  0  0  0  0  0
    8.7566    3.3746   25.2401 H   0  0  0  0  0  0  0  0  0  0  0  0
    7.1145    2.6980   25.0245 H   0  0  0  0  0  0  0  0  0  0  0  0
    7.5042    4.9605   23.8982 H   0  0  0  0  0  0  0  0  0  0  0  0
    8.7747    4.2051   22.9281 H   0  0  0  0  0  0  0  0  0  0  0  0
    7.1711    2.7388   21.9540 H   0  0  0  0  0  0  0  0  0  0  0  0
    5.9388    3.3089   22.9343 H   0  0  0  0  0  0  0  0  0  0  0  0
    7.3079    4.7683   20.7750 H   0  0  0  0  0  0  0  0  0  0  0  0
    5.6039    4.2469   20.8648 H   0  0  0  0  0  0  0  0  0  0  0  0
    6.2151    5.5451   21.9255 H   0  0  0  0  0  0  0  0  0  0  0  0
  1  2  1  0
  2  3  1  0
  3  4  1  0
  4  5  1  0
  5  6  1  0
  7  6  1  1
  7  8  1  0
  8  9  2  0
  8 10  1  0
 10 11  1  0
 11 12  2  0
 12 13  1  0
 13 14  2  0
 14 15  1  0
 15 16  2  0
 16 17  1  0
 17 18  2  0
 18 19  1  0
 19 20  2  0
 19 21  1  0
 18 22  1  0
 17 23  1  0
 16 24  1  0
 14 25  1  0
 12 26  1  0
 10 27  1  0
 27 28  1  0
 28 29  1  0
 29 30  1  0
 30 31  1  0
 31 32  1  0
 32 33  1  0
 32 34  1  0
 34 35  1  0
 35 36  1  0
 36 37  1  0
 36 38  1  0
 34 39  1  0
 34 40  1  0
 31 41  1  0
 31 42  1  0
 29 43  1  0
 29 44  1  0
 28 45  1  6
 27 46  1  0
 27 47  1  0
  7 48  1  0
 48 49  2  0
 49 50  1  0
 50 51  1  0
 50 52  2  0
 52 53  1  0
 53 54  2  0
 54 55  1  0
 55 56  2  0
 53 57  1  0
 52 58  1  0
 49 59  1  0
  6 60  1  0
  6 61  1  0
  4 62  1  0
  4 63  1  0
  3 64  1  0
  3 65  1  0
  2 66  1  0
  2 67  1  0
  1 68  1  0
  1 69  1  0
  1 70  1  0
 55  5  1  0
 28  7  1  0
 36 32  1  0
 54 48  1  0
 20 11  1  0
 20 15  1  0
M  CHG  1   2   1
M  END
>  <cnnaffinities>  (29) 
[6.15348, 6.71317]

>  <score>  (29) 
6.15348

>  <index>  (29) 
28

>  <Smiles>  (29) 
C([N+](C(C(N1C([C@@]2(C(=O)N(c3c(nc(c4c(c(c(c(c34)[H])[H])[H])[H])[H])[H])C([C@@]2(C(OC(C2(F)C(OC2([H])[H])([H])[H])([H])[H])([H])[H])[H])([H])[H])c2c(c(Cl)c(c(c2C1=O)[H])[H])[H])([H])[H])([H])[H])([H])[H])([H])[H])([H])([H])[H]

>  <h>  (29) 
<NA>

>  <Training>  (29) 
True

>  <Success>  (29) 
True

>  <enamine_searched>  (29) 
False

>  <enamine_id>  (29) 
nan

$$$$

     RDKit          3D

 67 72  0  0  0  0  0  0  0  0999 V2000
    6.5850    4.3978   21.2981 C   0  0  0  0  0  0  0  0  0  0  0  0
    6.9604    3.4307   22.3286 N   0  0  0  0  0  4  0  0  0  0  0  0
    7.9768    3.8963   23.2956 C   0  0  0  0  0  0  0  0  0  0  0  0
    8.1264    2.8881   24.4278 C   0  0  0  0  0  0  0  0  0  0  0  0
    8.7103    1.6406   23.9503 N   0  0  0  0  0  0  0  0  0  0  0  0
    7.9763    0.3814   23.8572 C   0  0  0  0  0  0  0  0  0  0  0  0
    8.3883   -0.4405   22.5974 C   0  0  2  0  0  0  0  0  0  0  0  0
    7.8628    0.2879   21.3482 C   0  0  0  0  0  0  0  0  0  0  0  0
    8.1797    1.4025   20.9439 O   0  0  0  0  0  0  0  0  0  0  0  0
    6.8623   -0.4604   20.7986 N   0  0  0  0  0  0  0  0  0  0  0  0
    6.0953    0.0794   19.7398 C   0  0  0  0  0  0  0  0  0  0  0  0
    6.4435   -0.1983   18.4444 C   0  0  0  0  0  0  0  0  0  0  0  0
    5.7598    0.2461   17.3680 N   0  0  0  0  0  0  0  0  0  0  0  0
    4.7239    1.0168   17.5973 C   0  0  0  0  0  0  0  0  0  0  0  0
    4.2912    1.4173   18.8943 C   0  0  0  0  0  0  0  0  0  0  0  0
    3.1770    2.2769   19.0810 C   0  0  0  0  0  0  0  0  0  0  0  0
    2.8044    2.6697   20.3379 C   0  0  0  0  0  0  0  0  0  0  0  0
    3.5182    2.2176   21.4665 C   0  0  0  0  0  0  0  0  0  0  0  0
    4.5958    1.3749   21.3121 C   0  0  0  0  0  0  0  0  0  0  0  0
    5.0049    0.9490   20.0141 C   0  0  0  0  0  0  0  0  0  0  0  0
    5.1276    1.0211   22.1910 H   0  0  0  0  0  0  0  0  0  0  0  0
    3.2094    2.5384   22.4576 H   0  0  0  0  0  0  0  0  0  0  0  0
    1.9581    3.3358   20.4683 H   0  0  0  0  0  0  0  0  0  0  0  0
    2.6510    2.6252   18.1982 H   0  0  0  0  0  0  0  0  0  0  0  0
    4.1722    1.3713   16.7291 H   0  0  0  0  0  0  0  0  0  0  0  0
    7.3184   -0.8157   18.2563 H   0  0  0  0  0  0  0  0  0  0  0  0
    6.4005   -1.5352   21.6587 C   0  0  0  0  0  0  0  0  0  0  0  0
    7.6542   -1.8021   22.4851 C   0  0  2  0  0  0  0  0  0  0  0  0
    7.4161   -2.5274   23.8055 C   0  0  0  0  0  0  0  0  0  0  0  0
    6.8490   -3.8465   23.6319 N   0  0  0  0  0  0  0  0  0  0  0  0
    5.5347   -4.1253   23.6681 C   0  0  0  0  0  0  0  0  0  0  0  0
    5.1733   -5.3838   23.3240 N   0  0  0  0  0  0  0  0  0  0  0  0
    3.8689   -5.5947   23.3714 C   0  0  0  0  0  0  0  0  0  0  0  0
    2.9285   -4.7170   23.7307 N   0  0  0  0  0  0  0  0  0  0  0  0
    3.4105   -3.5250   24.0658 C   0  0  0  0  0  0  0  0  0  0  0  0
    4.6842   -3.1485   24.0473 N   0  0  0  0  0  0  0  0  0  0  0  0
    2.6803   -2.7842   24.3875 H   0  0  0  0  0  0  0  0  0  0  0  0
    3.5018   -6.5839   23.0920 H   0  0  0  0  0  0  0  0  0  0  0  0
    7.4507   -4.6058   23.3554 H   0  0  0  0  0  0  0  0  0  0  0  0
    6.7234   -1.9580   24.4303 H   0  0  0  0  0  0  0  0  0  0  0  0
    8.3739   -2.6089   24.3314 H   0  0  0  0  0  0  0  0  0  0  0  0
    8.2549   -2.4456   21.8401 H   0  0  0  0  0  0  0  0  0  0  0  0
    5.5475   -1.2436   22.2860 H   0  0  0  0  0  0  0  0  0  0  0  0
    6.0917   -2.4036   21.0761 H   0  0  0  0  0  0  0  0  0  0  0  0
    9.8919   -0.5303   22.5372 C   0  0  0  0  0  0  0  0  0  0  0  0
   10.5339   -1.4970   21.7555 C   0  0  0  0  0  0  0  0  0  0  0  0
   11.8927   -1.4342   21.5682 C   0  0  0  0  0  0  0  0  0  0  0  0
   12.5666   -2.4814   20.3525 Cl  0  0  0  0  0  0  0  0  0  0  0  0
   12.6699   -0.4876   22.2319 C   0  0  0  0  0  0  0  0  0  0  0  0
   12.0484    0.4858   22.9810 C   0  0  0  0  0  0  0  0  0  0  0  0
   10.6664    0.4904   23.1015 C   0  0  0  0  0  0  0  0  0  0  0  0
   10.0647    1.6844   23.7725 C   0  0  0  0  0  0  0  0  0  0  0  0
   10.7463    2.6492   24.1076 O   0  0  0  0  0  0  0  0  0  0  0  0
   12.6243    1.2710   23.4483 H   0  0  0  0  0  0  0  0  0  0  0  0
   13.7395   -0.4507   22.1244 H   0  0  0  0  0  0  0  0  0  0  0  0
   10.0183   -2.3310   21.2924 H   0  0  0  0  0  0  0  0  0  0  0  0
    6.8930    0.5849   23.8202 H   0  0  0  0  0  0  0  0  0  0  0  0
    8.1981   -0.2139   24.7555 H   0  0  0  0  0  0  0  0  0  0  0  0
    7.1666    2.7152   24.9119 H   0  0  0  0  0  0  0  0  0  0  0  0
    8.7952    3.2862   25.1846 H   0  0  0  0  0  0  0  0  0  0  0  0
    8.9372    3.9825   22.7936 H   0  0  0  0  0  0  0  0  0  0  0  0
    7.7265    4.8958   23.6677 H   0  0  0  0  0  0  0  0  0  0  0  0
    6.0937    3.2044   22.8404 H   0  0  0  0  0  0  0  0  0  0  0  0
    7.3115    2.5678   21.8697 H   0  0  0  0  0  0  0  0  0  0  0  0
    6.4314    5.3916   21.7278 H   0  0  0  0  0  0  0  0  0  0  0  0
    5.6578    4.0827   20.8108 H   0  0  0  0  0  0  0  0  0  0  0  0
    7.3668    4.4790   20.5455 H   0  0  0  0  0  0  0  0  0  0  0  0
  1  2  1  0
  2  3  1  0
  3  4  1  0
  4  5  1  0
  5  6  1  0
  7  6  1  1
  7  8  1  0
  8  9  2  0
  8 10  1  0
 10 11  1  0
 11 12  2  0
 12 13  1  0
 13 14  2  0
 14 15  1  0
 15 16  2  0
 16 17  1  0
 17 18  2  0
 18 19  1  0
 19 20  2  0
 19 21  1  0
 18 22  1  0
 17 23  1  0
 16 24  1  0
 14 25  1  0
 12 26  1  0
 10 27  1  0
 27 28  1  0
 28 29  1  0
 29 30  1  0
 30 31  1  0
 31 32  2  0
 32 33  1  0
 33 34  2  0
 34 35  1  0
 35 36  2  0
 35 37  1  0
 33 38  1  0
 30 39  1  0
 29 40  1  0
 29 41  1  0
 28 42  1  6
 27 43  1  0
 27 44  1  0
  7 45  1  0
 45 46  2  0
 46 47  1  0
 47 48  1  0
 47 49  2  0
 49 50  1  0
 50 51  2  0
 51 52  1  0
 52 53  2  0
 50 54  1  0
 49 55  1  0
 46 56  1  0
  6 57  1  0
  6 58  1  0
  4 59  1  0
  4 60  1  0
  3 61  1  0
  3 62  1  0
  2 63  1  0
  2 64  1  0
  1 65  1  0
  1 66  1  0
  1 67  1  0
 52  5  1  0
 28  7  1  0
 36 31  1  0
 51 45  1  0
 20 11  1  0
 20 15  1  0
M  CHG  1   2   1
M  END
>  <cnnaffinities>  (30) 
[6.45138]

>  <score>  (30) 
6.45138

>  <index>  (30) 
29

>  <Smiles>  (30) 
C([N+](C(C(N1C([C@@]2(C(=O)N(c3c(nc(c4c(c(c(c(c34)[H])[H])[H])[H])[H])[H])C([C@@]2(C(N(c2nc(nc(n2)[H])[H])[H])([H])[H])[H])([H])[H])c2c(c(Cl)c(c(c2C1=O)[H])[H])[H])([H])[H])([H])[H])([H])[H])([H])[H])([H])([H])[H]

>  <h>  (30) 
<NA>

>  <Training>  (30) 
True

>  <Success>  (30) 
True

>  <enamine_searched>  (30) 
False

>  <enamine_id>  (30) 
nan

$$$$

     RDKit          3D

 66 71  0  0  0  0  0  0  0  0999 V2000
    6.4726    4.3819   21.3569 C   0  0  0  0  0  0  0  0  0  0  0  0
    7.4533    3.9560   22.3530 N   0  0  0  0  0  0  0  0  0  0  0  0
    7.0128    3.3349   23.4871 C   0  0  0  0  0  0  0  0  0  0  0  0
    5.8246    3.1582   23.7131 O   0  0  0  0  0  0  0  0  0  0  0  0
    8.0941    2.8823   24.4765 C   0  0  0  0  0  0  0  0  0  0  0  0
    8.7508    1.6745   24.0061 N   0  0  0  0  0  0  0  0  0  0  0  0
    7.9835    0.4459   23.8421 C   0  0  0  0  0  0  0  0  0  0  0  0
    8.4105   -0.3839   22.5974 C   0  0  2  0  0  0  0  0  0  0  0  0
    7.9286    0.2820   21.2897 C   0  0  0  0  0  0  0  0  0  0  0  0
    8.4130    1.2468   20.7338 O   0  0  0  0  0  0  0  0  0  0  0  0
    6.8531   -0.4273   20.8101 N   0  0  0  0  0  0  0  0  0  0  0  0
    6.0919    0.0866   19.7391 C   0  0  0  0  0  0  0  0  0  0  0  0
    6.4501   -0.1929   18.4473 C   0  0  0  0  0  0  0  0  0  0  0  0
    5.7611    0.2432   17.3683 N   0  0  0  0  0  0  0  0  0  0  0  0
    4.7115    0.9997   17.5802 C   0  0  0  0  0  0  0  0  0  0  0  0
    4.2502    1.3807   18.8726 C   0  0  0  0  0  0  0  0  0  0  0  0
    3.1305    2.2304   19.0651 C   0  0  0  0  0  0  0  0  0  0  0  0
    2.7499    2.6099   20.3239 C   0  0  0  0  0  0  0  0  0  0  0  0
    3.4660    2.1573   21.4565 C   0  0  0  0  0  0  0  0  0  0  0  0
    4.5484    1.3258   21.2974 C   0  0  0  0  0  0  0  0  0  0  0  0
    4.9638    0.9163   19.9981 C   0  0  0  0  0  0  0  0  0  0  0  0
    5.1279    1.0228   22.1658 H   0  0  0  0  0  0  0  0  0  0  0  0
    3.1888    2.4923   22.4522 H   0  0  0  0  0  0  0  0  0  0  0  0
    1.9048    3.2786   20.4589 H   0  0  0  0  0  0  0  0  0  0  0  0
    2.6146    2.5996   18.1840 H   0  0  0  0  0  0  0  0  0  0  0  0
    4.1674    1.3577   16.7055 H   0  0  0  0  0  0  0  0  0  0  0  0
    7.3336   -0.7969   18.2465 H   0  0  0  0  0  0  0  0  0  0  0  0
    6.4334   -1.5215   21.6567 C   0  0  0  0  0  0  0  0  0  0  0  0
    7.6908   -1.7637   22.4985 C   0  0  2  0  0  0  0  0  0  0  0  0
    7.4784   -2.5357   23.8048 C   0  0  0  0  0  0  0  0  0  0  0  0
    6.9483   -3.9346   23.5934 C   0  0  0  0  0  0  0  0  0  0  0  0
    7.8139   -5.0104   23.3899 C   0  0  0  0  0  0  0  0  0  0  0  0
    7.3179   -6.2933   23.1848 C   0  0  0  0  0  0  0  0  0  0  0  0
    5.9459   -6.5198   23.1763 C   0  0  0  0  0  0  0  0  0  0  0  0
    5.0726   -5.4539   23.3660 C   0  0  0  0  0  0  0  0  0  0  0  0
    5.5721   -4.1720   23.5647 C   0  0  0  0  0  0  0  0  0  0  0  0
    4.8852   -3.3377   23.7037 H   0  0  0  0  0  0  0  0  0  0  0  0
    4.0003   -5.6232   23.3754 H   0  0  0  0  0  0  0  0  0  0  0  0
    5.5579   -7.5222   23.0202 H   0  0  0  0  0  0  0  0  0  0  0  0
    8.0077   -7.1199   23.0459 H   0  0  0  0  0  0  0  0  0  0  0  0
    8.8891   -4.8419   23.4034 H   0  0  0  0  0  0  0  0  0  0  0  0
    8.4387   -2.5677   24.3361 H   0  0  0  0  0  0  0  0  0  0  0  0
    6.7847   -1.9747   24.4412 H   0  0  0  0  0  0  0  0  0  0  0  0
    8.3319   -2.3836   21.8723 H   0  0  0  0  0  0  0  0  0  0  0  0
    6.1630   -2.4003   21.0621 H   0  0  0  0  0  0  0  0  0  0  0  0
    5.5547   -1.2577   22.2639 H   0  0  0  0  0  0  0  0  0  0  0  0
    9.9194   -0.4635   22.5638 C   0  0  0  0  0  0  0  0  0  0  0  0
   10.5516   -1.3648   21.6998 C   0  0  0  0  0  0  0  0  0  0  0  0
   11.9164   -1.3245   21.5251 C   0  0  0  0  0  0  0  0  0  0  0  0
   12.5878   -2.3091   20.2530 Cl  0  0  0  0  0  0  0  0  0  0  0  0
   12.7022   -0.4623   22.2916 C   0  0  0  0  0  0  0  0  0  0  0  0
   12.0922    0.4607   23.1047 C   0  0  0  0  0  0  0  0  0  0  0  0
   10.7070    0.4984   23.2035 C   0  0  0  0  0  0  0  0  0  0  0  0
   10.1126    1.6785   23.9029 C   0  0  0  0  0  0  0  0  0  0  0  0
   10.8045    2.6033   24.3042 O   0  0  0  0  0  0  0  0  0  0  0  0
   12.6764    1.2001   23.6420 H   0  0  0  0  0  0  0  0  0  0  0  0
   13.7784   -0.4280   22.2050 H   0  0  0  0  0  0  0  0  0  0  0  0
   10.0080   -2.0940   21.1135 H   0  0  0  0  0  0  0  0  0  0  0  0
    6.9277    0.7172   23.7685 H   0  0  0  0  0  0  0  0  0  0  0  0
    8.1181   -0.1698   24.7399 H   0  0  0  0  0  0  0  0  0  0  0  0
    7.6296    2.7430   25.4612 H   0  0  0  0  0  0  0  0  0  0  0  0
    8.8817    3.6371   24.5744 H   0  0  0  0  0  0  0  0  0  0  0  0
    8.3589    3.6674   22.0034 H   0  0  0  0  0  0  0  0  0  0  0  0
    6.9389    5.0757   20.6450 H   0  0  0  0  0  0  0  0  0  0  0  0
    5.6584    4.8956   21.8806 H   0  0  0  0  0  0  0  0  0  0  0  0
    6.0416    3.5243   20.8112 H   0  0  0  0  0  0  0  0  0  0  0  0
  1  2  1  0
  2  3  1  0
  3  4  2  0
  3  5  1  0
  5  6  1  0
  6  7  1  0
  8  7  1  1
  8  9  1  0
  9 10  2  0
  9 11  1  0
 11 12  1  0
 12 13  2  0
 13 14  1  0
 14 15  2  0
 15 16  1  0
 16 17  2  0
 17 18  1  0
 18 19  2  0
 19 20  1  0
 20 21  2  0
 20 22  1  0
 19 23  1  0
 18 24  1  0
 17 25  1  0
 15 26  1  0
 13 27  1  0
 11 28  1  0
 28 29  1  0
 29 30  1  0
 30 31  1  0
 31 32  2  0
 32 33  1  0
 33 34  2  0
 34 35  1  0
 35 36  2  0
 36 37  1  0
 35 38  1  0
 34 39  1  0
 33 40  1  0
 32 41  1  0
 30 42  1  0
 30 43  1  0
 29 44  1  6
 28 45  1  0
 28 46  1  0
  8 47  1  0
 47 48  2  0
 48 49  1  0
 49 50  1  0
 49 51  2  0
 51 52  1  0
 52 53  2  0
 53 54  1  0
 54 55  2  0
 52 56  1  0
 51 57  1  0
 48 58  1  0
  7 59  1  0
  7 60  1  0
  5 61  1  0
  5 62  1  0
  2 63  1  0
  1 64  1  0
  1 65  1  0
  1 66  1  0
 54  6  1  0
 29  8  1  0
 36 31  1  0
 53 47  1  0
 21 12  1  0
 21 16  1  0
M  END
>  <cnnaffinities>  (31) 
[6.98829]

>  <score>  (31) 
6.98829

>  <index>  (31) 
30

>  <Smiles>  (31) 
C(N(C(=O)C(N1C([C@@]2(C(=O)N(c3c(nc(c4c(c(c(c(c34)[H])[H])[H])[H])[H])[H])C([C@@]2(C(c2c(c(c(c(c2[H])[H])[H])[H])[H])([H])[H])[H])([H])[H])c2c(c(Cl)c(c(c2C1=O)[H])[H])[H])([H])[H])([H])[H])[H])([H])([H])[H]

>  <h>  (31) 
<NA>

>  <Training>  (31) 
True

>  <Success>  (31) 
True

>  <enamine_searched>  (31) 
False

>  <enamine_id>  (31) 
nan

$$$$

     RDKit          3D

 64 70  0  0  0  0  0  0  0  0999 V2000
    4.8376   -4.6809   24.7535 O   0  0  0  0  0  0  0  0  0  0  0  0
    5.6359   -3.9098   24.2511 C   0  0  0  0  0  0  0  0  0  0  0  0
    6.1644   -2.7003   24.9714 C   0  0  0  0  0  0  0  0  0  0  0  0
    5.9576   -2.5776   26.3448 C   0  0  0  0  0  0  0  0  0  0  0  0
    6.2018   -1.3807   26.9962 C   0  0  0  0  0  0  0  0  0  0  0  0
    6.6353   -0.2934   26.2400 C   0  0  0  0  0  0  0  0  0  0  0  0
    6.7921    1.2692   26.9945 Cl  0  0  0  0  0  0  0  0  0  0  0  0
    6.9652   -0.4338   24.9065 C   0  0  0  0  0  0  0  0  0  0  0  0
    6.7936   -1.6697   24.2658 C   0  0  0  0  0  0  0  0  0  0  0  0
    7.2309   -1.8651   22.8289 C   0  0  1  0  0  0  0  0  0  0  0  0
    7.2992   -3.3795   22.5276 C   0  0  0  0  0  0  0  0  0  0  0  0
    6.0873   -4.0352   22.9626 N   0  0  0  0  0  0  0  0  0  0  0  0
    5.5725   -5.0810   22.1040 C   0  0  0  0  0  0  0  0  0  0  0  0
    6.3686   -6.3354   22.2719 C   0  0  0  0  0  0  0  0  0  0  0  0
    7.3852   -6.7695   21.6122 N   0  0  0  0  0  0  0  0  0  0  0  0
    7.8462   -7.8870   22.3103 N   0  0  0  0  0  0  0  0  0  0  0  0
    7.0493   -8.0380   23.3060 C   0  0  0  0  0  0  0  0  0  0  0  0
    6.0950   -7.0873   23.3656 O   0  0  0  0  0  0  0  0  0  0  0  0
    7.0583   -8.7885   24.0896 H   0  0  0  0  0  0  0  0  0  0  0  0
    4.5382   -5.2760   22.3822 H   0  0  0  0  0  0  0  0  0  0  0  0
    5.6126   -4.7190   21.0697 H   0  0  0  0  0  0  0  0  0  0  0  0
    7.3789   -3.5149   21.4531 H   0  0  0  0  0  0  0  0  0  0  0  0
    8.1778   -3.8673   22.9580 H   0  0  0  0  0  0  0  0  0  0  0  0
    6.2044   -1.2909   21.8305 C   0  0  0  0  0  0  0  0  0  0  0  0
    5.0473   -1.6299   21.7209 O   0  0  0  0  0  0  0  0  0  0  0  0
    6.8433   -0.4206   20.9666 N   0  0  0  0  0  0  0  0  0  0  0  0
    6.1527    0.1168   19.8584 C   0  0  0  0  0  0  0  0  0  0  0  0
    6.5395   -0.1666   18.5729 C   0  0  0  0  0  0  0  0  0  0  0  0
    5.8732    0.2354   17.4661 N   0  0  0  0  0  0  0  0  0  0  0  0
    4.7995    0.9690   17.6329 C   0  0  0  0  0  0  0  0  0  0  0  0
    4.3081    1.3718   18.9062 C   0  0  0  0  0  0  0  0  0  0  0  0
    3.1599    2.1988   19.0422 C   0  0  0  0  0  0  0  0  0  0  0  0
    2.7412    2.6037   20.2808 C   0  0  0  0  0  0  0  0  0  0  0  0
    3.4485    2.2056   21.4366 C   0  0  0  0  0  0  0  0  0  0  0  0
    4.5587    1.4084   21.3290 C   0  0  0  0  0  0  0  0  0  0  0  0
    5.0078    0.9545   20.0571 C   0  0  0  0  0  0  0  0  0  0  0  0
    5.0996    1.1103   22.2192 H   0  0  0  0  0  0  0  0  0  0  0  0
    3.1134    2.5378   22.4154 H   0  0  0  0  0  0  0  0  0  0  0  0
    1.8745    3.2509   20.3836 H   0  0  0  0  0  0  0  0  0  0  0  0
    2.6398    2.5298   18.1460 H   0  0  0  0  0  0  0  0  0  0  0  0
    4.2685    1.2762   16.7316 H   0  0  0  0  0  0  0  0  0  0  0  0
    7.4221   -0.7784   18.3974 H   0  0  0  0  0  0  0  0  0  0  0  0
    8.2947   -0.5364   21.0465 C   0  0  0  0  0  0  0  0  0  0  0  0
    8.5339   -1.1158   22.4525 C   0  0  2  0  0  0  0  0  0  0  0  0
    9.8523   -1.8907   22.5511 C   0  0  0  0  0  0  0  0  0  0  0  0
    9.9938   -2.6009   23.8031 N   0  0  0  0  0  0  0  0  0  0  0  0
   11.1749   -3.0204   24.3139 C   0  0  0  0  0  0  0  0  0  0  0  0
   12.4221   -2.6003   23.7992 C   0  0  0  0  0  0  0  0  0  0  0  0
   13.5366   -3.0071   24.4962 C   0  0  0  0  0  0  0  0  0  0  0  0
   13.4933   -3.7744   25.5934 N   0  0  0  0  0  0  0  0  0  0  0  0
   12.2678   -4.1676   25.9489 C   0  0  0  0  0  0  0  0  0  0  0  0
   11.1158   -3.8687   25.3506 N   0  0  0  0  0  0  0  0  0  0  0  0
   12.1928   -4.7810   26.8423 H   0  0  0  0  0  0  0  0  0  0  0  0
   14.5167   -2.6577   24.1725 H   0  0  0  0  0  0  0  0  0  0  0  0
   12.5184   -1.9721   22.9223 H   0  0  0  0  0  0  0  0  0  0  0  0
    9.1693   -2.9513   24.2831 H   0  0  0  0  0  0  0  0  0  0  0  0
   10.6656   -1.1618   22.5051 H   0  0  0  0  0  0  0  0  0  0  0  0
    9.9846   -2.5607   21.6869 H   0  0  0  0  0  0  0  0  0  0  0  0
    8.6340   -0.2784   23.1430 H   0  0  0  0  0  0  0  0  0  0  0  0
    8.6869   -1.2151   20.2727 H   0  0  0  0  0  0  0  0  0  0  0  0
    8.7593    0.4476   20.9187 H   0  0  0  0  0  0  0  0  0  0  0  0
    7.3471    0.4285   24.3734 H   0  0  0  0  0  0  0  0  0  0  0  0
    6.0319   -1.2614   28.0612 H   0  0  0  0  0  0  0  0  0  0  0  0
    5.5796   -3.4364   26.8844 H   0  0  0  0  0  0  0  0  0  0  0  0
  1  2  2  0
  2  3  1  0
  3  4  2  0
  4  5  1  0
  5  6  2  0
  6  7  1  0
  6  8  1  0
  8  9  2  0
  9 10  1  0
 10 11  1  6
 11 12  1  0
 12 13  1  0
 13 14  1  0
 14 15  2  0
 15 16  1  0
 16 17  2  0
 17 18  1  0
 17 19  1  0
 13 20  1  0
 13 21  1  0
 11 22  1  0
 11 23  1  0
 10 24  1  0
 24 25  2  0
 24 26  1  0
 26 27  1  0
 27 28  2  0
 28 29  1  0
 29 30  2  0
 30 31  1  0
 31 32  2  0
 32 33  1  0
 33 34  2  0
 34 35  1  0
 35 36  2  0
 35 37  1  0
 34 38  1  0
 33 39  1  0
 32 40  1  0
 30 41  1  0
 28 42  1  0
 26 43  1  0
 43 44  1  0
 44 45  1  0
 45 46  1  0
 46 47  1  0
 47 48  2  0
 48 49  1  0
 49 50  2  0
 50 51  1  0
 51 52  2  0
 51 53  1  0
 49 54  1  0
 48 55  1  0
 46 56  1  0
 45 57  1  0
 45 58  1  0
 44 59  1  1
 43 60  1  0
 43 61  1  0
  8 62  1  0
  5 63  1  0
  4 64  1  0
 12  2  1  0
 18 14  1  0
 36 27  1  0
 52 47  1  0
  9  3  1  0
 44 10  1  0
 36 31  1  0
M  END
>  <cnnaffinities>  (32) 
[7.40437]

>  <score>  (32) 
7.40437

>  <index>  (32) 
31

>  <Smiles>  (32) 
O=C1c2c(c(c(Cl)c(c2[C@@]2(C(N1C(c1nnc(o1)[H])([H])[H])([H])[H])C(=O)N(c1c(nc(c3c(c(c(c(c13)[H])[H])[H])[H])[H])[H])C([C@@]2(C(N(c1c(c(nc(n1)[H])[H])[H])[H])([H])[H])[H])([H])[H])[H])[H])[H]

>  <h>  (32) 
<NA>

>  <Training>  (32) 
True

>  <Success>  (32) 
True

>  <enamine_searched>  (32) 
False

>  <enamine_id>  (32) 
nan

$$$$

     RDKit          3D

 72 77  0  0  0  0  0  0  0  0999 V2000
    9.7622   -1.9279   21.8833 C   0  0  0  0  0  0  0  0  0  0  0  0
    8.6365   -0.9815   22.3441 C   0  0  1  0  0  0  0  0  0  0  0  0
    8.1963   -0.0757   21.1688 C   0  0  0  0  0  0  0  0  0  0  0  0
    6.8509   -0.5043   20.8479 N   0  0  0  0  0  0  0  0  0  0  0  0
    6.0991    0.0495   19.7791 C   0  0  0  0  0  0  0  0  0  0  0  0
    6.4445   -0.2236   18.4786 C   0  0  0  0  0  0  0  0  0  0  0  0
    5.7821    0.2439   17.3958 N   0  0  0  0  0  0  0  0  0  0  0  0
    4.7485    1.0215   17.6054 C   0  0  0  0  0  0  0  0  0  0  0  0
    4.2904    1.4011   18.8990 C   0  0  0  0  0  0  0  0  0  0  0  0
    3.1706    2.2590   19.0657 C   0  0  0  0  0  0  0  0  0  0  0  0
    2.7713    2.6378   20.3172 C   0  0  0  0  0  0  0  0  0  0  0  0
    3.4768    2.1800   21.4539 C   0  0  0  0  0  0  0  0  0  0  0  0
    4.5611    1.3478   21.3222 C   0  0  0  0  0  0  0  0  0  0  0  0
    4.9860    0.9190   20.0279 C   0  0  0  0  0  0  0  0  0  0  0  0
    5.0967    1.0076   22.2073 H   0  0  0  0  0  0  0  0  0  0  0  0
    3.1503    2.4903   22.4416 H   0  0  0  0  0  0  0  0  0  0  0  0
    1.9210    3.3033   20.4399 H   0  0  0  0  0  0  0  0  0  0  0  0
    2.6639    2.6247   18.1768 H   0  0  0  0  0  0  0  0  0  0  0  0
    4.2206    1.3843   16.7250 H   0  0  0  0  0  0  0  0  0  0  0  0
    7.2929   -0.8713   18.2638 H   0  0  0  0  0  0  0  0  0  0  0  0
    6.3138   -1.4194   21.7178 C   0  0  0  0  0  0  0  0  0  0  0  0
    5.2137   -1.9244   21.5949 O   0  0  0  0  0  0  0  0  0  0  0  0
    7.3223   -1.6688   22.8652 C   0  0  1  0  0  0  0  0  0  0  0  0
    7.4992   -3.1835   23.1039 C   0  0  0  0  0  0  0  0  0  0  0  0
    6.3589   -3.7951   23.7672 N   0  0  0  0  0  0  0  0  0  0  0  0
    5.9931   -5.1547   23.3992 C   0  0  0  0  0  0  0  0  0  0  0  0
    4.7931   -5.2581   22.4496 C   0  0  0  0  0  0  0  0  0  0  0  0
    3.4754   -5.0950   23.1528 N   0  0  1  0  0  4  0  0  0  0  0  0
    2.9296   -3.6884   23.0584 C   0  0  0  0  0  0  0  0  0  0  0  0
    1.6194   -3.6285   23.8332 C   0  0  0  0  0  0  0  0  0  0  0  0
    0.6570   -4.4648   23.2132 O   0  0  0  0  0  0  0  0  0  0  0  0
    1.0278   -5.8475   23.2539 C   0  0  0  0  0  0  0  0  0  0  0  0
    0.0111   -6.6148   22.4134 C   0  0  0  0  0  0  0  0  0  0  0  0
    0.2652   -7.6835   22.4060 H   0  0  0  0  0  0  0  0  0  0  0  0
   -0.0029   -6.2587   21.3778 H   0  0  0  0  0  0  0  0  0  0  0  0
   -0.9930   -6.5080   22.8339 H   0  0  0  0  0  0  0  0  0  0  0  0
    0.9784   -6.3409   24.6957 C   0  0  0  0  0  0  0  0  0  0  0  0
    1.1479   -7.4214   24.7210 H   0  0  0  0  0  0  0  0  0  0  0  0
    1.7453   -5.8653   25.3157 H   0  0  0  0  0  0  0  0  0  0  0  0
   -0.0083   -6.1165   25.1164 H   0  0  0  0  0  0  0  0  0  0  0  0
    2.4177   -6.0545   22.6288 C   0  0  0  0  0  0  0  0  0  0  0  0
    2.3205   -5.9194   21.5447 H   0  0  0  0  0  0  0  0  0  0  0  0
    2.7376   -7.0881   22.8058 H   0  0  0  0  0  0  0  0  0  0  0  0
    1.1757   -2.6259   23.8486 H   0  0  0  0  0  0  0  0  0  0  0  0
    1.8015   -3.9349   24.8732 H   0  0  0  0  0  0  0  0  0  0  0  0
    2.7655   -3.4546   22.0001 H   0  0  0  0  0  0  0  0  0  0  0  0
    3.6735   -2.9921   23.4448 H   0  0  0  0  0  0  0  0  0  0  0  0
    3.6646   -5.2741   24.1605 H   0  0  0  0  0  0  0  0  0  0  0  0
    4.8790   -4.5030   21.6610 H   0  0  0  0  0  0  0  0  0  0  0  0
    4.7923   -6.2540   21.9951 H   0  0  0  0  0  0  0  0  0  0  0  0
    5.7680   -5.7059   24.3160 H   0  0  0  0  0  0  0  0  0  0  0  0
    6.8677   -5.5968   22.9171 H   0  0  0  0  0  0  0  0  0  0  0  0
    5.7914   -3.2451   24.8757 C   0  0  0  0  0  0  0  0  0  0  0  0
    5.0326   -3.8883   25.5980 O   0  0  0  0  0  0  0  0  0  0  0  0
    6.0827   -1.7809   25.0954 C   0  0  0  0  0  0  0  0  0  0  0  0
    5.5697   -1.1639   26.2370 C   0  0  0  0  0  0  0  0  0  0  0  0
    5.7093    0.1980   26.4283 C   0  0  0  0  0  0  0  0  0  0  0  0
    6.3605    0.9524   25.4556 C   0  0  0  0  0  0  0  0  0  0  0  0
    6.5027    2.6760   25.6721 Cl  0  0  0  0  0  0  0  0  0  0  0  0
    6.8870    0.3581   24.3223 C   0  0  0  0  0  0  0  0  0  0  0  0
    6.7805   -1.0294   24.1399 C   0  0  0  0  0  0  0  0  0  0  0  0
    7.3631    0.9982   23.5836 H   0  0  0  0  0  0  0  0  0  0  0  0
    5.3089    0.6893   27.3069 H   0  0  0  0  0  0  0  0  0  0  0  0
    5.0460   -1.7883   26.9525 H   0  0  0  0  0  0  0  0  0  0  0  0
    7.6028   -3.6759   22.1358 H   0  0  0  0  0  0  0  0  0  0  0  0
    8.4175   -3.3345   23.6948 H   0  0  0  0  0  0  0  0  0  0  0  0
    8.2222    0.9955   21.4207 H   0  0  0  0  0  0  0  0  0  0  0  0
    8.8551   -0.2139   20.3083 H   0  0  0  0  0  0  0  0  0  0  0  0
    9.0571   -0.3752   23.1561 H   0  0  0  0  0  0  0  0  0  0  0  0
   10.6070   -1.3450   21.4960 H   0  0  0  0  0  0  0  0  0  0  0  0
    9.4332   -2.5995   21.0808 H   0  0  0  0  0  0  0  0  0  0  0  0
   10.1485   -2.5383   22.7048 H   0  0  0  0  0  0  0  0  0  0  0  0
  1  2  1  0
  2  3  1  0
  3  4  1  0
  4  5  1  0
  5  6  2  0
  6  7  1  0
  7  8  2  0
  8  9  1  0
  9 10  2  0
 10 11  1  0
 11 12  2  0
 12 13  1  0
 13 14  2  0
 13 15  1  0
 12 16  1  0
 11 17  1  0
 10 18  1  0
  8 19  1  0
  6 20  1  0
  4 21  1  0
 21 22  2  0
 21 23  1  0
 23 24  1  1
 24 25  1  0
 25 26  1  0
 26 27  1  0
 27 28  1  0
 28 29  1  0
 29 30  1  0
 30 31  1  0
 31 32  1  0
 32 33  1  0
 33 34  1  0
 33 35  1  0
 33 36  1  0
 32 37  1  0
 37 38  1  0
 37 39  1  0
 37 40  1  0
 32 41  1  0
 41 42  1  0
 41 43  1  0
 30 44  1  0
 30 45  1  0
 29 46  1  0
 29 47  1  0
 28 48  1  1
 27 49  1  0
 27 50  1  0
 26 51  1  0
 26 52  1  0
 25 53  1  0
 53 54  2  0
 53 55  1  0
 55 56  2  0
 56 57  1  0
 57 58  2  0
 58 59  1  0
 58 60  1  0
 60 61  2  0
 60 62  1  0
 57 63  1  0
 56 64  1  0
 24 65  1  0
 24 66  1  0
  3 67  1  0
  3 68  1  0
  2 69  1  1
  1 70  1  0
  1 71  1  0
  1 72  1  0
 23  2  1  0
 41 28  1  0
 61 55  1  0
 14  5  1  0
 61 23  1  0
 14  9  1  0
M  CHG  1  28   1
M  END
>  <cnnaffinities>  (33) 
[6.35094]

>  <score>  (33) 
6.35094

>  <index>  (33) 
32

>  <Smiles>  (33) 
C([C@]1(C(N(c2c(nc(c3c(c(c(c(c23)[H])[H])[H])[H])[H])[H])C(=O)[C@]21C(N(C(C([N@+]1(C(C(OC(C([H])([H])[H])(C([H])([H])[H])C1([H])[H])([H])[H])([H])[H])[H])([H])[H])([H])[H])C(=O)c1c(c(c(Cl)c(c21)[H])[H])[H])([H])[H])([H])[H])[H])([H])([H])[H]

>  <h>  (33) 
<NA>

>  <Training>  (33) 
True

>  <Success>  (33) 
True

>  <enamine_searched>  (33) 
False

>  <enamine_id>  (33) 
nan

$$$$

     RDKit          3D

 44 47  0  0  0  0  0  0  0  0999 V2000
    5.4472   -2.4025   20.9442 O   0  0  0  0  0  0  0  0  0  0  0  0
    6.2340   -1.7184   21.5851 C   0  0  0  0  0  0  0  0  0  0  0  0
    6.9126   -0.4911   20.9251 C   0  0  0  0  0  0  0  0  0  0  0  0
    6.1138    0.0837   19.7749 C   0  0  0  0  0  0  0  0  0  0  0  0
    6.4205   -0.2151   18.4714 C   0  0  0  0  0  0  0  0  0  0  0  0
    5.7540    0.2388   17.3742 N   0  0  0  0  0  0  0  0  0  0  0  0
    4.7335    1.0312   17.5797 C   0  0  0  0  0  0  0  0  0  0  0  0
    4.2833    1.4204   18.8715 C   0  0  0  0  0  0  0  0  0  0  0  0
    3.1599    2.2661   19.0487 C   0  0  0  0  0  0  0  0  0  0  0  0
    2.7498    2.6264   20.3003 C   0  0  0  0  0  0  0  0  0  0  0  0
    3.4468    2.1367   21.4310 C   0  0  0  0  0  0  0  0  0  0  0  0
    4.5334    1.3103   21.2947 C   0  0  0  0  0  0  0  0  0  0  0  0
    4.9889    0.9348   20.0032 C   0  0  0  0  0  0  0  0  0  0  0  0
    5.0461    0.9434   22.1839 H   0  0  0  0  0  0  0  0  0  0  0  0
    3.1118    2.4267   22.4200 H   0  0  0  0  0  0  0  0  0  0  0  0
    1.8974    3.2874   20.4372 H   0  0  0  0  0  0  0  0  0  0  0  0
    2.6473    2.6446   18.1657 H   0  0  0  0  0  0  0  0  0  0  0  0
    4.2007    1.3985   16.6981 H   0  0  0  0  0  0  0  0  0  0  0  0
    7.2645   -0.8653   18.2433 H   0  0  0  0  0  0  0  0  0  0  0  0
    7.1572    0.2947   21.6504 H   0  0  0  0  0  0  0  0  0  0  0  0
    7.8732   -0.8379   20.5196 H   0  0  0  0  0  0  0  0  0  0  0  0
    6.5618   -2.0604   22.8704 N   0  0  0  0  0  0  0  0  0  0  0  0
    6.0943   -3.3326   23.4187 C   0  0  0  0  0  0  0  0  0  0  0  0
    6.6071   -3.3671   24.8611 C   0  0  0  0  0  0  0  0  0  0  0  0
    7.6656   -2.2652   24.9541 C   0  0  0  0  0  0  0  0  0  0  0  0
    7.3533   -1.2834   23.8126 C   0  0  2  0  0  0  0  0  0  0  0  0
    6.6407   -0.0335   24.2979 C   0  0  0  0  0  0  0  0  0  0  0  0
    5.3230   -0.0881   24.7499 C   0  0  0  0  0  0  0  0  0  0  0  0
    4.6832    1.0571   25.2023 C   0  0  0  0  0  0  0  0  0  0  0  0
    5.3394    2.2814   25.2275 C   0  0  0  0  0  0  0  0  0  0  0  0
    6.6574    2.3073   24.8014 C   0  0  0  0  0  0  0  0  0  0  0  0
    7.3143    3.4788   24.8201 F   0  0  0  0  0  0  0  0  0  0  0  0
    7.3234    1.1801   24.3473 C   0  0  0  0  0  0  0  0  0  0  0  0
    8.3598    1.2630   24.0234 H   0  0  0  0  0  0  0  0  0  0  0  0
    4.8528    3.1927   25.5587 H   0  0  0  0  0  0  0  0  0  0  0  0
    3.6536    1.0010   25.5307 H   0  0  0  0  0  0  0  0  0  0  0  0
    4.7806   -1.0281   24.7448 H   0  0  0  0  0  0  0  0  0  0  0  0
    8.2850   -0.9761   23.3342 H   0  0  0  0  0  0  0  0  0  0  0  0
    7.6524   -1.7672   25.9249 H   0  0  0  0  0  0  0  0  0  0  0  0
    8.6709   -2.6790   24.8407 H   0  0  0  0  0  0  0  0  0  0  0  0
    5.7995   -3.1950   25.5773 H   0  0  0  0  0  0  0  0  0  0  0  0
    7.0270   -4.3402   25.1186 H   0  0  0  0  0  0  0  0  0  0  0  0
    6.4998   -4.1506   22.8198 H   0  0  0  0  0  0  0  0  0  0  0  0
    5.0043   -3.4196   23.3680 H   0  0  0  0  0  0  0  0  0  0  0  0
  1  2  2  0
  2  3  1  0
  3  4  1  0
  4  5  2  0
  5  6  1  0
  6  7  2  0
  7  8  1  0
  8  9  2  0
  9 10  1  0
 10 11  2  0
 11 12  1  0
 12 13  2  0
 12 14  1  0
 11 15  1  0
 10 16  1  0
  9 17  1  0
  7 18  1  0
  5 19  1  0
  3 20  1  0
  3 21  1  0
  2 22  1  0
 22 23  1  0
 23 24  1  0
 24 25  1  0
 25 26  1  0
 26 27  1  0
 27 28  2  0
 28 29  1  0
 29 30  2  0
 30 31  1  0
 31 32  1  0
 31 33  2  0
 33 34  1  0
 30 35  1  0
 29 36  1  0
 28 37  1  0
 26 38  1  6
 25 39  1  0
 25 40  1  0
 24 41  1  0
 24 42  1  0
 23 43  1  0
 23 44  1  0
 13  4  1  0
 26 22  1  0
 33 27  1  0
 13  8  1  0
M  END
>  <cnnaffinities>  (34) 
[5.6997, 5.66189, 5.29152, 5.32183]

>  <score>  (34) 
5.6997

>  <index>  (34) 
33

>  <Smiles>  (34) 
O=C(C(c1c(nc(c2c(c(c(c(c12)[H])[H])[H])[H])[H])[H])([H])[H])N1C(C(C([C@@]1(c1c(c(c(c(F)c1[H])[H])[H])[H])[H])([H])[H])([H])[H])([H])[H]

>  <h>  (34) 
<NA>

>  <Training>  (34) 
True

>  <Success>  (34) 
True

>  <enamine_searched>  (34) 
False

>  <enamine_id>  (34) 
nan

$$$$

     RDKit          3D

 58 63  0  0  0  0  0  0  0  0999 V2000
    9.7081   -1.9588   21.8163 C   0  0  0  0  0  0  0  0  0  0  0  0
    8.6638   -0.9487   22.3191 C   0  0  1  0  0  0  0  0  0  0  0  0
    8.2176   -0.0209   21.1658 C   0  0  0  0  0  0  0  0  0  0  0  0
    6.8833   -0.4772   20.8242 N   0  0  0  0  0  0  0  0  0  0  0  0
    6.1203    0.0705   19.7626 C   0  0  0  0  0  0  0  0  0  0  0  0
    6.4604   -0.1979   18.4618 C   0  0  0  0  0  0  0  0  0  0  0  0
    5.7794    0.2508   17.3829 N   0  0  0  0  0  0  0  0  0  0  0  0
    4.7370    1.0147   17.6007 C   0  0  0  0  0  0  0  0  0  0  0  0
    4.2859    1.3898   18.8979 C   0  0  0  0  0  0  0  0  0  0  0  0
    3.1615    2.2375   19.0720 C   0  0  0  0  0  0  0  0  0  0  0  0
    2.7745    2.6213   20.3257 C   0  0  0  0  0  0  0  0  0  0  0  0
    3.4881    2.1655   21.4569 C   0  0  0  0  0  0  0  0  0  0  0  0
    4.5710    1.3340   21.3198 C   0  0  0  0  0  0  0  0  0  0  0  0
    4.9965    0.9188   20.0229 C   0  0  0  0  0  0  0  0  0  0  0  0
    5.1040    0.9853   22.2043 H   0  0  0  0  0  0  0  0  0  0  0  0
    3.1752    2.4844   22.4456 H   0  0  0  0  0  0  0  0  0  0  0  0
    1.9300    3.2920   20.4557 H   0  0  0  0  0  0  0  0  0  0  0  0
    2.6393    2.5974   18.1900 H   0  0  0  0  0  0  0  0  0  0  0  0
    4.1946    1.3698   16.7256 H   0  0  0  0  0  0  0  0  0  0  0  0
    7.3211   -0.8318   18.2540 H   0  0  0  0  0  0  0  0  0  0  0  0
    6.3581   -1.4141   21.6836 C   0  0  0  0  0  0  0  0  0  0  0  0
    5.2914   -1.9788   21.5277 O   0  0  0  0  0  0  0  0  0  0  0  0
    7.3468   -1.5937   22.8587 C   0  0  1  0  0  0  0  0  0  0  0  0
    7.4929   -3.0964   23.1818 C   0  0  0  0  0  0  0  0  0  0  0  0
    6.2552   -3.6095   23.7477 N   0  0  0  0  0  0  0  0  0  0  0  0
    5.6943   -4.8327   23.1894 C   0  0  0  0  0  0  0  0  0  0  0  0
    6.3550   -6.0646   23.7034 C   0  0  0  0  0  0  0  0  0  0  0  0
    5.9691   -6.7983   24.8242 C   0  0  0  0  0  0  0  0  0  0  0  0
    6.8248   -7.7972   24.9811 N   0  0  0  0  0  0  0  0  0  0  0  0
    7.7046   -7.6068   24.0328 N   0  0  0  0  0  0  0  0  0  0  0  0
    8.8274   -8.4861   23.8097 C   0  0  0  0  0  0  0  0  0  0  0  0
    8.6141   -9.0708   22.9358 H   0  0  0  0  0  0  0  0  0  0  0  0
    9.7530   -7.9106   23.6938 H   0  0  0  0  0  0  0  0  0  0  0  0
    8.9193   -9.1489   24.6594 H   0  0  0  0  0  0  0  0  0  0  0  0
    7.4509   -6.6126   23.1974 N   0  0  0  0  0  0  0  0  0  0  0  0
    5.1140   -6.6450   25.4695 H   0  0  0  0  0  0  0  0  0  0  0  0
    4.6494   -4.8995   23.4931 H   0  0  0  0  0  0  0  0  0  0  0  0
    5.7351   -4.7736   22.0945 H   0  0  0  0  0  0  0  0  0  0  0  0
    5.6803   -3.0376   24.8526 C   0  0  0  0  0  0  0  0  0  0  0  0
    4.8838   -3.6259   25.5734 O   0  0  0  0  0  0  0  0  0  0  0  0
    6.0642   -1.6017   25.0702 C   0  0  0  0  0  0  0  0  0  0  0  0
    5.6126   -0.9688   26.2282 C   0  0  0  0  0  0  0  0  0  0  0  0
    5.8584    0.3707   26.4510 C   0  0  0  0  0  0  0  0  0  0  0  0
    6.5498    1.0748   25.4762 C   0  0  0  0  0  0  0  0  0  0  0  0
    6.7912    2.3810   25.6922 F   0  0  0  0  0  0  0  0  0  0  0  0
    7.0097    0.4780   24.3170 C   0  0  0  0  0  0  0  0  0  0  0  0
    6.8071   -0.8969   24.1106 C   0  0  0  0  0  0  0  0  0  0  0  0
    7.5333    1.1099   23.6074 H   0  0  0  0  0  0  0  0  0  0  0  0
    5.5278    0.8797   27.3489 H   0  0  0  0  0  0  0  0  0  0  0  0
    5.0530   -1.5602   26.9427 H   0  0  0  0  0  0  0  0  0  0  0  0
    8.3494   -3.2393   23.8660 H   0  0  0  0  0  0  0  0  0  0  0  0
    7.6949   -3.6606   22.2709 H   0  0  0  0  0  0  0  0  0  0  0  0
    8.8854   -0.1281   20.3101 H   0  0  0  0  0  0  0  0  0  0  0  0
    8.2306    1.0434   21.4468 H   0  0  0  0  0  0  0  0  0  0  0  0
    9.1379   -0.3719   23.1254 H   0  0  0  0  0  0  0  0  0  0  0  0
    9.3071   -2.5799   21.0044 H   0  0  0  0  0  0  0  0  0  0  0  0
   10.0465   -2.6193   22.6213 H   0  0  0  0  0  0  0  0  0  0  0  0
   10.5863   -1.4290   21.4331 H   0  0  0  0  0  0  0  0  0  0  0  0
  1  2  1  0
  2  3  1  0
  3  4  1  0
  4  5  1  0
  5  6  2  0
  6  7  1  0
  7  8  2  0
  8  9  1  0
  9 10  2  0
 10 11  1  0
 11 12  2  0
 12 13  1  0
 13 14  2  0
 13 15  1  0
 12 16  1  0
 11 17  1  0
 10 18  1  0
  8 19  1  0
  6 20  1  0
  4 21  1  0
 21 22  2  0
 21 23  1  0
 23 24  1  1
 24 25  1  0
 25 26  1  0
 26 27  1  0
 27 28  1  0
 28 29  2  0
 29 30  1  0
 30 31  1  0
 31 32  1  0
 31 33  1  0
 31 34  1  0
 30 35  1  0
 28 36  1  0
 26 37  1  0
 26 38  1  0
 25 39  1  0
 39 40  2  0
 39 41  1  0
 41 42  2  0
 42 43  1  0
 43 44  2  0
 44 45  1  0
 44 46  1  0
 46 47  2  0
 46 48  1  0
 43 49  1  0
 42 50  1  0
 24 51  1  0
 24 52  1  0
  3 53  1  0
  3 54  1  0
  2 55  1  1
  1 56  1  0
  1 57  1  0
  1 58  1  0
 23  2  1  0
 35 27  2  0
 47 41  1  0
 14  5  1  0
 47 23  1  0
 14  9  1  0
M  END
>  <cnnaffinities>  (35) 
[6.54954]

>  <score>  (35) 
6.54954

>  <index>  (35) 
34

>  <Smiles>  (35) 
C([C@]1(C(N(c2c(nc(c3c(c(c(c(c23)[H])[H])[H])[H])[H])[H])C(=O)[C@]21C(N(C(c1c(nn(C([H])([H])[H])n1)[H])([H])[H])C(=O)c1c(c(c(F)c(c21)[H])[H])[H])([H])[H])([H])[H])[H])([H])([H])[H]

>  <h>  (35) 
<NA>

>  <Training>  (35) 
True

>  <Success>  (35) 
True

>  <enamine_searched>  (35) 
False

>  <enamine_id>  (35) 
nan

$$$$

     RDKit          3D

 51 54  0  0  0  0  0  0  0  0999 V2000
   13.7821    0.2781   23.0058 N   0  0  0  0  0  0  0  0  0  0  0  0
   13.1725   -0.6613   23.3028 C   0  0  0  0  0  0  0  0  0  0  0  0
   12.4582   -1.8216   23.8544 C   0  0  0  0  0  0  0  0  0  0  0  0
   11.0584   -2.0677   23.3294 C   0  0  0  0  0  0  0  0  0  0  0  0
    9.9837   -1.3570   23.8574 C   0  0  0  0  0  0  0  0  0  0  0  0
    8.6926   -1.5746   23.3971 C   0  0  0  0  0  0  0  0  0  0  0  0
    8.4597   -2.5110   22.3924 C   0  0  0  0  0  0  0  0  0  0  0  0
    7.1305   -2.7767   21.9405 N   0  0  0  0  0  0  0  0  0  0  0  0
    6.5569   -4.0858   22.2829 C   0  0  0  0  0  0  0  0  0  0  0  0
    6.0482   -4.1576   23.7188 C   0  0  0  0  0  0  0  0  0  0  0  0
    4.6953   -3.9327   23.9839 C   0  0  0  0  0  0  0  0  0  0  0  0
    4.2204   -3.9478   25.2910 C   0  0  0  0  0  0  0  0  0  0  0  0
    5.0981   -4.1503   26.3466 C   0  0  0  0  0  0  0  0  0  0  0  0
    6.4513   -4.3198   26.0871 C   0  0  0  0  0  0  0  0  0  0  0  0
    7.5219   -4.3676   27.4658 Cl  0  0  0  0  0  0  0  0  0  0  0  0
    6.9344   -4.3681   24.7818 C   0  0  0  0  0  0  0  0  0  0  0  0
    7.9900   -4.5582   24.5897 H   0  0  0  0  0  0  0  0  0  0  0  0
    4.7579   -4.1505   27.3769 H   0  0  0  0  0  0  0  0  0  0  0  0
    3.1686   -3.7597   25.4935 H   0  0  0  0  0  0  0  0  0  0  0  0
    4.0188   -3.7236   23.1581 H   0  0  0  0  0  0  0  0  0  0  0  0
    5.7407   -4.2662   21.5773 H   0  0  0  0  0  0  0  0  0  0  0  0
    7.3371   -4.8413   22.1178 H   0  0  0  0  0  0  0  0  0  0  0  0
    6.2765   -1.8067   21.4400 C   0  0  0  0  0  0  0  0  0  0  0  0
    5.0683   -1.9795   21.3881 O   0  0  0  0  0  0  0  0  0  0  0  0
    6.9201   -0.5250   20.8853 C   0  0  0  0  0  0  0  0  0  0  0  0
    6.1166    0.0835   19.7654 C   0  0  0  0  0  0  0  0  0  0  0  0
    6.4259   -0.2175   18.4642 C   0  0  0  0  0  0  0  0  0  0  0  0
    5.7585    0.2344   17.3724 N   0  0  0  0  0  0  0  0  0  0  0  0
    4.7339    1.0233   17.5842 C   0  0  0  0  0  0  0  0  0  0  0  0
    4.2829    1.4076   18.8756 C   0  0  0  0  0  0  0  0  0  0  0  0
    3.1604    2.2570   19.0487 C   0  0  0  0  0  0  0  0  0  0  0  0
    2.7471    2.6121   20.3037 C   0  0  0  0  0  0  0  0  0  0  0  0
    3.4336    2.1232   21.4369 C   0  0  0  0  0  0  0  0  0  0  0  0
    4.5209    1.2960   21.2940 C   0  0  0  0  0  0  0  0  0  0  0  0
    4.9832    0.9207   20.0029 C   0  0  0  0  0  0  0  0  0  0  0  0
    5.0253    0.9106   22.1735 H   0  0  0  0  0  0  0  0  0  0  0  0
    3.0984    2.4133   22.4287 H   0  0  0  0  0  0  0  0  0  0  0  0
    1.8949    3.2739   20.4301 H   0  0  0  0  0  0  0  0  0  0  0  0
    2.6560    2.6315   18.1611 H   0  0  0  0  0  0  0  0  0  0  0  0
    4.2021    1.3959   16.7078 H   0  0  0  0  0  0  0  0  0  0  0  0
    7.2735   -0.8687   18.2436 H   0  0  0  0  0  0  0  0  0  0  0  0
    7.0541    0.1899   21.7084 H   0  0  0  0  0  0  0  0  0  0  0  0
    7.9308   -0.7737   20.5421 H   0  0  0  0  0  0  0  0  0  0  0  0
    9.5260   -3.2376   21.8720 C   0  0  0  0  0  0  0  0  0  0  0  0
   10.8183   -3.0111   22.3335 C   0  0  0  0  0  0  0  0  0  0  0  0
   11.6469   -3.5582   21.8890 H   0  0  0  0  0  0  0  0  0  0  0  0
    9.3331   -3.9554   21.0805 H   0  0  0  0  0  0  0  0  0  0  0  0
    7.8545   -1.0217   23.8093 H   0  0  0  0  0  0  0  0  0  0  0  0
   10.1639   -0.5971   24.6125 H   0  0  0  0  0  0  0  0  0  0  0  0
   13.0796   -2.7118   23.7404 H   0  0  0  0  0  0  0  0  0  0  0  0
   12.4244   -1.6183   24.9214 H   0  0  0  0  0  0  0  0  0  0  0  0
  1  2  3  0
  2  3  1  0
  3  4  1  0
  4  5  2  0
  5  6  1  0
  6  7  2  0
  7  8  1  0
  8  9  1  0
  9 10  1  0
 10 11  2  0
 11 12  1  0
 12 13  2  0
 13 14  1  0
 14 15  1  0
 14 16  2  0
 16 17  1  0
 13 18  1  0
 12 19  1  0
 11 20  1  0
  9 21  1  0
  9 22  1  0
  8 23  1  0
 23 24  2  0
 23 25  1  0
 25 26  1  0
 26 27  2  0
 27 28  1  0
 28 29  2  0
 29 30  1  0
 30 31  2  0
 31 32  1  0
 32 33  2  0
 33 34  1  0
 34 35  2  0
 34 36  1  0
 33 37  1  0
 32 38  1  0
 31 39  1  0
 29 40  1  0
 27 41  1  0
 25 42  1  0
 25 43  1  0
  7 44  1  0
 44 45  2  0
 45 46  1  0
 44 47  1  0
  6 48  1  0
  5 49  1  0
  3 50  1  0
  3 51  1  0
 45  4  1  0
 16 10  1  0
 35 26  1  0
 35 30  1  0
M  END
>  <cnnaffinities>  (36) 
[6.74347]

>  <score>  (36) 
6.74347

>  <index>  (36) 
35

>  <Smiles>  (36) 
N#CC(c1c(c(c(N(C(c2c(c(c(c(Cl)c2[H])[H])[H])[H])([H])[H])C(=O)C(c2c(nc(c3c(c(c(c(c23)[H])[H])[H])[H])[H])[H])([H])[H])c(c1[H])[H])[H])[H])([H])[H]

>  <h>  (36) 
<NA>

>  <Training>  (36) 
True

>  <Success>  (36) 
True

>  <enamine_searched>  (36) 
False

>  <enamine_id>  (36) 
nan

$$$$

     RDKit          3D

 59 64  0  0  0  0  0  0  0  0999 V2000
    7.6163   -2.7834   23.5591 C   0  0  0  0  0  0  0  0  0  0  0  0
    7.9389   -1.8203   22.4125 C   0  0  1  0  0  0  0  0  0  0  0  0
    6.8128   -1.7250   21.3656 C   0  0  0  0  0  0  0  0  0  0  0  0
    6.9433   -0.3894   20.8218 N   0  0  0  0  0  0  0  0  0  0  0  0
    6.1441    0.1139   19.7655 C   0  0  0  0  0  0  0  0  0  0  0  0
    6.4450   -0.2235   18.4725 C   0  0  0  0  0  0  0  0  0  0  0  0
    5.7592    0.2196   17.3888 N   0  0  0  0  0  0  0  0  0  0  0  0
    4.7435    1.0132   17.5996 C   0  0  0  0  0  0  0  0  0  0  0  0
    4.2934    1.4141   18.8869 C   0  0  0  0  0  0  0  0  0  0  0  0
    3.1670    2.2561   19.0682 C   0  0  0  0  0  0  0  0  0  0  0  0
    2.7475    2.6121   20.3138 C   0  0  0  0  0  0  0  0  0  0  0  0
    3.4330    2.1238   21.4575 C   0  0  0  0  0  0  0  0  0  0  0  0
    4.5249    1.3079   21.3085 C   0  0  0  0  0  0  0  0  0  0  0  0
    5.0053    0.9437   20.0214 C   0  0  0  0  0  0  0  0  0  0  0  0
    5.0398    0.9307   22.1913 H   0  0  0  0  0  0  0  0  0  0  0  0
    3.0950    2.4109   22.4458 H   0  0  0  0  0  0  0  0  0  0  0  0
    1.8988    3.2774   20.4432 H   0  0  0  0  0  0  0  0  0  0  0  0
    2.6595    2.6306   18.1770 H   0  0  0  0  0  0  0  0  0  0  0  0
    4.2132    1.3808   16.7178 H   0  0  0  0  0  0  0  0  0  0  0  0
    7.2902   -0.8763   18.2647 H   0  0  0  0  0  0  0  0  0  0  0  0
    7.7101    0.4609   21.5957 C   0  0  0  0  0  0  0  0  0  0  0  0
    7.9091    1.6166   21.3485 O   0  0  0  0  0  0  0  0  0  0  0  0
    8.2450   -0.3426   22.8055 C   0  0  1  0  0  0  0  0  0  0  0  0
    7.5107    0.1115   24.0786 C   0  0  0  0  0  0  0  0  0  0  0  0
    7.8373    1.4888   24.3972 N   0  0  0  0  0  0  0  0  0  0  0  0
    6.7913    2.4166   24.7844 C   0  0  0  0  0  0  0  0  0  0  0  0
    6.3916    2.3185   26.2336 C   0  0  0  0  0  0  0  0  0  0  0  0
    5.5518    1.3461   26.8166 C   0  0  0  0  0  0  0  0  0  0  0  0
    5.5455    1.6467   28.1595 C   0  0  0  0  0  0  0  0  0  0  0  0
    6.3227    2.7432   28.3168 N   0  0  0  0  0  0  0  0  0  0  0  0
    6.6704    3.3686   29.5804 C   0  0  0  0  0  0  0  0  0  0  0  0
    7.5310    2.8722   30.0478 H   0  0  0  0  0  0  0  0  0  0  0  0
    5.8101    3.2962   30.2551 H   0  0  0  0  0  0  0  0  0  0  0  0
    6.9097    4.4172   29.3917 H   0  0  0  0  0  0  0  0  0  0  0  0
    6.8421    3.1662   27.1522 N   0  0  0  0  0  0  0  0  0  0  0  0
    5.0716    1.1790   29.0147 H   0  0  0  0  0  0  0  0  0  0  0  0
    5.0384    0.5435   26.3028 H   0  0  0  0  0  0  0  0  0  0  0  0
    7.1660    3.4227   24.5662 H   0  0  0  0  0  0  0  0  0  0  0  0
    5.9157    2.2143   24.1492 H   0  0  0  0  0  0  0  0  0  0  0  0
    9.1257    1.9480   24.4218 C   0  0  0  0  0  0  0  0  0  0  0  0
    9.4056    3.0689   24.8202 O   0  0  0  0  0  0  0  0  0  0  0  0
   10.1333    1.0120   23.8437 C   0  0  0  0  0  0  0  0  0  0  0  0
   11.4931    1.2798   23.9999 C   0  0  0  0  0  0  0  0  0  0  0  0
   12.4379    0.6229   23.2507 C   0  0  0  0  0  0  0  0  0  0  0  0
   11.9682   -0.2683   22.2885 C   0  0  0  0  0  0  0  0  0  0  0  0
   12.7496   -0.8301   21.3666 F   0  0  0  0  0  0  0  0  0  0  0  0
   10.6362   -0.6019   22.1653 C   0  0  0  0  0  0  0  0  0  0  0  0
    9.7042   -0.0125   22.9910 C   0  0  0  0  0  0  0  0  0  0  0  0
   10.3996   -1.2797   21.3548 H   0  0  0  0  0  0  0  0  0  0  0  0
   13.4992    0.8434   23.3640 H   0  0  0  0  0  0  0  0  0  0  0  0
   11.7349    2.0574   24.7098 H   0  0  0  0  0  0  0  0  0  0  0  0
    7.8028   -0.5376   24.9143 H   0  0  0  0  0  0  0  0  0  0  0  0
    6.4304    0.0153   23.9217 H   0  0  0  0  0  0  0  0  0  0  0  0
    6.9075   -2.4596   20.5626 H   0  0  0  0  0  0  0  0  0  0  0  0
    5.8321   -1.8716   21.8425 H   0  0  0  0  0  0  0  0  0  0  0  0
    8.8291   -2.1958   21.9050 H   0  0  0  0  0  0  0  0  0  0  0  0
    8.4128   -2.8058   24.3140 H   0  0  0  0  0  0  0  0  0  0  0  0
    6.6881   -2.4878   24.0627 H   0  0  0  0  0  0  0  0  0  0  0  0
    7.4792   -3.8065   23.1872 H   0  0  0  0  0  0  0  0  0  0  0  0
  1  2  1  0
  2  3  1  0
  3  4  1  0
  4  5  1  0
  5  6  2  0
  6  7  1  0
  7  8  2  0
  8  9  1  0
  9 10  2  0
 10 11  1  0
 11 12  2  0
 12 13  1  0
 13 14  2  0
 13 15  1  0
 12 16  1  0
 11 17  1  0
 10 18  1  0
  8 19  1  0
  6 20  1  0
  4 21  1  0
 21 22  2  0
 21 23  1  0
 23 24  1  1
 24 25  1  0
 25 26  1  0
 26 27  1  0
 27 28  1  0
 28 29  2  0
 29 30  1  0
 30 31  1  0
 31 32  1  0
 31 33  1  0
 31 34  1  0
 30 35  1  0
 29 36  1  0
 28 37  1  0
 26 38  1  0
 26 39  1  0
 25 40  1  0
 40 41  2  0
 40 42  1  0
 42 43  2  0
 43 44  1  0
 44 45  2  0
 45 46  1  0
 45 47  1  0
 47 48  2  0
 47 49  1  0
 44 50  1  0
 43 51  1  0
 24 52  1  0
 24 53  1  0
  3 54  1  0
  3 55  1  0
  2 56  1  6
  1 57  1  0
  1 58  1  0
  1 59  1  0
 23  2  1  0
 35 27  2  0
 48 42  1  0
 14  5  1  0
 48 23  1  0
 14  9  1  0
M  END
>  <cnnaffinities>  (37) 
[6.3443, 6.25135, 6.32243]

>  <score>  (37) 
6.3443

>  <index>  (37) 
36

>  <Smiles>  (37) 
C([C@]1(C(N(c2c(nc(c3c(c(c(c(c23)[H])[H])[H])[H])[H])[H])C(=O)[C@]21C(N(C(c1c(c(n(C([H])([H])[H])n1)[H])[H])([H])[H])C(=O)c1c(c(c(F)c(c21)[H])[H])[H])([H])[H])([H])[H])[H])([H])([H])[H]

>  <h>  (37) 
<NA>

>  <Training>  (37) 
True

>  <Success>  (37) 
True

>  <enamine_searched>  (37) 
False

>  <enamine_id>  (37) 
nan

$$$$

     RDKit          3D

 48 51  0  0  0  0  0  0  0  0999 V2000
   13.4277   -1.3725   24.3276 N   0  0  0  0  0  0  0  0  0  0  0  0
   12.3604   -1.6062   23.9445 C   0  0  0  0  0  0  0  0  0  0  0  0
   11.0284   -1.8953   23.4708 C   0  0  0  0  0  0  0  0  0  0  0  0
    9.9328   -1.1736   23.9600 C   0  0  0  0  0  0  0  0  0  0  0  0
    8.6531   -1.4541   23.5011 C   0  0  0  0  0  0  0  0  0  0  0  0
    8.4393   -2.4580   22.5453 C   0  0  0  0  0  0  0  0  0  0  0  0
    7.1093   -2.7409   22.0691 N   0  0  0  0  0  0  0  0  0  0  0  0
    6.5280   -4.0661   22.4213 C   0  0  0  0  0  0  0  0  0  0  0  0
    5.9722   -4.0423   23.8349 C   0  0  0  0  0  0  0  0  0  0  0  0
    6.8231   -4.2281   24.9270 C   0  0  0  0  0  0  0  0  0  0  0  0
    6.3218   -4.1596   26.2216 C   0  0  0  0  0  0  0  0  0  0  0  0
    4.9702   -3.8988   26.4404 C   0  0  0  0  0  0  0  0  0  0  0  0
    4.1223   -3.7043   25.3529 C   0  0  0  0  0  0  0  0  0  0  0  0
    2.4217   -3.3684   25.6230 Cl  0  0  0  0  0  0  0  0  0  0  0  0
    4.6168   -3.7719   24.0532 C   0  0  0  0  0  0  0  0  0  0  0  0
    3.9456   -3.6124   23.2113 H   0  0  0  0  0  0  0  0  0  0  0  0
    4.5861   -3.8457   27.4545 H   0  0  0  0  0  0  0  0  0  0  0  0
    6.9890   -4.3075   27.0717 H   0  0  0  0  0  0  0  0  0  0  0  0
    7.8857   -4.4232   24.7722 H   0  0  0  0  0  0  0  0  0  0  0  0
    7.3016   -4.8530   22.3476 H   0  0  0  0  0  0  0  0  0  0  0  0
    5.7440   -4.3327   21.6999 H   0  0  0  0  0  0  0  0  0  0  0  0
    6.2841   -1.7671   21.4755 C   0  0  0  0  0  0  0  0  0  0  0  0
    5.0741   -1.8885   21.4086 O   0  0  0  0  0  0  0  0  0  0  0  0
    6.9393   -0.4898   20.8809 C   0  0  0  0  0  0  0  0  0  0  0  0
    6.1104    0.0942   19.7579 C   0  0  0  0  0  0  0  0  0  0  0  0
    6.4230   -0.2110   18.4596 C   0  0  0  0  0  0  0  0  0  0  0  0
    5.7552    0.2401   17.3663 N   0  0  0  0  0  0  0  0  0  0  0  0
    4.7329    1.0331   17.5761 C   0  0  0  0  0  0  0  0  0  0  0  0
    4.2833    1.4285   18.8616 C   0  0  0  0  0  0  0  0  0  0  0  0
    3.1602    2.2776   19.0408 C   0  0  0  0  0  0  0  0  0  0  0  0
    2.7491    2.6234   20.2973 C   0  0  0  0  0  0  0  0  0  0  0  0
    3.4343    2.1331   21.4305 C   0  0  0  0  0  0  0  0  0  0  0  0
    4.5233    1.3123   21.2850 C   0  0  0  0  0  0  0  0  0  0  0  0
    4.9846    0.9401   19.9932 C   0  0  0  0  0  0  0  0  0  0  0  0
    5.0212    0.9363   22.1747 H   0  0  0  0  0  0  0  0  0  0  0  0
    3.0865    2.4127   22.4232 H   0  0  0  0  0  0  0  0  0  0  0  0
    1.8886    3.2739   20.4359 H   0  0  0  0  0  0  0  0  0  0  0  0
    2.6314    2.6503   18.1645 H   0  0  0  0  0  0  0  0  0  0  0  0
    4.1907    1.4043   16.7037 H   0  0  0  0  0  0  0  0  0  0  0  0
    7.2709   -0.8730   18.2588 H   0  0  0  0  0  0  0  0  0  0  0  0
    7.9397   -0.7408   20.5080 H   0  0  0  0  0  0  0  0  0  0  0  0
    7.0855    0.2482   21.6882 H   0  0  0  0  0  0  0  0  0  0  0  0
    9.5386   -3.1814   22.0654 C   0  0  0  0  0  0  0  0  0  0  0  0
   10.8226   -2.9023   22.5190 C   0  0  0  0  0  0  0  0  0  0  0  0
   11.6680   -3.4692   22.1343 H   0  0  0  0  0  0  0  0  0  0  0  0
    9.3914   -3.9615   21.3210 H   0  0  0  0  0  0  0  0  0  0  0  0
    7.8053   -0.8968   23.8985 H   0  0  0  0  0  0  0  0  0  0  0  0
   10.0824   -0.3925   24.7019 H   0  0  0  0  0  0  0  0  0  0  0  0
  1  2  3  0
  2  3  1  0
  3  4  2  0
  4  5  1  0
  5  6  2  0
  6  7  1  0
  7  8  1  0
  8  9  1  0
  9 10  2  0
 10 11  1  0
 11 12  2  0
 12 13  1  0
 13 14  1  0
 13 15  2  0
 15 16  1  0
 12 17  1  0
 11 18  1  0
 10 19  1  0
  8 20  1  0
  8 21  1  0
  7 22  1  0
 22 23  2  0
 22 24  1  0
 24 25  1  0
 25 26  2  0
 26 27  1  0
 27 28  2  0
 28 29  1  0
 29 30  2  0
 30 31  1  0
 31 32  2  0
 32 33  1  0
 33 34  2  0
 33 35  1  0
 32 36  1  0
 31 37  1  0
 30 38  1  0
 28 39  1  0
 26 40  1  0
 24 41  1  0
 24 42  1  0
  6 43  1  0
 43 44  2  0
 44 45  1  0
 43 46  1  0
  5 47  1  0
  4 48  1  0
 44  3  1  0
 15  9  1  0
 34 25  1  0
 34 29  1  0
M  END
>  <cnnaffinities>  (38) 
[6.47289]

>  <score>  (38) 
6.47289

>  <index>  (38) 
37

>  <Smiles>  (38) 
N#Cc1c(c(c(N(C(c2c(c(c(c(Cl)c2[H])[H])[H])[H])([H])[H])C(=O)C(c2c(nc(c3c(c(c(c(c23)[H])[H])[H])[H])[H])[H])([H])[H])c(c1[H])[H])[H])[H]

>  <h>  (38) 
<NA>

>  <Training>  (38) 
True

>  <Success>  (38) 
True

>  <enamine_searched>  (38) 
False

>  <enamine_id>  (38) 
nan

$$$$

     RDKit          3D

 72 77  0  0  0  0  0  0  0  0999 V2000
    6.2474    4.4787   22.7842 C   0  0  0  0  0  0  0  0  0  0  0  0
    6.6847    3.2282   23.4096 N   0  0  0  0  0  4  0  0  0  0  0  0
    7.5948    3.4425   24.5569 C   0  0  0  0  0  0  0  0  0  0  0  0
    7.9484    2.1100   25.2108 C   0  0  0  0  0  0  0  0  0  0  0  0
    8.6657    1.2166   24.3193 N   0  0  0  0  0  0  0  0  0  0  0  0
    8.0947   -0.0814   23.9922 C   0  0  0  0  0  0  0  0  0  0  0  0
    8.4849   -0.5463   22.5717 C   0  0  2  0  0  0  0  0  0  0  0  0
    7.7184    0.3511   21.5794 C   0  0  0  0  0  0  0  0  0  0  0  0
    7.7361    1.5762   21.5511 O   0  0  0  0  0  0  0  0  0  0  0  0
    6.9258   -0.4329   20.7961 N   0  0  0  0  0  0  0  0  0  0  0  0
    6.1362    0.1011   19.7470 C   0  0  0  0  0  0  0  0  0  0  0  0
    6.4237   -0.2396   18.4505 C   0  0  0  0  0  0  0  0  0  0  0  0
    5.7311    0.2077   17.3779 N   0  0  0  0  0  0  0  0  0  0  0  0
    4.7199    1.0106   17.6010 C   0  0  0  0  0  0  0  0  0  0  0  0
    4.2956    1.4152   18.8990 C   0  0  0  0  0  0  0  0  0  0  0  0
    3.1780    2.2702   19.0935 C   0  0  0  0  0  0  0  0  0  0  0  0
    2.7987    2.6490   20.3527 C   0  0  0  0  0  0  0  0  0  0  0  0
    3.5062    2.1726   21.4799 C   0  0  0  0  0  0  0  0  0  0  0  0
    4.5739    1.3258   21.3182 C   0  0  0  0  0  0  0  0  0  0  0  0
    5.0182    0.9473   20.0177 C   0  0  0  0  0  0  0  0  0  0  0  0
    5.0848    0.9209   22.1869 H   0  0  0  0  0  0  0  0  0  0  0  0
    3.2129    2.4950   22.4768 H   0  0  0  0  0  0  0  0  0  0  0  0
    1.9594    3.3247   20.4895 H   0  0  0  0  0  0  0  0  0  0  0  0
    2.6560    2.6340   18.2127 H   0  0  0  0  0  0  0  0  0  0  0  0
    4.1786    1.3774   16.7285 H   0  0  0  0  0  0  0  0  0  0  0  0
    7.2664   -0.8957   18.2342 H   0  0  0  0  0  0  0  0  0  0  0  0
    6.6830   -1.7385   21.3834 C   0  0  0  0  0  0  0  0  0  0  0  0
    7.9629   -1.9633   22.1848 C   0  0  2  0  0  0  0  0  0  0  0  0
    7.8663   -3.0002   23.2907 C   0  0  0  0  0  0  0  0  0  0  0  0
    6.8096   -2.6606   24.1640 O   0  0  0  0  0  0  0  0  0  0  0  0
    6.5057   -3.6586   25.1072 C   0  0  0  0  0  0  0  0  0  0  0  0
    5.8182   -2.9898   26.2825 C   0  0  0  0  0  0  0  0  0  0  0  0
    5.4647   -4.0224   27.3868 C   0  0  0  0  0  0  0  0  0  0  0  0
    6.6417   -3.2387   28.5206 S   0  0  0  0  0  0  0  0  0  0  0  0
    7.8285   -4.0568   28.6939 O   0  0  0  0  0  0  0  0  0  0  0  0
    5.9787   -2.6193   29.6555 O   0  0  0  0  0  0  0  0  0  0  0  0
    6.8020   -2.1082   27.1141 C   0  0  0  0  0  0  0  0  0  0  0  0
    7.8302   -2.0886   26.7440 H   0  0  0  0  0  0  0  0  0  0  0  0
    6.4738   -1.0984   27.3714 H   0  0  0  0  0  0  0  0  0  0  0  0
    5.7642   -5.0513   27.1700 H   0  0  0  0  0  0  0  0  0  0  0  0
    4.4493   -4.0022   27.7890 H   0  0  0  0  0  0  0  0  0  0  0  0
    4.9539   -2.4243   25.9276 H   0  0  0  0  0  0  0  0  0  0  0  0
    5.8496   -4.4212   24.6608 H   0  0  0  0  0  0  0  0  0  0  0  0
    7.4210   -4.1674   25.4576 H   0  0  0  0  0  0  0  0  0  0  0  0
    8.8175   -3.0337   23.8496 H   0  0  0  0  0  0  0  0  0  0  0  0
    7.6934   -4.0019   22.8654 H   0  0  0  0  0  0  0  0  0  0  0  0
    8.6809   -2.3558   21.4713 H   0  0  0  0  0  0  0  0  0  0  0  0
    6.5212   -2.4739   20.5937 H   0  0  0  0  0  0  0  0  0  0  0  0
    5.8046   -1.7313   22.0411 H   0  0  0  0  0  0  0  0  0  0  0  0
    9.9858   -0.4221   22.4441 C   0  0  0  0  0  0  0  0  0  0  0  0
   10.7061   -1.1819   21.5164 C   0  0  0  0  0  0  0  0  0  0  0  0
   12.0832   -1.1055   21.4878 C   0  0  0  0  0  0  0  0  0  0  0  0
   12.8588   -1.8441   20.0972 Cl  0  0  0  0  0  0  0  0  0  0  0  0
   12.7931   -0.3824   22.4592 C   0  0  0  0  0  0  0  0  0  0  0  0
   12.0807    0.4288   23.3204 C   0  0  0  0  0  0  0  0  0  0  0  0
   10.6914    0.4788   23.2465 C   0  0  0  0  0  0  0  0  0  0  0  0
    9.9575    1.5272   24.0137 C   0  0  0  0  0  0  0  0  0  0  0  0
   10.4870    2.5887   24.3320 O   0  0  0  0  0  0  0  0  0  0  0  0
   12.5836    1.0671   24.0401 H   0  0  0  0  0  0  0  0  0  0  0  0
   13.8806   -0.3706   22.4887 H   0  0  0  0  0  0  0  0  0  0  0  0
   10.2233   -1.8016   20.7703 H   0  0  0  0  0  0  0  0  0  0  0  0
    8.4262   -0.8166   24.7315 H   0  0  0  0  0  0  0  0  0  0  0  0
    7.0097    0.0004   24.0235 H   0  0  0  0  0  0  0  0  0  0  0  0
    7.0313    1.5953   25.5109 H   0  0  0  0  0  0  0  0  0  0  0  0
    8.5499    2.2697   26.1070 H   0  0  0  0  0  0  0  0  0  0  0  0
    7.1114    4.1096   25.2839 H   0  0  0  0  0  0  0  0  0  0  0  0
    8.5087    3.9315   24.2156 H   0  0  0  0  0  0  0  0  0  0  0  0
    5.8397    2.7315   23.7410 H   0  0  0  0  0  0  0  0  0  0  0  0
    7.1462    2.6174   22.7118 H   0  0  0  0  0  0  0  0  0  0  0  0
    5.4424    4.2804   22.0706 H   0  0  0  0  0  0  0  0  0  0  0  0
    7.0821    4.9640   22.2679 H   0  0  0  0  0  0  0  0  0  0  0  0
    5.8787    5.1758   23.5478 H   0  0  0  0  0  0  0  0  0  0  0  0
  1  2  1  0
  2  3  1  0
  3  4  1  0
  4  5  1  0
  5  6  1  0
  7  6  1  1
  7  8  1  0
  8  9  2  0
  8 10  1  0
 10 11  1  0
 11 12  2  0
 12 13  1  0
 13 14  2  0
 14 15  1  0
 15 16  2  0
 16 17  1  0
 17 18  2  0
 18 19  1  0
 19 20  2  0
 19 21  1  0
 18 22  1  0
 17 23  1  0
 16 24  1  0
 14 25  1  0
 12 26  1  0
 10 27  1  0
 27 28  1  0
 28 29  1  0
 29 30  1  0
 30 31  1  0
 31 32  1  0
 32 33  1  0
 33 34  1  0
 34 35  2  0
 34 36  2  0
 34 37  1  0
 37 38  1  0
 37 39  1  0
 33 40  1  0
 33 41  1  0
 32 42  1  0
 31 43  1  0
 31 44  1  0
 29 45  1  0
 29 46  1  0
 28 47  1  6
 27 48  1  0
 27 49  1  0
  7 50  1  0
 50 51  2  0
 51 52  1  0
 52 53  1  0
 52 54  2  0
 54 55  1  0
 55 56  2  0
 56 57  1  0
 57 58  2  0
 55 59  1  0
 54 60  1  0
 51 61  1  0
  6 62  1  0
  6 63  1  0
  4 64  1  0
  4 65  1  0
  3 66  1  0
  3 67  1  0
  2 68  1  0
  2 69  1  0
  1 70  1  0
  1 71  1  0
  1 72  1  0
 57  5  1  0
 28  7  1  0
 37 32  1  0
 56 50  1  0
 20 11  1  0
 20 15  1  0
M  CHG  1   2   1
M  END
>  <cnnaffinities>  (39) 
[6.49047]

>  <score>  (39) 
6.49047

>  <index>  (39) 
38

>  <Smiles>  (39) 
C([N+](C(C(N1C([C@@]2(C(=O)N(c3c(nc(c4c(c(c(c(c34)[H])[H])[H])[H])[H])[H])C([C@@]2(C(OC(C2(C(S(=O)(=O)C2([H])[H])([H])[H])[H])([H])[H])([H])[H])[H])([H])[H])c2c(c(Cl)c(c(c2C1=O)[H])[H])[H])([H])[H])([H])[H])([H])[H])([H])[H])([H])([H])[H]

>  <h>  (39) 
<NA>

>  <Training>  (39) 
True

>  <Success>  (39) 
True

>  <enamine_searched>  (39) 
False

>  <enamine_id>  (39) 
nan

$$$$

     RDKit          3D

 60 64  0  0  0  0  0  0  0  0999 V2000
   11.5976   -2.7739   21.3281 C   0  0  0  0  0  0  0  0  0  0  0  0
   10.8087   -1.6210   21.9130 C   0  0  0  0  0  0  0  0  0  0  0  0
    9.4471   -1.9873   21.8973 O   0  0  0  0  0  0  0  0  0  0  0  0
    8.5689   -0.9669   22.3326 C   0  0  1  0  0  0  0  0  0  0  0  0
    8.1758   -0.0757   21.1455 C   0  0  0  0  0  0  0  0  0  0  0  0
    6.8312   -0.4998   20.8296 N   0  0  0  0  0  0  0  0  0  0  0  0
    6.0866    0.0615   19.7755 C   0  0  0  0  0  0  0  0  0  0  0  0
    6.4436   -0.2095   18.4804 C   0  0  0  0  0  0  0  0  0  0  0  0
    5.7791    0.2460   17.3959 N   0  0  0  0  0  0  0  0  0  0  0  0
    4.7401    1.0148   17.6119 C   0  0  0  0  0  0  0  0  0  0  0  0
    4.2833    1.3940   18.9053 C   0  0  0  0  0  0  0  0  0  0  0  0
    3.1619    2.2451   19.0667 C   0  0  0  0  0  0  0  0  0  0  0  0
    2.7671    2.6392   20.3127 C   0  0  0  0  0  0  0  0  0  0  0  0
    3.4749    2.1999   21.4550 C   0  0  0  0  0  0  0  0  0  0  0  0
    4.5609    1.3703   21.3322 C   0  0  0  0  0  0  0  0  0  0  0  0
    4.9801    0.9276   20.0394 C   0  0  0  0  0  0  0  0  0  0  0  0
    5.0980    1.0561   22.2287 H   0  0  0  0  0  0  0  0  0  0  0  0
    3.1564    2.5350   22.4370 H   0  0  0  0  0  0  0  0  0  0  0  0
    1.9226    3.3113   20.4298 H   0  0  0  0  0  0  0  0  0  0  0  0
    2.6539    2.5978   18.1734 H   0  0  0  0  0  0  0  0  0  0  0  0
    4.2068    1.3871   16.7377 H   0  0  0  0  0  0  0  0  0  0  0  0
    7.3005   -0.8551   18.2905 H   0  0  0  0  0  0  0  0  0  0  0  0
    6.2811   -1.3901   21.7101 C   0  0  0  0  0  0  0  0  0  0  0  0
    5.1758   -1.8981   21.5768 O   0  0  0  0  0  0  0  0  0  0  0  0
    7.2737   -1.6135   22.8633 C   0  0  1  0  0  0  0  0  0  0  0  0
    7.5023   -3.1212   23.1061 C   0  0  0  0  0  0  0  0  0  0  0  0
    6.4144   -3.7606   23.8347 N   0  0  0  0  0  0  0  0  0  0  0  0
    5.9952   -5.1065   23.4452 C   0  0  0  0  0  0  0  0  0  0  0  0
    4.7208   -4.9968   22.5763 C   0  0  0  0  0  0  0  0  0  0  0  0
    4.7601   -5.0217   21.3698 O   0  0  0  0  0  0  0  0  0  0  0  0
    3.5840   -4.8510   23.3207 N   0  0  0  0  0  0  0  0  0  0  0  0
    2.3572   -4.4289   22.6880 C   0  0  0  0  0  0  0  0  0  0  0  0
    1.5952   -4.2825   23.4610 H   0  0  0  0  0  0  0  0  0  0  0  0
    1.9992   -5.1750   21.9732 H   0  0  0  0  0  0  0  0  0  0  0  0
    2.5519   -3.4990   22.1499 H   0  0  0  0  0  0  0  0  0  0  0  0
    3.7226   -4.6208   24.3004 H   0  0  0  0  0  0  0  0  0  0  0  0
    5.8229   -5.7215   24.3426 H   0  0  0  0  0  0  0  0  0  0  0  0
    6.8062   -5.5702   22.8656 H   0  0  0  0  0  0  0  0  0  0  0  0
    5.7386   -3.1418   24.8397 C   0  0  0  0  0  0  0  0  0  0  0  0
    4.8909   -3.7388   25.5139 O   0  0  0  0  0  0  0  0  0  0  0  0
    6.0476   -1.7039   25.0809 C   0  0  0  0  0  0  0  0  0  0  0  0
    5.5716   -1.1046   26.2475 C   0  0  0  0  0  0  0  0  0  0  0  0
    5.7668    0.2403   26.4850 C   0  0  0  0  0  0  0  0  0  0  0  0
    6.4433    0.9853   25.5214 C   0  0  0  0  0  0  0  0  0  0  0  0
    6.6940    2.6886   25.7793 Cl  0  0  0  0  0  0  0  0  0  0  0  0
    6.9293    0.4030   24.3638 C   0  0  0  0  0  0  0  0  0  0  0  0
    6.7593   -0.9667   24.1341 C   0  0  0  0  0  0  0  0  0  0  0  0
    7.4451    1.0257   23.6406 H   0  0  0  0  0  0  0  0  0  0  0  0
    5.3921    0.7174   27.3858 H   0  0  0  0  0  0  0  0  0  0  0  0
    5.0440   -1.7157   26.9685 H   0  0  0  0  0  0  0  0  0  0  0  0
    7.6024   -3.6136   22.1379 H   0  0  0  0  0  0  0  0  0  0  0  0
    8.4383   -3.2408   23.6583 H   0  0  0  0  0  0  0  0  0  0  0  0
    8.2143    0.9952   21.3852 H   0  0  0  0  0  0  0  0  0  0  0  0
    8.8460   -0.2577   20.3053 H   0  0  0  0  0  0  0  0  0  0  0  0
    9.0615   -0.4033   23.1347 H   0  0  0  0  0  0  0  0  0  0  0  0
   10.9681   -0.6952   21.3418 H   0  0  0  0  0  0  0  0  0  0  0  0
   11.1364   -1.4363   22.9485 H   0  0  0  0  0  0  0  0  0  0  0  0
   12.5881   -2.4521   21.0068 H   0  0  0  0  0  0  0  0  0  0  0  0
   11.1077   -3.1772   20.4389 H   0  0  0  0  0  0  0  0  0  0  0  0
   11.7037   -3.5712   22.0699 H   0  0  0  0  0  0  0  0  0  0  0  0
  1  2  1  0
  2  3  1  0
  3  4  1  0
  4  5  1  0
  5  6  1  0
  6  7  1  0
  7  8  2  0
  8  9  1  0
  9 10  2  0
 10 11  1  0
 11 12  2  0
 12 13  1  0
 13 14  2  0
 14 15  1  0
 15 16  2  0
 15 17  1  0
 14 18  1  0
 13 19  1  0
 12 20  1  0
 10 21  1  0
  8 22  1  0
  6 23  1  0
 23 24  2  0
 23 25  1  0
 25 26  1  1
 26 27  1  0
 27 28  1  0
 28 29  1  0
 29 30  2  0
 29 31  1  0
 31 32  1  0
 32 33  1  0
 32 34  1  0
 32 35  1  0
 31 36  1  0
 28 37  1  0
 28 38  1  0
 27 39  1  0
 39 40  2  0
 39 41  1  0
 41 42  2  0
 42 43  1  0
 43 44  2  0
 44 45  1  0
 44 46  1  0
 46 47  2  0
 46 48  1  0
 43 49  1  0
 42 50  1  0
 26 51  1  0
 26 52  1  0
  5 53  1  0
  5 54  1  0
  4 55  1  1
  2 56  1  0
  2 57  1  0
  1 58  1  0
  1 59  1  0
  1 60  1  0
 25  4  1  0
 47 41  1  0
 16  7  1  0
 47 25  1  0
 16 11  1  0
M  END
>  <cnnaffinities>  (40) 
[6.20828, 6.33956]

>  <score>  (40) 
6.20828

>  <index>  (40) 
39

>  <Smiles>  (40) 
C(C(O[C@]1(C(N(c2c(nc(c3c(c(c(c(c23)[H])[H])[H])[H])[H])[H])C(=O)[C@]21C(N(C(C(=O)N(C([H])([H])[H])[H])([H])[H])C(=O)c1c(c(c(Cl)c(c21)[H])[H])[H])([H])[H])([H])[H])[H])([H])[H])([H])([H])[H]

>  <h>  (40) 
<NA>

>  <Training>  (40) 
True

>  <Success>  (40) 
True

>  <enamine_searched>  (40) 
False

>  <enamine_id>  (40) 
nan

$$$$

     RDKit          3D

 57 61  0  0  0  0  0  0  0  0999 V2000
    7.6361    2.4520   28.7972 C   0  0  0  0  0  0  0  0  0  0  0  0
    7.9873    2.3934   27.3925 N   0  0  0  0  0  0  0  0  0  0  0  0
    7.0913    2.2492   26.3847 C   0  0  0  0  0  0  0  0  0  0  0  0
    5.9313    1.9564   26.5919 O   0  0  0  0  0  0  0  0  0  0  0  0
    7.6542    2.4853   24.9628 C   0  0  0  0  0  0  0  0  0  0  0  0
    8.5155    1.4244   24.4679 N   0  0  0  0  0  0  0  0  0  0  0  0
    7.9153    0.1276   24.2339 C   0  0  0  0  0  0  0  0  0  0  0  0
    8.2489   -0.4555   22.8324 C   0  0  2  0  0  0  0  0  0  0  0  0
    7.6068    0.4119   21.7221 C   0  0  0  0  0  0  0  0  0  0  0  0
    7.7289    1.6071   21.5879 O   0  0  0  0  0  0  0  0  0  0  0  0
    6.8635   -0.4020   20.8918 N   0  0  0  0  0  0  0  0  0  0  0  0
    6.1269    0.1036   19.7869 C   0  0  0  0  0  0  0  0  0  0  0  0
    6.4384   -0.2283   18.4893 C   0  0  0  0  0  0  0  0  0  0  0  0
    5.7649    0.2241   17.4016 N   0  0  0  0  0  0  0  0  0  0  0  0
    4.7433    1.0210   17.5963 C   0  0  0  0  0  0  0  0  0  0  0  0
    4.2892    1.4172   18.8841 C   0  0  0  0  0  0  0  0  0  0  0  0
    3.1625    2.2648   19.0555 C   0  0  0  0  0  0  0  0  0  0  0  0
    2.7451    2.6212   20.3086 C   0  0  0  0  0  0  0  0  0  0  0  0
    3.4235    2.1283   21.4471 C   0  0  0  0  0  0  0  0  0  0  0  0
    4.5070    1.3028   21.3048 C   0  0  0  0  0  0  0  0  0  0  0  0
    4.9873    0.9444   20.0149 C   0  0  0  0  0  0  0  0  0  0  0  0
    5.0158    0.9241   22.1828 H   0  0  0  0  0  0  0  0  0  0  0  0
    3.0923    2.4128   22.4395 H   0  0  0  0  0  0  0  0  0  0  0  0
    1.8977    3.2877   20.4368 H   0  0  0  0  0  0  0  0  0  0  0  0
    2.6568    2.6400   18.1702 H   0  0  0  0  0  0  0  0  0  0  0  0
    4.2175    1.3862   16.7128 H   0  0  0  0  0  0  0  0  0  0  0  0
    7.2851   -0.8740   18.2646 H   0  0  0  0  0  0  0  0  0  0  0  0
    7.0489   -1.8158   21.1532 C   0  0  0  0  0  0  0  0  0  0  0  0
    7.6711   -1.8907   22.5659 C   0  0  2  0  0  0  0  0  0  0  0  0
    6.6879   -2.4951   23.5809 C   0  0  0  0  0  0  0  0  0  0  0  0
    5.3532   -1.7022   23.5661 C   0  0  0  0  0  0  0  0  0  0  0  0
    5.3532   -1.8055   23.6475 N   0  0  0  0  0  0  0  0  0  0  0  0
    7.2161   -2.4899   24.5484 H   0  0  0  0  0  0  0  0  0  0  0  0
    6.5552   -3.5296   23.2697 H   0  0  0  0  0  0  0  0  0  0  0  0
    8.5134   -2.5990   22.5743 H   0  0  0  0  0  0  0  0  0  0  0  0
    7.7531   -2.2351   20.4313 H   0  0  0  0  0  0  0  0  0  0  0  0
    6.1041   -2.3594   21.0251 H   0  0  0  0  0  0  0  0  0  0  0  0
    9.7641   -0.3686   22.6738 C   0  0  0  0  0  0  0  0  0  0  0  0
   10.4279   -1.1352   21.7047 C   0  0  0  0  0  0  0  0  0  0  0  0
   11.8039   -1.0420   21.5785 C   0  0  0  0  0  0  0  0  0  0  0  0
   12.5678   -1.8916   20.2576 Cl  0  0  0  0  0  0  0  0  0  0  0  0
   12.5567   -0.2325   22.4358 C   0  0  0  0  0  0  0  0  0  0  0  0
   11.8821    0.6404   23.2676 C   0  0  0  0  0  0  0  0  0  0  0  0
   10.4946    0.6183   23.3496 C   0  0  0  0  0  0  0  0  0  0  0  0
    9.8076    1.7027   24.1289 C   0  0  0  0  0  0  0  0  0  0  0  0
   10.3371    2.7711   24.4057 O   0  0  0  0  0  0  0  0  0  0  0  0
   12.4154    1.4056   23.8162 H   0  0  0  0  0  0  0  0  0  0  0  0
   13.6444   -0.2155   22.3912 H   0  0  0  0  0  0  0  0  0  0  0  0
    9.9015   -1.7735   20.9968 H   0  0  0  0  0  0  0  0  0  0  0  0
    8.2482   -0.5808   25.0077 H   0  0  0  0  0  0  0  0  0  0  0  0
    6.8566    0.3063   24.3584 H   0  0  0  0  0  0  0  0  0  0  0  0
    8.2271    3.4138   24.8604 H   0  0  0  0  0  0  0  0  0  0  0  0
    6.7869    2.5387   24.3020 H   0  0  0  0  0  0  0  0  0  0  0  0
    8.9104    2.7082   27.1383 H   0  0  0  0  0  0  0  0  0  0  0  0
    8.4983    2.8532   29.3379 H   0  0  0  0  0  0  0  0  0  0  0  0
    6.7857    3.1156   28.9911 H   0  0  0  0  0  0  0  0  0  0  0  0
    7.4038    1.4556   29.1837 H   0  0  0  0  0  0  0  0  0  0  0  0
  1  2  1  0
  2  3  1  0
  3  4  2  0
  3  5  1  0
  5  6  1  0
  6  7  1  0
  8  7  1  1
  8  9  1  0
  9 10  2  0
  9 11  1  0
 11 12  1  0
 12 13  2  0
 13 14  1  0
 14 15  2  0
 15 16  1  0
 16 17  2  0
 17 18  1  0
 18 19  2  0
 19 20  1  0
 20 21  2  0
 20 22  1  0
 19 23  1  0
 18 24  1  0
 17 25  1  0
 15 26  1  0
 13 27  1  0
 11 28  1  0
 28 29  1  0
 29 30  1  0
 30 31  1  0
 31 32  3  0
 30 33  1  0
 30 34  1  0
 29 35  1  6
 28 36  1  0
 28 37  1  0
  8 38  1  0
 38 39  2  0
 39 40  1  0
 40 41  1  0
 40 42  2  0
 42 43  1  0
 43 44  2  0
 44 45  1  0
 45 46  2  0
 43 47  1  0
 42 48  1  0
 39 49  1  0
  7 50  1  0
  7 51  1  0
  5 52  1  0
  5 53  1  0
  2 54  1  0
  1 55  1  0
  1 56  1  0
  1 57  1  0
 45  6  1  0
 29  8  1  0
 44 38  1  0
 21 12  1  0
 21 16  1  0
M  END
>  <cnnaffinities>  (41) 
[5.64898]

>  <score>  (41) 
5.64898

>  <index>  (41) 
40

>  <Smiles>  (41) 
C(N(C(=O)C(N1C([C@@]2(C(=O)N(c3c(nc(c4c(c(c(c(c34)[H])[H])[H])[H])[H])[H])C([C@@]2(C(C#N)([H])[H])[H])([H])[H])c2c(c(Cl)c(c(c2C1=O)[H])[H])[H])([H])[H])([H])[H])[H])([H])([H])[H]

>  <h>  (41) 
<NA>

>  <Training>  (41) 
True

>  <Success>  (41) 
True

>  <enamine_searched>  (41) 
False

>  <enamine_id>  (41) 
nan

$$$$

     RDKit          3D

 68 73  0  0  0  0  0  0  0  0999 V2000
    7.3879   -2.5726   23.8195 C   0  0  0  0  0  0  0  0  0  0  0  0
    7.7206   -1.8713   22.5011 C   0  0  1  0  0  0  0  0  0  0  0  0
    6.4866   -1.5793   21.6310 C   0  0  0  0  0  0  0  0  0  0  0  0
    6.8977   -0.4437   20.8252 N   0  0  0  0  0  0  0  0  0  0  0  0
    6.1314    0.0987   19.7628 C   0  0  0  0  0  0  0  0  0  0  0  0
    6.4530   -0.2125   18.4680 C   0  0  0  0  0  0  0  0  0  0  0  0
    5.7672    0.2300   17.3871 N   0  0  0  0  0  0  0  0  0  0  0  0
    4.7418    1.0154   17.5975 C   0  0  0  0  0  0  0  0  0  0  0  0
    4.2905    1.4127   18.8882 C   0  0  0  0  0  0  0  0  0  0  0  0
    3.1643    2.2589   19.0660 C   0  0  0  0  0  0  0  0  0  0  0  0
    2.7604    2.6265   20.3183 C   0  0  0  0  0  0  0  0  0  0  0  0
    3.4642    2.1599   21.4514 C   0  0  0  0  0  0  0  0  0  0  0  0
    4.5612    1.3461   21.3077 C   0  0  0  0  0  0  0  0  0  0  0  0
    5.0048    0.9454   20.0166 C   0  0  0  0  0  0  0  0  0  0  0  0
    5.0976    1.0031   22.1866 H   0  0  0  0  0  0  0  0  0  0  0  0
    3.1507    2.4721   22.4434 H   0  0  0  0  0  0  0  0  0  0  0  0
    1.9127    3.2937   20.4479 H   0  0  0  0  0  0  0  0  0  0  0  0
    2.6550    2.6279   18.1795 H   0  0  0  0  0  0  0  0  0  0  0  0
    4.2115    1.3793   16.7171 H   0  0  0  0  0  0  0  0  0  0  0  0
    7.3004   -0.8632   18.2605 H   0  0  0  0  0  0  0  0  0  0  0  0
    8.0237    0.1964   21.2863 C   0  0  0  0  0  0  0  0  0  0  0  0
    8.5579    1.1379   20.7354 O   0  0  0  0  0  0  0  0  0  0  0  0
    8.4559   -0.4999   22.5986 C   0  0  1  0  0  0  0  0  0  0  0  0
    8.0134    0.3130   23.8314 C   0  0  0  0  0  0  0  0  0  0  0  0
    8.7007    1.5835   23.9216 N   0  0  0  0  0  0  0  0  0  0  0  0
    7.9693    2.8065   24.1675 C   0  0  0  0  0  0  0  0  0  0  0  0
    7.8627    3.6576   22.9007 C   0  0  0  0  0  0  0  0  0  0  0  0
    7.0713    4.9307   23.0720 N   0  0  0  0  0  4  0  0  0  0  0  0
    5.5769    4.6852   23.1543 C   0  0  0  0  0  0  0  0  0  0  0  0
    4.8153    5.9722   23.4264 C   0  0  0  0  0  0  0  0  0  0  0  0
    5.1930    6.6129   25.0606 S   0  0  0  0  0  0  0  0  0  0  0  0
    5.3359    8.0624   24.9583 O   0  0  0  0  0  0  0  0  0  0  0  0
    4.2589    6.0140   26.0091 O   0  0  0  0  0  0  0  0  0  0  0  0
    6.8202    5.9327   25.3897 C   0  0  0  0  0  0  0  0  0  0  0  0
    7.6421    5.8822   24.1097 C   0  0  0  0  0  0  0  0  0  0  0  0
    8.6565    5.5506   24.3324 H   0  0  0  0  0  0  0  0  0  0  0  0
    7.7072    6.8777   23.6644 H   0  0  0  0  0  0  0  0  0  0  0  0
    7.2535    6.6003   26.1374 H   0  0  0  0  0  0  0  0  0  0  0  0
    6.6624    4.9428   25.8242 H   0  0  0  0  0  0  0  0  0  0  0  0
    5.0699    6.7633   22.7140 H   0  0  0  0  0  0  0  0  0  0  0  0
    3.7332    5.8235   23.4253 H   0  0  0  0  0  0  0  0  0  0  0  0
    5.3643    3.9512   23.9350 H   0  0  0  0  0  0  0  0  0  0  0  0
    5.2557    4.2651   22.1970 H   0  0  0  0  0  0  0  0  0  0  0  0
    7.1858    5.4273   22.1708 H   0  0  0  0  0  0  0  0  0  0  0  0
    7.3774    3.0768   22.1112 H   0  0  0  0  0  0  0  0  0  0  0  0
    8.8647    3.9205   22.5450 H   0  0  0  0  0  0  0  0  0  0  0  0
    8.4939    3.3399   24.9626 H   0  0  0  0  0  0  0  0  0  0  0  0
    6.9781    2.5062   24.5174 H   0  0  0  0  0  0  0  0  0  0  0  0
   10.0571    1.6600   23.8362 C   0  0  0  0  0  0  0  0  0  0  0  0
   10.7008    2.6417   24.1865 O   0  0  0  0  0  0  0  0  0  0  0  0
   10.7064    0.4537   23.2443 C   0  0  0  0  0  0  0  0  0  0  0  0
   12.0929    0.3995   23.2215 C   0  0  0  0  0  0  0  0  0  0  0  0
   12.7370   -0.6255   22.5606 C   0  0  0  0  0  0  0  0  0  0  0  0
   11.9751   -1.5925   21.8765 C   0  0  0  0  0  0  0  0  0  0  0  0
   12.5067   -2.8912   20.8188 Cl  0  0  0  0  0  0  0  0  0  0  0  0
   10.6072   -1.5571   21.9420 C   0  0  0  0  0  0  0  0  0  0  0  0
    9.9505   -0.5616   22.6509 C   0  0  0  0  0  0  0  0  0  0  0  0
   10.0759   -2.3131   21.3811 H   0  0  0  0  0  0  0  0  0  0  0  0
   13.8189   -0.5711   22.6079 H   0  0  0  0  0  0  0  0  0  0  0  0
   12.6662    1.1891   23.7034 H   0  0  0  0  0  0  0  0  0  0  0  0
    6.9416    0.5123   23.7593 H   0  0  0  0  0  0  0  0  0  0  0  0
    8.2191   -0.2952   24.7273 H   0  0  0  0  0  0  0  0  0  0  0  0
    5.6170   -1.3406   22.2620 H   0  0  0  0  0  0  0  0  0  0  0  0
    6.2110   -2.4224   20.9894 H   0  0  0  0  0  0  0  0  0  0  0  0
    8.3704   -2.5338   21.9237 H   0  0  0  0  0  0  0  0  0  0  0  0
    6.6680   -1.9844   24.4004 H   0  0  0  0  0  0  0  0  0  0  0  0
    8.2766   -2.7239   24.4453 H   0  0  0  0  0  0  0  0  0  0  0  0
    6.9364   -3.5553   23.6410 H   0  0  0  0  0  0  0  0  0  0  0  0
  1  2  1  0
  2  3  1  0
  3  4  1  0
  4  5  1  0
  5  6  2  0
  6  7  1  0
  7  8  2  0
  8  9  1  0
  9 10  2  0
 10 11  1  0
 11 12  2  0
 12 13  1  0
 13 14  2  0
 13 15  1  0
 12 16  1  0
 11 17  1  0
 10 18  1  0
  8 19  1  0
  6 20  1  0
  4 21  1  0
 21 22  2  0
 21 23  1  0
 23 24  1  1
 24 25  1  0
 25 26  1  0
 26 27  1  0
 27 28  1  0
 28 29  1  0
 29 30  1  0
 30 31  1  0
 31 32  2  0
 31 33  2  0
 31 34  1  0
 34 35  1  0
 35 36  1  0
 35 37  1  0
 34 38  1  0
 34 39  1  0
 30 40  1  0
 30 41  1  0
 29 42  1  0
 29 43  1  0
 28 44  1  0
 27 45  1  0
 27 46  1  0
 26 47  1  0
 26 48  1  0
 25 49  1  0
 49 50  2  0
 49 51  1  0
 51 52  2  0
 52 53  1  0
 53 54  2  0
 54 55  1  0
 54 56  1  0
 56 57  2  0
 56 58  1  0
 53 59  1  0
 52 60  1  0
 24 61  1  0
 24 62  1  0
  3 63  1  0
  3 64  1  0
  2 65  1  6
  1 66  1  0
  1 67  1  0
  1 68  1  0
 23  2  1  0
 35 28  1  0
 57 51  1  0
 14  5  1  0
 57 23  1  0
 14  9  1  0
M  CHG  1  28   1
M  END
>  <cnnaffinities>  (42) 
[6.57501]

>  <score>  (42) 
6.57501

>  <index>  (42) 
41

>  <Smiles>  (42) 
C([C@]1(C(N(c2c(nc(c3c(c(c(c(c23)[H])[H])[H])[H])[H])[H])C(=O)[C@]21C(N(C(C([N+]1(C(C(S(=O)(=O)C(C1([H])[H])([H])[H])([H])[H])([H])[H])[H])([H])[H])([H])[H])C(=O)c1c(c(c(Cl)c(c21)[H])[H])[H])([H])[H])([H])[H])[H])([H])([H])[H]

>  <h>  (42) 
<NA>

>  <Training>  (42) 
True

>  <Success>  (42) 
True

>  <enamine_searched>  (42) 
False

>  <enamine_id>  (42) 
nan

$$$$

     RDKit          3D

 60 65  0  0  0  0  0  0  0  0999 V2000
    6.5922    4.3664   21.3144 C   0  0  0  0  0  0  0  0  0  0  0  0
    7.5723    3.9946   22.3172 N   0  0  0  0  0  0  0  0  0  0  0  0
    7.0934    3.3511   23.4211 C   0  0  0  0  0  0  0  0  0  0  0  0
    5.9023    3.1402   23.5968 O   0  0  0  0  0  0  0  0  0  0  0  0
    8.0926    2.8621   24.4632 C   0  0  0  0  0  0  0  0  0  0  0  0
    8.7581    1.6630   23.9909 N   0  0  0  0  0  0  0  0  0  0  0  0
    8.0126    0.4157   23.8590 C   0  0  0  0  0  0  0  0  0  0  0  0
    8.4341   -0.3864   22.5955 C   0  0  2  0  0  0  0  0  0  0  0  0
    7.9351    0.2818   21.2980 C   0  0  0  0  0  0  0  0  0  0  0  0
    8.3888    1.2708   20.7538 O   0  0  0  0  0  0  0  0  0  0  0  0
    6.8698   -0.4460   20.8249 N   0  0  0  0  0  0  0  0  0  0  0  0
    6.0961    0.0641   19.7572 C   0  0  0  0  0  0  0  0  0  0  0  0
    6.4550   -0.2107   18.4663 C   0  0  0  0  0  0  0  0  0  0  0  0
    5.7815    0.2322   17.3813 N   0  0  0  0  0  0  0  0  0  0  0  0
    4.7385    0.9976   17.5982 C   0  0  0  0  0  0  0  0  0  0  0  0
    4.2796    1.3850   18.8892 C   0  0  0  0  0  0  0  0  0  0  0  0
    3.1628    2.2380   19.0707 C   0  0  0  0  0  0  0  0  0  0  0  0
    2.7700    2.6150   20.3259 C   0  0  0  0  0  0  0  0  0  0  0  0
    3.4752    2.1563   21.4626 C   0  0  0  0  0  0  0  0  0  0  0  0
    4.5542    1.3215   21.3155 C   0  0  0  0  0  0  0  0  0  0  0  0
    4.9802    0.9094   20.0205 C   0  0  0  0  0  0  0  0  0  0  0  0
    5.1159    1.0145   22.1952 H   0  0  0  0  0  0  0  0  0  0  0  0
    3.1754    2.4886   22.4521 H   0  0  0  0  0  0  0  0  0  0  0  0
    1.9195    3.2758   20.4509 H   0  0  0  0  0  0  0  0  0  0  0  0
    2.6482    2.5999   18.1854 H   0  0  0  0  0  0  0  0  0  0  0  0
    4.2009    1.3584   16.7233 H   0  0  0  0  0  0  0  0  0  0  0  0
    7.3333   -0.8269   18.2826 H   0  0  0  0  0  0  0  0  0  0  0  0
    6.5127   -1.5997   21.6238 C   0  0  0  0  0  0  0  0  0  0  0  0
    7.7464   -1.7807   22.5169 C   0  0  2  0  0  0  0  0  0  0  0  0
    7.4425   -2.4815   23.8486 C   0  0  0  0  0  0  0  0  0  0  0  0
    6.9084   -3.8534   23.6038 C   0  0  0  0  0  0  0  0  0  0  0  0
    5.6130   -4.1303   23.5076 N   0  0  0  0  0  0  0  0  0  0  0  0
    5.5605   -5.4310   23.2388 N   0  0  0  0  0  0  0  0  0  0  0  0
    6.7763   -5.9099   23.1789 N   0  0  0  0  0  2  0  0  0  0  0  0
    7.6509   -4.9344   23.4040 N   0  0  0  0  0  0  0  0  0  0  0  0
    6.6842   -1.9295   24.4148 H   0  0  0  0  0  0  0  0  0  0  0  0
    8.3594   -2.5631   24.4408 H   0  0  0  0  0  0  0  0  0  0  0  0
    8.4282   -2.4453   21.9780 H   0  0  0  0  0  0  0  0  0  0  0  0
    6.3361   -2.4848   21.0021 H   0  0  0  0  0  0  0  0  0  0  0  0
    5.5989   -1.4290   22.2161 H   0  0  0  0  0  0  0  0  0  0  0  0
    9.9381   -0.4423   22.5481 C   0  0  0  0  0  0  0  0  0  0  0  0
   10.5617   -1.3484   21.6883 C   0  0  0  0  0  0  0  0  0  0  0  0
   11.9322   -1.3398   21.5539 C   0  0  0  0  0  0  0  0  0  0  0  0
   12.5914   -2.3702   20.3132 Cl  0  0  0  0  0  0  0  0  0  0  0  0
   12.7200   -0.4765   22.3270 C   0  0  0  0  0  0  0  0  0  0  0  0
   12.1066    0.4359   23.1478 C   0  0  0  0  0  0  0  0  0  0  0  0
   10.7225    0.5035   23.2083 C   0  0  0  0  0  0  0  0  0  0  0  0
   10.1176    1.6877   23.8845 C   0  0  0  0  0  0  0  0  0  0  0  0
   10.8005    2.6261   24.2789 O   0  0  0  0  0  0  0  0  0  0  0  0
   12.6867    1.1616   23.7038 H   0  0  0  0  0  0  0  0  0  0  0  0
   13.7976   -0.4008   22.2487 H   0  0  0  0  0  0  0  0  0  0  0  0
    9.9948   -2.0356   21.0662 H   0  0  0  0  0  0  0  0  0  0  0  0
    6.9420    0.6439   23.8291 H   0  0  0  0  0  0  0  0  0  0  0  0
    8.1961   -0.2179   24.7403 H   0  0  0  0  0  0  0  0  0  0  0  0
    7.5574    2.6484   25.3964 H   0  0  0  0  0  0  0  0  0  0  0  0
    8.8840    3.5860   24.6736 H   0  0  0  0  0  0  0  0  0  0  0  0
    8.5069    3.8056   21.9722 H   0  0  0  0  0  0  0  0  0  0  0  0
    6.1015    3.4698   20.9154 H   0  0  0  0  0  0  0  0  0  0  0  0
    5.8366    5.0026   21.7785 H   0  0  0  0  0  0  0  0  0  0  0  0
    7.0757    4.9297   20.5162 H   0  0  0  0  0  0  0  0  0  0  0  0
  1  2  1  0
  2  3  1  0
  3  4  2  0
  3  5  1  0
  5  6  1  0
  6  7  1  0
  8  7  1  1
  8  9  1  0
  9 10  2  0
  9 11  1  0
 11 12  1  0
 12 13  2  0
 13 14  1  0
 14 15  2  0
 15 16  1  0
 16 17  2  0
 17 18  1  0
 18 19  2  0
 19 20  1  0
 20 21  2  0
 20 22  1  0
 19 23  1  0
 18 24  1  0
 17 25  1  0
 15 26  1  0
 13 27  1  0
 11 28  1  0
 28 29  1  0
 29 30  1  0
 30 31  1  0
 31 32  1  0
 32 33  2  0
 33 34  1  0
 34 35  1  0
 30 36  1  0
 30 37  1  0
 29 38  1  6
 28 39  1  0
 28 40  1  0
  8 41  1  0
 41 42  2  0
 42 43  1  0
 43 44  1  0
 43 45  2  0
 45 46  1  0
 46 47  2  0
 47 48  1  0
 48 49  2  0
 46 50  1  0
 45 51  1  0
 42 52  1  0
  7 53  1  0
  7 54  1  0
  5 55  1  0
  5 56  1  0
  2 57  1  0
  1 58  1  0
  1 59  1  0
  1 60  1  0
 48  6  1  0
 29  8  1  0
 35 31  2  0
 47 41  1  0
 21 12  1  0
 21 16  1  0
M  CHG  1  34  -1
M  END
>  <cnnaffinities>  (43) 
[6.80743, 6.45301]

>  <score>  (43) 
6.80743

>  <index>  (43) 
42

>  <Smiles>  (43) 
C(N(C(=O)C(N1C([C@@]2(C(=O)N(c3c(nc(c4c(c(c(c(c34)[H])[H])[H])[H])[H])[H])C([C@@]2(C(c2nn[n-]n2)([H])[H])[H])([H])[H])c2c(c(Cl)c(c(c2C1=O)[H])[H])[H])([H])[H])([H])[H])[H])([H])([H])[H]

>  <h>  (43) 
<NA>

>  <Training>  (43) 
True

>  <Success>  (43) 
True

>  <enamine_searched>  (43) 
False

>  <enamine_id>  (43) 
nan

$$$$

     RDKit          3D

 62 67  0  0  0  0  0  0  0  0999 V2000
    3.1868   -7.5954   23.7431 C   0  0  0  0  0  0  0  0  0  0  0  0
    3.8360   -6.8644   24.9023 C   0  0  0  0  0  0  0  0  0  0  0  0
    5.2864   -6.8710   24.7441 N   0  0  0  0  0  0  0  0  0  0  0  0
    5.9291   -8.0027   25.0740 N   0  0  0  0  0  0  0  0  0  0  0  0
    7.1870   -7.8098   24.7003 C   0  0  0  0  0  0  0  0  0  0  0  0
    7.3618   -6.5555   24.0926 C   0  0  0  0  0  0  0  0  0  0  0  0
    6.0926   -6.0134   24.0662 C   0  0  0  0  0  0  0  0  0  0  0  0
    5.6274   -4.8112   23.2975 C   0  0  0  0  0  0  0  0  0  0  0  0
    6.2236   -3.5923   23.7628 N   0  0  0  0  0  0  0  0  0  0  0  0
    7.4452   -3.1111   23.1618 C   0  0  0  0  0  0  0  0  0  0  0  0
    7.3449   -1.6059   22.8678 C   0  0  2  0  0  0  0  0  0  0  0  0
    6.3322   -1.3828   21.7274 C   0  0  0  0  0  0  0  0  0  0  0  0
    5.2420   -1.9051   21.6127 O   0  0  0  0  0  0  0  0  0  0  0  0
    6.8663   -0.4872   20.8361 N   0  0  0  0  0  0  0  0  0  0  0  0
    6.1057    0.0604   19.7779 C   0  0  0  0  0  0  0  0  0  0  0  0
    6.4520   -0.2196   18.4792 C   0  0  0  0  0  0  0  0  0  0  0  0
    5.7825    0.2346   17.3944 N   0  0  0  0  0  0  0  0  0  0  0  0
    4.7498    1.0126   17.6070 C   0  0  0  0  0  0  0  0  0  0  0  0
    4.2955    1.3955   18.9016 C   0  0  0  0  0  0  0  0  0  0  0  0
    3.1783    2.2547   19.0668 C   0  0  0  0  0  0  0  0  0  0  0  0
    2.7834    2.6470   20.3147 C   0  0  0  0  0  0  0  0  0  0  0  0
    3.4839    2.1947   21.4571 C   0  0  0  0  0  0  0  0  0  0  0  0
    4.5633    1.3550   21.3282 C   0  0  0  0  0  0  0  0  0  0  0  0
    4.9896    0.9214   20.0350 C   0  0  0  0  0  0  0  0  0  0  0  0
    5.0992    1.0268   22.2190 H   0  0  0  0  0  0  0  0  0  0  0  0
    3.1660    2.5206   22.4430 H   0  0  0  0  0  0  0  0  0  0  0  0
    1.9335    3.3131   20.4363 H   0  0  0  0  0  0  0  0  0  0  0  0
    2.6675    2.6128   18.1771 H   0  0  0  0  0  0  0  0  0  0  0  0
    4.2155    1.3859   16.7332 H   0  0  0  0  0  0  0  0  0  0  0  0
    7.3012   -0.8740   18.2815 H   0  0  0  0  0  0  0  0  0  0  0  0
    8.2214   -0.0838   21.1320 C   0  0  0  0  0  0  0  0  0  0  0  0
    8.6638   -0.9917   22.3015 C   0  0  2  0  0  0  0  0  0  0  0  0
    9.7251   -1.9945   21.8185 C   0  0  0  0  0  0  0  0  0  0  0  0
   10.5949   -1.4588   21.4187 H   0  0  0  0  0  0  0  0  0  0  0  0
    9.3390   -2.6381   21.0189 H   0  0  0  0  0  0  0  0  0  0  0  0
   10.0870   -2.6305   22.6323 H   0  0  0  0  0  0  0  0  0  0  0  0
    9.1440   -0.4023   23.0902 H   0  0  0  0  0  0  0  0  0  0  0  0
    8.2550    0.9821   21.3907 H   0  0  0  0  0  0  0  0  0  0  0  0
    8.8615   -0.2334   20.2615 H   0  0  0  0  0  0  0  0  0  0  0  0
    6.8455   -0.9119   24.1360 C   0  0  0  0  0  0  0  0  0  0  0  0
    7.0555    0.4603   24.3278 C   0  0  0  0  0  0  0  0  0  0  0  0
    6.5718    1.0667   25.4732 C   0  0  0  0  0  0  0  0  0  0  0  0
    6.7903    2.3848   25.6504 F   0  0  0  0  0  0  0  0  0  0  0  0
    5.8673    0.3690   26.4515 C   0  0  0  0  0  0  0  0  0  0  0  0
    5.6255   -0.9781   26.2509 C   0  0  0  0  0  0  0  0  0  0  0  0
    6.0918   -1.6028   25.0953 C   0  0  0  0  0  0  0  0  0  0  0  0
    5.6806   -3.0165   24.8702 C   0  0  0  0  0  0  0  0  0  0  0  0
    4.8830   -3.5998   25.5944 O   0  0  0  0  0  0  0  0  0  0  0  0
    5.0559   -1.5804   26.9561 H   0  0  0  0  0  0  0  0  0  0  0  0
    5.4998    0.8994   27.3227 H   0  0  0  0  0  0  0  0  0  0  0  0
    7.5861    1.0670   23.5985 H   0  0  0  0  0  0  0  0  0  0  0  0
    7.6301   -3.6569   22.2309 H   0  0  0  0  0  0  0  0  0  0  0  0
    8.2791   -3.2797   23.8538 H   0  0  0  0  0  0  0  0  0  0  0  0
    5.9039   -4.9010   22.2419 H   0  0  0  0  0  0  0  0  0  0  0  0
    4.5432   -4.6849   23.3220 H   0  0  0  0  0  0  0  0  0  0  0  0
    8.2645   -6.0856   23.7077 H   0  0  0  0  0  0  0  0  0  0  0  0
    7.9026   -8.6121   24.8439 H   0  0  0  0  0  0  0  0  0  0  0  0
    3.6551   -7.3795   25.8485 H   0  0  0  0  0  0  0  0  0  0  0  0
    3.4851   -5.8363   25.0206 H   0  0  0  0  0  0  0  0  0  0  0  0
    2.1053   -7.6134   23.8475 H   0  0  0  0  0  0  0  0  0  0  0  0
    3.5538   -8.6215   23.7322 H   0  0  0  0  0  0  0  0  0  0  0  0
    3.4394   -7.1354   22.7835 H   0  0  0  0  0  0  0  0  0  0  0  0
  1  2  1  0
  2  3  1  0
  3  4  1  0
  4  5  2  0
  5  6  1  0
  6  7  2  0
  7  8  1  0
  8  9  1  0
  9 10  1  0
 11 10  1  1
 11 12  1  0
 12 13  2  0
 12 14  1  0
 14 15  1  0
 15 16  2  0
 16 17  1  0
 17 18  2  0
 18 19  1  0
 19 20  2  0
 20 21  1  0
 21 22  2  0
 22 23  1  0
 23 24  2  0
 23 25  1  0
 22 26  1  0
 21 27  1  0
 20 28  1  0
 18 29  1  0
 16 30  1  0
 14 31  1  0
 31 32  1  0
 32 33  1  0
 33 34  1  0
 33 35  1  0
 33 36  1  0
 32 37  1  1
 31 38  1  0
 31 39  1  0
 11 40  1  0
 40 41  2  0
 41 42  1  0
 42 43  1  0
 42 44  2  0
 44 45  1  0
 45 46  2  0
 46 47  1  0
 47 48  2  0
 45 49  1  0
 44 50  1  0
 41 51  1  0
 10 52  1  0
 10 53  1  0
  8 54  1  0
  8 55  1  0
  6 56  1  0
  5 57  1  0
  2 58  1  0
  2 59  1  0
  1 60  1  0
  1 61  1  0
  1 62  1  0
  7  3  1  0
 47  9  1  0
 32 11  1  0
 46 40  1  0
 24 15  1  0
 24 19  1  0
M  END
>  <cnnaffinities>  (44) 
[6.66563]

>  <score>  (44) 
6.66563

>  <index>  (44) 
43

>  <Smiles>  (44) 
C(C(n1nc(c(c1C(N1C([C@@]2(C(=O)N(c3c(nc(c4c(c(c(c(c34)[H])[H])[H])[H])[H])[H])C([C@@]2(C([H])([H])[H])[H])([H])[H])c2c(c(F)c(c(c2C1=O)[H])[H])[H])([H])[H])([H])[H])[H])[H])([H])[H])([H])([H])[H]

>  <h>  (44) 
<NA>

>  <Training>  (44) 
True

>  <Success>  (44) 
True

>  <enamine_searched>  (44) 
False

>  <enamine_id>  (44) 
nan

$$$$

     RDKit          3D

 56 60  0  0  0  0  0  0  0  0999 V2000
    7.6753   -8.4373   22.9209 C   0  0  0  0  0  0  0  0  0  0  0  0
    6.7059   -7.3751   22.7542 N   0  0  0  0  0  0  0  0  0  0  0  0
    6.9075   -6.4974   21.7319 C   0  0  0  0  0  0  0  0  0  0  0  0
    7.6876   -6.7014   20.8182 O   0  0  0  0  0  0  0  0  0  0  0  0
    6.0622   -5.2327   21.7480 C   0  0  0  0  0  0  0  0  0  0  0  0
    6.6057   -4.2531   22.6610 N   0  0  0  0  0  0  0  0  0  0  0  0
    7.7298   -3.3938   22.3258 C   0  0  0  0  0  0  0  0  0  0  0  0
    7.3953   -1.9274   22.6765 C   0  0  2  0  0  0  0  0  0  0  0  0
    6.3031   -1.4440   21.6900 C   0  0  0  0  0  0  0  0  0  0  0  0
    5.1752   -1.8697   21.5983 O   0  0  0  0  0  0  0  0  0  0  0  0
    6.8458   -0.4764   20.8652 N   0  0  0  0  0  0  0  0  0  0  0  0
    6.1110    0.0703   19.7938 C   0  0  0  0  0  0  0  0  0  0  0  0
    6.4615   -0.2176   18.4988 C   0  0  0  0  0  0  0  0  0  0  0  0
    5.7954    0.2287   17.4093 N   0  0  0  0  0  0  0  0  0  0  0  0
    4.7571    1.0027   17.6129 C   0  0  0  0  0  0  0  0  0  0  0  0
    4.3005    1.3919   18.9037 C   0  0  0  0  0  0  0  0  0  0  0  0
    3.1778    2.2435   19.0623 C   0  0  0  0  0  0  0  0  0  0  0  0
    2.7780    2.6373   20.3094 C   0  0  0  0  0  0  0  0  0  0  0  0
    3.4762    2.1945   21.4527 C   0  0  0  0  0  0  0  0  0  0  0  0
    4.5610    1.3628   21.3282 C   0  0  0  0  0  0  0  0  0  0  0  0
    4.9936    0.9291   20.0401 C   0  0  0  0  0  0  0  0  0  0  0  0
    5.0922    1.0338   22.2153 H   0  0  0  0  0  0  0  0  0  0  0  0
    3.1558    2.5277   22.4358 H   0  0  0  0  0  0  0  0  0  0  0  0
    1.9306    3.3064   20.4243 H   0  0  0  0  0  0  0  0  0  0  0  0
    2.6671    2.5953   18.1715 H   0  0  0  0  0  0  0  0  0  0  0  0
    4.2213    1.3724   16.7378 H   0  0  0  0  0  0  0  0  0  0  0  0
    7.3088   -0.8751   18.3048 H   0  0  0  0  0  0  0  0  0  0  0  0
    8.2884   -0.3934   20.9686 C   0  0  0  0  0  0  0  0  0  0  0  0
    8.5645   -0.9476   22.3745 C   0  0  2  0  0  0  0  0  0  0  0  0
    9.9940   -1.4721   22.4472 C   0  0  0  0  0  0  0  0  0  0  0  0
   10.4709   -2.0039   24.0858 Cl  0  0  0  0  0  0  0  0  0  0  0  0
   10.1439   -2.3213   21.7738 H   0  0  0  0  0  0  0  0  0  0  0  0
   10.6977   -0.6863   22.1657 H   0  0  0  0  0  0  0  0  0  0  0  0
    8.4822   -0.1176   23.0751 H   0  0  0  0  0  0  0  0  0  0  0  0
    8.6192    0.6440   20.8702 H   0  0  0  0  0  0  0  0  0  0  0  0
    8.8045   -0.9967   20.2052 H   0  0  0  0  0  0  0  0  0  0  0  0
    6.9041   -1.9310   24.1167 C   0  0  0  0  0  0  0  0  0  0  0  0
    6.8567   -0.7590   24.8719 C   0  0  0  0  0  0  0  0  0  0  0  0
    6.3959   -0.7934   26.1759 C   0  0  0  0  0  0  0  0  0  0  0  0
    6.3501    0.6844   27.0772 Cl  0  0  0  0  0  0  0  0  0  0  0  0
    5.9659   -1.9650   26.7961 C   0  0  0  0  0  0  0  0  0  0  0  0
    5.9684   -3.1181   26.0473 C   0  0  0  0  0  0  0  0  0  0  0  0
    6.3993   -3.0871   24.7270 C   0  0  0  0  0  0  0  0  0  0  0  0
    6.1682   -4.3134   23.9373 C   0  0  0  0  0  0  0  0  0  0  0  0
    5.5684   -5.2960   24.3808 O   0  0  0  0  0  0  0  0  0  0  0  0
    5.6087   -4.0634   26.4332 H   0  0  0  0  0  0  0  0  0  0  0  0
    5.6145   -1.9682   27.8216 H   0  0  0  0  0  0  0  0  0  0  0  0
    7.1712    0.1872   24.4516 H   0  0  0  0  0  0  0  0  0  0  0  0
    8.6432   -3.7021   22.8545 H   0  0  0  0  0  0  0  0  0  0  0  0
    7.9448   -3.4946   21.2738 H   0  0  0  0  0  0  0  0  0  0  0  0
    5.0493   -5.4853   22.0815 H   0  0  0  0  0  0  0  0  0  0  0  0
    6.0214   -4.8163   20.7394 H   0  0  0  0  0  0  0  0  0  0  0  0
    6.0870   -7.1081   23.5181 H   0  0  0  0  0  0  0  0  0  0  0  0
    8.5259   -8.1088   23.5373 H   0  0  0  0  0  0  0  0  0  0  0  0
    7.2257   -9.2988   23.4068 H   0  0  0  0  0  0  0  0  0  0  0  0
    8.0517   -8.7405   21.9532 H   0  0  0  0  0  0  0  0  0  0  0  0
  1  2  1  0
  2  3  1  0
  3  4  2  0
  3  5  1  0
  5  6  1  0
  6  7  1  0
  8  7  1  6
  8  9  1  0
  9 10  2  0
  9 11  1  0
 11 12  1  0
 12 13  2  0
 13 14  1  0
 14 15  2  0
 15 16  1  0
 16 17  2  0
 17 18  1  0
 18 19  2  0
 19 20  1  0
 20 21  2  0
 20 22  1  0
 19 23  1  0
 18 24  1  0
 17 25  1  0
 15 26  1  0
 13 27  1  0
 11 28  1  0
 28 29  1  0
 29 30  1  0
 30 31  1  0
 30 32  1  0
 30 33  1  0
 29 34  1  1
 28 35  1  0
 28 36  1  0
  8 37  1  0
 37 38  2  0
 38 39  1  0
 39 40  1  0
 39 41  2  0
 41 42  1  0
 42 43  2  0
 43 44  1  0
 44 45  2  0
 42 46  1  0
 41 47  1  0
 38 48  1  0
  7 49  1  0
  7 50  1  0
  5 51  1  0
  5 52  1  0
  2 53  1  0
  1 54  1  0
  1 55  1  0
  1 56  1  0
 44  6  1  0
 29  8  1  0
 43 37  1  0
 21 12  1  0
 21 16  1  0
M  END
>  <cnnaffinities>  (45) 
[6.85066]

>  <score>  (45) 
6.85066

>  <index>  (45) 
44

>  <Smiles>  (45) 
C(N(C(=O)C(N1C([C@@]2(C(=O)N(c3c(nc(c4c(c(c(c(c34)[H])[H])[H])[H])[H])[H])C([C@@]2(C(Cl)([H])[H])[H])([H])[H])c2c(c(Cl)c(c(c2C1=O)[H])[H])[H])([H])[H])([H])[H])[H])([H])([H])[H]

>  <h>  (45) 
<NA>

>  <Training>  (45) 
True

>  <Success>  (45) 
True

>  <enamine_searched>  (45) 
False

>  <enamine_id>  (45) 
nan

$$$$

     RDKit          3D

 60 64  0  0  0  0  0  0  0  0999 V2000
    7.6417   -8.3910   23.0880 C   0  0  0  0  0  0  0  0  0  0  0  0
    6.6673   -7.3611   22.7960 N   0  0  0  0  0  0  0  0  0  0  0  0
    6.8407   -6.5389   21.7274 C   0  0  0  0  0  0  0  0  0  0  0  0
    7.6284   -6.7553   20.8302 O   0  0  0  0  0  0  0  0  0  0  0  0
    6.0224   -5.2469   21.7404 C   0  0  0  0  0  0  0  0  0  0  0  0
    6.6097   -4.2913   22.6631 N   0  0  0  0  0  0  0  0  0  0  0  0
    7.7391   -3.4235   22.3302 C   0  0  0  0  0  0  0  0  0  0  0  0
    7.3992   -1.9514   22.6699 C   0  0  2  0  0  0  0  0  0  0  0  0
    6.3077   -1.4752   21.6769 C   0  0  0  0  0  0  0  0  0  0  0  0
    5.1867   -1.9185   21.5594 O   0  0  0  0  0  0  0  0  0  0  0  0
    6.8348   -0.4772   20.8794 N   0  0  0  0  0  0  0  0  0  0  0  0
    6.1047    0.0663   19.8014 C   0  0  0  0  0  0  0  0  0  0  0  0
    6.4607   -0.2171   18.5072 C   0  0  0  0  0  0  0  0  0  0  0  0
    5.7992    0.2300   17.4144 N   0  0  0  0  0  0  0  0  0  0  0  0
    4.7605    1.0020   17.6169 C   0  0  0  0  0  0  0  0  0  0  0  0
    4.2980    1.3884   18.9056 C   0  0  0  0  0  0  0  0  0  0  0  0
    3.1737    2.2378   19.0617 C   0  0  0  0  0  0  0  0  0  0  0  0
    2.7739    2.6332   20.3073 C   0  0  0  0  0  0  0  0  0  0  0  0
    3.4728    2.1951   21.4539 C   0  0  0  0  0  0  0  0  0  0  0  0
    4.5571    1.3627   21.3309 C   0  0  0  0  0  0  0  0  0  0  0  0
    4.9893    0.9273   20.0443 C   0  0  0  0  0  0  0  0  0  0  0  0
    5.0892    1.0294   22.2163 H   0  0  0  0  0  0  0  0  0  0  0  0
    3.1499    2.5290   22.4364 H   0  0  0  0  0  0  0  0  0  0  0  0
    1.9271    3.3042   20.4206 H   0  0  0  0  0  0  0  0  0  0  0  0
    2.6652    2.5875   18.1674 H   0  0  0  0  0  0  0  0  0  0  0  0
    4.2265    1.3640   16.7387 H   0  0  0  0  0  0  0  0  0  0  0  0
    7.3133   -0.8669   18.3128 H   0  0  0  0  0  0  0  0  0  0  0  0
    8.2762   -0.3851   20.9747 C   0  0  0  0  0  0  0  0  0  0  0  0
    8.5664   -0.9657   22.3628 C   0  0  2  0  0  0  0  0  0  0  0  0
    9.9843   -1.5068   22.4191 C   0  0  0  0  0  0  0  0  0  0  0  0
   10.2473   -2.0193   23.7002 O   0  0  0  0  0  0  0  0  0  0  0  0
   11.5191   -2.6181   23.7649 C   0  0  0  0  0  0  0  0  0  0  0  0
   12.3204   -1.8933   23.5501 H   0  0  0  0  0  0  0  0  0  0  0  0
   11.6529   -3.0079   24.7749 H   0  0  0  0  0  0  0  0  0  0  0  0
   11.6131   -3.4520   23.0509 H   0  0  0  0  0  0  0  0  0  0  0  0
   10.6938   -0.6959   22.1752 H   0  0  0  0  0  0  0  0  0  0  0  0
   10.1186   -2.2890   21.6513 H   0  0  0  0  0  0  0  0  0  0  0  0
    8.5028   -0.1522   23.0857 H   0  0  0  0  0  0  0  0  0  0  0  0
    8.7844   -0.9702   20.1896 H   0  0  0  0  0  0  0  0  0  0  0  0
    8.6031    0.6561   20.8805 H   0  0  0  0  0  0  0  0  0  0  0  0
    6.9095   -1.9458   24.1128 C   0  0  0  0  0  0  0  0  0  0  0  0
    6.8693   -0.7704   24.8706 C   0  0  0  0  0  0  0  0  0  0  0  0
    6.3991   -0.7983   26.1736 C   0  0  0  0  0  0  0  0  0  0  0  0
    6.3514    0.6891   27.0772 Cl  0  0  0  0  0  0  0  0  0  0  0  0
    5.9652   -1.9728   26.7909 C   0  0  0  0  0  0  0  0  0  0  0  0
    5.9677   -3.1253   26.0394 C   0  0  0  0  0  0  0  0  0  0  0  0
    6.3955   -3.1028   24.7186 C   0  0  0  0  0  0  0  0  0  0  0  0
    6.1530   -4.3341   23.9355 C   0  0  0  0  0  0  0  0  0  0  0  0
    5.5293   -5.2985   24.3847 O   0  0  0  0  0  0  0  0  0  0  0  0
    5.6061   -4.0656   26.4359 H   0  0  0  0  0  0  0  0  0  0  0  0
    5.6105   -1.9722   27.8168 H   0  0  0  0  0  0  0  0  0  0  0  0
    7.1873    0.1791   24.4531 H   0  0  0  0  0  0  0  0  0  0  0  0
    8.6411   -3.7156   22.8855 H   0  0  0  0  0  0  0  0  0  0  0  0
    7.9788   -3.5151   21.2796 H   0  0  0  0  0  0  0  0  0  0  0  0
    4.9917   -5.4337   22.0661 H   0  0  0  0  0  0  0  0  0  0  0  0
    5.9998   -4.8171   20.7395 H   0  0  0  0  0  0  0  0  0  0  0  0
    6.0987   -7.0054   23.5505 H   0  0  0  0  0  0  0  0  0  0  0  0
    8.0679   -8.7159   22.1461 H   0  0  0  0  0  0  0  0  0  0  0  0
    7.1436   -9.2486   23.5480 H   0  0  0  0  0  0  0  0  0  0  0  0
    8.4493   -8.0225   23.7456 H   0  0  0  0  0  0  0  0  0  0  0  0
  1  2  1  0
  2  3  1  0
  3  4  2  0
  3  5  1  0
  5  6  1  0
  6  7  1  0
  8  7  1  6
  8  9  1  0
  9 10  2  0
  9 11  1  0
 11 12  1  0
 12 13  2  0
 13 14  1  0
 14 15  2  0
 15 16  1  0
 16 17  2  0
 17 18  1  0
 18 19  2  0
 19 20  1  0
 20 21  2  0
 20 22  1  0
 19 23  1  0
 18 24  1  0
 17 25  1  0
 15 26  1  0
 13 27  1  0
 11 28  1  0
 28 29  1  0
 29 30  1  0
 30 31  1  0
 31 32  1  0
 32 33  1  0
 32 34  1  0
 32 35  1  0
 30 36  1  0
 30 37  1  0
 29 38  1  1
 28 39  1  0
 28 40  1  0
  8 41  1  0
 41 42  2  0
 42 43  1  0
 43 44  1  0
 43 45  2  0
 45 46  1  0
 46 47  2  0
 47 48  1  0
 48 49  2  0
 46 50  1  0
 45 51  1  0
 42 52  1  0
  7 53  1  0
  7 54  1  0
  5 55  1  0
  5 56  1  0
  2 57  1  0
  1 58  1  0
  1 59  1  0
  1 60  1  0
 48  6  1  0
 29  8  1  0
 47 41  1  0
 21 12  1  0
 21 16  1  0
M  END
>  <cnnaffinities>  (46) 
[6.87652]

>  <score>  (46) 
6.87652

>  <index>  (46) 
45

>  <Smiles>  (46) 
C(N(C(=O)C(N1C([C@@]2(C(=O)N(c3c(nc(c4c(c(c(c(c34)[H])[H])[H])[H])[H])[H])C([C@@]2(C(OC([H])([H])[H])([H])[H])[H])([H])[H])c2c(c(Cl)c(c(c2C1=O)[H])[H])[H])([H])[H])([H])[H])[H])([H])([H])[H]

>  <h>  (46) 
<NA>

>  <Training>  (46) 
True

>  <Success>  (46) 
True

>  <enamine_searched>  (46) 
False

>  <enamine_id>  (46) 
nan

$$$$

     RDKit          3D

 64 68  0  0  0  0  0  0  0  0999 V2000
    9.6820    3.2154   23.4728 C   0  0  0  0  0  0  0  0  0  0  0  0
    8.8972    2.2742   24.3692 C   0  0  0  0  0  0  0  0  0  0  0  0
    9.6927    0.6761   24.6126 S   0  0  0  0  0  0  0  0  0  0  0  0
    8.8758   -0.0419   25.5763 O   0  0  0  0  0  0  0  0  0  0  0  0
   11.1202    0.8426   24.8308 O   0  0  0  0  0  0  0  0  0  0  0  0
    9.5307   -0.0189   23.1288 N   0  0  0  0  0  0  0  0  0  0  0  0
    8.2419   -0.3745   22.5831 C   0  0  1  0  0  0  0  0  0  0  0  0
    7.8549    0.4846   21.3839 C   0  0  0  0  0  0  0  0  0  0  0  0
    6.8309   -0.3189   20.7514 N   0  0  0  0  0  0  0  0  0  0  0  0
    6.0380    0.1374   19.6801 C   0  0  0  0  0  0  0  0  0  0  0  0
    6.3422   -0.2072   18.3886 C   0  0  0  0  0  0  0  0  0  0  0  0
    5.6675    0.2605   17.3094 N   0  0  0  0  0  0  0  0  0  0  0  0
    4.6578    1.0667   17.5256 C   0  0  0  0  0  0  0  0  0  0  0  0
    4.2134    1.4586   18.8233 C   0  0  0  0  0  0  0  0  0  0  0  0
    3.0878    2.2945   19.0282 C   0  0  0  0  0  0  0  0  0  0  0  0
    2.6904    2.6297   20.2920 C   0  0  0  0  0  0  0  0  0  0  0  0
    3.3886    2.1447   21.4194 C   0  0  0  0  0  0  0  0  0  0  0  0
    4.4839    1.3359   21.2507 C   0  0  0  0  0  0  0  0  0  0  0  0
    4.9212    0.9831   19.9451 C   0  0  0  0  0  0  0  0  0  0  0  0
    5.0126    0.9513   22.1163 H   0  0  0  0  0  0  0  0  0  0  0  0
    3.0621    2.4171   22.4185 H   0  0  0  0  0  0  0  0  0  0  0  0
    1.8356    3.2822   20.4406 H   0  0  0  0  0  0  0  0  0  0  0  0
    2.5669    2.6768   18.1564 H   0  0  0  0  0  0  0  0  0  0  0  0
    4.1280    1.4495   16.6515 H   0  0  0  0  0  0  0  0  0  0  0  0
    7.1689   -0.8856   18.1830 H   0  0  0  0  0  0  0  0  0  0  0  0
    6.9006   -1.6546   21.0708 C   0  0  0  0  0  0  0  0  0  0  0  0
    6.1719   -2.5079   20.6045 O   0  0  0  0  0  0  0  0  0  0  0  0
    8.0187   -1.8357   22.0995 C   0  0  1  0  0  0  0  0  0  0  0  0
    9.2512   -2.4740   21.4235 C   0  0  0  0  0  0  0  0  0  0  0  0
   10.3053   -2.7787   22.3827 N   0  0  0  0  0  0  0  0  0  0  0  0
   11.6944   -2.5937   22.0096 C   0  0  0  0  0  0  0  0  0  0  0  0
   12.4229   -1.5554   22.8610 C   0  0  0  0  0  0  0  0  0  0  0  0
   12.5718   -0.4094   22.4531 O   0  0  0  0  0  0  0  0  0  0  0  0
   12.9476   -1.9971   24.0207 N   0  0  0  0  0  0  0  0  0  0  0  0
   13.9333   -1.2042   24.7273 C   0  0  0  0  0  0  0  0  0  0  0  0
   14.7291   -1.8467   25.1127 H   0  0  0  0  0  0  0  0  0  0  0  0
   14.3555   -0.5008   24.0036 H   0  0  0  0  0  0  0  0  0  0  0  0
   13.4871   -0.6500   25.5553 H   0  0  0  0  0  0  0  0  0  0  0  0
   12.6040   -2.8848   24.3669 H   0  0  0  0  0  0  0  0  0  0  0  0
   12.2133   -3.5484   22.0786 H   0  0  0  0  0  0  0  0  0  0  0  0
   11.7412   -2.2397   20.9771 H   0  0  0  0  0  0  0  0  0  0  0  0
   10.0114   -3.4859   23.5112 C   0  0  0  0  0  0  0  0  0  0  0  0
   10.8602   -4.0012   24.2387 O   0  0  0  0  0  0  0  0  0  0  0  0
    8.5594   -3.5559   23.8505 C   0  0  0  0  0  0  0  0  0  0  0  0
    8.1752   -4.4457   24.8378 C   0  0  0  0  0  0  0  0  0  0  0  0
    6.8796   -4.4684   25.3144 C   0  0  0  0  0  0  0  0  0  0  0  0
    5.9598   -3.5882   24.7478 C   0  0  0  0  0  0  0  0  0  0  0  0
    4.3356   -3.5682   25.3597 Cl  0  0  0  0  0  0  0  0  0  0  0  0
    6.3078   -2.7453   23.7102 C   0  0  0  0  0  0  0  0  0  0  0  0
    7.6178   -2.7394   23.2293 C   0  0  0  0  0  0  0  0  0  0  0  0
    5.5542   -2.1181   23.2489 H   0  0  0  0  0  0  0  0  0  0  0  0
    6.5697   -5.1384   26.1082 H   0  0  0  0  0  0  0  0  0  0  0  0
    8.9440   -5.1092   25.1897 H   0  0  0  0  0  0  0  0  0  0  0  0
    9.6392   -1.8005   20.6568 H   0  0  0  0  0  0  0  0  0  0  0  0
    8.8986   -3.3966   20.9532 H   0  0  0  0  0  0  0  0  0  0  0  0
    7.4701    1.4643   21.6814 H   0  0  0  0  0  0  0  0  0  0  0  0
    8.7229    0.6308   20.7207 H   0  0  0  0  0  0  0  0  0  0  0  0
    7.5120   -0.2238   23.3882 H   0  0  0  0  0  0  0  0  0  0  0  0
   10.3975   -0.2182   22.6365 H   0  0  0  0  0  0  0  0  0  0  0  0
    7.9001    2.0420   23.9725 H   0  0  0  0  0  0  0  0  0  0  0  0
    8.7445    2.6907   25.3677 H   0  0  0  0  0  0  0  0  0  0  0  0
   10.7004    3.3258   23.8529 H   0  0  0  0  0  0  0  0  0  0  0  0
    9.2022    4.1999   23.4685 H   0  0  0  0  0  0  0  0  0  0  0  0
    9.7167    2.8381   22.4430 H   0  0  0  0  0  0  0  0  0  0  0  0
  1  2  1  0
  2  3  1  0
  3  4  2  0
  3  5  2  0
  3  6  1  0
  6  7  1  0
  7  8  1  0
  8  9  1  0
  9 10  1  0
 10 11  2  0
 11 12  1  0
 12 13  2  0
 13 14  1  0
 14 15  2  0
 15 16  1  0
 16 17  2  0
 17 18  1  0
 18 19  2  0
 18 20  1  0
 17 21  1  0
 16 22  1  0
 15 23  1  0
 13 24  1  0
 11 25  1  0
  9 26  1  0
 26 27  2  0
 26 28  1  0
 28 29  1  6
 29 30  1  0
 30 31  1  0
 31 32  1  0
 32 33  2  0
 32 34  1  0
 34 35  1  0
 35 36  1  0
 35 37  1  0
 35 38  1  0
 34 39  1  0
 31 40  1  0
 31 41  1  0
 30 42  1  0
 42 43  2  0
 42 44  1  0
 44 45  2  0
 45 46  1  0
 46 47  2  0
 47 48  1  0
 47 49  1  0
 49 50  2  0
 49 51  1  0
 46 52  1  0
 45 53  1  0
 29 54  1  0
 29 55  1  0
  8 56  1  0
  8 57  1  0
  7 58  1  1
  6 59  1  0
  2 60  1  0
  2 61  1  0
  1 62  1  0
  1 63  1  0
  1 64  1  0
 28  7  1  0
 50 44  1  0
 19 10  1  0
 50 28  1  0
 19 14  1  0
M  END
>  <cnnaffinities>  (47) 
[6.91731, 7.10938]

>  <score>  (47) 
6.91731

>  <index>  (47) 
46

>  <Smiles>  (47) 
C(C(S(=O)(=O)N([C@]1(C(N(c2c(nc(c3c(c(c(c(c23)[H])[H])[H])[H])[H])[H])C(=O)[C@]21C(N(C(C(=O)N(C([H])([H])[H])[H])([H])[H])C(=O)c1c(c(c(Cl)c(c21)[H])[H])[H])([H])[H])([H])[H])[H])[H])([H])[H])([H])([H])[H]

>  <h>  (47) 
<NA>

>  <Training>  (47) 
True

>  <Success>  (47) 
True

>  <enamine_searched>  (47) 
False

>  <enamine_id>  (47) 
nan

$$$$

     RDKit          3D

 56 60  0  0  0  0  0  0  0  0999 V2000
    7.5503   -8.3675   22.8461 C   0  0  0  0  0  0  0  0  0  0  0  0
    6.6512   -7.2368   22.7435 N   0  0  0  0  0  0  0  0  0  0  0  0
    6.6408   -6.4251   21.6499 C   0  0  0  0  0  0  0  0  0  0  0  0
    7.1563   -6.6921   20.5805 O   0  0  0  0  0  0  0  0  0  0  0  0
    5.9442   -5.0785   21.8444 C   0  0  0  0  0  0  0  0  0  0  0  0
    6.6600   -4.2628   22.8038 N   0  0  0  0  0  0  0  0  0  0  0  0
    7.7473   -3.3959   22.4023 C   0  0  0  0  0  0  0  0  0  0  0  0
    7.4025   -1.9190   22.6987 C   0  0  2  0  0  0  0  0  0  0  0  0
    6.3126   -1.4703   21.6889 C   0  0  0  0  0  0  0  0  0  0  0  0
    5.1912   -1.9253   21.5769 O   0  0  0  0  0  0  0  0  0  0  0  0
    6.8355   -0.4917   20.8707 N   0  0  0  0  0  0  0  0  0  0  0  0
    6.1001    0.0569   19.7982 C   0  0  0  0  0  0  0  0  0  0  0  0
    6.4563   -0.2208   18.5027 C   0  0  0  0  0  0  0  0  0  0  0  0
    5.7955    0.2296   17.4123 N   0  0  0  0  0  0  0  0  0  0  0  0
    4.7564    1.0037   17.6147 C   0  0  0  0  0  0  0  0  0  0  0  0
    4.2961    1.3899   18.9052 C   0  0  0  0  0  0  0  0  0  0  0  0
    3.1735    2.2429   19.0608 C   0  0  0  0  0  0  0  0  0  0  0  0
    2.7743    2.6377   20.3095 C   0  0  0  0  0  0  0  0  0  0  0  0
    3.4735    2.1947   21.4523 C   0  0  0  0  0  0  0  0  0  0  0  0
    4.5558    1.3595   21.3283 C   0  0  0  0  0  0  0  0  0  0  0  0
    4.9866    0.9231   20.0410 C   0  0  0  0  0  0  0  0  0  0  0  0
    5.0905    1.0267   22.2116 H   0  0  0  0  0  0  0  0  0  0  0  0
    3.1533    2.5277   22.4355 H   0  0  0  0  0  0  0  0  0  0  0  0
    1.9282    3.3078   20.4234 H   0  0  0  0  0  0  0  0  0  0  0  0
    2.6644    2.5957   18.1697 H   0  0  0  0  0  0  0  0  0  0  0  0
    4.2249    1.3692   16.7372 H   0  0  0  0  0  0  0  0  0  0  0  0
    7.3077   -0.8715   18.3062 H   0  0  0  0  0  0  0  0  0  0  0  0
    8.2765   -0.3886   20.9694 C   0  0  0  0  0  0  0  0  0  0  0  0
    8.5836   -0.9571   22.3630 C   0  0  2  0  0  0  0  0  0  0  0  0
    9.9940   -1.5378   22.4328 C   0  0  0  0  0  0  0  0  0  0  0  0
   10.1405   -2.3155   21.6729 H   0  0  0  0  0  0  0  0  0  0  0  0
   10.2109   -1.9780   23.4115 H   0  0  0  0  0  0  0  0  0  0  0  0
   10.7357   -0.7539   22.2465 H   0  0  0  0  0  0  0  0  0  0  0  0
    8.5272   -0.1260   23.0690 H   0  0  0  0  0  0  0  0  0  0  0  0
    8.7911   -0.9663   20.1855 H   0  0  0  0  0  0  0  0  0  0  0  0
    8.5918    0.6546   20.8771 H   0  0  0  0  0  0  0  0  0  0  0  0
    6.9023   -1.8587   24.1397 C   0  0  0  0  0  0  0  0  0  0  0  0
    6.8426   -0.6451   24.8282 C   0  0  0  0  0  0  0  0  0  0  0  0
    6.3630   -0.6182   26.1233 C   0  0  0  0  0  0  0  0  0  0  0  0
    6.3314    0.5610   26.7652 F   0  0  0  0  0  0  0  0  0  0  0  0
    5.9166   -1.7458   26.8044 C   0  0  0  0  0  0  0  0  0  0  0  0
    5.9335   -2.9401   26.1191 C   0  0  0  0  0  0  0  0  0  0  0  0
    6.4045   -2.9889   24.8092 C   0  0  0  0  0  0  0  0  0  0  0  0
    6.2216   -4.2652   24.0837 C   0  0  0  0  0  0  0  0  0  0  0  0
    5.6299   -5.2340   24.5681 O   0  0  0  0  0  0  0  0  0  0  0  0
    5.5552   -3.8576   26.5565 H   0  0  0  0  0  0  0  0  0  0  0  0
    5.5502   -1.6720   27.8230 H   0  0  0  0  0  0  0  0  0  0  0  0
    7.1543    0.2851   24.3676 H   0  0  0  0  0  0  0  0  0  0  0  0
    8.6713   -3.6737   22.9294 H   0  0  0  0  0  0  0  0  0  0  0  0
    7.9254   -3.5407   21.3436 H   0  0  0  0  0  0  0  0  0  0  0  0
    4.9146   -5.1772   22.2159 H   0  0  0  0  0  0  0  0  0  0  0  0
    5.9201   -4.5532   20.8858 H   0  0  0  0  0  0  0  0  0  0  0  0
    6.2783   -6.8610   23.6088 H   0  0  0  0  0  0  0  0  0  0  0  0
    8.5408   -8.0737   23.2066 H   0  0  0  0  0  0  0  0  0  0  0  0
    7.1335   -9.1363   23.4957 H   0  0  0  0  0  0  0  0  0  0  0  0
    7.6951   -8.8405   21.8865 H   0  0  0  0  0  0  0  0  0  0  0  0
  1  2  1  0
  2  3  1  0
  3  4  2  0
  3  5  1  0
  5  6  1  0
  6  7  1  0
  8  7  1  6
  8  9  1  0
  9 10  2  0
  9 11  1  0
 11 12  1  0
 12 13  2  0
 13 14  1  0
 14 15  2  0
 15 16  1  0
 16 17  2  0
 17 18  1  0
 18 19  2  0
 19 20  1  0
 20 21  2  0
 20 22  1  0
 19 23  1  0
 18 24  1  0
 17 25  1  0
 15 26  1  0
 13 27  1  0
 11 28  1  0
 28 29  1  0
 29 30  1  0
 30 31  1  0
 30 32  1  0
 30 33  1  0
 29 34  1  1
 28 35  1  0
 28 36  1  0
  8 37  1  0
 37 38  2  0
 38 39  1  0
 39 40  1  0
 39 41  2  0
 41 42  1  0
 42 43  2  0
 43 44  1  0
 44 45  2  0
 42 46  1  0
 41 47  1  0
 38 48  1  0
  7 49  1  0
  7 50  1  0
  5 51  1  0
  5 52  1  0
  2 53  1  0
  1 54  1  0
  1 55  1  0
  1 56  1  0
 44  6  1  0
 29  8  1  0
 43 37  1  0
 21 12  1  0
 21 16  1  0
M  END
>  <cnnaffinities>  (48) 
[6.47911]

>  <score>  (48) 
6.47911

>  <index>  (48) 
47

>  <Smiles>  (48) 
C(N(C(=O)C(N1C([C@@]2(C(=O)N(c3c(nc(c4c(c(c(c(c34)[H])[H])[H])[H])[H])[H])C([C@@]2(C([H])([H])[H])[H])([H])[H])c2c(c(F)c(c(c2C1=O)[H])[H])[H])([H])[H])([H])[H])[H])([H])([H])[H]

>  <h>  (48) 
<NA>

>  <Training>  (48) 
True

>  <Success>  (48) 
True

>  <enamine_searched>  (48) 
False

>  <enamine_id>  (48) 
nan

$$$$

     RDKit          3D

 41 43  0  0  0  0  0  0  0  0999 V2000
   10.9104   -2.4509   23.7827 C   0  0  0  0  0  0  0  0  0  0  0  0
   10.0170   -1.2722   23.4542 C   0  0  1  0  0  0  0  0  0  0  0  0
    8.5429   -1.5711   23.7523 C   0  0  0  0  0  0  0  0  0  0  0  0
    7.6635   -0.3152   23.8322 C   0  0  0  0  0  0  0  0  0  0  0  0
    8.0154    0.7496   22.8950 N   0  0  0  0  0  0  0  0  0  0  0  0
    7.8622    0.6367   21.5254 C   0  0  0  0  0  0  0  0  0  0  0  0
    8.4382    1.3988   20.7680 O   0  0  0  0  0  0  0  0  0  0  0  0
    6.9379   -0.4475   20.9210 C   0  0  0  0  0  0  0  0  0  0  0  0
    6.1117    0.0853   19.7697 C   0  0  0  0  0  0  0  0  0  0  0  0
    6.4265   -0.2067   18.4655 C   0  0  0  0  0  0  0  0  0  0  0  0
    5.7577    0.2426   17.3703 N   0  0  0  0  0  0  0  0  0  0  0  0
    4.7319    1.0305   17.5774 C   0  0  0  0  0  0  0  0  0  0  0  0
    4.2844    1.4216   18.8696 C   0  0  0  0  0  0  0  0  0  0  0  0
    3.1634    2.2724   19.0461 C   0  0  0  0  0  0  0  0  0  0  0  0
    2.7620    2.6429   20.3013 C   0  0  0  0  0  0  0  0  0  0  0  0
    3.4628    2.1673   21.4314 C   0  0  0  0  0  0  0  0  0  0  0  0
    4.5480    1.3380   21.2870 C   0  0  0  0  0  0  0  0  0  0  0  0
    4.9918    0.9416   19.9973 C   0  0  0  0  0  0  0  0  0  0  0  0
    5.0720    0.9892   22.1709 H   0  0  0  0  0  0  0  0  0  0  0  0
    3.1371    2.4638   22.4228 H   0  0  0  0  0  0  0  0  0  0  0  0
    1.9117    3.3054   20.4356 H   0  0  0  0  0  0  0  0  0  0  0  0
    2.6457    2.6468   18.1662 H   0  0  0  0  0  0  0  0  0  0  0  0
    4.1985    1.3990   16.6995 H   0  0  0  0  0  0  0  0  0  0  0  0
    7.2729   -0.8561   18.2443 H   0  0  0  0  0  0  0  0  0  0  0  0
    7.5900   -1.2390   20.5270 H   0  0  0  0  0  0  0  0  0  0  0  0
    6.2855   -0.9121   21.6674 H   0  0  0  0  0  0  0  0  0  0  0  0
    9.0465    1.6760   23.3754 C   0  0  0  0  0  0  0  0  0  0  0  0
   10.4541    1.0768   23.4657 C   0  0  0  0  0  0  0  0  0  0  0  0
   10.4953   -0.1432   24.1776 O   0  0  0  0  0  0  0  0  0  0  0  0
   10.8641    0.9352   22.4555 H   0  0  0  0  0  0  0  0  0  0  0  0
   11.1270    1.7680   23.9974 H   0  0  0  0  0  0  0  0  0  0  0  0
    8.7543    1.9970   24.3784 H   0  0  0  0  0  0  0  0  0  0  0  0
    9.0630    2.5589   22.7324 H   0  0  0  0  0  0  0  0  0  0  0  0
    6.6073   -0.5753   23.7192 H   0  0  0  0  0  0  0  0  0  0  0  0
    7.7554    0.1109   24.8317 H   0  0  0  0  0  0  0  0  0  0  0  0
    8.4667   -2.1273   24.6968 H   0  0  0  0  0  0  0  0  0  0  0  0
    8.1657   -2.2443   22.9722 H   0  0  0  0  0  0  0  0  0  0  0  0
   10.1180   -1.0532   22.3865 H   0  0  0  0  0  0  0  0  0  0  0  0
   10.5948   -3.3346   23.2196 H   0  0  0  0  0  0  0  0  0  0  0  0
   11.9463   -2.2261   23.5147 H   0  0  0  0  0  0  0  0  0  0  0  0
   10.8687   -2.6772   24.8507 H   0  0  0  0  0  0  0  0  0  0  0  0
  1  2  1  0
  2  3  1  0
  3  4  1  0
  4  5  1  0
  5  6  1  0
  6  7  2  0
  6  8  1  0
  8  9  1  0
  9 10  2  0
 10 11  1  0
 11 12  2  0
 12 13  1  0
 13 14  2  0
 14 15  1  0
 15 16  2  0
 16 17  1  0
 17 18  2  0
 17 19  1  0
 16 20  1  0
 15 21  1  0
 14 22  1  0
 12 23  1  0
 10 24  1  0
  8 25  1  0
  8 26  1  0
  5 27  1  0
 27 28  1  0
 28 29  1  0
 28 30  1  0
 28 31  1  0
 27 32  1  0
 27 33  1  0
  4 34  1  0
  4 35  1  0
  3 36  1  0
  3 37  1  0
  2 38  1  6
  1 39  1  0
  1 40  1  0
  1 41  1  0
 29  2  1  0
 18  9  1  0
 18 13  1  0
M  END
>  <cnnaffinities>  (49) 
[5.53528, 5.02785, 5.15631, 5.07838]

>  <score>  (49) 
5.53528

>  <index>  (49) 
48

>  <Smiles>  (49) 
C([C@]1(C(C(N(C(=O)C(c2c(nc(c3c(c(c(c(c23)[H])[H])[H])[H])[H])[H])([H])[H])C(C(O1)([H])[H])([H])[H])([H])[H])([H])[H])[H])([H])([H])[H]

>  <h>  (49) 
<NA>

>  <Training>  (49) 
True

>  <Success>  (49) 
True

>  <enamine_searched>  (49) 
False

>  <enamine_id>  (49) 
nan

$$$$

     RDKit          3D

 42 45  0  0  0  0  0  0  0  0999 V2000
   10.2900   -2.6835   21.1505 C   0  0  0  0  0  0  0  0  0  0  0  0
    9.4506   -2.1735   22.2196 N   0  0  0  0  0  0  0  0  0  0  0  0
    9.5967   -0.8023   22.6843 C   0  0  0  0  0  0  0  0  0  0  0  0
    8.2462   -0.1201   22.9487 C   0  0  1  0  0  0  0  0  0  0  0  0
    7.6242    0.4969   21.6857 C   0  0  0  0  0  0  0  0  0  0  0  0
    7.7466    1.6845   21.4338 O   0  0  0  0  0  0  0  0  0  0  0  0
    6.9264   -0.3643   20.8815 N   0  0  0  0  0  0  0  0  0  0  0  0
    6.1315    0.0983   19.8074 C   0  0  0  0  0  0  0  0  0  0  0  0
    6.4531   -0.2389   18.5202 C   0  0  0  0  0  0  0  0  0  0  0  0
    5.7931    0.2073   17.4229 N   0  0  0  0  0  0  0  0  0  0  0  0
    4.7718    1.0047   17.6157 C   0  0  0  0  0  0  0  0  0  0  0  0
    4.3003    1.3919   18.8995 C   0  0  0  0  0  0  0  0  0  0  0  0
    3.1726    2.2380   19.0602 C   0  0  0  0  0  0  0  0  0  0  0  0
    2.7336    2.5824   20.3064 C   0  0  0  0  0  0  0  0  0  0  0  0
    3.3870    2.0818   21.4539 C   0  0  0  0  0  0  0  0  0  0  0  0
    4.4739    1.2548   21.3292 C   0  0  0  0  0  0  0  0  0  0  0  0
    4.9827    0.9157   20.0407 C   0  0  0  0  0  0  0  0  0  0  0  0
    4.9552    0.8589   22.2194 H   0  0  0  0  0  0  0  0  0  0  0  0
    3.0231    2.3574   22.4383 H   0  0  0  0  0  0  0  0  0  0  0  0
    1.8783    3.2415   20.4215 H   0  0  0  0  0  0  0  0  0  0  0  0
    2.6828    2.6139   18.1665 H   0  0  0  0  0  0  0  0  0  0  0  0
    4.2428    1.3725   16.7341 H   0  0  0  0  0  0  0  0  0  0  0  0
    7.3098   -0.8837   18.3268 H   0  0  0  0  0  0  0  0  0  0  0  0
    7.0837   -1.3612   20.9700 H   0  0  0  0  0  0  0  0  0  0  0  0
    7.3661   -1.0681   23.7243 C   0  0  0  0  0  0  0  0  0  0  0  0
    6.3957   -0.5687   24.5862 C   0  0  0  0  0  0  0  0  0  0  0  0
    5.5491   -1.4403   25.2542 C   0  0  0  0  0  0  0  0  0  0  0  0
    4.3398   -0.7943   26.3194 Cl  0  0  0  0  0  0  0  0  0  0  0  0
    5.6408   -2.8215   25.0931 C   0  0  0  0  0  0  0  0  0  0  0  0
    6.6067   -3.3201   24.2413 C   0  0  0  0  0  0  0  0  0  0  0  0
    7.4691   -2.4463   23.5825 C   0  0  0  0  0  0  0  0  0  0  0  0
    8.4873   -3.0264   22.6701 C   0  0  0  0  0  0  0  0  0  0  0  0
    8.4403   -4.2024   22.3230 O   0  0  0  0  0  0  0  0  0  0  0  0
    6.7303   -4.3834   24.0581 H   0  0  0  0  0  0  0  0  0  0  0  0
    4.9654   -3.4890   25.6146 H   0  0  0  0  0  0  0  0  0  0  0  0
    6.3177    0.5009   24.7318 H   0  0  0  0  0  0  0  0  0  0  0  0
    8.4325    0.7663   23.5560 H   0  0  0  0  0  0  0  0  0  0  0  0
   10.1478   -0.2552   21.9123 H   0  0  0  0  0  0  0  0  0  0  0  0
   10.1710   -0.7403   23.6222 H   0  0  0  0  0  0  0  0  0  0  0  0
   10.7856   -3.6088   21.4514 H   0  0  0  0  0  0  0  0  0  0  0  0
    9.6661   -2.9111   20.2809 H   0  0  0  0  0  0  0  0  0  0  0  0
   11.0422   -1.9358   20.8882 H   0  0  0  0  0  0  0  0  0  0  0  0
  1  2  1  0
  2  3  1  0
  3  4  1  0
  4  5  1  0
  5  6  2  0
  5  7  1  0
  7  8  1  0
  8  9  2  0
  9 10  1  0
 10 11  2  0
 11 12  1  0
 12 13  2  0
 13 14  1  0
 14 15  2  0
 15 16  1  0
 16 17  2  0
 16 18  1  0
 15 19  1  0
 14 20  1  0
 13 21  1  0
 11 22  1  0
  9 23  1  0
  7 24  1  0
  4 25  1  0
 25 26  2  0
 26 27  1  0
 27 28  1  0
 27 29  2  0
 29 30  1  0
 30 31  2  0
 31 32  1  0
 32 33  2  0
 30 34  1  0
 29 35  1  0
 26 36  1  0
  4 37  1  1
  3 38  1  0
  3 39  1  0
  1 40  1  0
  1 41  1  0
  1 42  1  0
 32  2  1  0
 17  8  1  0
 31 25  1  0
 17 12  1  0
M  END
>  <cnnaffinities>  (50) 
[5.96003, 5.63787, 5.88656]

>  <score>  (50) 
5.96003

>  <index>  (50) 
49

>  <Smiles>  (50) 
C(N1C([C@@](C(=O)N(c2c(nc(c3c(c(c(c(c23)[H])[H])[H])[H])[H])[H])[H])(c2c(c(Cl)c(c(c2C1=O)[H])[H])[H])[H])([H])[H])([H])([H])[H]

>  <h>  (50) 
<NA>

>  <Training>  (50) 
True

>  <Success>  (50) 
True

>  <enamine_searched>  (50) 
False

>  <enamine_id>  (50) 
nan

$$$$

     RDKit          3D

 38 41  0  0  0  0  0  0  0  0999 V2000
    5.1230   -2.0681   21.1653 O   0  0  0  0  0  0  0  0  0  0  0  0
    6.2244   -1.6968   21.5408 C   0  0  0  0  0  0  0  0  0  0  0  0
    6.9215   -0.4972   20.9035 C   0  0  0  0  0  0  0  0  0  0  0  0
    6.1177    0.0796   19.7767 C   0  0  0  0  0  0  0  0  0  0  0  0
    6.4300   -0.2258   18.4789 C   0  0  0  0  0  0  0  0  0  0  0  0
    5.7649    0.2231   17.3838 N   0  0  0  0  0  0  0  0  0  0  0  0
    4.7398    1.0108   17.5933 C   0  0  0  0  0  0  0  0  0  0  0  0
    4.2826    1.3926   18.8828 C   0  0  0  0  0  0  0  0  0  0  0  0
    3.1629    2.2448   19.0539 C   0  0  0  0  0  0  0  0  0  0  0  0
    2.7497    2.6039   20.3077 C   0  0  0  0  0  0  0  0  0  0  0  0
    3.4355    2.1191   21.4443 C   0  0  0  0  0  0  0  0  0  0  0  0
    4.5237    1.2917   21.3036 C   0  0  0  0  0  0  0  0  0  0  0  0
    4.9818    0.9102   20.0128 C   0  0  0  0  0  0  0  0  0  0  0  0
    5.0418    0.9236   22.1831 H   0  0  0  0  0  0  0  0  0  0  0  0
    3.1037    2.4167   22.4356 H   0  0  0  0  0  0  0  0  0  0  0  0
    1.9008    3.2705   20.4320 H   0  0  0  0  0  0  0  0  0  0  0  0
    2.6642    2.6217   18.1633 H   0  0  0  0  0  0  0  0  0  0  0  0
    4.2136    1.3876   16.7150 H   0  0  0  0  0  0  0  0  0  0  0  0
    7.2781   -0.8754   18.2604 H   0  0  0  0  0  0  0  0  0  0  0  0
    7.8977   -0.8342   20.5299 H   0  0  0  0  0  0  0  0  0  0  0  0
    7.1215    0.2561   21.6760 H   0  0  0  0  0  0  0  0  0  0  0  0
    6.8910   -2.3575   22.5400 N   0  0  0  0  0  0  0  0  0  0  0  0
    8.0763   -1.8884   23.2500 C   0  0  0  0  0  0  0  0  0  0  0  0
    9.1071   -3.0163   23.4013 C   0  0  0  0  0  0  0  0  0  0  0  0
    8.3742   -4.2902   23.7688 C   0  0  0  0  0  0  0  0  0  0  0  0
    9.1574   -5.7286   24.2974 S   0  0  0  0  0  0  0  0  0  0  0  0
    7.6722   -6.5775   24.5126 C   0  0  0  0  0  0  0  0  0  0  0  0
    6.6186   -5.7582   24.2417 C   0  0  0  0  0  0  0  0  0  0  0  0
    7.0300   -4.4723   23.7563 C   0  0  0  0  0  0  0  0  0  0  0  0
    6.1367   -3.4540   23.1253 C   0  0  0  0  0  0  0  0  0  0  0  0
    5.3781   -3.0653   23.8205 H   0  0  0  0  0  0  0  0  0  0  0  0
    5.5896   -3.9184   22.3011 H   0  0  0  0  0  0  0  0  0  0  0  0
    5.5845   -6.0437   24.3764 H   0  0  0  0  0  0  0  0  0  0  0  0
    7.6930   -7.5935   24.9018 H   0  0  0  0  0  0  0  0  0  0  0  0
    9.8450   -2.7222   24.1668 H   0  0  0  0  0  0  0  0  0  0  0  0
    9.6585   -3.1637   22.4564 H   0  0  0  0  0  0  0  0  0  0  0  0
    8.5182   -1.0580   22.6969 H   0  0  0  0  0  0  0  0  0  0  0  0
    7.7820   -1.4982   24.2372 H   0  0  0  0  0  0  0  0  0  0  0  0
  1  2  2  0
  2  3  1  0
  3  4  1  0
  4  5  2  0
  5  6  1  0
  6  7  2  0
  7  8  1  0
  8  9  2  0
  9 10  1  0
 10 11  2  0
 11 12  1  0
 12 13  2  0
 12 14  1  0
 11 15  1  0
 10 16  1  0
  9 17  1  0
  7 18  1  0
  5 19  1  0
  3 20  1  0
  3 21  1  0
  2 22  1  0
 22 23  1  0
 23 24  1  0
 24 25  1  0
 25 26  1  0
 26 27  1  0
 27 28  2  0
 28 29  1  0
 29 30  1  0
 30 31  1  0
 30 32  1  0
 28 33  1  0
 27 34  1  0
 24 35  1  0
 24 36  1  0
 23 37  1  0
 23 38  1  0
 13  4  1  0
 30 22  1  0
 13  8  1  0
 29 25  2  0
M  END
>  <cnnaffinities>  (51) 
[5.42428, 4.66758, 5.43896]

>  <score>  (51) 
5.42428

>  <index>  (51) 
50

>  <Smiles>  (51) 
O=C(C(c1c(nc(c2c(c(c(c(c12)[H])[H])[H])[H])[H])[H])([H])[H])N1C(C(c2sc(c(c2C1([H])[H])[H])[H])([H])[H])([H])[H]

>  <h>  (51) 
<NA>

>  <Training>  (51) 
True

>  <Success>  (51) 
True

>  <enamine_searched>  (51) 
False

>  <enamine_id>  (51) 
nan

$$$$

     RDKit          3D

 67 73  0  0  0  0  0  0  0  0999 V2000
    7.5418   -8.7207   24.0427 C   0  0  0  0  0  0  0  0  0  0  0  0
    7.3277   -7.7572   22.9425 C   0  0  0  0  0  0  0  0  0  0  0  0
    7.9917   -7.5371   21.8637 N   0  0  0  0  0  0  0  0  0  0  0  0
    7.3531   -6.4774   21.2184 N   0  0  0  0  0  0  0  0  0  0  0  0
    6.3651   -6.1458   21.9734 C   0  0  0  0  0  0  0  0  0  0  0  0
    5.5170   -4.9183   21.9741 C   0  0  0  0  0  0  0  0  0  0  0  0
    6.0915   -3.9510   22.8867 N   0  0  0  0  0  0  0  0  0  0  0  0
    7.3313   -3.3173   22.4887 C   0  0  0  0  0  0  0  0  0  0  0  0
    7.2625   -1.8114   22.8014 C   0  0  2  0  0  0  0  0  0  0  0  0
    6.2396   -1.2298   21.8052 C   0  0  0  0  0  0  0  0  0  0  0  0
    5.0619   -1.5144   21.7399 O   0  0  0  0  0  0  0  0  0  0  0  0
    6.8829   -0.3797   20.9271 N   0  0  0  0  0  0  0  0  0  0  0  0
    6.1701    0.1554   19.8266 C   0  0  0  0  0  0  0  0  0  0  0  0
    6.5338   -0.1394   18.5346 C   0  0  0  0  0  0  0  0  0  0  0  0
    5.8486    0.2562   17.4352 N   0  0  0  0  0  0  0  0  0  0  0  0
    4.7752    0.9860   17.6168 C   0  0  0  0  0  0  0  0  0  0  0  0
    4.3025    1.3949   18.8939 C   0  0  0  0  0  0  0  0  0  0  0  0
    3.1467    2.2083   19.0311 C   0  0  0  0  0  0  0  0  0  0  0  0
    2.7236    2.6132   20.2669 C   0  0  0  0  0  0  0  0  0  0  0  0
    3.4384    2.2189   21.4183 C   0  0  0  0  0  0  0  0  0  0  0  0
    4.5583    1.4337   21.3110 C   0  0  0  0  0  0  0  0  0  0  0  0
    5.0155    0.9842   20.0390 C   0  0  0  0  0  0  0  0  0  0  0  0
    5.0934    1.1403   22.2062 H   0  0  0  0  0  0  0  0  0  0  0  0
    3.0967    2.5411   22.3965 H   0  0  0  0  0  0  0  0  0  0  0  0
    1.8494    3.2506   20.3670 H   0  0  0  0  0  0  0  0  0  0  0  0
    2.6297    2.5264   18.1296 H   0  0  0  0  0  0  0  0  0  0  0  0
    4.2232    1.2957   16.7283 H   0  0  0  0  0  0  0  0  0  0  0  0
    7.4076   -0.7592   18.3396 H   0  0  0  0  0  0  0  0  0  0  0  0
    8.3375   -0.5202   21.0196 C   0  0  0  0  0  0  0  0  0  0  0  0
    8.5685   -1.0489   22.4460 C   0  0  2  0  0  0  0  0  0  0  0  0
    9.9041   -1.7971   22.6036 C   0  0  0  0  0  0  0  0  0  0  0  0
   10.0075   -2.4194   23.9138 N   0  0  0  0  0  0  0  0  0  0  0  0
   11.1576   -2.9045   24.4607 C   0  0  0  0  0  0  0  0  0  0  0  0
   11.0997   -3.8171   25.5380 C   0  0  0  0  0  0  0  0  0  0  0  0
   12.3027   -4.2262   26.0714 C   0  0  0  0  0  0  0  0  0  0  0  0
   13.4945   -3.7825   25.6203 N   0  0  0  0  0  0  0  0  0  0  0  0
   13.4231   -2.9379   24.5992 C   0  0  0  0  0  0  0  0  0  0  0  0
   12.3337   -2.4722   23.9872 N   0  0  0  0  0  0  0  0  0  0  0  0
   14.3750   -2.5499   24.2331 H   0  0  0  0  0  0  0  0  0  0  0  0
   12.3394   -4.9180   26.9099 H   0  0  0  0  0  0  0  0  0  0  0  0
   10.1460   -4.1190   25.9645 H   0  0  0  0  0  0  0  0  0  0  0  0
    9.1434   -2.6814   24.3661 H   0  0  0  0  0  0  0  0  0  0  0  0
   10.7405   -1.0991   22.5033 H   0  0  0  0  0  0  0  0  0  0  0  0
   10.0248   -2.5357   21.7937 H   0  0  0  0  0  0  0  0  0  0  0  0
    8.6166   -0.1887   23.1155 H   0  0  0  0  0  0  0  0  0  0  0  0
    8.8233    0.4436   20.8582 H   0  0  0  0  0  0  0  0  0  0  0  0
    8.7313   -1.2427   20.2891 H   0  0  0  0  0  0  0  0  0  0  0  0
    6.8086   -1.6414   24.2394 C   0  0  0  0  0  0  0  0  0  0  0  0
    6.9761   -0.4163   24.9010 C   0  0  0  0  0  0  0  0  0  0  0  0
    6.6778   -0.3117   26.2468 C   0  0  0  0  0  0  0  0  0  0  0  0
    6.8793    1.2287   27.0350 Cl  0  0  0  0  0  0  0  0  0  0  0  0
    6.2049   -1.4025   26.9772 C   0  0  0  0  0  0  0  0  0  0  0  0
    5.9302   -2.5798   26.3016 C   0  0  0  0  0  0  0  0  0  0  0  0
    6.1695   -2.6813   24.9307 C   0  0  0  0  0  0  0  0  0  0  0  0
    5.6578   -3.8792   24.1855 C   0  0  0  0  0  0  0  0  0  0  0  0
    4.8949   -4.6953   24.6794 O   0  0  0  0  0  0  0  0  0  0  0  0
    5.5039   -3.4379   26.8132 H   0  0  0  0  0  0  0  0  0  0  0  0
    6.0496   -1.3166   28.0472 H   0  0  0  0  0  0  0  0  0  0  0  0
    7.3394    0.4608   24.3770 H   0  0  0  0  0  0  0  0  0  0  0  0
    7.4398   -3.4413   21.4135 H   0  0  0  0  0  0  0  0  0  0  0  0
    8.1924   -3.8113   22.9570 H   0  0  0  0  0  0  0  0  0  0  0  0
    4.5103   -5.1443   22.3316 H   0  0  0  0  0  0  0  0  0  0  0  0
    5.4737   -4.4557   20.9828 H   0  0  0  0  0  0  0  0  0  0  0  0
    6.2558   -6.9363   23.0654 O   0  0  0  0  0  0  0  0  0  0  0  0
    6.9162   -9.6046   23.9109 H   0  0  0  0  0  0  0  0  0  0  0  0
    8.5764   -9.0497   24.1170 H   0  0  0  0  0  0  0  0  0  0  0  0
    7.2556   -8.2278   24.9687 H   0  0  0  0  0  0  0  0  0  0  0  0
  1  2  1  0
  2  3  2  0
  3  4  1  0
  4  5  2  0
  5  6  1  0
  6  7  1  0
  7  8  1  0
  9  8  1  6
  9 10  1  0
 10 11  2  0
 10 12  1  0
 12 13  1  0
 13 14  2  0
 14 15  1  0
 15 16  2  0
 16 17  1  0
 17 18  2  0
 18 19  1  0
 19 20  2  0
 20 21  1  0
 21 22  2  0
 21 23  1  0
 20 24  1  0
 19 25  1  0
 18 26  1  0
 16 27  1  0
 14 28  1  0
 12 29  1  0
 29 30  1  0
 30 31  1  0
 31 32  1  0
 32 33  1  0
 33 34  2  0
 34 35  1  0
 35 36  2  0
 36 37  1  0
 37 38  2  0
 37 39  1  0
 35 40  1  0
 34 41  1  0
 32 42  1  0
 31 43  1  0
 31 44  1  0
 30 45  1  1
 29 46  1  0
 29 47  1  0
  9 48  1  0
 48 49  2  0
 49 50  1  0
 50 51  1  0
 50 52  2  0
 52 53  1  0
 53 54  2  0
 54 55  1  0
 55 56  2  0
 53 57  1  0
 52 58  1  0
 49 59  1  0
  8 60  1  0
  8 61  1  0
  6 62  1  0
  6 63  1  0
  5 64  1  0
  1 65  1  0
  1 66  1  0
  1 67  1  0
 64  2  1  0
 55  7  1  0
 30  9  1  0
 38 33  1  0
 54 48  1  0
 22 13  1  0
 22 17  1  0
M  END
>  <cnnaffinities>  (52) 
[7.59781]

>  <score>  (52) 
7.59781

>  <index>  (52) 
51

>  <Smiles>  (52) 
C(c1nnc(C(N2C([C@@]3(C(=O)N(c4c(nc(c5c(c(c(c(c45)[H])[H])[H])[H])[H])[H])C([C@@]3(C(N(c3c(c(nc(n3)[H])[H])[H])[H])([H])[H])[H])([H])[H])c3c(c(Cl)c(c(c3C2=O)[H])[H])[H])([H])[H])([H])[H])o1)([H])([H])[H]

>  <h>  (52) 
<NA>

>  <Training>  (52) 
True

>  <Success>  (52) 
True

>  <enamine_searched>  (52) 
False

>  <enamine_id>  (52) 
nan

$$$$

     RDKit          3D

 66 71  0  0  0  0  0  0  0  0999 V2000
    6.5468    4.3219   21.3647 C   0  0  0  0  0  0  0  0  0  0  0  0
    7.5048    3.9223   22.3818 N   0  0  0  0  0  0  0  0  0  0  0  0
    7.0146    3.2854   23.4837 C   0  0  0  0  0  0  0  0  0  0  0  0
    5.8152    3.1121   23.6518 O   0  0  0  0  0  0  0  0  0  0  0  0
    8.0288    2.7961   24.5214 C   0  0  0  0  0  0  0  0  0  0  0  0
    8.6746    1.5769   24.0667 N   0  0  0  0  0  0  0  0  0  0  0  0
    7.9093    0.3410   23.9166 C   0  0  0  0  0  0  0  0  0  0  0  0
    8.3375   -0.4832   22.6664 C   0  0  2  0  0  0  0  0  0  0  0  0
    7.8883    0.2120   21.3639 C   0  0  0  0  0  0  0  0  0  0  0  0
    8.3757    1.1994   20.8494 O   0  0  0  0  0  0  0  0  0  0  0  0
    6.8342   -0.4935   20.8382 N   0  0  0  0  0  0  0  0  0  0  0  0
    6.0897    0.0484   19.7678 C   0  0  0  0  0  0  0  0  0  0  0  0
    6.4629   -0.2131   18.4773 C   0  0  0  0  0  0  0  0  0  0  0  0
    5.7935    0.2390   17.3925 N   0  0  0  0  0  0  0  0  0  0  0  0
    4.7433    0.9941   17.6039 C   0  0  0  0  0  0  0  0  0  0  0  0
    4.2718    1.3677   18.8942 C   0  0  0  0  0  0  0  0  0  0  0  0
    3.1542    2.2225   19.0747 C   0  0  0  0  0  0  0  0  0  0  0  0
    2.7614    2.5996   20.3294 C   0  0  0  0  0  0  0  0  0  0  0  0
    3.4641    2.1401   21.4663 C   0  0  0  0  0  0  0  0  0  0  0  0
    4.5437    1.3017   21.3200 C   0  0  0  0  0  0  0  0  0  0  0  0
    4.9698    0.8902   20.0252 C   0  0  0  0  0  0  0  0  0  0  0  0
    5.1119    0.9984   22.1953 H   0  0  0  0  0  0  0  0  0  0  0  0
    3.1761    2.4785   22.4570 H   0  0  0  0  0  0  0  0  0  0  0  0
    1.9165    3.2706   20.4556 H   0  0  0  0  0  0  0  0  0  0  0  0
    2.6481    2.5920   18.1877 H   0  0  0  0  0  0  0  0  0  0  0  0
    4.2134    1.3631   16.7260 H   0  0  0  0  0  0  0  0  0  0  0  0
    7.3451   -0.8208   18.2870 H   0  0  0  0  0  0  0  0  0  0  0  0
    6.4040   -1.6234   21.6317 C   0  0  0  0  0  0  0  0  0  0  0  0
    7.6024   -1.8502   22.5621 C   0  0  2  0  0  0  0  0  0  0  0  0
    7.2488   -2.4949   23.8941 C   0  0  0  0  0  0  0  0  0  0  0  0
    6.6965   -3.8084   23.6952 N   0  0  0  0  0  0  0  0  0  0  0  0
    6.2234   -4.5887   24.6935 C   0  0  0  0  0  0  0  0  0  0  0  0
    6.2667   -4.1869   26.0455 C   0  0  0  0  0  0  0  0  0  0  0  0
    5.7489   -5.0816   26.9547 C   0  0  0  0  0  0  0  0  0  0  0  0
    5.2288   -6.2670   26.6097 N   0  0  0  0  0  0  0  0  0  0  0  0
    5.2437   -6.5331   25.3082 C   0  0  0  0  0  0  0  0  0  0  0  0
    5.7085   -5.7728   24.3246 N   0  0  0  0  0  0  0  0  0  0  0  0
    4.8214   -7.4927   25.0108 H   0  0  0  0  0  0  0  0  0  0  0  0
    5.7437   -4.8431   28.0184 H   0  0  0  0  0  0  0  0  0  0  0  0
    6.6827   -3.2320   26.3621 H   0  0  0  0  0  0  0  0  0  0  0  0
    6.6166   -4.1887   22.7649 H   0  0  0  0  0  0  0  0  0  0  0  0
    8.1529   -2.5361   24.5201 H   0  0  0  0  0  0  0  0  0  0  0  0
    6.5248   -1.8572   24.4197 H   0  0  0  0  0  0  0  0  0  0  0  0
    8.2690   -2.5408   22.0424 H   0  0  0  0  0  0  0  0  0  0  0  0
    6.1944   -2.4865   20.9905 H   0  0  0  0  0  0  0  0  0  0  0  0
    5.4814   -1.4020   22.1883 H   0  0  0  0  0  0  0  0  0  0  0  0
    9.8450   -0.5700   22.6475 C   0  0  0  0  0  0  0  0  0  0  0  0
   10.4878   -1.4736   21.7952 C   0  0  0  0  0  0  0  0  0  0  0  0
   11.8578   -1.4390   21.6380 C   0  0  0  0  0  0  0  0  0  0  0  0
   12.5096   -2.4985   20.4103 Cl  0  0  0  0  0  0  0  0  0  0  0  0
   12.6405   -0.5427   22.3767 C   0  0  0  0  0  0  0  0  0  0  0  0
   12.0139    0.3506   23.2112 C   0  0  0  0  0  0  0  0  0  0  0  0
   10.6290    0.3920   23.2897 C   0  0  0  0  0  0  0  0  0  0  0  0
   10.0326    1.6012   23.9254 C   0  0  0  0  0  0  0  0  0  0  0  0
   10.7186    2.5610   24.2550 O   0  0  0  0  0  0  0  0  0  0  0  0
   12.5946    1.0713   23.7740 H   0  0  0  0  0  0  0  0  0  0  0  0
   13.7136   -0.4511   22.2759 H   0  0  0  0  0  0  0  0  0  0  0  0
    9.9460   -2.1775   21.1745 H   0  0  0  0  0  0  0  0  0  0  0  0
    8.0493   -0.2748   24.8176 H   0  0  0  0  0  0  0  0  0  0  0  0
    6.8485    0.5966   23.8349 H   0  0  0  0  0  0  0  0  0  0  0  0
    8.8345    3.5218   24.6791 H   0  0  0  0  0  0  0  0  0  0  0  0
    7.5192    2.6453   25.4838 H   0  0  0  0  0  0  0  0  0  0  0  0
    8.4304    3.6662   22.0599 H   0  0  0  0  0  0  0  0  0  0  0  0
    5.7709    4.9305   21.8325 H   0  0  0  0  0  0  0  0  0  0  0  0
    7.0373    4.9168   20.5942 H   0  0  0  0  0  0  0  0  0  0  0  0
    6.0669    3.4449   20.9129 H   0  0  0  0  0  0  0  0  0  0  0  0
  1  2  1  0
  2  3  1  0
  3  4  2  0
  3  5  1  0
  5  6  1  0
  6  7  1  0
  8  7  1  1
  8  9  1  0
  9 10  2  0
  9 11  1  0
 11 12  1  0
 12 13  2  0
 13 14  1  0
 14 15  2  0
 15 16  1  0
 16 17  2  0
 17 18  1  0
 18 19  2  0
 19 20  1  0
 20 21  2  0
 20 22  1  0
 19 23  1  0
 18 24  1  0
 17 25  1  0
 15 26  1  0
 13 27  1  0
 11 28  1  0
 28 29  1  0
 29 30  1  0
 30 31  1  0
 31 32  1  0
 32 33  2  0
 33 34  1  0
 34 35  2  0
 35 36  1  0
 36 37  2  0
 36 38  1  0
 34 39  1  0
 33 40  1  0
 31 41  1  0
 30 42  1  0
 30 43  1  0
 29 44  1  6
 28 45  1  0
 28 46  1  0
  8 47  1  0
 47 48  2  0
 48 49  1  0
 49 50  1  0
 49 51  2  0
 51 52  1  0
 52 53  2  0
 53 54  1  0
 54 55  2  0
 52 56  1  0
 51 57  1  0
 48 58  1  0
  7 59  1  0
  7 60  1  0
  5 61  1  0
  5 62  1  0
  2 63  1  0
  1 64  1  0
  1 65  1  0
  1 66  1  0
 54  6  1  0
 29  8  1  0
 37 32  1  0
 53 47  1  0
 21 12  1  0
 21 16  1  0
M  END
>  <cnnaffinities>  (53) 
[6.90624, 7.47299, 6.73933, 6.67829]

>  <score>  (53) 
6.90624

>  <index>  (53) 
52

>  <Smiles>  (53) 
C(N(C(=O)C(N1C([C@@]2(C(=O)N(c3c(nc(c4c(c(c(c(c34)[H])[H])[H])[H])[H])[H])C([C@@]2(C(N(c2c(c(nc(n2)[H])[H])[H])[H])([H])[H])[H])([H])[H])c2c(c(Cl)c(c(c2C1=O)[H])[H])[H])([H])[H])([H])[H])[H])([H])([H])[H]

>  <h>  (53) 
<NA>

>  <Training>  (53) 
True

>  <Success>  (53) 
True

>  <enamine_searched>  (53) 
False

>  <enamine_id>  (53) 
nan

$$$$

     RDKit          3D

 77 84  0  0  0  0  0  0  0  0999 V2000
    8.4079    3.0125   25.0927 O   0  0  0  0  0  0  0  0  0  0  0  0
    8.4448    1.9243   24.5235 C   0  0  0  0  0  0  0  0  0  0  0  0
    9.7011    1.4065   23.8951 C   0  0  0  0  0  0  0  0  0  0  0  0
   10.8515    2.1419   24.1391 C   0  0  0  0  0  0  0  0  0  0  0  0
   12.0765    1.5894   23.8663 C   0  0  0  0  0  0  0  0  0  0  0  0
   12.1329    0.3442   23.2505 C   0  0  0  0  0  0  0  0  0  0  0  0
   13.7233   -0.2808   22.9985 Cl  0  0  0  0  0  0  0  0  0  0  0  0
   10.9904   -0.3513   22.8820 C   0  0  0  0  0  0  0  0  0  0  0  0
    9.7306    0.1944   23.1823 C   0  0  0  0  0  0  0  0  0  0  0  0
    8.3695   -0.3746   22.7853 C   0  0  1  0  0  0  0  0  0  0  0  0
    7.4969   -0.2762   24.0675 C   0  0  0  0  0  0  0  0  0  0  0  0
    7.3623    1.1034   24.4787 N   0  0  0  0  0  0  0  0  0  0  0  0
    6.1132    1.5966   25.0209 C   0  0  0  0  0  0  0  0  0  0  0  0
    6.0536    1.6443   26.5407 C   0  0  0  0  0  0  0  0  0  0  0  0
    6.3581    0.3289   27.2145 N   0  0  0  0  0  4  0  0  0  0  0  0
    5.9851    0.2570   28.6972 C   0  0  0  0  0  0  0  0  0  0  0  0
    7.4456    0.0637   29.1496 C   0  0  0  0  0  0  0  0  0  0  0  0
    8.1292    1.0488   30.0907 C   0  0  0  0  0  0  0  0  0  0  0  0
    8.4352    0.0167   31.0321 O   0  0  0  0  0  0  0  0  0  0  0  0
    7.8005   -0.9766   30.2186 C   0  0  0  0  0  0  0  0  0  0  0  0
    6.9248   -1.4172   30.7176 H   0  0  0  0  0  0  0  0  0  0  0  0
    8.4803   -1.7875   29.9318 H   0  0  0  0  0  0  0  0  0  0  0  0
    7.4720    1.8209   30.5076 H   0  0  0  0  0  0  0  0  0  0  0  0
    9.0361    1.5246   29.6982 H   0  0  0  0  0  0  0  0  0  0  0  0
    7.8238    0.0461   27.6501 C   0  0  0  0  0  0  0  0  0  0  0  0
    8.4796    0.8429   27.3113 H   0  0  0  0  0  0  0  0  0  0  0  0
    8.1391   -0.9113   27.2453 H   0  0  0  0  0  0  0  0  0  0  0  0
    5.3328   -0.5945   28.8685 H   0  0  0  0  0  0  0  0  0  0  0  0
    5.5109    1.1785   29.0278 H   0  0  0  0  0  0  0  0  0  0  0  0
    5.9704   -0.4746   26.6774 H   0  0  0  0  0  0  0  0  0  0  0  0
    6.7633    2.3834   26.9108 H   0  0  0  0  0  0  0  0  0  0  0  0
    5.0526    1.9470   26.8486 H   0  0  0  0  0  0  0  0  0  0  0  0
    5.3099    0.9573   24.6325 H   0  0  0  0  0  0  0  0  0  0  0  0
    5.9584    2.6111   24.6370 H   0  0  0  0  0  0  0  0  0  0  0  0
    7.9862   -0.8550   24.8667 H   0  0  0  0  0  0  0  0  0  0  0  0
    6.4931   -0.6760   23.8848 H   0  0  0  0  0  0  0  0  0  0  0  0
    7.6987    0.4829   21.6694 C   0  0  0  0  0  0  0  0  0  0  0  0
    7.7797    1.6741   21.5018 O   0  0  0  0  0  0  0  0  0  0  0  0
    6.9607   -0.3658   20.8635 N   0  0  0  0  0  0  0  0  0  0  0  0
    6.1458    0.1020   19.8066 C   0  0  0  0  0  0  0  0  0  0  0  0
    6.4508   -0.2417   18.5131 C   0  0  0  0  0  0  0  0  0  0  0  0
    5.7753    0.1901   17.4243 N   0  0  0  0  0  0  0  0  0  0  0  0
    4.7527    0.9830   17.6265 C   0  0  0  0  0  0  0  0  0  0  0  0
    4.2984    1.3806   18.9129 C   0  0  0  0  0  0  0  0  0  0  0  0
    3.1721    2.2280   19.0676 C   0  0  0  0  0  0  0  0  0  0  0  0
    2.7349    2.5825   20.3117 C   0  0  0  0  0  0  0  0  0  0  0  0
    3.4008    2.0955   21.4603 C   0  0  0  0  0  0  0  0  0  0  0  0
    4.4977    1.2814   21.3366 C   0  0  0  0  0  0  0  0  0  0  0  0
    4.9932    0.9180   20.0512 C   0  0  0  0  0  0  0  0  0  0  0  0
    5.0076    0.9217   22.2281 H   0  0  0  0  0  0  0  0  0  0  0  0
    3.0440    2.3784   22.4451 H   0  0  0  0  0  0  0  0  0  0  0  0
    1.8782    3.2401   20.4246 H   0  0  0  0  0  0  0  0  0  0  0  0
    2.6824    2.5976   18.1708 H   0  0  0  0  0  0  0  0  0  0  0  0
    4.2284    1.3487   16.7447 H   0  0  0  0  0  0  0  0  0  0  0  0
    7.3069   -0.8867   18.3185 H   0  0  0  0  0  0  0  0  0  0  0  0
    7.0367   -1.7574   21.2560 C   0  0  0  0  0  0  0  0  0  0  0  0
    8.3001   -1.7851   22.1392 C   0  0  2  0  0  0  0  0  0  0  0  0
    8.4034   -3.0081   23.0690 C   0  0  0  0  0  0  0  0  0  0  0  0
    7.2314   -3.2344   23.9077 N   0  0  0  0  0  0  0  0  0  0  0  0
    7.2597   -3.4546   25.2636 C   0  0  0  0  0  0  0  0  0  0  0  0
    6.0651   -3.5163   25.8803 N   0  0  0  0  0  0  0  0  0  0  0  0
    6.0977   -3.7459   27.1971 C   0  0  0  0  0  0  0  0  0  0  0  0
    7.2781   -3.8915   27.9057 C   0  0  0  0  0  0  0  0  0  0  0  0
    8.4442   -3.7894   27.1692 C   0  0  0  0  0  0  0  0  0  0  0  0
    8.4583   -3.5441   25.8586 N   0  0  0  0  0  0  0  0  0  0  0  0
    9.4229   -3.8937   27.6395 H   0  0  0  0  0  0  0  0  0  0  0  0
    7.3040   -4.0696   28.9744 H   0  0  0  0  0  0  0  0  0  0  0  0
    5.1311   -3.8304   27.6974 H   0  0  0  0  0  0  0  0  0  0  0  0
    6.3335   -3.4112   23.4864 H   0  0  0  0  0  0  0  0  0  0  0  0
    9.2525   -2.8772   23.7489 H   0  0  0  0  0  0  0  0  0  0  0  0
    8.5774   -3.9006   22.4500 H   0  0  0  0  0  0  0  0  0  0  0  0
    9.1377   -1.8404   21.4299 H   0  0  0  0  0  0  0  0  0  0  0  0
    6.1234   -2.0715   21.7865 H   0  0  0  0  0  0  0  0  0  0  0  0
    7.1282   -2.3803   20.3686 H   0  0  0  0  0  0  0  0  0  0  0  0
   11.0810   -1.3120   22.3836 H   0  0  0  0  0  0  0  0  0  0  0  0
   12.9833    2.0804   24.1768 H   0  0  0  0  0  0  0  0  0  0  0  0
   10.7508    3.1297   24.5708 H   0  0  0  0  0  0  0  0  0  0  0  0
  1  2  2  0
  2  3  1  0
  3  4  2  0
  4  5  1  0
  5  6  2  0
  6  7  1  0
  6  8  1  0
  8  9  2  0
  9 10  1  0
 10 11  1  1
 11 12  1  0
 12 13  1  0
 13 14  1  0
 14 15  1  0
 15 16  1  0
 16 17  1  0
 17 18  1  0
 18 19  1  0
 19 20  1  0
 20 21  1  0
 20 22  1  0
 18 23  1  0
 18 24  1  0
 17 25  1  0
 25 26  1  0
 25 27  1  0
 16 28  1  0
 16 29  1  0
 15 30  1  0
 14 31  1  0
 14 32  1  0
 13 33  1  0
 13 34  1  0
 11 35  1  0
 11 36  1  0
 10 37  1  0
 37 38  2  0
 37 39  1  0
 39 40  1  0
 40 41  2  0
 41 42  1  0
 42 43  2  0
 43 44  1  0
 44 45  2  0
 45 46  1  0
 46 47  2  0
 47 48  1  0
 48 49  2  0
 48 50  1  0
 47 51  1  0
 46 52  1  0
 45 53  1  0
 43 54  1  0
 41 55  1  0
 39 56  1  0
 56 57  1  0
 57 58  1  0
 58 59  1  0
 59 60  1  0
 60 61  2  0
 61 62  1  0
 62 63  2  0
 63 64  1  0
 64 65  2  0
 64 66  1  0
 63 67  1  0
 62 68  1  0
 59 69  1  0
 58 70  1  0
 58 71  1  0
 57 72  1  6
 56 73  1  0
 56 74  1  0
  8 75  1  0
  5 76  1  0
  4 77  1  0
 12  2  1  0
 25 15  1  0
 49 40  1  0
 65 60  1  0
  9  3  1  0
 57 10  1  0
 20 17  1  0
 49 44  1  0
M  CHG  1  15   1
M  END
>  <cnnaffinities>  (54) 
[6.61804, 6.34095]

>  <score>  (54) 
6.61804

>  <index>  (54) 
53

>  <Smiles>  (54) 
O=C1c2c(c(c(Cl)c(c2[C@@]2(C(N1C(C([N+]1(C(C3(C(OC3([H])[H])([H])[H])C1([H])[H])([H])[H])[H])([H])[H])([H])[H])([H])[H])C(=O)N(c1c(nc(c3c(c(c(c(c13)[H])[H])[H])[H])[H])[H])C([C@@]2(C(N(c1nc(c(c(n1)[H])[H])[H])[H])([H])[H])[H])([H])[H])[H])[H])[H]

>  <h>  (54) 
<NA>

>  <Training>  (54) 
True

>  <Success>  (54) 
True

>  <enamine_searched>  (54) 
False

>  <enamine_id>  (54) 
nan

$$$$

     RDKit          3D

 66 71  0  0  0  0  0  0  0  0999 V2000
    6.8285    3.9682   21.2464 C   0  0  0  0  0  0  0  0  0  0  0  0
    7.6041    3.9013   22.4658 N   0  0  0  0  0  0  0  0  0  0  0  0
    7.0176    3.2902   23.5335 C   0  0  0  0  0  0  0  0  0  0  0  0
    5.8093    3.1310   23.6423 O   0  0  0  0  0  0  0  0  0  0  0  0
    8.0235    2.7681   24.5496 C   0  0  0  0  0  0  0  0  0  0  0  0
    8.7024    1.6035   23.9989 N   0  0  0  0  0  0  0  0  0  0  0  0
    7.9698    0.3515   23.8656 C   0  0  0  0  0  0  0  0  0  0  0  0
    8.3895   -0.4651   22.6152 C   0  0  2  0  0  0  0  0  0  0  0  0
    7.9335    0.2408   21.3221 C   0  0  0  0  0  0  0  0  0  0  0  0
    8.4172    1.2419   20.8275 O   0  0  0  0  0  0  0  0  0  0  0  0
    6.8757   -0.4585   20.7916 N   0  0  0  0  0  0  0  0  0  0  0  0
    6.1136    0.0843   19.7300 C   0  0  0  0  0  0  0  0  0  0  0  0
    6.4562   -0.1983   18.4338 C   0  0  0  0  0  0  0  0  0  0  0  0
    5.7704    0.2526   17.3589 N   0  0  0  0  0  0  0  0  0  0  0  0
    4.7343    1.0247   17.5780 C   0  0  0  0  0  0  0  0  0  0  0  0
    4.2803    1.4057   18.8740 C   0  0  0  0  0  0  0  0  0  0  0  0
    3.1616    2.2598   19.0695 C   0  0  0  0  0  0  0  0  0  0  0  0
    2.7836    2.6375   20.3295 C   0  0  0  0  0  0  0  0  0  0  0  0
    3.4992    2.1748   21.4554 C   0  0  0  0  0  0  0  0  0  0  0  0
    4.5795    1.3412   21.2916 C   0  0  0  0  0  0  0  0  0  0  0  0
    4.9931    0.9263   19.9942 C   0  0  0  0  0  0  0  0  0  0  0  0
    5.1476    1.0272   22.1616 H   0  0  0  0  0  0  0  0  0  0  0  0
    3.2310    2.5111   22.4539 H   0  0  0  0  0  0  0  0  0  0  0  0
    1.9394    3.3089   20.4665 H   0  0  0  0  0  0  0  0  0  0  0  0
    2.6477    2.6361   18.1900 H   0  0  0  0  0  0  0  0  0  0  0  0
    4.1957    1.3941   16.7052 H   0  0  0  0  0  0  0  0  0  0  0  0
    7.3228   -0.8252   18.2301 H   0  0  0  0  0  0  0  0  0  0  0  0
    6.4159   -1.5502   21.6256 C   0  0  0  0  0  0  0  0  0  0  0  0
    7.6514   -1.8287   22.4845 C   0  0  2  0  0  0  0  0  0  0  0  0
    7.4282   -2.6528   23.7593 C   0  0  0  0  0  0  0  0  0  0  0  0
    6.3033   -2.2813   24.5890 N   0  0  0  0  0  0  0  0  0  0  0  0
    5.0264   -2.7588   24.4678 C   0  0  0  0  0  0  0  0  0  0  0  0
    4.6558   -3.6697   23.4509 C   0  0  0  0  0  0  0  0  0  0  0  0
    3.4179   -4.1231   23.3328 N   0  0  0  0  0  0  0  0  0  0  0  0
    2.5261   -3.6792   24.2230 C   0  0  0  0  0  0  0  0  0  0  0  0
    2.8851   -2.7831   25.2177 C   0  0  0  0  0  0  0  0  0  0  0  0
    4.1269   -2.3177   25.3498 N   0  0  0  0  0  0  0  0  0  0  0  0
    2.1505   -2.4180   25.9364 H   0  0  0  0  0  0  0  0  0  0  0  0
    1.5070   -4.0479   24.1325 H   0  0  0  0  0  0  0  0  0  0  0  0
    5.3881   -4.0132   22.7196 H   0  0  0  0  0  0  0  0  0  0  0  0
    6.4282   -1.6034   25.3268 H   0  0  0  0  0  0  0  0  0  0  0  0
    7.3135   -3.7096   23.4937 H   0  0  0  0  0  0  0  0  0  0  0  0
    8.3376   -2.5922   24.3692 H   0  0  0  0  0  0  0  0  0  0  0  0
    8.3018   -2.4365   21.8545 H   0  0  0  0  0  0  0  0  0  0  0  0
    5.5438   -1.2523   22.2216 H   0  0  0  0  0  0  0  0  0  0  0  0
    6.1180   -2.4093   21.0133 H   0  0  0  0  0  0  0  0  0  0  0  0
    9.8949   -0.5485   22.6020 C   0  0  0  0  0  0  0  0  0  0  0  0
   10.5412   -1.5045   21.8146 C   0  0  0  0  0  0  0  0  0  0  0  0
   11.9089   -1.4773   21.6584 C   0  0  0  0  0  0  0  0  0  0  0  0
   12.5307   -2.6294   20.4968 Cl  0  0  0  0  0  0  0  0  0  0  0  0
   12.6849   -0.5384   22.3525 C   0  0  0  0  0  0  0  0  0  0  0  0
   12.0544    0.4112   23.1223 C   0  0  0  0  0  0  0  0  0  0  0  0
   10.6699    0.4479   23.2031 C   0  0  0  0  0  0  0  0  0  0  0  0
   10.0587    1.6461   23.8579 C   0  0  0  0  0  0  0  0  0  0  0  0
   10.7335    2.6037   24.2112 O   0  0  0  0  0  0  0  0  0  0  0  0
   12.6295    1.1715   23.6383 H   0  0  0  0  0  0  0  0  0  0  0  0
   13.7614   -0.4519   22.2850 H   0  0  0  0  0  0  0  0  0  0  0  0
   10.0096   -2.2688   21.2602 H   0  0  0  0  0  0  0  0  0  0  0  0
    6.9063    0.5907   23.8077 H   0  0  0  0  0  0  0  0  0  0  0  0
    8.1624   -0.2555   24.7594 H   0  0  0  0  0  0  0  0  0  0  0  0
    7.4974    2.5385   25.4809 H   0  0  0  0  0  0  0  0  0  0  0  0
    8.8022    3.5148   24.7331 H   0  0  0  0  0  0  0  0  0  0  0  0
    8.6033    3.7918   22.3523 H   0  0  0  0  0  0  0  0  0  0  0  0
    5.7863    3.9707   21.5730 H   0  0  0  0  0  0  0  0  0  0  0  0
    7.0767    4.8606   20.6697 H   0  0  0  0  0  0  0  0  0  0  0  0
    7.0253    3.0804   20.6336 H   0  0  0  0  0  0  0  0  0  0  0  0
  1  2  1  0
  2  3  1  0
  3  4  2  0
  3  5  1  0
  5  6  1  0
  6  7  1  0
  8  7  1  1
  8  9  1  0
  9 10  2  0
  9 11  1  0
 11 12  1  0
 12 13  2  0
 13 14  1  0
 14 15  2  0
 15 16  1  0
 16 17  2  0
 17 18  1  0
 18 19  2  0
 19 20  1  0
 20 21  2  0
 20 22  1  0
 19 23  1  0
 18 24  1  0
 17 25  1  0
 15 26  1  0
 13 27  1  0
 11 28  1  0
 28 29  1  0
 29 30  1  0
 30 31  1  0
 31 32  1  0
 32 33  2  0
 33 34  1  0
 34 35  2  0
 35 36  1  0
 36 37  2  0
 36 38  1  0
 35 39  1  0
 33 40  1  0
 31 41  1  0
 30 42  1  0
 30 43  1  0
 29 44  1  6
 28 45  1  0
 28 46  1  0
  8 47  1  0
 47 48  2  0
 48 49  1  0
 49 50  1  0
 49 51  2  0
 51 52  1  0
 52 53  2  0
 53 54  1  0
 54 55  2  0
 52 56  1  0
 51 57  1  0
 48 58  1  0
  7 59  1  0
  7 60  1  0
  5 61  1  0
  5 62  1  0
  2 63  1  0
  1 64  1  0
  1 65  1  0
  1 66  1  0
 54  6  1  0
 29  8  1  0
 37 32  1  0
 53 47  1  0
 21 12  1  0
 21 16  1  0
M  END
>  <cnnaffinities>  (55) 
[6.10915, 7.47051, 6.82227, 6.21759]

>  <score>  (55) 
6.10915

>  <index>  (55) 
54

>  <Smiles>  (55) 
C(N(C(=O)C(N1C([C@@]2(C(=O)N(c3c(nc(c4c(c(c(c(c34)[H])[H])[H])[H])[H])[H])C([C@@]2(C(N(c2c(nc(c(n2)[H])[H])[H])[H])([H])[H])[H])([H])[H])c2c(c(Cl)c(c(c2C1=O)[H])[H])[H])([H])[H])([H])[H])[H])([H])([H])[H]

>  <h>  (55) 
<NA>

>  <Training>  (55) 
True

>  <Success>  (55) 
True

>  <enamine_searched>  (55) 
False

>  <enamine_id>  (55) 
nan

$$$$

     RDKit          3D

 56 61  0  0  0  0  0  0  0  0999 V2000
   12.1399    2.3242   22.4145 C   0  0  0  0  0  0  0  0  0  0  0  0
   12.1968    0.9205   22.7545 N   0  0  0  0  0  0  0  0  0  0  0  0
   12.8137    0.4028   23.8335 C   0  0  0  0  0  0  0  0  0  0  0  0
   12.7739   -0.9627   23.7160 C   0  0  0  0  0  0  0  0  0  0  0  0
   12.1341   -1.1773   22.4833 C   0  0  0  0  0  0  0  0  0  0  0  0
   11.8189   -2.4932   21.8549 C   0  0  0  0  0  0  0  0  0  0  0  0
   10.4570   -2.8925   22.1632 N   0  0  0  0  0  0  0  0  0  0  0  0
    9.3655   -2.5723   21.2660 C   0  0  0  0  0  0  0  0  0  0  0  0
    8.1798   -1.9179   22.0135 C   0  0  1  0  0  0  0  0  0  0  0  0
    8.5251   -0.4878   22.4971 C   0  0  0  0  0  0  0  0  0  0  0  0
    7.9141    0.4729   21.4745 C   0  0  0  0  0  0  0  0  0  0  0  0
    6.9107   -0.3503   20.8213 N   0  0  0  0  0  0  0  0  0  0  0  0
    6.1133    0.1058   19.7540 C   0  0  0  0  0  0  0  0  0  0  0  0
    6.4310   -0.2353   18.4653 C   0  0  0  0  0  0  0  0  0  0  0  0
    5.7643    0.2227   17.3796 N   0  0  0  0  0  0  0  0  0  0  0  0
    4.7464    1.0183   17.5922 C   0  0  0  0  0  0  0  0  0  0  0  0
    4.2904    1.4081   18.8848 C   0  0  0  0  0  0  0  0  0  0  0  0
    3.1655    2.2484   19.0674 C   0  0  0  0  0  0  0  0  0  0  0  0
    2.7573    2.5944   20.3242 C   0  0  0  0  0  0  0  0  0  0  0  0
    3.4423    2.1120   21.4622 C   0  0  0  0  0  0  0  0  0  0  0  0
    4.5373    1.2967   21.3162 C   0  0  0  0  0  0  0  0  0  0  0  0
    4.9893    0.9399   20.0156 C   0  0  0  0  0  0  0  0  0  0  0  0
    5.0582    0.9172   22.1910 H   0  0  0  0  0  0  0  0  0  0  0  0
    3.1037    2.3960   22.4544 H   0  0  0  0  0  0  0  0  0  0  0  0
    1.9058    3.2551   20.4552 H   0  0  0  0  0  0  0  0  0  0  0  0
    2.6598    2.6219   18.1820 H   0  0  0  0  0  0  0  0  0  0  0  0
    4.2180    1.3943   16.7159 H   0  0  0  0  0  0  0  0  0  0  0  0
    7.2698   -0.9016   18.2706 H   0  0  0  0  0  0  0  0  0  0  0  0
    7.0021   -1.6954   21.0785 C   0  0  0  0  0  0  0  0  0  0  0  0
    6.2279   -2.5265   20.6519 O   0  0  0  0  0  0  0  0  0  0  0  0
    8.6520    0.8360   20.7446 H   0  0  0  0  0  0  0  0  0  0  0  0
    7.4547    1.3463   21.9522 H   0  0  0  0  0  0  0  0  0  0  0  0
    9.6045   -0.3636   22.5672 H   0  0  0  0  0  0  0  0  0  0  0  0
    8.0952   -0.3380   23.4911 H   0  0  0  0  0  0  0  0  0  0  0  0
    7.8078   -2.8164   23.1435 C   0  0  0  0  0  0  0  0  0  0  0  0
    6.5187   -2.8307   23.6635 C   0  0  0  0  0  0  0  0  0  0  0  0
    6.2473   -3.5809   24.7905 C   0  0  0  0  0  0  0  0  0  0  0  0
    4.6527   -3.5859   25.4613 Cl  0  0  0  0  0  0  0  0  0  0  0  0
    7.2334   -4.3431   25.4103 C   0  0  0  0  0  0  0  0  0  0  0  0
    8.4990   -4.3424   24.8640 C   0  0  0  0  0  0  0  0  0  0  0  0
    8.8035   -3.5525   23.7734 C   0  0  0  0  0  0  0  0  0  0  0  0
   10.2373   -3.4494   23.3844 C   0  0  0  0  0  0  0  0  0  0  0  0
   11.1423   -3.8145   24.1278 O   0  0  0  0  0  0  0  0  0  0  0  0
    9.3240   -4.9346   25.2182 H   0  0  0  0  0  0  0  0  0  0  0  0
    6.9930   -4.8805   26.3210 H   0  0  0  0  0  0  0  0  0  0  0  0
    5.7295   -2.2640   23.1905 H   0  0  0  0  0  0  0  0  0  0  0  0
    9.7293   -1.8774   20.5099 H   0  0  0  0  0  0  0  0  0  0  0  0
    9.0316   -3.5059   20.8142 H   0  0  0  0  0  0  0  0  0  0  0  0
   11.9197   -2.4232   20.7698 H   0  0  0  0  0  0  0  0  0  0  0  0
   12.4788   -3.2758   22.2434 H   0  0  0  0  0  0  0  0  0  0  0  0
   11.7739   -0.0329   21.9114 N   0  0  0  0  0  0  0  0  0  0  0  0
   13.1520   -1.7125   24.3979 H   0  0  0  0  0  0  0  0  0  0  0  0
   13.2651    1.0587   24.5570 H   0  0  0  0  0  0  0  0  0  0  0  0
   13.1519    2.7407   22.4351 H   0  0  0  0  0  0  0  0  0  0  0  0
   11.7571    2.4092   21.4024 H   0  0  0  0  0  0  0  0  0  0  0  0
   11.4832    2.8578   23.1098 H   0  0  0  0  0  0  0  0  0  0  0  0
  1  2  1  0
  2  3  1  0
  3  4  2  0
  4  5  1  0
  5  6  1  0
  6  7  1  0
  7  8  1  0
  9  8  1  6
  9 10  1  0
 10 11  1  0
 11 12  1  0
 12 13  1  0
 13 14  2  0
 14 15  1  0
 15 16  2  0
 16 17  1  0
 17 18  2  0
 18 19  1  0
 19 20  2  0
 20 21  1  0
 21 22  2  0
 21 23  1  0
 20 24  1  0
 19 25  1  0
 18 26  1  0
 16 27  1  0
 14 28  1  0
 12 29  1  0
 29 30  2  0
 11 31  1  0
 11 32  1  0
 10 33  1  0
 10 34  1  0
  9 35  1  0
 35 36  2  0
 36 37  1  0
 37 38  1  0
 37 39  2  0
 39 40  1  0
 40 41  2  0
 41 42  1  0
 42 43  2  0
 40 44  1  0
 39 45  1  0
 36 46  1  0
  8 47  1  0
  8 48  1  0
  6 49  1  0
  6 50  1  0
  5 51  2  0
  4 52  1  0
  3 53  1  0
  1 54  1  0
  1 55  1  0
  1 56  1  0
 51  2  1  0
 42  7  1  0
 29  9  1  0
 41 35  1  0
 22 13  1  0
 22 17  1  0
M  END
>  <cnnaffinities>  (56) 
[6.86383]

>  <score>  (56) 
6.86383

>  <index>  (56) 
55

>  <Smiles>  (56) 
C(n1c(c(c(C(N2C([C@]3(C(C(N(c4c(nc(c5c(c(c(c(c45)[H])[H])[H])[H])[H])[H])C3=O)([H])[H])([H])[H])c3c(c(Cl)c(c(c3C2=O)[H])[H])[H])([H])[H])([H])[H])n1)[H])[H])([H])([H])[H]

>  <h>  (56) 
<NA>

>  <Training>  (56) 
True

>  <Success>  (56) 
True

>  <enamine_searched>  (56) 
False

>  <enamine_id>  (56) 
nan

$$$$

     RDKit          3D

 41 43  0  0  0  0  0  0  0  0999 V2000
    8.3905    1.4747   20.6699 O   0  0  0  0  0  0  0  0  0  0  0  0
    7.9657    0.6263   21.4264 C   0  0  0  0  0  0  0  0  0  0  0  0
    6.9667   -0.4305   20.9092 C   0  0  0  0  0  0  0  0  0  0  0  0
    6.1118    0.0847   19.7713 C   0  0  0  0  0  0  0  0  0  0  0  0
    6.4258   -0.2075   18.4663 C   0  0  0  0  0  0  0  0  0  0  0  0
    5.7576    0.2411   17.3715 N   0  0  0  0  0  0  0  0  0  0  0  0
    4.7316    1.0303   17.5773 C   0  0  0  0  0  0  0  0  0  0  0  0
    4.2849    1.4220   18.8690 C   0  0  0  0  0  0  0  0  0  0  0  0
    3.1660    2.2749   19.0444 C   0  0  0  0  0  0  0  0  0  0  0  0
    2.7650    2.6468   20.3005 C   0  0  0  0  0  0  0  0  0  0  0  0
    3.4642    2.1690   21.4308 C   0  0  0  0  0  0  0  0  0  0  0  0
    4.5510    1.3366   21.2889 C   0  0  0  0  0  0  0  0  0  0  0  0
    4.9917    0.9395   19.9986 C   0  0  0  0  0  0  0  0  0  0  0  0
    5.0758    0.9844   22.1728 H   0  0  0  0  0  0  0  0  0  0  0  0
    3.1355    2.4672   22.4211 H   0  0  0  0  0  0  0  0  0  0  0  0
    1.9167    3.3122   20.4339 H   0  0  0  0  0  0  0  0  0  0  0  0
    2.6488    2.6502   18.1645 H   0  0  0  0  0  0  0  0  0  0  0  0
    4.1989    1.3989   16.6989 H   0  0  0  0  0  0  0  0  0  0  0  0
    7.2735   -0.8527   18.2428 H   0  0  0  0  0  0  0  0  0  0  0  0
    6.3331   -0.8097   21.7225 H   0  0  0  0  0  0  0  0  0  0  0  0
    7.5525   -1.2858   20.5416 H   0  0  0  0  0  0  0  0  0  0  0  0
    8.3502    0.5371   22.7723 N   0  0  0  0  0  0  0  0  0  0  0  0
    8.7803   -0.7583   23.3040 C   0  0  0  0  0  0  0  0  0  0  0  0
   10.0262   -1.3663   22.6259 C   0  0  0  0  0  0  0  0  0  0  0  0
   11.0890   -0.3441   22.2221 C   0  0  0  0  0  0  0  0  0  0  0  0
   11.5105    0.8828   23.4914 S   0  0  0  0  0  0  0  0  0  0  0  0
   10.2802    2.1497   23.0879 C   0  0  0  0  0  0  0  0  0  0  0  0
    8.8605    1.7246   23.4591 C   0  0  1  0  0  0  0  0  0  0  0  0
    7.8734    2.8895   23.3741 C   0  0  0  0  0  0  0  0  0  0  0  0
    8.1695    3.8153   24.3159 F   0  0  0  0  0  0  0  0  0  0  0  0
    6.6212    2.4723   23.6218 F   0  0  0  0  0  0  0  0  0  0  0  0
    7.8742    3.5137   22.1970 F   0  0  0  0  0  0  0  0  0  0  0  0
    8.8742    1.4774   24.5236 H   0  0  0  0  0  0  0  0  0  0  0  0
   10.5736    3.0527   23.6393 H   0  0  0  0  0  0  0  0  0  0  0  0
   10.3425    2.3622   22.0214 H   0  0  0  0  0  0  0  0  0  0  0  0
   10.7620    0.2170   21.3449 H   0  0  0  0  0  0  0  0  0  0  0  0
   12.0193   -0.8557   21.9519 H   0  0  0  0  0  0  0  0  0  0  0  0
   10.4785   -2.1014   23.3031 H   0  0  0  0  0  0  0  0  0  0  0  0
    9.7283   -1.9223   21.7250 H   0  0  0  0  0  0  0  0  0  0  0  0
    7.9457   -1.4603   23.2320 H   0  0  0  0  0  0  0  0  0  0  0  0
    8.9816   -0.6302   24.3710 H   0  0  0  0  0  0  0  0  0  0  0  0
  1  2  2  0
  2  3  1  0
  3  4  1  0
  4  5  2  0
  5  6  1  0
  6  7  2  0
  7  8  1  0
  8  9  2  0
  9 10  1  0
 10 11  2  0
 11 12  1  0
 12 13  2  0
 12 14  1  0
 11 15  1  0
 10 16  1  0
  9 17  1  0
  7 18  1  0
  5 19  1  0
  3 20  1  0
  3 21  1  0
  2 22  1  0
 22 23  1  0
 23 24  1  0
 24 25  1  0
 25 26  1  0
 26 27  1  0
 27 28  1  0
 28 29  1  0
 29 30  1  0
 29 31  1  0
 29 32  1  0
 28 33  1  1
 27 34  1  0
 27 35  1  0
 25 36  1  0
 25 37  1  0
 24 38  1  0
 24 39  1  0
 23 40  1  0
 23 41  1  0
 13  4  1  0
 28 22  1  0
 13  8  1  0
M  END
>  <cnnaffinities>  (57) 
[5.7907, 6.00166, 5.78329, 6.00071, 6.00174]

>  <score>  (57) 
5.7907

>  <index>  (57) 
56

>  <Smiles>  (57) 
O=C(C(c1c(nc(c2c(c(c(c(c12)[H])[H])[H])[H])[H])[H])([H])[H])N1C(C(C(SC([C@]1(C(F)(F)F)[H])([H])[H])([H])[H])([H])[H])([H])[H]

>  <h>  (57) 
<NA>

>  <Training>  (57) 
True

>  <Success>  (57) 
True

>  <enamine_searched>  (57) 
False

>  <enamine_id>  (57) 
nan

$$$$

     RDKit          3D

 67 72  0  0  0  0  0  0  0  0999 V2000
    6.6485    4.3565   21.2735 C   0  0  0  0  0  0  0  0  0  0  0  0
    7.6147    3.9884   22.2881 N   0  0  0  0  0  0  0  0  0  0  0  0
    7.1142    3.3530   23.3823 C   0  0  0  0  0  0  0  0  0  0  0  0
    5.9117    3.1914   23.5433 O   0  0  0  0  0  0  0  0  0  0  0  0
    8.0750    2.8315   24.4454 C   0  0  0  0  0  0  0  0  0  0  0  0
    8.7534    1.6369   23.9858 N   0  0  0  0  0  0  0  0  0  0  0  0
    8.0164    0.3851   23.8709 C   0  0  0  0  0  0  0  0  0  0  0  0
    8.4348   -0.4201   22.6131 C   0  0  2  0  0  0  0  0  0  0  0  0
    7.9503    0.2708   21.3196 C   0  0  0  0  0  0  0  0  0  0  0  0
    8.4162    1.2590   20.7940 O   0  0  0  0  0  0  0  0  0  0  0  0
    6.8758   -0.4368   20.8349 N   0  0  0  0  0  0  0  0  0  0  0  0
    6.1068    0.0788   19.7684 C   0  0  0  0  0  0  0  0  0  0  0  0
    6.4558   -0.2120   18.4762 C   0  0  0  0  0  0  0  0  0  0  0  0
    5.7824    0.2322   17.3906 N   0  0  0  0  0  0  0  0  0  0  0  0
    4.7462    1.0070   17.5978 C   0  0  0  0  0  0  0  0  0  0  0  0
    4.2870    1.3971   18.8886 C   0  0  0  0  0  0  0  0  0  0  0  0
    3.1676    2.2495   19.0680 C   0  0  0  0  0  0  0  0  0  0  0  0
    2.7706    2.6248   20.3218 C   0  0  0  0  0  0  0  0  0  0  0  0
    3.4687    2.1646   21.4607 C   0  0  0  0  0  0  0  0  0  0  0  0
    4.5512    1.3307   21.3150 C   0  0  0  0  0  0  0  0  0  0  0  0
    4.9859    0.9222   20.0219 C   0  0  0  0  0  0  0  0  0  0  0  0
    5.1053    1.0196   22.1963 H   0  0  0  0  0  0  0  0  0  0  0  0
    3.1641    2.4873   22.4514 H   0  0  0  0  0  0  0  0  0  0  0  0
    1.9197    3.2862   20.4460 H   0  0  0  0  0  0  0  0  0  0  0  0
    2.6552    2.6147   18.1825 H   0  0  0  0  0  0  0  0  0  0  0  0
    4.2059    1.3659   16.7205 H   0  0  0  0  0  0  0  0  0  0  0  0
    7.3248   -0.8385   18.2889 H   0  0  0  0  0  0  0  0  0  0  0  0
    6.4955   -1.5823   21.6288 C   0  0  0  0  0  0  0  0  0  0  0  0
    7.7275   -1.8037   22.5121 C   0  0  2  0  0  0  0  0  0  0  0  0
    7.3969   -2.5263   23.8201 C   0  0  0  0  0  0  0  0  0  0  0  0
    6.9060   -3.8636   23.5872 N   0  0  0  0  0  0  0  0  0  0  0  0
    5.5804   -4.1705   23.4624 C   0  0  0  0  0  0  0  0  0  0  0  0
    4.4756   -3.4288   23.7712 C   0  0  0  0  0  0  0  0  0  0  0  0
    3.2567   -4.0325   23.5674 N   0  0  0  0  0  0  0  0  0  0  0  0
    3.4016   -5.2384   23.1128 C   0  0  0  0  0  0  0  0  0  0  0  0
    2.2664   -6.1487   22.7889 C   0  0  0  0  0  0  0  0  0  0  0  0
    2.0124   -6.0838   21.7278 H   0  0  0  0  0  0  0  0  0  0  0  0
    2.5082   -7.1900   23.0046 H   0  0  0  0  0  0  0  0  0  0  0  0
    1.3893   -5.8482   23.3632 H   0  0  0  0  0  0  0  0  0  0  0  0
    5.0623   -5.7413   22.8888 S   0  0  0  0  0  0  0  0  0  0  0  0
    4.4912   -2.4185   24.1630 H   0  0  0  0  0  0  0  0  0  0  0  0
    7.5686   -4.5907   23.3717 H   0  0  0  0  0  0  0  0  0  0  0  0
    8.2929   -2.5864   24.4473 H   0  0  0  0  0  0  0  0  0  0  0  0
    6.6322   -1.9718   24.3747 H   0  0  0  0  0  0  0  0  0  0  0  0
    8.4017   -2.4637   21.9597 H   0  0  0  0  0  0  0  0  0  0  0  0
    5.5905   -1.3953   22.2303 H   0  0  0  0  0  0  0  0  0  0  0  0
    6.2817   -2.4486   20.9967 H   0  0  0  0  0  0  0  0  0  0  0  0
    9.9404   -0.4731   22.5786 C   0  0  0  0  0  0  0  0  0  0  0  0
   10.5643   -1.3835   21.7288 C   0  0  0  0  0  0  0  0  0  0  0  0
   11.9349   -1.3859   21.6115 C   0  0  0  0  0  0  0  0  0  0  0  0
   12.5602   -2.4737   20.3946 Cl  0  0  0  0  0  0  0  0  0  0  0  0
   12.7204   -0.5079   22.3755 C   0  0  0  0  0  0  0  0  0  0  0  0
   12.1080    0.4241   23.1774 C   0  0  0  0  0  0  0  0  0  0  0  0
   10.7249    0.4826   23.2278 C   0  0  0  0  0  0  0  0  0  0  0  0
   10.1131    1.6687   23.8866 C   0  0  0  0  0  0  0  0  0  0  0  0
   10.7814    2.6186   24.2779 O   0  0  0  0  0  0  0  0  0  0  0  0
   12.6809    1.1624   23.7288 H   0  0  0  0  0  0  0  0  0  0  0  0
   13.7953   -0.4264   22.3092 H   0  0  0  0  0  0  0  0  0  0  0  0
    9.9960   -2.0741   21.1138 H   0  0  0  0  0  0  0  0  0  0  0  0
    6.9447    0.6111   23.8619 H   0  0  0  0  0  0  0  0  0  0  0  0
    8.2136   -0.2298   24.7594 H   0  0  0  0  0  0  0  0  0  0  0  0
    8.8574    3.5560   24.6965 H   0  0  0  0  0  0  0  0  0  0  0  0
    7.4813    2.6029   25.3440 H   0  0  0  0  0  0  0  0  0  0  0  0
    8.5691    3.8332   21.9897 H   0  0  0  0  0  0  0  0  0  0  0  0
    6.1355    3.4589   20.9053 H   0  0  0  0  0  0  0  0  0  0  0  0
    5.9292    5.0514   21.7080 H   0  0  0  0  0  0  0  0  0  0  0  0
    7.1515    4.8719   20.4573 H   0  0  0  0  0  0  0  0  0  0  0  0
  1  2  1  0
  2  3  1  0
  3  4  2  0
  3  5  1  0
  5  6  1  0
  6  7  1  0
  8  7  1  1
  8  9  1  0
  9 10  2  0
  9 11  1  0
 11 12  1  0
 12 13  2  0
 13 14  1  0
 14 15  2  0
 15 16  1  0
 16 17  2  0
 17 18  1  0
 18 19  2  0
 19 20  1  0
 20 21  2  0
 20 22  1  0
 19 23  1  0
 18 24  1  0
 17 25  1  0
 15 26  1  0
 13 27  1  0
 11 28  1  0
 28 29  1  0
 29 30  1  0
 30 31  1  0
 31 32  1  0
 32 33  2  0
 33 34  1  0
 34 35  2  0
 35 36  1  0
 36 37  1  0
 36 38  1  0
 36 39  1  0
 35 40  1  0
 33 41  1  0
 31 42  1  0
 30 43  1  0
 30 44  1  0
 29 45  1  6
 28 46  1  0
 28 47  1  0
  8 48  1  0
 48 49  2  0
 49 50  1  0
 50 51  1  0
 50 52  2  0
 52 53  1  0
 53 54  2  0
 54 55  1  0
 55 56  2  0
 53 57  1  0
 52 58  1  0
 49 59  1  0
  7 60  1  0
  7 61  1  0
  5 62  1  0
  5 63  1  0
  2 64  1  0
  1 65  1  0
  1 66  1  0
  1 67  1  0
 55  6  1  0
 29  8  1  0
 40 32  1  0
 54 48  1  0
 21 12  1  0
 21 16  1  0
M  END
>  <cnnaffinities>  (58) 
[6.8213]

>  <score>  (58) 
6.8213

>  <index>  (58) 
57

>  <Smiles>  (58) 
C(N(C(=O)C(N1C([C@@]2(C(=O)N(c3c(nc(c4c(c(c(c(c34)[H])[H])[H])[H])[H])[H])C([C@@]2(C(N(c2c(nc(C([H])([H])[H])s2)[H])[H])([H])[H])[H])([H])[H])c2c(c(Cl)c(c(c2C1=O)[H])[H])[H])([H])[H])([H])[H])[H])([H])([H])[H]

>  <h>  (58) 
<NA>

>  <Training>  (58) 
True

>  <Success>  (58) 
True

>  <enamine_searched>  (58) 
False

>  <enamine_id>  (58) 
nan

$$$$

     RDKit          3D

 57 62  0  0  0  0  0  0  0  0999 V2000
    9.7171   -1.9588   21.8138 C   0  0  0  0  0  0  0  0  0  0  0  0
    8.6771   -0.9329   22.2965 C   0  0  1  0  0  0  0  0  0  0  0  0
    8.2367   -0.0219   21.1303 C   0  0  0  0  0  0  0  0  0  0  0  0
    6.8947   -0.4564   20.8167 N   0  0  0  0  0  0  0  0  0  0  0  0
    6.1222    0.0781   19.7652 C   0  0  0  0  0  0  0  0  0  0  0  0
    6.4605   -0.2084   18.4685 C   0  0  0  0  0  0  0  0  0  0  0  0
    5.7831    0.2389   17.3874 N   0  0  0  0  0  0  0  0  0  0  0  0
    4.7469    1.0089   17.6120 C   0  0  0  0  0  0  0  0  0  0  0  0
    4.2942    1.3845   18.9080 C   0  0  0  0  0  0  0  0  0  0  0  0
    3.1734    2.2355   19.0738 C   0  0  0  0  0  0  0  0  0  0  0  0
    2.7818    2.6291   20.3213 C   0  0  0  0  0  0  0  0  0  0  0  0
    3.4872    2.1793   21.4618 C   0  0  0  0  0  0  0  0  0  0  0  0
    4.5670    1.3402   21.3349 C   0  0  0  0  0  0  0  0  0  0  0  0
    4.9968    0.9172   20.0384 C   0  0  0  0  0  0  0  0  0  0  0  0
    5.0935    1.0002   22.2284 H   0  0  0  0  0  0  0  0  0  0  0  0
    3.1695    2.5133   22.4448 H   0  0  0  0  0  0  0  0  0  0  0  0
    1.9393    3.3042   20.4395 H   0  0  0  0  0  0  0  0  0  0  0  0
    2.6653    2.5894   18.1810 H   0  0  0  0  0  0  0  0  0  0  0  0
    4.2063    1.3787   16.7420 H   0  0  0  0  0  0  0  0  0  0  0  0
    7.3157   -0.8547   18.2734 H   0  0  0  0  0  0  0  0  0  0  0  0
    6.3674   -1.3810   21.6809 C   0  0  0  0  0  0  0  0  0  0  0  0
    5.3039   -1.9425   21.5136 O   0  0  0  0  0  0  0  0  0  0  0  0
    7.3564   -1.5513   22.8545 C   0  0  1  0  0  0  0  0  0  0  0  0
    7.4749   -3.0498   23.1631 C   0  0  0  0  0  0  0  0  0  0  0  0
    6.2226   -3.5353   23.7014 N   0  0  0  0  0  0  0  0  0  0  0  0
    5.5942   -4.6804   23.0838 C   0  0  0  0  0  0  0  0  0  0  0  0
    6.1875   -5.9536   23.6305 C   0  0  0  0  0  0  0  0  0  0  0  0
    7.4522   -6.4176   23.2583 C   0  0  0  0  0  0  0  0  0  0  0  0
    7.8243   -7.6485   23.7822 C   0  0  0  0  0  0  0  0  0  0  0  0
    7.0986   -8.3121   24.6823 N   0  0  0  0  0  0  0  0  0  0  0  0
    5.9581   -7.7176   25.0359 C   0  0  0  0  0  0  0  0  0  0  0  0
    5.4512   -6.5990   24.5373 N   0  0  0  0  0  0  0  0  0  0  0  0
    5.3636   -8.2116   25.8030 H   0  0  0  0  0  0  0  0  0  0  0  0
    8.7444   -8.1280   23.4429 H   0  0  0  0  0  0  0  0  0  0  0  0
    8.1308   -5.8432   22.6212 H   0  0  0  0  0  0  0  0  0  0  0  0
    4.5293   -4.6496   23.3270 H   0  0  0  0  0  0  0  0  0  0  0  0
    5.6977   -4.5842   21.9916 H   0  0  0  0  0  0  0  0  0  0  0  0
    5.6508   -2.9698   24.8053 C   0  0  0  0  0  0  0  0  0  0  0  0
    4.8193   -3.5441   25.4980 O   0  0  0  0  0  0  0  0  0  0  0  0
    6.0762   -1.5609   25.0601 C   0  0  0  0  0  0  0  0  0  0  0  0
    5.6218   -0.9482   26.2261 C   0  0  0  0  0  0  0  0  0  0  0  0
    5.8623    0.3924   26.4535 C   0  0  0  0  0  0  0  0  0  0  0  0
    6.5634    1.1076   25.4890 C   0  0  0  0  0  0  0  0  0  0  0  0
    6.7885    2.4185   25.7049 F   0  0  0  0  0  0  0  0  0  0  0  0
    7.0402    0.5174   24.3309 C   0  0  0  0  0  0  0  0  0  0  0  0
    6.8267   -0.8528   24.1095 C   0  0  0  0  0  0  0  0  0  0  0  0
    7.5848    1.1423   23.6294 H   0  0  0  0  0  0  0  0  0  0  0  0
    5.5063    0.8913   27.3465 H   0  0  0  0  0  0  0  0  0  0  0  0
    5.0679   -1.5542   26.9364 H   0  0  0  0  0  0  0  0  0  0  0  0
    8.3073   -3.2134   23.8668 H   0  0  0  0  0  0  0  0  0  0  0  0
    7.6858   -3.5873   22.2345 H   0  0  0  0  0  0  0  0  0  0  0  0
    8.8904   -0.1572   20.2691 H   0  0  0  0  0  0  0  0  0  0  0  0
    8.2553    1.0459   21.3895 H   0  0  0  0  0  0  0  0  0  0  0  0
    9.1646   -0.3427   23.0811 H   0  0  0  0  0  0  0  0  0  0  0  0
    9.3219   -2.5991   21.0147 H   0  0  0  0  0  0  0  0  0  0  0  0
   10.6009   -1.4450   21.4209 H   0  0  0  0  0  0  0  0  0  0  0  0
   10.0507   -2.6017   22.6339 H   0  0  0  0  0  0  0  0  0  0  0  0
  1  2  1  0
  2  3  1  0
  3  4  1  0
  4  5  1  0
  5  6  2  0
  6  7  1  0
  7  8  2  0
  8  9  1  0
  9 10  2  0
 10 11  1  0
 11 12  2  0
 12 13  1  0
 13 14  2  0
 13 15  1  0
 12 16  1  0
 11 17  1  0
 10 18  1  0
  8 19  1  0
  6 20  1  0
  4 21  1  0
 21 22  2  0
 21 23  1  0
 23 24  1  1
 24 25  1  0
 25 26  1  0
 26 27  1  0
 27 28  2  0
 28 29  1  0
 29 30  2  0
 30 31  1  0
 31 32  2  0
 31 33  1  0
 29 34  1  0
 28 35  1  0
 26 36  1  0
 26 37  1  0
 25 38  1  0
 38 39  2  0
 38 40  1  0
 40 41  2  0
 41 42  1  0
 42 43  2  0
 43 44  1  0
 43 45  1  0
 45 46  2  0
 45 47  1  0
 42 48  1  0
 41 49  1  0
 24 50  1  0
 24 51  1  0
  3 52  1  0
  3 53  1  0
  2 54  1  1
  1 55  1  0
  1 56  1  0
  1 57  1  0
 23  2  1  0
 32 27  1  0
 46 40  1  0
 14  5  1  0
 46 23  1  0
 14  9  1  0
M  END
>  <cnnaffinities>  (59) 
[6.54695]

>  <score>  (59) 
6.54695

>  <index>  (59) 
58

>  <Smiles>  (59) 
C([C@]1(C(N(c2c(nc(c3c(c(c(c(c23)[H])[H])[H])[H])[H])[H])C(=O)[C@]21C(N(C(c1c(c(nc(n1)[H])[H])[H])([H])[H])C(=O)c1c(c(c(F)c(c21)[H])[H])[H])([H])[H])([H])[H])[H])([H])([H])[H]

>  <h>  (59) 
<NA>

>  <Training>  (59) 
True

>  <Success>  (59) 
True

>  <enamine_searched>  (59) 
False

>  <enamine_id>  (59) 
nan

$$$$

     RDKit          3D

 60 65  0  0  0  0  0  0  0  0999 V2000
   11.7963   -0.4486   22.7060 C   0  0  0  0  0  0  0  0  0  0  0  0
   10.8877   -0.6177   21.6453 O   0  0  0  0  0  0  0  0  0  0  0  0
    9.8676   -1.5600   21.9034 C   0  0  0  0  0  0  0  0  0  0  0  0
    8.5932   -0.8550   22.4187 C   0  0  1  0  0  0  0  0  0  0  0  0
    8.0800    0.1358   21.3446 C   0  0  0  0  0  0  0  0  0  0  0  0
    6.8755   -0.4822   20.8304 N   0  0  0  0  0  0  0  0  0  0  0  0
    6.1052    0.0571   19.7671 C   0  0  0  0  0  0  0  0  0  0  0  0
    6.4416   -0.2288   18.4699 C   0  0  0  0  0  0  0  0  0  0  0  0
    5.7788    0.2448   17.3873 N   0  0  0  0  0  0  0  0  0  0  0  0
    4.7491    1.0236   17.6043 C   0  0  0  0  0  0  0  0  0  0  0  0
    4.2865    1.4001   18.8965 C   0  0  0  0  0  0  0  0  0  0  0  0
    3.1680    2.2574   19.0710 C   0  0  0  0  0  0  0  0  0  0  0  0
    2.7638    2.6251   20.3234 C   0  0  0  0  0  0  0  0  0  0  0  0
    3.4624    2.1522   21.4598 C   0  0  0  0  0  0  0  0  0  0  0  0
    4.5458    1.3179   21.3202 C   0  0  0  0  0  0  0  0  0  0  0  0
    4.9831    0.9115   20.0246 C   0  0  0  0  0  0  0  0  0  0  0  0
    5.0747    0.9661   22.2060 H   0  0  0  0  0  0  0  0  0  0  0  0
    3.1341    2.4534   22.4484 H   0  0  0  0  0  0  0  0  0  0  0  0
    1.9154    3.2906   20.4481 H   0  0  0  0  0  0  0  0  0  0  0  0
    2.6638    2.6277   18.1820 H   0  0  0  0  0  0  0  0  0  0  0  0
    4.2225    1.3865   16.7236 H   0  0  0  0  0  0  0  0  0  0  0  0
    7.2888   -0.8746   18.2517 H   0  0  0  0  0  0  0  0  0  0  0  0
    6.4138   -1.5567   21.5591 C   0  0  0  0  0  0  0  0  0  0  0  0
    5.4035   -2.1753   21.3029 O   0  0  0  0  0  0  0  0  0  0  0  0
    7.3804   -1.7865   22.7487 C   0  0  1  0  0  0  0  0  0  0  0  0
    7.7499   -3.2791   22.8434 C   0  0  0  0  0  0  0  0  0  0  0  0
    6.5869   -4.0624   23.2012 N   0  0  0  0  0  0  0  0  0  0  0  0
    6.4020   -5.3434   22.5735 C   0  0  0  0  0  0  0  0  0  0  0  0
    7.2502   -6.4050   23.1891 C   0  0  0  0  0  0  0  0  0  0  0  0
    8.5198   -6.5908   22.9309 N   0  0  0  0  0  0  0  0  0  0  0  0
    8.8976   -7.7027   23.6295 C   0  0  0  0  0  0  0  0  0  0  0  0
    7.8271   -8.1765   24.3340 C   0  0  0  0  0  0  0  0  0  0  0  0
    6.7797   -7.3310   24.0593 N   0  0  0  0  0  0  0  0  0  0  0  0
    5.9027   -7.2623   24.5579 H   0  0  0  0  0  0  0  0  0  0  0  0
    7.7085   -8.9887   25.0100 H   0  0  0  0  0  0  0  0  0  0  0  0
    9.9380   -8.0135   23.6155 H   0  0  0  0  0  0  0  0  0  0  0  0
    5.3456   -5.6084   22.6562 H   0  0  0  0  0  0  0  0  0  0  0  0
    6.6710   -5.2186   21.5184 H   0  0  0  0  0  0  0  0  0  0  0  0
    5.8764   -3.8042   24.3328 C   0  0  0  0  0  0  0  0  0  0  0  0
    5.2124   -4.6822   24.8820 O   0  0  0  0  0  0  0  0  0  0  0  0
    5.9579   -2.3834   24.7955 C   0  0  0  0  0  0  0  0  0  0  0  0
    5.2657   -2.0260   25.9504 C   0  0  0  0  0  0  0  0  0  0  0  0
    5.2221   -0.7061   26.3557 C   0  0  0  0  0  0  0  0  0  0  0  0
    5.8701    0.2595   25.5890 C   0  0  0  0  0  0  0  0  0  0  0  0
    5.7717    1.9311   26.0747 Cl  0  0  0  0  0  0  0  0  0  0  0  0
    6.5772   -0.0799   24.4492 C   0  0  0  0  0  0  0  0  0  0  0  0
    6.6569   -1.4200   24.0475 C   0  0  0  0  0  0  0  0  0  0  0  0
    7.0337    0.7241   23.8788 H   0  0  0  0  0  0  0  0  0  0  0  0
    4.6810   -0.4099   27.2437 H   0  0  0  0  0  0  0  0  0  0  0  0
    4.7504   -2.8185   26.4852 H   0  0  0  0  0  0  0  0  0  0  0  0
    8.1042   -3.6586   21.8805 H   0  0  0  0  0  0  0  0  0  0  0  0
    8.5423   -3.4057   23.5997 H   0  0  0  0  0  0  0  0  0  0  0  0
    7.8687    1.1328   21.7613 H   0  0  0  0  0  0  0  0  0  0  0  0
    8.8155    0.2723   20.5450 H   0  0  0  0  0  0  0  0  0  0  0  0
    8.9100   -0.3297   23.3291 H   0  0  0  0  0  0  0  0  0  0  0  0
   10.2260   -2.3004   22.6342 H   0  0  0  0  0  0  0  0  0  0  0  0
    9.6553   -2.0780   20.9575 H   0  0  0  0  0  0  0  0  0  0  0  0
   11.2966   -0.1788   23.6498 H   0  0  0  0  0  0  0  0  0  0  0  0
   12.4597    0.3671   22.4137 H   0  0  0  0  0  0  0  0  0  0  0  0
   12.3972   -1.3547   22.8873 H   0  0  0  0  0  0  0  0  0  0  0  0
  1  2  1  0
  2  3  1  0
  3  4  1  0
  4  5  1  0
  5  6  1  0
  6  7  1  0
  7  8  2  0
  8  9  1  0
  9 10  2  0
 10 11  1  0
 11 12  2  0
 12 13  1  0
 13 14  2  0
 14 15  1  0
 15 16  2  0
 15 17  1  0
 14 18  1  0
 13 19  1  0
 12 20  1  0
 10 21  1  0
  8 22  1  0
  6 23  1  0
 23 24  2  0
 23 25  1  0
 25 26  1  1
 26 27  1  0
 27 28  1  0
 28 29  1  0
 29 30  2  0
 30 31  1  0
 31 32  2  0
 32 33  1  0
 33 34  1  0
 32 35  1  0
 31 36  1  0
 28 37  1  0
 28 38  1  0
 27 39  1  0
 39 40  2  0
 39 41  1  0
 41 42  2  0
 42 43  1  0
 43 44  2  0
 44 45  1  0
 44 46  1  0
 46 47  2  0
 46 48  1  0
 43 49  1  0
 42 50  1  0
 26 51  1  0
 26 52  1  0
  5 53  1  0
  5 54  1  0
  4 55  1  1
  3 56  1  0
  3 57  1  0
  1 58  1  0
  1 59  1  0
  1 60  1  0
 25  4  1  0
 33 29  1  0
 47 41  1  0
 16  7  1  0
 47 25  1  0
 16 11  1  0
M  END
>  <cnnaffinities>  (60) 
[6.75956]

>  <score>  (60) 
6.75956

>  <index>  (60) 
59

>  <Smiles>  (60) 
C(OC([C@]1(C(N(c2c(nc(c3c(c(c(c(c23)[H])[H])[H])[H])[H])[H])C(=O)[C@]21C(N(C(c1nc(c(n1[H])[H])[H])([H])[H])C(=O)c1c(c(c(Cl)c(c21)[H])[H])[H])([H])[H])([H])[H])[H])([H])[H])([H])([H])[H]

>  <h>  (60) 
<NA>

>  <Training>  (60) 
True

>  <Success>  (60) 
True

>  <enamine_searched>  (60) 
False

>  <enamine_id>  (60) 
nan

$$$$

     RDKit          3D

 38 41  0  0  0  0  0  0  0  0999 V2000
    5.0856   -2.0259   21.2435 O   0  0  0  0  0  0  0  0  0  0  0  0
    6.2603   -1.7692   21.4624 C   0  0  0  0  0  0  0  0  0  0  0  0
    6.9182   -0.5096   20.9030 C   0  0  0  0  0  0  0  0  0  0  0  0
    6.1177    0.0797   19.7784 C   0  0  0  0  0  0  0  0  0  0  0  0
    6.4309   -0.2202   18.4783 C   0  0  0  0  0  0  0  0  0  0  0  0
    5.7651    0.2254   17.3836 N   0  0  0  0  0  0  0  0  0  0  0  0
    4.7383    1.0138   17.5908 C   0  0  0  0  0  0  0  0  0  0  0  0
    4.2825    1.3925   18.8819 C   0  0  0  0  0  0  0  0  0  0  0  0
    3.1640    2.2440   19.0518 C   0  0  0  0  0  0  0  0  0  0  0  0
    2.7486    2.6048   20.3075 C   0  0  0  0  0  0  0  0  0  0  0  0
    3.4345    2.1146   21.4429 C   0  0  0  0  0  0  0  0  0  0  0  0
    4.5170    1.2852   21.3025 C   0  0  0  0  0  0  0  0  0  0  0  0
    4.9805    0.9087   20.0111 C   0  0  0  0  0  0  0  0  0  0  0  0
    5.0284    0.9037   22.1814 H   0  0  0  0  0  0  0  0  0  0  0  0
    3.1010    2.4121   22.4355 H   0  0  0  0  0  0  0  0  0  0  0  0
    1.8998    3.2703   20.4326 H   0  0  0  0  0  0  0  0  0  0  0  0
    2.6635    2.6229   18.1641 H   0  0  0  0  0  0  0  0  0  0  0  0
    4.2087    1.3897   16.7148 H   0  0  0  0  0  0  0  0  0  0  0  0
    7.2789   -0.8689   18.2525 H   0  0  0  0  0  0  0  0  0  0  0  0
    7.0782    0.2126   21.7156 H   0  0  0  0  0  0  0  0  0  0  0  0
    7.9128   -0.7854   20.5311 H   0  0  0  0  0  0  0  0  0  0  0  0
    7.0471   -2.6313   22.1828 N   0  0  0  0  0  0  0  0  0  0  0  0
    8.4224   -2.3438   22.5779 C   0  0  0  0  0  0  0  0  0  0  0  0
    8.7598   -3.0270   23.8995 C   0  0  0  0  0  0  0  0  0  0  0  0
    8.4014   -4.4705   23.7619 C   0  0  0  0  0  0  0  0  0  0  0  0
    9.2634   -5.7619   24.4670 S   0  0  0  0  0  0  0  0  0  0  0  0
    8.0890   -6.9248   23.9849 C   0  0  0  0  0  0  0  0  0  0  0  0
    7.1204   -6.3339   23.2272 C   0  0  0  0  0  0  0  0  0  0  0  0
    7.3160   -4.9200   23.0794 C   0  0  0  0  0  0  0  0  0  0  0  0
    6.5055   -3.9851   22.2453 C   0  0  0  0  0  0  0  0  0  0  0  0
    5.4605   -3.8988   22.5648 H   0  0  0  0  0  0  0  0  0  0  0  0
    6.4450   -4.4033   21.2346 H   0  0  0  0  0  0  0  0  0  0  0  0
    6.2528   -6.8599   22.8430 H   0  0  0  0  0  0  0  0  0  0  0  0
    8.1409   -7.9484   24.3571 H   0  0  0  0  0  0  0  0  0  0  0  0
    9.8120   -2.8707   24.1733 H   0  0  0  0  0  0  0  0  0  0  0  0
    8.1315   -2.6135   24.6990 H   0  0  0  0  0  0  0  0  0  0  0  0
    9.1423   -2.6854   21.8192 H   0  0  0  0  0  0  0  0  0  0  0  0
    8.5361   -1.2644   22.6805 H   0  0  0  0  0  0  0  0  0  0  0  0
  1  2  2  0
  2  3  1  0
  3  4  1  0
  4  5  2  0
  5  6  1  0
  6  7  2  0
  7  8  1  0
  8  9  2  0
  9 10  1  0
 10 11  2  0
 11 12  1  0
 12 13  2  0
 12 14  1  0
 11 15  1  0
 10 16  1  0
  9 17  1  0
  7 18  1  0
  5 19  1  0
  3 20  1  0
  3 21  1  0
  2 22  1  0
 22 23  1  0
 23 24  1  0
 24 25  1  0
 25 26  1  0
 26 27  1  0
 27 28  2  0
 28 29  1  0
 29 30  1  0
 30 31  1  0
 30 32  1  0
 28 33  1  0
 27 34  1  0
 24 35  1  0
 24 36  1  0
 23 37  1  0
 23 38  1  0
 13  4  1  0
 30 22  1  0
 13  8  1  0
 29 25  2  0
M  END
>  <cnnaffinities>  (61) 
[5.44053, 5.42428, 4.67053]

>  <score>  (61) 
5.44053

>  <index>  (61) 
60

>  <Smiles>  (61) 
O=C(C(c1c(nc(c2c(c(c(c(c12)[H])[H])[H])[H])[H])[H])([H])[H])N1C(C(c2sc(c(c2C1([H])[H])[H])[H])([H])[H])([H])[H]

>  <h>  (61) 
<NA>

>  <Training>  (61) 
True

>  <Success>  (61) 
True

>  <enamine_searched>  (61) 
False

>  <enamine_id>  (61) 
nan

$$$$

     RDKit          3D

 64 70  0  0  0  0  0  0  0  0999 V2000
   10.9088    2.4021   24.2261 O   0  0  0  0  0  0  0  0  0  0  0  0
   10.1746    1.4744   23.8971 C   0  0  0  0  0  0  0  0  0  0  0  0
   10.6429    0.3691   23.0427 C   0  0  0  0  0  0  0  0  0  0  0  0
   12.0008    0.3481   22.8238 C   0  0  0  0  0  0  0  0  0  0  0  0
   12.5218   -0.6126   22.0072 C   0  0  0  0  0  0  0  0  0  0  0  0
   11.6973   -1.5289   21.3551 C   0  0  0  0  0  0  0  0  0  0  0  0
   12.4060   -2.7265   20.3063 Cl  0  0  0  0  0  0  0  0  0  0  0  0
   10.3262   -1.4895   21.5468 C   0  0  0  0  0  0  0  0  0  0  0  0
    9.7951   -0.5728   22.4628 C   0  0  0  0  0  0  0  0  0  0  0  0
    8.3051   -0.4899   22.7204 C   0  0  1  0  0  0  0  0  0  0  0  0
    8.1204    0.1542   24.1125 C   0  0  0  0  0  0  0  0  0  0  0  0
    8.8812    1.3740   24.2870 N   0  0  0  0  0  0  0  0  0  0  0  0
    8.3014    2.5551   24.8789 C   0  0  0  0  0  0  0  0  0  0  0  0
    7.7627    3.5457   23.8733 C   0  0  0  0  0  0  0  0  0  0  0  0
    6.4745    3.5196   23.4007 C   0  0  0  0  0  0  0  0  0  0  0  0
    6.1112    4.4616   22.4423 C   0  0  0  0  0  0  0  0  0  0  0  0
    6.9317    5.3968   21.9870 N   0  0  0  0  0  0  0  0  0  0  0  0
    8.1793    5.4298   22.4380 N   0  0  0  0  0  0  0  0  0  0  0  0
    8.5882    4.5369   23.3296 C   0  0  0  0  0  0  0  0  0  0  0  0
    9.6286    4.6324   23.6417 H   0  0  0  0  0  0  0  0  0  0  0  0
    5.1074    4.4772   22.0170 H   0  0  0  0  0  0  0  0  0  0  0  0
    5.7486    2.7966   23.7658 H   0  0  0  0  0  0  0  0  0  0  0  0
    7.5408    2.2257   25.5861 H   0  0  0  0  0  0  0  0  0  0  0  0
    9.1123    3.0300   25.4198 H   0  0  0  0  0  0  0  0  0  0  0  0
    8.4561   -0.5792   24.8539 H   0  0  0  0  0  0  0  0  0  0  0  0
    7.0706    0.3882   24.2876 H   0  0  0  0  0  0  0  0  0  0  0  0
    7.6884    0.3653   21.6073 C   0  0  0  0  0  0  0  0  0  0  0  0
    7.9227    1.5343   21.3597 O   0  0  0  0  0  0  0  0  0  0  0  0
    6.8342   -0.4164   20.8818 N   0  0  0  0  0  0  0  0  0  0  0  0
    6.1061    0.0934   19.7915 C   0  0  0  0  0  0  0  0  0  0  0  0
    6.4347   -0.2418   18.5025 C   0  0  0  0  0  0  0  0  0  0  0  0
    5.7748    0.2152   17.4111 N   0  0  0  0  0  0  0  0  0  0  0  0
    4.7529    1.0129   17.6085 C   0  0  0  0  0  0  0  0  0  0  0  0
    4.2935    1.4097   18.8981 C   0  0  0  0  0  0  0  0  0  0  0  0
    3.1626    2.2508   19.0660 C   0  0  0  0  0  0  0  0  0  0  0  0
    2.7316    2.5982   20.3172 C   0  0  0  0  0  0  0  0  0  0  0  0
    3.4081    2.1189   21.4612 C   0  0  0  0  0  0  0  0  0  0  0  0
    4.5119    1.3148   21.3269 C   0  0  0  0  0  0  0  0  0  0  0  0
    4.9857    0.9438   20.0345 C   0  0  0  0  0  0  0  0  0  0  0  0
    5.0331    0.9555   22.2084 H   0  0  0  0  0  0  0  0  0  0  0  0
    3.0608    2.4043   22.4516 H   0  0  0  0  0  0  0  0  0  0  0  0
    1.8743    3.2530   20.4415 H   0  0  0  0  0  0  0  0  0  0  0  0
    2.6611    2.6231   18.1778 H   0  0  0  0  0  0  0  0  0  0  0  0
    4.2239    1.3770   16.7254 H   0  0  0  0  0  0  0  0  0  0  0  0
    7.2913   -0.8874   18.3027 H   0  0  0  0  0  0  0  0  0  0  0  0
    6.9135   -1.8172   21.1978 C   0  0  0  0  0  0  0  0  0  0  0  0
    7.5928   -1.8645   22.5713 C   0  0  2  0  0  0  0  0  0  0  0  0
    6.6065   -2.2446   23.6899 C   0  0  0  0  0  0  0  0  0  0  0  0
    6.0271   -3.5606   23.5228 N   0  0  0  0  0  0  0  0  0  0  0  0
    6.7368   -4.6947   23.7335 C   0  0  0  0  0  0  0  0  0  0  0  0
    7.9795   -4.7136   24.1309 N   0  0  0  0  0  0  0  0  0  0  0  0
    8.4624   -5.9869   24.2690 N   0  0  0  0  0  0  0  0  0  0  0  0
    7.5845   -6.8948   24.0039 C   0  0  0  0  0  0  0  0  0  0  0  0
    6.0374   -6.2805   23.5048 S   0  0  0  0  0  0  0  0  0  0  0  0
    7.7671   -7.9609   24.0710 H   0  0  0  0  0  0  0  0  0  0  0  0
    5.0842   -3.6180   23.1886 H   0  0  0  0  0  0  0  0  0  0  0  0
    5.7909   -1.5167   23.7532 H   0  0  0  0  0  0  0  0  0  0  0  0
    7.1315   -2.2496   24.6440 H   0  0  0  0  0  0  0  0  0  0  0  0
    8.3507   -2.6517   22.6026 H   0  0  0  0  0  0  0  0  0  0  0  0
    7.5077   -2.3380   20.4459 H   0  0  0  0  0  0  0  0  0  0  0  0
    5.9134   -2.2506   21.2011 H   0  0  0  0  0  0  0  0  0  0  0  0
    9.6802   -2.1517   20.9746 H   0  0  0  0  0  0  0  0  0  0  0  0
   13.5784   -0.5228   21.8598 H   0  0  0  0  0  0  0  0  0  0  0  0
   12.6183    1.1075   23.2921 H   0  0  0  0  0  0  0  0  0  0  0  0
  1  2  2  0
  2  3  1  0
  3  4  2  0
  4  5  1  0
  5  6  2  0
  6  7  1  0
  6  8  1  0
  8  9  2  0
  9 10  1  0
 10 11  1  1
 11 12  1  0
 12 13  1  0
 13 14  1  0
 14 15  2  0
 15 16  1  0
 16 17  2  0
 17 18  1  0
 18 19  2  0
 19 20  1  0
 16 21  1  0
 15 22  1  0
 13 23  1  0
 13 24  1  0
 11 25  1  0
 11 26  1  0
 10 27  1  0
 27 28  2  0
 27 29  1  0
 29 30  1  0
 30 31  2  0
 31 32  1  0
 32 33  2  0
 33 34  1  0
 34 35  2  0
 35 36  1  0
 36 37  2  0
 37 38  1  0
 38 39  2  0
 38 40  1  0
 37 41  1  0
 36 42  1  0
 35 43  1  0
 33 44  1  0
 31 45  1  0
 29 46  1  0
 46 47  1  0
 47 48  1  0
 48 49  1  0
 49 50  1  0
 50 51  2  0
 51 52  1  0
 52 53  2  0
 53 54  1  0
 53 55  1  0
 49 56  1  0
 48 57  1  0
 48 58  1  0
 47 59  1  6
 46 60  1  0
 46 61  1  0
  8 62  1  0
  5 63  1  0
  4 64  1  0
 12  2  1  0
 19 14  1  0
 39 30  1  0
 54 50  1  0
  9  3  1  0
 47 10  1  0
 39 34  1  0
M  END
>  <cnnaffinities>  (62) 
[6.77698]

>  <score>  (62) 
6.77698

>  <index>  (62) 
61

>  <Smiles>  (62) 
O=C1c2c(c(c(Cl)c(c2[C@@]2(C(N1C(c1c(c(nnc1[H])[H])[H])([H])[H])([H])[H])C(=O)N(c1c(nc(c3c(c(c(c(c13)[H])[H])[H])[H])[H])[H])C([C@@]2(C(N(c1nnc(s1)[H])[H])([H])[H])[H])([H])[H])[H])[H])[H]

>  <h>  (62) 
<NA>

>  <Training>  (62) 
True

>  <Success>  (62) 
True

>  <enamine_searched>  (62) 
False

>  <enamine_id>  (62) 
nan

$$$$

     RDKit          3D

 70 76  0  0  0  0  0  0  0  0999 V2000
    9.7349   -1.9284   21.8706 C   0  0  0  0  0  0  0  0  0  0  0  0
    8.6572   -0.9314   22.3241 C   0  0  1  0  0  0  0  0  0  0  0  0
    8.2199   -0.0538   21.1358 C   0  0  0  0  0  0  0  0  0  0  0  0
    6.8759   -0.4787   20.8358 N   0  0  0  0  0  0  0  0  0  0  0  0
    6.1098    0.0626   19.7847 C   0  0  0  0  0  0  0  0  0  0  0  0
    6.4579   -0.2180   18.4874 C   0  0  0  0  0  0  0  0  0  0  0  0
    5.7867    0.2316   17.4025 N   0  0  0  0  0  0  0  0  0  0  0  0
    4.7503    1.0064   17.6149 C   0  0  0  0  0  0  0  0  0  0  0  0
    4.2994    1.3907   18.9094 C   0  0  0  0  0  0  0  0  0  0  0  0
    3.1820    2.2477   19.0695 C   0  0  0  0  0  0  0  0  0  0  0  0
    2.7844    2.6459   20.3153 C   0  0  0  0  0  0  0  0  0  0  0  0
    3.4833    2.1989   21.4603 C   0  0  0  0  0  0  0  0  0  0  0  0
    4.5668    1.3610   21.3387 C   0  0  0  0  0  0  0  0  0  0  0  0
    4.9944    0.9217   20.0458 C   0  0  0  0  0  0  0  0  0  0  0  0
    5.1005    1.0449   22.2363 H   0  0  0  0  0  0  0  0  0  0  0  0
    3.1628    2.5305   22.4431 H   0  0  0  0  0  0  0  0  0  0  0  0
    1.9363    3.3152   20.4325 H   0  0  0  0  0  0  0  0  0  0  0  0
    2.6757    2.6032   18.1773 H   0  0  0  0  0  0  0  0  0  0  0  0
    4.2159    1.3816   16.7415 H   0  0  0  0  0  0  0  0  0  0  0  0
    7.3086   -0.8707   18.2905 H   0  0  0  0  0  0  0  0  0  0  0  0
    6.3464   -1.3706   21.7286 C   0  0  0  0  0  0  0  0  0  0  0  0
    5.2607   -1.9039   21.6001 O   0  0  0  0  0  0  0  0  0  0  0  0
    7.3433   -1.5508   22.8862 C   0  0  1  0  0  0  0  0  0  0  0  0
    7.4835   -3.0380   23.2306 C   0  0  0  0  0  0  0  0  0  0  0  0
    6.3031   -3.5512   23.8812 N   0  0  0  0  0  0  0  0  0  0  0  0
    5.7741   -4.8179   23.4571 C   0  0  0  0  0  0  0  0  0  0  0  0
    6.4997   -5.9671   24.1467 C   0  0  0  0  0  0  0  0  0  0  0  0
    5.9127   -7.3071   23.8104 N   0  0  2  0  0  4  0  0  0  0  0  0
    5.9002   -7.5447   22.3276 C   0  0  0  0  0  0  0  0  0  0  0  0
    4.4584   -7.3178   21.8593 C   0  0  0  0  0  0  0  0  0  0  0  0
    3.5425   -7.5135   23.0795 C   0  0  0  0  0  0  0  0  0  0  0  0
    2.4559   -8.6179   23.0961 C   0  0  0  0  0  0  0  0  0  0  0  0
    1.3904   -7.6675   23.1821 O   0  0  0  0  0  0  0  0  0  0  0  0
    2.3179   -6.5825   23.1449 C   0  0  0  0  0  0  0  0  0  0  0  0
    2.2433   -5.9641   24.0473 H   0  0  0  0  0  0  0  0  0  0  0  0
    2.1652   -5.9603   22.2534 H   0  0  0  0  0  0  0  0  0  0  0  0
    2.4714   -9.2680   23.9806 H   0  0  0  0  0  0  0  0  0  0  0  0
    2.3648   -9.2324   22.1936 H   0  0  0  0  0  0  0  0  0  0  0  0
    4.4901   -7.5192   24.2914 C   0  0  0  0  0  0  0  0  0  0  0  0
    4.4754   -8.4770   24.8096 H   0  0  0  0  0  0  0  0  0  0  0  0
    4.2492   -6.7374   25.0144 H   0  0  0  0  0  0  0  0  0  0  0  0
    4.3814   -6.2873   21.5063 H   0  0  0  0  0  0  0  0  0  0  0  0
    4.2031   -7.9720   21.0168 H   0  0  0  0  0  0  0  0  0  0  0  0
    6.6089   -6.8717   21.8574 H   0  0  0  0  0  0  0  0  0  0  0  0
    6.2680   -8.5466   22.1295 H   0  0  0  0  0  0  0  0  0  0  0  0
    6.5218   -7.9985   24.2632 H   0  0  0  0  0  0  0  0  0  0  0  0
    7.5587   -5.9666   23.8612 H   0  0  0  0  0  0  0  0  0  0  0  0
    6.4600   -5.8273   25.2262 H   0  0  0  0  0  0  0  0  0  0  0  0
    5.8870   -4.8518   22.3659 H   0  0  0  0  0  0  0  0  0  0  0  0
    4.7041   -4.8154   23.6813 H   0  0  0  0  0  0  0  0  0  0  0  0
    5.7435   -2.9460   24.9608 C   0  0  0  0  0  0  0  0  0  0  0  0
    4.9810   -3.5242   25.7229 O   0  0  0  0  0  0  0  0  0  0  0  0
    6.0964   -1.5064   25.1098 C   0  0  0  0  0  0  0  0  0  0  0  0
    5.6129   -0.8551   26.2395 C   0  0  0  0  0  0  0  0  0  0  0  0
    5.8292    0.4964   26.4091 C   0  0  0  0  0  0  0  0  0  0  0  0
    6.5263    1.1836   25.4162 C   0  0  0  0  0  0  0  0  0  0  0  0
    6.7818    2.8990   25.5956 Cl  0  0  0  0  0  0  0  0  0  0  0  0
    7.0198    0.5473   24.2877 C   0  0  0  0  0  0  0  0  0  0  0  0
    6.8307   -0.8294   24.1284 C   0  0  0  0  0  0  0  0  0  0  0  0
    7.5554    1.1296   23.5434 H   0  0  0  0  0  0  0  0  0  0  0  0
    5.4504    1.0287   27.2742 H   0  0  0  0  0  0  0  0  0  0  0  0
    5.0584   -1.4483   26.9583 H   0  0  0  0  0  0  0  0  0  0  0  0
    8.3584   -3.1674   23.8790 H   0  0  0  0  0  0  0  0  0  0  0  0
    7.6452   -3.6137   22.3166 H   0  0  0  0  0  0  0  0  0  0  0  0
    8.2528    1.0210   21.3558 H   0  0  0  0  0  0  0  0  0  0  0  0
    8.8688   -0.2201   20.2756 H   0  0  0  0  0  0  0  0  0  0  0  0
    9.1186   -0.3259   23.1083 H   0  0  0  0  0  0  0  0  0  0  0  0
   10.5983   -1.3915   21.4624 H   0  0  0  0  0  0  0  0  0  0  0  0
   10.1019   -2.5424   22.6980 H   0  0  0  0  0  0  0  0  0  0  0  0
    9.3621   -2.5953   21.0857 H   0  0  0  0  0  0  0  0  0  0  0  0
  1  2  1  0
  2  3  1  0
  3  4  1  0
  4  5  1  0
  5  6  2  0
  6  7  1  0
  7  8  2  0
  8  9  1  0
  9 10  2  0
 10 11  1  0
 11 12  2  0
 12 13  1  0
 13 14  2  0
 13 15  1  0
 12 16  1  0
 11 17  1  0
 10 18  1  0
  8 19  1  0
  6 20  1  0
  4 21  1  0
 21 22  2  0
 21 23  1  0
 23 24  1  1
 24 25  1  0
 25 26  1  0
 26 27  1  0
 27 28  1  0
 28 29  1  0
 29 30  1  0
 30 31  1  0
 31 32  1  0
 32 33  1  0
 33 34  1  0
 34 35  1  0
 34 36  1  0
 32 37  1  0
 32 38  1  0
 31 39  1  0
 39 40  1  0
 39 41  1  0
 30 42  1  0
 30 43  1  0
 29 44  1  0
 29 45  1  0
 28 46  1  1
 27 47  1  0
 27 48  1  0
 26 49  1  0
 26 50  1  0
 25 51  1  0
 51 52  2  0
 51 53  1  0
 53 54  2  0
 54 55  1  0
 55 56  2  0
 56 57  1  0
 56 58  1  0
 58 59  2  0
 58 60  1  0
 55 61  1  0
 54 62  1  0
 24 63  1  0
 24 64  1  0
  3 65  1  0
  3 66  1  0
  2 67  1  1
  1 68  1  0
  1 69  1  0
  1 70  1  0
 23  2  1  0
 39 28  1  0
 59 53  1  0
 14  5  1  0
 59 23  1  0
 14  9  1  0
 34 31  1  0
M  CHG  1  28   1
M  END
>  <cnnaffinities>  (63) 
[6.64754]

>  <score>  (63) 
6.64754

>  <index>  (63) 
62

>  <Smiles>  (63) 
C([C@]1(C(N(c2c(nc(c3c(c(c(c(c23)[H])[H])[H])[H])[H])[H])C(=O)[C@]21C(N(C(C([N@@+]1(C(C(C3(C(OC3([H])[H])([H])[H])C1([H])[H])([H])[H])([H])[H])[H])([H])[H])([H])[H])C(=O)c1c(c(c(Cl)c(c21)[H])[H])[H])([H])[H])([H])[H])[H])([H])([H])[H]

>  <h>  (63) 
<NA>

>  <Training>  (63) 
True

>  <Success>  (63) 
True

>  <enamine_searched>  (63) 
False

>  <enamine_id>  (63) 
nan

$$$$

     RDKit          3D

 56 61  0  0  0  0  0  0  0  0999 V2000
   12.0707    2.3846   22.5773 C   0  0  0  0  0  0  0  0  0  0  0  0
   12.2686    0.9835   22.8976 N   0  0  0  0  0  0  0  0  0  0  0  0
   12.8622    0.4501   23.9875 C   0  0  0  0  0  0  0  0  0  0  0  0
   12.8483   -0.9174   23.8199 C   0  0  0  0  0  0  0  0  0  0  0  0
   12.1651   -1.1233   22.5996 C   0  0  0  0  0  0  0  0  0  0  0  0
   11.7975   -2.4093   21.9059 C   0  0  0  0  0  0  0  0  0  0  0  0
   10.4191   -2.8013   22.2023 N   0  0  0  0  0  0  0  0  0  0  0  0
    9.3197   -2.5208   21.3048 C   0  0  0  0  0  0  0  0  0  0  0  0
    8.1332   -1.8697   22.0542 C   0  0  1  0  0  0  0  0  0  0  0  0
    8.4603   -0.4225   22.5241 C   0  0  0  0  0  0  0  0  0  0  0  0
    7.9017    0.5086   21.4448 C   0  0  0  0  0  0  0  0  0  0  0  0
    6.8953   -0.3179   20.8033 N   0  0  0  0  0  0  0  0  0  0  0  0
    6.0960    0.1238   19.7311 C   0  0  0  0  0  0  0  0  0  0  0  0
    6.4059   -0.2288   18.4456 C   0  0  0  0  0  0  0  0  0  0  0  0
    5.7336    0.2287   17.3631 N   0  0  0  0  0  0  0  0  0  0  0  0
    4.7219    1.0326   17.5739 C   0  0  0  0  0  0  0  0  0  0  0  0
    4.2731    1.4343   18.8649 C   0  0  0  0  0  0  0  0  0  0  0  0
    3.1425    2.2653   19.0592 C   0  0  0  0  0  0  0  0  0  0  0  0
    2.7420    2.6042   20.3210 C   0  0  0  0  0  0  0  0  0  0  0  0
    3.4403    2.1207   21.4535 C   0  0  0  0  0  0  0  0  0  0  0  0
    4.5381    1.3140   21.2943 C   0  0  0  0  0  0  0  0  0  0  0  0
    4.9797    0.9649   19.9915 C   0  0  0  0  0  0  0  0  0  0  0  0
    5.0695    0.9202   22.1570 H   0  0  0  0  0  0  0  0  0  0  0  0
    3.1022    2.3874   22.4495 H   0  0  0  0  0  0  0  0  0  0  0  0
    1.8821    3.2511   20.4647 H   0  0  0  0  0  0  0  0  0  0  0  0
    2.6173    2.6329   18.1811 H   0  0  0  0  0  0  0  0  0  0  0  0
    4.1914    1.3986   16.6945 H   0  0  0  0  0  0  0  0  0  0  0  0
    7.2381   -0.9011   18.2438 H   0  0  0  0  0  0  0  0  0  0  0  0
    6.9909   -1.6573   21.0726 C   0  0  0  0  0  0  0  0  0  0  0  0
    6.2413   -2.4988   20.6151 O   0  0  0  0  0  0  0  0  0  0  0  0
    8.6663    0.8333   20.7239 H   0  0  0  0  0  0  0  0  0  0  0  0
    7.4467    1.4103   21.8656 H   0  0  0  0  0  0  0  0  0  0  0  0
    9.5317   -0.2710   22.6655 H   0  0  0  0  0  0  0  0  0  0  0  0
    7.9637   -0.2438   23.4813 H   0  0  0  0  0  0  0  0  0  0  0  0
    7.7419   -2.7775   23.1887 C   0  0  0  0  0  0  0  0  0  0  0  0
    6.4348   -2.8228   23.6885 C   0  0  0  0  0  0  0  0  0  0  0  0
    6.1495   -3.5632   24.8227 C   0  0  0  0  0  0  0  0  0  0  0  0
    4.5325   -3.5474   25.4831 Cl  0  0  0  0  0  0  0  0  0  0  0  0
    7.1399   -4.3173   25.4492 C   0  0  0  0  0  0  0  0  0  0  0  0
    8.4186   -4.2964   24.9156 C   0  0  0  0  0  0  0  0  0  0  0  0
    8.7409   -3.5092   23.8227 C   0  0  0  0  0  0  0  0  0  0  0  0
   10.1836   -3.3972   23.4137 C   0  0  0  0  0  0  0  0  0  0  0  0
   11.0925   -3.7956   24.1387 O   0  0  0  0  0  0  0  0  0  0  0  0
    9.2376   -4.8712   25.2968 H   0  0  0  0  0  0  0  0  0  0  0  0
    6.8883   -4.8723   26.3450 H   0  0  0  0  0  0  0  0  0  0  0  0
    5.6356   -2.2910   23.1852 H   0  0  0  0  0  0  0  0  0  0  0  0
    9.6427   -1.8397   20.5159 H   0  0  0  0  0  0  0  0  0  0  0  0
    8.9889   -3.4712   20.8812 H   0  0  0  0  0  0  0  0  0  0  0  0
   11.9488   -2.3043   20.8210 H   0  0  0  0  0  0  0  0  0  0  0  0
   12.4402   -3.2220   22.2531 H   0  0  0  0  0  0  0  0  0  0  0  0
   11.8067    0.0389   22.0615 N   0  0  0  0  0  0  0  0  0  0  0  0
   13.3062   -1.6879   24.4267 H   0  0  0  0  0  0  0  0  0  0  0  0
   13.2335    1.0792   24.7852 H   0  0  0  0  0  0  0  0  0  0  0  0
   13.0133    2.9378   22.6793 H   0  0  0  0  0  0  0  0  0  0  0  0
   11.7062    2.4247   21.5489 H   0  0  0  0  0  0  0  0  0  0  0  0
   11.3246    2.8243   23.2488 H   0  0  0  0  0  0  0  0  0  0  0  0
  1  2  1  0
  2  3  1  0
  3  4  2  0
  4  5  1  0
  5  6  1  0
  6  7  1  0
  7  8  1  0
  9  8  1  6
  9 10  1  0
 10 11  1  0
 11 12  1  0
 12 13  1  0
 13 14  2  0
 14 15  1  0
 15 16  2  0
 16 17  1  0
 17 18  2  0
 18 19  1  0
 19 20  2  0
 20 21  1  0
 21 22  2  0
 21 23  1  0
 20 24  1  0
 19 25  1  0
 18 26  1  0
 16 27  1  0
 14 28  1  0
 12 29  1  0
 29 30  2  0
 11 31  1  0
 11 32  1  0
 10 33  1  0
 10 34  1  0
  9 35  1  0
 35 36  2  0
 36 37  1  0
 37 38  1  0
 37 39  2  0
 39 40  1  0
 40 41  2  0
 41 42  1  0
 42 43  2  0
 40 44  1  0
 39 45  1  0
 36 46  1  0
  8 47  1  0
  8 48  1  0
  6 49  1  0
  6 50  1  0
  5 51  2  0
  4 52  1  0
  3 53  1  0
  1 54  1  0
  1 55  1  0
  1 56  1  0
 51  2  1  0
 42  7  1  0
 29  9  1  0
 41 35  1  0
 22 13  1  0
 22 17  1  0
M  END
>  <cnnaffinities>  (64) 
[6.90733]

>  <score>  (64) 
6.90733

>  <index>  (64) 
63

>  <Smiles>  (64) 
C(n1c(c(c(C(N2C([C@]3(C(C(N(c4c(nc(c5c(c(c(c(c45)[H])[H])[H])[H])[H])[H])C3=O)([H])[H])([H])[H])c3c(c(Cl)c(c(c3C2=O)[H])[H])[H])([H])[H])([H])[H])n1)[H])[H])([H])([H])[H]

>  <h>  (64) 
<NA>

>  <Training>  (64) 
True

>  <Success>  (64) 
True

>  <enamine_searched>  (64) 
False

>  <enamine_id>  (64) 
nan

$$$$

     RDKit          3D

 66 71  0  0  0  0  0  0  0  0999 V2000
    7.6409   -2.6039   23.6668 C   0  0  0  0  0  0  0  0  0  0  0  0
    7.9902   -1.7586   22.4345 C   0  0  1  0  0  0  0  0  0  0  0  0
    6.8083   -1.6564   21.4487 C   0  0  0  0  0  0  0  0  0  0  0  0
    6.9744   -0.3557   20.8319 N   0  0  0  0  0  0  0  0  0  0  0  0
    6.1597    0.1227   19.7696 C   0  0  0  0  0  0  0  0  0  0  0  0
    6.4471   -0.2159   18.4732 C   0  0  0  0  0  0  0  0  0  0  0  0
    5.7539    0.2216   17.3912 N   0  0  0  0  0  0  0  0  0  0  0  0
    4.7390    1.0250   17.5929 C   0  0  0  0  0  0  0  0  0  0  0  0
    4.2945    1.4243   18.8830 C   0  0  0  0  0  0  0  0  0  0  0  0
    3.1765    2.2798   19.0681 C   0  0  0  0  0  0  0  0  0  0  0  0
    2.7710    2.6422   20.3238 C   0  0  0  0  0  0  0  0  0  0  0  0
    3.4540    2.1446   21.4578 C   0  0  0  0  0  0  0  0  0  0  0  0
    4.5315    1.3048   21.3027 C   0  0  0  0  0  0  0  0  0  0  0  0
    5.0091    0.9448   20.0124 C   0  0  0  0  0  0  0  0  0  0  0  0
    5.0329    0.8956   22.1739 H   0  0  0  0  0  0  0  0  0  0  0  0
    3.1241    2.4328   22.4515 H   0  0  0  0  0  0  0  0  0  0  0  0
    1.9298    3.3183   20.4543 H   0  0  0  0  0  0  0  0  0  0  0  0
    2.6686    2.6636   18.1863 H   0  0  0  0  0  0  0  0  0  0  0  0
    4.2136    1.3898   16.7094 H   0  0  0  0  0  0  0  0  0  0  0  0
    7.2890   -0.8689   18.2457 H   0  0  0  0  0  0  0  0  0  0  0  0
    7.8414    0.4696   21.4852 C   0  0  0  0  0  0  0  0  0  0  0  0
    8.0665    1.6313   21.1731 O   0  0  0  0  0  0  0  0  0  0  0  0
    8.4567   -0.2919   22.6939 C   0  0  1  0  0  0  0  0  0  0  0  0
    7.9142    0.2767   24.0179 C   0  0  0  0  0  0  0  0  0  0  0  0
    8.3929    1.6171   24.3004 N   0  0  0  0  0  0  0  0  0  0  0  0
    7.4596    2.5570   24.8977 C   0  0  0  0  0  0  0  0  0  0  0  0
    6.6193    3.3258   23.8876 C   0  0  0  0  0  0  0  0  0  0  0  0
    7.4476    4.2373   23.0304 N   0  0  0  0  0  4  0  0  0  0  0  0
    6.7613    4.5618   21.7201 C   0  0  0  0  0  0  0  0  0  0  0  0
    5.6518    5.5860   21.9036 C   0  0  0  0  0  0  0  0  0  0  0  0
    6.1429    6.7872   22.4757 O   0  0  0  0  0  0  0  0  0  0  0  0
    6.6891    6.5459   23.7613 C   0  0  0  0  0  0  0  0  0  0  0  0
    7.8447    5.5469   23.7136 C   0  0  0  0  0  0  0  0  0  0  0  0
    8.6587    5.9882   23.1390 H   0  0  0  0  0  0  0  0  0  0  0  0
    8.2123    5.3259   24.7168 H   0  0  0  0  0  0  0  0  0  0  0  0
    7.0463    7.5144   24.1253 H   0  0  0  0  0  0  0  0  0  0  0  0
    5.9006    6.1919   24.4455 H   0  0  0  0  0  0  0  0  0  0  0  0
    5.2180    5.8572   20.9357 H   0  0  0  0  0  0  0  0  0  0  0  0
    4.8514    5.1615   22.5337 H   0  0  0  0  0  0  0  0  0  0  0  0
    6.3835    3.6266   21.3016 H   0  0  0  0  0  0  0  0  0  0  0  0
    7.5153    4.9734   21.0519 H   0  0  0  0  0  0  0  0  0  0  0  0
    8.3115    3.7256   22.7769 H   0  0  0  0  0  0  0  0  0  0  0  0
    5.8697    3.9196   24.4191 H   0  0  0  0  0  0  0  0  0  0  0  0
    6.0949    2.6250   23.2309 H   0  0  0  0  0  0  0  0  0  0  0  0
    8.0474    3.2643   25.4721 H   0  0  0  0  0  0  0  0  0  0  0  0
    6.7855    2.0212   25.5785 H   0  0  0  0  0  0  0  0  0  0  0  0
    9.7055    1.9641   24.1372 C   0  0  0  0  0  0  0  0  0  0  0  0
   10.1547    3.0436   24.4988 O   0  0  0  0  0  0  0  0  0  0  0  0
   10.5481    0.9354   23.4381 C   0  0  0  0  0  0  0  0  0  0  0  0
   11.9360    1.0760   23.4355 C   0  0  0  0  0  0  0  0  0  0  0  0
   12.7246    0.2753   22.6381 C   0  0  0  0  0  0  0  0  0  0  0  0
   12.0932   -0.5587   21.6948 C   0  0  0  0  0  0  0  0  0  0  0  0
   12.8942   -1.2543   20.2750 Cl  0  0  0  0  0  0  0  0  0  0  0  0
   10.7325   -0.7629   21.7502 C   0  0  0  0  0  0  0  0  0  0  0  0
    9.9509   -0.0833   22.6851 C   0  0  0  0  0  0  0  0  0  0  0  0
   10.3180   -1.4235   21.0016 H   0  0  0  0  0  0  0  0  0  0  0  0
   13.7984    0.4284   22.6772 H   0  0  0  0  0  0  0  0  0  0  0  0
   12.3812    1.8894   23.9983 H   0  0  0  0  0  0  0  0  0  0  0  0
    6.8274    0.3281   23.9559 H   0  0  0  0  0  0  0  0  0  0  0  0
    8.1750   -0.3993   24.8396 H   0  0  0  0  0  0  0  0  0  0  0  0
    6.8239   -2.4418   20.6888 H   0  0  0  0  0  0  0  0  0  0  0  0
    5.8424   -1.7596   21.9700 H   0  0  0  0  0  0  0  0  0  0  0  0
    8.8119   -2.2690   21.9235 H   0  0  0  0  0  0  0  0  0  0  0  0
    7.3834   -3.6314   23.3798 H   0  0  0  0  0  0  0  0  0  0  0  0
    6.7781   -2.1958   24.2098 H   0  0  0  0  0  0  0  0  0  0  0  0
    8.4739   -2.6613   24.3774 H   0  0  0  0  0  0  0  0  0  0  0  0
  1  2  1  0
  2  3  1  0
  3  4  1  0
  4  5  1  0
  5  6  2  0
  6  7  1  0
  7  8  2  0
  8  9  1  0
  9 10  2  0
 10 11  1  0
 11 12  2  0
 12 13  1  0
 13 14  2  0
 13 15  1  0
 12 16  1  0
 11 17  1  0
 10 18  1  0
  8 19  1  0
  6 20  1  0
  4 21  1  0
 21 22  2  0
 21 23  1  0
 23 24  1  1
 24 25  1  0
 25 26  1  0
 26 27  1  0
 27 28  1  0
 28 29  1  0
 29 30  1  0
 30 31  1  0
 31 32  1  0
 32 33  1  0
 33 34  1  0
 33 35  1  0
 32 36  1  0
 32 37  1  0
 30 38  1  0
 30 39  1  0
 29 40  1  0
 29 41  1  0
 28 42  1  0
 27 43  1  0
 27 44  1  0
 26 45  1  0
 26 46  1  0
 25 47  1  0
 47 48  2  0
 47 49  1  0
 49 50  2  0
 50 51  1  0
 51 52  2  0
 52 53  1  0
 52 54  1  0
 54 55  2  0
 54 56  1  0
 51 57  1  0
 50 58  1  0
 24 59  1  0
 24 60  1  0
  3 61  1  0
  3 62  1  0
  2 63  1  6
  1 64  1  0
  1 65  1  0
  1 66  1  0
 23  2  1  0
 33 28  1  0
 55 49  1  0
 14  5  1  0
 55 23  1  0
 14  9  1  0
M  CHG  1  28   1
M  END
>  <cnnaffinities>  (65) 
[6.61502]

>  <score>  (65) 
6.61502

>  <index>  (65) 
64

>  <Smiles>  (65) 
C([C@]1(C(N(c2c(nc(c3c(c(c(c(c23)[H])[H])[H])[H])[H])[H])C(=O)[C@]21C(N(C(C([N+]1(C(C(OC(C1([H])[H])([H])[H])([H])[H])([H])[H])[H])([H])[H])([H])[H])C(=O)c1c(c(c(Cl)c(c21)[H])[H])[H])([H])[H])([H])[H])[H])([H])([H])[H]

>  <h>  (65) 
<NA>

>  <Training>  (65) 
True

>  <Success>  (65) 
True

>  <enamine_searched>  (65) 
False

>  <enamine_id>  (65) 
nan

$$$$

     RDKit          3D

 47 50  0  0  0  0  0  0  0  0999 V2000
    8.3353    1.4972   20.5989 O   0  0  0  0  0  0  0  0  0  0  0  0
    7.7472    0.7744   21.3775 C   0  0  0  0  0  0  0  0  0  0  0  0
    6.9776   -0.4399   20.8343 C   0  0  0  0  0  0  0  0  0  0  0  0
    6.0985    0.0294   19.7048 C   0  0  0  0  0  0  0  0  0  0  0  0
    6.4002   -0.2485   18.4054 C   0  0  0  0  0  0  0  0  0  0  0  0
    5.7125    0.1961   17.3224 N   0  0  0  0  0  0  0  0  0  0  0  0
    4.6841    0.9827   17.5556 C   0  0  0  0  0  0  0  0  0  0  0  0
    4.2647    1.3652   18.8562 C   0  0  0  0  0  0  0  0  0  0  0  0
    3.1491    2.2188   19.0577 C   0  0  0  0  0  0  0  0  0  0  0  0
    2.7634    2.5874   20.3081 C   0  0  0  0  0  0  0  0  0  0  0  0
    3.4705    2.1132   21.4369 C   0  0  0  0  0  0  0  0  0  0  0  0
    4.5607    1.2762   21.2716 C   0  0  0  0  0  0  0  0  0  0  0  0
    4.9853    0.8873   19.9731 C   0  0  0  0  0  0  0  0  0  0  0  0
    5.0784    0.9234   22.1553 H   0  0  0  0  0  0  0  0  0  0  0  0
    3.1653    2.4064   22.4308 H   0  0  0  0  0  0  0  0  0  0  0  0
    1.9127    3.2526   20.4507 H   0  0  0  0  0  0  0  0  0  0  0  0
    2.6236    2.5774   18.1731 H   0  0  0  0  0  0  0  0  0  0  0  0
    4.1307    1.3522   16.6909 H   0  0  0  0  0  0  0  0  0  0  0  0
    7.2582   -0.8870   18.1695 H   0  0  0  0  0  0  0  0  0  0  0  0
    7.7198   -1.1444   20.4394 H   0  0  0  0  0  0  0  0  0  0  0  0
    6.3774   -0.9495   21.5968 H   0  0  0  0  0  0  0  0  0  0  0  0
    7.7163    1.0348   22.7313 N   0  0  0  0  0  0  0  0  0  0  0  0
    7.7310    2.4556   23.0965 C   0  0  0  0  0  0  0  0  0  0  0  0
    8.4086    2.6449   24.4453 C   0  0  0  0  0  0  0  0  0  0  0  0
    7.8731    1.7344   25.5518 C   0  0  1  0  0  0  0  0  0  0  0  0
    6.4742    2.1097   26.0785 C   0  0  0  0  0  0  0  0  0  0  0  0
    6.1385    1.2053   27.2718 C   0  0  0  0  0  0  0  0  0  0  0  0
    6.1306   -0.2337   26.7826 C   0  0  0  0  0  0  0  0  0  0  0  0
    5.8044   -1.0905   27.7922 F   0  0  0  0  0  0  0  0  0  0  0  0
    5.1099   -0.3648   25.8631 F   0  0  0  0  0  0  0  0  0  0  0  0
    7.4555   -0.6704   26.1726 C   0  0  0  0  0  0  0  0  0  0  0  0
    7.9525    0.2735   25.0686 C   0  0  1  0  0  0  0  0  0  0  0  0
    7.2378    0.0751   23.7227 C   0  0  0  0  0  0  0  0  0  0  0  0
    6.1443    0.1529   23.8542 H   0  0  0  0  0  0  0  0  0  0  0  0
    7.4783   -0.9297   23.3481 H   0  0  0  0  0  0  0  0  0  0  0  0
    9.0085    0.0428   24.8617 H   0  0  0  0  0  0  0  0  0  0  0  0
    8.1750   -0.7146   26.9828 H   0  0  0  0  0  0  0  0  0  0  0  0
    7.3284   -1.6935   25.7868 H   0  0  0  0  0  0  0  0  0  0  0  0
    6.8909    1.3042   28.0697 H   0  0  0  0  0  0  0  0  0  0  0  0
    5.1510    1.4076   27.6942 H   0  0  0  0  0  0  0  0  0  0  0  0
    6.4590    3.1652   26.3832 H   0  0  0  0  0  0  0  0  0  0  0  0
    5.7086    1.9641   25.3012 H   0  0  0  0  0  0  0  0  0  0  0  0
    8.5507    1.8196   26.4099 H   0  0  0  0  0  0  0  0  0  0  0  0
    8.3582    3.6934   24.7538 H   0  0  0  0  0  0  0  0  0  0  0  0
    9.4707    2.4253   24.3043 H   0  0  0  0  0  0  0  0  0  0  0  0
    6.6980    2.8559   23.0989 H   0  0  0  0  0  0  0  0  0  0  0  0
    8.3012    2.9692   22.3099 H   0  0  0  0  0  0  0  0  0  0  0  0
  1  2  2  0
  2  3  1  0
  3  4  1  0
  4  5  2  0
  5  6  1  0
  6  7  2  0
  7  8  1  0
  8  9  2  0
  9 10  1  0
 10 11  2  0
 11 12  1  0
 12 13  2  0
 12 14  1  0
 11 15  1  0
 10 16  1  0
  9 17  1  0
  7 18  1  0
  5 19  1  0
  3 20  1  0
  3 21  1  0
  2 22  1  0
 22 23  1  0
 23 24  1  0
 24 25  1  0
 25 26  1  0
 26 27  1  0
 27 28  1  0
 28 29  1  0
 28 30  1  0
 28 31  1  0
 31 32  1  0
 32 33  1  0
 33 34  1  0
 33 35  1  0
 32 36  1  6
 31 37  1  0
 31 38  1  0
 27 39  1  0
 27 40  1  0
 26 41  1  0
 26 42  1  0
 25 43  1  1
 24 44  1  0
 24 45  1  0
 23 46  1  0
 23 47  1  0
 13  4  1  0
 33 22  1  0
 13  8  1  0
 32 25  1  0
M  END
>  <cnnaffinities>  (66) 
[5.23107, 5.59911]

>  <score>  (66) 
5.23107

>  <index>  (66) 
66

>  <Smiles>  (66) 
O=C(C(c1c(nc(c2c(c(c(c(c12)[H])[H])[H])[H])[H])[H])([H])[H])N1C(C([C@]2(C(C(C(F)(F)C([C@]2(C1([H])[H])[H])([H])[H])([H])[H])([H])[H])[H])([H])[H])([H])[H]

>  <h>  (66) 
<NA>

>  <Training>  (66) 
True

>  <Success>  (66) 
True

>  <enamine_searched>  (66) 
False

>  <enamine_id>  (66) 
nan

$$$$

     RDKit          3D

 69 74  0  0  0  0  0  0  0  0999 V2000
    4.5792   -7.8075   24.0004 C   0  0  0  0  0  0  0  0  0  0  0  0
    5.9432   -7.4462   23.5486 N   0  0  0  0  0  4  0  0  0  0  0  0
    6.4048   -6.1075   24.0499 C   0  0  0  0  0  0  0  0  0  0  0  0
    5.7257   -4.9192   23.3449 C   0  0  0  0  0  0  0  0  0  0  0  0
    6.2460   -3.6468   23.8049 N   0  0  0  0  0  0  0  0  0  0  0  0
    7.4405   -3.1118   23.1967 C   0  0  0  0  0  0  0  0  0  0  0  0
    7.3007   -1.6084   22.8745 C   0  0  2  0  0  0  0  0  0  0  0  0
    6.2926   -1.4016   21.7208 C   0  0  0  0  0  0  0  0  0  0  0  0
    5.2073   -1.9269   21.5810 O   0  0  0  0  0  0  0  0  0  0  0  0
    6.8308   -0.4847   20.8456 N   0  0  0  0  0  0  0  0  0  0  0  0
    6.0897    0.0569   19.7751 C   0  0  0  0  0  0  0  0  0  0  0  0
    6.4461   -0.2205   18.4796 C   0  0  0  0  0  0  0  0  0  0  0  0
    5.7818    0.2387   17.3941 N   0  0  0  0  0  0  0  0  0  0  0  0
    4.7473    1.0151   17.6072 C   0  0  0  0  0  0  0  0  0  0  0  0
    4.2905    1.4002   18.8991 C   0  0  0  0  0  0  0  0  0  0  0  0
    3.1738    2.2573   19.0667 C   0  0  0  0  0  0  0  0  0  0  0  0
    2.7790    2.6446   20.3159 C   0  0  0  0  0  0  0  0  0  0  0  0
    3.4834    2.1943   21.4561 C   0  0  0  0  0  0  0  0  0  0  0  0
    4.5658    1.3600   21.3267 C   0  0  0  0  0  0  0  0  0  0  0  0
    4.9845    0.9258   20.0322 C   0  0  0  0  0  0  0  0  0  0  0  0
    5.1020    1.0305   22.2183 H   0  0  0  0  0  0  0  0  0  0  0  0
    3.1613    2.5164   22.4412 H   0  0  0  0  0  0  0  0  0  0  0  0
    1.9325    3.3143   20.4363 H   0  0  0  0  0  0  0  0  0  0  0  0
    2.6668    2.6168   18.1756 H   0  0  0  0  0  0  0  0  0  0  0  0
    4.2163    1.3843   16.7308 H   0  0  0  0  0  0  0  0  0  0  0  0
    7.3006   -0.8681   18.2795 H   0  0  0  0  0  0  0  0  0  0  0  0
    8.1666   -0.0484   21.1570 C   0  0  0  0  0  0  0  0  0  0  0  0
    8.5979   -0.9696   22.3108 C   0  0  2  0  0  0  0  0  0  0  0  0
    9.6695   -1.9803   21.7289 C   0  0  0  0  0  0  0  0  0  0  0  0
   10.5634   -1.3875   21.0797 O   0  0  0  0  0  0  0  0  0  0  0  0
   12.4713   -1.1500   22.4949 C   0  0  0  0  0  0  0  0  0  0  0  0
   12.5629   -1.1940   22.8267 C   0  0  0  0  0  0  0  0  0  0  0  0
   12.9082   -0.8186   20.6606 F   0  0  0  0  0  0  0  0  0  0  0  0
   13.3632    0.8837   23.1386 C   0  0  0  0  0  0  0  0  0  0  0  0
   12.3578    1.5389   22.5220 C   0  0  0  0  0  0  0  0  0  0  0  0
   11.3191    1.4617   22.8681 H   0  0  0  0  0  0  0  0  0  0  0  0
   12.5450    2.3111   21.7681 H   0  0  0  0  0  0  0  0  0  0  0  0
   14.3114    0.6353   22.6863 H   0  0  0  0  0  0  0  0  0  0  0  0
   13.3853    0.8085   24.2293 H   0  0  0  0  0  0  0  0  0  0  0  0
   12.2499   -2.2868   22.3395 H   0  0  0  0  0  0  0  0  0  0  0  0
   11.3865   -0.8016   22.8326 H   0  0  0  0  0  0  0  0  0  0  0  0
    9.1042   -2.7679   21.1156 H   0  0  0  0  0  0  0  0  0  0  0  0
    9.9597   -2.6609   22.5811 H   0  0  0  0  0  0  0  0  0  0  0  0
    9.1005   -0.4123   23.1135 H   0  0  0  0  0  0  0  0  0  0  0  0
    8.2139    1.0246   21.3985 H   0  0  0  0  0  0  0  0  0  0  0  0
    8.8299   -0.2108   20.3090 H   0  0  0  0  0  0  0  0  0  0  0  0
    6.7950   -0.9028   24.1273 C   0  0  0  0  0  0  0  0  0  0  0  0
    6.9863    0.4729   24.3131 C   0  0  0  0  0  0  0  0  0  0  0  0
    6.4837    1.0999   25.4412 C   0  0  0  0  0  0  0  0  0  0  0  0
    6.7393    2.8104   25.6543 Cl  0  0  0  0  0  0  0  0  0  0  0  0
    5.7708    0.3960   26.4092 C   0  0  0  0  0  0  0  0  0  0  0  0
    5.5509   -0.9542   26.2161 C   0  0  0  0  0  0  0  0  0  0  0  0
    6.0431   -1.5990   25.0822 C   0  0  0  0  0  0  0  0  0  0  0  0
    5.6746   -3.0443   24.8853 C   0  0  0  0  0  0  0  0  0  0  0  0
    4.8856   -3.6270   25.6193 O   0  0  0  0  0  0  0  0  0  0  0  0
    4.9764   -1.5475   26.9220 H   0  0  0  0  0  0  0  0  0  0  0  0
    5.3838    0.9113   27.2799 H   0  0  0  0  0  0  0  0  0  0  0  0
    7.5200    1.0775   23.5865 H   0  0  0  0  0  0  0  0  0  0  0  0
    8.2861   -3.2636   23.8777 H   0  0  0  0  0  0  0  0  0  0  0  0
    7.6249   -3.6728   22.2807 H   0  0  0  0  0  0  0  0  0  0  0  0
    4.6493   -4.9039   23.5432 H   0  0  0  0  0  0  0  0  0  0  0  0
    5.8759   -4.9472   22.2542 H   0  0  0  0  0  0  0  0  0  0  0  0
    6.1833   -6.0411   25.1164 H   0  0  0  0  0  0  0  0  0  0  0  0
    7.4853   -6.0627   23.9181 H   0  0  0  0  0  0  0  0  0  0  0  0
    5.9411   -7.4099   22.5006 H   0  0  0  0  0  0  0  0  0  0  0  0
    6.5977   -8.1928   23.8589 H   0  0  0  0  0  0  0  0  0  0  0  0
    4.4952   -7.6904   25.0818 H   0  0  0  0  0  0  0  0  0  0  0  0
    4.3552   -8.8405   23.7458 H   0  0  0  0  0  0  0  0  0  0  0  0
    3.8309   -7.1657   23.5357 H   0  0  0  0  0  0  0  0  0  0  0  0
  1  2  1  0
  2  3  1  0
  3  4  1  0
  4  5  1  0
  5  6  1  0
  7  6  1  1
  7  8  1  0
  8  9  2  0
  8 10  1  0
 10 11  1  0
 11 12  2  0
 12 13  1  0
 13 14  2  0
 14 15  1  0
 15 16  2  0
 16 17  1  0
 17 18  2  0
 18 19  1  0
 19 20  2  0
 19 21  1  0
 18 22  1  0
 17 23  1  0
 16 24  1  0
 14 25  1  0
 12 26  1  0
 10 27  1  0
 27 28  1  0
 28 29  1  0
 29 30  1  0
 30 31  1  0
 31 32  1  0
 32 33  1  0
 32 34  1  0
 34 35  1  0
 35 36  1  0
 35 37  1  0
 34 38  1  0
 34 39  1  0
 31 40  1  0
 31 41  1  0
 29 42  1  0
 29 43  1  0
 28 44  1  1
 27 45  1  0
 27 46  1  0
  7 47  1  0
 47 48  2  0
 48 49  1  0
 49 50  1  0
 49 51  2  0
 51 52  1  0
 52 53  2  0
 53 54  1  0
 54 55  2  0
 52 56  1  0
 51 57  1  0
 48 58  1  0
  6 59  1  0
  6 60  1  0
  4 61  1  0
  4 62  1  0
  3 63  1  0
  3 64  1  0
  2 65  1  0
  2 66  1  0
  1 67  1  0
  1 68  1  0
  1 69  1  0
 54  5  1  0
 28  7  1  0
 35 32  1  0
 53 47  1  0
 20 11  1  0
 20 15  1  0
M  CHG  1   2   1
M  END
>  <cnnaffinities>  (67) 
[6.85785]

>  <score>  (67) 
6.85785

>  <index>  (67) 
67

>  <Smiles>  (67) 
C([N+](C(C(N1C([C@@]2(C(=O)N(c3c(nc(c4c(c(c(c(c34)[H])[H])[H])[H])[H])[H])C([C@@]2(C(OC(C2(F)C(C2([H])[H])([H])[H])([H])[H])([H])[H])[H])([H])[H])c2c(c(Cl)c(c(c2C1=O)[H])[H])[H])([H])[H])([H])[H])([H])[H])([H])[H])([H])([H])[H]

>  <h>  (67) 
<NA>

>  <Training>  (67) 
True

>  <Success>  (67) 
True

>  <enamine_searched>  (67) 
False

>  <enamine_id>  (67) 
nan

$$$$

     RDKit          3D

 57 62  0  0  0  0  0  0  0  0999 V2000
    8.8609   -8.3948   23.7736 C   0  0  0  0  0  0  0  0  0  0  0  0
    7.8449   -7.3333   23.9612 C   0  0  0  0  0  0  0  0  0  0  0  0
    7.5508   -6.3171   23.2069 N   0  0  0  0  0  0  0  0  0  0  0  0
    6.3331   -5.9430   23.7224 C   0  0  0  0  0  0  0  0  0  0  0  0
    5.5801   -4.7665   23.2182 C   0  0  0  0  0  0  0  0  0  0  0  0
    6.1809   -3.5608   23.7308 N   0  0  0  0  0  0  0  0  0  0  0  0
    7.4294   -3.0974   23.1629 C   0  0  0  0  0  0  0  0  0  0  0  0
    7.3223   -1.6038   22.8451 C   0  0  2  0  0  0  0  0  0  0  0  0
    6.3362   -1.4274   21.6701 C   0  0  0  0  0  0  0  0  0  0  0  0
    5.2781   -1.9984   21.4765 O   0  0  0  0  0  0  0  0  0  0  0  0
    6.8716   -0.4947   20.8239 N   0  0  0  0  0  0  0  0  0  0  0  0
    6.1097    0.0569   19.7790 C   0  0  0  0  0  0  0  0  0  0  0  0
    6.4617   -0.2181   18.4844 C   0  0  0  0  0  0  0  0  0  0  0  0
    5.7945    0.2360   17.4021 N   0  0  0  0  0  0  0  0  0  0  0  0
    4.7554    1.0022   17.6258 C   0  0  0  0  0  0  0  0  0  0  0  0
    4.2978    1.3750   18.9214 C   0  0  0  0  0  0  0  0  0  0  0  0
    3.1794    2.2292   19.0795 C   0  0  0  0  0  0  0  0  0  0  0  0
    2.7819    2.6265   20.3236 C   0  0  0  0  0  0  0  0  0  0  0  0
    3.4839    2.1818   21.4679 C   0  0  0  0  0  0  0  0  0  0  0  0
    4.5635    1.3403   21.3493 C   0  0  0  0  0  0  0  0  0  0  0  0
    4.9935    0.9064   20.0551 C   0  0  0  0  0  0  0  0  0  0  0  0
    5.0862    1.0107   22.2489 H   0  0  0  0  0  0  0  0  0  0  0  0
    3.1630    2.5236   22.4472 H   0  0  0  0  0  0  0  0  0  0  0  0
    1.9408    3.3045   20.4328 H   0  0  0  0  0  0  0  0  0  0  0  0
    2.6792    2.5804   18.1812 H   0  0  0  0  0  0  0  0  0  0  0  0
    4.2201    1.3749   16.7536 H   0  0  0  0  0  0  0  0  0  0  0  0
    7.3208   -0.8600   18.2936 H   0  0  0  0  0  0  0  0  0  0  0  0
    8.2098   -0.0594   21.1487 C   0  0  0  0  0  0  0  0  0  0  0  0
    8.6473   -0.9801   22.3026 C   0  0  2  0  0  0  0  0  0  0  0  0
    9.7063   -1.9805   21.8188 C   0  0  0  0  0  0  0  0  0  0  0  0
    9.3279   -2.6224   21.0158 H   0  0  0  0  0  0  0  0  0  0  0  0
   10.0548   -2.6212   22.6327 H   0  0  0  0  0  0  0  0  0  0  0  0
   10.5750   -1.4395   21.4317 H   0  0  0  0  0  0  0  0  0  0  0  0
    9.1117   -0.4016   23.1077 H   0  0  0  0  0  0  0  0  0  0  0  0
    8.8631   -0.1837   20.2866 H   0  0  0  0  0  0  0  0  0  0  0  0
    8.2286    1.0065   21.4141 H   0  0  0  0  0  0  0  0  0  0  0  0
    6.8078   -0.9062   24.1040 C   0  0  0  0  0  0  0  0  0  0  0  0
    7.0230    0.4588   24.3212 C   0  0  0  0  0  0  0  0  0  0  0  0
    6.5496    1.0449   25.4805 C   0  0  0  0  0  0  0  0  0  0  0  0
    6.7769    2.3522   25.6866 F   0  0  0  0  0  0  0  0  0  0  0  0
    5.8566    0.3486   26.4620 C   0  0  0  0  0  0  0  0  0  0  0  0
    5.6275   -0.9895   26.2410 C   0  0  0  0  0  0  0  0  0  0  0  0
    6.0761   -1.5977   25.0757 C   0  0  0  0  0  0  0  0  0  0  0  0
    5.6597   -3.0060   24.8592 C   0  0  0  0  0  0  0  0  0  0  0  0
    4.8704   -3.5920   25.5889 O   0  0  0  0  0  0  0  0  0  0  0  0
    5.0844   -1.6191   26.9346 H   0  0  0  0  0  0  0  0  0  0  0  0
    5.4964    0.8526   27.3496 H   0  0  0  0  0  0  0  0  0  0  0  0
    7.5671    1.0752   23.6148 H   0  0  0  0  0  0  0  0  0  0  0  0
    8.2769   -3.2808   23.8416 H   0  0  0  0  0  0  0  0  0  0  0  0
    7.5990   -3.6711   22.2535 H   0  0  0  0  0  0  0  0  0  0  0  0
    5.5798   -4.7057   22.1238 H   0  0  0  0  0  0  0  0  0  0  0  0
    4.5643   -4.8107   23.6074 H   0  0  0  0  0  0  0  0  0  0  0  0
    5.9283   -6.6309   24.7445 N   0  0  0  0  0  0  0  0  0  0  0  0
    6.9425   -7.5520   24.9193 O   0  0  0  0  0  0  0  0  0  0  0  0
    8.5246   -8.9601   22.9095 H   0  0  0  0  0  0  0  0  0  0  0  0
    8.8112   -9.1006   24.5936 H   0  0  0  0  0  0  0  0  0  0  0  0
    9.8755   -8.0260   23.6291 H   0  0  0  0  0  0  0  0  0  0  0  0
  1  2  1  0
  2  3  2  0
  3  4  1  0
  4  5  1  0
  5  6  1  0
  6  7  1  0
  8  7  1  1
  8  9  1  0
  9 10  2  0
  9 11  1  0
 11 12  1  0
 12 13  2  0
 13 14  1  0
 14 15  2  0
 15 16  1  0
 16 17  2  0
 17 18  1  0
 18 19  2  0
 19 20  1  0
 20 21  2  0
 20 22  1  0
 19 23  1  0
 18 24  1  0
 17 25  1  0
 15 26  1  0
 13 27  1  0
 11 28  1  0
 28 29  1  0
 29 30  1  0
 30 31  1  0
 30 32  1  0
 30 33  1  0
 29 34  1  1
 28 35  1  0
 28 36  1  0
  8 37  1  0
 37 38  2  0
 38 39  1  0
 39 40  1  0
 39 41  2  0
 41 42  1  0
 42 43  2  0
 43 44  1  0
 44 45  2  0
 42 46  1  0
 41 47  1  0
 38 48  1  0
  7 49  1  0
  7 50  1  0
  5 51  1  0
  5 52  1  0
  4 53  2  0
 53 54  1  0
  1 55  1  0
  1 56  1  0
  1 57  1  0
 54  2  1  0
 44  6  1  0
 29  8  1  0
 43 37  1  0
 21 12  1  0
 21 16  1  0
M  END
>  <cnnaffinities>  (68) 
[6.57616, 6.76212]

>  <score>  (68) 
6.57616

>  <index>  (68) 
68

>  <Smiles>  (68) 
C(c1nc(C(N2C([C@@]3(C(=O)N(c4c(nc(c5c(c(c(c(c45)[H])[H])[H])[H])[H])[H])C([C@@]3(C([H])([H])[H])[H])([H])[H])c3c(c(F)c(c(c3C2=O)[H])[H])[H])([H])[H])([H])[H])no1)([H])([H])[H]

>  <h>  (68) 
<NA>

>  <Training>  (68) 
True

>  <Success>  (68) 
True

>  <enamine_searched>  (68) 
False

>  <enamine_id>  (68) 
nan

$$$$

     RDKit          3D

 64 68  0  0  0  0  0  0  0  0999 V2000
    2.5742   -3.6545   29.0713 C   0  0  0  0  0  0  0  0  0  0  0  0
    3.9180   -3.6793   28.3445 C   0  0  0  0  0  0  0  0  0  0  0  0
    3.8079   -3.6789   26.8308 C   0  0  0  0  0  0  0  0  0  0  0  0
    3.4130   -2.7020   26.2388 O   0  0  0  0  0  0  0  0  0  0  0  0
    4.2320   -4.8454   26.1957 N   0  0  0  0  0  0  0  0  0  0  0  0
    4.0557   -6.1605   26.8130 C   0  0  0  0  0  0  0  0  0  0  0  0
    3.5415   -7.1377   25.7680 C   0  0  0  0  0  0  0  0  0  0  0  0
    4.5871   -7.2664   24.6661 C   0  0  0  0  0  0  0  0  0  0  0  0
    5.0623   -5.9197   24.1742 C   0  0  0  0  0  0  0  0  0  0  0  0
    5.6963   -5.8011   22.9410 C   0  0  0  0  0  0  0  0  0  0  0  0
    6.1406   -4.5827   22.4614 C   0  0  0  0  0  0  0  0  0  0  0  0
    5.9493   -3.4434   23.2412 C   0  0  0  0  0  0  0  0  0  0  0  0
    6.4215   -2.1778   22.8058 N   0  0  0  0  0  0  0  0  0  0  0  0
    7.4185   -1.5212   23.6536 C   0  0  0  0  0  0  0  0  0  0  0  0
    8.8441   -1.6734   23.1387 C   0  0  0  0  0  0  0  0  0  0  0  0
    9.4466   -2.9218   22.9660 C   0  0  0  0  0  0  0  0  0  0  0  0
   10.7207   -3.0034   22.3997 C   0  0  0  0  0  0  0  0  0  0  0  0
   11.4158   -1.8596   22.0587 C   0  0  0  0  0  0  0  0  0  0  0  0
   10.8724   -0.6290   22.3772 C   0  0  0  0  0  0  0  0  0  0  0  0
   11.8540    0.7915   22.2117 Cl  0  0  0  0  0  0  0  0  0  0  0  0
    9.5708   -0.5288   22.8585 C   0  0  0  0  0  0  0  0  0  0  0  0
    9.0999    0.4452   22.9438 H   0  0  0  0  0  0  0  0  0  0  0  0
   12.3772   -1.9072   21.5567 H   0  0  0  0  0  0  0  0  0  0  0  0
   11.1662   -3.9643   22.2185 H   0  0  0  0  0  0  0  0  0  0  0  0
    8.9237   -3.8298   23.2440 H   0  0  0  0  0  0  0  0  0  0  0  0
    7.3501   -1.9880   24.6451 H   0  0  0  0  0  0  0  0  0  0  0  0
    7.1899   -0.4485   23.7815 H   0  0  0  0  0  0  0  0  0  0  0  0
    6.0581   -1.7716   21.5298 C   0  0  0  0  0  0  0  0  0  0  0  0
    5.1879   -2.3534   20.8965 O   0  0  0  0  0  0  0  0  0  0  0  0
    6.8130   -0.5801   20.9404 C   0  0  0  0  0  0  0  0  0  0  0  0
    6.0790    0.0484   19.7993 C   0  0  0  0  0  0  0  0  0  0  0  0
    6.4148   -0.2315   18.5024 C   0  0  0  0  0  0  0  0  0  0  0  0
    5.7716    0.2357   17.4024 N   0  0  0  0  0  0  0  0  0  0  0  0
    4.7313    1.0097   17.6033 C   0  0  0  0  0  0  0  0  0  0  0  0
    4.2654    1.3676   18.8946 C   0  0  0  0  0  0  0  0  0  0  0  0
    3.1346    2.1876   19.0930 C   0  0  0  0  0  0  0  0  0  0  0  0
    2.4537    2.5717   17.9998 F   0  0  0  0  0  0  0  0  0  0  0  0
    2.7175    2.5932   20.3239 C   0  0  0  0  0  0  0  0  0  0  0  0
    3.4250    2.1308   21.4495 C   0  0  0  0  0  0  0  0  0  0  0  0
    4.5070    1.2995   21.3181 C   0  0  0  0  0  0  0  0  0  0  0  0
    4.9612    0.8981   20.0350 C   0  0  0  0  0  0  0  0  0  0  0  0
    5.0149    0.9466   22.2100 H   0  0  0  0  0  0  0  0  0  0  0  0
    3.0955    2.4444   22.4341 H   0  0  0  0  0  0  0  0  0  0  0  0
    1.8684    3.2619   20.4135 H   0  0  0  0  0  0  0  0  0  0  0  0
    4.2095    1.3966   16.7292 H   0  0  0  0  0  0  0  0  0  0  0  0
    7.2668   -0.8842   18.3037 H   0  0  0  0  0  0  0  0  0  0  0  0
    7.0087    0.1593   21.7252 H   0  0  0  0  0  0  0  0  0  0  0  0
    7.7782   -0.9698   20.5860 H   0  0  0  0  0  0  0  0  0  0  0  0
    5.3595   -3.5342   24.4879 C   0  0  0  0  0  0  0  0  0  0  0  0
    4.8776   -4.7600   24.9438 C   0  0  0  0  0  0  0  0  0  0  0  0
    5.2384   -2.6365   25.0837 H   0  0  0  0  0  0  0  0  0  0  0  0
    6.6384   -4.4945   21.5031 H   0  0  0  0  0  0  0  0  0  0  0  0
    5.8306   -6.6867   22.3239 H   0  0  0  0  0  0  0  0  0  0  0  0
    5.4466   -7.8374   25.0486 H   0  0  0  0  0  0  0  0  0  0  0  0
    4.1915   -7.8379   23.8185 H   0  0  0  0  0  0  0  0  0  0  0  0
    3.3361   -8.1091   26.2311 H   0  0  0  0  0  0  0  0  0  0  0  0
    2.5989   -6.7585   25.3563 H   0  0  0  0  0  0  0  0  0  0  0  0
    5.0054   -6.5249   27.2369 H   0  0  0  0  0  0  0  0  0  0  0  0
    3.3420   -6.0563   27.6343 H   0  0  0  0  0  0  0  0  0  0  0  0
    4.5457   -4.5144   28.6746 H   0  0  0  0  0  0  0  0  0  0  0  0
    4.4448   -2.7482   28.5802 H   0  0  0  0  0  0  0  0  0  0  0  0
    2.7660   -3.5100   30.1395 H   0  0  0  0  0  0  0  0  0  0  0  0
    2.0044   -4.5834   28.9508 H   0  0  0  0  0  0  0  0  0  0  0  0
    1.9597   -2.8215   28.7130 H   0  0  0  0  0  0  0  0  0  0  0  0
  1  2  1  0
  2  3  1  0
  3  4  2  0
  3  5  1  0
  5  6  1  0
  6  7  1  0
  7  8  1  0
  8  9  1  0
  9 10  2  0
 10 11  1  0
 11 12  2  0
 12 13  1  0
 13 14  1  0
 14 15  1  0
 15 16  2  0
 16 17  1  0
 17 18  2  0
 18 19  1  0
 19 20  1  0
 19 21  2  0
 21 22  1  0
 18 23  1  0
 17 24  1  0
 16 25  1  0
 14 26  1  0
 14 27  1  0
 13 28  1  0
 28 29  2  0
 28 30  1  0
 30 31  1  0
 31 32  2  0
 32 33  1  0
 33 34  2  0
 34 35  1  0
 35 36  2  0
 36 37  1  0
 36 38  1  0
 38 39  2  0
 39 40  1  0
 40 41  2  0
 40 42  1  0
 39 43  1  0
 38 44  1  0
 34 45  1  0
 32 46  1  0
 30 47  1  0
 30 48  1  0
 12 49  1  0
 49 50  2  0
 49 51  1  0
 11 52  1  0
 10 53  1  0
  8 54  1  0
  8 55  1  0
  7 56  1  0
  7 57  1  0
  6 58  1  0
  6 59  1  0
  2 60  1  0
  2 61  1  0
  1 62  1  0
  1 63  1  0
  1 64  1  0
 50  5  1  0
 50  9  1  0
 21 15  1  0
 41 31  1  0
 41 35  1  0
M  END
>  <cnnaffinities>  (69) 
[6.76699, 6.28682]

>  <score>  (69) 
6.76699

>  <index>  (69) 
69

>  <Smiles>  (69) 
C(C(C(=O)N1C(C(C(c2c(c(c(N(C(c3c(c(c(c(Cl)c3[H])[H])[H])[H])([H])[H])C(=O)C(c3c(nc(c4c(F)c(c(c(c34)[H])[H])[H])[H])[H])([H])[H])c(c12)[H])[H])[H])([H])[H])([H])[H])([H])[H])([H])[H])([H])([H])[H]

>  <h>  (69) 
<NA>

>  <Training>  (69) 
True

>  <Success>  (69) 
True

>  <enamine_searched>  (69) 
False

>  <enamine_id>  (69) 
nan

$$$$

     RDKit          3D

 57 62  0  0  0  0  0  0  0  0999 V2000
    9.9564   -1.5429   22.4530 C   0  0  0  0  0  0  0  0  0  0  0  0
    8.5708   -0.9182   22.3675 C   0  0  1  0  0  0  0  0  0  0  0  0
    8.2888   -0.3746   20.9574 C   0  0  0  0  0  0  0  0  0  0  0  0
    6.8465   -0.3993   20.8823 N   0  0  0  0  0  0  0  0  0  0  0  0
    6.1196    0.1127   19.7921 C   0  0  0  0  0  0  0  0  0  0  0  0
    6.4695   -0.1922   18.5023 C   0  0  0  0  0  0  0  0  0  0  0  0
    5.7958    0.2337   17.4082 N   0  0  0  0  0  0  0  0  0  0  0  0
    4.7514    1.0008   17.6063 C   0  0  0  0  0  0  0  0  0  0  0  0
    4.2898    1.3959   18.8928 C   0  0  0  0  0  0  0  0  0  0  0  0
    3.1582    2.2352   19.0513 C   0  0  0  0  0  0  0  0  0  0  0  0
    2.7613    2.6336   20.2978 C   0  0  0  0  0  0  0  0  0  0  0  0
    3.4632    2.1991   21.4451 C   0  0  0  0  0  0  0  0  0  0  0  0
    4.5511    1.3730   21.3198 C   0  0  0  0  0  0  0  0  0  0  0  0
    4.9886    0.9493   20.0318 C   0  0  0  0  0  0  0  0  0  0  0  0
    5.0839    1.0306   22.2018 H   0  0  0  0  0  0  0  0  0  0  0  0
    3.1411    2.5311   22.4280 H   0  0  0  0  0  0  0  0  0  0  0  0
    1.9126    3.3006   20.4128 H   0  0  0  0  0  0  0  0  0  0  0  0
    2.6423    2.5769   18.1576 H   0  0  0  0  0  0  0  0  0  0  0  0
    4.2120    1.3534   16.7260 H   0  0  0  0  0  0  0  0  0  0  0  0
    7.3215   -0.8438   18.3139 H   0  0  0  0  0  0  0  0  0  0  0  0
    6.2859   -1.3581   21.7036 C   0  0  0  0  0  0  0  0  0  0  0  0
    5.1722   -1.8052   21.5409 O   0  0  0  0  0  0  0  0  0  0  0  0
    7.3441   -1.8099   22.7534 C   0  0  1  0  0  0  0  0  0  0  0  0
    7.5142   -3.3287   22.4760 C   0  0  0  0  0  0  0  0  0  0  0  0
    6.2628   -3.9929   22.8130 N   0  0  0  0  0  0  0  0  0  0  0  0
    5.6344   -4.9542   21.9141 C   0  0  0  0  0  0  0  0  0  0  0  0
    6.3215   -6.2655   22.0460 C   0  0  0  0  0  0  0  0  0  0  0  0
    7.3812   -6.5455   21.2667 N   0  0  0  0  0  0  0  0  0  0  0  0
    7.9703   -7.5609   21.8258 N   0  0  0  0  0  0  0  0  0  0  0  0
    7.2686   -7.8490   22.8948 N   0  0  0  0  0  0  0  0  0  0  0  0
    7.6632   -8.9066   23.7774 C   0  0  0  0  0  0  0  0  0  0  0  0
    8.2654   -9.5325   23.1447 H   0  0  0  0  0  0  0  0  0  0  0  0
    6.7847   -9.4243   24.1536 H   0  0  0  0  0  0  0  0  0  0  0  0
    8.2747   -8.5478   24.6004 H   0  0  0  0  0  0  0  0  0  0  0  0
    6.2122   -7.0872   23.0823 N   0  0  0  0  0  0  0  0  0  0  0  0
    5.7075   -4.5815   20.8890 H   0  0  0  0  0  0  0  0  0  0  0  0
    4.5916   -5.0241   22.2175 H   0  0  0  0  0  0  0  0  0  0  0  0
    5.7946   -3.9483   24.0915 C   0  0  0  0  0  0  0  0  0  0  0  0
    4.9846   -4.7708   24.5244 O   0  0  0  0  0  0  0  0  0  0  0  0
    6.2842   -2.7841   24.8724 C   0  0  0  0  0  0  0  0  0  0  0  0
    5.9646   -2.7606   26.2284 C   0  0  0  0  0  0  0  0  0  0  0  0
    6.0154   -1.5805   26.9336 C   0  0  0  0  0  0  0  0  0  0  0  0
    6.4430   -0.4455   26.2506 C   0  0  0  0  0  0  0  0  0  0  0  0
    6.3941    0.7358   26.8936 F   0  0  0  0  0  0  0  0  0  0  0  0
    6.9005   -0.4799   24.9425 C   0  0  0  0  0  0  0  0  0  0  0  0
    6.8665   -1.6830   24.2152 C   0  0  0  0  0  0  0  0  0  0  0  0
    7.2299    0.4547   24.5038 H   0  0  0  0  0  0  0  0  0  0  0  0
    5.6464   -1.5248   27.9502 H   0  0  0  0  0  0  0  0  0  0  0  0
    5.6104   -3.6788   26.6883 H   0  0  0  0  0  0  0  0  0  0  0  0
    7.7140   -3.5227   21.4221 H   0  0  0  0  0  0  0  0  0  0  0  0
    8.3535   -3.7487   23.0540 H   0  0  0  0  0  0  0  0  0  0  0  0
    8.7493   -1.0059   20.1824 H   0  0  0  0  0  0  0  0  0  0  0  0
    8.6627    0.6453   20.8204 H   0  0  0  0  0  0  0  0  0  0  0  0
    8.5445   -0.0527   23.0333 H   0  0  0  0  0  0  0  0  0  0  0  0
   10.1486   -1.9610   23.4442 H   0  0  0  0  0  0  0  0  0  0  0  0
   10.0778   -2.3431   21.7136 H   0  0  0  0  0  0  0  0  0  0  0  0
   10.7174   -0.7814   22.2454 H   0  0  0  0  0  0  0  0  0  0  0  0
  1  2  1  0
  2  3  1  0
  3  4  1  0
  4  5  1  0
  5  6  2  0
  6  7  1  0
  7  8  2  0
  8  9  1  0
  9 10  2  0
 10 11  1  0
 11 12  2  0
 12 13  1  0
 13 14  2  0
 13 15  1  0
 12 16  1  0
 11 17  1  0
 10 18  1  0
  8 19  1  0
  6 20  1  0
  4 21  1  0
 21 22  2  0
 21 23  1  0
 23 24  1  6
 24 25  1  0
 25 26  1  0
 26 27  1  0
 27 28  1  0
 28 29  2  0
 29 30  1  0
 30 31  1  0
 31 32  1  0
 31 33  1  0
 31 34  1  0
 30 35  1  0
 26 36  1  0
 26 37  1  0
 25 38  1  0
 38 39  2  0
 38 40  1  0
 40 41  2  0
 41 42  1  0
 42 43  2  0
 43 44  1  0
 43 45  1  0
 45 46  2  0
 45 47  1  0
 42 48  1  0
 41 49  1  0
 24 50  1  0
 24 51  1  0
  3 52  1  0
  3 53  1  0
  2 54  1  1
  1 55  1  0
  1 56  1  0
  1 57  1  0
 23  2  1  0
 35 27  2  0
 46 40  1  0
 14  5  1  0
 46 23  1  0
 14  9  1  0
M  END
>  <cnnaffinities>  (70) 
[6.61104, 6.21372]

>  <score>  (70) 
6.61104

>  <index>  (70) 
70

>  <Smiles>  (70) 
C([C@]1(C(N(c2c(nc(c3c(c(c(c(c23)[H])[H])[H])[H])[H])[H])C(=O)[C@]21C(N(C(c1nnn(C([H])([H])[H])n1)([H])[H])C(=O)c1c(c(c(F)c(c21)[H])[H])[H])([H])[H])([H])[H])[H])([H])([H])[H]

>  <h>  (70) 
<NA>

>  <Training>  (70) 
True

>  <Success>  (70) 
True

>  <enamine_searched>  (70) 
False

>  <enamine_id>  (70) 
nan

$$$$

     RDKit          3D

 59 64  0  0  0  0  0  0  0  0999 V2000
    9.7188   -1.9698   21.8254 C   0  0  0  0  0  0  0  0  0  0  0  0
    8.6564   -0.9734   22.3155 C   0  0  1  0  0  0  0  0  0  0  0  0
    8.2148   -0.0540   21.1550 C   0  0  0  0  0  0  0  0  0  0  0  0
    6.8737   -0.4854   20.8376 N   0  0  0  0  0  0  0  0  0  0  0  0
    6.1111    0.0596   19.7794 C   0  0  0  0  0  0  0  0  0  0  0  0
    6.4570   -0.2148   18.4815 C   0  0  0  0  0  0  0  0  0  0  0  0
    5.7853    0.2380   17.3976 N   0  0  0  0  0  0  0  0  0  0  0  0
    4.7481    1.0093   17.6111 C   0  0  0  0  0  0  0  0  0  0  0  0
    4.2952    1.3893   18.9059 C   0  0  0  0  0  0  0  0  0  0  0  0
    3.1739    2.2418   19.0711 C   0  0  0  0  0  0  0  0  0  0  0  0
    2.7811    2.6334   20.3195 C   0  0  0  0  0  0  0  0  0  0  0  0
    3.4854    2.1824   21.4599 C   0  0  0  0  0  0  0  0  0  0  0  0
    4.5659    1.3445   21.3323 C   0  0  0  0  0  0  0  0  0  0  0  0
    4.9945    0.9171   20.0387 C   0  0  0  0  0  0  0  0  0  0  0  0
    5.0973    1.0069   22.2233 H   0  0  0  0  0  0  0  0  0  0  0  0
    3.1675    2.5115   22.4448 H   0  0  0  0  0  0  0  0  0  0  0  0
    1.9359    3.3056   20.4406 H   0  0  0  0  0  0  0  0  0  0  0  0
    2.6629    2.5985   18.1803 H   0  0  0  0  0  0  0  0  0  0  0  0
    4.2101    1.3800   16.7373 H   0  0  0  0  0  0  0  0  0  0  0  0
    7.3107   -0.8608   18.2791 H   0  0  0  0  0  0  0  0  0  0  0  0
    6.3499   -1.4120   21.7042 C   0  0  0  0  0  0  0  0  0  0  0  0
    5.2803   -1.9714   21.5515 O   0  0  0  0  0  0  0  0  0  0  0  0
    7.3376   -1.6073   22.8714 C   0  0  1  0  0  0  0  0  0  0  0  0
    7.4562   -3.1192   23.1805 C   0  0  0  0  0  0  0  0  0  0  0  0
    6.2407   -3.6445   23.7824 N   0  0  0  0  0  0  0  0  0  0  0  0
    5.6020   -4.8413   23.2515 C   0  0  0  0  0  0  0  0  0  0  0  0
    6.0877   -6.1156   23.8787 C   0  0  0  0  0  0  0  0  0  0  0  0
    7.3203   -6.5473   23.7173 N   0  0  0  0  0  0  0  0  0  0  0  0
    7.3619   -7.7537   24.3690 C   0  0  0  0  0  0  0  0  0  0  0  0
    6.1442   -8.0478   24.9124 C   0  0  0  0  0  0  0  0  0  0  0  0
    5.3298   -6.9791   24.6211 N   0  0  0  0  0  0  0  0  0  0  0  0
    3.8924   -6.9182   24.8245 C   0  0  0  0  0  0  0  0  0  0  0  0
    3.3910   -7.0360   23.8571 H   0  0  0  0  0  0  0  0  0  0  0  0
    3.6167   -5.9777   25.3065 H   0  0  0  0  0  0  0  0  0  0  0  0
    3.6014   -7.7499   25.4678 H   0  0  0  0  0  0  0  0  0  0  0  0
    5.7565   -8.9195   25.4255 H   0  0  0  0  0  0  0  0  0  0  0  0
    8.2652   -8.3481   24.4042 H   0  0  0  0  0  0  0  0  0  0  0  0
    4.5167   -4.7215   23.3494 H   0  0  0  0  0  0  0  0  0  0  0  0
    5.8290   -4.8694   22.1758 H   0  0  0  0  0  0  0  0  0  0  0  0
    5.6754   -3.0419   24.8705 C   0  0  0  0  0  0  0  0  0  0  0  0
    4.8730   -3.6216   25.5879 O   0  0  0  0  0  0  0  0  0  0  0  0
    6.0698   -1.6086   25.0883 C   0  0  0  0  0  0  0  0  0  0  0  0
    5.6035   -0.9767   26.2414 C   0  0  0  0  0  0  0  0  0  0  0  0
    5.8350    0.3667   26.4596 C   0  0  0  0  0  0  0  0  0  0  0  0
    6.5365    1.0695   25.4886 C   0  0  0  0  0  0  0  0  0  0  0  0
    6.7599    2.3825   25.6868 F   0  0  0  0  0  0  0  0  0  0  0  0
    7.0157    0.4696   24.3371 C   0  0  0  0  0  0  0  0  0  0  0  0
    6.8157   -0.9049   24.1304 C   0  0  0  0  0  0  0  0  0  0  0  0
    7.5541    1.0928   23.6297 H   0  0  0  0  0  0  0  0  0  0  0  0
    5.4752    0.8783   27.3455 H   0  0  0  0  0  0  0  0  0  0  0  0
    5.0445   -1.5687   26.9562 H   0  0  0  0  0  0  0  0  0  0  0  0
    7.6333   -3.6807   22.2631 H   0  0  0  0  0  0  0  0  0  0  0  0
    8.3170   -3.2781   23.8468 H   0  0  0  0  0  0  0  0  0  0  0  0
    8.8673   -0.1761   20.2894 H   0  0  0  0  0  0  0  0  0  0  0  0
    8.2392    1.0124   21.4209 H   0  0  0  0  0  0  0  0  0  0  0  0
    9.1336   -0.3825   23.1044 H   0  0  0  0  0  0  0  0  0  0  0  0
    9.3402   -2.6094   21.0197 H   0  0  0  0  0  0  0  0  0  0  0  0
   10.0748   -2.6114   22.6360 H   0  0  0  0  0  0  0  0  0  0  0  0
   10.5898   -1.4297   21.4360 H   0  0  0  0  0  0  0  0  0  0  0  0
  1  2  1  0
  2  3  1  0
  3  4  1  0
  4  5  1  0
  5  6  2  0
  6  7  1  0
  7  8  2  0
  8  9  1  0
  9 10  2  0
 10 11  1  0
 11 12  2  0
 12 13  1  0
 13 14  2  0
 13 15  1  0
 12 16  1  0
 11 17  1  0
 10 18  1  0
  8 19  1  0
  6 20  1  0
  4 21  1  0
 21 22  2  0
 21 23  1  0
 23 24  1  1
 24 25  1  0
 25 26  1  0
 26 27  1  0
 27 28  2  0
 28 29  1  0
 29 30  2  0
 30 31  1  0
 31 32  1  0
 32 33  1  0
 32 34  1  0
 32 35  1  0
 30 36  1  0
 29 37  1  0
 26 38  1  0
 26 39  1  0
 25 40  1  0
 40 41  2  0
 40 42  1  0
 42 43  2  0
 43 44  1  0
 44 45  2  0
 45 46  1  0
 45 47  1  0
 47 48  2  0
 47 49  1  0
 44 50  1  0
 43 51  1  0
 24 52  1  0
 24 53  1  0
  3 54  1  0
  3 55  1  0
  2 56  1  1
  1 57  1  0
  1 58  1  0
  1 59  1  0
 23  2  1  0
 31 27  1  0
 48 42  1  0
 14  5  1  0
 48 23  1  0
 14  9  1  0
M  END
>  <cnnaffinities>  (71) 
[6.33973]

>  <score>  (71) 
6.33973

>  <index>  (71) 
71

>  <Smiles>  (71) 
C([C@]1(C(N(c2c(nc(c3c(c(c(c(c23)[H])[H])[H])[H])[H])[H])C(=O)[C@]21C(N(C(c1nc(c(n1C([H])([H])[H])[H])[H])([H])[H])C(=O)c1c(c(c(F)c(c21)[H])[H])[H])([H])[H])([H])[H])[H])([H])([H])[H]

>  <h>  (71) 
<NA>

>  <Training>  (71) 
True

>  <Success>  (71) 
True

>  <enamine_searched>  (71) 
False

>  <enamine_id>  (71) 
nan

$$$$

     RDKit          3D

 60 64  0  0  0  0  0  0  0  0999 V2000
    8.7928   -7.2724   23.7375 C   0  0  0  0  0  0  0  0  0  0  0  0
    7.7595   -6.4747   23.0995 N   0  0  0  0  0  0  0  0  0  0  0  0
    6.6683   -6.1370   23.8561 C   0  0  0  0  0  0  0  0  0  0  0  0
    6.3922   -6.7096   24.8981 O   0  0  0  0  0  0  0  0  0  0  0  0
    5.8365   -4.9689   23.3118 C   0  0  0  0  0  0  0  0  0  0  0  0
    6.3616   -3.6988   23.7844 N   0  0  0  0  0  0  0  0  0  0  0  0
    7.5322   -3.1084   23.1461 C   0  0  0  0  0  0  0  0  0  0  0  0
    7.3148   -1.6065   22.8528 C   0  0  2  0  0  0  0  0  0  0  0  0
    6.3347   -1.4479   21.6738 C   0  0  0  0  0  0  0  0  0  0  0  0
    5.3030   -2.0534   21.4796 O   0  0  0  0  0  0  0  0  0  0  0  0
    6.8358   -0.4775   20.8428 N   0  0  0  0  0  0  0  0  0  0  0  0
    6.0839    0.0523   19.7814 C   0  0  0  0  0  0  0  0  0  0  0  0
    6.4530   -0.2151   18.4897 C   0  0  0  0  0  0  0  0  0  0  0  0
    5.7905    0.2398   17.4030 N   0  0  0  0  0  0  0  0  0  0  0  0
    4.7490    1.0055   17.6189 C   0  0  0  0  0  0  0  0  0  0  0  0
    4.2871    1.3809   18.9118 C   0  0  0  0  0  0  0  0  0  0  0  0
    3.1688    2.2344   19.0732 C   0  0  0  0  0  0  0  0  0  0  0  0
    2.7767    2.6291   20.3197 C   0  0  0  0  0  0  0  0  0  0  0  0
    3.4784    2.1852   21.4653 C   0  0  0  0  0  0  0  0  0  0  0  0
    4.5575    1.3436   21.3439 C   0  0  0  0  0  0  0  0  0  0  0  0
    4.9764    0.9115   20.0472 C   0  0  0  0  0  0  0  0  0  0  0  0
    5.0936    1.0174   22.2378 H   0  0  0  0  0  0  0  0  0  0  0  0
    3.1583    2.5221   22.4459 H   0  0  0  0  0  0  0  0  0  0  0  0
    1.9341    3.3040   20.4349 H   0  0  0  0  0  0  0  0  0  0  0  0
    2.6651    2.5863   18.1774 H   0  0  0  0  0  0  0  0  0  0  0  0
    4.2152    1.3756   16.7448 H   0  0  0  0  0  0  0  0  0  0  0  0
    7.3184   -0.8488   18.2976 H   0  0  0  0  0  0  0  0  0  0  0  0
    8.1552    0.0019   21.1603 C   0  0  0  0  0  0  0  0  0  0  0  0
    8.5922   -0.8729   22.3444 C   0  0  2  0  0  0  0  0  0  0  0  0
    9.6542   -1.7458   21.9412 N   0  0  0  0  0  0  0  0  0  0  0  0
   10.7660   -1.9570   22.7066 C   0  0  0  0  0  0  0  0  0  0  0  0
   10.9558   -1.3697   23.7562 O   0  0  0  0  0  0  0  0  0  0  0  0
   11.6408   -3.0194   22.1095 C   0  0  0  0  0  0  0  0  0  0  0  0
   11.0191   -3.9083   22.0249 H   0  0  0  0  0  0  0  0  0  0  0  0
   12.5148   -3.2230   22.7228 H   0  0  0  0  0  0  0  0  0  0  0  0
   11.9246   -2.7353   21.0912 H   0  0  0  0  0  0  0  0  0  0  0  0
    9.5801   -2.1869   21.0384 H   0  0  0  0  0  0  0  0  0  0  0  0
    9.0231   -0.2815   23.1502 H   0  0  0  0  0  0  0  0  0  0  0  0
    8.1539    1.0762   21.3918 H   0  0  0  0  0  0  0  0  0  0  0  0
    8.8303   -0.1374   20.3138 H   0  0  0  0  0  0  0  0  0  0  0  0
    6.7763   -0.9468   24.1124 C   0  0  0  0  0  0  0  0  0  0  0  0
    6.9454    0.4281   24.3296 C   0  0  0  0  0  0  0  0  0  0  0  0
    6.4589    1.0167   25.4834 C   0  0  0  0  0  0  0  0  0  0  0  0
    6.7158    2.7212   25.7367 Cl  0  0  0  0  0  0  0  0  0  0  0  0
    5.7897    0.2757   26.4561 C   0  0  0  0  0  0  0  0  0  0  0  0
    5.5990   -1.0718   26.2335 C   0  0  0  0  0  0  0  0  0  0  0  0
    6.0739   -1.6754   25.0725 C   0  0  0  0  0  0  0  0  0  0  0  0
    5.7394   -3.1108   24.8546 C   0  0  0  0  0  0  0  0  0  0  0  0
    4.9251   -3.6992   25.5528 O   0  0  0  0  0  0  0  0  0  0  0  0
    5.0677   -1.6944   26.9433 H   0  0  0  0  0  0  0  0  0  0  0  0
    5.4219    0.7585   27.3544 H   0  0  0  0  0  0  0  0  0  0  0  0
    7.4772    1.0461   23.6114 H   0  0  0  0  0  0  0  0  0  0  0  0
    8.4345   -3.2275   23.7615 H   0  0  0  0  0  0  0  0  0  0  0  0
    7.6922   -3.6388   22.2055 H   0  0  0  0  0  0  0  0  0  0  0  0
    4.8277   -5.0594   23.7222 H   0  0  0  0  0  0  0  0  0  0  0  0
    5.7897   -4.9611   22.2078 H   0  0  0  0  0  0  0  0  0  0  0  0
    8.0147   -5.8789   22.3200 H   0  0  0  0  0  0  0  0  0  0  0  0
    9.3718   -6.6643   24.4407 H   0  0  0  0  0  0  0  0  0  0  0  0
    8.3112   -8.0746   24.3061 H   0  0  0  0  0  0  0  0  0  0  0  0
    9.4752   -7.6756   22.9881 H   0  0  0  0  0  0  0  0  0  0  0  0
  1  2  1  0
  2  3  1  0
  3  4  2  0
  3  5  1  0
  5  6  1  0
  6  7  1  0
  8  7  1  1
  8  9  1  0
  9 10  2  0
  9 11  1  0
 11 12  1  0
 12 13  2  0
 13 14  1  0
 14 15  2  0
 15 16  1  0
 16 17  2  0
 17 18  1  0
 18 19  2  0
 19 20  1  0
 20 21  2  0
 20 22  1  0
 19 23  1  0
 18 24  1  0
 17 25  1  0
 15 26  1  0
 13 27  1  0
 11 28  1  0
 28 29  1  0
 29 30  1  0
 30 31  1  0
 31 32  2  0
 31 33  1  0
 33 34  1  0
 33 35  1  0
 33 36  1  0
 30 37  1  0
 29 38  1  1
 28 39  1  0
 28 40  1  0
  8 41  1  0
 41 42  2  0
 42 43  1  0
 43 44  1  0
 43 45  2  0
 45 46  1  0
 46 47  2  0
 47 48  1  0
 48 49  2  0
 46 50  1  0
 45 51  1  0
 42 52  1  0
  7 53  1  0
  7 54  1  0
  5 55  1  0
  5 56  1  0
  2 57  1  0
  1 58  1  0
  1 59  1  0
  1 60  1  0
 48  6  1  0
 29  8  1  0
 47 41  1  0
 21 12  1  0
 21 16  1  0
M  END
>  <cnnaffinities>  (72) 
[6.47203]

>  <score>  (72) 
6.47203

>  <index>  (72) 
72

>  <Smiles>  (72) 
C(N(C(=O)C(N1C([C@@]2(C(=O)N(c3c(nc(c4c(c(c(c(c34)[H])[H])[H])[H])[H])[H])C([C@@]2(N(C(=O)C([H])([H])[H])[H])[H])([H])[H])c2c(c(Cl)c(c(c2C1=O)[H])[H])[H])([H])[H])([H])[H])[H])([H])([H])[H]

>  <h>  (72) 
<NA>

>  <Training>  (72) 
True

>  <Success>  (72) 
True

>  <enamine_searched>  (72) 
False

>  <enamine_id>  (72) 
nan

$$$$

     RDKit          3D

 56 61  0  0  0  0  0  0  0  0999 V2000
    9.7558   -1.9551   21.8512 C   0  0  0  0  0  0  0  0  0  0  0  0
    8.6657   -0.9735   22.3200 C   0  0  1  0  0  0  0  0  0  0  0  0
    8.2188   -0.0750   21.1425 C   0  0  0  0  0  0  0  0  0  0  0  0
    6.8637   -0.4867   20.8433 N   0  0  0  0  0  0  0  0  0  0  0  0
    6.1037    0.0583   19.7772 C   0  0  0  0  0  0  0  0  0  0  0  0
    6.4436   -0.2218   18.4771 C   0  0  0  0  0  0  0  0  0  0  0  0
    5.7773    0.2396   17.3925 N   0  0  0  0  0  0  0  0  0  0  0  0
    4.7462    1.0211   17.6025 C   0  0  0  0  0  0  0  0  0  0  0  0
    4.2916    1.4060   18.8955 C   0  0  0  0  0  0  0  0  0  0  0  0
    3.1735    2.2655   19.0630 C   0  0  0  0  0  0  0  0  0  0  0  0
    2.7787    2.6511   20.3142 C   0  0  0  0  0  0  0  0  0  0  0  0
    3.4859    2.1973   21.4505 C   0  0  0  0  0  0  0  0  0  0  0  0
    4.5686    1.3642   21.3182 C   0  0  0  0  0  0  0  0  0  0  0  0
    4.9909    0.9286   20.0261 C   0  0  0  0  0  0  0  0  0  0  0  0
    5.1054    1.0287   22.2050 H   0  0  0  0  0  0  0  0  0  0  0  0
    3.1646    2.5116   22.4382 H   0  0  0  0  0  0  0  0  0  0  0  0
    1.9303    3.3180   20.4379 H   0  0  0  0  0  0  0  0  0  0  0  0
    2.6630    2.6281   18.1748 H   0  0  0  0  0  0  0  0  0  0  0  0
    4.2162    1.3855   16.7233 H   0  0  0  0  0  0  0  0  0  0  0  0
    7.2911   -0.8724   18.2663 H   0  0  0  0  0  0  0  0  0  0  0  0
    6.3247   -1.3798   21.7407 C   0  0  0  0  0  0  0  0  0  0  0  0
    5.2178   -1.8665   21.6468 O   0  0  0  0  0  0  0  0  0  0  0  0
    7.3497   -1.6209   22.8732 C   0  0  1  0  0  0  0  0  0  0  0  0
    7.4856   -3.1343   23.1491 C   0  0  0  0  0  0  0  0  0  0  0  0
    6.2881   -3.6840   23.7514 N   0  0  0  0  0  0  0  0  0  0  0  0
    5.6550   -4.8398   23.1457 C   0  0  0  0  0  0  0  0  0  0  0  0
    4.0985   -4.8367   23.0411 C   0  0  0  0  0  0  0  0  0  0  0  0
    3.9988   -6.0491   23.9650 N   0  0  0  0  0  4  0  0  0  0  0  0
    5.5226   -6.1246   24.0176 C   0  0  0  0  0  0  0  0  0  0  0  0
    5.8913   -7.0490   23.5801 H   0  0  0  0  0  0  0  0  0  0  0  0
    5.8910   -6.0315   25.0338 H   0  0  0  0  0  0  0  0  0  0  0  0
    3.5169   -6.8831   23.5802 H   0  0  0  0  0  0  0  0  0  0  0  0
    3.6139   -5.7810   24.8933 H   0  0  0  0  0  0  0  0  0  0  0  0
    3.6061   -3.9624   23.4574 H   0  0  0  0  0  0  0  0  0  0  0  0
    3.6790   -5.0448   22.0602 H   0  0  0  0  0  0  0  0  0  0  0  0
    6.1689   -4.9667   22.1835 H   0  0  0  0  0  0  0  0  0  0  0  0
    5.7548   -3.1259   24.8816 C   0  0  0  0  0  0  0  0  0  0  0  0
    4.9889   -3.7490   25.6168 O   0  0  0  0  0  0  0  0  0  0  0  0
    6.1107   -1.6813   25.1089 C   0  0  0  0  0  0  0  0  0  0  0  0
    5.6293   -1.0436   26.2551 C   0  0  0  0  0  0  0  0  0  0  0  0
    5.8250    0.3127   26.4449 C   0  0  0  0  0  0  0  0  0  0  0  0
    6.4975    1.0422   25.4666 C   0  0  0  0  0  0  0  0  0  0  0  0
    6.7110    2.7590   25.6844 Cl  0  0  0  0  0  0  0  0  0  0  0  0
    6.9932    0.4286   24.3289 C   0  0  0  0  0  0  0  0  0  0  0  0
    6.8351   -0.9543   24.1499 C   0  0  0  0  0  0  0  0  0  0  0  0
    7.4871    1.0489   23.5854 H   0  0  0  0  0  0  0  0  0  0  0  0
    5.4488    0.8175   27.3266 H   0  0  0  0  0  0  0  0  0  0  0  0
    5.0806   -1.6405   26.9765 H   0  0  0  0  0  0  0  0  0  0  0  0
    7.6707   -3.6553   22.2078 H   0  0  0  0  0  0  0  0  0  0  0  0
    8.3419   -3.2882   23.8210 H   0  0  0  0  0  0  0  0  0  0  0  0
    8.2572    0.9971   21.3867 H   0  0  0  0  0  0  0  0  0  0  0  0
    8.8632   -0.2333   20.2754 H   0  0  0  0  0  0  0  0  0  0  0  0
    9.1195   -0.3691   23.1149 H   0  0  0  0  0  0  0  0  0  0  0  0
   10.6184   -1.4004   21.4647 H   0  0  0  0  0  0  0  0  0  0  0  0
    9.3978   -2.6097   21.0476 H   0  0  0  0  0  0  0  0  0  0  0  0
   10.1189   -2.5824   22.6701 H   0  0  0  0  0  0  0  0  0  0  0  0
  1  2  1  0
  2  3  1  0
  3  4  1  0
  4  5  1  0
  5  6  2  0
  6  7  1  0
  7  8  2  0
  8  9  1  0
  9 10  2  0
 10 11  1  0
 11 12  2  0
 12 13  1  0
 13 14  2  0
 13 15  1  0
 12 16  1  0
 11 17  1  0
 10 18  1  0
  8 19  1  0
  6 20  1  0
  4 21  1  0
 21 22  2  0
 21 23  1  0
 23 24  1  1
 24 25  1  0
 25 26  1  0
 26 27  1  0
 27 28  1  0
 28 29  1  0
 29 30  1  0
 29 31  1  0
 28 32  1  0
 28 33  1  0
 27 34  1  0
 27 35  1  0
 26 36  1  0
 25 37  1  0
 37 38  2  0
 37 39  1  0
 39 40  2  0
 40 41  1  0
 41 42  2  0
 42 43  1  0
 42 44  1  0
 44 45  2  0
 44 46  1  0
 41 47  1  0
 40 48  1  0
 24 49  1  0
 24 50  1  0
  3 51  1  0
  3 52  1  0
  2 53  1  1
  1 54  1  0
  1 55  1  0
  1 56  1  0
 23  2  1  0
 29 26  1  0
 45 39  1  0
 14  5  1  0
 45 23  1  0
 14  9  1  0
M  CHG  1  28   1
M  END
>  <cnnaffinities>  (73) 
[6.15629]

>  <score>  (73) 
6.15629

>  <index>  (73) 
73

>  <Smiles>  (73) 
C([C@]1(C(N(c2c(nc(c3c(c(c(c(c23)[H])[H])[H])[H])[H])[H])C(=O)[C@]21C(N(C1(C([N+](C1([H])[H])([H])[H])([H])[H])[H])C(=O)c1c(c(c(Cl)c(c21)[H])[H])[H])([H])[H])([H])[H])[H])([H])([H])[H]

>  <h>  (73) 
<NA>

>  <Training>  (73) 
True

>  <Success>  (73) 
True

>  <enamine_searched>  (73) 
False

>  <enamine_id>  (73) 
nan

$$$$

     RDKit          3D

 55 60  0  0  0  0  0  0  0  0999 V2000
    9.7330   -1.9892   21.8202 C   0  0  0  0  0  0  0  0  0  0  0  0
    8.6636   -0.9936   22.3057 C   0  0  1  0  0  0  0  0  0  0  0  0
    8.2169   -0.0812   21.1410 C   0  0  0  0  0  0  0  0  0  0  0  0
    6.8611   -0.4888   20.8389 N   0  0  0  0  0  0  0  0  0  0  0  0
    6.1021    0.0568   19.7763 C   0  0  0  0  0  0  0  0  0  0  0  0
    6.4472   -0.2239   18.4775 C   0  0  0  0  0  0  0  0  0  0  0  0
    5.7835    0.2374   17.3955 N   0  0  0  0  0  0  0  0  0  0  0  0
    4.7518    1.0159   17.6094 C   0  0  0  0  0  0  0  0  0  0  0  0
    4.2926    1.3981   18.9025 C   0  0  0  0  0  0  0  0  0  0  0  0
    3.1755    2.2580   19.0679 C   0  0  0  0  0  0  0  0  0  0  0  0
    2.7802    2.6473   20.3176 C   0  0  0  0  0  0  0  0  0  0  0  0
    3.4846    2.1965   21.4549 C   0  0  0  0  0  0  0  0  0  0  0  0
    4.5649    1.3583   21.3249 C   0  0  0  0  0  0  0  0  0  0  0  0
    4.9889    0.9209   20.0338 C   0  0  0  0  0  0  0  0  0  0  0  0
    5.0989    1.0227   22.2143 H   0  0  0  0  0  0  0  0  0  0  0  0
    3.1635    2.5157   22.4432 H   0  0  0  0  0  0  0  0  0  0  0  0
    1.9300    3.3152   20.4353 H   0  0  0  0  0  0  0  0  0  0  0  0
    2.6685    2.6162   18.1760 H   0  0  0  0  0  0  0  0  0  0  0  0
    4.2214    1.3808   16.7312 H   0  0  0  0  0  0  0  0  0  0  0  0
    7.2982   -0.8733   18.2716 H   0  0  0  0  0  0  0  0  0  0  0  0
    6.3178   -1.3889   21.7252 C   0  0  0  0  0  0  0  0  0  0  0  0
    5.2245   -1.8941   21.6095 O   0  0  0  0  0  0  0  0  0  0  0  0
    7.3425   -1.6153   22.8628 C   0  0  1  0  0  0  0  0  0  0  0  0
    7.4408   -3.1190   23.1478 C   0  0  0  0  0  0  0  0  0  0  0  0
    6.2022   -3.5865   23.7196 N   0  0  0  0  0  0  0  0  0  0  0  0
    5.6968   -4.8449   23.2469 C   0  0  0  0  0  0  0  0  0  0  0  0
    6.4644   -5.9962   23.8138 C   0  0  0  0  0  0  0  0  0  0  0  0
    7.6842   -6.5869   23.3741 C   0  0  0  0  0  0  0  0  0  0  0  0
    7.8258   -7.6551   24.1954 C   0  0  0  0  0  0  0  0  0  0  0  0
    6.8140   -7.6901   25.0650 O   0  0  0  0  0  0  0  0  0  0  0  0
    5.9718   -6.6403   24.8368 N   0  0  0  0  0  0  0  0  0  0  0  0
    8.5451   -8.4498   24.2979 H   0  0  0  0  0  0  0  0  0  0  0  0
    8.2975   -6.2770   22.5569 H   0  0  0  0  0  0  0  0  0  0  0  0
    4.6526   -4.9066   23.5668 H   0  0  0  0  0  0  0  0  0  0  0  0
    5.7530   -4.8274   22.1504 H   0  0  0  0  0  0  0  0  0  0  0  0
    5.6862   -3.0481   24.8668 C   0  0  0  0  0  0  0  0  0  0  0  0
    4.9232   -3.6432   25.6058 O   0  0  0  0  0  0  0  0  0  0  0  0
    6.0938   -1.6342   25.0964 C   0  0  0  0  0  0  0  0  0  0  0  0
    5.6117   -1.0197   26.2492 C   0  0  0  0  0  0  0  0  0  0  0  0
    5.8395    0.3279   26.4455 C   0  0  0  0  0  0  0  0  0  0  0  0
    6.5422    1.0333   25.4752 C   0  0  0  0  0  0  0  0  0  0  0  0
    6.7469    2.3494   25.6620 F   0  0  0  0  0  0  0  0  0  0  0  0
    7.0379    0.4358   24.3322 C   0  0  0  0  0  0  0  0  0  0  0  0
    6.8407   -0.9361   24.1388 C   0  0  0  0  0  0  0  0  0  0  0  0
    7.5596    1.0561   23.6104 H   0  0  0  0  0  0  0  0  0  0  0  0
    5.4662    0.8489   27.3160 H   0  0  0  0  0  0  0  0  0  0  0  0
    5.0402   -1.6419   26.9355 H   0  0  0  0  0  0  0  0  0  0  0  0
    7.5962   -3.6709   22.2170 H   0  0  0  0  0  0  0  0  0  0  0  0
    8.2836   -3.3044   23.8366 H   0  0  0  0  0  0  0  0  0  0  0  0
    8.2445    0.9862   21.4037 H   0  0  0  0  0  0  0  0  0  0  0  0
    8.8620   -0.2288   20.2743 H   0  0  0  0  0  0  0  0  0  0  0  0
    9.1286   -0.4057   23.1079 H   0  0  0  0  0  0  0  0  0  0  0  0
   10.5974   -1.4414   21.4271 H   0  0  0  0  0  0  0  0  0  0  0  0
    9.3563   -2.6351   21.0171 H   0  0  0  0  0  0  0  0  0  0  0  0
   10.0958   -2.6264   22.6329 H   0  0  0  0  0  0  0  0  0  0  0  0
  1  2  1  0
  2  3  1  0
  3  4  1  0
  4  5  1  0
  5  6  2  0
  6  7  1  0
  7  8  2  0
  8  9  1  0
  9 10  2  0
 10 11  1  0
 11 12  2  0
 12 13  1  0
 13 14  2  0
 13 15  1  0
 12 16  1  0
 11 17  1  0
 10 18  1  0
  8 19  1  0
  6 20  1  0
  4 21  1  0
 21 22  2  0
 21 23  1  0
 23 24  1  1
 24 25  1  0
 25 26  1  0
 26 27  1  0
 27 28  1  0
 28 29  2  0
 29 30  1  0
 30 31  1  0
 29 32  1  0
 28 33  1  0
 26 34  1  0
 26 35  1  0
 25 36  1  0
 36 37  2  0
 36 38  1  0
 38 39  2  0
 39 40  1  0
 40 41  2  0
 41 42  1  0
 41 43  1  0
 43 44  2  0
 43 45  1  0
 40 46  1  0
 39 47  1  0
 24 48  1  0
 24 49  1  0
  3 50  1  0
  3 51  1  0
  2 52  1  1
  1 53  1  0
  1 54  1  0
  1 55  1  0
 23  2  1  0
 31 27  2  0
 44 38  1  0
 14  5  1  0
 44 23  1  0
 14  9  1  0
M  END
>  <cnnaffinities>  (74) 
[6.34642]

>  <score>  (74) 
6.34642

>  <index>  (74) 
74

>  <Smiles>  (74) 
C([C@]1(C(N(c2c(nc(c3c(c(c(c(c23)[H])[H])[H])[H])[H])[H])C(=O)[C@]21C(N(C(c1c(c(on1)[H])[H])([H])[H])C(=O)c1c(c(c(F)c(c21)[H])[H])[H])([H])[H])([H])[H])[H])([H])([H])[H]

>  <h>  (74) 
<NA>

>  <Training>  (74) 
True

>  <Success>  (74) 
True

>  <enamine_searched>  (74) 
False

>  <enamine_id>  (74) 
nan

$$$$

     RDKit          3D

 70 75  0  0  0  0  0  0  0  0999 V2000
    7.5107    0.4522   34.0346 C   0  0  0  0  0  0  0  0  0  0  0  0
    7.8079    0.9950   32.7656 O   0  0  0  0  0  0  0  0  0  0  0  0
    6.8141    0.9882   31.8365 C   0  0  0  0  0  0  0  0  0  0  0  0
    5.5358    0.4794   32.0558 C   0  0  0  0  0  0  0  0  0  0  0  0
    4.6216    0.4945   31.0045 C   0  0  0  0  0  0  0  0  0  0  0  0
    4.9592    1.0157   29.7650 C   0  0  0  0  0  0  0  0  0  0  0  0
    6.2296    1.5519   29.5542 C   0  0  0  0  0  0  0  0  0  0  0  0
    6.6092    2.1256   28.1950 C   0  0  0  0  0  0  0  0  0  0  0  0
    6.7315    1.1117   27.1529 N   0  0  0  0  0  0  0  0  0  0  0  0
    7.7013    0.1698   27.2983 C   0  0  0  0  0  0  0  0  0  0  0  0
    8.3554    0.1243   28.3227 O   0  0  0  0  0  0  0  0  0  0  0  0
    7.8426   -0.8268   26.1402 C   0  0  0  0  0  0  0  0  0  0  0  0
    8.6119   -0.3937   24.9750 N   0  0  0  0  0  0  0  0  0  0  0  0
    7.8717   -0.0502   23.7699 C   0  0  0  0  0  0  0  0  0  0  0  0
    8.5155   -0.5875   22.4691 C   0  0  2  0  0  0  0  0  0  0  0  0
    7.9300    0.2876   21.3526 C   0  0  0  0  0  0  0  0  0  0  0  0
    8.2433    1.4208   21.0520 O   0  0  0  0  0  0  0  0  0  0  0  0
    6.8834   -0.4114   20.7896 N   0  0  0  0  0  0  0  0  0  0  0  0
    6.1185    0.1338   19.7334 C   0  0  0  0  0  0  0  0  0  0  0  0
    6.4372   -0.1791   18.4378 C   0  0  0  0  0  0  0  0  0  0  0  0
    5.7491    0.2551   17.3552 N   0  0  0  0  0  0  0  0  0  0  0  0
    4.7110    1.0246   17.5694 C   0  0  0  0  0  0  0  0  0  0  0  0
    4.2626    1.4176   18.8635 C   0  0  0  0  0  0  0  0  0  0  0  0
    3.1260    2.2480   19.0425 C   0  0  0  0  0  0  0  0  0  0  0  0
    2.7175    2.6026   20.2981 C   0  0  0  0  0  0  0  0  0  0  0  0
    3.4223    2.1424   21.4326 C   0  0  0  0  0  0  0  0  0  0  0  0
    4.5296    1.3447   21.2856 C   0  0  0  0  0  0  0  0  0  0  0  0
    4.9807    0.9617   19.9919 C   0  0  0  0  0  0  0  0  0  0  0  0
    5.0710    1.0016   22.1623 H   0  0  0  0  0  0  0  0  0  0  0  0
    3.0869    2.4259   22.4254 H   0  0  0  0  0  0  0  0  0  0  0  0
    1.8515    3.2451   20.4294 H   0  0  0  0  0  0  0  0  0  0  0  0
    2.6095    2.6118   18.1585 H   0  0  0  0  0  0  0  0  0  0  0  0
    4.1663    1.3741   16.6924 H   0  0  0  0  0  0  0  0  0  0  0  0
    7.2993   -0.8160   18.2407 H   0  0  0  0  0  0  0  0  0  0  0  0
    6.7305   -1.7728   21.2682 C   0  0  0  0  0  0  0  0  0  0  0  0
    8.0491   -2.0045   22.0106 C   0  0  2  0  0  0  0  0  0  0  0  0
    8.0583   -3.0834   23.0840 C   0  0  0  0  0  0  0  0  0  0  0  0
    7.2944   -2.9010   23.8490 H   0  0  0  0  0  0  0  0  0  0  0  0
    7.8817   -4.0711   22.6442 H   0  0  0  0  0  0  0  0  0  0  0  0
    9.0354   -3.1033   23.5796 H   0  0  0  0  0  0  0  0  0  0  0  0
    8.7745   -2.3017   21.2436 H   0  0  0  0  0  0  0  0  0  0  0  0
    6.5846   -2.4487   20.4209 H   0  0  0  0  0  0  0  0  0  0  0  0
    5.8561   -1.8905   21.9275 H   0  0  0  0  0  0  0  0  0  0  0  0
   10.0110   -0.5423   22.5478 C   0  0  0  0  0  0  0  0  0  0  0  0
   10.7568   -0.8516   21.4117 C   0  0  0  0  0  0  0  0  0  0  0  0
   12.1345   -0.8776   21.4579 C   0  0  0  0  0  0  0  0  0  0  0  0
   12.9833   -1.3959   20.0173 Cl  0  0  0  0  0  0  0  0  0  0  0  0
   12.8292   -0.4887   22.6095 C   0  0  0  0  0  0  0  0  0  0  0  0
   12.0926   -0.2185   23.7445 C   0  0  0  0  0  0  0  0  0  0  0  0
   10.6964   -0.2807   23.7164 C   0  0  0  0  0  0  0  0  0  0  0  0
    9.9698   -0.1097   25.0036 C   0  0  0  0  0  0  0  0  0  0  0  0
   10.6187    0.2422   25.9628 O   0  0  0  0  0  0  0  0  0  0  0  0
   12.5651    0.0721   24.6786 H   0  0  0  0  0  0  0  0  0  0  0  0
   13.9129   -0.3849   22.5993 H   0  0  0  0  0  0  0  0  0  0  0  0
   10.2381   -1.0592   20.4904 H   0  0  0  0  0  0  0  0  0  0  0  0
    7.8082    1.0443   23.6756 H   0  0  0  0  0  0  0  0  0  0  0  0
    6.8447   -0.4317   23.8435 H   0  0  0  0  0  0  0  0  0  0  0  0
    8.2049   -1.7720   26.5472 H   0  0  0  0  0  0  0  0  0  0  0  0
    6.8359   -1.0535   25.7730 H   0  0  0  0  0  0  0  0  0  0  0  0
    6.2040    1.1806   26.2984 H   0  0  0  0  0  0  0  0  0  0  0  0
    7.5737    2.6322   28.2983 H   0  0  0  0  0  0  0  0  0  0  0  0
    5.8709    2.8623   27.8599 H   0  0  0  0  0  0  0  0  0  0  0  0
    7.1533    1.5235   30.5926 C   0  0  0  0  0  0  0  0  0  0  0  0
    8.1757    1.8574   30.4414 H   0  0  0  0  0  0  0  0  0  0  0  0
    4.2409    1.0059   28.9497 H   0  0  0  0  0  0  0  0  0  0  0  0
    3.6250    0.0916   31.1641 H   0  0  0  0  0  0  0  0  0  0  0  0
    5.2448    0.0656   33.0171 H   0  0  0  0  0  0  0  0  0  0  0  0
    8.4280    0.5356   34.6192 H   0  0  0  0  0  0  0  0  0  0  0  0
    7.2191   -0.6060   33.9692 H   0  0  0  0  0  0  0  0  0  0  0  0
    6.7084    1.0127   34.5351 H   0  0  0  0  0  0  0  0  0  0  0  0
  1  2  1  0
  2  3  1  0
  3  4  2  0
  4  5  1  0
  5  6  2  0
  6  7  1  0
  7  8  1  0
  8  9  1  0
  9 10  1  0
 10 11  2  0
 10 12  1  0
 12 13  1  0
 13 14  1  0
 15 14  1  1
 15 16  1  0
 16 17  2  0
 16 18  1  0
 18 19  1  0
 19 20  2  0
 20 21  1  0
 21 22  2  0
 22 23  1  0
 23 24  2  0
 24 25  1  0
 25 26  2  0
 26 27  1  0
 27 28  2  0
 27 29  1  0
 26 30  1  0
 25 31  1  0
 24 32  1  0
 22 33  1  0
 20 34  1  0
 18 35  1  0
 35 36  1  0
 36 37  1  0
 37 38  1  0
 37 39  1  0
 37 40  1  0
 36 41  1  6
 35 42  1  0
 35 43  1  0
 15 44  1  0
 44 45  2  0
 45 46  1  0
 46 47  1  0
 46 48  2  0
 48 49  1  0
 49 50  2  0
 50 51  1  0
 51 52  2  0
 49 53  1  0
 48 54  1  0
 45 55  1  0
 14 56  1  0
 14 57  1  0
 12 58  1  0
 12 59  1  0
  9 60  1  0
  8 61  1  0
  8 62  1  0
  7 63  2  0
 63 64  1  0
  6 65  1  0
  5 66  1  0
  4 67  1  0
  1 68  1  0
  1 69  1  0
  1 70  1  0
 63  3  1  0
 51 13  1  0
 36 15  1  0
 50 44  1  0
 28 19  1  0
 28 23  1  0
M  END
>  <cnnaffinities>  (75) 
[6.27052]

>  <score>  (75) 
6.27052

>  <index>  (75) 
75

>  <Smiles>  (75) 
C(Oc1c(c(c(c(C(N(C(=O)C(N2C([C@@]3(C(=O)N(c4c(nc(c5c(c(c(c(c45)[H])[H])[H])[H])[H])[H])C([C@@]3(C([H])([H])[H])[H])([H])[H])c3c(c(Cl)c(c(c3C2=O)[H])[H])[H])([H])[H])([H])[H])[H])([H])[H])c1[H])[H])[H])[H])([H])([H])[H]

>  <h>  (75) 
<NA>

>  <Training>  (75) 
True

>  <Success>  (75) 
True

>  <enamine_searched>  (75) 
False

>  <enamine_id>  (75) 
nan

$$$$

     RDKit          3D

 61 65  0  0  0  0  0  0  0  0999 V2000
    7.4726   -2.5308   23.7829 C   0  0  0  0  0  0  0  0  0  0  0  0
    7.8619   -1.7523   22.5218 C   0  0  1  0  0  0  0  0  0  0  0  0
    6.6932   -1.6223   21.5235 C   0  0  0  0  0  0  0  0  0  0  0  0
    6.9595   -0.3718   20.8353 N   0  0  0  0  0  0  0  0  0  0  0  0
    6.1497    0.1178   19.7652 C   0  0  0  0  0  0  0  0  0  0  0  0
    6.4456   -0.2152   18.4697 C   0  0  0  0  0  0  0  0  0  0  0  0
    5.7557    0.2239   17.3889 N   0  0  0  0  0  0  0  0  0  0  0  0
    4.7382    1.0213   17.5922 C   0  0  0  0  0  0  0  0  0  0  0  0
    4.2951    1.4216   18.8845 C   0  0  0  0  0  0  0  0  0  0  0  0
    3.1743    2.2793   19.0649 C   0  0  0  0  0  0  0  0  0  0  0  0
    2.7768    2.6474   20.3195 C   0  0  0  0  0  0  0  0  0  0  0  0
    3.4656    2.1606   21.4525 C   0  0  0  0  0  0  0  0  0  0  0  0
    4.5444    1.3239   21.3033 C   0  0  0  0  0  0  0  0  0  0  0  0
    5.0075    0.9493   20.0100 C   0  0  0  0  0  0  0  0  0  0  0  0
    5.0604    0.9436   22.1797 H   0  0  0  0  0  0  0  0  0  0  0  0
    3.1432    2.4570   22.4469 H   0  0  0  0  0  0  0  0  0  0  0  0
    1.9347    3.3228   20.4502 H   0  0  0  0  0  0  0  0  0  0  0  0
    2.6634    2.6560   18.1823 H   0  0  0  0  0  0  0  0  0  0  0  0
    4.2096    1.3885   16.7100 H   0  0  0  0  0  0  0  0  0  0  0  0
    7.2897   -0.8670   18.2488 H   0  0  0  0  0  0  0  0  0  0  0  0
    7.8637    0.4423   21.4753 C   0  0  0  0  0  0  0  0  0  0  0  0
    8.1653    1.5507   21.1125 O   0  0  0  0  0  0  0  0  0  0  0  0
    8.4101   -0.3027   22.7216 C   0  0  1  0  0  0  0  0  0  0  0  0
    7.8622    0.3625   24.0071 C   0  0  0  0  0  0  0  0  0  0  0  0
    8.4280    1.6822   24.2341 N   0  0  0  0  0  0  0  0  0  0  0  0
    7.5333    2.7256   24.7165 C   0  0  0  0  0  0  0  0  0  0  0  0
    6.8768    3.5306   23.6023 C   0  0  0  0  0  0  0  0  0  0  0  0
    7.8571    4.3490   22.8231 N   0  0  0  0  0  4  0  0  0  0  0  0
    8.3714    5.5266   23.5820 C   0  0  0  0  0  0  0  0  0  0  0  0
    8.9473    5.2079   24.4500 H   0  0  0  0  0  0  0  0  0  0  0  0
    7.5281    6.1511   23.9049 H   0  0  0  0  0  0  0  0  0  0  0  0
    9.0103    6.1326   22.9322 H   0  0  0  0  0  0  0  0  0  0  0  0
    7.2179    4.8298   21.5715 C   0  0  0  0  0  0  0  0  0  0  0  0
    6.9330    3.9663   20.9653 H   0  0  0  0  0  0  0  0  0  0  0  0
    7.9081    5.4803   21.0397 H   0  0  0  0  0  0  0  0  0  0  0  0
    6.3319    5.4372   21.7977 H   0  0  0  0  0  0  0  0  0  0  0  0
    8.6454    3.7362   22.5587 H   0  0  0  0  0  0  0  0  0  0  0  0
    6.1258    4.2140   24.0169 H   0  0  0  0  0  0  0  0  0  0  0  0
    6.3718    2.8592   22.9010 H   0  0  0  0  0  0  0  0  0  0  0  0
    6.7441    2.2618   25.3183 H   0  0  0  0  0  0  0  0  0  0  0  0
    8.1098    3.3858   25.3562 H   0  0  0  0  0  0  0  0  0  0  0  0
    9.7620    1.9141   24.1245 C   0  0  0  0  0  0  0  0  0  0  0  0
   10.2792    2.9795   24.4826 O   0  0  0  0  0  0  0  0  0  0  0  0
   10.5605    0.8235   23.4606 C   0  0  0  0  0  0  0  0  0  0  0  0
   11.9532    0.9015   23.4439 C   0  0  0  0  0  0  0  0  0  0  0  0
   12.7036    0.0684   22.6360 C   0  0  0  0  0  0  0  0  0  0  0  0
   12.0334   -0.7899   21.7628 C   0  0  0  0  0  0  0  0  0  0  0  0
   12.7317   -1.5762   20.3556 Cl  0  0  0  0  0  0  0  0  0  0  0  0
   10.6648   -0.9278   21.8164 C   0  0  0  0  0  0  0  0  0  0  0  0
    9.9172   -0.1832   22.7294 C   0  0  0  0  0  0  0  0  0  0  0  0
   10.1856   -1.6287   21.1373 H   0  0  0  0  0  0  0  0  0  0  0  0
   13.7927    0.1231   22.6125 H   0  0  0  0  0  0  0  0  0  0  0  0
   12.4656    1.6592   24.0221 H   0  0  0  0  0  0  0  0  0  0  0  0
    6.7743    0.4649   23.9155 H   0  0  0  0  0  0  0  0  0  0  0  0
    8.0763   -0.2942   24.8646 H   0  0  0  0  0  0  0  0  0  0  0  0
    6.6524   -2.4545   20.8140 H   0  0  0  0  0  0  0  0  0  0  0  0
    5.7275   -1.6078   22.0534 H   0  0  0  0  0  0  0  0  0  0  0  0
    8.6531   -2.3198   22.0280 H   0  0  0  0  0  0  0  0  0  0  0  0
    6.6302   -2.0558   24.2981 H   0  0  0  0  0  0  0  0  0  0  0  0
    7.1677   -3.5537   23.5313 H   0  0  0  0  0  0  0  0  0  0  0  0
    8.3033   -2.5988   24.4944 H   0  0  0  0  0  0  0  0  0  0  0  0
  1  2  1  0
  2  3  1  0
  3  4  1  0
  4  5  1  0
  5  6  2  0
  6  7  1  0
  7  8  2  0
  8  9  1  0
  9 10  2  0
 10 11  1  0
 11 12  2  0
 12 13  1  0
 13 14  2  0
 13 15  1  0
 12 16  1  0
 11 17  1  0
 10 18  1  0
  8 19  1  0
  6 20  1  0
  4 21  1  0
 21 22  2  0
 21 23  1  0
 23 24  1  1
 24 25  1  0
 25 26  1  0
 26 27  1  0
 27 28  1  0
 28 29  1  0
 29 30  1  0
 29 31  1  0
 29 32  1  0
 28 33  1  0
 33 34  1  0
 33 35  1  0
 33 36  1  0
 28 37  1  0
 27 38  1  0
 27 39  1  0
 26 40  1  0
 26 41  1  0
 25 42  1  0
 42 43  2  0
 42 44  1  0
 44 45  2  0
 45 46  1  0
 46 47  2  0
 47 48  1  0
 47 49  1  0
 49 50  2  0
 49 51  1  0
 46 52  1  0
 45 53  1  0
 24 54  1  0
 24 55  1  0
  3 56  1  0
  3 57  1  0
  2 58  1  6
  1 59  1  0
  1 60  1  0
  1 61  1  0
 23  2  1  0
 50 44  1  0
 14  5  1  0
 50 23  1  0
 14  9  1  0
M  CHG  1  28   1
M  END
>  <cnnaffinities>  (76) 
[6.25359, 6.2961]

>  <score>  (76) 
6.25359

>  <index>  (76) 
76

>  <Smiles>  (76) 
C([C@]1(C(N(c2c(nc(c3c(c(c(c(c23)[H])[H])[H])[H])[H])[H])C(=O)[C@]21C(N(C(C([N+](C([H])([H])[H])(C([H])([H])[H])[H])([H])[H])([H])[H])C(=O)c1c(c(c(Cl)c(c21)[H])[H])[H])([H])[H])([H])[H])[H])([H])([H])[H]

>  <h>  (76) 
<NA>

>  <Training>  (76) 
True

>  <Success>  (76) 
True

>  <enamine_searched>  (76) 
False

>  <enamine_id>  (76) 
nan

$$$$

     RDKit          3D

 57 60  0  0  0  0  0  0  0  0999 V2000
    5.4566   -2.2170   28.0322 C   0  0  0  0  0  0  0  0  0  0  0  0
    6.2835   -2.7939   26.8725 C   0  0  0  0  0  0  0  0  0  0  0  0
    5.4974   -3.9491   26.2102 C   0  0  0  0  0  0  0  0  0  0  0  0
    5.2462   -4.7144   26.9516 H   0  0  0  0  0  0  0  0  0  0  0  0
    6.0835   -4.4129   25.4104 H   0  0  0  0  0  0  0  0  0  0  0  0
    4.5704   -3.5629   25.7774 H   0  0  0  0  0  0  0  0  0  0  0  0
    7.4948   -3.4105   27.4628 C   0  0  0  0  0  0  0  0  0  0  0  0
    8.3744   -3.9737   27.9622 N   0  0  0  0  0  0  0  0  0  0  0  0
    6.6619   -1.7385   25.8217 C   0  0  0  0  0  0  0  0  0  0  0  0
    7.6202   -2.0464   24.8560 C   0  0  0  0  0  0  0  0  0  0  0  0
    7.8725   -1.1832   23.7994 C   0  0  0  0  0  0  0  0  0  0  0  0
    7.2100    0.0451   23.7129 C   0  0  0  0  0  0  0  0  0  0  0  0
    7.5670    0.9709   22.6850 N   0  0  0  0  0  0  0  0  0  0  0  0
    8.2597    2.2046   23.0841 C   0  0  0  0  0  0  0  0  0  0  0  0
    9.7347    1.9761   23.3631 C   0  0  0  0  0  0  0  0  0  0  0  0
   10.0986    1.0230   24.3136 C   0  0  0  0  0  0  0  0  0  0  0  0
   11.4317    0.7486   24.5656 C   0  0  0  0  0  0  0  0  0  0  0  0
   12.4332    1.4580   23.9156 C   0  0  0  0  0  0  0  0  0  0  0  0
   12.0663    2.4660   23.0334 C   0  0  0  0  0  0  0  0  0  0  0  0
   13.2767    3.4876   22.3224 Cl  0  0  0  0  0  0  0  0  0  0  0  0
   10.7354    2.6948   22.7039 C   0  0  0  0  0  0  0  0  0  0  0  0
   10.5119    3.4038   21.9038 H   0  0  0  0  0  0  0  0  0  0  0  0
   13.4669    1.2072   24.1054 H   0  0  0  0  0  0  0  0  0  0  0  0
   11.6875   -0.0150   25.2905 H   0  0  0  0  0  0  0  0  0  0  0  0
    9.3395    0.4887   24.8761 H   0  0  0  0  0  0  0  0  0  0  0  0
    8.1384    2.9354   22.2808 H   0  0  0  0  0  0  0  0  0  0  0  0
    7.7369    2.5836   23.9725 H   0  0  0  0  0  0  0  0  0  0  0  0
    7.7435    0.5980   21.3597 C   0  0  0  0  0  0  0  0  0  0  0  0
    8.4883    1.2182   20.6232 O   0  0  0  0  0  0  0  0  0  0  0  0
    6.8861   -0.5503   20.8214 C   0  0  0  0  0  0  0  0  0  0  0  0
    6.0355   -0.0138   19.7037 C   0  0  0  0  0  0  0  0  0  0  0  0
    6.3807   -0.2465   18.3992 C   0  0  0  0  0  0  0  0  0  0  0  0
    5.7220    0.2408   17.3185 N   0  0  0  0  0  0  0  0  0  0  0  0
    4.6937    1.0139   17.5541 C   0  0  0  0  0  0  0  0  0  0  0  0
    4.2397    1.3659   18.8526 C   0  0  0  0  0  0  0  0  0  0  0  0
    3.1370    2.2331   19.0392 C   0  0  0  0  0  0  0  0  0  0  0  0
    2.7524    2.6069   20.2951 C   0  0  0  0  0  0  0  0  0  0  0  0
    3.4534    2.1198   21.4212 C   0  0  0  0  0  0  0  0  0  0  0  0
    4.5165    1.2630   21.2712 C   0  0  0  0  0  0  0  0  0  0  0  0
    4.9374    0.8578   19.9702 C   0  0  0  0  0  0  0  0  0  0  0  0
    5.0452    0.9121   22.1550 H   0  0  0  0  0  0  0  0  0  0  0  0
    3.1478    2.4347   22.4147 H   0  0  0  0  0  0  0  0  0  0  0  0
    1.9190    3.2893   20.4321 H   0  0  0  0  0  0  0  0  0  0  0  0
    2.6318    2.6166   18.1567 H   0  0  0  0  0  0  0  0  0  0  0  0
    4.1677    1.4151   16.6881 H   0  0  0  0  0  0  0  0  0  0  0  0
    7.2472   -0.8649   18.1634 H   0  0  0  0  0  0  0  0  0  0  0  0
    6.2919   -1.0150   21.6141 H   0  0  0  0  0  0  0  0  0  0  0  0
    7.5654   -1.3146   20.4268 H   0  0  0  0  0  0  0  0  0  0  0  0
    6.2961    0.3918   24.7048 C   0  0  0  0  0  0  0  0  0  0  0  0
    6.0277   -0.4979   25.7410 C   0  0  0  0  0  0  0  0  0  0  0  0
    5.3298   -0.1901   26.5126 H   0  0  0  0  0  0  0  0  0  0  0  0
    5.7886    1.3557   24.6773 H   0  0  0  0  0  0  0  0  0  0  0  0
    8.6497   -1.4091   23.0715 H   0  0  0  0  0  0  0  0  0  0  0  0
    8.1995   -2.9617   24.9374 H   0  0  0  0  0  0  0  0  0  0  0  0
    4.4821   -1.8793   27.6666 H   0  0  0  0  0  0  0  0  0  0  0  0
    5.9699   -1.3751   28.5069 H   0  0  0  0  0  0  0  0  0  0  0  0
    5.2835   -2.9872   28.7890 H   0  0  0  0  0  0  0  0  0  0  0  0
  1  2  1  0
  2  3  1  0
  3  4  1  0
  3  5  1  0
  3  6  1  0
  2  7  1  0
  7  8  3  0
  2  9  1  0
  9 10  2  0
 10 11  1  0
 11 12  2  0
 12 13  1  0
 13 14  1  0
 14 15  1  0
 15 16  2  0
 16 17  1  0
 17 18  2  0
 18 19  1  0
 19 20  1  0
 19 21  2  0
 21 22  1  0
 18 23  1  0
 17 24  1  0
 16 25  1  0
 14 26  1  0
 14 27  1  0
 13 28  1  0
 28 29  2  0
 28 30  1  0
 30 31  1  0
 31 32  2  0
 32 33  1  0
 33 34  2  0
 34 35  1  0
 35 36  2  0
 36 37  1  0
 37 38  2  0
 38 39  1  0
 39 40  2  0
 39 41  1  0
 38 42  1  0
 37 43  1  0
 36 44  1  0
 34 45  1  0
 32 46  1  0
 30 47  1  0
 30 48  1  0
 12 49  1  0
 49 50  2  0
 50 51  1  0
 49 52  1  0
 11 53  1  0
 10 54  1  0
  1 55  1  0
  1 56  1  0
  1 57  1  0
 50  9  1  0
 21 15  1  0
 40 31  1  0
 40 35  1  0
M  END
>  <cnnaffinities>  (77) 
[6.20727, 6.76243, 6.16522, 6.20195, 6.70807]

>  <score>  (77) 
6.20727

>  <index>  (77) 
77

>  <Smiles>  (77) 
C(C(C([H])([H])[H])(C#N)c1c(c(c(N(C(c2c(c(c(c(Cl)c2[H])[H])[H])[H])([H])[H])C(=O)C(c2c(nc(c3c(c(c(c(c23)[H])[H])[H])[H])[H])[H])([H])[H])c(c1[H])[H])[H])[H])([H])([H])[H]

>  <h>  (77) 
<NA>

>  <Training>  (77) 
True

>  <Success>  (77) 
True

>  <enamine_searched>  (77) 
False

>  <enamine_id>  (77) 
nan

$$$$

     RDKit          3D

 40 42  0  0  0  0  0  0  0  0999 V2000
   12.4219   -0.5070   24.7848 C   0  0  0  0  0  0  0  0  0  0  0  0
   11.5074   -0.5271   23.5748 C   0  0  0  0  0  0  0  0  0  0  0  0
   11.2128    0.8987   23.1297 C   0  0  0  0  0  0  0  0  0  0  0  0
   10.3232    0.8445   21.9106 C   0  0  0  0  0  0  0  0  0  0  0  0
    9.0839    0.1083   22.1058 N   0  0  0  0  0  0  0  0  0  0  0  0
    8.0036    0.5633   21.3844 C   0  0  0  0  0  0  0  0  0  0  0  0
    7.8864    1.7448   21.0949 O   0  0  0  0  0  0  0  0  0  0  0  0
    6.9602   -0.4562   20.9100 C   0  0  0  0  0  0  0  0  0  0  0  0
    6.1154    0.0758   19.7792 C   0  0  0  0  0  0  0  0  0  0  0  0
    6.4336   -0.2139   18.4746 C   0  0  0  0  0  0  0  0  0  0  0  0
    5.7690    0.2368   17.3799 N   0  0  0  0  0  0  0  0  0  0  0  0
    4.7391    1.0218   17.5881 C   0  0  0  0  0  0  0  0  0  0  0  0
    4.2899    1.4081   18.8802 C   0  0  0  0  0  0  0  0  0  0  0  0
    3.1682    2.2583   19.0503 C   0  0  0  0  0  0  0  0  0  0  0  0
    2.7676    2.6342   20.3054 C   0  0  0  0  0  0  0  0  0  0  0  0
    3.4709    2.1709   21.4391 C   0  0  0  0  0  0  0  0  0  0  0  0
    4.5609    1.3450   21.2976 C   0  0  0  0  0  0  0  0  0  0  0  0
    4.9977    0.9364   20.0075 C   0  0  0  0  0  0  0  0  0  0  0  0
    5.1089    1.0180   22.1739 H   0  0  0  0  0  0  0  0  0  0  0  0
    3.1477    2.4771   22.4298 H   0  0  0  0  0  0  0  0  0  0  0  0
    1.9202    3.3013   20.4289 H   0  0  0  0  0  0  0  0  0  0  0  0
    2.6582    2.6217   18.1618 H   0  0  0  0  0  0  0  0  0  0  0  0
    4.2052    1.3906   16.7125 H   0  0  0  0  0  0  0  0  0  0  0  0
    7.2798   -0.8636   18.2471 H   0  0  0  0  0  0  0  0  0  0  0  0
    7.4937   -1.3502   20.5646 H   0  0  0  0  0  0  0  0  0  0  0  0
    6.3415   -0.7681   21.7627 H   0  0  0  0  0  0  0  0  0  0  0  0
    9.2925   -1.2604   22.5610 C   0  0  0  0  0  0  0  0  0  0  0  0
   10.1768   -1.2563   23.8163 C   0  0  0  0  0  0  0  0  0  0  0  0
   10.3584   -2.2892   24.1461 H   0  0  0  0  0  0  0  0  0  0  0  0
    9.6307   -0.7288   24.6125 H   0  0  0  0  0  0  0  0  0  0  0  0
    8.3262   -1.7333   22.7647 H   0  0  0  0  0  0  0  0  0  0  0  0
    9.7890   -1.8525   21.7715 H   0  0  0  0  0  0  0  0  0  0  0  0
   10.8948    0.2985   21.1544 H   0  0  0  0  0  0  0  0  0  0  0  0
   10.0514    1.8203   21.5198 H   0  0  0  0  0  0  0  0  0  0  0  0
   12.1434    1.4115   22.8482 H   0  0  0  0  0  0  0  0  0  0  0  0
   10.7642    1.4687   23.9524 H   0  0  0  0  0  0  0  0  0  0  0  0
   12.0345   -1.0287   22.7473 H   0  0  0  0  0  0  0  0  0  0  0  0
   12.7735   -1.5089   25.0300 H   0  0  0  0  0  0  0  0  0  0  0  0
   13.2960    0.1272   24.6082 H   0  0  0  0  0  0  0  0  0  0  0  0
   11.8843   -0.0882   25.6392 H   0  0  0  0  0  0  0  0  0  0  0  0
  1  2  1  0
  2  3  1  0
  3  4  1  0
  4  5  1  0
  5  6  1  0
  6  7  2  0
  6  8  1  0
  8  9  1  0
  9 10  2  0
 10 11  1  0
 11 12  2  0
 12 13  1  0
 13 14  2  0
 14 15  1  0
 15 16  2  0
 16 17  1  0
 17 18  2  0
 17 19  1  0
 16 20  1  0
 15 21  1  0
 14 22  1  0
 12 23  1  0
 10 24  1  0
  8 25  1  0
  8 26  1  0
  5 27  1  0
 27 28  1  0
 28 29  1  0
 28 30  1  0
 27 31  1  0
 27 32  1  0
  4 33  1  0
  4 34  1  0
  3 35  1  0
  3 36  1  0
  2 37  1  0
  1 38  1  0
  1 39  1  0
  1 40  1  0
 28  2  1  0
 18  9  1  0
 18 13  1  0
M  END
>  <cnnaffinities>  (78) 
[5.13767, 5.12057, 5.33525, 4.98232, 4.96731]

>  <score>  (78) 
5.13767

>  <index>  (78) 
79

>  <Smiles>  (78) 
C(C1(C(C(N(C(=O)C(c2c(nc(c3c(c(c(c(c23)[H])[H])[H])[H])[H])[H])([H])[H])C(C1([H])[H])([H])[H])([H])[H])([H])[H])[H])([H])([H])[H]

>  <h>  (78) 
<NA>

>  <Training>  (78) 
True

>  <Success>  (78) 
True

>  <enamine_searched>  (78) 
False

>  <enamine_id>  (78) 
nan

$$$$

     RDKit          3D

 59 64  0  0  0  0  0  0  0  0999 V2000
    9.7561   -1.8534   21.9299 C   0  0  0  0  0  0  0  0  0  0  0  0
    8.5670   -0.9920   22.3982 C   0  0  1  0  0  0  0  0  0  0  0  0
    8.1275   -0.0248   21.2706 C   0  0  0  0  0  0  0  0  0  0  0  0
    6.8401   -0.5205   20.8355 N   0  0  0  0  0  0  0  0  0  0  0  0
    6.0940    0.0441   19.7709 C   0  0  0  0  0  0  0  0  0  0  0  0
    6.4425   -0.2299   18.4787 C   0  0  0  0  0  0  0  0  0  0  0  0
    5.7829    0.2482   17.3907 N   0  0  0  0  0  0  0  0  0  0  0  0
    4.7521    1.0240   17.6086 C   0  0  0  0  0  0  0  0  0  0  0  0
    4.2871    1.4013   18.8934 C   0  0  0  0  0  0  0  0  0  0  0  0
    3.1711    2.2597   19.0706 C   0  0  0  0  0  0  0  0  0  0  0  0
    2.7677    2.6356   20.3172 C   0  0  0  0  0  0  0  0  0  0  0  0
    3.4717    2.1698   21.4589 C   0  0  0  0  0  0  0  0  0  0  0  0
    4.5527    1.3341   21.3195 C   0  0  0  0  0  0  0  0  0  0  0  0
    4.9827    0.9105   20.0313 C   0  0  0  0  0  0  0  0  0  0  0  0
    5.0851    0.9868   22.2071 H   0  0  0  0  0  0  0  0  0  0  0  0
    3.1428    2.4764   22.4432 H   0  0  0  0  0  0  0  0  0  0  0  0
    1.9200    3.3007   20.4429 H   0  0  0  0  0  0  0  0  0  0  0  0
    2.6653    2.6284   18.1781 H   0  0  0  0  0  0  0  0  0  0  0  0
    4.2241    1.3860   16.7228 H   0  0  0  0  0  0  0  0  0  0  0  0
    7.2907   -0.8741   18.2611 H   0  0  0  0  0  0  0  0  0  0  0  0
    6.3013   -1.4987   21.6360 C   0  0  0  0  0  0  0  0  0  0  0  0
    5.2177   -2.0316   21.4346 O   0  0  0  0  0  0  0  0  0  0  0  0
    7.2665   -1.7731   22.8063 C   0  0  1  0  0  0  0  0  0  0  0  0
    7.4786   -3.2933   22.9592 C   0  0  0  0  0  0  0  0  0  0  0  0
    6.2642   -3.9426   23.4066 N   0  0  0  0  0  0  0  0  0  0  0  0
    5.8248   -5.1642   22.7856 C   0  0  0  0  0  0  0  0  0  0  0  0
    6.4077   -6.3975   23.4193 C   0  0  0  0  0  0  0  0  0  0  0  0
    7.7334   -6.7622   23.5470 C   0  0  0  0  0  0  0  0  0  0  0  0
    7.7043   -8.0236   24.1763 C   0  0  0  0  0  0  0  0  0  0  0  0
    6.4596   -8.4114   24.4185 N   0  0  0  0  0  0  0  0  0  0  0  0
    5.6867   -7.4215   23.9470 N   0  0  0  0  0  0  0  0  0  0  0  0
    4.2445   -7.5517   24.0219 C   0  0  0  0  0  0  0  0  0  0  0  0
    3.8109   -7.5956   23.0134 H   0  0  0  0  0  0  0  0  0  0  0  0
    4.0547   -8.4955   24.5438 H   0  0  0  0  0  0  0  0  0  0  0  0
    3.8382   -6.6990   24.5751 H   0  0  0  0  0  0  0  0  0  0  0  0
    8.5257   -8.6817   24.4483 H   0  0  0  0  0  0  0  0  0  0  0  0
    8.5664   -6.1649   23.2103 H   0  0  0  0  0  0  0  0  0  0  0  0
    4.7284   -5.1901   22.8027 H   0  0  0  0  0  0  0  0  0  0  0  0
    6.1394   -5.0875   21.7385 H   0  0  0  0  0  0  0  0  0  0  0  0
    5.6255   -3.5311   24.5330 C   0  0  0  0  0  0  0  0  0  0  0  0
    4.8538   -4.2777   25.1428 O   0  0  0  0  0  0  0  0  0  0  0  0
    5.8823   -2.1158   24.9283 C   0  0  0  0  0  0  0  0  0  0  0  0
    5.2789   -1.6362   26.0908 C   0  0  0  0  0  0  0  0  0  0  0  0
    5.3751   -0.3012   26.4290 C   0  0  0  0  0  0  0  0  0  0  0  0
    6.0769    0.5463   25.5790 C   0  0  0  0  0  0  0  0  0  0  0  0
    6.1507    1.8499   25.8973 F   0  0  0  0  0  0  0  0  0  0  0  0
    6.6965    0.0983   24.4293 C   0  0  0  0  0  0  0  0  0  0  0  0
    6.6363   -1.2622   24.1028 C   0  0  0  0  0  0  0  0  0  0  0  0
    7.2011    0.8327   23.8085 H   0  0  0  0  0  0  0  0  0  0  0  0
    4.9103    0.1093   27.3140 H   0  0  0  0  0  0  0  0  0  0  0  0
    4.7166   -2.3470   26.6878 H   0  0  0  0  0  0  0  0  0  0  0  0
    7.7488   -3.7194   21.9881 H   0  0  0  0  0  0  0  0  0  0  0  0
    8.2931   -3.4587   23.6808 H   0  0  0  0  0  0  0  0  0  0  0  0
    8.0543    1.0188   21.6160 H   0  0  0  0  0  0  0  0  0  0  0  0
    8.8379   -0.0312   20.4361 H   0  0  0  0  0  0  0  0  0  0  0  0
    8.9187   -0.4282   23.2716 H   0  0  0  0  0  0  0  0  0  0  0  0
   10.5973   -1.2063   21.6527 H   0  0  0  0  0  0  0  0  0  0  0  0
   10.1087   -2.5238   22.7196 H   0  0  0  0  0  0  0  0  0  0  0  0
    9.5013   -2.4610   21.0533 H   0  0  0  0  0  0  0  0  0  0  0  0
  1  2  1  0
  2  3  1  0
  3  4  1  0
  4  5  1  0
  5  6  2  0
  6  7  1  0
  7  8  2  0
  8  9  1  0
  9 10  2  0
 10 11  1  0
 11 12  2  0
 12 13  1  0
 13 14  2  0
 13 15  1  0
 12 16  1  0
 11 17  1  0
 10 18  1  0
  8 19  1  0
  6 20  1  0
  4 21  1  0
 21 22  2  0
 21 23  1  0
 23 24  1  1
 24 25  1  0
 25 26  1  0
 26 27  1  0
 27 28  2  0
 28 29  1  0
 29 30  2  0
 30 31  1  0
 31 32  1  0
 32 33  1  0
 32 34  1  0
 32 35  1  0
 29 36  1  0
 28 37  1  0
 26 38  1  0
 26 39  1  0
 25 40  1  0
 40 41  2  0
 40 42  1  0
 42 43  2  0
 43 44  1  0
 44 45  2  0
 45 46  1  0
 45 47  1  0
 47 48  2  0
 47 49  1  0
 44 50  1  0
 43 51  1  0
 24 52  1  0
 24 53  1  0
  3 54  1  0
  3 55  1  0
  2 56  1  1
  1 57  1  0
  1 58  1  0
  1 59  1  0
 23  2  1  0
 31 27  1  0
 48 42  1  0
 14  5  1  0
 48 23  1  0
 14  9  1  0
M  END
>  <cnnaffinities>  (79) 
[6.69786]

>  <score>  (79) 
6.69786

>  <index>  (79) 
80

>  <Smiles>  (79) 
C([C@]1(C(N(c2c(nc(c3c(c(c(c(c23)[H])[H])[H])[H])[H])[H])C(=O)[C@]21C(N(C(c1c(c(nn1C([H])([H])[H])[H])[H])([H])[H])C(=O)c1c(c(c(F)c(c21)[H])[H])[H])([H])[H])([H])[H])[H])([H])([H])[H]

>  <h>  (79) 
<NA>

>  <Training>  (79) 
True

>  <Success>  (79) 
True

>  <enamine_searched>  (79) 
False

>  <enamine_id>  (79) 
nan

$$$$

     RDKit          3D

 58 63  0  0  0  0  0  0  0  0999 V2000
    7.4771   -8.7807   23.8983 C   0  0  0  0  0  0  0  0  0  0  0  0
    7.0297   -7.8253   22.8412 C   0  0  0  0  0  0  0  0  0  0  0  0
    5.9842   -7.0714   22.8937 N   0  0  0  0  0  0  0  0  0  0  0  0
    6.1677   -6.1257   21.8860 C   0  0  0  0  0  0  0  0  0  0  0  0
    5.4216   -4.8209   21.9322 C   0  0  0  0  0  0  0  0  0  0  0  0
    6.0339   -3.9140   22.9019 N   0  0  0  0  0  0  0  0  0  0  0  0
    7.2933   -3.2736   22.5629 C   0  0  0  0  0  0  0  0  0  0  0  0
    7.1983   -1.7479   22.8089 C   0  0  2  0  0  0  0  0  0  0  0  0
    6.1720   -1.2350   21.7725 C   0  0  0  0  0  0  0  0  0  0  0  0
    5.0096   -1.5715   21.6814 O   0  0  0  0  0  0  0  0  0  0  0  0
    6.8031   -0.3878   20.8821 N   0  0  0  0  0  0  0  0  0  0  0  0
    6.1067    0.1459   19.7800 C   0  0  0  0  0  0  0  0  0  0  0  0
    6.4807   -0.1347   18.4899 C   0  0  0  0  0  0  0  0  0  0  0  0
    5.8007    0.2755   17.3933 N   0  0  0  0  0  0  0  0  0  0  0  0
    4.7306    1.0112   17.5773 C   0  0  0  0  0  0  0  0  0  0  0  0
    4.2581    1.4115   18.8587 C   0  0  0  0  0  0  0  0  0  0  0  0
    3.1105    2.2338   19.0162 C   0  0  0  0  0  0  0  0  0  0  0  0
    2.7047    2.6267   20.2628 C   0  0  0  0  0  0  0  0  0  0  0  0
    3.4212    2.2141   21.4081 C   0  0  0  0  0  0  0  0  0  0  0  0
    4.5300    1.4181   21.2822 C   0  0  0  0  0  0  0  0  0  0  0  0
    4.9670    0.9832   19.9984 C   0  0  0  0  0  0  0  0  0  0  0  0
    5.0736    1.1033   22.1662 H   0  0  0  0  0  0  0  0  0  0  0  0
    3.0918    2.5304   22.3939 H   0  0  0  0  0  0  0  0  0  0  0  0
    1.8394    3.2727   20.3806 H   0  0  0  0  0  0  0  0  0  0  0  0
    2.5798    2.5679   18.1283 H   0  0  0  0  0  0  0  0  0  0  0  0
    4.1823    1.3247   16.6878 H   0  0  0  0  0  0  0  0  0  0  0  0
    7.3584   -0.7513   18.3011 H   0  0  0  0  0  0  0  0  0  0  0  0
    8.2495   -0.4649   20.9800 C   0  0  0  0  0  0  0  0  0  0  0  0
    8.4871   -0.9545   22.4174 C   0  0  2  0  0  0  0  0  0  0  0  0
    9.8510   -1.6315   22.5635 C   0  0  0  0  0  0  0  0  0  0  0  0
   10.0458   -1.9816   23.5833 H   0  0  0  0  0  0  0  0  0  0  0  0
   10.6448   -0.9203   22.2980 H   0  0  0  0  0  0  0  0  0  0  0  0
    9.9456   -2.4890   21.8865 H   0  0  0  0  0  0  0  0  0  0  0  0
    8.4916   -0.0636   23.0468 H   0  0  0  0  0  0  0  0  0  0  0  0
    8.6721   -1.1738   20.2531 H   0  0  0  0  0  0  0  0  0  0  0  0
    8.7040    0.5145   20.8072 H   0  0  0  0  0  0  0  0  0  0  0  0
    6.7338   -1.5590   24.2541 C   0  0  0  0  0  0  0  0  0  0  0  0
    6.9452   -0.3678   24.9649 C   0  0  0  0  0  0  0  0  0  0  0  0
    6.6197   -0.3010   26.3046 C   0  0  0  0  0  0  0  0  0  0  0  0
    6.8261    0.8514   26.9671 F   0  0  0  0  0  0  0  0  0  0  0  0
    6.1102   -1.3826   27.0114 C   0  0  0  0  0  0  0  0  0  0  0  0
    5.8171   -2.5302   26.2995 C   0  0  0  0  0  0  0  0  0  0  0  0
    6.0603   -2.5938   24.9253 C   0  0  0  0  0  0  0  0  0  0  0  0
    5.5174   -3.7691   24.1637 C   0  0  0  0  0  0  0  0  0  0  0  0
    4.6654   -4.5075   24.6384 O   0  0  0  0  0  0  0  0  0  0  0  0
    5.3927   -3.4041   26.7845 H   0  0  0  0  0  0  0  0  0  0  0  0
    5.9511   -1.3036   28.0804 H   0  0  0  0  0  0  0  0  0  0  0  0
    7.3772    0.5151   24.5118 H   0  0  0  0  0  0  0  0  0  0  0  0
    8.0998   -3.6969   23.1737 H   0  0  0  0  0  0  0  0  0  0  0  0
    7.5240   -3.4784   21.5151 H   0  0  0  0  0  0  0  0  0  0  0  0
    5.3856   -4.2899   20.9698 H   0  0  0  0  0  0  0  0  0  0  0  0
    4.3943   -4.9752   22.2614 H   0  0  0  0  0  0  0  0  0  0  0  0
    7.3104   -6.4269   21.2299 C   0  0  0  0  0  0  0  0  0  0  0  0
    7.8800   -7.5097   21.8431 O   0  0  0  0  0  0  0  0  0  0  0  0
    7.8752   -5.9990   20.4174 H   0  0  0  0  0  0  0  0  0  0  0  0
    8.4690   -9.1734   23.6919 H   0  0  0  0  0  0  0  0  0  0  0  0
    7.4911   -8.2480   24.8537 H   0  0  0  0  0  0  0  0  0  0  0  0
    6.7723   -9.5937   24.0065 H   0  0  0  0  0  0  0  0  0  0  0  0
  1  2  1  0
  2  3  2  0
  3  4  1  0
  4  5  1  0
  5  6  1  0
  6  7  1  0
  8  7  1  6
  8  9  1  0
  9 10  2  0
  9 11  1  0
 11 12  1  0
 12 13  2  0
 13 14  1  0
 14 15  2  0
 15 16  1  0
 16 17  2  0
 17 18  1  0
 18 19  2  0
 19 20  1  0
 20 21  2  0
 20 22  1  0
 19 23  1  0
 18 24  1  0
 17 25  1  0
 15 26  1  0
 13 27  1  0
 11 28  1  0
 28 29  1  0
 29 30  1  0
 30 31  1  0
 30 32  1  0
 30 33  1  0
 29 34  1  1
 28 35  1  0
 28 36  1  0
  8 37  1  0
 37 38  2  0
 38 39  1  0
 39 40  1  0
 39 41  2  0
 41 42  1  0
 42 43  2  0
 43 44  1  0
 44 45  2  0
 42 46  1  0
 41 47  1  0
 38 48  1  0
  7 49  1  0
  7 50  1  0
  5 51  1  0
  5 52  1  0
  4 53  2  0
 53 54  1  0
 53 55  1  0
  1 56  1  0
  1 57  1  0
  1 58  1  0
 54  2  1  0
 44  6  1  0
 29  8  1  0
 43 37  1  0
 21 12  1  0
 21 16  1  0
M  END
>  <cnnaffinities>  (80) 
[6.76152]

>  <score>  (80) 
6.76152

>  <index>  (80) 
81

>  <Smiles>  (80) 
C(c1nc(C(N2C([C@@]3(C(=O)N(c4c(nc(c5c(c(c(c(c45)[H])[H])[H])[H])[H])[H])C([C@@]3(C([H])([H])[H])[H])([H])[H])c3c(c(F)c(c(c3C2=O)[H])[H])[H])([H])[H])([H])[H])c(o1)[H])([H])([H])[H]

>  <h>  (80) 
<NA>

>  <Training>  (80) 
True

>  <Success>  (80) 
True

>  <enamine_searched>  (80) 
False

>  <enamine_id>  (80) 
nan

$$$$

     RDKit          3D

 55 60  0  0  0  0  0  0  0  0999 V2000
    7.3823   -2.5977   23.7640 C   0  0  0  0  0  0  0  0  0  0  0  0
    7.8003   -1.8210   22.5168 C   0  0  1  0  0  0  0  0  0  0  0  0
    6.6493   -1.6549   21.5090 C   0  0  0  0  0  0  0  0  0  0  0  0
    6.9387   -0.4034   20.8357 N   0  0  0  0  0  0  0  0  0  0  0  0
    6.1441    0.1137   19.7711 C   0  0  0  0  0  0  0  0  0  0  0  0
    6.4398   -0.2177   18.4731 C   0  0  0  0  0  0  0  0  0  0  0  0
    5.7567    0.2294   17.3905 N   0  0  0  0  0  0  0  0  0  0  0  0
    4.7364    1.0277   17.5845 C   0  0  0  0  0  0  0  0  0  0  0  0
    4.2866    1.4224   18.8771 C   0  0  0  0  0  0  0  0  0  0  0  0
    3.1639    2.2735   19.0607 C   0  0  0  0  0  0  0  0  0  0  0  0
    2.7598    2.6282   20.3184 C   0  0  0  0  0  0  0  0  0  0  0  0
    3.4458    2.1353   21.4482 C   0  0  0  0  0  0  0  0  0  0  0  0
    4.5314    1.3066   21.2947 C   0  0  0  0  0  0  0  0  0  0  0  0
    4.9954    0.9411   20.0052 C   0  0  0  0  0  0  0  0  0  0  0  0
    5.0641    0.9401   22.1663 H   0  0  0  0  0  0  0  0  0  0  0  0
    3.1310    2.4283   22.4429 H   0  0  0  0  0  0  0  0  0  0  0  0
    1.9114    3.2929   20.4537 H   0  0  0  0  0  0  0  0  0  0  0  0
    2.6487    2.6534   18.1811 H   0  0  0  0  0  0  0  0  0  0  0  0
    4.2052    1.3946   16.7013 H   0  0  0  0  0  0  0  0  0  0  0  0
    7.2841   -0.8668   18.2495 H   0  0  0  0  0  0  0  0  0  0  0  0
    7.8537    0.3708   21.4905 C   0  0  0  0  0  0  0  0  0  0  0  0
    8.1795    1.5010   21.1343 O   0  0  0  0  0  0  0  0  0  0  0  0
    8.3555   -0.3782   22.7489 C   0  0  1  0  0  0  0  0  0  0  0  0
    7.8034    0.2794   24.0315 C   0  0  0  0  0  0  0  0  0  0  0  0
    8.3684    1.5906   24.2880 N   0  0  0  0  0  0  0  0  0  0  0  0
    7.4905    2.7233   24.5554 C   0  0  0  0  0  0  0  0  0  0  0  0
    7.3348    3.6191   23.3591 C   0  0  0  0  0  0  0  0  0  0  0  0
    8.2136    4.4700   22.9446 N   0  0  0  0  0  0  0  0  0  0  0  0
    7.6294    5.0195   21.8197 C   0  0  0  0  0  0  0  0  0  0  0  0
    6.4145    4.4650   21.6091 C   0  0  0  0  0  0  0  0  0  0  0  0
    6.2034    3.5751   22.6267 O   0  0  0  0  0  0  0  0  0  0  0  0
    5.6458    4.5958   20.8585 H   0  0  0  0  0  0  0  0  0  0  0  0
    8.1113    5.8031   21.2648 H   0  0  0  0  0  0  0  0  0  0  0  0
    7.9287    3.3171   25.3539 H   0  0  0  0  0  0  0  0  0  0  0  0
    6.5102    2.3770   24.8831 H   0  0  0  0  0  0  0  0  0  0  0  0
    9.7200    1.8407   24.1665 C   0  0  0  0  0  0  0  0  0  0  0  0
   10.2208    2.8842   24.5054 O   0  0  0  0  0  0  0  0  0  0  0  0
   10.5257    0.7241   23.5537 C   0  0  0  0  0  0  0  0  0  0  0  0
   11.9338    0.7885   23.5544 C   0  0  0  0  0  0  0  0  0  0  0  0
   12.7054   -0.0488   22.7544 C   0  0  0  0  0  0  0  0  0  0  0  0
   11.9920   -0.8790   21.8814 C   0  0  0  0  0  0  0  0  0  0  0  0
   12.5851   -1.5692   20.8829 F   0  0  0  0  0  0  0  0  0  0  0  0
   10.6287   -1.0271   21.9532 C   0  0  0  0  0  0  0  0  0  0  0  0
    9.8586   -0.2686   22.8239 C   0  0  0  0  0  0  0  0  0  0  0  0
   10.2507   -1.7085   21.2044 H   0  0  0  0  0  0  0  0  0  0  0  0
   13.7999    0.0332   22.7690 H   0  0  0  0  0  0  0  0  0  0  0  0
   12.4112    1.5612   24.1568 H   0  0  0  0  0  0  0  0  0  0  0  0
    8.0001   -0.3689   24.8912 H   0  0  0  0  0  0  0  0  0  0  0  0
    6.7261    0.3733   23.9180 H   0  0  0  0  0  0  0  0  0  0  0  0
    5.6751   -1.6417   22.0191 H   0  0  0  0  0  0  0  0  0  0  0  0
    6.6091   -2.4766   20.7944 H   0  0  0  0  0  0  0  0  0  0  0  0
    8.5862   -2.4072   22.0282 H   0  0  0  0  0  0  0  0  0  0  0  0
    8.1976   -2.6806   24.4880 H   0  0  0  0  0  0  0  0  0  0  0  0
    6.5397   -2.1234   24.2754 H   0  0  0  0  0  0  0  0  0  0  0  0
    7.0708   -3.6123   23.5040 H   0  0  0  0  0  0  0  0  0  0  0  0
  1  2  1  0
  2  3  1  0
  3  4  1  0
  4  5  1  0
  5  6  2  0
  6  7  1  0
  7  8  2  0
  8  9  1  0
  9 10  2  0
 10 11  1  0
 11 12  2  0
 12 13  1  0
 13 14  2  0
 13 15  1  0
 12 16  1  0
 11 17  1  0
 10 18  1  0
  8 19  1  0
  6 20  1  0
  4 21  1  0
 21 22  2  0
 21 23  1  0
 23 24  1  1
 24 25  1  0
 25 26  1  0
 26 27  1  0
 27 28  2  0
 28 29  1  0
 29 30  2  0
 30 31  1  0
 30 32  1  0
 29 33  1  0
 26 34  1  0
 26 35  1  0
 25 36  1  0
 36 37  2  0
 36 38  1  0
 38 39  2  0
 39 40  1  0
 40 41  2  0
 41 42  1  0
 41 43  1  0
 43 44  2  0
 43 45  1  0
 40 46  1  0
 39 47  1  0
 24 48  1  0
 24 49  1  0
  3 50  1  0
  3 51  1  0
  2 52  1  6
  1 53  1  0
  1 54  1  0
  1 55  1  0
 23  2  1  0
 31 27  1  0
 44 38  1  0
 14  5  1  0
 44 23  1  0
 14  9  1  0
M  END
>  <cnnaffinities>  (81) 
[5.97002, 6.27577, 6.28093]

>  <score>  (81) 
5.97002

>  <index>  (81) 
82

>  <Smiles>  (81) 
C([C@]1(C(N(c2c(nc(c3c(c(c(c(c23)[H])[H])[H])[H])[H])[H])C(=O)[C@]21C(N(C(c1nc(c(o1)[H])[H])([H])[H])C(=O)c1c(c(c(F)c(c21)[H])[H])[H])([H])[H])([H])[H])[H])([H])([H])[H]

>  <h>  (81) 
<NA>

>  <Training>  (81) 
True

>  <Success>  (81) 
True

>  <enamine_searched>  (81) 
False

>  <enamine_id>  (81) 
nan

$$$$

     RDKit          3D

 72 77  0  0  0  0  0  0  0  0999 V2000
    5.1789    4.4420   23.5529 C   0  0  0  0  0  0  0  0  0  0  0  0
    6.3835    5.2742   23.9716 C   0  0  2  0  0  0  0  0  0  0  0  0
    6.0151    6.7542   24.0088 C   0  0  0  0  0  0  0  0  0  0  0  0
    7.1282    7.5948   24.2237 O   0  0  0  0  0  0  0  0  0  0  0  0
    8.0368    7.4777   23.1486 C   0  0  0  0  0  0  0  0  0  0  0  0
    8.6659    6.0928   23.1076 C   0  0  1  0  0  0  0  0  0  0  0  0
    9.5651    5.8662   24.3192 C   0  0  0  0  0  0  0  0  0  0  0  0
   10.1792    4.9660   24.2181 H   0  0  0  0  0  0  0  0  0  0  0  0
   10.2494    6.7128   24.4323 H   0  0  0  0  0  0  0  0  0  0  0  0
    8.9644    5.8069   25.2323 H   0  0  0  0  0  0  0  0  0  0  0  0
    7.5297    5.0809   22.9875 N   0  0  0  0  0  4  0  0  0  0  0  0
    8.0116    3.6773   22.8348 C   0  0  0  0  0  0  0  0  0  0  0  0
    8.1291    2.9120   24.1561 C   0  0  0  0  0  0  0  0  0  0  0  0
    8.7563    1.6337   23.9441 N   0  0  0  0  0  0  0  0  0  0  0  0
    7.9906    0.4096   23.8271 C   0  0  0  0  0  0  0  0  0  0  0  0
    8.4094   -0.4491   22.6076 C   0  0  2  0  0  0  0  0  0  0  0  0
    7.9874    0.2066   21.2814 C   0  0  0  0  0  0  0  0  0  0  0  0
    8.5286    1.1379   20.7184 O   0  0  0  0  0  0  0  0  0  0  0  0
    6.8763   -0.4519   20.8137 N   0  0  0  0  0  0  0  0  0  0  0  0
    6.1105    0.0850   19.7580 C   0  0  0  0  0  0  0  0  0  0  0  0
    6.4489   -0.2138   18.4659 C   0  0  0  0  0  0  0  0  0  0  0  0
    5.7718    0.2333   17.3818 N   0  0  0  0  0  0  0  0  0  0  0  0
    4.7401    1.0125   17.5981 C   0  0  0  0  0  0  0  0  0  0  0  0
    4.2922    1.4032   18.8932 C   0  0  0  0  0  0  0  0  0  0  0  0
    3.1703    2.2514   19.0676 C   0  0  0  0  0  0  0  0  0  0  0  0
    2.7696    2.6256   20.3204 C   0  0  0  0  0  0  0  0  0  0  0  0
    3.4714    2.1709   21.4590 C   0  0  0  0  0  0  0  0  0  0  0  0
    4.5608    1.3457   21.3223 C   0  0  0  0  0  0  0  0  0  0  0  0
    4.9936    0.9344   20.0246 C   0  0  0  0  0  0  0  0  0  0  0  0
    5.0925    1.0150   22.2104 H   0  0  0  0  0  0  0  0  0  0  0  0
    3.1496    2.4916   22.4474 H   0  0  0  0  0  0  0  0  0  0  0  0
    1.9155    3.2832   20.4433 H   0  0  0  0  0  0  0  0  0  0  0  0
    2.6560    2.6098   18.1814 H   0  0  0  0  0  0  0  0  0  0  0  0
    4.1928    1.3755   16.7274 H   0  0  0  0  0  0  0  0  0  0  0  0
    7.3136   -0.8473   18.2763 H   0  0  0  0  0  0  0  0  0  0  0  0
    6.4535   -1.5688   21.6288 C   0  0  0  0  0  0  0  0  0  0  0  0
    7.6524   -1.8133   22.5567 C   0  0  2  0  0  0  0  0  0  0  0  0
    7.2585   -2.4335   23.8941 C   0  0  0  0  0  0  0  0  0  0  0  0
    6.5437   -1.7880   24.4164 H   0  0  0  0  0  0  0  0  0  0  0  0
    6.7760   -3.4055   23.7447 H   0  0  0  0  0  0  0  0  0  0  0  0
    8.1256   -2.5890   24.5478 H   0  0  0  0  0  0  0  0  0  0  0  0
    8.3109   -2.5214   22.0506 H   0  0  0  0  0  0  0  0  0  0  0  0
    6.2273   -2.4348   20.9961 H   0  0  0  0  0  0  0  0  0  0  0  0
    5.5549   -1.3240   22.2123 H   0  0  0  0  0  0  0  0  0  0  0  0
    9.9109   -0.5542   22.6328 C   0  0  0  0  0  0  0  0  0  0  0  0
   10.5447   -1.5223   21.8590 C   0  0  0  0  0  0  0  0  0  0  0  0
   11.9180   -1.5675   21.7765 C   0  0  0  0  0  0  0  0  0  0  0  0
   12.5373   -2.7693   20.6651 Cl  0  0  0  0  0  0  0  0  0  0  0  0
   12.7018   -0.6559   22.5167 C   0  0  0  0  0  0  0  0  0  0  0  0
   12.0756    0.3211   23.2549 C   0  0  0  0  0  0  0  0  0  0  0  0
   10.7009    0.4054   23.2685 C   0  0  0  0  0  0  0  0  0  0  0  0
   10.1111    1.6280   23.8658 C   0  0  0  0  0  0  0  0  0  0  0  0
   10.8094    2.5769   24.2149 O   0  0  0  0  0  0  0  0  0  0  0  0
   12.6421    1.0738   23.7960 H   0  0  0  0  0  0  0  0  0  0  0  0
   13.7742   -0.5809   22.5453 H   0  0  0  0  0  0  0  0  0  0  0  0
    9.9568   -2.2290   21.2870 H   0  0  0  0  0  0  0  0  0  0  0  0
    6.9220    0.6511   23.7831 H   0  0  0  0  0  0  0  0  0  0  0  0
    8.1695   -0.2080   24.7159 H   0  0  0  0  0  0  0  0  0  0  0  0
    7.1600    2.7345   24.6281 H   0  0  0  0  0  0  0  0  0  0  0  0
    8.7645    3.4381   24.8699 H   0  0  0  0  0  0  0  0  0  0  0  0
    7.3472    3.1302   22.1541 H   0  0  0  0  0  0  0  0  0  0  0  0
    8.9908    3.7008   22.3404 H   0  0  0  0  0  0  0  0  0  0  0  0
    7.1018    5.3007   22.0655 H   0  0  0  0  0  0  0  0  0  0  0  0
    9.2567    6.0034   22.1868 H   0  0  0  0  0  0  0  0  0  0  0  0
    7.5269    7.6749   22.1912 H   0  0  0  0  0  0  0  0  0  0  0  0
    8.8030    8.2465   23.2885 H   0  0  0  0  0  0  0  0  0  0  0  0
    5.5243    7.0225   23.0573 H   0  0  0  0  0  0  0  0  0  0  0  0
    5.3040    6.9450   24.8189 H   0  0  0  0  0  0  0  0  0  0  0  0
    6.7291    4.9821   24.9678 H   0  0  0  0  0  0  0  0  0  0  0  0
    4.3391    4.6057   24.2351 H   0  0  0  0  0  0  0  0  0  0  0  0
    5.3868    3.3678   23.5287 H   0  0  0  0  0  0  0  0  0  0  0  0
    4.8663    4.7365   22.5421 H   0  0  0  0  0  0  0  0  0  0  0  0
  1  2  1  0
  2  3  1  0
  3  4  1  0
  4  5  1  0
  5  6  1  0
  6  7  1  0
  7  8  1  0
  7  9  1  0
  7 10  1  0
  6 11  1  0
 11 12  1  0
 12 13  1  0
 13 14  1  0
 14 15  1  0
 16 15  1  1
 16 17  1  0
 17 18  2  0
 17 19  1  0
 19 20  1  0
 20 21  2  0
 21 22  1  0
 22 23  2  0
 23 24  1  0
 24 25  2  0
 25 26  1  0
 26 27  2  0
 27 28  1  0
 28 29  2  0
 28 30  1  0
 27 31  1  0
 26 32  1  0
 25 33  1  0
 23 34  1  0
 21 35  1  0
 19 36  1  0
 36 37  1  0
 37 38  1  0
 38 39  1  0
 38 40  1  0
 38 41  1  0
 37 42  1  6
 36 43  1  0
 36 44  1  0
 16 45  1  0
 45 46  2  0
 46 47  1  0
 47 48  1  0
 47 49  2  0
 49 50  1  0
 50 51  2  0
 51 52  1  0
 52 53  2  0
 50 54  1  0
 49 55  1  0
 46 56  1  0
 15 57  1  0
 15 58  1  0
 13 59  1  0
 13 60  1  0
 12 61  1  0
 12 62  1  0
 11 63  1  0
  6 64  1  6
  5 65  1  0
  5 66  1  0
  3 67  1  0
  3 68  1  0
  2 69  1  1
  1 70  1  0
  1 71  1  0
  1 72  1  0
 11  2  1  0
 52 14  1  0
 37 16  1  0
 51 45  1  0
 29 20  1  0
 29 24  1  0
M  CHG  1  11   1
M  END
>  <cnnaffinities>  (82) 
[6.7908]

>  <score>  (82) 
6.7908

>  <index>  (82) 
83

>  <Smiles>  (82) 
C([C@@]1(C(OC([C@@](C([H])([H])[H])([N+]1(C(C(N1C([C@@]2(C(=O)N(c3c(nc(c4c(c(c(c(c34)[H])[H])[H])[H])[H])[H])C([C@@]2(C([H])([H])[H])[H])([H])[H])c2c(c(Cl)c(c(c2C1=O)[H])[H])[H])([H])[H])([H])[H])([H])[H])[H])[H])([H])[H])([H])[H])[H])([H])([H])[H]

>  <h>  (82) 
<NA>

>  <Training>  (82) 
True

>  <Success>  (82) 
True

>  <enamine_searched>  (82) 
False

>  <enamine_id>  (82) 
nan

$$$$

     RDKit          3D

 60 65  0  0  0  0  0  0  0  0999 V2000
    6.3247    4.7249   22.7162 C   0  0  0  0  0  0  0  0  0  0  0  0
    7.0814    3.9351   23.6801 N   0  0  0  0  0  0  0  0  0  0  0  0
    6.5122    2.8696   24.2786 C   0  0  0  0  0  0  0  0  0  0  0  0
    5.3069    2.6536   24.2214 O   0  0  0  0  0  0  0  0  0  0  0  0
    7.4223    1.9774   25.1403 C   0  0  0  0  0  0  0  0  0  0  0  0
    8.4729    1.2005   24.4759 N   0  0  0  0  0  0  0  0  0  0  0  0
    8.1166   -0.1373   24.0410 C   0  0  0  0  0  0  0  0  0  0  0  0
    8.5431   -0.4011   22.5941 C   0  0  2  0  0  0  0  0  0  0  0  0
    7.7152    0.4610   21.6056 C   0  0  0  0  0  0  0  0  0  0  0  0
    7.6897    1.6717   21.5274 O   0  0  0  0  0  0  0  0  0  0  0  0
    6.9366   -0.3668   20.8438 N   0  0  0  0  0  0  0  0  0  0  0  0
    6.1409    0.1158   19.7715 C   0  0  0  0  0  0  0  0  0  0  0  0
    6.4383   -0.2194   18.4741 C   0  0  0  0  0  0  0  0  0  0  0  0
    5.7590    0.2271   17.3879 N   0  0  0  0  0  0  0  0  0  0  0  0
    4.7392    1.0227   17.5924 C   0  0  0  0  0  0  0  0  0  0  0  0
    4.2907    1.4155   18.8837 C   0  0  0  0  0  0  0  0  0  0  0  0
    3.1628    2.2636   19.0631 C   0  0  0  0  0  0  0  0  0  0  0  0
    2.7473    2.6140   20.3167 C   0  0  0  0  0  0  0  0  0  0  0  0
    3.4306    2.1215   21.4536 C   0  0  0  0  0  0  0  0  0  0  0  0
    4.5160    1.2984   21.3053 C   0  0  0  0  0  0  0  0  0  0  0  0
    4.9961    0.9413   20.0138 C   0  0  0  0  0  0  0  0  0  0  0  0
    5.0281    0.9148   22.1809 H   0  0  0  0  0  0  0  0  0  0  0  0
    3.1084    2.4038   22.4513 H   0  0  0  0  0  0  0  0  0  0  0  0
    1.8939    3.2755   20.4459 H   0  0  0  0  0  0  0  0  0  0  0  0
    2.6568    2.6424   18.1784 H   0  0  0  0  0  0  0  0  0  0  0  0
    4.2101    1.3893   16.7117 H   0  0  0  0  0  0  0  0  0  0  0  0
    7.2886   -0.8651   18.2521 H   0  0  0  0  0  0  0  0  0  0  0  0
    7.0569   -1.7690   21.1614 C   0  0  0  0  0  0  0  0  0  0  0  0
    8.2554   -1.8769   22.1125 C   0  0  2  0  0  0  0  0  0  0  0  0
    8.0673   -2.9252   23.2105 C   0  0  0  0  0  0  0  0  0  0  0  0
    7.1919   -2.7059   23.8296 H   0  0  0  0  0  0  0  0  0  0  0  0
    7.9236   -3.9100   22.7626 H   0  0  0  0  0  0  0  0  0  0  0  0
    8.9397   -2.9859   23.8704 H   0  0  0  0  0  0  0  0  0  0  0  0
    9.1078   -2.2081   21.5147 H   0  0  0  0  0  0  0  0  0  0  0  0
    6.1434   -2.1598   21.6256 H   0  0  0  0  0  0  0  0  0  0  0  0
    7.2269   -2.3153   20.2397 H   0  0  0  0  0  0  0  0  0  0  0  0
    9.9744   -0.0100   22.5327 C   0  0  0  0  0  0  0  0  0  0  0  0
   10.8210   -0.5898   21.4996 C   0  0  0  0  0  0  0  0  0  0  0  0
   12.1246   -0.3425   21.6647 C   0  0  0  0  0  0  0  0  0  0  0  0
   13.1320   -1.0301   20.4001 Cl  0  0  0  0  0  0  0  0  0  0  0  0
   11.8931    1.1609   22.9241 C   0  0  0  0  0  0  0  0  0  0  0  0
   12.1488    1.3990   23.1751 C   0  0  0  0  0  0  0  0  0  0  0  0
   10.5501    0.9496   23.3059 C   0  0  0  0  0  0  0  0  0  0  0  0
    9.6850    1.7721   24.1231 C   0  0  0  0  0  0  0  0  0  0  0  0
    9.9076    2.9302   24.4890 O   0  0  0  0  0  0  0  0  0  0  0  0
   12.3722    2.3263   23.7696 H   0  0  0  0  0  0  0  0  0  0  0  0
   12.9636    0.6995   23.5474 H   0  0  0  0  0  0  0  0  0  0  0  0
   10.4434   -1.0564   20.5718 H   0  0  0  0  0  0  0  0  0  0  0  0
    8.5493   -0.8895   24.7158 H   0  0  0  0  0  0  0  0  0  0  0  0
    7.0379   -0.2117   24.1052 H   0  0  0  0  0  0  0  0  0  0  0  0
    7.6004    2.4573   26.5598 C   0  0  0  0  0  0  0  0  0  0  0  0
    6.6857    1.3271   26.3112 C   0  0  0  0  0  0  0  0  0  0  0  0
    7.0219    0.3543   26.6574 H   0  0  0  0  0  0  0  0  0  0  0  0
    5.6308    1.5400   26.4448 H   0  0  0  0  0  0  0  0  0  0  0  0
    8.5416    2.2085   26.9997 H   0  0  0  0  0  0  0  0  0  0  0  0
    7.1765    3.4124   26.8717 H   0  0  0  0  0  0  0  0  0  0  0  0
    8.0672    4.1031   23.7949 H   0  0  0  0  0  0  0  0  0  0  0  0
    5.9382    4.0903   21.9050 H   0  0  0  0  0  0  0  0  0  0  0  0
    5.4750    5.2295   23.1907 H   0  0  0  0  0  0  0  0  0  0  0  0
    6.9864    5.4854   22.2926 H   0  0  0  0  0  0  0  0  0  0  0  0
  1  2  1  0
  2  3  1  0
  3  4  2  0
  3  5  1  0
  5  6  1  0
  6  7  1  0
  8  7  1  1
  8  9  1  0
  9 10  2  0
  9 11  1  0
 11 12  1  0
 12 13  2  0
 13 14  1  0
 14 15  2  0
 15 16  1  0
 16 17  2  0
 17 18  1  0
 18 19  2  0
 19 20  1  0
 20 21  2  0
 20 22  1  0
 19 23  1  0
 18 24  1  0
 17 25  1  0
 15 26  1  0
 13 27  1  0
 11 28  1  0
 28 29  1  0
 29 30  1  0
 30 31  1  0
 30 32  1  0
 30 33  1  0
 29 34  1  6
 28 35  1  0
 28 36  1  0
  8 37  1  0
 37 38  2  0
 38 39  1  0
 39 40  1  0
 39 41  2  0
 41 42  1  0
 42 43  2  0
 43 44  1  0
 44 45  2  0
 42 46  1  0
 41 47  1  0
 38 48  1  0
  7 49  1  0
  7 50  1  0
  5 51  1  0
 51 52  1  0
 52 53  1  0
 52 54  1  0
 51 55  1  0
 51 56  1  0
  2 57  1  0
  1 58  1  0
  1 59  1  0
  1 60  1  0
 52  5  1  0
 44  6  1  0
 29  8  1  0
 43 37  1  0
 21 12  1  0
 21 16  1  0
M  END
>  <cnnaffinities>  (83) 
[6.20641]

>  <score>  (83) 
6.20641

>  <index>  (83) 
84

>  <Smiles>  (83) 
C(N(C(=O)C1(N2C([C@@]3(C(=O)N(c4c(nc(c5c(c(c(c(c45)[H])[H])[H])[H])[H])[H])C([C@@]3(C([H])([H])[H])[H])([H])[H])c3c(c(Cl)c(c(c3C2=O)[H])[H])[H])([H])[H])C(C1([H])[H])([H])[H])[H])([H])([H])[H]

>  <h>  (83) 
<NA>

>  <Training>  (83) 
True

>  <Success>  (83) 
True

>  <enamine_searched>  (83) 
False

>  <enamine_id>  (83) 
nan

$$$$

     RDKit          3D

 55 60  0  0  0  0  0  0  0  0999 V2000
    9.7483   -1.8822   21.9029 C   0  0  0  0  0  0  0  0  0  0  0  0
    8.6352   -0.9226   22.3605 C   0  0  1  0  0  0  0  0  0  0  0  0
    8.1862   -0.0199   21.1896 C   0  0  0  0  0  0  0  0  0  0  0  0
    6.8632   -0.4904   20.8362 N   0  0  0  0  0  0  0  0  0  0  0  0
    6.1009    0.0546   19.7757 C   0  0  0  0  0  0  0  0  0  0  0  0
    6.4462   -0.2240   18.4781 C   0  0  0  0  0  0  0  0  0  0  0  0
    5.7832    0.2401   17.3953 N   0  0  0  0  0  0  0  0  0  0  0  0
    4.7504    1.0183   17.6074 C   0  0  0  0  0  0  0  0  0  0  0  0
    4.2910    1.3994   18.9014 C   0  0  0  0  0  0  0  0  0  0  0  0
    3.1724    2.2589   19.0669 C   0  0  0  0  0  0  0  0  0  0  0  0
    2.7761    2.6458   20.3167 C   0  0  0  0  0  0  0  0  0  0  0  0
    3.4815    2.1920   21.4541 C   0  0  0  0  0  0  0  0  0  0  0  0
    4.5626    1.3557   21.3244 C   0  0  0  0  0  0  0  0  0  0  0  0
    4.9876    0.9213   20.0311 C   0  0  0  0  0  0  0  0  0  0  0  0
    5.0950    1.0154   22.2121 H   0  0  0  0  0  0  0  0  0  0  0  0
    3.1578    2.5075   22.4412 H   0  0  0  0  0  0  0  0  0  0  0  0
    1.9276    3.3133   20.4360 H   0  0  0  0  0  0  0  0  0  0  0  0
    2.6665    2.6201   18.1755 H   0  0  0  0  0  0  0  0  0  0  0  0
    4.2223    1.3809   16.7269 H   0  0  0  0  0  0  0  0  0  0  0  0
    7.2961   -0.8716   18.2691 H   0  0  0  0  0  0  0  0  0  0  0  0
    6.3203   -1.3928   21.7159 C   0  0  0  0  0  0  0  0  0  0  0  0
    5.2315   -1.9153   21.5818 O   0  0  0  0  0  0  0  0  0  0  0  0
    7.3224   -1.5934   22.8785 C   0  0  1  0  0  0  0  0  0  0  0  0
    7.4697   -3.0938   23.1603 C   0  0  0  0  0  0  0  0  0  0  0  0
    6.2222   -3.6103   23.6699 N   0  0  0  0  0  0  0  0  0  0  0  0
    5.7796   -4.8919   23.1880 C   0  0  0  0  0  0  0  0  0  0  0  0
    6.5178   -6.0249   23.8129 C   0  0  0  0  0  0  0  0  0  0  0  0
    6.1592   -6.7796   24.8707 C   0  0  0  0  0  0  0  0  0  0  0  0
    7.1066   -7.7327   25.0400 O   0  0  0  0  0  0  0  0  0  0  0  0
    8.0243   -7.4778   24.0972 C   0  0  0  0  0  0  0  0  0  0  0  0
    7.7448   -6.4767   23.3313 N   0  0  0  0  0  0  0  0  0  0  0  0
    8.8957   -8.1094   24.1101 H   0  0  0  0  0  0  0  0  0  0  0  0
    5.3557   -6.7625   25.5856 H   0  0  0  0  0  0  0  0  0  0  0  0
    4.7150   -4.9721   23.4206 H   0  0  0  0  0  0  0  0  0  0  0  0
    5.9363   -4.9011   22.1012 H   0  0  0  0  0  0  0  0  0  0  0  0
    5.6595   -3.1111   24.8061 C   0  0  0  0  0  0  0  0  0  0  0  0
    4.9143   -3.7742   25.5199 O   0  0  0  0  0  0  0  0  0  0  0  0
    5.9896   -1.6792   25.0644 C   0  0  0  0  0  0  0  0  0  0  0  0
    5.4485   -1.0816   26.2009 C   0  0  0  0  0  0  0  0  0  0  0  0
    5.6306    0.2694   26.4212 C   0  0  0  0  0  0  0  0  0  0  0  0
    6.3505    1.0002   25.4847 C   0  0  0  0  0  0  0  0  0  0  0  0
    6.5130    2.3191   25.6916 F   0  0  0  0  0  0  0  0  0  0  0  0
    6.9040    0.4286   24.3571 C   0  0  0  0  0  0  0  0  0  0  0  0
    6.7543   -0.9462   24.1438 C   0  0  0  0  0  0  0  0  0  0  0  0
    7.4338    1.0728   23.6631 H   0  0  0  0  0  0  0  0  0  0  0  0
    5.2157    0.7755   27.2817 H   0  0  0  0  0  0  0  0  0  0  0  0
    4.8696   -1.7154   26.8675 H   0  0  0  0  0  0  0  0  0  0  0  0
    8.2899   -3.2563   23.8802 H   0  0  0  0  0  0  0  0  0  0  0  0
    7.6876   -3.6382   22.2395 H   0  0  0  0  0  0  0  0  0  0  0  0
    8.8642   -0.1229   20.3417 H   0  0  0  0  0  0  0  0  0  0  0  0
    8.1610    1.0444   21.4630 H   0  0  0  0  0  0  0  0  0  0  0  0
    9.0557   -0.3241   23.1776 H   0  0  0  0  0  0  0  0  0  0  0  0
   10.1032   -2.5146   22.7211 H   0  0  0  0  0  0  0  0  0  0  0  0
    9.4162   -2.5350   21.0876 H   0  0  0  0  0  0  0  0  0  0  0  0
   10.6069   -1.3084   21.5396 H   0  0  0  0  0  0  0  0  0  0  0  0
  1  2  1  0
  2  3  1  0
  3  4  1  0
  4  5  1  0
  5  6  2  0
  6  7  1  0
  7  8  2  0
  8  9  1  0
  9 10  2  0
 10 11  1  0
 11 12  2  0
 12 13  1  0
 13 14  2  0
 13 15  1  0
 12 16  1  0
 11 17  1  0
 10 18  1  0
  8 19  1  0
  6 20  1  0
  4 21  1  0
 21 22  2  0
 21 23  1  0
 23 24  1  1
 24 25  1  0
 25 26  1  0
 26 27  1  0
 27 28  2  0
 28 29  1  0
 29 30  1  0
 30 31  2  0
 30 32  1  0
 28 33  1  0
 26 34  1  0
 26 35  1  0
 25 36  1  0
 36 37  2  0
 36 38  1  0
 38 39  2  0
 39 40  1  0
 40 41  2  0
 41 42  1  0
 41 43  1  0
 43 44  2  0
 43 45  1  0
 40 46  1  0
 39 47  1  0
 24 48  1  0
 24 49  1  0
  3 50  1  0
  3 51  1  0
  2 52  1  1
  1 53  1  0
  1 54  1  0
  1 55  1  0
 23  2  1  0
 31 27  1  0
 44 38  1  0
 14  5  1  0
 44 23  1  0
 14  9  1  0
M  END
>  <cnnaffinities>  (84) 
[6.37437, 6.65074]

>  <score>  (84) 
6.37437

>  <index>  (84) 
85

>  <Smiles>  (84) 
C([C@]1(C(N(c2c(nc(c3c(c(c(c(c23)[H])[H])[H])[H])[H])[H])C(=O)[C@]21C(N(C(c1c(oc(n1)[H])[H])([H])[H])C(=O)c1c(c(c(F)c(c21)[H])[H])[H])([H])[H])([H])[H])[H])([H])([H])[H]

>  <h>  (84) 
<NA>

>  <Training>  (84) 
True

>  <Success>  (84) 
True

>  <enamine_searched>  (84) 
False

>  <enamine_id>  (84) 
nan

$$$$

     RDKit          3D

 65 70  0  0  0  0  0  0  0  0999 V2000
    6.4900    4.3296   21.3682 C   0  0  0  0  0  0  0  0  0  0  0  0
    7.4210    3.8950   22.3950 N   0  0  0  0  0  0  0  0  0  0  0  0
    6.9279    3.3163   23.5311 C   0  0  0  0  0  0  0  0  0  0  0  0
    5.7293    3.1952   23.7271 O   0  0  0  0  0  0  0  0  0  0  0  0
    7.9486    2.7988   24.5574 C   0  0  0  0  0  0  0  0  0  0  0  0
    8.6272    1.6225   24.0427 N   0  0  0  0  0  0  0  0  0  0  0  0
    7.8894    0.3695   23.9142 C   0  0  0  0  0  0  0  0  0  0  0  0
    8.3099   -0.4384   22.6561 C   0  0  2  0  0  0  0  0  0  0  0  0
    7.8886    0.2741   21.3480 C   0  0  0  0  0  0  0  0  0  0  0  0
    8.3823    1.2663   20.8521 O   0  0  0  0  0  0  0  0  0  0  0  0
    6.8619   -0.4518   20.7836 N   0  0  0  0  0  0  0  0  0  0  0  0
    6.1116    0.0920   19.7217 C   0  0  0  0  0  0  0  0  0  0  0  0
    6.4669   -0.1838   18.4283 C   0  0  0  0  0  0  0  0  0  0  0  0
    5.7787    0.2576   17.3527 N   0  0  0  0  0  0  0  0  0  0  0  0
    4.7289    1.0082   17.5814 C   0  0  0  0  0  0  0  0  0  0  0  0
    4.2705    1.3829   18.8767 C   0  0  0  0  0  0  0  0  0  0  0  0
    3.1481    2.2268   19.0658 C   0  0  0  0  0  0  0  0  0  0  0  0
    2.7600    2.5988   20.3237 C   0  0  0  0  0  0  0  0  0  0  0  0
    3.4738    2.1426   21.4542 C   0  0  0  0  0  0  0  0  0  0  0  0
    4.5619    1.3177   21.2983 C   0  0  0  0  0  0  0  0  0  0  0  0
    4.9843    0.9155   19.9975 C   0  0  0  0  0  0  0  0  0  0  0  0
    5.1341    1.0175   22.1727 H   0  0  0  0  0  0  0  0  0  0  0  0
    3.1879    2.4742   22.4470 H   0  0  0  0  0  0  0  0  0  0  0  0
    1.9099    3.2605   20.4556 H   0  0  0  0  0  0  0  0  0  0  0  0
    2.6349    2.5903   18.1818 H   0  0  0  0  0  0  0  0  0  0  0  0
    4.1829    1.3692   16.7127 H   0  0  0  0  0  0  0  0  0  0  0  0
    7.3454   -0.7961   18.2353 H   0  0  0  0  0  0  0  0  0  0  0  0
    6.3694   -1.5341   21.6088 C   0  0  0  0  0  0  0  0  0  0  0  0
    7.5788   -1.8022   22.5012 C   0  0  2  0  0  0  0  0  0  0  0  0
    7.3513   -2.6696   23.7415 C   0  0  0  0  0  0  0  0  0  0  0  0
    6.1954   -2.3289   24.5521 N   0  0  0  0  0  0  0  0  0  0  0  0
    4.9733   -2.8689   24.3745 C   0  0  0  0  0  0  0  0  0  0  0  0
    4.0009   -2.4654   25.2220 N   0  0  0  0  0  0  0  0  0  0  0  0
    2.8157   -2.9780   24.9424 C   0  0  0  0  0  0  0  0  0  0  0  0
    2.5260   -3.8365   23.9601 N   0  0  0  0  0  0  0  0  0  0  0  0
    3.5783   -4.1921   23.2251 C   0  0  0  0  0  0  0  0  0  0  0  0
    4.8216   -3.7590   23.3684 N   0  0  0  0  0  0  0  0  0  0  0  0
    3.3827   -4.9062   22.4221 H   0  0  0  0  0  0  0  0  0  0  0  0
    1.9837   -2.6603   25.5712 H   0  0  0  0  0  0  0  0  0  0  0  0
    6.2686   -1.6355   25.2788 H   0  0  0  0  0  0  0  0  0  0  0  0
    7.2131   -3.7024   23.4137 H   0  0  0  0  0  0  0  0  0  0  0  0
    8.2557   -2.6148   24.3629 H   0  0  0  0  0  0  0  0  0  0  0  0
    8.2442   -2.3854   21.8620 H   0  0  0  0  0  0  0  0  0  0  0  0
    5.4674   -1.2273   22.1526 H   0  0  0  0  0  0  0  0  0  0  0  0
    6.1131   -2.4157   21.0121 H   0  0  0  0  0  0  0  0  0  0  0  0
    9.8152   -0.5322   22.6441 C   0  0  0  0  0  0  0  0  0  0  0  0
   10.4580   -1.4749   21.8345 C   0  0  0  0  0  0  0  0  0  0  0  0
   11.8273   -1.4688   21.6890 C   0  0  0  0  0  0  0  0  0  0  0  0
   12.4631   -2.5808   20.4941 Cl  0  0  0  0  0  0  0  0  0  0  0  0
   12.6016   -0.5563   22.4158 C   0  0  0  0  0  0  0  0  0  0  0  0
   11.9771    0.3888   23.1960 C   0  0  0  0  0  0  0  0  0  0  0  0
   10.5928    0.4519   23.2581 C   0  0  0  0  0  0  0  0  0  0  0  0
    9.9851    1.6630   23.8917 C   0  0  0  0  0  0  0  0  0  0  0  0
   10.6692    2.6241   24.2253 O   0  0  0  0  0  0  0  0  0  0  0  0
   12.5573    1.1287   23.7355 H   0  0  0  0  0  0  0  0  0  0  0  0
   13.6756   -0.4808   22.3686 H   0  0  0  0  0  0  0  0  0  0  0  0
    9.9291   -2.2074   21.2397 H   0  0  0  0  0  0  0  0  0  0  0  0
    8.0715   -0.2437   24.8110 H   0  0  0  0  0  0  0  0  0  0  0  0
    6.8255    0.6155   23.8529 H   0  0  0  0  0  0  0  0  0  0  0  0
    8.7345    3.5322   24.7717 H   0  0  0  0  0  0  0  0  0  0  0  0
    7.4223    2.5784   25.4973 H   0  0  0  0  0  0  0  0  0  0  0  0
    8.3261    3.5858   22.0675 H   0  0  0  0  0  0  0  0  0  0  0  0
    5.7241    4.9726   21.8108 H   0  0  0  0  0  0  0  0  0  0  0  0
    6.0002    3.4746   20.8856 H   0  0  0  0  0  0  0  0  0  0  0  0
    7.0289    4.9131   20.6175 H   0  0  0  0  0  0  0  0  0  0  0  0
  1  2  1  0
  2  3  1  0
  3  4  2  0
  3  5  1  0
  5  6  1  0
  6  7  1  0
  8  7  1  1
  8  9  1  0
  9 10  2  0
  9 11  1  0
 11 12  1  0
 12 13  2  0
 13 14  1  0
 14 15  2  0
 15 16  1  0
 16 17  2  0
 17 18  1  0
 18 19  2  0
 19 20  1  0
 20 21  2  0
 20 22  1  0
 19 23  1  0
 18 24  1  0
 17 25  1  0
 15 26  1  0
 13 27  1  0
 11 28  1  0
 28 29  1  0
 29 30  1  0
 30 31  1  0
 31 32  1  0
 32 33  2  0
 33 34  1  0
 34 35  2  0
 35 36  1  0
 36 37  2  0
 36 38  1  0
 34 39  1  0
 31 40  1  0
 30 41  1  0
 30 42  1  0
 29 43  1  6
 28 44  1  0
 28 45  1  0
  8 46  1  0
 46 47  2  0
 47 48  1  0
 48 49  1  0
 48 50  2  0
 50 51  1  0
 51 52  2  0
 52 53  1  0
 53 54  2  0
 51 55  1  0
 50 56  1  0
 47 57  1  0
  7 58  1  0
  7 59  1  0
  5 60  1  0
  5 61  1  0
  2 62  1  0
  1 63  1  0
  1 64  1  0
  1 65  1  0
 53  6  1  0
 29  8  1  0
 37 32  1  0
 52 46  1  0
 21 12  1  0
 21 16  1  0
M  END
>  <cnnaffinities>  (85) 
[6.0757]

>  <score>  (85) 
6.0757

>  <index>  (85) 
86

>  <Smiles>  (85) 
C(N(C(=O)C(N1C([C@@]2(C(=O)N(c3c(nc(c4c(c(c(c(c34)[H])[H])[H])[H])[H])[H])C([C@@]2(C(N(c2nc(nc(n2)[H])[H])[H])([H])[H])[H])([H])[H])c2c(c(Cl)c(c(c2C1=O)[H])[H])[H])([H])[H])([H])[H])[H])([H])([H])[H]

>  <h>  (85) 
<NA>

>  <Training>  (85) 
True

>  <Success>  (85) 
True

>  <enamine_searched>  (85) 
False

>  <enamine_id>  (85) 
nan

$$$$

     RDKit          3D

 63 68  0  0  0  0  0  0  0  0999 V2000
    7.8167    5.1039   21.8549 C   0  0  0  0  0  0  0  0  0  0  0  0
    8.1526    4.3615   23.0528 N   0  0  0  0  0  0  0  0  0  0  0  0
    7.2469    3.4631   23.5167 C   0  0  0  0  0  0  0  0  0  0  0  0
    6.1199    3.3395   23.0678 O   0  0  0  0  0  0  0  0  0  0  0  0
    7.7575    2.6229   24.6865 C   0  0  0  0  0  0  0  0  0  0  0  0
    8.5516    1.4970   24.2371 N   0  0  0  0  0  0  0  0  0  0  0  0
    7.8880    0.2257   23.9969 C   0  0  0  0  0  0  0  0  0  0  0  0
    8.3718   -0.4479   22.6924 C   0  0  2  0  0  0  0  0  0  0  0  0
    7.8551    0.3463   21.4707 C   0  0  0  0  0  0  0  0  0  0  0  0
    8.2021    1.4506   21.1170 O   0  0  0  0  0  0  0  0  0  0  0  0
    6.9043   -0.4194   20.8325 N   0  0  0  0  0  0  0  0  0  0  0  0
    6.1277    0.0997   19.7661 C   0  0  0  0  0  0  0  0  0  0  0  0
    6.4442   -0.2211   18.4732 C   0  0  0  0  0  0  0  0  0  0  0  0
    5.7658    0.2222   17.3875 N   0  0  0  0  0  0  0  0  0  0  0  0
    4.7384    1.0102   17.5915 C   0  0  0  0  0  0  0  0  0  0  0  0
    4.2859    1.4010   18.8828 C   0  0  0  0  0  0  0  0  0  0  0  0
    3.1615    2.2496   19.0603 C   0  0  0  0  0  0  0  0  0  0  0  0
    2.7540    2.6095   20.3143 C   0  0  0  0  0  0  0  0  0  0  0  0
    3.4444    2.1329   21.4510 C   0  0  0  0  0  0  0  0  0  0  0  0
    4.5355    1.3120   21.3059 C   0  0  0  0  0  0  0  0  0  0  0  0
    4.9900    0.9315   20.0134 C   0  0  0  0  0  0  0  0  0  0  0  0
    5.0720    0.9706   22.1871 H   0  0  0  0  0  0  0  0  0  0  0  0
    3.1271    2.4345   22.4438 H   0  0  0  0  0  0  0  0  0  0  0  0
    1.9043    3.2731   20.4419 H   0  0  0  0  0  0  0  0  0  0  0  0
    2.6537    2.6235   18.1756 H   0  0  0  0  0  0  0  0  0  0  0  0
    4.2040    1.3746   16.7135 H   0  0  0  0  0  0  0  0  0  0  0  0
    7.2976   -0.8661   18.2683 H   0  0  0  0  0  0  0  0  0  0  0  0
    6.5775   -1.6544   21.5114 C   0  0  0  0  0  0  0  0  0  0  0  0
    7.7549   -1.8590   22.4718 C   0  0  2  0  0  0  0  0  0  0  0  0
    7.3622   -2.6448   23.7325 C   0  0  0  0  0  0  0  0  0  0  0  0
    6.9431   -4.0010   23.4256 N   0  0  0  0  0  0  0  0  0  0  0  0
    7.7409   -5.0714   23.2066 C   0  0  0  0  0  0  0  0  0  0  0  0
    6.9202   -6.1171   22.8521 C   0  0  0  0  0  0  0  0  0  0  0  0
    5.6230   -5.5648   22.8851 C   0  0  0  0  0  0  0  0  0  0  0  0
    5.6484   -4.2797   23.2226 N   0  0  0  0  0  0  0  0  0  0  0  0
    4.6727   -6.0470   22.6838 H   0  0  0  0  0  0  0  0  0  0  0  0
    7.2106   -7.1306   22.6074 H   0  0  0  0  0  0  0  0  0  0  0  0
    8.8165   -5.0074   23.3249 H   0  0  0  0  0  0  0  0  0  0  0  0
    8.2079   -2.7041   24.4252 H   0  0  0  0  0  0  0  0  0  0  0  0
    6.5244   -2.1660   24.2451 H   0  0  0  0  0  0  0  0  0  0  0  0
    8.5112   -2.4607   21.9636 H   0  0  0  0  0  0  0  0  0  0  0  0
    6.4761   -2.4669   20.7892 H   0  0  0  0  0  0  0  0  0  0  0  0
    5.6251   -1.5857   22.0609 H   0  0  0  0  0  0  0  0  0  0  0  0
    9.8798   -0.4136   22.6704 C   0  0  0  0  0  0  0  0  0  0  0  0
   10.5638   -1.1949   21.7418 C   0  0  0  0  0  0  0  0  0  0  0  0
   11.9363   -1.1268   21.6487 C   0  0  0  0  0  0  0  0  0  0  0  0
   12.6388   -2.0023   20.3157 Cl  0  0  0  0  0  0  0  0  0  0  0  0
   12.6872   -0.3392   22.5292 C   0  0  0  0  0  0  0  0  0  0  0  0
   12.0021    0.5199   23.3659 C   0  0  0  0  0  0  0  0  0  0  0  0
   10.6065    0.5492   23.3786 C   0  0  0  0  0  0  0  0  0  0  0  0
    9.8847    1.6880   24.0321 C   0  0  0  0  0  0  0  0  0  0  0  0
   10.4313    2.7575   24.3091 O   0  0  0  0  0  0  0  0  0  0  0  0
   12.5465    1.2244   23.9812 H   0  0  0  0  0  0  0  0  0  0  0  0
   13.7761   -0.3384   22.5122 H   0  0  0  0  0  0  0  0  0  0  0  0
   10.0462   -1.8368   21.0380 H   0  0  0  0  0  0  0  0  0  0  0  0
    6.8108    0.4166   23.9224 H   0  0  0  0  0  0  0  0  0  0  0  0
    8.0753   -0.4434   24.8450 H   0  0  0  0  0  0  0  0  0  0  0  0
    6.8958    2.2590   25.2483 H   0  0  0  0  0  0  0  0  0  0  0  0
    8.3782    3.2394   25.3341 H   0  0  0  0  0  0  0  0  0  0  0  0
    9.1233    4.1790   23.2867 H   0  0  0  0  0  0  0  0  0  0  0  0
    8.6108    5.8030   21.6008 H   0  0  0  0  0  0  0  0  0  0  0  0
    7.6171    4.4144   21.0224 H   0  0  0  0  0  0  0  0  0  0  0  0
    6.9225    5.7042   22.0114 H   0  0  0  0  0  0  0  0  0  0  0  0
  1  2  1  0
  2  3  1  0
  3  4  2  0
  3  5  1  0
  5  6  1  0
  6  7  1  0
  8  7  1  1
  8  9  1  0
  9 10  2  0
  9 11  1  0
 11 12  1  0
 12 13  2  0
 13 14  1  0
 14 15  2  0
 15 16  1  0
 16 17  2  0
 17 18  1  0
 18 19  2  0
 19 20  1  0
 20 21  2  0
 20 22  1  0
 19 23  1  0
 18 24  1  0
 17 25  1  0
 15 26  1  0
 13 27  1  0
 11 28  1  0
 28 29  1  0
 29 30  1  0
 30 31  1  0
 31 32  1  0
 32 33  2  0
 33 34  1  0
 34 35  2  0
 34 36  1  0
 33 37  1  0
 32 38  1  0
 30 39  1  0
 30 40  1  0
 29 41  1  6
 28 42  1  0
 28 43  1  0
  8 44  1  0
 44 45  2  0
 45 46  1  0
 46 47  1  0
 46 48  2  0
 48 49  1  0
 49 50  2  0
 50 51  1  0
 51 52  2  0
 49 53  1  0
 48 54  1  0
 45 55  1  0
  7 56  1  0
  7 57  1  0
  5 58  1  0
  5 59  1  0
  2 60  1  0
  1 61  1  0
  1 62  1  0
  1 63  1  0
 51  6  1  0
 29  8  1  0
 35 31  1  0
 50 44  1  0
 21 12  1  0
 21 16  1  0
M  END
>  <cnnaffinities>  (86) 
[6.75056, 6.86243, 6.60794]

>  <score>  (86) 
6.75056

>  <index>  (86) 
87

>  <Smiles>  (86) 
C(N(C(=O)C(N1C([C@@]2(C(=O)N(c3c(nc(c4c(c(c(c(c34)[H])[H])[H])[H])[H])[H])C([C@@]2(C(n2c(c(c(n2)[H])[H])[H])([H])[H])[H])([H])[H])c2c(c(Cl)c(c(c2C1=O)[H])[H])[H])([H])[H])([H])[H])[H])([H])([H])[H]

>  <h>  (86) 
<NA>

>  <Training>  (86) 
True

>  <Success>  (86) 
True

>  <enamine_searched>  (86) 
False

>  <enamine_id>  (86) 
nan

$$$$

     RDKit          3D

 64 68  0  0  0  0  0  0  0  0999 V2000
    1.8435    1.7116   27.6020 C   0  0  0  0  0  0  0  0  0  0  0  0
    3.3533    1.9075   27.4295 C   0  0  0  0  0  0  0  0  0  0  0  0
    3.9552    1.0861   26.2854 C   0  0  0  0  0  0  0  0  0  0  0  0
    3.7839    1.5006   25.1443 O   0  0  0  0  0  0  0  0  0  0  0  0
    4.7811   -0.0043   26.5418 N   0  0  0  0  0  0  0  0  0  0  0  0
    4.7191   -0.6492   27.8603 C   0  0  0  0  0  0  0  0  0  0  0  0
    4.8244   -2.1649   27.6974 C   0  0  0  0  0  0  0  0  0  0  0  0
    6.1653   -2.5076   27.0495 C   0  0  0  0  0  0  0  0  0  0  0  0
    6.3668   -1.7121   25.7829 C   0  0  0  0  0  0  0  0  0  0  0  0
    7.3131   -2.1582   24.8496 C   0  0  0  0  0  0  0  0  0  0  0  0
    7.6392   -1.3709   23.7361 C   0  0  0  0  0  0  0  0  0  0  0  0
    7.0374   -0.1219   23.5544 C   0  0  0  0  0  0  0  0  0  0  0  0
    7.4927    0.7563   22.5611 N   0  0  0  0  0  0  0  0  0  0  0  0
    7.8881    2.1152   22.9583 C   0  0  0  0  0  0  0  0  0  0  0  0
    9.3702    2.2291   23.2113 C   0  0  0  0  0  0  0  0  0  0  0  0
   10.1030    1.2102   23.8504 C   0  0  0  0  0  0  0  0  0  0  0  0
   11.4789    1.3333   24.0499 C   0  0  0  0  0  0  0  0  0  0  0  0
   12.1039    2.5228   23.6804 C   0  0  0  0  0  0  0  0  0  0  0  0
   11.3876    3.5601   23.0833 C   0  0  0  0  0  0  0  0  0  0  0  0
   12.2547    5.2159   22.7110 Br  0  0  0  0  0  0  0  0  0  0  0  0
   10.0348    3.3943   22.8224 C   0  0  0  0  0  0  0  0  0  0  0  0
    9.5004    4.2113   22.3553 H   0  0  0  0  0  0  0  0  0  0  0  0
   13.1436    2.6729   23.9041 H   0  0  0  0  0  0  0  0  0  0  0  0
   12.0373    0.5164   24.5095 H   0  0  0  0  0  0  0  0  0  0  0  0
    9.6035    0.3124   24.1911 H   0  0  0  0  0  0  0  0  0  0  0  0
    7.3658    2.4060   23.8748 H   0  0  0  0  0  0  0  0  0  0  0  0
    7.5911    2.8314   22.1764 H   0  0  0  0  0  0  0  0  0  0  0  0
    7.6794    0.3574   21.2392 C   0  0  0  0  0  0  0  0  0  0  0  0
    8.3733    1.0545   20.5032 O   0  0  0  0  0  0  0  0  0  0  0  0
    6.8205   -0.7483   20.5952 C   0  0  0  0  0  0  0  0  0  0  0  0
    5.9355   -0.1836   19.4799 C   0  0  0  0  0  0  0  0  0  0  0  0
    6.1781   -0.4742   18.1205 C   0  0  0  0  0  0  0  0  0  0  0  0
    5.4777    0.0723   17.1109 N   0  0  0  0  0  0  0  0  0  0  0  0
    4.5081    0.9514   17.4150 C   0  0  0  0  0  0  0  0  0  0  0  0
    4.1713    1.2877   18.7316 C   0  0  0  0  0  0  0  0  0  0  0  0
    3.1449    2.2033   19.0131 C   0  0  0  0  0  0  0  0  0  0  0  0
    2.8343    2.5255   20.3373 C   0  0  0  0  0  0  0  0  0  0  0  0
    3.5337    1.9258   21.3879 C   0  0  0  0  0  0  0  0  0  0  0  0
    4.5600    1.0187   21.1107 C   0  0  0  0  0  0  0  0  0  0  0  0
    4.8905    0.6997   19.7865 C   0  0  0  0  0  0  0  0  0  0  0  0
    5.1046    0.5571   21.9279 H   0  0  0  0  0  0  0  0  0  0  0  0
    3.2864    2.1658   22.4173 H   0  0  0  0  0  0  0  0  0  0  0  0
    2.0527    3.2480   20.5487 H   0  0  0  0  0  0  0  0  0  0  0  0
    2.5958    2.6794   18.2058 H   0  0  0  0  0  0  0  0  0  0  0  0
    3.9640    1.4188   16.5994 H   0  0  0  0  0  0  0  0  0  0  0  0
    6.9821   -1.1600   17.8684 H   0  0  0  0  0  0  0  0  0  0  0  0
    6.1868   -1.2037   21.3622 H   0  0  0  0  0  0  0  0  0  0  0  0
    7.4842   -1.5246   20.2076 H   0  0  0  0  0  0  0  0  0  0  0  0
    6.0623    0.2981   24.4673 C   0  0  0  0  0  0  0  0  0  0  0  0
    5.7091   -0.4799   25.5850 C   0  0  0  0  0  0  0  0  0  0  0  0
    5.6015    1.2653   24.3146 H   0  0  0  0  0  0  0  0  0  0  0  0
    8.4138   -1.6938   23.0467 H   0  0  0  0  0  0  0  0  0  0  0  0
    7.8330   -3.0969   25.0226 H   0  0  0  0  0  0  0  0  0  0  0  0
    6.9807   -2.2628   27.7394 H   0  0  0  0  0  0  0  0  0  0  0  0
    6.2189   -3.5807   26.8422 H   0  0  0  0  0  0  0  0  0  0  0  0
    4.0015   -2.5280   27.0739 H   0  0  0  0  0  0  0  0  0  0  0  0
    4.7513   -2.6592   28.6694 H   0  0  0  0  0  0  0  0  0  0  0  0
    5.5324   -0.2906   28.5006 H   0  0  0  0  0  0  0  0  0  0  0  0
    3.7734   -0.4194   28.3635 H   0  0  0  0  0  0  0  0  0  0  0  0
    3.8637    1.6526   28.3616 H   0  0  0  0  0  0  0  0  0  0  0  0
    3.5538    2.9617   27.2231 H   0  0  0  0  0  0  0  0  0  0  0  0
    1.6202    0.6950   27.9391 H   0  0  0  0  0  0  0  0  0  0  0  0
    1.3196    1.8929   26.6581 H   0  0  0  0  0  0  0  0  0  0  0  0
    1.4595    2.4160   28.3474 H   0  0  0  0  0  0  0  0  0  0  0  0
  1  2  1  0
  2  3  1  0
  3  4  2  0
  3  5  1  0
  5  6  1  0
  6  7  1  0
  7  8  1  0
  8  9  1  0
  9 10  2  0
 10 11  1  0
 11 12  2  0
 12 13  1  0
 13 14  1  0
 14 15  1  0
 15 16  2  0
 16 17  1  0
 17 18  2  0
 18 19  1  0
 19 20  1  0
 19 21  2  0
 21 22  1  0
 18 23  1  0
 17 24  1  0
 16 25  1  0
 14 26  1  0
 14 27  1  0
 13 28  1  0
 28 29  2  0
 28 30  1  0
 30 31  1  0
 31 32  2  0
 32 33  1  0
 33 34  2  0
 34 35  1  0
 35 36  2  0
 36 37  1  0
 37 38  2  0
 38 39  1  0
 39 40  2  0
 39 41  1  0
 38 42  1  0
 37 43  1  0
 36 44  1  0
 34 45  1  0
 32 46  1  0
 30 47  1  0
 30 48  1  0
 12 49  1  0
 49 50  2  0
 49 51  1  0
 11 52  1  0
 10 53  1  0
  8 54  1  0
  8 55  1  0
  7 56  1  0
  7 57  1  0
  6 58  1  0
  6 59  1  0
  2 60  1  0
  2 61  1  0
  1 62  1  0
  1 63  1  0
  1 64  1  0
 50  5  1  0
 50  9  1  0
 21 15  1  0
 40 31  1  0
 40 35  1  0
M  END
>  <cnnaffinities>  (87) 
[6.76134, 6.79201, 6.66326]

>  <score>  (87) 
6.76134

>  <index>  (87) 
88

>  <Smiles>  (87) 
C(C(C(=O)N1C(C(C(c2c(c(c(N(C(c3c(c(c(c(Br)c3[H])[H])[H])[H])([H])[H])C(=O)C(c3c(nc(c4c(c(c(c(c34)[H])[H])[H])[H])[H])[H])([H])[H])c(c12)[H])[H])[H])([H])[H])([H])[H])([H])[H])([H])[H])([H])([H])[H]

>  <h>  (87) 
<NA>

>  <Training>  (87) 
True

>  <Success>  (87) 
True

>  <enamine_searched>  (87) 
False

>  <enamine_id>  (87) 
nan

$$$$

     RDKit          3D

 38 40  0  0  0  0  0  0  0  0999 V2000
    8.0568    1.6777   20.9703 O   0  0  0  0  0  0  0  0  0  0  0  0
    7.8892    0.6083   21.5320 C   0  0  0  0  0  0  0  0  0  0  0  0
    6.9535   -0.4556   20.9142 C   0  0  0  0  0  0  0  0  0  0  0  0
    6.1179    0.0862   19.7752 C   0  0  0  0  0  0  0  0  0  0  0  0
    6.4279   -0.2069   18.4727 C   0  0  0  0  0  0  0  0  0  0  0  0
    5.7594    0.2428   17.3769 N   0  0  0  0  0  0  0  0  0  0  0  0
    4.7338    1.0289   17.5806 C   0  0  0  0  0  0  0  0  0  0  0  0
    4.2879    1.4209   18.8706 C   0  0  0  0  0  0  0  0  0  0  0  0
    3.1656    2.2704   19.0476 C   0  0  0  0  0  0  0  0  0  0  0  0
    2.7641    2.6443   20.3004 C   0  0  0  0  0  0  0  0  0  0  0  0
    3.4670    2.1719   21.4318 C   0  0  0  0  0  0  0  0  0  0  0  0
    4.5537    1.3434   21.2875 C   0  0  0  0  0  0  0  0  0  0  0  0
    4.9990    0.9446   20.0010 C   0  0  0  0  0  0  0  0  0  0  0  0
    5.0845    0.9923   22.1667 H   0  0  0  0  0  0  0  0  0  0  0  0
    3.1422    2.4722   22.4226 H   0  0  0  0  0  0  0  0  0  0  0  0
    1.9137    3.3092   20.4338 H   0  0  0  0  0  0  0  0  0  0  0  0
    2.6484    2.6442   18.1657 H   0  0  0  0  0  0  0  0  0  0  0  0
    4.2004    1.3969   16.6998 H   0  0  0  0  0  0  0  0  0  0  0  0
    7.2726   -0.8546   18.2430 H   0  0  0  0  0  0  0  0  0  0  0  0
    6.2994   -0.8848   21.6865 H   0  0  0  0  0  0  0  0  0  0  0  0
    7.5677   -1.2876   20.5381 H   0  0  0  0  0  0  0  0  0  0  0  0
    8.4932    0.3277   22.7460 N   0  0  0  0  0  0  0  0  0  0  0  0
    8.8160   -1.0439   23.1427 C   0  0  0  0  0  0  0  0  0  0  0  0
    9.9987   -1.6526   22.4104 C   0  0  0  0  0  0  0  0  0  0  0  0
   11.2139   -1.1305   22.4449 C   0  0  0  0  0  0  0  0  0  0  0  0
   11.5869    0.1022   23.2425 C   0  0  0  0  0  0  0  0  0  0  0  0
   10.8027    1.3662   22.8600 C   0  0  0  0  0  0  0  0  0  0  0  0
    9.3456    1.3702   23.3232 C   0  0  0  0  0  0  0  0  0  0  0  0
    9.3354    1.2314   24.4060 H   0  0  0  0  0  0  0  0  0  0  0  0
    8.8848    2.3361   23.1146 H   0  0  0  0  0  0  0  0  0  0  0  0
   10.8162    1.4877   21.7776 H   0  0  0  0  0  0  0  0  0  0  0  0
   11.3154    2.2497   23.2709 H   0  0  0  0  0  0  0  0  0  0  0  0
   12.6582    0.2939   23.1291 H   0  0  0  0  0  0  0  0  0  0  0  0
   11.4276   -0.0895   24.3122 H   0  0  0  0  0  0  0  0  0  0  0  0
   11.9977   -1.5806   21.8299 H   0  0  0  0  0  0  0  0  0  0  0  0
    9.8148   -2.5479   21.8062 H   0  0  0  0  0  0  0  0  0  0  0  0
    9.0338   -1.0175   24.2144 H   0  0  0  0  0  0  0  0  0  0  0  0
    7.9285   -1.6666   23.0340 H   0  0  0  0  0  0  0  0  0  0  0  0
  1  2  2  0
  2  3  1  0
  3  4  1  0
  4  5  2  0
  5  6  1  0
  6  7  2  0
  7  8  1  0
  8  9  2  0
  9 10  1  0
 10 11  2  0
 11 12  1  0
 12 13  2  0
 12 14  1  0
 11 15  1  0
 10 16  1  0
  9 17  1  0
  7 18  1  0
  5 19  1  0
  3 20  1  0
  3 21  1  0
  2 22  1  0
 22 23  1  0
 23 24  1  0
 24 25  2  0
 25 26  1  0
 26 27  1  0
 27 28  1  0
 28 29  1  0
 28 30  1  0
 27 31  1  0
 27 32  1  0
 26 33  1  0
 26 34  1  0
 25 35  1  0
 24 36  1  0
 23 37  1  0
 23 38  1  0
 13  4  1  0
 28 22  1  0
 13  8  1  0
M  END
>  <cnnaffinities>  (88) 
[5.59737]

>  <score>  (88) 
5.59737

>  <index>  (88) 
89

>  <Smiles>  (88) 
O=C(C(c1c(nc(c2c(c(c(c(c12)[H])[H])[H])[H])[H])[H])([H])[H])N1C(C(=C(C(C(C1([H])[H])([H])[H])([H])[H])[H])[H])([H])[H]

>  <h>  (88) 
<NA>

>  <Training>  (88) 
True

>  <Success>  (88) 
True

>  <enamine_searched>  (88) 
False

>  <enamine_id>  (88) 
nan

$$$$

     RDKit          3D

 62 67  0  0  0  0  0  0  0  0999 V2000
    9.9699   -1.5128   22.4561 C   0  0  0  0  0  0  0  0  0  0  0  0
    8.5708   -0.9081   22.3680 C   0  0  1  0  0  0  0  0  0  0  0  0
    8.2823   -0.3616   20.9605 C   0  0  0  0  0  0  0  0  0  0  0  0
    6.8401   -0.4449   20.8644 N   0  0  0  0  0  0  0  0  0  0  0  0
    6.1065    0.0849   19.7857 C   0  0  0  0  0  0  0  0  0  0  0  0
    6.4604   -0.2039   18.4930 C   0  0  0  0  0  0  0  0  0  0  0  0
    5.7932    0.2372   17.4028 N   0  0  0  0  0  0  0  0  0  0  0  0
    4.7524    1.0079   17.6071 C   0  0  0  0  0  0  0  0  0  0  0  0
    4.2892    1.3946   18.8955 C   0  0  0  0  0  0  0  0  0  0  0  0
    3.1629    2.2405   19.0542 C   0  0  0  0  0  0  0  0  0  0  0  0
    2.7663    2.6371   20.3027 C   0  0  0  0  0  0  0  0  0  0  0  0
    3.4695    2.1972   21.4466 C   0  0  0  0  0  0  0  0  0  0  0  0
    4.5532    1.3657   21.3193 C   0  0  0  0  0  0  0  0  0  0  0  0
    4.9853    0.9358   20.0312 C   0  0  0  0  0  0  0  0  0  0  0  0
    5.0897    1.0226   22.1985 H   0  0  0  0  0  0  0  0  0  0  0  0
    3.1486    2.5261   22.4314 H   0  0  0  0  0  0  0  0  0  0  0  0
    1.9197    3.3067   20.4178 H   0  0  0  0  0  0  0  0  0  0  0  0
    2.6533    2.5905   18.1609 H   0  0  0  0  0  0  0  0  0  0  0  0
    4.2186    1.3632   16.7272 H   0  0  0  0  0  0  0  0  0  0  0  0
    7.3132   -0.8518   18.2962 H   0  0  0  0  0  0  0  0  0  0  0  0
    6.3031   -1.4198   21.6771 C   0  0  0  0  0  0  0  0  0  0  0  0
    5.1818   -1.8680   21.5390 O   0  0  0  0  0  0  0  0  0  0  0  0
    7.3813   -1.8616   22.7013 C   0  0  1  0  0  0  0  0  0  0  0  0
    7.7304   -3.3277   22.3803 C   0  0  0  0  0  0  0  0  0  0  0  0
    6.6170   -4.1745   22.7374 N   0  0  0  0  0  0  0  0  0  0  0  0
    5.9433   -5.0071   21.7459 C   0  0  0  0  0  0  0  0  0  0  0  0
    6.8116   -6.2158   21.4327 C   0  0  0  0  0  0  0  0  0  0  0  0
    7.1463   -6.8318   22.7441 N   0  0  0  0  0  4  0  0  0  0  0  0
    6.1604   -7.8426   23.3181 C   0  0  0  0  0  0  0  0  0  0  0  0
    7.1931   -8.9883   23.1698 C   0  0  0  0  0  0  0  0  0  0  0  0
    8.2067   -7.8855   22.7483 C   0  0  0  0  0  0  0  0  0  0  0  0
    8.5871   -7.9902   21.7378 H   0  0  0  0  0  0  0  0  0  0  0  0
    9.0188   -7.6460   23.4349 H   0  0  0  0  0  0  0  0  0  0  0  0
    6.9732   -9.6623   22.3431 H   0  0  0  0  0  0  0  0  0  0  0  0
    7.3869   -9.5452   24.0836 H   0  0  0  0  0  0  0  0  0  0  0  0
    5.9669   -7.5547   24.3501 H   0  0  0  0  0  0  0  0  0  0  0  0
    5.2401   -7.8689   22.7362 H   0  0  0  0  0  0  0  0  0  0  0  0
    7.2787   -6.0708   23.4154 H   0  0  0  0  0  0  0  0  0  0  0  0
    6.3168   -6.9477   20.7820 H   0  0  0  0  0  0  0  0  0  0  0  0
    7.7489   -5.9026   20.9570 H   0  0  0  0  0  0  0  0  0  0  0  0
    5.7137   -4.4046   20.8603 H   0  0  0  0  0  0  0  0  0  0  0  0
    4.9948   -5.3189   22.2013 H   0  0  0  0  0  0  0  0  0  0  0  0
    6.2188   -4.2234   24.0403 C   0  0  0  0  0  0  0  0  0  0  0  0
    5.7795   -5.2515   24.5457 O   0  0  0  0  0  0  0  0  0  0  0  0
    6.3587   -2.9465   24.7804 C   0  0  0  0  0  0  0  0  0  0  0  0
    5.9005   -2.9112   26.0964 C   0  0  0  0  0  0  0  0  0  0  0  0
    5.8977   -1.7242   26.7988 C   0  0  0  0  0  0  0  0  0  0  0  0
    6.3531   -0.5734   26.1536 C   0  0  0  0  0  0  0  0  0  0  0  0
    6.3233    0.9435   27.0134 Cl  0  0  0  0  0  0  0  0  0  0  0  0
    6.8292   -0.6010   24.8540 C   0  0  0  0  0  0  0  0  0  0  0  0
    6.8690   -1.8058   24.1385 C   0  0  0  0  0  0  0  0  0  0  0  0
    7.1598    0.3291   24.4064 H   0  0  0  0  0  0  0  0  0  0  0  0
    5.5386   -1.6865   27.8208 H   0  0  0  0  0  0  0  0  0  0  0  0
    5.5336   -3.8323   26.5379 H   0  0  0  0  0  0  0  0  0  0  0  0
    7.9460   -3.4224   21.3174 H   0  0  0  0  0  0  0  0  0  0  0  0
    8.6353   -3.6222   22.9387 H   0  0  0  0  0  0  0  0  0  0  0  0
    8.7836   -0.9695   20.1905 H   0  0  0  0  0  0  0  0  0  0  0  0
    8.6184    0.6729   20.8371 H   0  0  0  0  0  0  0  0  0  0  0  0
    8.5148   -0.0628   23.0576 H   0  0  0  0  0  0  0  0  0  0  0  0
   10.1027   -2.3050   21.7078 H   0  0  0  0  0  0  0  0  0  0  0  0
   10.1581   -1.9483   23.4430 H   0  0  0  0  0  0  0  0  0  0  0  0
   10.7288   -0.7469   22.2629 H   0  0  0  0  0  0  0  0  0  0  0  0
  1  2  1  0
  2  3  1  0
  3  4  1  0
  4  5  1  0
  5  6  2  0
  6  7  1  0
  7  8  2  0
  8  9  1  0
  9 10  2  0
 10 11  1  0
 11 12  2  0
 12 13  1  0
 13 14  2  0
 13 15  1  0
 12 16  1  0
 11 17  1  0
 10 18  1  0
  8 19  1  0
  6 20  1  0
  4 21  1  0
 21 22  2  0
 21 23  1  0
 23 24  1  6
 24 25  1  0
 25 26  1  0
 26 27  1  0
 27 28  1  0
 28 29  1  0
 29 30  1  0
 30 31  1  0
 31 32  1  0
 31 33  1  0
 30 34  1  0
 30 35  1  0
 29 36  1  0
 29 37  1  0
 28 38  1  0
 27 39  1  0
 27 40  1  0
 26 41  1  0
 26 42  1  0
 25 43  1  0
 43 44  2  0
 43 45  1  0
 45 46  2  0
 46 47  1  0
 47 48  2  0
 48 49  1  0
 48 50  1  0
 50 51  2  0
 50 52  1  0
 47 53  1  0
 46 54  1  0
 24 55  1  0
 24 56  1  0
  3 57  1  0
  3 58  1  0
  2 59  1  1
  1 60  1  0
  1 61  1  0
  1 62  1  0
 23  2  1  0
 31 28  1  0
 51 45  1  0
 14  5  1  0
 51 23  1  0
 14  9  1  0
M  CHG  1  28   1
M  END
>  <cnnaffinities>  (89) 
[6.53965, 6.38779]

>  <score>  (89) 
6.53965

>  <index>  (89) 
90

>  <Smiles>  (89) 
C([C@]1(C(N(c2c(nc(c3c(c(c(c(c23)[H])[H])[H])[H])[H])[H])C(=O)[C@]21C(N(C(C([N+]1(C(C(C1([H])[H])([H])[H])([H])[H])[H])([H])[H])([H])[H])C(=O)c1c(c(c(Cl)c(c21)[H])[H])[H])([H])[H])([H])[H])[H])([H])([H])[H]

>  <h>  (89) 
<NA>

>  <Training>  (89) 
True

>  <Success>  (89) 
True

>  <enamine_searched>  (89) 
False

>  <enamine_id>  (89) 
nan

$$$$

     RDKit          3D

 56 61  0  0  0  0  0  0  0  0999 V2000
   10.0439   -0.0385   21.4505 C   0  0  0  0  0  0  0  0  0  0  0  0
    8.7783   -0.3440   22.2461 C   0  0  1  0  0  0  0  0  0  0  0  0
    7.6046    0.5183   21.7457 C   0  0  0  0  0  0  0  0  0  0  0  0
    6.8696   -0.3665   20.8646 N   0  0  0  0  0  0  0  0  0  0  0  0
    6.0758    0.0745   19.7756 C   0  0  0  0  0  0  0  0  0  0  0  0
    6.4039   -0.2562   18.4824 C   0  0  0  0  0  0  0  0  0  0  0  0
    5.7411    0.2124   17.3949 N   0  0  0  0  0  0  0  0  0  0  0  0
    4.7223    1.0132   17.5859 C   0  0  0  0  0  0  0  0  0  0  0  0
    4.2625    1.4158   18.8736 C   0  0  0  0  0  0  0  0  0  0  0  0
    3.1327    2.2571   19.0605 C   0  0  0  0  0  0  0  0  0  0  0  0
    2.7192    2.5992   20.3166 C   0  0  0  0  0  0  0  0  0  0  0  0
    3.4073    2.1161   21.4501 C   0  0  0  0  0  0  0  0  0  0  0  0
    4.4990    1.2984   21.2999 C   0  0  0  0  0  0  0  0  0  0  0  0
    4.9558    0.9356   20.0052 C   0  0  0  0  0  0  0  0  0  0  0  0
    5.0090    0.9128   22.1769 H   0  0  0  0  0  0  0  0  0  0  0  0
    3.0788    2.3888   22.4457 H   0  0  0  0  0  0  0  0  0  0  0  0
    1.8616    3.2524   20.4563 H   0  0  0  0  0  0  0  0  0  0  0  0
    2.6189    2.6372   18.1832 H   0  0  0  0  0  0  0  0  0  0  0  0
    4.1956    1.3792   16.7007 H   0  0  0  0  0  0  0  0  0  0  0  0
    7.2495   -0.9100   18.2706 H   0  0  0  0  0  0  0  0  0  0  0  0
    7.0775   -1.7020   21.1597 C   0  0  0  0  0  0  0  0  0  0  0  0
    6.4008   -2.6072   20.7431 O   0  0  0  0  0  0  0  0  0  0  0  0
    8.2491   -1.8178   22.1512 C   0  0  1  0  0  0  0  0  0  0  0  0
    9.2777   -2.8586   21.6575 C   0  0  0  0  0  0  0  0  0  0  0  0
   10.2987   -3.0420   22.6684 N   0  0  0  0  0  0  0  0  0  0  0  0
   11.7020   -2.7691   22.4229 C   0  0  0  0  0  0  0  0  0  0  0  0
   12.4389   -2.0408   23.5257 C   0  0  0  0  0  0  0  0  0  0  0  0
   12.2012   -0.8809   24.2983 C   0  0  0  0  0  0  0  0  0  0  0  0
   13.1734   -0.6448   25.1777 N   0  0  0  0  0  0  0  0  0  0  0  0
   14.0214   -1.6620   24.9949 N   0  0  0  0  0  0  0  0  0  0  0  0
   13.6211   -2.5204   24.0386 C   0  0  0  0  0  0  0  0  0  0  0  0
   14.2275   -3.3720   23.7650 H   0  0  0  0  0  0  0  0  0  0  0  0
   14.8019   -1.7789   25.6244 H   0  0  0  0  0  0  0  0  0  0  0  0
   11.3490   -0.2118   24.2971 H   0  0  0  0  0  0  0  0  0  0  0  0
   12.2320   -3.7068   22.3025 H   0  0  0  0  0  0  0  0  0  0  0  0
   11.7866   -2.2332   21.4705 H   0  0  0  0  0  0  0  0  0  0  0  0
    9.9374   -3.5226   23.9006 C   0  0  0  0  0  0  0  0  0  0  0  0
   10.6846   -4.1774   24.6075 O   0  0  0  0  0  0  0  0  0  0  0  0
    8.5760   -3.0991   24.3369 C   0  0  0  0  0  0  0  0  0  0  0  0
    8.1799   -3.4460   25.6259 C   0  0  0  0  0  0  0  0  0  0  0  0
    6.9771   -3.0009   26.1397 C   0  0  0  0  0  0  0  0  0  0  0  0
    6.1666   -2.2290   25.3150 C   0  0  0  0  0  0  0  0  0  0  0  0
    5.0004   -1.7775   25.8095 F   0  0  0  0  0  0  0  0  0  0  0  0
    6.5194   -1.9051   24.0153 C   0  0  0  0  0  0  0  0  0  0  0  0
    7.7609   -2.3128   23.5142 C   0  0  0  0  0  0  0  0  0  0  0  0
    5.8148   -1.3611   23.3924 H   0  0  0  0  0  0  0  0  0  0  0  0
    6.6631   -3.2268   27.1542 H   0  0  0  0  0  0  0  0  0  0  0  0
    8.8517   -4.0667   26.2079 H   0  0  0  0  0  0  0  0  0  0  0  0
    9.7314   -2.5891   20.6978 H   0  0  0  0  0  0  0  0  0  0  0  0
    8.7302   -3.8006   21.5366 H   0  0  0  0  0  0  0  0  0  0  0  0
    7.9294    1.4089   21.1994 H   0  0  0  0  0  0  0  0  0  0  0  0
    7.0036    0.8464   22.6031 H   0  0  0  0  0  0  0  0  0  0  0  0
    8.9839   -0.1241   23.3000 H   0  0  0  0  0  0  0  0  0  0  0  0
   10.0313   -0.5198   20.4698 H   0  0  0  0  0  0  0  0  0  0  0  0
   10.9364   -0.3596   21.9906 H   0  0  0  0  0  0  0  0  0  0  0  0
   10.1352    1.0386   21.3016 H   0  0  0  0  0  0  0  0  0  0  0  0
  1  2  1  0
  2  3  1  0
  3  4  1  0
  4  5  1  0
  5  6  2  0
  6  7  1  0
  7  8  2  0
  8  9  1  0
  9 10  2  0
 10 11  1  0
 11 12  2  0
 12 13  1  0
 13 14  2  0
 13 15  1  0
 12 16  1  0
 11 17  1  0
 10 18  1  0
  8 19  1  0
  6 20  1  0
  4 21  1  0
 21 22  2  0
 21 23  1  0
 23 24  1  6
 24 25  1  0
 25 26  1  0
 26 27  1  0
 27 28  1  0
 28 29  2  0
 29 30  1  0
 30 31  1  0
 31 32  1  0
 30 33  1  0
 28 34  1  0
 26 35  1  0
 26 36  1  0
 25 37  1  0
 37 38  2  0
 37 39  1  0
 39 40  2  0
 40 41  1  0
 41 42  2  0
 42 43  1  0
 42 44  1  0
 44 45  2  0
 44 46  1  0
 41 47  1  0
 40 48  1  0
 24 49  1  0
 24 50  1  0
  3 51  1  0
  3 52  1  0
  2 53  1  1
  1 54  1  0
  1 55  1  0
  1 56  1  0
 23  2  1  0
 31 27  2  0
 45 39  1  0
 14  5  1  0
 45 23  1  0
 14  9  1  0
M  END
>  <cnnaffinities>  (90) 
[6.90633]

>  <score>  (90) 
6.90633

>  <index>  (90) 
91

>  <Smiles>  (90) 
C([C@]1(C(N(c2c(nc(c3c(c(c(c(c23)[H])[H])[H])[H])[H])[H])C(=O)[C@]21C(N(C(c1c(nn(c1[H])[H])[H])([H])[H])C(=O)c1c(c(c(F)c(c21)[H])[H])[H])([H])[H])([H])[H])[H])([H])([H])[H]

>  <h>  (90) 
<NA>

>  <Training>  (90) 
True

>  <Success>  (90) 
True

>  <enamine_searched>  (90) 
False

>  <enamine_id>  (90) 
nan

$$$$

     RDKit          3D

 47 50  0  0  0  0  0  0  0  0999 V2000
    5.3588   -2.3423   20.9580 O   0  0  0  0  0  0  0  0  0  0  0  0
    6.1308   -1.6586   21.6045 C   0  0  0  0  0  0  0  0  0  0  0  0
    6.9213   -0.5280   20.9330 C   0  0  0  0  0  0  0  0  0  0  0  0
    6.1378    0.0640   19.7918 C   0  0  0  0  0  0  0  0  0  0  0  0
    6.4506   -0.2355   18.4922 C   0  0  0  0  0  0  0  0  0  0  0  0
    5.7817    0.2091   17.3959 N   0  0  0  0  0  0  0  0  0  0  0  0
    4.7540    0.9929   17.6078 C   0  0  0  0  0  0  0  0  0  0  0  0
    4.2962    1.3762   18.8979 C   0  0  0  0  0  0  0  0  0  0  0  0
    3.1729    2.2257   19.0661 C   0  0  0  0  0  0  0  0  0  0  0  0
    2.7583    2.5918   20.3172 C   0  0  0  0  0  0  0  0  0  0  0  0
    3.4449    2.1073   21.4528 C   0  0  0  0  0  0  0  0  0  0  0  0
    4.5300    1.2778   21.3171 C   0  0  0  0  0  0  0  0  0  0  0  0
    5.0000    0.8966   20.0281 C   0  0  0  0  0  0  0  0  0  0  0  0
    5.0369    0.9140   22.2075 H   0  0  0  0  0  0  0  0  0  0  0  0
    3.1099    2.4081   22.4417 H   0  0  0  0  0  0  0  0  0  0  0  0
    1.9095    3.2597   20.4403 H   0  0  0  0  0  0  0  0  0  0  0  0
    2.6703    2.5996   18.1769 H   0  0  0  0  0  0  0  0  0  0  0  0
    4.2237    1.3694   16.7320 H   0  0  0  0  0  0  0  0  0  0  0  0
    7.2962   -0.8920   18.2808 H   0  0  0  0  0  0  0  0  0  0  0  0
    7.2006    0.2451   21.6523 H   0  0  0  0  0  0  0  0  0  0  0  0
    7.8579   -0.9592   20.5629 H   0  0  0  0  0  0  0  0  0  0  0  0
    6.2764   -1.8751   22.9836 N   0  0  0  0  0  0  0  0  0  0  0  0
    5.1912   -2.5489   23.6028 C   0  0  0  0  0  0  0  0  0  0  0  0
    5.2190   -3.8029   24.0559 C   0  0  0  0  0  0  0  0  0  0  0  0
    6.3662   -4.4701   24.6355 C   0  0  0  0  0  0  0  0  0  0  0  0
    7.2756   -3.8697   25.4336 C   0  0  0  0  0  0  0  0  0  0  0  0
    7.1507   -2.5141   25.9665 C   0  0  0  0  0  0  0  0  0  0  0  0
    6.8991   -1.3551   25.3388 C   0  0  0  0  0  0  0  0  0  0  0  0
    7.1430   -1.0567   23.8671 C   0  0  1  0  0  0  0  0  0  0  0  0
    8.6123   -1.2649   23.4983 C   0  0  0  0  0  0  0  0  0  0  0  0
    9.5704   -0.2828   23.7518 C   0  0  0  0  0  0  0  0  0  0  0  0
   10.9129   -0.5040   23.4472 C   0  0  0  0  0  0  0  0  0  0  0  0
   11.3068   -1.7159   22.8845 C   0  0  0  0  0  0  0  0  0  0  0  0
   10.3568   -2.7015   22.6369 C   0  0  0  0  0  0  0  0  0  0  0  0
    9.0207   -2.4801   22.9524 C   0  0  0  0  0  0  0  0  0  0  0  0
    8.2807   -3.2598   22.7905 H   0  0  0  0  0  0  0  0  0  0  0  0
   10.6604   -3.6448   22.1865 H   0  0  0  0  0  0  0  0  0  0  0  0
   12.3515   -1.8900   22.6347 H   0  0  0  0  0  0  0  0  0  0  0  0
   11.6552    0.2702   23.6369 H   0  0  0  0  0  0  0  0  0  0  0  0
    9.2781    0.6697   24.1941 H   0  0  0  0  0  0  0  0  0  0  0  0
    6.8855    0.0088   23.7341 H   0  0  0  0  0  0  0  0  0  0  0  0
    6.6209   -0.4996   25.9548 H   0  0  0  0  0  0  0  0  0  0  0  0
    7.2846   -2.4860   27.0481 H   0  0  0  0  0  0  0  0  0  0  0  0
    8.0579   -4.4763   25.8754 H   0  0  0  0  0  0  0  0  0  0  0  0
    6.3870   -5.5528   24.5507 H   0  0  0  0  0  0  0  0  0  0  0  0
    4.2819   -4.3571   24.0914 H   0  0  0  0  0  0  0  0  0  0  0  0
    4.3324   -1.9240   23.8237 H   0  0  0  0  0  0  0  0  0  0  0  0
  1  2  2  0
  2  3  1  0
  3  4  1  0
  4  5  2  0
  5  6  1  0
  6  7  2  0
  7  8  1  0
  8  9  2  0
  9 10  1  0
 10 11  2  0
 11 12  1  0
 12 13  2  0
 12 14  1  0
 11 15  1  0
 10 16  1  0
  9 17  1  0
  7 18  1  0
  5 19  1  0
  3 20  1  0
  3 21  1  0
  2 22  1  0
 22 23  1  0
 23 24  2  3
 24 25  1  0
 25 26  2  3
 26 27  1  0
 27 28  2  3
 28 29  1  0
 29 30  1  0
 30 31  2  0
 31 32  1  0
 32 33  2  0
 33 34  1  0
 34 35  2  0
 35 36  1  0
 34 37  1  0
 33 38  1  0
 32 39  1  0
 31 40  1  0
 29 41  1  1
 28 42  1  0
 27 43  1  0
 26 44  1  0
 25 45  1  0
 24 46  1  0
 23 47  1  0
 13  4  1  0
 29 22  1  0
 35 30  1  0
 13  8  1  0
M  END
>  <cnnaffinities>  (91) 
[6.07736, 6.07745]

>  <score>  (91) 
6.07736

>  <index>  (91) 
92

>  <Smiles>  (91) 
O=C(C(c1c(nc(c2c(c(c(c(c12)[H])[H])[H])[H])[H])[H])([H])[H])N1C(=C(C(=C(C(=C([C@]1(c1c(c(c(c(c1[H])[H])[H])[H])[H])[H])[H])[H])[H])[H])[H])[H]

>  <h>  (91) 
<NA>

>  <Training>  (91) 
True

>  <Success>  (91) 
True

>  <enamine_searched>  (91) 
False

>  <enamine_id>  (91) 
nan

$$$$

     RDKit          3D

 58 62  0  0  0  0  0  0  0  0999 V2000
    2.7455   -5.4092   23.4137 C   0  0  0  0  0  0  0  0  0  0  0  0
    3.5810   -4.4951   22.5889 N   0  0  0  0  0  4  0  0  0  0  0  0
    4.9075   -5.0834   22.2172 C   0  0  0  0  0  0  0  0  0  0  0  0
    5.9099   -5.0683   23.3807 C   0  0  0  0  0  0  0  0  0  0  0  0
    6.2993   -3.7217   23.7681 N   0  0  0  0  0  0  0  0  0  0  0  0
    7.4792   -3.1543   23.1425 C   0  0  0  0  0  0  0  0  0  0  0  0
    7.3352   -1.6449   22.8695 C   0  0  2  0  0  0  0  0  0  0  0  0
    6.3084   -1.4008   21.7398 C   0  0  0  0  0  0  0  0  0  0  0  0
    5.1907   -1.8845   21.6556 O   0  0  0  0  0  0  0  0  0  0  0  0
    6.8475   -0.5089   20.8464 N   0  0  0  0  0  0  0  0  0  0  0  0
    6.0953    0.0457   19.7788 C   0  0  0  0  0  0  0  0  0  0  0  0
    6.4435   -0.2263   18.4803 C   0  0  0  0  0  0  0  0  0  0  0  0
    5.7815    0.2429   17.3970 N   0  0  0  0  0  0  0  0  0  0  0  0
    4.7490    1.0199   17.6072 C   0  0  0  0  0  0  0  0  0  0  0  0
    4.2909    1.4031   18.8978 C   0  0  0  0  0  0  0  0  0  0  0  0
    3.1737    2.2623   19.0669 C   0  0  0  0  0  0  0  0  0  0  0  0
    2.7777    2.6477   20.3159 C   0  0  0  0  0  0  0  0  0  0  0  0
    3.4870    2.1940   21.4536 C   0  0  0  0  0  0  0  0  0  0  0  0
    4.5674    1.3582   21.3194 C   0  0  0  0  0  0  0  0  0  0  0  0
    4.9878    0.9209   20.0290 C   0  0  0  0  0  0  0  0  0  0  0  0
    5.1036    1.0117   22.2034 H   0  0  0  0  0  0  0  0  0  0  0  0
    3.1641    2.5095   22.4409 H   0  0  0  0  0  0  0  0  0  0  0  0
    1.9291    3.3166   20.4373 H   0  0  0  0  0  0  0  0  0  0  0  0
    2.6669    2.6251   18.1755 H   0  0  0  0  0  0  0  0  0  0  0  0
    4.2215    1.3816   16.7254 H   0  0  0  0  0  0  0  0  0  0  0  0
    7.2939   -0.8712   18.2635 H   0  0  0  0  0  0  0  0  0  0  0  0
    8.1971   -0.0795   21.1569 C   0  0  0  0  0  0  0  0  0  0  0  0
    8.6508   -0.9941   22.3179 C   0  0  2  0  0  0  0  0  0  0  0  0
    9.7415   -1.9670   21.8254 C   0  0  0  0  0  0  0  0  0  0  0  0
   10.5978   -1.4051   21.4295 H   0  0  0  0  0  0  0  0  0  0  0  0
   10.1217   -2.6006   22.6330 H   0  0  0  0  0  0  0  0  0  0  0  0
    9.3783   -2.6185   21.0206 H   0  0  0  0  0  0  0  0  0  0  0  0
    9.1121   -0.3985   23.1159 H   0  0  0  0  0  0  0  0  0  0  0  0
    8.8484   -0.2115   20.2905 H   0  0  0  0  0  0  0  0  0  0  0  0
    8.2257    0.9896   21.4195 H   0  0  0  0  0  0  0  0  0  0  0  0
    6.8277   -0.9723   24.1409 C   0  0  0  0  0  0  0  0  0  0  0  0
    7.0078    0.4054   24.3367 C   0  0  0  0  0  0  0  0  0  0  0  0
    6.4943    1.0007   25.4707 C   0  0  0  0  0  0  0  0  0  0  0  0
    6.6866    2.3183   25.6660 F   0  0  0  0  0  0  0  0  0  0  0  0
    5.7826    0.2880   26.4263 C   0  0  0  0  0  0  0  0  0  0  0  0
    5.5722   -1.0615   26.2170 C   0  0  0  0  0  0  0  0  0  0  0  0
    6.0751   -1.6924   25.0801 C   0  0  0  0  0  0  0  0  0  0  0  0
    5.7141   -3.1350   24.8483 C   0  0  0  0  0  0  0  0  0  0  0  0
    4.8993   -3.7274   25.5521 O   0  0  0  0  0  0  0  0  0  0  0  0
    4.9980   -1.6659   26.9099 H   0  0  0  0  0  0  0  0  0  0  0  0
    5.4015    0.8102   27.2942 H   0  0  0  0  0  0  0  0  0  0  0  0
    7.5319    1.0403   23.6282 H   0  0  0  0  0  0  0  0  0  0  0  0
    8.3679   -3.3072   23.7770 H   0  0  0  0  0  0  0  0  0  0  0  0
    7.6169   -3.6750   22.1922 H   0  0  0  0  0  0  0  0  0  0  0  0
    6.8140   -5.6079   23.0782 H   0  0  0  0  0  0  0  0  0  0  0  0
    5.4998   -5.5532   24.2694 H   0  0  0  0  0  0  0  0  0  0  0  0
    5.2882   -4.4846   21.3949 H   0  0  0  0  0  0  0  0  0  0  0  0
    4.7565   -6.1115   21.8821 H   0  0  0  0  0  0  0  0  0  0  0  0
    3.0525   -4.2516   21.7259 H   0  0  0  0  0  0  0  0  0  0  0  0
    3.7774   -3.6006   23.0955 H   0  0  0  0  0  0  0  0  0  0  0  0
    3.2113   -5.5780   24.3844 H   0  0  0  0  0  0  0  0  0  0  0  0
    2.6329   -6.3793   22.9177 H   0  0  0  0  0  0  0  0  0  0  0  0
    1.7553   -4.9824   23.5609 H   0  0  0  0  0  0  0  0  0  0  0  0
  1  2  1  0
  2  3  1  0
  3  4  1  0
  4  5  1  0
  5  6  1  0
  7  6  1  1
  7  8  1  0
  8  9  2  0
  8 10  1  0
 10 11  1  0
 11 12  2  0
 12 13  1  0
 13 14  2  0
 14 15  1  0
 15 16  2  0
 16 17  1  0
 17 18  2  0
 18 19  1  0
 19 20  2  0
 19 21  1  0
 18 22  1  0
 17 23  1  0
 16 24  1  0
 14 25  1  0
 12 26  1  0
 10 27  1  0
 27 28  1  0
 28 29  1  0
 29 30  1  0
 29 31  1  0
 29 32  1  0
 28 33  1  1
 27 34  1  0
 27 35  1  0
  7 36  1  0
 36 37  2  0
 37 38  1  0
 38 39  1  0
 38 40  2  0
 40 41  1  0
 41 42  2  0
 42 43  1  0
 43 44  2  0
 41 45  1  0
 40 46  1  0
 37 47  1  0
  6 48  1  0
  6 49  1  0
  4 50  1  0
  4 51  1  0
  3 52  1  0
  3 53  1  0
  2 54  1  0
  2 55  1  0
  1 56  1  0
  1 57  1  0
  1 58  1  0
 43  5  1  0
 28  7  1  0
 42 36  1  0
 20 11  1  0
 20 15  1  0
M  CHG  1   2   1
M  END
>  <cnnaffinities>  (92) 
[5.92869, 6.1275, 6.08525]

>  <score>  (92) 
5.92869

>  <index>  (92) 
93

>  <Smiles>  (92) 
C([N+](C(C(N1C([C@@]2(C(=O)N(c3c(nc(c4c(c(c(c(c34)[H])[H])[H])[H])[H])[H])C([C@@]2(C([H])([H])[H])[H])([H])[H])c2c(c(F)c(c(c2C1=O)[H])[H])[H])([H])[H])([H])[H])([H])[H])([H])[H])([H])([H])[H]

>  <h>  (92) 
<NA>

>  <Training>  (92) 
True

>  <Success>  (92) 
True

>  <enamine_searched>  (92) 
False

>  <enamine_id>  (92) 
nan

$$$$

     RDKit          3D

 65 69  0  0  0  0  0  0  0  0999 V2000
   13.6768    0.3550   23.4379 C   0  0  0  0  0  0  0  0  0  0  0  0
   12.5541    0.7981   24.3794 C   0  0  0  0  0  0  0  0  0  0  0  0
   11.2717    0.2264   23.8381 C   0  0  0  0  0  0  0  0  0  0  0  0
   10.7696    0.5762   22.8025 O   0  0  0  0  0  0  0  0  0  0  0  0
   10.6635   -0.9057   24.6131 N   0  0  2  0  0  4  0  0  0  0  0  0
   11.1181   -2.3113   24.1095 C   0  0  0  0  0  0  0  0  0  0  0  0
   10.3633   -2.6577   22.8368 C   0  0  0  0  0  0  0  0  0  0  0  0
    8.8558   -2.7226   23.1017 C   0  0  0  0  0  0  0  0  0  0  0  0
    8.3229   -1.4671   23.7771 C   0  0  0  0  0  0  0  0  0  0  0  0
    6.9904   -1.0166   23.6832 C   0  0  0  0  0  0  0  0  0  0  0  0
    6.0626   -1.6115   22.7790 N   0  0  0  0  0  0  0  0  0  0  0  0
    5.0172   -2.4253   23.3801 C   0  0  0  0  0  0  0  0  0  0  0  0
    5.5716   -3.7119   23.9184 C   0  0  0  0  0  0  0  0  0  0  0  0
    5.8561   -3.8837   25.2733 C   0  0  0  0  0  0  0  0  0  0  0  0
    6.3280   -5.1025   25.7353 C   0  0  0  0  0  0  0  0  0  0  0  0
    6.5664   -6.1348   24.8328 C   0  0  0  0  0  0  0  0  0  0  0  0
    6.3565   -5.9212   23.4729 C   0  0  0  0  0  0  0  0  0  0  0  0
    6.7782   -7.1648   22.3277 Cl  0  0  0  0  0  0  0  0  0  0  0  0
    5.8620   -4.7194   22.9995 C   0  0  0  0  0  0  0  0  0  0  0  0
    5.7299   -4.5578   21.9270 H   0  0  0  0  0  0  0  0  0  0  0  0
    6.9453   -7.0911   25.1661 H   0  0  0  0  0  0  0  0  0  0  0  0
    6.5400   -5.2370   26.7968 H   0  0  0  0  0  0  0  0  0  0  0  0
    5.7170   -3.0560   25.9672 H   0  0  0  0  0  0  0  0  0  0  0  0
    4.5298   -1.8526   24.1761 H   0  0  0  0  0  0  0  0  0  0  0  0
    4.3063   -2.6495   22.5822 H   0  0  0  0  0  0  0  0  0  0  0  0
    6.1273   -1.5699   21.4049 C   0  0  0  0  0  0  0  0  0  0  0  0
    5.5103   -2.3621   20.7121 O   0  0  0  0  0  0  0  0  0  0  0  0
    6.9647   -0.4621   20.7699 C   0  0  0  0  0  0  0  0  0  0  0  0
    6.1666    0.1480   19.6541 C   0  0  0  0  0  0  0  0  0  0  0  0
    6.4315   -0.1689   18.3487 C   0  0  0  0  0  0  0  0  0  0  0  0
    5.7210    0.2678   17.2782 N   0  0  0  0  0  0  0  0  0  0  0  0
    4.6953    1.0415   17.5270 C   0  0  0  0  0  0  0  0  0  0  0  0
    4.2787    1.4198   18.8315 C   0  0  0  0  0  0  0  0  0  0  0  0
    3.1478    2.2462   19.0368 C   0  0  0  0  0  0  0  0  0  0  0  0
    2.7563    2.5895   20.3004 C   0  0  0  0  0  0  0  0  0  0  0  0
    3.4729    2.1011   21.4175 C   0  0  0  0  0  0  0  0  0  0  0  0
    4.5717    1.2947   21.2459 C   0  0  0  0  0  0  0  0  0  0  0  0
    5.0173    0.9452   19.9381 C   0  0  0  0  0  0  0  0  0  0  0  0
    5.1000    0.9214   22.1212 H   0  0  0  0  0  0  0  0  0  0  0  0
    3.1525    2.3748   22.4185 H   0  0  0  0  0  0  0  0  0  0  0  0
    1.9011    3.2425   20.4487 H   0  0  0  0  0  0  0  0  0  0  0  0
    2.6220    2.6141   18.1593 H   0  0  0  0  0  0  0  0  0  0  0  0
    4.1306    1.4055   16.6685 H   0  0  0  0  0  0  0  0  0  0  0  0
    7.2698   -0.8220   18.1041 H   0  0  0  0  0  0  0  0  0  0  0  0
    7.2596    0.2669   21.5319 H   0  0  0  0  0  0  0  0  0  0  0  0
    7.8830   -0.9150   20.3722 H   0  0  0  0  0  0  0  0  0  0  0  0
    6.5040   -0.0132   24.5180 C   0  0  0  0  0  0  0  0  0  0  0  0
    7.3199    0.5853   25.4708 C   0  0  0  0  0  0  0  0  0  0  0  0
    8.6526    0.2070   25.5184 C   0  0  0  0  0  0  0  0  0  0  0  0
    9.1435   -0.7673   24.6559 C   0  0  0  0  0  0  0  0  0  0  0  0
    9.3530    0.6646   26.2025 H   0  0  0  0  0  0  0  0  0  0  0  0
    6.9305    1.3359   26.1552 H   0  0  0  0  0  0  0  0  0  0  0  0
    5.4680    0.2919   24.3977 H   0  0  0  0  0  0  0  0  0  0  0  0
    8.3099   -2.9101   22.1746 H   0  0  0  0  0  0  0  0  0  0  0  0
    8.6443   -3.5747   23.7618 H   0  0  0  0  0  0  0  0  0  0  0  0
   10.5809   -1.9168   22.0564 H   0  0  0  0  0  0  0  0  0  0  0  0
   10.7297   -3.6227   22.4796 H   0  0  0  0  0  0  0  0  0  0  0  0
   10.8831   -3.0300   24.9000 H   0  0  0  0  0  0  0  0  0  0  0  0
   12.2029   -2.3047   23.9555 H   0  0  0  0  0  0  0  0  0  0  0  0
   10.9891   -0.8336   25.5908 H   0  0  0  0  0  0  0  0  0  0  0  0
   12.7294    0.4564   25.4014 H   0  0  0  0  0  0  0  0  0  0  0  0
   12.4158    1.8804   24.3683 H   0  0  0  0  0  0  0  0  0  0  0  0
   13.2070    0.0412   22.5049 H   0  0  0  0  0  0  0  0  0  0  0  0
   14.3694    1.1701   23.2348 H   0  0  0  0  0  0  0  0  0  0  0  0
   14.2226   -0.4963   23.8481 H   0  0  0  0  0  0  0  0  0  0  0  0
  1  2  1  0
  2  3  1  0
  3  4  2  0
  3  5  1  0
  5  6  1  0
  6  7  1  0
  7  8  1  0
  8  9  1  0
  9 10  2  0
 10 11  1  0
 11 12  1  0
 12 13  1  0
 13 14  2  0
 14 15  1  0
 15 16  2  0
 16 17  1  0
 17 18  1  0
 17 19  2  0
 19 20  1  0
 16 21  1  0
 15 22  1  0
 14 23  1  0
 12 24  1  0
 12 25  1  0
 11 26  1  0
 26 27  2  0
 26 28  1  0
 28 29  1  0
 29 30  2  0
 30 31  1  0
 31 32  2  0
 32 33  1  0
 33 34  2  0
 34 35  1  0
 35 36  2  0
 36 37  1  0
 37 38  2  0
 37 39  1  0
 36 40  1  0
 35 41  1  0
 34 42  1  0
 32 43  1  0
 30 44  1  0
 28 45  1  0
 28 46  1  0
 10 47  1  0
 47 48  2  0
 48 49  1  0
 49 50  2  0
 49 51  1  0
 48 52  1  0
 47 53  1  0
  8 54  1  0
  8 55  1  0
  7 56  1  0
  7 57  1  0
  6 58  1  0
  6 59  1  0
  5 60  1  1
  2 61  1  0
  2 62  1  0
  1 63  1  0
  1 64  1  0
  1 65  1  0
 50  5  1  0
 50  9  1  0
 19 13  1  0
 38 29  1  0
 38 33  1  0
M  CHG  1   5   1
M  END
>  <cnnaffinities>  (93) 
[7.06893, 6.27044]

>  <score>  (93) 
7.06893

>  <index>  (93) 
94

>  <Smiles>  (93) 
C(C(C(=O)[N@@+]1(C(C(C(c2c(N(C(c3c(c(c(c(Cl)c3[H])[H])[H])[H])([H])[H])C(=O)C(c3c(nc(c4c(c(c(c(c34)[H])[H])[H])[H])[H])[H])([H])[H])c(c(c(c12)[H])[H])[H])([H])[H])([H])[H])([H])[H])[H])([H])[H])([H])([H])[H]

>  <h>  (93) 
<NA>

>  <Training>  (93) 
True

>  <Success>  (93) 
True

>  <enamine_searched>  (93) 
False

>  <enamine_id>  (93) 
nan

$$$$

     RDKit          3D

 67 71  0  0  0  0  0  0  0  0999 V2000
    6.5288    4.3878   21.3253 C   0  0  0  0  0  0  0  0  0  0  0  0
    7.4970    3.9433   22.3210 N   0  0  0  0  0  0  0  0  0  0  0  0
    7.0356    3.3244   23.4459 C   0  0  0  0  0  0  0  0  0  0  0  0
    5.8434    3.1640   23.6595 O   0  0  0  0  0  0  0  0  0  0  0  0
    8.0888    2.8464   24.4498 C   0  0  0  0  0  0  0  0  0  0  0  0
    8.7376    1.6265   24.0003 N   0  0  0  0  0  0  0  0  0  0  0  0
    7.9792    0.3849   23.8484 C   0  0  0  0  0  0  0  0  0  0  0  0
    8.4063   -0.4430   22.5954 C   0  0  2  0  0  0  0  0  0  0  0  0
    7.9317    0.2459   21.2969 C   0  0  0  0  0  0  0  0  0  0  0  0
    8.4264    1.2150   20.7530 O   0  0  0  0  0  0  0  0  0  0  0  0
    6.8425   -0.4375   20.8134 N   0  0  0  0  0  0  0  0  0  0  0  0
    6.0909    0.0860   19.7396 C   0  0  0  0  0  0  0  0  0  0  0  0
    6.4458   -0.1971   18.4468 C   0  0  0  0  0  0  0  0  0  0  0  0
    5.7597    0.2422   17.3673 N   0  0  0  0  0  0  0  0  0  0  0  0
    4.7126    1.0015   17.5813 C   0  0  0  0  0  0  0  0  0  0  0  0
    4.2515    1.3857   18.8729 C   0  0  0  0  0  0  0  0  0  0  0  0
    3.1325    2.2376   19.0626 C   0  0  0  0  0  0  0  0  0  0  0  0
    2.7492    2.6158   20.3211 C   0  0  0  0  0  0  0  0  0  0  0  0
    3.4659    2.1616   21.4527 C   0  0  0  0  0  0  0  0  0  0  0  0
    4.5497    1.3314   21.2959 C   0  0  0  0  0  0  0  0  0  0  0  0
    4.9656    0.9210   19.9978 C   0  0  0  0  0  0  0  0  0  0  0  0
    5.1270    1.0227   22.1638 H   0  0  0  0  0  0  0  0  0  0  0  0
    3.1870    2.4944   22.4478 H   0  0  0  0  0  0  0  0  0  0  0  0
    1.9047    3.2857   20.4547 H   0  0  0  0  0  0  0  0  0  0  0  0
    2.6185    2.6064   18.1800 H   0  0  0  0  0  0  0  0  0  0  0  0
    4.1767    1.3651   16.7054 H   0  0  0  0  0  0  0  0  0  0  0  0
    7.3218   -0.8113   18.2468 H   0  0  0  0  0  0  0  0  0  0  0  0
    6.4180   -1.5581   21.6228 C   0  0  0  0  0  0  0  0  0  0  0  0
    7.6673   -1.8210   22.4797 C   0  0  2  0  0  0  0  0  0  0  0  0
    7.4328   -2.5162   23.8167 C   0  0  0  0  0  0  0  0  0  0  0  0
    6.9178   -4.2291   23.6908 S   0  0  0  0  0  0  0  0  0  0  0  0
    7.8015   -4.9075   22.7517 O   0  0  0  0  0  0  0  0  0  0  0  0
    6.7726   -4.7171   25.0564 O   0  0  0  0  0  0  0  0  0  0  0  0
    5.3856   -4.1763   22.9732 N   0  0  0  0  0  0  0  0  0  0  0  0
    4.3323   -3.6058   23.8144 C   0  0  0  0  0  0  0  0  0  0  0  0
    4.1877   -4.1607   24.7499 H   0  0  0  0  0  0  0  0  0  0  0  0
    4.5487   -2.5631   24.0546 H   0  0  0  0  0  0  0  0  0  0  0  0
    3.4089   -3.6210   23.2279 H   0  0  0  0  0  0  0  0  0  0  0  0
    5.0006   -5.4866   22.4298 C   0  0  0  0  0  0  0  0  0  0  0  0
    5.7731   -5.8281   21.7428 H   0  0  0  0  0  0  0  0  0  0  0  0
    4.0724   -5.3562   21.8698 H   0  0  0  0  0  0  0  0  0  0  0  0
    4.8485   -6.2548   23.2019 H   0  0  0  0  0  0  0  0  0  0  0  0
    8.3728   -2.5505   24.3853 H   0  0  0  0  0  0  0  0  0  0  0  0
    6.6772   -2.0014   24.4211 H   0  0  0  0  0  0  0  0  0  0  0  0
    8.2952   -2.4805   21.8780 H   0  0  0  0  0  0  0  0  0  0  0  0
    5.5387   -1.3011   22.2290 H   0  0  0  0  0  0  0  0  0  0  0  0
    6.1407   -2.4146   21.0013 H   0  0  0  0  0  0  0  0  0  0  0  0
    9.9171   -0.5210   22.5806 C   0  0  0  0  0  0  0  0  0  0  0  0
   10.5646   -1.4301   21.7353 C   0  0  0  0  0  0  0  0  0  0  0  0
   11.9254   -1.3512   21.5586 C   0  0  0  0  0  0  0  0  0  0  0  0
   12.4632   -2.1342   20.6064 F   0  0  0  0  0  0  0  0  0  0  0  0
   12.7064   -0.4652   22.2968 C   0  0  0  0  0  0  0  0  0  0  0  0
   12.0809    0.4486   23.1066 C   0  0  0  0  0  0  0  0  0  0  0  0
   10.6964    0.4565   23.2168 C   0  0  0  0  0  0  0  0  0  0  0  0
   10.1001    1.6386   23.9022 C   0  0  0  0  0  0  0  0  0  0  0  0
   10.7924    2.5677   24.2966 O   0  0  0  0  0  0  0  0  0  0  0  0
   12.6606    1.2049   23.6241 H   0  0  0  0  0  0  0  0  0  0  0  0
   13.7832   -0.4167   22.2154 H   0  0  0  0  0  0  0  0  0  0  0  0
   10.0579   -2.1904   21.1529 H   0  0  0  0  0  0  0  0  0  0  0  0
    8.1292   -0.2318   24.7479 H   0  0  0  0  0  0  0  0  0  0  0  0
    6.9187    0.6413   23.7673 H   0  0  0  0  0  0  0  0  0  0  0  0
    8.8930    3.5800   24.5589 H   0  0  0  0  0  0  0  0  0  0  0  0
    7.6160    2.7154   25.4316 H   0  0  0  0  0  0  0  0  0  0  0  0
    8.4112    3.6651   21.9912 H   0  0  0  0  0  0  0  0  0  0  0  0
    5.7147    4.9073   21.8400 H   0  0  0  0  0  0  0  0  0  0  0  0
    7.0014    5.0713   20.6111 H   0  0  0  0  0  0  0  0  0  0  0  0
    6.0863    3.5366   20.7859 H   0  0  0  0  0  0  0  0  0  0  0  0
  1  2  1  0
  2  3  1  0
  3  4  2  0
  3  5  1  0
  5  6  1  0
  6  7  1  0
  8  7  1  1
  8  9  1  0
  9 10  2  0
  9 11  1  0
 11 12  1  0
 12 13  2  0
 13 14  1  0
 14 15  2  0
 15 16  1  0
 16 17  2  0
 17 18  1  0
 18 19  2  0
 19 20  1  0
 20 21  2  0
 20 22  1  0
 19 23  1  0
 18 24  1  0
 17 25  1  0
 15 26  1  0
 13 27  1  0
 11 28  1  0
 28 29  1  0
 29 30  1  0
 30 31  1  0
 31 32  2  0
 31 33  2  0
 31 34  1  0
 34 35  1  0
 35 36  1  0
 35 37  1  0
 35 38  1  0
 34 39  1  0
 39 40  1  0
 39 41  1  0
 39 42  1  0
 30 43  1  0
 30 44  1  0
 29 45  1  6
 28 46  1  0
 28 47  1  0
  8 48  1  0
 48 49  2  0
 49 50  1  0
 50 51  1  0
 50 52  2  0
 52 53  1  0
 53 54  2  0
 54 55  1  0
 55 56  2  0
 53 57  1  0
 52 58  1  0
 49 59  1  0
  7 60  1  0
  7 61  1  0
  5 62  1  0
  5 63  1  0
  2 64  1  0
  1 65  1  0
  1 66  1  0
  1 67  1  0
 55  6  1  0
 29  8  1  0
 54 48  1  0
 21 12  1  0
 21 16  1  0
M  END
>  <cnnaffinities>  (94) 
[6.70738]

>  <score>  (94) 
6.70738

>  <index>  (94) 
95

>  <Smiles>  (94) 
C(N(C(=O)C(N1C([C@@]2(C(=O)N(c3c(nc(c4c(c(c(c(c34)[H])[H])[H])[H])[H])[H])C([C@@]2(C(S(=O)(=O)N(C([H])([H])[H])C([H])([H])[H])([H])[H])[H])([H])[H])c2c(c(F)c(c(c2C1=O)[H])[H])[H])([H])[H])([H])[H])[H])([H])([H])[H]

>  <h>  (94) 
<NA>

>  <Training>  (94) 
True

>  <Success>  (94) 
True

>  <enamine_searched>  (94) 
False

>  <enamine_id>  (94) 
nan

$$$$

     RDKit          3D

 37 39  0  0  0  0  0  0  0  0999 V2000
    5.5341   -1.4994   22.7267 O   0  0  0  0  0  0  0  0  0  0  0  0
    6.0423   -1.6142   21.6195 C   0  0  0  0  0  0  0  0  0  0  0  0
    6.8555   -0.5332   20.8957 C   0  0  0  0  0  0  0  0  0  0  0  0
    6.0982    0.0543   19.7277 C   0  0  0  0  0  0  0  0  0  0  0  0
    6.4333   -0.2014   18.4228 C   0  0  0  0  0  0  0  0  0  0  0  0
    5.7553    0.2526   17.3353 N   0  0  0  0  0  0  0  0  0  0  0  0
    4.7105    1.0107   17.5518 C   0  0  0  0  0  0  0  0  0  0  0  0
    4.2540    1.3752   18.8464 C   0  0  0  0  0  0  0  0  0  0  0  0
    3.1417    2.2324   19.0391 C   0  0  0  0  0  0  0  0  0  0  0  0
    2.7603    2.5933   20.3027 C   0  0  0  0  0  0  0  0  0  0  0  0
    3.4560    2.0915   21.4255 C   0  0  0  0  0  0  0  0  0  0  0  0
    4.5167    1.2390   21.2660 C   0  0  0  0  0  0  0  0  0  0  0  0
    4.9588    0.8779   19.9654 C   0  0  0  0  0  0  0  0  0  0  0  0
    5.0226    0.8295   22.1349 H   0  0  0  0  0  0  0  0  0  0  0  0
    3.1549    2.3919   22.4240 H   0  0  0  0  0  0  0  0  0  0  0  0
    1.9241    3.2682   20.4510 H   0  0  0  0  0  0  0  0  0  0  0  0
    2.6266    2.6228   18.1632 H   0  0  0  0  0  0  0  0  0  0  0  0
    4.1739    1.3926   16.6805 H   0  0  0  0  0  0  0  0  0  0  0  0
    7.3040   -0.8141   18.1913 H   0  0  0  0  0  0  0  0  0  0  0  0
    7.7759   -1.0211   20.5547 H   0  0  0  0  0  0  0  0  0  0  0  0
    7.1543    0.2457   21.6009 H   0  0  0  0  0  0  0  0  0  0  0  0
    5.9375   -2.7407   20.8546 N   0  0  0  0  0  0  0  0  0  0  0  0
    5.3093   -3.9662   21.3116 C   0  0  0  0  0  0  0  0  0  0  0  0
    6.1245   -4.7375   22.3263 C   0  0  0  0  0  0  0  0  0  0  0  0
    7.1237   -5.6306   21.9335 C   0  0  0  0  0  0  0  0  0  0  0  0
    7.8169   -6.3565   22.8942 C   0  0  0  0  0  0  0  0  0  0  0  0
    7.5429   -6.1981   24.2434 C   0  0  0  0  0  0  0  0  0  0  0  0
    6.5527   -5.2972   24.6229 C   0  0  0  0  0  0  0  0  0  0  0  0
    6.1439   -5.0711   26.2974 Cl  0  0  0  0  0  0  0  0  0  0  0  0
    5.8370   -4.5719   23.6808 C   0  0  0  0  0  0  0  0  0  0  0  0
    5.0633   -3.8762   24.0083 H   0  0  0  0  0  0  0  0  0  0  0  0
    8.0682   -6.8339   24.9427 H   0  0  0  0  0  0  0  0  0  0  0  0
    8.5678   -7.0837   22.6012 H   0  0  0  0  0  0  0  0  0  0  0  0
    7.3482   -5.8102   20.8831 H   0  0  0  0  0  0  0  0  0  0  0  0
    5.1296   -4.6224   20.4534 H   0  0  0  0  0  0  0  0  0  0  0  0
    4.3406   -3.7176   21.7520 H   0  0  0  0  0  0  0  0  0  0  0  0
    6.4109   -2.7582   19.9675 H   0  0  0  0  0  0  0  0  0  0  0  0
  1  2  2  0
  2  3  1  0
  3  4  1  0
  4  5  2  0
  5  6  1  0
  6  7  2  0
  7  8  1  0
  8  9  2  0
  9 10  1  0
 10 11  2  0
 11 12  1  0
 12 13  2  0
 12 14  1  0
 11 15  1  0
 10 16  1  0
  9 17  1  0
  7 18  1  0
  5 19  1  0
  3 20  1  0
  3 21  1  0
  2 22  1  0
 22 23  1  0
 23 24  1  0
 24 25  2  0
 25 26  1  0
 26 27  2  0
 27 28  1  0
 28 29  1  0
 28 30  2  0
 30 31  1  0
 27 32  1  0
 26 33  1  0
 25 34  1  0
 23 35  1  0
 23 36  1  0
 22 37  1  0
 13  4  1  0
 30 24  1  0
 13  8  1  0
M  END
>  <cnnaffinities>  (95) 
[4.50396]

>  <score>  (95) 
4.50396

>  <index>  (95) 
96

>  <Smiles>  (95) 
O=C(C(c1c(nc(c2c(c(c(c(c12)[H])[H])[H])[H])[H])[H])([H])[H])N(C(c1c(c(c(c(Cl)c1[H])[H])[H])[H])([H])[H])[H]

>  <h>  (95) 
<NA>

>  <Training>  (95) 
True

>  <Success>  (95) 
True

>  <enamine_searched>  (95) 
False

>  <enamine_id>  (95) 
nan

$$$$
