
     RDKit          3D

 63 69  0  0  0  0  0  0  0  0999 V2000
    9.5322    2.5709   25.3653 O   0  0  0  0  0  0  0  0  0  0  0  0
    9.1977    1.6030   24.7006 C   0  0  0  0  0  0  0  0  0  0  0  0
   10.1806    0.7722   23.9285 C   0  0  0  0  0  0  0  0  0  0  0  0
   11.5328    1.0598   24.0762 C   0  0  0  0  0  0  0  0  0  0  0  0
   12.4729    0.5383   23.2137 C   0  0  0  0  0  0  0  0  0  0  0  0
   12.0156   -0.2387   22.1496 C   0  0  0  0  0  0  0  0  0  0  0  0
   13.0944   -0.6123   20.8338 Cl  0  0  0  0  0  0  0  0  0  0  0  0
   10.6931   -0.6297   22.0534 C   0  0  0  0  0  0  0  0  0  0  0  0
    9.7525   -0.1577   22.9747 C   0  0  0  0  0  0  0  0  0  0  0  0
    8.2803   -0.4682   22.7886 C   0  0  1  0  0  0  0  0  0  0  0  0
    7.5397   -0.0941   24.0973 C   0  0  0  0  0  0  0  0  0  0  0  0
    7.8861    1.2407   24.5487 N   0  0  0  0  0  0  0  0  0  0  0  0
    6.8655    2.1800   24.9571 C   0  0  0  0  0  0  0  0  0  0  0  0
    6.6204    3.2643   23.9536 C   0  0  0  0  0  0  0  0  0  0  0  0
    5.4682    3.7345   23.6005 N   0  0  0  0  0  0  0  0  0  0  0  0
    5.7280    4.7355   22.6680 N   0  0  0  0  0  0  0  0  0  0  0  0
    7.0060    4.7862   22.5548 C   0  0  0  0  0  0  0  0  0  0  0  0
    7.6413    3.8930   23.3451 O   0  0  0  0  0  0  0  0  0  0  0  0
    7.6072    5.4392   21.9371 H   0  0  0  0  0  0  0  0  0  0  0  0
    7.1575    2.6246   25.9148 H   0  0  0  0  0  0  0  0  0  0  0  0
    5.9199    1.6514   25.0916 H   0  0  0  0  0  0  0  0  0  0  0  0
    7.7967   -0.8270   24.8779 H   0  0  0  0  0  0  0  0  0  0  0  0
    6.4575   -0.1238   23.9198 H   0  0  0  0  0  0  0  0  0  0  0  0
    7.7215    0.3807   21.6164 C   0  0  0  0  0  0  0  0  0  0  0  0
    7.9171    1.5578   21.4031 O   0  0  0  0  0  0  0  0  0  0  0  0
    6.9229   -0.4210   20.8295 N   0  0  0  0  0  0  0  0  0  0  0  0
    6.1377    0.1003   19.7668 C   0  0  0  0  0  0  0  0  0  0  0  0
    6.4435   -0.2264   18.4698 C   0  0  0  0  0  0  0  0  0  0  0  0
    5.7696    0.2229   17.3815 N   0  0  0  0  0  0  0  0  0  0  0  0
    4.7469    1.0172   17.5896 C   0  0  0  0  0  0  0  0  0  0  0  0
    4.2948    1.4123   18.8797 C   0  0  0  0  0  0  0  0  0  0  0  0
    3.1642    2.2583   19.0535 C   0  0  0  0  0  0  0  0  0  0  0  0
    2.7309    2.5930   20.3050 C   0  0  0  0  0  0  0  0  0  0  0  0
    3.4074    2.0941   21.4423 C   0  0  0  0  0  0  0  0  0  0  0  0
    4.5124    1.2910   21.3005 C   0  0  0  0  0  0  0  0  0  0  0  0
    4.9950    0.9343   20.0114 C   0  0  0  0  0  0  0  0  0  0  0  0
    5.0361    0.9215   22.1787 H   0  0  0  0  0  0  0  0  0  0  0  0
    3.0758    2.3796   22.4363 H   0  0  0  0  0  0  0  0  0  0  0  0
    1.8761    3.2535   20.4335 H   0  0  0  0  0  0  0  0  0  0  0  0
    2.6599    2.6359   18.1673 H   0  0  0  0  0  0  0  0  0  0  0  0
    4.2179    1.3836   16.7097 H   0  0  0  0  0  0  0  0  0  0  0  0
    7.2893   -0.8799   18.2606 H   0  0  0  0  0  0  0  0  0  0  0  0
    6.7877   -1.7771   21.3184 C   0  0  0  0  0  0  0  0  0  0  0  0
    7.9477   -1.9189   22.3180 C   0  0  2  0  0  0  0  0  0  0  0  0
    7.6487   -2.9738   23.4076 C   0  0  0  0  0  0  0  0  0  0  0  0
    7.5178   -4.3203   22.8771 N   0  0  0  0  0  0  0  0  0  0  0  0
    6.3584   -4.9183   22.5626 C   0  0  0  0  0  0  0  0  0  0  0  0
    5.1984   -4.3009   22.8701 N   0  0  0  0  0  0  0  0  0  0  0  0
    4.1214   -5.0135   22.5663 C   0  0  0  0  0  0  0  0  0  0  0  0
    4.0989   -6.2055   21.9812 N   0  0  0  0  0  0  0  0  0  0  0  0
    5.3083   -6.6905   21.6819 C   0  0  0  0  0  0  0  0  0  0  0  0
    6.4676   -6.1166   21.9393 N   0  0  0  0  0  0  0  0  0  0  0  0
    5.3244   -7.6514   21.1616 H   0  0  0  0  0  0  0  0  0  0  0  0
    3.1578   -4.5730   22.8112 H   0  0  0  0  0  0  0  0  0  0  0  0
    8.3376   -4.8435   22.6091 H   0  0  0  0  0  0  0  0  0  0  0  0
    6.7095   -2.7436   23.9256 H   0  0  0  0  0  0  0  0  0  0  0  0
    8.4614   -2.9979   24.1403 H   0  0  0  0  0  0  0  0  0  0  0  0
    8.8329   -2.2645   21.7779 H   0  0  0  0  0  0  0  0  0  0  0  0
    6.8428   -2.4947   20.4950 H   0  0  0  0  0  0  0  0  0  0  0  0
    5.8202   -1.9325   21.8182 H   0  0  0  0  0  0  0  0  0  0  0  0
   10.4026   -1.2785   21.2353 H   0  0  0  0  0  0  0  0  0  0  0  0
   13.5306    0.7451   23.3300 H   0  0  0  0  0  0  0  0  0  0  0  0
   11.8051    1.7613   24.8428 H   0  0  0  0  0  0  0  0  0  0  0  0
  1  2  2  0
  2  3  1  0
  3  4  2  0
  4  5  1  0
  5  6  2  0
  6  7  1  0
  6  8  1  0
  8  9  2  0
  9 10  1  0
 10 11  1  1
 11 12  1  0
 12 13  1  0
 13 14  1  0
 14 15  2  0
 15 16  1  0
 16 17  2  0
 17 18  1  0
 17 19  1  0
 13 20  1  0
 13 21  1  0
 11 22  1  0
 11 23  1  0
 10 24  1  0
 24 25  2  0
 24 26  1  0
 26 27  1  0
 27 28  2  0
 28 29  1  0
 29 30  2  0
 30 31  1  0
 31 32  2  0
 32 33  1  0
 33 34  2  0
 34 35  1  0
 35 36  2  0
 35 37  1  0
 34 38  1  0
 33 39  1  0
 32 40  1  0
 30 41  1  0
 28 42  1  0
 26 43  1  0
 43 44  1  0
 44 45  1  0
 45 46  1  0
 46 47  1  0
 47 48  2  0
 48 49  1  0
 49 50  2  0
 50 51  1  0
 51 52  2  0
 51 53  1  0
 49 54  1  0
 46 55  1  0
 45 56  1  0
 45 57  1  0
 44 58  1  6
 43 59  1  0
 43 60  1  0
  8 61  1  0
  5 62  1  0
  4 63  1  0
 12  2  1  0
 18 14  1  0
 36 27  1  0
 52 47  1  0
  9  3  1  0
 44 10  1  0
 36 31  1  0
M  END
>  <cnnaffinities>  (1) 
[6.73204, 7.07362, 6.69637, 6.55031]

>  <score>  (1) 
6.73204

>  <index>  (1) 
0

>  <Smiles>  (1) 
O=C1c2c(c(c(Cl)c(c2[C@@]2(C(N1C(c1nnc(o1)[H])([H])[H])([H])[H])C(=O)N(c1c(nc(c3c(c(c(c(c13)[H])[H])[H])[H])[H])[H])C([C@@]2(C(N(c1nc(nc(n1)[H])[H])[H])([H])[H])[H])([H])[H])[H])[H])[H]

>  <h>  (1) 
<NA>

>  <Training>  (1) 
True

>  <Success>  (1) 
True

>  <enamine_searched>  (1) 
False

>  <enamine_id>  (1) 
nan

$$$$

     RDKit          3D

 51 54  0  0  0  0  0  0  0  0999 V2000
    1.2521   -4.8486   25.8174 C   0  0  0  0  0  0  0  0  0  0  0  0
    1.8316   -3.6009   26.1348 O   0  0  0  0  0  0  0  0  0  0  0  0
    2.8304   -3.1505   25.3292 C   0  0  0  0  0  0  0  0  0  0  0  0
    3.5085   -3.9496   24.4152 C   0  0  0  0  0  0  0  0  0  0  0  0
    4.4342   -3.3875   23.5456 C   0  0  0  0  0  0  0  0  0  0  0  0
    4.7930   -2.0498   23.6727 C   0  0  0  0  0  0  0  0  0  0  0  0
    5.8653   -1.4874   22.9026 N   0  0  0  0  0  0  0  0  0  0  0  0
    7.0823   -1.1299   23.6525 C   0  0  0  0  0  0  0  0  0  0  0  0
    7.8851   -2.3274   24.1371 C   0  0  0  0  0  0  0  0  0  0  0  0
    8.9752   -2.8481   23.4338 C   0  0  0  0  0  0  0  0  0  0  0  0
    9.5492   -4.0646   24.3271 C   0  0  0  0  0  0  0  0  0  0  0  0
    9.5810   -4.3739   24.1532 C   0  0  0  0  0  0  0  0  0  0  0  0
    8.3381   -4.2182   25.6040 C   0  0  0  0  0  0  0  0  0  0  0  0
    9.1102   -4.2484   27.2170 Cl  0  0  0  0  0  0  0  0  0  0  0  0
    7.5901   -3.0207   25.3499 C   0  0  0  0  0  0  0  0  0  0  0  0
    6.8526   -2.6315   26.0461 H   0  0  0  0  0  0  0  0  0  0  0  0
    9.3048   -5.3432   23.5790 H   0  0  0  0  0  0  0  0  0  0  0  0
   10.7693   -4.4077   24.5368 H   0  0  0  0  0  0  0  0  0  0  0  0
    9.7193   -2.1803   22.9914 H   0  0  0  0  0  0  0  0  0  0  0  0
    7.6940   -0.4717   23.0291 H   0  0  0  0  0  0  0  0  0  0  0  0
    6.7642   -0.5311   24.5177 H   0  0  0  0  0  0  0  0  0  0  0  0
    5.7509   -1.5387   21.5164 C   0  0  0  0  0  0  0  0  0  0  0  0
    4.9045   -2.2227   20.9632 O   0  0  0  0  0  0  0  0  0  0  0  0
    6.6808   -0.6523   20.6777 C   0  0  0  0  0  0  0  0  0  0  0  0
    5.9595    0.0077   19.5367 C   0  0  0  0  0  0  0  0  0  0  0  0
    6.2863   -0.2705   18.2375 C   0  0  0  0  0  0  0  0  0  0  0  0
    5.6604    0.2402   17.1451 N   0  0  0  0  0  0  0  0  0  0  0  0
    4.6614    1.0593   17.3653 C   0  0  0  0  0  0  0  0  0  0  0  0
    4.2121    1.4383   18.6585 C   0  0  0  0  0  0  0  0  0  0  0  0
    3.1122    2.3150   18.8438 C   0  0  0  0  0  0  0  0  0  0  0  0
    2.7273    2.6918   20.1013 C   0  0  0  0  0  0  0  0  0  0  0  0
    3.4379    2.2232   21.2291 C   0  0  0  0  0  0  0  0  0  0  0  0
    4.5026    1.3711   21.0741 C   0  0  0  0  0  0  0  0  0  0  0  0
    4.9000    0.9286   19.7818 C   0  0  0  0  0  0  0  0  0  0  0  0
    5.0469    1.0389   21.9521 H   0  0  0  0  0  0  0  0  0  0  0  0
    3.1399    2.5440   22.2241 H   0  0  0  0  0  0  0  0  0  0  0  0
    1.8825    3.3614   20.2427 H   0  0  0  0  0  0  0  0  0  0  0  0
    2.5886    2.6834   17.9650 H   0  0  0  0  0  0  0  0  0  0  0  0
    4.1540    1.4703   16.4920 H   0  0  0  0  0  0  0  0  0  0  0  0
    7.1093   -0.9513   18.0179 H   0  0  0  0  0  0  0  0  0  0  0  0
    7.1549    0.1018   21.3077 H   0  0  0  0  0  0  0  0  0  0  0  0
    7.4700   -1.3058   20.2882 H   0  0  0  0  0  0  0  0  0  0  0  0
    4.1366   -1.2588   24.6194 C   0  0  0  0  0  0  0  0  0  0  0  0
    3.1419   -1.7924   25.4209 C   0  0  0  0  0  0  0  0  0  0  0  0
    2.6035   -1.1804   26.1366 H   0  0  0  0  0  0  0  0  0  0  0  0
    4.3937   -0.2028   24.7044 H   0  0  0  0  0  0  0  0  0  0  0  0
    4.8557   -3.9889   22.7468 H   0  0  0  0  0  0  0  0  0  0  0  0
    3.2895   -5.0057   24.3293 H   0  0  0  0  0  0  0  0  0  0  0  0
    1.9296   -5.6787   26.0506 H   0  0  0  0  0  0  0  0  0  0  0  0
    0.3499   -4.9335   26.4257 H   0  0  0  0  0  0  0  0  0  0  0  0
    0.9814   -4.8990   24.7564 H   0  0  0  0  0  0  0  0  0  0  0  0
  1  2  1  0
  2  3  1  0
  3  4  2  0
  4  5  1  0
  5  6  2  0
  6  7  1  0
  7  8  1  0
  8  9  1  0
  9 10  2  0
 10 11  1  0
 11 12  2  0
 12 13  1  0
 13 14  1  0
 13 15  2  0
 15 16  1  0
 12 17  1  0
 11 18  1  0
 10 19  1  0
  8 20  1  0
  8 21  1  0
  7 22  1  0
 22 23  2  0
 22 24  1  0
 24 25  1  0
 25 26  2  0
 26 27  1  0
 27 28  2  0
 28 29  1  0
 29 30  2  0
 30 31  1  0
 31 32  2  0
 32 33  1  0
 33 34  2  0
 33 35  1  0
 32 36  1  0
 31 37  1  0
 30 38  1  0
 28 39  1  0
 26 40  1  0
 24 41  1  0
 24 42  1  0
  6 43  1  0
 43 44  2  0
 44 45  1  0
 43 46  1  0
  5 47  1  0
  4 48  1  0
  1 49  1  0
  1 50  1  0
  1 51  1  0
 44  3  1  0
 15  9  1  0
 34 25  1  0
 34 29  1  0
M  END
>  <cnnaffinities>  (2) 
[5.08057]

>  <score>  (2) 
5.08057

>  <index>  (2) 
1

>  <Smiles>  (2) 
C(Oc1c(c(c(N(C(c2c(c(c(c(Cl)c2[H])[H])[H])[H])([H])[H])C(=O)C(c2c(nc(c3c(c(c(c(c23)[H])[H])[H])[H])[H])[H])([H])[H])c(c1[H])[H])[H])[H])([H])([H])[H]

>  <h>  (2) 
<NA>

>  <Training>  (2) 
True

>  <Success>  (2) 
True

>  <enamine_searched>  (2) 
False

>  <enamine_id>  (2) 
nan

$$$$

     RDKit          3D

 56 60  0  0  0  0  0  0  0  0999 V2000
    2.5340   -5.5764   22.5523 C   0  0  0  0  0  0  0  0  0  0  0  0
    3.7215   -5.4280   23.3667 N   0  0  0  0  0  0  0  0  0  0  0  0
    4.9358   -5.2958   22.7730 C   0  0  0  0  0  0  0  0  0  0  0  0
    5.0859   -5.3027   21.5600 O   0  0  0  0  0  0  0  0  0  0  0  0
    6.1394   -5.1126   23.7103 C   0  0  0  0  0  0  0  0  0  0  0  0
    6.4037   -3.6933   23.8990 N   0  0  0  0  0  0  0  0  0  0  0  0
    7.5358   -3.1049   23.2025 C   0  0  0  0  0  0  0  0  0  0  0  0
    7.3428   -1.6042   22.8781 C   0  0  2  0  0  0  0  0  0  0  0  0
    6.3387   -1.4040   21.7156 C   0  0  0  0  0  0  0  0  0  0  0  0
    5.2555   -1.9213   21.5859 O   0  0  0  0  0  0  0  0  0  0  0  0
    6.8637   -0.4809   20.8413 N   0  0  0  0  0  0  0  0  0  0  0  0
    6.1071    0.0618   19.7771 C   0  0  0  0  0  0  0  0  0  0  0  0
    6.4642   -0.2107   18.4810 C   0  0  0  0  0  0  0  0  0  0  0  0
    5.8013    0.2416   17.3881 N   0  0  0  0  0  0  0  0  0  0  0  0
    4.7607    1.0122   17.5974 C   0  0  0  0  0  0  0  0  0  0  0  0
    4.3051    1.4036   18.8887 C   0  0  0  0  0  0  0  0  0  0  0  0
    3.1889    2.2656   19.0472 C   0  0  0  0  0  0  0  0  0  0  0  0
    2.7883    2.6564   20.2940 C   0  0  0  0  0  0  0  0  0  0  0  0
    3.4857    2.2064   21.4392 C   0  0  0  0  0  0  0  0  0  0  0  0
    4.5671    1.3685   21.3184 C   0  0  0  0  0  0  0  0  0  0  0  0
    4.9950    0.9306   20.0274 C   0  0  0  0  0  0  0  0  0  0  0  0
    5.1021    1.0420   22.2129 H   0  0  0  0  0  0  0  0  0  0  0  0
    3.1615    2.5339   22.4229 H   0  0  0  0  0  0  0  0  0  0  0  0
    1.9383    3.3230   20.4141 H   0  0  0  0  0  0  0  0  0  0  0  0
    2.6773    2.6154   18.1543 H   0  0  0  0  0  0  0  0  0  0  0  0
    4.2238    1.3805   16.7218 H   0  0  0  0  0  0  0  0  0  0  0  0
    7.3197   -0.8554   18.2813 H   0  0  0  0  0  0  0  0  0  0  0  0
    8.2078   -0.0468   21.1499 C   0  0  0  0  0  0  0  0  0  0  0  0
    8.6419   -0.9425   22.3255 C   0  0  2  0  0  0  0  0  0  0  0  0
    9.6794   -1.9449   21.8374 N   0  0  0  0  0  4  0  0  0  0  0  0
    9.3095   -2.4986   21.0431 H   0  0  0  0  0  0  0  0  0  0  0  0
   10.5330   -1.4505   21.5244 H   0  0  0  0  0  0  0  0  0  0  0  0
    9.9509   -2.5799   22.6016 H   0  0  0  0  0  0  0  0  0  0  0  0
    9.1252   -0.3658   23.1095 H   0  0  0  0  0  0  0  0  0  0  0  0
    8.8743   -0.2044   20.3048 H   0  0  0  0  0  0  0  0  0  0  0  0
    8.2297    1.0208   21.4001 H   0  0  0  0  0  0  0  0  0  0  0  0
    6.7946   -0.8949   24.1130 C   0  0  0  0  0  0  0  0  0  0  0  0
    6.9836    0.4762   24.3312 C   0  0  0  0  0  0  0  0  0  0  0  0
    6.4535    1.0783   25.4621 C   0  0  0  0  0  0  0  0  0  0  0  0
    6.7013    2.7829   25.7175 Cl  0  0  0  0  0  0  0  0  0  0  0  0
    5.7114    0.3588   26.3964 C   0  0  0  0  0  0  0  0  0  0  0  0
    5.4733   -0.9775   26.1564 C   0  0  0  0  0  0  0  0  0  0  0  0
    5.9897   -1.5930   25.0185 C   0  0  0  0  0  0  0  0  0  0  0  0
    5.6263   -3.0195   24.7803 C   0  0  0  0  0  0  0  0  0  0  0  0
    4.6756   -3.5640   25.3483 O   0  0  0  0  0  0  0  0  0  0  0  0
    4.8885   -1.5763   26.8457 H   0  0  0  0  0  0  0  0  0  0  0  0
    5.3190    0.8505   27.2790 H   0  0  0  0  0  0  0  0  0  0  0  0
    7.5385    1.0915   23.6311 H   0  0  0  0  0  0  0  0  0  0  0  0
    7.6320   -3.6717   22.2731 H   0  0  0  0  0  0  0  0  0  0  0  0
    8.4323   -3.2426   23.8229 H   0  0  0  0  0  0  0  0  0  0  0  0
    6.9900   -5.5579   23.1851 H   0  0  0  0  0  0  0  0  0  0  0  0
    6.0119   -5.6065   24.6861 H   0  0  0  0  0  0  0  0  0  0  0  0
    3.6040   -5.0401   24.2919 H   0  0  0  0  0  0  0  0  0  0  0  0
    2.5510   -6.5176   22.0065 H   0  0  0  0  0  0  0  0  0  0  0  0
    2.4379   -4.7823   21.8080 H   0  0  0  0  0  0  0  0  0  0  0  0
    1.6716   -5.5649   23.2245 H   0  0  0  0  0  0  0  0  0  0  0  0
  1  2  1  0
  2  3  1  0
  3  4  2  0
  3  5  1  0
  5  6  1  0
  6  7  1  0
  8  7  1  1
  8  9  1  0
  9 10  2  0
  9 11  1  0
 11 12  1  0
 12 13  2  0
 13 14  1  0
 14 15  2  0
 15 16  1  0
 16 17  2  0
 17 18  1  0
 18 19  2  0
 19 20  1  0
 20 21  2  0
 20 22  1  0
 19 23  1  0
 18 24  1  0
 17 25  1  0
 15 26  1  0
 13 27  1  0
 11 28  1  0
 28 29  1  0
 29 30  1  0
 30 31  1  0
 30 32  1  0
 30 33  1  0
 29 34  1  1
 28 35  1  0
 28 36  1  0
  8 37  1  0
 37 38  2  0
 38 39  1  0
 39 40  1  0
 39 41  2  0
 41 42  1  0
 42 43  2  0
 43 44  1  0
 44 45  2  0
 42 46  1  0
 41 47  1  0
 38 48  1  0
  7 49  1  0
  7 50  1  0
  5 51  1  0
  5 52  1  0
  2 53  1  0
  1 54  1  0
  1 55  1  0
  1 56  1  0
 44  6  1  0
 29  8  1  0
 43 37  1  0
 21 12  1  0
 21 16  1  0
M  CHG  1  30   1
M  END
>  <cnnaffinities>  (3) 
[6.33891, 6.36143, 6.25089]

>  <score>  (3) 
6.33891

>  <index>  (3) 
2

>  <Smiles>  (3) 
C(N(C(=O)C(N1C([C@@]2(C(=O)N(c3c(nc(c4c(c(c(c(c34)[H])[H])[H])[H])[H])[H])C([C@@]2([N+]([H])([H])[H])[H])([H])[H])c2c(c(Cl)c(c(c2C1=O)[H])[H])[H])([H])[H])([H])[H])[H])([H])([H])[H]

>  <h>  (3) 
<NA>

>  <Training>  (3) 
True

>  <Success>  (3) 
True

>  <enamine_searched>  (3) 
False

>  <enamine_id>  (3) 
nan

$$$$

     RDKit          3D

 67 73  0  0  0  0  0  0  0  0999 V2000
    9.2470    2.5421   25.5185 O   0  0  0  0  0  0  0  0  0  0  0  0
    8.9795    1.5845   24.8115 C   0  0  0  0  0  0  0  0  0  0  0  0
   10.0235    0.7819   24.0902 C   0  0  0  0  0  0  0  0  0  0  0  0
   11.3580    1.0843   24.3302 C   0  0  0  0  0  0  0  0  0  0  0  0
   12.3532    0.6167   23.4971 C   0  0  0  0  0  0  0  0  0  0  0  0
   11.9720   -0.1261   22.3767 C   0  0  0  0  0  0  0  0  0  0  0  0
   13.1204   -0.4020   21.0929 Cl  0  0  0  0  0  0  0  0  0  0  0  0
   10.6661   -0.5540   22.2054 C   0  0  0  0  0  0  0  0  0  0  0  0
    9.6688   -0.1310   23.0918 C   0  0  0  0  0  0  0  0  0  0  0  0
    8.2110   -0.4748   22.8333 C   0  0  1  0  0  0  0  0  0  0  0  0
    7.3989   -0.1333   24.1085 C   0  0  0  0  0  0  0  0  0  0  0  0
    7.6935    1.2090   24.5565 N   0  0  0  0  0  0  0  0  0  0  0  0
    6.6021    2.1021   24.8945 C   0  0  0  0  0  0  0  0  0  0  0  0
    5.8125    1.6508   26.1049 C   0  0  0  0  0  0  0  0  0  0  0  0
    6.3037    1.8080   27.3827 C   0  0  0  0  0  0  0  0  0  0  0  0
    5.5303    1.3135   28.4312 C   0  0  0  0  0  0  0  0  0  0  0  0
    4.3571    0.7090   28.2598 N   0  0  0  0  0  0  0  0  0  0  0  0
    3.8726    0.5636   27.0366 N   0  0  0  0  0  0  0  0  0  0  0  0
    4.5704    1.0161   25.9977 C   0  0  0  0  0  0  0  0  0  0  0  0
    4.0931    0.8565   25.0318 H   0  0  0  0  0  0  0  0  0  0  0  0
    5.8567    1.3980   29.4664 H   0  0  0  0  0  0  0  0  0  0  0  0
    7.2619    2.2986   27.5627 H   0  0  0  0  0  0  0  0  0  0  0  0
    5.9473    2.1847   24.0137 H   0  0  0  0  0  0  0  0  0  0  0  0
    7.0672    3.0723   25.0836 H   0  0  0  0  0  0  0  0  0  0  0  0
    6.3206   -0.1952   23.9142 H   0  0  0  0  0  0  0  0  0  0  0  0
    7.6500   -0.8467   24.9102 H   0  0  0  0  0  0  0  0  0  0  0  0
    7.6671    0.3803   21.6627 C   0  0  0  0  0  0  0  0  0  0  0  0
    7.8277    1.5702   21.4937 O   0  0  0  0  0  0  0  0  0  0  0  0
    6.9212   -0.4256   20.8293 N   0  0  0  0  0  0  0  0  0  0  0  0
    6.1384    0.1004   19.7682 C   0  0  0  0  0  0  0  0  0  0  0  0
    6.4428   -0.2265   18.4707 C   0  0  0  0  0  0  0  0  0  0  0  0
    5.7692    0.2238   17.3834 N   0  0  0  0  0  0  0  0  0  0  0  0
    4.7472    1.0189   17.5940 C   0  0  0  0  0  0  0  0  0  0  0  0
    4.2990    1.4168   18.8859 C   0  0  0  0  0  0  0  0  0  0  0  0
    3.1718    2.2674   19.0600 C   0  0  0  0  0  0  0  0  0  0  0  0
    2.7463    2.6086   20.3151 C   0  0  0  0  0  0  0  0  0  0  0  0
    3.4213    2.1098   21.4510 C   0  0  0  0  0  0  0  0  0  0  0  0
    4.5132    1.2913   21.3076 C   0  0  0  0  0  0  0  0  0  0  0  0
    4.9987    0.9372   20.0149 C   0  0  0  0  0  0  0  0  0  0  0  0
    5.0266    0.9069   22.1824 H   0  0  0  0  0  0  0  0  0  0  0  0
    3.0778    2.3870   22.4440 H   0  0  0  0  0  0  0  0  0  0  0  0
    1.8911    3.2677   20.4425 H   0  0  0  0  0  0  0  0  0  0  0  0
    2.6625    2.6404   18.1750 H   0  0  0  0  0  0  0  0  0  0  0  0
    4.2172    1.3853   16.7142 H   0  0  0  0  0  0  0  0  0  0  0  0
    7.2894   -0.8799   18.2636 H   0  0  0  0  0  0  0  0  0  0  0  0
    6.8137   -1.7970   21.2876 C   0  0  0  0  0  0  0  0  0  0  0  0
    7.9414   -1.9202   22.3270 C   0  0  2  0  0  0  0  0  0  0  0  0
    7.6419   -2.9926   23.3970 C   0  0  0  0  0  0  0  0  0  0  0  0
    7.5880   -4.3305   22.8403 N   0  0  0  0  0  0  0  0  0  0  0  0
    6.4555   -4.9702   22.4585 C   0  0  0  0  0  0  0  0  0  0  0  0
    6.5422   -6.2079   21.7789 C   0  0  0  0  0  0  0  0  0  0  0  0
    5.3520   -6.8263   21.4866 C   0  0  0  0  0  0  0  0  0  0  0  0
    4.1598   -6.3180   21.8394 N   0  0  0  0  0  0  0  0  0  0  0  0
    4.1924   -5.1326   22.4223 C   0  0  0  0  0  0  0  0  0  0  0  0
    5.2686   -4.4105   22.7400 N   0  0  0  0  0  0  0  0  0  0  0  0
    3.2233   -4.6869   22.6501 H   0  0  0  0  0  0  0  0  0  0  0  0
    5.3274   -7.7631   20.9254 H   0  0  0  0  0  0  0  0  0  0  0  0
    7.4997   -6.6545   21.5211 H   0  0  0  0  0  0  0  0  0  0  0  0
    8.4613   -4.7722   22.5971 H   0  0  0  0  0  0  0  0  0  0  0  0
    6.6772   -2.7949   23.8808 H   0  0  0  0  0  0  0  0  0  0  0  0
    8.4269   -2.9832   24.1633 H   0  0  0  0  0  0  0  0  0  0  0  0
    8.8547   -2.2285   21.8097 H   0  0  0  0  0  0  0  0  0  0  0  0
    5.8355   -1.9915   21.7499 H   0  0  0  0  0  0  0  0  0  0  0  0
    6.9221   -2.4979   20.4557 H   0  0  0  0  0  0  0  0  0  0  0  0
   10.4331   -1.1785   21.3509 H   0  0  0  0  0  0  0  0  0  0  0  0
   13.3952    0.8505   23.6656 H   0  0  0  0  0  0  0  0  0  0  0  0
   11.5464    1.7681   25.1385 H   0  0  0  0  0  0  0  0  0  0  0  0
  1  2  2  0
  2  3  1  0
  3  4  2  0
  4  5  1  0
  5  6  2  0
  6  7  1  0
  6  8  1  0
  8  9  2  0
  9 10  1  0
 10 11  1  1
 11 12  1  0
 12 13  1  0
 13 14  1  0
 14 15  2  0
 15 16  1  0
 16 17  2  0
 17 18  1  0
 18 19  2  0
 19 20  1  0
 16 21  1  0
 15 22  1  0
 13 23  1  0
 13 24  1  0
 11 25  1  0
 11 26  1  0
 10 27  1  0
 27 28  2  0
 27 29  1  0
 29 30  1  0
 30 31  2  0
 31 32  1  0
 32 33  2  0
 33 34  1  0
 34 35  2  0
 35 36  1  0
 36 37  2  0
 37 38  1  0
 38 39  2  0
 38 40  1  0
 37 41  1  0
 36 42  1  0
 35 43  1  0
 33 44  1  0
 31 45  1  0
 29 46  1  0
 46 47  1  0
 47 48  1  0
 48 49  1  0
 49 50  1  0
 50 51  2  0
 51 52  1  0
 52 53  2  0
 53 54  1  0
 54 55  2  0
 54 56  1  0
 52 57  1  0
 51 58  1  0
 49 59  1  0
 48 60  1  0
 48 61  1  0
 47 62  1  6
 46 63  1  0
 46 64  1  0
  8 65  1  0
  5 66  1  0
  4 67  1  0
 12  2  1  0
 19 14  1  0
 39 30  1  0
 55 50  1  0
  9  3  1  0
 47 10  1  0
 39 34  1  0
M  END
>  <cnnaffinities>  (4) 
[6.82828, 6.8581]

>  <score>  (4) 
6.82828

>  <index>  (4) 
3

>  <Smiles>  (4) 
O=C1c2c(c(c(Cl)c(c2[C@@]2(C(N1C(c1c(c(nnc1[H])[H])[H])([H])[H])([H])[H])C(=O)N(c1c(nc(c3c(c(c(c(c13)[H])[H])[H])[H])[H])[H])C([C@@]2(C(N(c1c(c(nc(n1)[H])[H])[H])[H])([H])[H])[H])([H])[H])[H])[H])[H]

>  <h>  (4) 
<NA>

>  <Training>  (4) 
True

>  <Success>  (4) 
True

>  <enamine_searched>  (4) 
False

>  <enamine_id>  (4) 
nan

$$$$

     RDKit          3D

 41 44  0  0  0  0  0  0  0  0999 V2000
    9.0967    2.1664   23.9919 C   0  0  0  0  0  0  0  0  0  0  0  0
    9.7503    1.2153   22.9809 C   0  0  1  0  0  0  0  0  0  0  0  0
   10.9904    0.6113   23.5549 C   0  0  0  0  0  0  0  0  0  0  0  0
   12.2990    1.1937   23.6250 C   0  0  0  0  0  0  0  0  0  0  0  0
   13.1785    0.3747   24.2550 C   0  0  0  0  0  0  0  0  0  0  0  0
   12.4181   -1.0475   24.8565 S   0  0  0  0  0  0  0  0  0  0  0  0
   10.9154   -0.5891   24.1729 C   0  0  0  0  0  0  0  0  0  0  0  0
    9.6451   -1.3557   24.2766 C   0  0  0  0  0  0  0  0  0  0  0  0
    8.8178   -1.1896   23.0082 C   0  0  0  0  0  0  0  0  0  0  0  0
    8.8009    0.1860   22.5018 N   0  0  0  0  0  0  0  0  0  0  0  0
    7.9532    0.5849   21.5009 C   0  0  0  0  0  0  0  0  0  0  0  0
    7.9809    1.7284   21.0679 O   0  0  0  0  0  0  0  0  0  0  0  0
    6.9621   -0.4533   20.9125 C   0  0  0  0  0  0  0  0  0  0  0  0
    6.1271    0.0909   19.7772 C   0  0  0  0  0  0  0  0  0  0  0  0
    6.4352   -0.2091   18.4765 C   0  0  0  0  0  0  0  0  0  0  0  0
    5.7692    0.2403   17.3787 N   0  0  0  0  0  0  0  0  0  0  0  0
    4.7428    1.0252   17.5842 C   0  0  0  0  0  0  0  0  0  0  0  0
    4.2956    1.4214   18.8730 C   0  0  0  0  0  0  0  0  0  0  0  0
    3.1779    2.2762   19.0465 C   0  0  0  0  0  0  0  0  0  0  0  0
    2.7714    2.6451   20.2971 C   0  0  0  0  0  0  0  0  0  0  0  0
    3.4723    2.1721   21.4332 C   0  0  0  0  0  0  0  0  0  0  0  0
    4.5603    1.3470   21.2901 C   0  0  0  0  0  0  0  0  0  0  0  0
    5.0036    0.9465   20.0023 C   0  0  0  0  0  0  0  0  0  0  0  0
    5.1003    0.9980   22.1664 H   0  0  0  0  0  0  0  0  0  0  0  0
    3.1460    2.4752   22.4231 H   0  0  0  0  0  0  0  0  0  0  0  0
    1.9202    3.3086   20.4284 H   0  0  0  0  0  0  0  0  0  0  0  0
    2.6624    2.6361   18.1586 H   0  0  0  0  0  0  0  0  0  0  0  0
    4.2097    1.3862   16.7030 H   0  0  0  0  0  0  0  0  0  0  0  0
    7.2776   -0.8593   18.2395 H   0  0  0  0  0  0  0  0  0  0  0  0
    6.3159   -0.8468   21.7112 H   0  0  0  0  0  0  0  0  0  0  0  0
    7.5422   -1.3131   20.5485 H   0  0  0  0  0  0  0  0  0  0  0  0
    9.1972   -1.8737   22.2354 H   0  0  0  0  0  0  0  0  0  0  0  0
    7.7903   -1.4825   23.2397 H   0  0  0  0  0  0  0  0  0  0  0  0
    9.8345   -2.4148   24.4545 H   0  0  0  0  0  0  0  0  0  0  0  0
    9.0772   -0.9700   25.1339 H   0  0  0  0  0  0  0  0  0  0  0  0
   14.2541    0.4214   24.3021 H   0  0  0  0  0  0  0  0  0  0  0  0
   12.5656    2.1687   23.2236 H   0  0  0  0  0  0  0  0  0  0  0  0
   10.0171    1.7907   22.0890 H   0  0  0  0  0  0  0  0  0  0  0  0
    8.7922    1.6018   24.8811 H   0  0  0  0  0  0  0  0  0  0  0  0
    9.8393    2.9081   24.3047 H   0  0  0  0  0  0  0  0  0  0  0  0
    8.2342    2.6798   23.5567 H   0  0  0  0  0  0  0  0  0  0  0  0
  1  2  1  0
  2  3  1  0
  3  4  1  0
  4  5  2  0
  5  6  1  0
  6  7  1  0
  7  8  1  0
  8  9  1  0
  9 10  1  0
 10 11  1  0
 11 12  2  0
 11 13  1  0
 13 14  1  0
 14 15  2  0
 15 16  1  0
 16 17  2  0
 17 18  1  0
 18 19  2  0
 19 20  1  0
 20 21  2  0
 21 22  1  0
 22 23  2  0
 22 24  1  0
 21 25  1  0
 20 26  1  0
 19 27  1  0
 17 28  1  0
 15 29  1  0
 13 30  1  0
 13 31  1  0
  9 32  1  0
  9 33  1  0
  8 34  1  0
  8 35  1  0
  5 36  1  0
  4 37  1  0
  2 38  1  6
  1 39  1  0
  1 40  1  0
  1 41  1  0
 10  2  1  0
 23 14  1  0
  7  3  2  0
 23 18  1  0
M  END
>  <cnnaffinities>  (5) 
[5.95588]

>  <score>  (5) 
5.95588

>  <index>  (5) 
4

>  <Smiles>  (5) 
C([C@]1(c2c(c(sc2C(C(N1C(=O)C(c1c(nc(c2c(c(c(c(c12)[H])[H])[H])[H])[H])[H])([H])[H])([H])[H])([H])[H])[H])[H])[H])([H])([H])[H]

>  <h>  (5) 
<NA>

>  <Training>  (5) 
True

>  <Success>  (5) 
True

>  <enamine_searched>  (5) 
False

>  <enamine_id>  (5) 
nan

$$$$

     RDKit          3D

 50 54  0  0  0  0  0  0  0  0999 V2000
   10.0246   -1.5465   22.4128 C   0  0  0  0  0  0  0  0  0  0  0  0
    8.6096   -0.9470   22.3633 C   0  0  1  0  0  0  0  0  0  0  0  0
    8.2940   -0.3537   20.9728 C   0  0  0  0  0  0  0  0  0  0  0  0
    6.8502   -0.4709   20.8602 N   0  0  0  0  0  0  0  0  0  0  0  0
    6.1031    0.0636   19.7785 C   0  0  0  0  0  0  0  0  0  0  0  0
    6.4397   -0.2237   18.4793 C   0  0  0  0  0  0  0  0  0  0  0  0
    5.7764    0.2404   17.3896 N   0  0  0  0  0  0  0  0  0  0  0  0
    4.7447    1.0219   17.5919 C   0  0  0  0  0  0  0  0  0  0  0  0
    4.2924    1.4191   18.8788 C   0  0  0  0  0  0  0  0  0  0  0  0
    3.1760    2.2809   19.0533 C   0  0  0  0  0  0  0  0  0  0  0  0
    2.7790    2.6575   20.3064 C   0  0  0  0  0  0  0  0  0  0  0  0
    3.4860    2.2000   21.4426 C   0  0  0  0  0  0  0  0  0  0  0  0
    4.5693    1.3725   21.2981 C   0  0  0  0  0  0  0  0  0  0  0  0
    4.9891    0.9392   20.0102 C   0  0  0  0  0  0  0  0  0  0  0  0
    5.1117    1.0216   22.1711 H   0  0  0  0  0  0  0  0  0  0  0  0
    3.1680    2.5091   22.4358 H   0  0  0  0  0  0  0  0  0  0  0  0
    1.9262    3.3217   20.4399 H   0  0  0  0  0  0  0  0  0  0  0  0
    2.6547    2.6405   18.1703 H   0  0  0  0  0  0  0  0  0  0  0  0
    4.2159    1.3836   16.7112 H   0  0  0  0  0  0  0  0  0  0  0  0
    7.2812   -0.8789   18.2535 H   0  0  0  0  0  0  0  0  0  0  0  0
    6.3155   -1.3981   21.7336 C   0  0  0  0  0  0  0  0  0  0  0  0
    5.1631   -1.7717   21.7125 O   0  0  0  0  0  0  0  0  0  0  0  0
    7.4225   -1.9002   22.6933 C   0  0  1  0  0  0  0  0  0  0  0  0
    7.7412   -3.3688   22.3403 C   0  0  0  0  0  0  0  0  0  0  0  0
    6.6207   -4.2214   22.6754 N   0  0  0  0  0  0  0  0  0  0  0  0
    6.1543   -5.2283   21.7475 C   0  0  0  0  0  0  0  0  0  0  0  0
    6.7553   -6.5627   21.9590 C   0  0  0  0  0  0  0  0  0  0  0  0
    7.2116   -7.6062   22.1513 N   0  0  0  0  0  0  0  0  0  0  0  0
    5.0674   -5.3308   21.8304 H   0  0  0  0  0  0  0  0  0  0  0  0
    6.3716   -4.8951   20.7241 H   0  0  0  0  0  0  0  0  0  0  0  0
    6.1486   -4.2496   23.9613 C   0  0  0  0  0  0  0  0  0  0  0  0
    5.5443   -5.2196   24.3951 O   0  0  0  0  0  0  0  0  0  0  0  0
    6.3753   -2.9910   24.7417 C   0  0  0  0  0  0  0  0  0  0  0  0
    5.9203   -2.9441   26.0601 C   0  0  0  0  0  0  0  0  0  0  0  0
    5.9194   -1.7620   26.7685 C   0  0  0  0  0  0  0  0  0  0  0  0
    6.3616   -0.6217   26.1095 C   0  0  0  0  0  0  0  0  0  0  0  0
    6.3150    0.5508   26.7650 F   0  0  0  0  0  0  0  0  0  0  0  0
    6.8402   -0.6392   24.8156 C   0  0  0  0  0  0  0  0  0  0  0  0
    6.9169   -1.8541   24.1229 C   0  0  0  0  0  0  0  0  0  0  0  0
    7.1148    0.3094   24.3658 H   0  0  0  0  0  0  0  0  0  0  0  0
    5.5689   -1.6861   27.7928 H   0  0  0  0  0  0  0  0  0  0  0  0
    5.5378   -3.8501   26.5104 H   0  0  0  0  0  0  0  0  0  0  0  0
    7.9081   -3.4362   21.2688 H   0  0  0  0  0  0  0  0  0  0  0  0
    8.6568   -3.7045   22.8538 H   0  0  0  0  0  0  0  0  0  0  0  0
    8.6000    0.6961   20.8915 H   0  0  0  0  0  0  0  0  0  0  0  0
    8.8149   -0.9087   20.1757 H   0  0  0  0  0  0  0  0  0  0  0  0
    8.5712   -0.1314   23.0913 H   0  0  0  0  0  0  0  0  0  0  0  0
   10.2390   -2.0107   23.3842 H   0  0  0  0  0  0  0  0  0  0  0  0
   10.7913   -0.7758   22.2392 H   0  0  0  0  0  0  0  0  0  0  0  0
   10.1649   -2.3216   21.6445 H   0  0  0  0  0  0  0  0  0  0  0  0
  1  2  1  0
  2  3  1  0
  3  4  1  0
  4  5  1  0
  5  6  2  0
  6  7  1  0
  7  8  2  0
  8  9  1  0
  9 10  2  0
 10 11  1  0
 11 12  2  0
 12 13  1  0
 13 14  2  0
 13 15  1  0
 12 16  1  0
 11 17  1  0
 10 18  1  0
  8 19  1  0
  6 20  1  0
  4 21  1  0
 21 22  2  0
 21 23  1  0
 23 24  1  6
 24 25  1  0
 25 26  1  0
 26 27  1  0
 27 28  3  0
 26 29  1  0
 26 30  1  0
 25 31  1  0
 31 32  2  0
 31 33  1  0
 33 34  2  0
 34 35  1  0
 35 36  2  0
 36 37  1  0
 36 38  1  0
 38 39  2  0
 38 40  1  0
 35 41  1  0
 34 42  1  0
 24 43  1  0
 24 44  1  0
  3 45  1  0
  3 46  1  0
  2 47  1  1
  1 48  1  0
  1 49  1  0
  1 50  1  0
 23  2  1  0
 39 33  1  0
 14  5  1  0
 39 23  1  0
 14  9  1  0
M  END
>  <cnnaffinities>  (6) 
[6.22691, 6.40669, 6.17901, 6.08223, 6.37134]

>  <score>  (6) 
6.22691

>  <index>  (6) 
5

>  <Smiles>  (6) 
C([C@]1(C(N(c2c(nc(c3c(c(c(c(c23)[H])[H])[H])[H])[H])[H])C(=O)[C@]21C(N(C(C#N)([H])[H])C(=O)c1c(c(c(F)c(c21)[H])[H])[H])([H])[H])([H])[H])[H])([H])([H])[H]

>  <h>  (6) 
<NA>

>  <Training>  (6) 
True

>  <Success>  (6) 
True

>  <enamine_searched>  (6) 
False

>  <enamine_id>  (6) 
nan

$$$$

     RDKit          3D

 65 69  0  0  0  0  0  0  0  0999 V2000
    4.1952   -4.9166   26.0180 C   0  0  0  0  0  0  0  0  0  0  0  0
    5.6515   -5.3335   25.7562 C   0  0  0  0  0  0  0  0  0  0  0  0
    6.2693   -4.3443   24.8077 C   0  0  0  0  0  0  0  0  0  0  0  0
    5.9631   -4.2249   23.6607 O   0  0  0  0  0  0  0  0  0  0  0  0
    7.4239   -3.4076   25.4006 N   0  0  1  0  0  4  0  0  0  0  0  0
    8.8012   -3.9029   25.0119 C   0  0  0  0  0  0  0  0  0  0  0  0
    9.1291   -3.5642   23.5742 C   0  0  0  0  0  0  0  0  0  0  0  0
    9.1707   -2.0506   23.4023 C   0  0  0  0  0  0  0  0  0  0  0  0
    7.9850   -1.3607   24.0710 C   0  0  0  0  0  0  0  0  0  0  0  0
    7.6256   -0.0467   23.7421 C   0  0  0  0  0  0  0  0  0  0  0  0
    8.3398    0.6097   22.6977 N   0  0  0  0  0  0  0  0  0  0  0  0
    9.4058    1.5203   23.1122 C   0  0  0  0  0  0  0  0  0  0  0  0
    8.8707    2.8666   23.5581 C   0  0  0  0  0  0  0  0  0  0  0  0
    8.8073    3.2115   24.9099 C   0  0  0  0  0  0  0  0  0  0  0  0
    8.2658    4.4300   25.3111 C   0  0  0  0  0  0  0  0  0  0  0  0
    7.7826    5.3242   24.3601 C   0  0  0  0  0  0  0  0  0  0  0  0
    7.8603    4.9774   23.0150 C   0  0  0  0  0  0  0  0  0  0  0  0
    7.2597    6.0895   21.8142 Cl  0  0  0  0  0  0  0  0  0  0  0  0
    8.3960    3.7636   22.6022 C   0  0  0  0  0  0  0  0  0  0  0  0
    8.4483    3.5126   21.5458 H   0  0  0  0  0  0  0  0  0  0  0  0
    7.3474    6.2777   24.6432 H   0  0  0  0  0  0  0  0  0  0  0  0
    8.2071    4.6793   26.3681 H   0  0  0  0  0  0  0  0  0  0  0  0
    9.1654    2.5025   25.6513 H   0  0  0  0  0  0  0  0  0  0  0  0
   10.0601    1.6299   22.2406 H   0  0  0  0  0  0  0  0  0  0  0  0
    9.9502    1.0482   23.9414 H   0  0  0  0  0  0  0  0  0  0  0  0
    8.0429    0.5350   21.3541 C   0  0  0  0  0  0  0  0  0  0  0  0
    8.6738    1.1795   20.5285 O   0  0  0  0  0  0  0  0  0  0  0  0
    6.9425   -0.4440   20.9023 C   0  0  0  0  0  0  0  0  0  0  0  0
    6.1072    0.0896   19.7678 C   0  0  0  0  0  0  0  0  0  0  0  0
    6.4247   -0.2102   18.4690 C   0  0  0  0  0  0  0  0  0  0  0  0
    5.7612    0.2401   17.3689 N   0  0  0  0  0  0  0  0  0  0  0  0
    4.7360    1.0283   17.5784 C   0  0  0  0  0  0  0  0  0  0  0  0
    4.2860    1.4244   18.8663 C   0  0  0  0  0  0  0  0  0  0  0  0
    3.1766    2.2880   19.0397 C   0  0  0  0  0  0  0  0  0  0  0  0
    2.7818    2.6644   20.2934 C   0  0  0  0  0  0  0  0  0  0  0  0
    3.4816    2.1972   21.4290 C   0  0  0  0  0  0  0  0  0  0  0  0
    4.5588    1.3578   21.2894 C   0  0  0  0  0  0  0  0  0  0  0  0
    4.9897    0.9467   19.9988 C   0  0  0  0  0  0  0  0  0  0  0  0
    5.0868    1.0089   22.1751 H   0  0  0  0  0  0  0  0  0  0  0  0
    3.1615    2.5073   22.4199 H   0  0  0  0  0  0  0  0  0  0  0  0
    1.9353    3.3303   20.4260 H   0  0  0  0  0  0  0  0  0  0  0  0
    2.6605    2.6469   18.1525 H   0  0  0  0  0  0  0  0  0  0  0  0
    4.2040    1.3916   16.6976 H   0  0  0  0  0  0  0  0  0  0  0  0
    7.2712   -0.8580   18.2429 H   0  0  0  0  0  0  0  0  0  0  0  0
    6.3334   -0.7525   21.7592 H   0  0  0  0  0  0  0  0  0  0  0  0
    7.4635   -1.3469   20.5514 H   0  0  0  0  0  0  0  0  0  0  0  0
    6.6146    0.6310   24.4188 C   0  0  0  0  0  0  0  0  0  0  0  0
    5.9014    0.0008   25.4385 C   0  0  0  0  0  0  0  0  0  0  0  0
    6.2164   -1.3121   25.7571 C   0  0  0  0  0  0  0  0  0  0  0  0
    7.2370   -1.9746   25.0743 C   0  0  0  0  0  0  0  0  0  0  0  0
    5.6803   -1.8618   26.5257 H   0  0  0  0  0  0  0  0  0  0  0  0
    5.1135    0.5263   25.9721 H   0  0  0  0  0  0  0  0  0  0  0  0
    6.4145    1.6637   24.1406 H   0  0  0  0  0  0  0  0  0  0  0  0
    9.2120   -1.7727   22.3419 H   0  0  0  0  0  0  0  0  0  0  0  0
   10.0975   -1.6735   23.8612 H   0  0  0  0  0  0  0  0  0  0  0  0
   10.0920   -4.0119   23.3085 H   0  0  0  0  0  0  0  0  0  0  0  0
    8.3626   -4.0094   22.9322 H   0  0  0  0  0  0  0  0  0  0  0  0
    9.5543   -3.4873   25.6937 H   0  0  0  0  0  0  0  0  0  0  0  0
    8.7163   -4.9516   25.1271 H   0  0  0  0  0  0  0  0  0  0  0  0
    7.3156   -3.4985   26.4273 H   0  0  0  0  0  0  0  0  0  0  0  0
    5.6983   -6.3042   25.2543 H   0  0  0  0  0  0  0  0  0  0  0  0
    6.2459   -5.4050   26.6728 H   0  0  0  0  0  0  0  0  0  0  0  0
    4.1659   -3.9405   26.5158 H   0  0  0  0  0  0  0  0  0  0  0  0
    3.6571   -5.6408   26.6360 H   0  0  0  0  0  0  0  0  0  0  0  0
    3.6752   -4.8122   25.0613 H   0  0  0  0  0  0  0  0  0  0  0  0
  1  2  1  0
  2  3  1  0
  3  4  2  0
  3  5  1  0
  5  6  1  0
  6  7  1  0
  7  8  1  0
  8  9  1  0
  9 10  2  0
 10 11  1  0
 11 12  1  0
 12 13  1  0
 13 14  2  0
 14 15  1  0
 15 16  2  0
 16 17  1  0
 17 18  1  0
 17 19  2  0
 19 20  1  0
 16 21  1  0
 15 22  1  0
 14 23  1  0
 12 24  1  0
 12 25  1  0
 11 26  1  0
 26 27  2  0
 26 28  1  0
 28 29  1  0
 29 30  2  0
 30 31  1  0
 31 32  2  0
 32 33  1  0
 33 34  2  0
 34 35  1  0
 35 36  2  0
 36 37  1  0
 37 38  2  0
 37 39  1  0
 36 40  1  0
 35 41  1  0
 34 42  1  0
 32 43  1  0
 30 44  1  0
 28 45  1  0
 28 46  1  0
 10 47  1  0
 47 48  2  0
 48 49  1  0
 49 50  2  0
 49 51  1  0
 48 52  1  0
 47 53  1  0
  8 54  1  0
  8 55  1  0
  7 56  1  0
  7 57  1  0
  6 58  1  0
  6 59  1  0
  5 60  1  1
  2 61  1  0
  2 62  1  0
  1 63  1  0
  1 64  1  0
  1 65  1  0
 50  5  1  0
 50  9  1  0
 19 13  1  0
 38 29  1  0
 38 33  1  0
M  CHG  1   5   1
M  END
>  <cnnaffinities>  (7) 
[6.62071]

>  <score>  (7) 
6.62071

>  <index>  (7) 
6

>  <Smiles>  (7) 
C(C(C(=O)[N@+]1(C(C(C(c2c(N(C(c3c(c(c(c(Cl)c3[H])[H])[H])[H])([H])[H])C(=O)C(c3c(nc(c4c(c(c(c(c34)[H])[H])[H])[H])[H])[H])([H])[H])c(c(c(c12)[H])[H])[H])([H])[H])([H])[H])([H])[H])[H])([H])[H])([H])([H])[H]

>  <h>  (7) 
<NA>

>  <Training>  (7) 
True

>  <Success>  (7) 
True

>  <enamine_searched>  (7) 
False

>  <enamine_id>  (7) 
nan

$$$$

     RDKit          3D

 37 39  0  0  0  0  0  0  0  0999 V2000
    8.1776    1.6813   20.8524 O   0  0  0  0  0  0  0  0  0  0  0  0
    8.1745    0.5346   21.2725 C   0  0  0  0  0  0  0  0  0  0  0  0
    7.0411   -0.4383   20.8971 C   0  0  0  0  0  0  0  0  0  0  0  0
    6.1660    0.0784   19.7866 C   0  0  0  0  0  0  0  0  0  0  0  0
    6.4744   -0.2312   18.4885 C   0  0  0  0  0  0  0  0  0  0  0  0
    5.8099    0.2037   17.3836 N   0  0  0  0  0  0  0  0  0  0  0  0
    4.7843    0.9914   17.5939 C   0  0  0  0  0  0  0  0  0  0  0  0
    4.3385    1.3999   18.8788 C   0  0  0  0  0  0  0  0  0  0  0  0
    3.2161    2.2511   19.0449 C   0  0  0  0  0  0  0  0  0  0  0  0
    2.8068    2.6177   20.2952 C   0  0  0  0  0  0  0  0  0  0  0  0
    3.5051    2.1606   21.4311 C   0  0  0  0  0  0  0  0  0  0  0  0
    4.6061    1.3509   21.2990 C   0  0  0  0  0  0  0  0  0  0  0  0
    5.0482    0.9380   20.0143 C   0  0  0  0  0  0  0  0  0  0  0  0
    5.1450    1.0246   22.1824 H   0  0  0  0  0  0  0  0  0  0  0  0
    3.1658    2.4601   22.4199 H   0  0  0  0  0  0  0  0  0  0  0  0
    1.9482    3.2740   20.4197 H   0  0  0  0  0  0  0  0  0  0  0  0
    2.6966    2.6052   18.1573 H   0  0  0  0  0  0  0  0  0  0  0  0
    4.2445    1.3524   16.7171 H   0  0  0  0  0  0  0  0  0  0  0  0
    7.3253   -0.8825   18.2885 H   0  0  0  0  0  0  0  0  0  0  0  0
    7.5152   -1.3738   20.5659 H   0  0  0  0  0  0  0  0  0  0  0  0
    6.4514   -0.6651   21.7973 H   0  0  0  0  0  0  0  0  0  0  0  0
    9.1673    0.0333   22.0826 N   0  0  0  0  0  0  0  0  0  0  0  0
   10.3009    0.8797   22.4447 C   0  0  0  0  0  0  0  0  0  0  0  0
   11.5852    0.0925   22.1711 C   0  0  0  0  0  0  0  0  0  0  0  0
   11.6717   -1.1194   23.0893 C   0  0  0  0  0  0  0  0  0  0  0  0
   10.4563   -1.9861   22.7405 C   0  0  0  0  0  0  0  0  0  0  0  0
    9.1450   -1.1972   22.8869 C   0  0  0  0  0  0  0  0  0  0  0  0
    9.0033   -0.9054   23.9399 H   0  0  0  0  0  0  0  0  0  0  0  0
    8.2968   -1.8395   22.6395 H   0  0  0  0  0  0  0  0  0  0  0  0
   10.5678   -2.2921   21.6891 H   0  0  0  0  0  0  0  0  0  0  0  0
   10.4161   -2.9035   23.3373 H   0  0  0  0  0  0  0  0  0  0  0  0
   11.6721   -0.8090   24.1437 H   0  0  0  0  0  0  0  0  0  0  0  0
   12.6144   -1.6551   22.9184 H   0  0  0  0  0  0  0  0  0  0  0  0
   12.4493    0.7578   22.2168 H   0  0  0  0  0  0  0  0  0  0  0  0
   11.5563   -0.3411   21.1611 H   0  0  0  0  0  0  0  0  0  0  0  0
   10.2151    1.1349   23.5188 H   0  0  0  0  0  0  0  0  0  0  0  0
   10.2505    1.8221   21.8970 H   0  0  0  0  0  0  0  0  0  0  0  0
  1  2  2  0
  2  3  1  0
  3  4  1  0
  4  5  2  0
  5  6  1  0
  6  7  2  0
  7  8  1  0
  8  9  2  0
  9 10  1  0
 10 11  2  0
 11 12  1  0
 12 13  2  0
 12 14  1  0
 11 15  1  0
 10 16  1  0
  9 17  1  0
  7 18  1  0
  5 19  1  0
  3 20  1  0
  3 21  1  0
  2 22  1  0
 22 23  1  0
 23 24  1  0
 24 25  1  0
 25 26  1  0
 26 27  1  0
 27 28  1  0
 27 29  1  0
 26 30  1  0
 26 31  1  0
 25 32  1  0
 25 33  1  0
 24 34  1  0
 24 35  1  0
 23 36  1  0
 23 37  1  0
 13  4  1  0
 27 22  1  0
 13  8  1  0
M  END
>  <cnnaffinities>  (8) 
[5.188, 5.19672]

>  <score>  (8) 
5.188

>  <index>  (8) 
7

>  <Smiles>  (8) 
O=C(C(c1c(nc(c2c(c(c(c(c12)[H])[H])[H])[H])[H])[H])([H])[H])N1C(C(C(C(C1([H])[H])([H])[H])([H])[H])([H])[H])([H])[H]

>  <h>  (8) 
<NA>

>  <Training>  (8) 
True

>  <Success>  (8) 
True

>  <enamine_searched>  (8) 
False

>  <enamine_id>  (8) 
nan

$$$$

     RDKit          3D

 66 71  0  0  0  0  0  0  0  0999 V2000
    7.7644   -3.0063   23.3191 C   0  0  0  0  0  0  0  0  0  0  0  0
    8.0373   -1.9128   22.2773 C   0  0  1  0  0  0  0  0  0  0  0  0
    6.9153   -1.8044   21.2245 C   0  0  0  0  0  0  0  0  0  0  0  0
    6.9316   -0.4106   20.8244 N   0  0  0  0  0  0  0  0  0  0  0  0
    6.1414    0.1057   19.7666 C   0  0  0  0  0  0  0  0  0  0  0  0
    6.4433   -0.2237   18.4696 C   0  0  0  0  0  0  0  0  0  0  0  0
    5.7673    0.2230   17.3826 N   0  0  0  0  0  0  0  0  0  0  0  0
    4.7464    1.0185   17.5939 C   0  0  0  0  0  0  0  0  0  0  0  0
    4.2971    1.4158   18.8846 C   0  0  0  0  0  0  0  0  0  0  0  0
    3.1700    2.2662   19.0572 C   0  0  0  0  0  0  0  0  0  0  0  0
    2.7419    2.6084   20.3103 C   0  0  0  0  0  0  0  0  0  0  0  0
    3.4150    2.1072   21.4483 C   0  0  0  0  0  0  0  0  0  0  0  0
    4.5064    1.2885   21.3053 C   0  0  0  0  0  0  0  0  0  0  0  0
    4.9976    0.9369   20.0144 C   0  0  0  0  0  0  0  0  0  0  0  0
    5.0190    0.9133   22.1870 H   0  0  0  0  0  0  0  0  0  0  0  0
    3.0712    2.3870   22.4396 H   0  0  0  0  0  0  0  0  0  0  0  0
    1.8879    3.2681   20.4386 H   0  0  0  0  0  0  0  0  0  0  0  0
    2.6636    2.6391   18.1702 H   0  0  0  0  0  0  0  0  0  0  0  0
    4.2189    1.3846   16.7137 H   0  0  0  0  0  0  0  0  0  0  0  0
    7.2875   -0.8789   18.2603 H   0  0  0  0  0  0  0  0  0  0  0  0
    7.6392    0.4063   21.6770 C   0  0  0  0  0  0  0  0  0  0  0  0
    7.7446    1.6059   21.5451 O   0  0  0  0  0  0  0  0  0  0  0  0
    8.2361   -0.4619   22.8123 C   0  0  1  0  0  0  0  0  0  0  0  0
    7.4278   -0.2149   24.1160 C   0  0  0  0  0  0  0  0  0  0  0  0
    7.6530    1.1194   24.6228 N   0  0  0  0  0  0  0  0  0  0  0  0
    6.5462    1.8971   25.1355 C   0  0  0  0  0  0  0  0  0  0  0  0
    6.0088    1.4067   26.4837 C   0  0  0  0  0  0  0  0  0  0  0  0
    5.1240    0.5583   26.5362 O   0  0  0  0  0  0  0  0  0  0  0  0
    6.5463    2.0011   27.5798 N   0  0  0  0  0  0  0  0  0  0  0  0
    6.1400    1.6338   28.9325 C   0  0  0  0  0  0  0  0  0  0  0  0
    5.5024    2.7710   29.6775 C   0  0  0  0  0  0  0  0  0  0  0  0
    6.0455    3.6454   30.5951 C   0  0  0  0  0  0  0  0  0  0  0  0
    5.0180    4.5721   30.8592 C   0  0  0  0  0  0  0  0  0  0  0  0
    3.9232    4.2938   30.1626 N   0  0  0  0  0  0  0  0  0  0  0  0
    4.2315    3.1950   29.4522 N   0  0  0  0  0  0  0  0  0  0  0  0
    3.2611    2.6304   28.5325 C   0  0  0  0  0  0  0  0  0  0  0  0
    2.3059    3.1115   28.7529 H   0  0  0  0  0  0  0  0  0  0  0  0
    3.5548    2.8259   27.4941 H   0  0  0  0  0  0  0  0  0  0  0  0
    3.1843    1.5473   28.6822 H   0  0  0  0  0  0  0  0  0  0  0  0
    5.0249    5.4430   31.5062 H   0  0  0  0  0  0  0  0  0  0  0  0
    7.0586    3.6096   30.9751 H   0  0  0  0  0  0  0  0  0  0  0  0
    5.4641    0.7745   28.8423 H   0  0  0  0  0  0  0  0  0  0  0  0
    7.0204    1.3135   29.4970 H   0  0  0  0  0  0  0  0  0  0  0  0
    7.2856    2.6839   27.4548 H   0  0  0  0  0  0  0  0  0  0  0  0
    5.7154    1.8189   24.4284 H   0  0  0  0  0  0  0  0  0  0  0  0
    6.8834    2.9365   25.1806 H   0  0  0  0  0  0  0  0  0  0  0  0
    8.9189    1.5677   24.8431 C   0  0  0  0  0  0  0  0  0  0  0  0
    9.1338    2.5086   25.5957 O   0  0  0  0  0  0  0  0  0  0  0  0
    9.9949    0.8694   24.0575 C   0  0  0  0  0  0  0  0  0  0  0  0
   11.3138    1.2396   24.2896 C   0  0  0  0  0  0  0  0  0  0  0  0
   12.3317    0.7843   23.4718 C   0  0  0  0  0  0  0  0  0  0  0  0
   12.0204   -0.0485   22.3913 C   0  0  0  0  0  0  0  0  0  0  0  0
   10.7074   -0.4460   22.1812 C   0  0  0  0  0  0  0  0  0  0  0  0
    9.6795   -0.0468   23.0481 C   0  0  0  0  0  0  0  0  0  0  0  0
   10.4803   -1.0562   21.3092 H   0  0  0  0  0  0  0  0  0  0  0  0
   12.8049   -0.3959   21.7193 H   0  0  0  0  0  0  0  0  0  0  0  0
   13.3592    1.0898   23.6452 H   0  0  0  0  0  0  0  0  0  0  0  0
   11.4556    1.9153   25.1165 H   0  0  0  0  0  0  0  0  0  0  0  0
    6.3530   -0.3216   23.9318 H   0  0  0  0  0  0  0  0  0  0  0  0
    7.7304   -0.9499   24.8794 H   0  0  0  0  0  0  0  0  0  0  0  0
    5.9405   -2.0860   21.6525 H   0  0  0  0  0  0  0  0  0  0  0  0
    7.0875   -2.4436   20.3552 H   0  0  0  0  0  0  0  0  0  0  0  0
    8.9641   -2.1684   21.7570 H   0  0  0  0  0  0  0  0  0  0  0  0
    7.7167   -3.9936   22.8438 H   0  0  0  0  0  0  0  0  0  0  0  0
    6.8053   -2.8408   23.8272 H   0  0  0  0  0  0  0  0  0  0  0  0
    8.5442   -3.0456   24.0900 H   0  0  0  0  0  0  0  0  0  0  0  0
  1  2  1  0
  2  3  1  0
  3  4  1  0
  4  5  1  0
  5  6  2  0
  6  7  1  0
  7  8  2  0
  8  9  1  0
  9 10  2  0
 10 11  1  0
 11 12  2  0
 12 13  1  0
 13 14  2  0
 13 15  1  0
 12 16  1  0
 11 17  1  0
 10 18  1  0
  8 19  1  0
  6 20  1  0
  4 21  1  0
 21 22  2  0
 21 23  1  0
 23 24  1  1
 24 25  1  0
 25 26  1  0
 26 27  1  0
 27 28  2  0
 27 29  1  0
 29 30  1  0
 30 31  1  0
 31 32  2  0
 32 33  1  0
 33 34  2  0
 34 35  1  0
 35 36  1  0
 36 37  1  0
 36 38  1  0
 36 39  1  0
 33 40  1  0
 32 41  1  0
 30 42  1  0
 30 43  1  0
 29 44  1  0
 26 45  1  0
 26 46  1  0
 25 47  1  0
 47 48  2  0
 47 49  1  0
 49 50  2  0
 50 51  1  0
 51 52  2  0
 52 53  1  0
 53 54  2  0
 53 55  1  0
 52 56  1  0
 51 57  1  0
 50 58  1  0
 24 59  1  0
 24 60  1  0
  3 61  1  0
  3 62  1  0
  2 63  1  6
  1 64  1  0
  1 65  1  0
  1 66  1  0
 23  2  1  0
 35 31  1  0
 54 49  1  0
 14  5  1  0
 54 23  1  0
 14  9  1  0
M  END
>  <cnnaffinities>  (9) 
[6.68135, 6.59697, 6.74483]

>  <score>  (9) 
6.68135

>  <index>  (9) 
8

>  <Smiles>  (9) 
C([C@]1(C(N(c2c(nc(c3c(c(c(c(c23)[H])[H])[H])[H])[H])[H])C(=O)[C@]21C(N(C(C(=O)N(C(c1c(c(nn1C([H])([H])[H])[H])[H])([H])[H])[H])([H])[H])C(=O)c1c(c(c(c(c21)[H])[H])[H])[H])([H])[H])([H])[H])[H])([H])([H])[H]

>  <h>  (9) 
<NA>

>  <Training>  (9) 
True

>  <Success>  (9) 
True

>  <enamine_searched>  (9) 
False

>  <enamine_id>  (9) 
nan

$$$$

     RDKit          3D

 58 63  0  0  0  0  0  0  0  0999 V2000
    5.4537    5.0328   21.9974 C   0  0  0  0  0  0  0  0  0  0  0  0
    6.0426    4.1956   23.0905 C   0  0  0  0  0  0  0  0  0  0  0  0
    7.4271    4.0008   23.3436 C   0  0  0  0  0  0  0  0  0  0  0  0
    7.4526    3.1016   24.3559 C   0  0  0  0  0  0  0  0  0  0  0  0
    8.5786    2.3770   25.0307 C   0  0  0  0  0  0  0  0  0  0  0  0
    9.2152    1.4140   24.1536 N   0  0  0  0  0  0  0  0  0  0  0  0
    8.5836    0.1233   23.9618 C   0  0  0  0  0  0  0  0  0  0  0  0
    8.6528   -0.3694   22.5085 C   0  0  2  0  0  0  0  0  0  0  0  0
    7.7869    0.4817   21.5487 C   0  0  0  0  0  0  0  0  0  0  0  0
    7.8568    1.6774   21.3672 O   0  0  0  0  0  0  0  0  0  0  0  0
    6.9003   -0.3448   20.8858 N   0  0  0  0  0  0  0  0  0  0  0  0
    6.1307    0.1131   19.7869 C   0  0  0  0  0  0  0  0  0  0  0  0
    6.4473   -0.2320   18.4950 C   0  0  0  0  0  0  0  0  0  0  0  0
    5.7841    0.2134   17.3962 N   0  0  0  0  0  0  0  0  0  0  0  0
    4.7609    1.0100   17.5925 C   0  0  0  0  0  0  0  0  0  0  0  0
    4.3023    1.4136   18.8785 C   0  0  0  0  0  0  0  0  0  0  0  0
    3.1778    2.2646   19.0464 C   0  0  0  0  0  0  0  0  0  0  0  0
    2.7449    2.6082   20.2982 C   0  0  0  0  0  0  0  0  0  0  0  0
    3.4108    2.1170   21.4450 C   0  0  0  0  0  0  0  0  0  0  0  0
    4.5051    1.2972   21.3115 C   0  0  0  0  0  0  0  0  0  0  0  0
    4.9893    0.9422   20.0204 C   0  0  0  0  0  0  0  0  0  0  0  0
    5.0087    0.8950   22.1864 H   0  0  0  0  0  0  0  0  0  0  0  0
    3.0614    2.3984   22.4356 H   0  0  0  0  0  0  0  0  0  0  0  0
    1.8838    3.2627   20.4188 H   0  0  0  0  0  0  0  0  0  0  0  0
    2.6726    2.6362   18.1593 H   0  0  0  0  0  0  0  0  0  0  0  0
    4.2291    1.3705   16.7107 H   0  0  0  0  0  0  0  0  0  0  0  0
    7.3034   -0.8755   18.2851 H   0  0  0  0  0  0  0  0  0  0  0  0
    7.1981   -1.7444   21.0641 C   0  0  0  0  0  0  0  0  0  0  0  0
    8.0585   -1.8035   22.3417 C   0  0  2  0  0  0  0  0  0  0  0  0
    7.2419   -2.3468   23.5220 C   0  0  0  0  0  0  0  0  0  0  0  0
    6.8814   -3.3554   23.2933 H   0  0  0  0  0  0  0  0  0  0  0  0
    7.8463   -2.4287   24.4301 H   0  0  0  0  0  0  0  0  0  0  0  0
    6.3688   -1.7230   23.7437 H   0  0  0  0  0  0  0  0  0  0  0  0
    8.8798   -2.5120   22.2093 H   0  0  0  0  0  0  0  0  0  0  0  0
    7.7450   -2.1214   20.1977 H   0  0  0  0  0  0  0  0  0  0  0  0
    6.2705   -2.3199   21.1533 H   0  0  0  0  0  0  0  0  0  0  0  0
   10.1289   -0.2693   22.1359 C   0  0  0  0  0  0  0  0  0  0  0  0
   10.6832   -1.1281   21.1905 C   0  0  0  0  0  0  0  0  0  0  0  0
   12.0177   -1.0021   20.8541 C   0  0  0  0  0  0  0  0  0  0  0  0
   12.5392   -1.9076   20.0102 F   0  0  0  0  0  0  0  0  0  0  0  0
   12.8249    0.0459   21.2949 C   0  0  0  0  0  0  0  0  0  0  0  0
   12.2540    0.9383   22.1823 C   0  0  0  0  0  0  0  0  0  0  0  0
   10.9508    0.7532   22.6345 C   0  0  0  0  0  0  0  0  0  0  0  0
   10.4259    1.7402   23.6159 C   0  0  0  0  0  0  0  0  0  0  0  0
   11.0161    2.7750   23.9103 O   0  0  0  0  0  0  0  0  0  0  0  0
   12.7862    1.7936   22.5819 H   0  0  0  0  0  0  0  0  0  0  0  0
   13.8375    0.1567   20.9214 H   0  0  0  0  0  0  0  0  0  0  0  0
   10.0923   -1.8915   20.6979 H   0  0  0  0  0  0  0  0  0  0  0  0
    7.5482    0.2112   24.2900 H   0  0  0  0  0  0  0  0  0  0  0  0
    9.0941   -0.6310   24.5746 H   0  0  0  0  0  0  0  0  0  0  0  0
    9.3798    3.0752   25.2905 H   0  0  0  0  0  0  0  0  0  0  0  0
    8.2232    1.8652   25.9302 H   0  0  0  0  0  0  0  0  0  0  0  0
    6.1984    2.8101   24.7334 O   0  0  0  0  0  0  0  0  0  0  0  0
    5.3051    3.5045   23.9368 N   0  0  0  0  0  0  0  0  0  0  0  0
    8.2621    4.4252   22.8032 H   0  0  0  0  0  0  0  0  0  0  0  0
    6.0375    5.9481   21.8653 H   0  0  0  0  0  0  0  0  0  0  0  0
    4.4147    5.3054   22.1944 H   0  0  0  0  0  0  0  0  0  0  0  0
    5.4823    4.4831   21.0492 H   0  0  0  0  0  0  0  0  0  0  0  0
  1  2  1  0
  2  3  1  0
  3  4  2  0
  4  5  1  0
  5  6  1  0
  6  7  1  0
  8  7  1  1
  8  9  1  0
  9 10  2  0
  9 11  1  0
 11 12  1  0
 12 13  2  0
 13 14  1  0
 14 15  2  0
 15 16  1  0
 16 17  2  0
 17 18  1  0
 18 19  2  0
 19 20  1  0
 20 21  2  0
 20 22  1  0
 19 23  1  0
 18 24  1  0
 17 25  1  0
 15 26  1  0
 13 27  1  0
 11 28  1  0
 28 29  1  0
 29 30  1  0
 30 31  1  0
 30 32  1  0
 30 33  1  0
 29 34  1  6
 28 35  1  0
 28 36  1  0
  8 37  1  0
 37 38  2  0
 38 39  1  0
 39 40  1  0
 39 41  2  0
 41 42  1  0
 42 43  2  0
 43 44  1  0
 44 45  2  0
 42 46  1  0
 41 47  1  0
 38 48  1  0
  7 49  1  0
  7 50  1  0
  5 51  1  0
  5 52  1  0
  4 53  1  0
 53 54  1  0
  3 55  1  0
  1 56  1  0
  1 57  1  0
  1 58  1  0
 54  2  2  0
 44  6  1  0
 29  8  1  0
 43 37  1  0
 21 12  1  0
 21 16  1  0
M  END
>  <cnnaffinities>  (10) 
[6.79045]

>  <score>  (10) 
6.79045

>  <index>  (10) 
9

>  <Smiles>  (10) 
C(c1c(c(C(N2C([C@@]3(C(=O)N(c4c(nc(c5c(c(c(c(c45)[H])[H])[H])[H])[H])[H])C([C@@]3(C([H])([H])[H])[H])([H])[H])c3c(c(F)c(c(c3C2=O)[H])[H])[H])([H])[H])([H])[H])on1)[H])([H])([H])[H]

>  <h>  (10) 
<NA>

>  <Training>  (10) 
True

>  <Success>  (10) 
True

>  <enamine_searched>  (10) 
False

>  <enamine_id>  (10) 
nan

$$$$

     RDKit          3D

 72 77  0  0  0  0  0  0  0  0999 V2000
    5.8791    5.1841   21.4962 C   0  0  0  0  0  0  0  0  0  0  0  0
    5.4051    5.9037   22.7642 C   0  0  1  0  0  0  0  0  0  0  0  0
    5.1160    4.9794   23.9527 C   0  0  0  0  0  0  0  0  0  0  0  0
    6.3482    4.5191   24.6966 N   0  0  0  0  0  4  0  0  0  0  0  0
    7.1067    3.3830   24.0507 C   0  0  0  0  0  0  0  0  0  0  0  0
    7.7627    2.4544   25.0806 C   0  0  0  0  0  0  0  0  0  0  0  0
    8.6047    1.4505   24.4348 N   0  0  0  0  0  0  0  0  0  0  0  0
    8.0727    0.1330   24.1550 C   0  0  0  0  0  0  0  0  0  0  0  0
    8.4011   -0.3667   22.7238 C   0  0  2  0  0  0  0  0  0  0  0  0
    7.6462    0.4663   21.6609 C   0  0  0  0  0  0  0  0  0  0  0  0
    7.6998    1.6744   21.5191 O   0  0  0  0  0  0  0  0  0  0  0  0
    6.9024   -0.3698   20.8676 N   0  0  0  0  0  0  0  0  0  0  0  0
    6.1365    0.1116   19.7772 C   0  0  0  0  0  0  0  0  0  0  0  0
    6.4431   -0.2248   18.4807 C   0  0  0  0  0  0  0  0  0  0  0  0
    5.7678    0.2220   17.3937 N   0  0  0  0  0  0  0  0  0  0  0  0
    4.7480    1.0205   17.5948 C   0  0  0  0  0  0  0  0  0  0  0  0
    4.2970    1.4238   18.8845 C   0  0  0  0  0  0  0  0  0  0  0  0
    3.1671    2.2711   19.0570 C   0  0  0  0  0  0  0  0  0  0  0  0
    2.7365    2.6048   20.3130 C   0  0  0  0  0  0  0  0  0  0  0  0
    3.4121    2.1063   21.4485 C   0  0  0  0  0  0  0  0  0  0  0  0
    4.5113    1.2986   21.3066 C   0  0  0  0  0  0  0  0  0  0  0  0
    4.9986    0.9504   20.0131 C   0  0  0  0  0  0  0  0  0  0  0  0
    5.0253    0.9136   22.1804 H   0  0  0  0  0  0  0  0  0  0  0  0
    3.0575    2.3726   22.4425 H   0  0  0  0  0  0  0  0  0  0  0  0
    1.8781    3.2588   20.4457 H   0  0  0  0  0  0  0  0  0  0  0  0
    2.6579    2.6433   18.1733 H   0  0  0  0  0  0  0  0  0  0  0  0
    4.2198    1.3842   16.7141 H   0  0  0  0  0  0  0  0  0  0  0  0
    7.2902   -0.8721   18.2535 H   0  0  0  0  0  0  0  0  0  0  0  0
    7.2061   -1.7712   21.0728 C   0  0  0  0  0  0  0  0  0  0  0  0
    7.8959   -1.8254   22.4577 C   0  0  2  0  0  0  0  0  0  0  0  0
    6.9430   -2.4309   23.5050 C   0  0  0  0  0  0  0  0  0  0  0  0
    7.4092   -2.5053   24.4927 H   0  0  0  0  0  0  0  0  0  0  0  0
    6.0226   -1.8443   23.6092 H   0  0  0  0  0  0  0  0  0  0  0  0
    6.6522   -3.4482   23.2098 H   0  0  0  0  0  0  0  0  0  0  0  0
    8.7637   -2.4934   22.4177 H   0  0  0  0  0  0  0  0  0  0  0  0
    7.8712   -2.1406   20.2887 H   0  0  0  0  0  0  0  0  0  0  0  0
    6.2855   -2.3628   21.0437 H   0  0  0  0  0  0  0  0  0  0  0  0
    9.8960   -0.1740   22.5003 C   0  0  0  0  0  0  0  0  0  0  0  0
   10.5675   -0.9183   21.5236 C   0  0  0  0  0  0  0  0  0  0  0  0
   11.9123   -0.6938   21.2877 C   0  0  0  0  0  0  0  0  0  0  0  0
   12.7371   -1.6140   20.0653 Cl  0  0  0  0  0  0  0  0  0  0  0  0
   12.6155    0.2924   21.9730 C   0  0  0  0  0  0  0  0  0  0  0  0
   11.9400    1.0642   22.8978 C   0  0  0  0  0  0  0  0  0  0  0  0
   10.5877    0.8494   23.1587 C   0  0  0  0  0  0  0  0  0  0  0  0
    9.8846    1.7869   24.1131 C   0  0  0  0  0  0  0  0  0  0  0  0
   10.4137    2.8028   24.5435 O   0  0  0  0  0  0  0  0  0  0  0  0
   12.4499    1.8558   23.4293 H   0  0  0  0  0  0  0  0  0  0  0  0
   13.6659    0.4505   21.7507 H   0  0  0  0  0  0  0  0  0  0  0  0
   10.0550   -1.6526   20.9086 H   0  0  0  0  0  0  0  0  0  0  0  0
    6.9941    0.1880   24.2848 H   0  0  0  0  0  0  0  0  0  0  0  0
    8.4761   -0.5959   24.8757 H   0  0  0  0  0  0  0  0  0  0  0  0
    6.9860    1.9398   25.6562 H   0  0  0  0  0  0  0  0  0  0  0  0
    8.3859    3.0224   25.7781 H   0  0  0  0  0  0  0  0  0  0  0  0
    7.8872    3.8041   23.4197 H   0  0  0  0  0  0  0  0  0  0  0  0
    6.4127    2.8154   23.4211 H   0  0  0  0  0  0  0  0  0  0  0  0
    7.2227    5.7261   24.9843 C   0  0  0  0  0  0  0  0  0  0  0  0
    7.4879    6.5516   23.7271 C   0  0  2  0  0  0  0  0  0  0  0  0
    8.3114    7.7867   24.0508 C   0  0  0  0  0  0  0  0  0  0  0  0
    9.2722    7.4981   24.4947 H   0  0  0  0  0  0  0  0  0  0  0  0
    8.5144    8.3762   23.1503 H   0  0  0  0  0  0  0  0  0  0  0  0
    7.7803    8.4231   24.7682 H   0  0  0  0  0  0  0  0  0  0  0  0
    6.2575    6.9751   23.1564 O   0  0  0  0  0  0  0  0  0  0  0  0
    8.0403    5.9265   23.0068 H   0  0  0  0  0  0  0  0  0  0  0  0
    6.7153    6.3626   25.7134 H   0  0  0  0  0  0  0  0  0  0  0  0
    8.1723    5.3844   25.4092 H   0  0  0  0  0  0  0  0  0  0  0  0
    6.0244    4.1639   25.6114 H   0  0  0  0  0  0  0  0  0  0  0  0
    4.4897    5.5188   24.6644 H   0  0  0  0  0  0  0  0  0  0  0  0
    4.5749    4.0931   23.6063 H   0  0  0  0  0  0  0  0  0  0  0  0
    4.4625    6.4073   22.5166 H   0  0  0  0  0  0  0  0  0  0  0  0
    6.8273    4.6494   21.6283 H   0  0  0  0  0  0  0  0  0  0  0  0
    6.0081    5.9164   20.6908 H   0  0  0  0  0  0  0  0  0  0  0  0
    5.1390    4.4364   21.1766 H   0  0  0  0  0  0  0  0  0  0  0  0
  1  2  1  0
  2  3  1  0
  3  4  1  0
  4  5  1  0
  5  6  1  0
  6  7  1  0
  7  8  1  0
  9  8  1  1
  9 10  1  0
 10 11  2  0
 10 12  1  0
 12 13  1  0
 13 14  2  0
 14 15  1  0
 15 16  2  0
 16 17  1  0
 17 18  2  0
 18 19  1  0
 19 20  2  0
 20 21  1  0
 21 22  2  0
 21 23  1  0
 20 24  1  0
 19 25  1  0
 18 26  1  0
 16 27  1  0
 14 28  1  0
 12 29  1  0
 29 30  1  0
 30 31  1  0
 31 32  1  0
 31 33  1  0
 31 34  1  0
 30 35  1  6
 29 36  1  0
 29 37  1  0
  9 38  1  0
 38 39  2  0
 39 40  1  0
 40 41  1  0
 40 42  2  0
 42 43  1  0
 43 44  2  0
 44 45  1  0
 45 46  2  0
 43 47  1  0
 42 48  1  0
 39 49  1  0
  8 50  1  0
  8 51  1  0
  6 52  1  0
  6 53  1  0
  5 54  1  0
  5 55  1  0
  4 56  1  0
 56 57  1  0
 57 58  1  0
 58 59  1  0
 58 60  1  0
 58 61  1  0
 57 62  1  0
 57 63  1  6
 56 64  1  0
 56 65  1  0
  4 66  1  0
  3 67  1  0
  3 68  1  0
  2 69  1  6
  1 70  1  0
  1 71  1  0
  1 72  1  0
 62  2  1  0
 45  7  1  0
 30  9  1  0
 44 38  1  0
 22 13  1  0
 22 17  1  0
M  CHG  1   4   1
M  END
>  <cnnaffinities>  (11) 
[6.80653]

>  <score>  (11) 
6.80653

>  <index>  (11) 
10

>  <Smiles>  (11) 
C([C@]1(C([N+](C(C(N2C([C@@]3(C(=O)N(c4c(nc(c5c(c(c(c(c45)[H])[H])[H])[H])[H])[H])C([C@@]3(C([H])([H])[H])[H])([H])[H])c3c(c(Cl)c(c(c3C2=O)[H])[H])[H])([H])[H])([H])[H])([H])[H])(C([C@](C([H])([H])[H])(O1)[H])([H])[H])[H])([H])[H])[H])([H])([H])[H]

>  <h>  (11) 
<NA>

>  <Training>  (11) 
True

>  <Success>  (11) 
True

>  <enamine_searched>  (11) 
False

>  <enamine_id>  (11) 
nan

$$$$

     RDKit          3D

 54 57  0  0  0  0  0  0  0  0999 V2000
    4.8803    1.9208   25.3040 C   0  0  0  0  0  0  0  0  0  0  0  0
    6.1333    1.9650   24.6599 O   0  0  0  0  0  0  0  0  0  0  0  0
    6.4398    2.9887   23.8096 C   0  0  0  0  0  0  0  0  0  0  0  0
    5.5509    4.0281   23.5125 C   0  0  0  0  0  0  0  0  0  0  0  0
    5.9384    5.0312   22.6255 C   0  0  0  0  0  0  0  0  0  0  0  0
    7.1981    5.0139   22.0459 C   0  0  0  0  0  0  0  0  0  0  0  0
    8.0728    3.9806   22.3674 C   0  0  0  0  0  0  0  0  0  0  0  0
    7.7272    2.9596   23.2400 C   0  0  0  0  0  0  0  0  0  0  0  0
    8.6460    1.7768   23.5243 C   0  0  2  0  0  0  0  0  0  0  0  0
   10.1502    2.0333   23.3615 C   0  0  0  0  0  0  0  0  0  0  0  0
   10.9908    0.8465   23.8413 C   0  0  2  0  0  0  0  0  0  0  0  0
   12.4856    1.0793   23.6110 C   0  0  0  0  0  0  0  0  0  0  0  0
   12.8388    1.9814   24.1220 H   0  0  0  0  0  0  0  0  0  0  0  0
   13.0858    0.2321   23.9670 H   0  0  0  0  0  0  0  0  0  0  0  0
   12.7074    1.2069   22.5435 H   0  0  0  0  0  0  0  0  0  0  0  0
   10.5193   -0.4288   23.1418 C   0  0  0  0  0  0  0  0  0  0  0  0
    8.9985   -0.6097   23.2639 C   0  0  0  0  0  0  0  0  0  0  0  0
    8.2602    0.5605   22.7872 N   0  0  0  0  0  0  0  0  0  0  0  0
    7.9307    0.6541   21.4239 C   0  0  0  0  0  0  0  0  0  0  0  0
    8.3424    1.5308   20.6946 O   0  0  0  0  0  0  0  0  0  0  0  0
    6.9762   -0.4299   20.8954 C   0  0  0  0  0  0  0  0  0  0  0  0
    6.1112    0.0831   19.7646 C   0  0  0  0  0  0  0  0  0  0  0  0
    6.4263   -0.2093   18.4646 C   0  0  0  0  0  0  0  0  0  0  0  0
    5.7612    0.2409   17.3651 N   0  0  0  0  0  0  0  0  0  0  0  0
    4.7347    1.0265   17.5765 C   0  0  0  0  0  0  0  0  0  0  0  0
    4.2887    1.4222   18.8649 C   0  0  0  0  0  0  0  0  0  0  0  0
    3.1743    2.2806   19.0432 C   0  0  0  0  0  0  0  0  0  0  0  0
    2.7664    2.6457   20.2967 C   0  0  0  0  0  0  0  0  0  0  0  0
    3.4652    2.1640   21.4305 C   0  0  0  0  0  0  0  0  0  0  0  0
    4.5478    1.3321   21.2890 C   0  0  0  0  0  0  0  0  0  0  0  0
    4.9934    0.9378   19.9998 C   0  0  0  0  0  0  0  0  0  0  0  0
    5.0730    0.9779   22.1740 H   0  0  0  0  0  0  0  0  0  0  0  0
    3.1370    2.4671   22.4234 H   0  0  0  0  0  0  0  0  0  0  0  0
    1.9124    3.3090   20.4267 H   0  0  0  0  0  0  0  0  0  0  0  0
    2.6546    2.6496   18.1603 H   0  0  0  0  0  0  0  0  0  0  0  0
    4.2011    1.3956   16.6967 H   0  0  0  0  0  0  0  0  0  0  0  0
    7.2750   -0.8538   18.2391 H   0  0  0  0  0  0  0  0  0  0  0  0
    6.3704   -0.8305   21.7211 H   0  0  0  0  0  0  0  0  0  0  0  0
    7.5891   -1.2643   20.5239 H   0  0  0  0  0  0  0  0  0  0  0  0
    8.6689   -1.4849   22.6987 H   0  0  0  0  0  0  0  0  0  0  0  0
    8.7405   -0.7786   24.3185 H   0  0  0  0  0  0  0  0  0  0  0  0
   10.7974   -0.3844   22.0805 H   0  0  0  0  0  0  0  0  0  0  0  0
   11.0503   -1.2971   23.5530 H   0  0  0  0  0  0  0  0  0  0  0  0
   10.8282    0.7281   24.9215 H   0  0  0  0  0  0  0  0  0  0  0  0
   10.4553    2.9435   23.8988 H   0  0  0  0  0  0  0  0  0  0  0  0
   10.3351    2.1593   22.2943 H   0  0  0  0  0  0  0  0  0  0  0  0
    8.5027    1.5122   24.5749 H   0  0  0  0  0  0  0  0  0  0  0  0
    9.0405    3.9577   21.8792 H   0  0  0  0  0  0  0  0  0  0  0  0
    7.5016    5.7832   21.3392 H   0  0  0  0  0  0  0  0  0  0  0  0
    5.2510    5.8346   22.3802 H   0  0  0  0  0  0  0  0  0  0  0  0
    4.5618    4.0696   23.9633 H   0  0  0  0  0  0  0  0  0  0  0  0
    4.6969    2.7757   25.9655 H   0  0  0  0  0  0  0  0  0  0  0  0
    4.9077    1.0242   25.9176 H   0  0  0  0  0  0  0  0  0  0  0  0
    4.0297    1.8267   24.6165 H   0  0  0  0  0  0  0  0  0  0  0  0
  1  2  1  0
  2  3  1  0
  3  4  2  0
  4  5  1  0
  5  6  2  0
  6  7  1  0
  7  8  2  0
  8  9  1  0
  9 10  1  0
 10 11  1  0
 11 12  1  0
 12 13  1  0
 12 14  1  0
 12 15  1  0
 11 16  1  0
 16 17  1  0
 17 18  1  0
 18 19  1  0
 19 20  2  0
 19 21  1  0
 21 22  1  0
 22 23  2  0
 23 24  1  0
 24 25  2  0
 25 26  1  0
 26 27  2  0
 27 28  1  0
 28 29  2  0
 29 30  1  0
 30 31  2  0
 30 32  1  0
 29 33  1  0
 28 34  1  0
 27 35  1  0
 25 36  1  0
 23 37  1  0
 21 38  1  0
 21 39  1  0
 17 40  1  0
 17 41  1  0
 16 42  1  0
 16 43  1  0
 11 44  1  1
 10 45  1  0
 10 46  1  0
  9 47  1  1
  7 48  1  0
  6 49  1  0
  5 50  1  0
  4 51  1  0
  1 52  1  0
  1 53  1  0
  1 54  1  0
  8  3  1  0
 18  9  1  0
 31 22  1  0
 31 26  1  0
M  END
>  <cnnaffinities>  (12) 
[5.96345, 6.04961, 5.97214]

>  <score>  (12) 
5.96345

>  <index>  (12) 
11

>  <Smiles>  (12) 
C(Oc1c(c(c(c(c1[C@@]1(C([C@](C([H])([H])[H])(C(C(N1C(=O)C(c1c(nc(c2c(c(c(c(c12)[H])[H])[H])[H])[H])[H])([H])[H])([H])[H])([H])[H])[H])([H])[H])[H])[H])[H])[H])[H])([H])([H])[H]

>  <h>  (12) 
<NA>

>  <Training>  (12) 
True

>  <Success>  (12) 
True

>  <enamine_searched>  (12) 
False

>  <enamine_id>  (12) 
nan

$$$$

     RDKit          3D

 47 50  0  0  0  0  0  0  0  0999 V2000
    5.5450   -2.4550   20.9568 O   0  0  0  0  0  0  0  0  0  0  0  0
    6.1673   -1.6440   21.6244 C   0  0  0  0  0  0  0  0  0  0  0  0
    6.9105   -0.4841   20.9210 C   0  0  0  0  0  0  0  0  0  0  0  0
    6.1145    0.0890   19.7691 C   0  0  0  0  0  0  0  0  0  0  0  0
    6.4212   -0.2153   18.4645 C   0  0  0  0  0  0  0  0  0  0  0  0
    5.7591    0.2376   17.3638 N   0  0  0  0  0  0  0  0  0  0  0  0
    4.7345    1.0292   17.5744 C   0  0  0  0  0  0  0  0  0  0  0  0
    4.2868    1.4231   18.8682 C   0  0  0  0  0  0  0  0  0  0  0  0
    3.1647    2.2754   19.0423 C   0  0  0  0  0  0  0  0  0  0  0  0
    2.7499    2.6277   20.2999 C   0  0  0  0  0  0  0  0  0  0  0  0
    3.4408    2.1402   21.4315 C   0  0  0  0  0  0  0  0  0  0  0  0
    4.5314    1.3160   21.2895 C   0  0  0  0  0  0  0  0  0  0  0  0
    4.9889    0.9396   19.9965 C   0  0  0  0  0  0  0  0  0  0  0  0
    5.0473    0.9532   22.1736 H   0  0  0  0  0  0  0  0  0  0  0  0
    3.1066    2.4271   22.4227 H   0  0  0  0  0  0  0  0  0  0  0  0
    1.8937    3.2822   20.4362 H   0  0  0  0  0  0  0  0  0  0  0  0
    2.6424    2.6450   18.1634 H   0  0  0  0  0  0  0  0  0  0  0  0
    4.1990    1.3987   16.6989 H   0  0  0  0  0  0  0  0  0  0  0  0
    7.2661   -0.8668   18.2471 H   0  0  0  0  0  0  0  0  0  0  0  0
    7.8389   -0.9054   20.5147 H   0  0  0  0  0  0  0  0  0  0  0  0
    7.2143    0.3126   21.6105 H   0  0  0  0  0  0  0  0  0  0  0  0
    6.2155   -1.7447   22.9849 N   0  0  0  0  0  0  0  0  0  0  0  0
    5.5850   -2.8741   23.6648 C   0  0  0  0  0  0  0  0  0  0  0  0
    6.1463   -2.8377   25.0890 C   0  0  2  0  0  0  0  0  0  0  0  0
    5.2454   -3.5372   26.0962 C   0  0  0  0  0  0  0  0  0  0  0  0
    5.8448   -3.6120   27.3485 F   0  0  0  0  0  0  0  0  0  0  0  0
    5.0247   -4.5659   25.7822 H   0  0  0  0  0  0  0  0  0  0  0  0
    4.2913   -3.0229   26.2298 H   0  0  0  0  0  0  0  0  0  0  0  0
    6.5068   -1.3479   25.3347 C   0  0  0  0  0  0  0  0  0  0  0  0
    5.3400   -0.5007   25.8755 C   0  0  0  0  0  0  0  0  0  0  0  0
    5.4571   -0.4789   27.4084 C   0  0  0  0  0  0  0  0  0  0  0  0
    6.9364   -0.7523   27.7281 C   0  0  0  0  0  0  0  0  0  0  0  0
    7.6005   -1.1479   26.3935 C   0  0  0  0  0  0  0  0  0  0  0  0
    8.2867   -0.3575   26.0713 H   0  0  0  0  0  0  0  0  0  0  0  0
    8.1927   -2.0575   26.5001 H   0  0  0  0  0  0  0  0  0  0  0  0
    7.0353   -1.5440   28.4730 H   0  0  0  0  0  0  0  0  0  0  0  0
    7.4271    0.1352   28.1402 H   0  0  0  0  0  0  0  0  0  0  0  0
    5.1312    0.4842   27.8104 H   0  0  0  0  0  0  0  0  0  0  0  0
    4.8245   -1.2448   27.8600 H   0  0  0  0  0  0  0  0  0  0  0  0
    5.4364    0.5203   25.4947 H   0  0  0  0  0  0  0  0  0  0  0  0
    4.3692   -0.8633   25.5291 H   0  0  0  0  0  0  0  0  0  0  0  0
    6.9481   -0.9065   23.9201 C   0  0  0  0  0  0  0  0  0  0  0  0
    6.7158    0.1491   23.7653 H   0  0  0  0  0  0  0  0  0  0  0  0
    8.0319   -1.0249   23.7979 H   0  0  0  0  0  0  0  0  0  0  0  0
    7.0884   -3.3991   25.1062 H   0  0  0  0  0  0  0  0  0  0  0  0
    5.8200   -3.8148   23.1653 H   0  0  0  0  0  0  0  0  0  0  0  0
    4.4939   -2.7778   23.6641 H   0  0  0  0  0  0  0  0  0  0  0  0
  1  2  2  0
  2  3  1  0
  3  4  1  0
  4  5  2  0
  5  6  1  0
  6  7  2  0
  7  8  1  0
  8  9  2  0
  9 10  1  0
 10 11  2  0
 11 12  1  0
 12 13  2  0
 12 14  1  0
 11 15  1  0
 10 16  1  0
  9 17  1  0
  7 18  1  0
  5 19  1  0
  3 20  1  0
  3 21  1  0
  2 22  1  0
 22 23  1  0
 23 24  1  0
 24 25  1  0
 25 26  1  0
 25 27  1  0
 25 28  1  0
 24 29  1  0
 29 30  1  0
 30 31  1  0
 31 32  1  0
 32 33  1  0
 33 34  1  0
 33 35  1  0
 32 36  1  0
 32 37  1  0
 31 38  1  0
 31 39  1  0
 30 40  1  0
 30 41  1  0
 29 42  1  0
 42 43  1  0
 42 44  1  0
 24 45  1  6
 23 46  1  0
 23 47  1  0
 13  4  1  0
 42 22  1  0
 13  8  1  0
 33 29  1  0
M  END
>  <cnnaffinities>  (13) 
[5.66585, 5.66583, 5.4858, 5.68003, 5.65714]

>  <score>  (13) 
5.66585

>  <index>  (13) 
12

>  <Smiles>  (13) 
O=C(C(c1c(nc(c2c(c(c(c(c12)[H])[H])[H])[H])[H])[H])([H])[H])N1C([C@](C(F)([H])[H])(C2(C(C(C(C2([H])[H])([H])[H])([H])[H])([H])[H])C1([H])[H])[H])([H])[H]

>  <h>  (13) 
<NA>

>  <Training>  (13) 
True

>  <Success>  (13) 
True

>  <enamine_searched>  (13) 
False

>  <enamine_id>  (13) 
nan

$$$$

     RDKit          3D

 67 72  0  0  0  0  0  0  0  0999 V2000
    6.6212    4.2850   21.3781 C   0  0  0  0  0  0  0  0  0  0  0  0
    7.5506    3.8229   22.3920 N   0  0  0  0  0  0  0  0  0  0  0  0
    7.0886    3.2556   23.5358 C   0  0  0  0  0  0  0  0  0  0  0  0
    5.8969    3.1585   23.7949 O   0  0  0  0  0  0  0  0  0  0  0  0
    8.1716    2.7464   24.4958 C   0  0  0  0  0  0  0  0  0  0  0  0
    8.8740    1.5976   23.9516 N   0  0  0  0  0  0  0  0  0  0  0  0
    8.1328    0.3550   23.7902 C   0  0  0  0  0  0  0  0  0  0  0  0
    8.5377   -0.4104   22.5091 C   0  0  2  0  0  0  0  0  0  0  0  0
    7.9582    0.2861   21.2592 C   0  0  0  0  0  0  0  0  0  0  0  0
    8.3661    1.2991   20.7233 O   0  0  0  0  0  0  0  0  0  0  0  0
    6.8833   -0.4393   20.8134 N   0  0  0  0  0  0  0  0  0  0  0  0
    6.1025    0.0583   19.7411 C   0  0  0  0  0  0  0  0  0  0  0  0
    6.4476   -0.2433   18.4490 C   0  0  0  0  0  0  0  0  0  0  0  0
    5.7752    0.1993   17.3588 N   0  0  0  0  0  0  0  0  0  0  0  0
    4.7413    0.9810   17.5651 C   0  0  0  0  0  0  0  0  0  0  0  0
    4.2855    1.3851   18.8544 C   0  0  0  0  0  0  0  0  0  0  0  0
    3.1736    2.2518   19.0354 C   0  0  0  0  0  0  0  0  0  0  0  0
    2.7865    2.6367   20.2909 C   0  0  0  0  0  0  0  0  0  0  0  0
    3.4931    2.1824   21.4273 C   0  0  0  0  0  0  0  0  0  0  0  0
    4.5666    1.3369   21.2799 C   0  0  0  0  0  0  0  0  0  0  0  0
    4.9880    0.9141   19.9880 C   0  0  0  0  0  0  0  0  0  0  0  0
    5.1267    1.0211   22.1556 H   0  0  0  0  0  0  0  0  0  0  0  0
    3.2057    2.5145   22.4201 H   0  0  0  0  0  0  0  0  0  0  0  0
    1.9407    3.3064   20.4191 H   0  0  0  0  0  0  0  0  0  0  0  0
    2.6498    2.6093   18.1530 H   0  0  0  0  0  0  0  0  0  0  0  0
    4.2093    1.3443   16.6845 H   0  0  0  0  0  0  0  0  0  0  0  0
    7.3129   -0.8748   18.2581 H   0  0  0  0  0  0  0  0  0  0  0  0
    6.5529   -1.5702   21.6565 C   0  0  0  0  0  0  0  0  0  0  0  0
    7.8547   -1.8189   22.4309 C   0  0  2  0  0  0  0  0  0  0  0  0
    7.5916   -2.5856   23.7337 C   0  0  0  0  0  0  0  0  0  0  0  0
    8.7662   -2.8784   24.4451 O   0  0  0  0  0  0  0  0  0  0  0  0
    9.4860   -4.0302   24.0446 C   0  0  0  0  0  0  0  0  0  0  0  0
   10.6566   -4.3404   25.1920 C   0  0  0  0  0  0  0  0  0  0  0  0
   11.5238   -3.1262   24.7594 C   0  0  0  0  0  0  0  0  0  0  0  0
   10.5491   -3.9443   25.1760 C   0  0  0  0  0  0  0  0  0  0  0  0
   11.0620   -5.2502   26.2574 H   0  0  0  0  0  0  0  0  0  0  0  0
   11.1057   -5.2694   24.5785 H   0  0  0  0  0  0  0  0  0  0  0  0
   12.1433   -2.5235   25.4684 H   0  0  0  0  0  0  0  0  0  0  0  0
   10.9699   -2.3961   24.1510 H   0  0  0  0  0  0  0  0  0  0  0  0
    9.8777   -3.9279   26.0912 H   0  0  0  0  0  0  0  0  0  0  0  0
    8.7875   -4.8930   23.9983 H   0  0  0  0  0  0  0  0  0  0  0  0
    9.8897   -3.8869   23.0095 H   0  0  0  0  0  0  0  0  0  0  0  0
    7.0311   -3.5104   23.5118 H   0  0  0  0  0  0  0  0  0  0  0  0
    6.9404   -1.9881   24.3901 H   0  0  0  0  0  0  0  0  0  0  0  0
    8.5016   -2.4540   21.8156 H   0  0  0  0  0  0  0  0  0  0  0  0
    5.7289   -1.3358   22.3528 H   0  0  0  0  0  0  0  0  0  0  0  0
    6.2438   -2.4314   21.0552 H   0  0  0  0  0  0  0  0  0  0  0  0
   10.0469   -0.3943   22.3833 C   0  0  0  0  0  0  0  0  0  0  0  0
   10.6487   -1.1809   21.3948 C   0  0  0  0  0  0  0  0  0  0  0  0
   12.0207   -1.1700   21.2337 C   0  0  0  0  0  0  0  0  0  0  0  0
   12.7293   -2.1857   20.0073 Cl  0  0  0  0  0  0  0  0  0  0  0  0
   12.8299   -0.3375   22.0096 C   0  0  0  0  0  0  0  0  0  0  0  0
   12.2340    0.5073   22.9233 C   0  0  0  0  0  0  0  0  0  0  0  0
   10.8495    0.5146   23.0856 C   0  0  0  0  0  0  0  0  0  0  0  0
   10.2462    1.6040   23.9217 C   0  0  0  0  0  0  0  0  0  0  0  0
   10.9226    2.4597   24.4741 O   0  0  0  0  0  0  0  0  0  0  0  0
   12.8337    1.2087   23.4948 H   0  0  0  0  0  0  0  0  0  0  0  0
   13.9062   -0.3156   21.8722 H   0  0  0  0  0  0  0  0  0  0  0  0
   10.0442   -1.7678   20.7122 H   0  0  0  0  0  0  0  0  0  0  0  0
    8.2986   -0.2910   24.6638 H   0  0  0  0  0  0  0  0  0  0  0  0
    7.0693    0.6064   23.7407 H   0  0  0  0  0  0  0  0  0  0  0  0
    8.9340    3.5115   24.6738 H   0  0  0  0  0  0  0  0  0  0  0  0
    7.6934    2.5085   25.4535 H   0  0  0  0  0  0  0  0  0  0  0  0
    8.4956    3.6139   22.1046 H   0  0  0  0  0  0  0  0  0  0  0  0
    6.2502    3.4585   20.7530 H   0  0  0  0  0  0  0  0  0  0  0  0
    7.1012    5.0389   20.7495 H   0  0  0  0  0  0  0  0  0  0  0  0
    5.7653    4.7428   21.8777 H   0  0  0  0  0  0  0  0  0  0  0  0
  1  2  1  0
  2  3  1  0
  3  4  2  0
  3  5  1  0
  5  6  1  0
  6  7  1  0
  8  7  1  1
  8  9  1  0
  9 10  2  0
  9 11  1  0
 11 12  1  0
 12 13  2  0
 13 14  1  0
 14 15  2  0
 15 16  1  0
 16 17  2  0
 17 18  1  0
 18 19  2  0
 19 20  1  0
 20 21  2  0
 20 22  1  0
 19 23  1  0
 18 24  1  0
 17 25  1  0
 15 26  1  0
 13 27  1  0
 11 28  1  0
 28 29  1  0
 29 30  1  0
 30 31  1  0
 31 32  1  0
 32 33  1  0
 33 34  1  0
 34 35  1  0
 35 36  1  0
 35 37  1  0
 34 38  1  0
 34 39  1  0
 33 40  1  0
 32 41  1  0
 32 42  1  0
 30 43  1  0
 30 44  1  0
 29 45  1  6
 28 46  1  0
 28 47  1  0
  8 48  1  0
 48 49  2  0
 49 50  1  0
 50 51  1  0
 50 52  2  0
 52 53  1  0
 53 54  2  0
 54 55  1  0
 55 56  2  0
 53 57  1  0
 52 58  1  0
 49 59  1  0
  7 60  1  0
  7 61  1  0
  5 62  1  0
  5 63  1  0
  2 64  1  0
  1 65  1  0
  1 66  1  0
  1 67  1  0
 55  6  1  0
 29  8  1  0
 35 33  1  0
 54 48  1  0
 21 12  1  0
 21 16  1  0
M  END
>  <cnnaffinities>  (14) 
[6.84501]

>  <score>  (14) 
6.84501

>  <index>  (14) 
13

>  <Smiles>  (14) 
C(N(C(=O)C(N1C([C@@]2(C(=O)N(c3c(nc(c4c(c(c(c(c34)[H])[H])[H])[H])[H])[H])C([C@@]2(C(OC(C2(C(C2([H])[H])([H])[H])[H])([H])[H])([H])[H])[H])([H])[H])c2c(c(Cl)c(c(c2C1=O)[H])[H])[H])([H])[H])([H])[H])[H])([H])([H])[H]

>  <h>  (14) 
<NA>

>  <Training>  (14) 
True

>  <Success>  (14) 
True

>  <enamine_searched>  (14) 
False

>  <enamine_id>  (14) 
nan

$$$$

     RDKit          3D

 67 73  0  0  0  0  0  0  0  0999 V2000
    7.1741   -2.4507   23.4389 C   0  0  0  0  0  0  0  0  0  0  0  0
    8.0339   -1.7578   22.3774 C   0  0  1  0  0  0  0  0  0  0  0  0
    7.3198   -1.6926   21.0145 C   0  0  0  0  0  0  0  0  0  0  0  0
    6.9373   -0.3066   20.8624 N   0  0  0  0  0  0  0  0  0  0  0  0
    6.1489    0.1374   19.7838 C   0  0  0  0  0  0  0  0  0  0  0  0
    6.4457   -0.2311   18.4943 C   0  0  0  0  0  0  0  0  0  0  0  0
    5.7756    0.2069   17.3994 N   0  0  0  0  0  0  0  0  0  0  0  0
    4.7583    1.0116   17.5999 C   0  0  0  0  0  0  0  0  0  0  0  0
    4.3111    1.4180   18.8896 C   0  0  0  0  0  0  0  0  0  0  0  0
    3.1903    2.2749   19.0541 C   0  0  0  0  0  0  0  0  0  0  0  0
    2.7568    2.6206   20.3062 C   0  0  0  0  0  0  0  0  0  0  0  0
    3.4180    2.1250   21.4522 C   0  0  0  0  0  0  0  0  0  0  0  0
    4.5110    1.3051   21.3213 C   0  0  0  0  0  0  0  0  0  0  0  0
    5.0035    0.9547   20.0276 C   0  0  0  0  0  0  0  0  0  0  0  0
    5.0093    0.9230   22.2071 H   0  0  0  0  0  0  0  0  0  0  0  0
    3.0696    2.4092   22.4436 H   0  0  0  0  0  0  0  0  0  0  0  0
    1.9036    3.2818   20.4323 H   0  0  0  0  0  0  0  0  0  0  0  0
    2.6883    2.6477   18.1672 H   0  0  0  0  0  0  0  0  0  0  0  0
    4.2210    1.3725   16.7212 H   0  0  0  0  0  0  0  0  0  0  0  0
    7.2964   -0.8836   18.2950 H   0  0  0  0  0  0  0  0  0  0  0  0
    7.6367    0.5467   21.6845 C   0  0  0  0  0  0  0  0  0  0  0  0
    7.5932    1.7633   21.6308 O   0  0  0  0  0  0  0  0  0  0  0  0
    8.4673   -0.2912   22.6732 C   0  0  1  0  0  0  0  0  0  0  0  0
    8.1742    0.1447   24.1165 C   0  0  0  0  0  0  0  0  0  0  0  0
    8.6564    1.4825   24.3958 N   0  0  0  0  0  0  0  0  0  0  0  0
    7.8352    2.3244   25.2426 C   0  0  0  0  0  0  0  0  0  0  0  0
    6.7380    3.0480   24.4594 C   0  0  0  0  0  0  0  0  0  0  0  0
    7.2832    4.1107   23.5814 N   0  0  2  0  0  4  0  0  0  0  0  0
    7.7510    5.3693   24.3375 C   0  0  0  0  0  0  0  0  0  0  0  0
    6.9406    6.4987   23.6710 C   0  0  2  0  0  0  0  0  0  0  0  0
    5.5952    5.8304   23.3936 C   0  0  0  0  0  0  0  0  0  0  0  0
    6.2628    4.7056   22.6024 C   0  0  1  0  0  0  0  0  0  0  0  0
    7.1102    5.5233   21.6303 C   0  0  0  0  0  0  0  0  0  0  0  0
    7.4600    6.7115   22.3577 O   0  0  0  0  0  0  0  0  0  0  0  0
    6.6150    5.7703   20.6833 H   0  0  0  0  0  0  0  0  0  0  0  0
    8.0109    4.9538   21.4331 H   0  0  0  0  0  0  0  0  0  0  0  0
    5.6420    3.9195   22.1710 H   0  0  0  0  0  0  0  0  0  0  0  0
    4.9473    6.4553   22.7781 H   0  0  0  0  0  0  0  0  0  0  0  0
    5.0344    5.5162   24.2761 H   0  0  0  0  0  0  0  0  0  0  0  0
    6.9552    7.4495   24.1973 H   0  0  0  0  0  0  0  0  0  0  0  0
    8.8264    5.5020   24.2240 H   0  0  0  0  0  0  0  0  0  0  0  0
    7.4877    5.2730   25.3929 H   0  0  0  0  0  0  0  0  0  0  0  0
    8.0381    3.6688   23.0225 H   0  0  0  0  0  0  0  0  0  0  0  0
    6.0055    3.4671   25.1581 H   0  0  0  0  0  0  0  0  0  0  0  0
    6.2129    2.3296   23.8200 H   0  0  0  0  0  0  0  0  0  0  0  0
    7.3684    1.6847   26.0005 H   0  0  0  0  0  0  0  0  0  0  0  0
    8.5112    3.0247   25.7381 H   0  0  0  0  0  0  0  0  0  0  0  0
    9.9222    1.8703   24.0609 C   0  0  0  0  0  0  0  0  0  0  0  0
   10.4493    2.8910   24.4932 O   0  0  0  0  0  0  0  0  0  0  0  0
   10.6246    0.9886   23.0771 C   0  0  0  0  0  0  0  0  0  0  0  0
   11.9551    1.2822   22.7780 C   0  0  0  0  0  0  0  0  0  0  0  0
   12.6534    0.4976   21.8777 C   0  0  0  0  0  0  0  0  0  0  0  0
   11.9921   -0.5710   21.2705 C   0  0  0  0  0  0  0  0  0  0  0  0
   12.8303   -1.5750   20.1184 Cl  0  0  0  0  0  0  0  0  0  0  0  0
   10.6464   -0.8092   21.4833 C   0  0  0  0  0  0  0  0  0  0  0  0
    9.9491   -0.0517   22.4279 C   0  0  0  0  0  0  0  0  0  0  0  0
   10.1557   -1.5768   20.8937 H   0  0  0  0  0  0  0  0  0  0  0  0
   13.6853    0.7046   21.6114 H   0  0  0  0  0  0  0  0  0  0  0  0
   12.4155    2.1412   23.2579 H   0  0  0  0  0  0  0  0  0  0  0  0
    7.0993    0.1206   24.3056 H   0  0  0  0  0  0  0  0  0  0  0  0
    8.6532   -0.5781   24.7897 H   0  0  0  0  0  0  0  0  0  0  0  0
    6.4331   -2.3323   20.9751 H   0  0  0  0  0  0  0  0  0  0  0  0
    7.9901   -1.9926   20.2028 H   0  0  0  0  0  0  0  0  0  0  0  0
    8.9331   -2.3719   22.2974 H   0  0  0  0  0  0  0  0  0  0  0  0
    6.2279   -1.9273   23.6064 H   0  0  0  0  0  0  0  0  0  0  0  0
    7.7011   -2.5263   24.3954 H   0  0  0  0  0  0  0  0  0  0  0  0
    6.9431   -3.4740   23.1242 H   0  0  0  0  0  0  0  0  0  0  0  0
  1  2  1  0
  2  3  1  0
  3  4  1  0
  4  5  1  0
  5  6  2  0
  6  7  1  0
  7  8  2  0
  8  9  1  0
  9 10  2  0
 10 11  1  0
 11 12  2  0
 12 13  1  0
 13 14  2  0
 13 15  1  0
 12 16  1  0
 11 17  1  0
 10 18  1  0
  8 19  1  0
  6 20  1  0
  4 21  1  0
 21 22  2  0
 21 23  1  0
 23 24  1  1
 24 25  1  0
 25 26  1  0
 26 27  1  0
 27 28  1  0
 28 29  1  0
 29 30  1  0
 30 31  1  0
 31 32  1  0
 32 33  1  0
 33 34  1  0
 33 35  1  0
 33 36  1  0
 32 37  1  6
 31 38  1  0
 31 39  1  0
 30 40  1  1
 29 41  1  0
 29 42  1  0
 28 43  1  6
 27 44  1  0
 27 45  1  0
 26 46  1  0
 26 47  1  0
 25 48  1  0
 48 49  2  0
 48 50  1  0
 50 51  2  0
 51 52  1  0
 52 53  2  0
 53 54  1  0
 53 55  1  0
 55 56  2  0
 55 57  1  0
 52 58  1  0
 51 59  1  0
 24 60  1  0
 24 61  1  0
  3 62  1  0
  3 63  1  0
  2 64  1  6
  1 65  1  0
  1 66  1  0
  1 67  1  0
 23  2  1  0
 32 28  1  0
 56 50  1  0
 14  5  1  0
 56 23  1  0
 14  9  1  0
 34 30  1  0
M  CHG  1  28   1
M  END
>  <cnnaffinities>  (15) 
[6.76615]

>  <score>  (15) 
6.76615

>  <index>  (15) 
14

>  <Smiles>  (15) 
C([C@]1(C(N(c2c(nc(c3c(c(c(c(c23)[H])[H])[H])[H])[H])[H])C(=O)[C@]21C(N(C(C([N@@+]1(C([C@@]3(C([C@]1(C(O3)([H])[H])[H])([H])[H])[H])([H])[H])[H])([H])[H])([H])[H])C(=O)c1c(c(c(Cl)c(c21)[H])[H])[H])([H])[H])([H])[H])[H])([H])([H])[H]

>  <h>  (15) 
<NA>

>  <Training>  (15) 
True

>  <Success>  (15) 
True

>  <enamine_searched>  (15) 
False

>  <enamine_id>  (15) 
nan

$$$$

     RDKit          3D

 72 77  0  0  0  0  0  0  0  0999 V2000
    5.4454    5.7521   21.2355 C   0  0  0  0  0  0  0  0  0  0  0  0
    5.8681    4.7457   22.2811 C   0  0  1  0  0  0  0  0  0  0  0  0
    7.2132    5.0937   22.9210 C   0  0  0  0  0  0  0  0  0  0  0  0
    7.5664    4.1229   24.0076 N   0  0  2  0  0  4  0  0  0  0  0  0
    8.0740    2.8364   23.4621 C   0  0  0  0  0  0  0  0  0  0  0  0
    8.7974    2.0596   24.5518 C   0  0  0  0  0  0  0  0  0  0  0  0
    9.3772    0.8686   23.9852 N   0  0  0  0  0  0  0  0  0  0  0  0
    8.5610   -0.2978   23.7232 C   0  0  0  0  0  0  0  0  0  0  0  0
    8.7375   -0.8632   22.2907 C   0  0  2  0  0  0  0  0  0  0  0  0
    8.1310    0.0594   21.1871 C   0  0  0  0  0  0  0  0  0  0  0  0
    8.6296    1.0465   20.6858 O   0  0  0  0  0  0  0  0  0  0  0  0
    6.8944   -0.4451   20.8387 N   0  0  0  0  0  0  0  0  0  0  0  0
    6.1358    0.0885   19.7658 C   0  0  0  0  0  0  0  0  0  0  0  0
    6.4760   -0.2029   18.4657 C   0  0  0  0  0  0  0  0  0  0  0  0
    5.7961    0.2413   17.3793 N   0  0  0  0  0  0  0  0  0  0  0  0
    4.7575    1.0097   17.6004 C   0  0  0  0  0  0  0  0  0  0  0  0
    4.2961    1.3891   18.8933 C   0  0  0  0  0  0  0  0  0  0  0  0
    3.1759    2.2415   19.0645 C   0  0  0  0  0  0  0  0  0  0  0  0
    2.7570    2.5911   20.3190 C   0  0  0  0  0  0  0  0  0  0  0  0
    3.4374    2.1099   21.4567 C   0  0  0  0  0  0  0  0  0  0  0  0
    4.5227    1.2737   21.3195 C   0  0  0  0  0  0  0  0  0  0  0  0
    4.9890    0.9017   20.0261 C   0  0  0  0  0  0  0  0  0  0  0  0
    5.0315    0.8988   22.2037 H   0  0  0  0  0  0  0  0  0  0  0  0
    3.1139    2.4293   22.4438 H   0  0  0  0  0  0  0  0  0  0  0  0
    1.8953    3.2408   20.4405 H   0  0  0  0  0  0  0  0  0  0  0  0
    2.6778    2.6142   18.1753 H   0  0  0  0  0  0  0  0  0  0  0  0
    4.2198    1.3829   16.7293 H   0  0  0  0  0  0  0  0  0  0  0  0
    7.3376   -0.8356   18.2601 H   0  0  0  0  0  0  0  0  0  0  0  0
    6.5514   -1.6859   21.4997 C   0  0  0  0  0  0  0  0  0  0  0  0
    7.9024   -2.1552   22.0639 C   0  0  2  0  0  0  0  0  0  0  0  0
    7.7748   -3.1164   23.2394 C   0  0  0  0  0  0  0  0  0  0  0  0
    8.7551   -3.4245   23.6193 H   0  0  0  0  0  0  0  0  0  0  0  0
    7.2287   -4.0156   22.9406 H   0  0  0  0  0  0  0  0  0  0  0  0
    7.2233   -2.6634   24.0714 H   0  0  0  0  0  0  0  0  0  0  0  0
    8.4065   -2.6645   21.2389 H   0  0  0  0  0  0  0  0  0  0  0  0
    5.7944   -1.5404   22.2883 H   0  0  0  0  0  0  0  0  0  0  0  0
    6.1350   -2.4029   20.7834 H   0  0  0  0  0  0  0  0  0  0  0  0
   10.2368   -0.9956   22.0873 C   0  0  0  0  0  0  0  0  0  0  0  0
   10.8132   -1.9870   21.2903 C   0  0  0  0  0  0  0  0  0  0  0  0
   12.0931   -1.7815   20.8144 C   0  0  0  0  0  0  0  0  0  0  0  0
   12.7581   -2.9152   19.7067 Cl  0  0  0  0  0  0  0  0  0  0  0  0
   12.8789   -0.6757   21.1311 C   0  0  0  0  0  0  0  0  0  0  0  0
   12.3894    0.1965   22.0676 C   0  0  0  0  0  0  0  0  0  0  0  0
   11.1032    0.0032   22.5609 C   0  0  0  0  0  0  0  0  0  0  0  0
   10.6845    0.9518   23.6208 C   0  0  0  0  0  0  0  0  0  0  0  0
   11.4510    1.7824   24.0878 O   0  0  0  0  0  0  0  0  0  0  0  0
   12.9771    1.0167   22.4676 H   0  0  0  0  0  0  0  0  0  0  0  0
   13.8734   -0.6032   20.7101 H   0  0  0  0  0  0  0  0  0  0  0  0
   10.3043   -2.9016   20.9984 H   0  0  0  0  0  0  0  0  0  0  0  0
    7.5227   -0.0278   23.9218 H   0  0  0  0  0  0  0  0  0  0  0  0
    8.8407   -1.0889   24.4317 H   0  0  0  0  0  0  0  0  0  0  0  0
    8.1311    1.7993   25.3817 H   0  0  0  0  0  0  0  0  0  0  0  0
    9.6194    2.6520   24.9552 H   0  0  0  0  0  0  0  0  0  0  0  0
    7.2604    2.2307   23.0478 H   0  0  0  0  0  0  0  0  0  0  0  0
    8.7637    3.0409   22.6335 H   0  0  0  0  0  0  0  0  0  0  0  0
    6.4120    3.9849   25.0045 C   0  0  1  0  0  0  0  0  0  0  0  0
    6.3495    5.2319   25.8745 C   0  0  0  0  0  0  0  0  0  0  0  0
    6.0593    6.1071   25.2897 H   0  0  0  0  0  0  0  0  0  0  0  0
    7.3279    5.4219   26.3308 H   0  0  0  0  0  0  0  0  0  0  0  0
    5.6206    5.0998   26.6773 H   0  0  0  0  0  0  0  0  0  0  0  0
    5.1138    3.7174   24.2468 C   0  0  0  0  0  0  0  0  0  0  0  0
    4.8536    4.7111   23.2783 O   0  0  0  0  0  0  0  0  0  0  0  0
    5.1588    2.7217   23.7738 H   0  0  0  0  0  0  0  0  0  0  0  0
    4.2680    3.7272   24.9446 H   0  0  0  0  0  0  0  0  0  0  0  0
    6.6223    3.1158   25.6324 H   0  0  0  0  0  0  0  0  0  0  0  0
    8.3641    4.5260   24.5323 H   0  0  0  0  0  0  0  0  0  0  0  0
    8.0044    5.0851   22.1600 H   0  0  0  0  0  0  0  0  0  0  0  0
    7.1778    6.0991   23.3460 H   0  0  0  0  0  0  0  0  0  0  0  0
    5.9487    3.7489   21.8162 H   0  0  0  0  0  0  0  0  0  0  0  0
    6.1655    5.7869   20.4109 H   0  0  0  0  0  0  0  0  0  0  0  0
    5.3650    6.7489   21.6788 H   0  0  0  0  0  0  0  0  0  0  0  0
    4.4703    5.4711   20.8324 H   0  0  0  0  0  0  0  0  0  0  0  0
  1  2  1  0
  2  3  1  0
  3  4  1  0
  4  5  1  0
  5  6  1  0
  6  7  1  0
  7  8  1  0
  9  8  1  1
  9 10  1  0
 10 11  2  0
 10 12  1  0
 12 13  1  0
 13 14  2  0
 14 15  1  0
 15 16  2  0
 16 17  1  0
 17 18  2  0
 18 19  1  0
 19 20  2  0
 20 21  1  0
 21 22  2  0
 21 23  1  0
 20 24  1  0
 19 25  1  0
 18 26  1  0
 16 27  1  0
 14 28  1  0
 12 29  1  0
 29 30  1  0
 30 31  1  0
 31 32  1  0
 31 33  1  0
 31 34  1  0
 30 35  1  6
 29 36  1  0
 29 37  1  0
  9 38  1  0
 38 39  2  0
 39 40  1  0
 40 41  1  0
 40 42  2  0
 42 43  1  0
 43 44  2  0
 44 45  1  0
 45 46  2  0
 43 47  1  0
 42 48  1  0
 39 49  1  0
  8 50  1  0
  8 51  1  0
  6 52  1  0
  6 53  1  0
  5 54  1  0
  5 55  1  0
  4 56  1  0
 56 57  1  0
 57 58  1  0
 57 59  1  0
 57 60  1  0
 56 61  1  0
 61 62  1  0
 61 63  1  0
 61 64  1  0
 56 65  1  1
  4 66  1  1
  3 67  1  0
  3 68  1  0
  2 69  1  6
  1 70  1  0
  1 71  1  0
  1 72  1  0
 62  2  1  0
 45  7  1  0
 30  9  1  0
 44 38  1  0
 22 13  1  0
 22 17  1  0
M  CHG  1   4   1
M  END
>  <cnnaffinities>  (16) 
[7.01357, 6.85723]

>  <score>  (16) 
7.01357

>  <index>  (16) 
15

>  <Smiles>  (16) 
C([C@]1(C([N@+](C(C(N2C([C@@]3(C(=O)N(c4c(nc(c5c(c(c(c(c45)[H])[H])[H])[H])[H])[H])C([C@@]3(C([H])([H])[H])[H])([H])[H])c3c(c(Cl)c(c(c3C2=O)[H])[H])[H])([H])[H])([H])[H])([H])[H])([C@@](C([H])([H])[H])(C(O1)([H])[H])[H])[H])([H])[H])[H])([H])([H])[H]

>  <h>  (16) 
<NA>

>  <Training>  (16) 
True

>  <Success>  (16) 
True

>  <enamine_searched>  (16) 
False

>  <enamine_id>  (16) 
nan

$$$$

     RDKit          3D

 47 50  0  0  0  0  0  0  0  0999 V2000
    7.1215   -4.7439   25.2887 C   0  0  0  0  0  0  0  0  0  0  0  0
    6.6061   -3.3774   24.8597 C   0  0  1  0  0  0  0  0  0  0  0  0
    7.6749   -2.2835   24.9355 C   0  0  0  0  0  0  0  0  0  0  0  0
    7.3651   -1.2928   23.8001 C   0  0  2  0  0  0  0  0  0  0  0  0
    6.6576   -0.0456   24.2975 C   0  0  0  0  0  0  0  0  0  0  0  0
    7.3504    1.1606   24.3874 C   0  0  0  0  0  0  0  0  0  0  0  0
    6.7194    2.3093   24.8527 C   0  0  0  0  0  0  0  0  0  0  0  0
    5.3873    2.2591   25.2520 C   0  0  0  0  0  0  0  0  0  0  0  0
    4.6990    1.0501   25.1980 C   0  0  0  0  0  0  0  0  0  0  0  0
    5.3324   -0.0932   24.7295 C   0  0  0  0  0  0  0  0  0  0  0  0
    4.7796   -1.0278   24.7007 H   0  0  0  0  0  0  0  0  0  0  0  0
    3.6606    0.9983   25.5112 H   0  0  0  0  0  0  0  0  0  0  0  0
    4.8877    3.1561   25.6018 H   0  0  0  0  0  0  0  0  0  0  0  0
    7.2671    3.2450   24.8877 H   0  0  0  0  0  0  0  0  0  0  0  0
    8.3931    1.2012   24.0789 H   0  0  0  0  0  0  0  0  0  0  0  0
    6.5612   -2.0640   22.8605 N   0  0  0  0  0  0  0  0  0  0  0  0
    6.2352   -1.7221   21.5758 C   0  0  0  0  0  0  0  0  0  0  0  0
    5.4447   -2.3979   20.9320 O   0  0  0  0  0  0  0  0  0  0  0  0
    6.9127   -0.4911   20.9222 C   0  0  0  0  0  0  0  0  0  0  0  0
    6.1133    0.0837   19.7713 C   0  0  0  0  0  0  0  0  0  0  0  0
    6.4210   -0.2159   18.4680 C   0  0  0  0  0  0  0  0  0  0  0  0
    5.7584    0.2384   17.3657 N   0  0  0  0  0  0  0  0  0  0  0  0
    4.7353    1.0288   17.5761 C   0  0  0  0  0  0  0  0  0  0  0  0
    4.2859    1.4227   18.8681 C   0  0  0  0  0  0  0  0  0  0  0  0
    3.1662    2.2760   19.0446 C   0  0  0  0  0  0  0  0  0  0  0  0
    2.7521    2.6291   20.2980 C   0  0  0  0  0  0  0  0  0  0  0  0
    3.4463    2.1373   21.4296 C   0  0  0  0  0  0  0  0  0  0  0  0
    4.5338    1.3114   21.2935 C   0  0  0  0  0  0  0  0  0  0  0  0
    4.9888    0.9359   20.0008 C   0  0  0  0  0  0  0  0  0  0  0  0
    5.0490    0.9486   22.1836 H   0  0  0  0  0  0  0  0  0  0  0  0
    3.1117    2.4274   22.4197 H   0  0  0  0  0  0  0  0  0  0  0  0
    1.8966    3.2863   20.4381 H   0  0  0  0  0  0  0  0  0  0  0  0
    2.6447    2.6464   18.1631 H   0  0  0  0  0  0  0  0  0  0  0  0
    4.1999    1.3985   16.6977 H   0  0  0  0  0  0  0  0  0  0  0  0
    7.2656   -0.8668   18.2448 H   0  0  0  0  0  0  0  0  0  0  0  0
    7.8756   -0.8361   20.5201 H   0  0  0  0  0  0  0  0  0  0  0  0
    7.1530    0.2915   21.6532 H   0  0  0  0  0  0  0  0  0  0  0  0
    6.1056   -3.3374   23.4115 C   0  0  0  0  0  0  0  0  0  0  0  0
    6.5202   -4.1588   22.8217 H   0  0  0  0  0  0  0  0  0  0  0  0
    5.0179   -3.4448   23.3487 H   0  0  0  0  0  0  0  0  0  0  0  0
    8.2988   -0.9959   23.3151 H   0  0  0  0  0  0  0  0  0  0  0  0
    8.6698   -2.7188   24.8040 H   0  0  0  0  0  0  0  0  0  0  0  0
    7.6901   -1.7969   25.9122 H   0  0  0  0  0  0  0  0  0  0  0  0
    5.7846   -3.1112   25.5305 H   0  0  0  0  0  0  0  0  0  0  0  0
    7.4996   -4.7436   26.3167 H   0  0  0  0  0  0  0  0  0  0  0  0
    7.9476   -5.0451   24.6411 H   0  0  0  0  0  0  0  0  0  0  0  0
    6.3537   -5.5196   25.2198 H   0  0  0  0  0  0  0  0  0  0  0  0
  1  2  1  0
  2  3  1  0
  3  4  1  0
  4  5  1  0
  5  6  2  0
  6  7  1  0
  7  8  2  0
  8  9  1  0
  9 10  2  0
 10 11  1  0
  9 12  1  0
  8 13  1  0
  7 14  1  0
  6 15  1  0
  4 16  1  0
 16 17  1  0
 17 18  2  0
 17 19  1  0
 19 20  1  0
 20 21  2  0
 21 22  1  0
 22 23  2  0
 23 24  1  0
 24 25  2  0
 25 26  1  0
 26 27  2  0
 27 28  1  0
 28 29  2  0
 28 30  1  0
 27 31  1  0
 26 32  1  0
 25 33  1  0
 23 34  1  0
 21 35  1  0
 19 36  1  0
 19 37  1  0
 16 38  1  0
 38 39  1  0
 38 40  1  0
  4 41  1  6
  3 42  1  0
  3 43  1  0
  2 44  1  1
  1 45  1  0
  1 46  1  0
  1 47  1  0
 38  2  1  0
 10  5  1  0
 29 20  1  0
 29 24  1  0
M  END
>  <cnnaffinities>  (17) 
[5.63558, 5.68954, 5.93482, 5.93576, 5.6485, 5.64663]

>  <score>  (17) 
5.63558

>  <index>  (17) 
16

>  <Smiles>  (17) 
C([C@]1(C([C@](c2c(c(c(c(c2[H])[H])[H])[H])[H])(N(C(=O)C(c2c(nc(c3c(c(c(c(c23)[H])[H])[H])[H])[H])[H])([H])[H])C1([H])[H])[H])([H])[H])[H])([H])([H])[H]

>  <h>  (17) 
<NA>

>  <Training>  (17) 
True

>  <Success>  (17) 
True

>  <enamine_searched>  (17) 
False

>  <enamine_id>  (17) 
nan

$$$$

     RDKit          3D

 58 63  0  0  0  0  0  0  0  0999 V2000
    7.1873   -2.3564   23.5306 C   0  0  0  0  0  0  0  0  0  0  0  0
    8.0185   -1.8272   22.3512 C   0  0  1  0  0  0  0  0  0  0  0  0
    7.1596   -1.7446   21.0726 C   0  0  0  0  0  0  0  0  0  0  0  0
    6.9058   -0.3328   20.8941 N   0  0  0  0  0  0  0  0  0  0  0  0
    6.1328    0.1253   19.7998 C   0  0  0  0  0  0  0  0  0  0  0  0
    6.4517   -0.2260   18.5110 C   0  0  0  0  0  0  0  0  0  0  0  0
    5.7893    0.2038   17.4090 N   0  0  0  0  0  0  0  0  0  0  0  0
    4.7626    0.9988   17.5999 C   0  0  0  0  0  0  0  0  0  0  0  0
    4.2996    1.4049   18.8839 C   0  0  0  0  0  0  0  0  0  0  0  0
    3.1764    2.2580   19.0428 C   0  0  0  0  0  0  0  0  0  0  0  0
    2.7478    2.6063   20.2934 C   0  0  0  0  0  0  0  0  0  0  0  0
    3.4056    2.1158   21.4434 C   0  0  0  0  0  0  0  0  0  0  0  0
    4.4966    1.2909   21.3165 C   0  0  0  0  0  0  0  0  0  0  0  0
    4.9825    0.9408   20.0268 C   0  0  0  0  0  0  0  0  0  0  0  0
    4.9927    0.8931   22.1970 H   0  0  0  0  0  0  0  0  0  0  0  0
    3.0468    2.4056   22.4268 H   0  0  0  0  0  0  0  0  0  0  0  0
    1.8886    3.2584   20.4096 H   0  0  0  0  0  0  0  0  0  0  0  0
    2.6758    2.6259   18.1521 H   0  0  0  0  0  0  0  0  0  0  0  0
    4.2356    1.3604   16.7185 H   0  0  0  0  0  0  0  0  0  0  0  0
    7.3056   -0.8743   18.3209 H   0  0  0  0  0  0  0  0  0  0  0  0
    7.8040    0.4763   21.5667 C   0  0  0  0  0  0  0  0  0  0  0  0
    7.9138    1.6718   21.4056 O   0  0  0  0  0  0  0  0  0  0  0  0
    8.6507   -0.4028   22.5226 C   0  0  1  0  0  0  0  0  0  0  0  0
    8.5442    0.1076   23.9796 C   0  0  0  0  0  0  0  0  0  0  0  0
    9.2203    1.3784   24.1801 N   0  0  0  0  0  0  0  0  0  0  0  0
    8.5907    2.3795   25.0186 C   0  0  0  0  0  0  0  0  0  0  0  0
    7.4813    3.0744   24.2941 C   0  0  0  0  0  0  0  0  0  0  0  0
    6.2109    2.8312   24.5015 N   0  0  0  0  0  0  0  0  0  0  0  0
    5.4951    3.6500   23.6656 N   0  0  0  0  0  0  0  0  0  0  0  0
    6.3597    4.3453   22.9798 C   0  0  0  0  0  0  0  0  0  0  0  0
    7.6401    4.0320   23.3360 N   0  0  0  0  0  0  0  0  0  0  0  0
    8.8768    4.6148   22.8113 C   0  0  0  0  0  0  0  0  0  0  0  0
    9.5623    4.8338   23.6373 H   0  0  0  0  0  0  0  0  0  0  0  0
    8.6269    5.5535   22.3069 H   0  0  0  0  0  0  0  0  0  0  0  0
    9.3518    3.9471   22.0829 H   0  0  0  0  0  0  0  0  0  0  0  0
    6.1159    5.0832   22.2313 H   0  0  0  0  0  0  0  0  0  0  0  0
    9.3759    3.0698   25.3416 H   0  0  0  0  0  0  0  0  0  0  0  0
    8.1713    1.8822   25.8981 H   0  0  0  0  0  0  0  0  0  0  0  0
   10.4766    1.6125   23.7115 C   0  0  0  0  0  0  0  0  0  0  0  0
   11.1588    2.5612   24.0884 O   0  0  0  0  0  0  0  0  0  0  0  0
   10.9747    0.6562   22.6855 C   0  0  0  0  0  0  0  0  0  0  0  0
   12.3015    0.7898   22.2773 C   0  0  0  0  0  0  0  0  0  0  0  0
   12.8566   -0.0958   21.3764 C   0  0  0  0  0  0  0  0  0  0  0  0
   12.0369   -1.1079   20.8921 C   0  0  0  0  0  0  0  0  0  0  0  0
   12.5595   -2.0556   20.0943 F   0  0  0  0  0  0  0  0  0  0  0  0
   10.7032   -1.2145   21.2290 C   0  0  0  0  0  0  0  0  0  0  0  0
   10.1336   -0.3267   22.1442 C   0  0  0  0  0  0  0  0  0  0  0  0
   10.1299   -2.0106   20.7767 H   0  0  0  0  0  0  0  0  0  0  0  0
   13.8930   -0.0358   21.0657 H   0  0  0  0  0  0  0  0  0  0  0  0
   12.8874    1.6021   22.6911 H   0  0  0  0  0  0  0  0  0  0  0  0
    8.9940   -0.6548   24.6299 H   0  0  0  0  0  0  0  0  0  0  0  0
    7.4970    0.2362   24.2656 H   0  0  0  0  0  0  0  0  0  0  0  0
    6.2084   -2.2843   21.1651 H   0  0  0  0  0  0  0  0  0  0  0  0
    7.6945   -2.1450   20.2062 H   0  0  0  0  0  0  0  0  0  0  0  0
    8.8204   -2.5570   22.2152 H   0  0  0  0  0  0  0  0  0  0  0  0
    7.8009   -2.4544   24.4330 H   0  0  0  0  0  0  0  0  0  0  0  0
    6.3336   -1.7039   23.7535 H   0  0  0  0  0  0  0  0  0  0  0  0
    6.8015   -3.3540   23.2846 H   0  0  0  0  0  0  0  0  0  0  0  0
  1  2  1  0
  2  3  1  0
  3  4  1  0
  4  5  1  0
  5  6  2  0
  6  7  1  0
  7  8  2  0
  8  9  1  0
  9 10  2  0
 10 11  1  0
 11 12  2  0
 12 13  1  0
 13 14  2  0
 13 15  1  0
 12 16  1  0
 11 17  1  0
 10 18  1  0
  8 19  1  0
  6 20  1  0
  4 21  1  0
 21 22  2  0
 21 23  1  0
 23 24  1  1
 24 25  1  0
 25 26  1  0
 26 27  1  0
 27 28  2  0
 28 29  1  0
 29 30  2  0
 30 31  1  0
 31 32  1  0
 32 33  1  0
 32 34  1  0
 32 35  1  0
 30 36  1  0
 26 37  1  0
 26 38  1  0
 25 39  1  0
 39 40  2  0
 39 41  1  0
 41 42  2  0
 42 43  1  0
 43 44  2  0
 44 45  1  0
 44 46  1  0
 46 47  2  0
 46 48  1  0
 43 49  1  0
 42 50  1  0
 24 51  1  0
 24 52  1  0
  3 53  1  0
  3 54  1  0
  2 55  1  6
  1 56  1  0
  1 57  1  0
  1 58  1  0
 23  2  1  0
 31 27  1  0
 47 41  1  0
 14  5  1  0
 47 23  1  0
 14  9  1  0
M  END
>  <cnnaffinities>  (18) 
[6.75891]

>  <score>  (18) 
6.75891

>  <index>  (18) 
17

>  <Smiles>  (18) 
C([C@]1(C(N(c2c(nc(c3c(c(c(c(c23)[H])[H])[H])[H])[H])[H])C(=O)[C@]21C(N(C(c1nnc(n1C([H])([H])[H])[H])([H])[H])C(=O)c1c(c(c(F)c(c21)[H])[H])[H])([H])[H])([H])[H])[H])([H])([H])[H]

>  <h>  (18) 
<NA>

>  <Training>  (18) 
True

>  <Success>  (18) 
True

>  <enamine_searched>  (18) 
False

>  <enamine_id>  (18) 
nan

$$$$

     RDKit          3D

 50 53  0  0  0  0  0  0  0  0999 V2000
    3.9011   -1.8263   29.3972 C   0  0  0  0  0  0  0  0  0  0  0  0
    3.9692   -2.1646   27.9151 C   0  0  1  0  0  0  0  0  0  0  0  0
    4.0172   -0.9053   27.0490 C   0  0  0  0  0  0  0  0  0  0  0  0
    4.1265   -1.2247   25.5558 C   0  0  0  0  0  0  0  0  0  0  0  0
    5.2864   -2.1855   25.1953 C   0  0  2  0  0  0  0  0  0  0  0  0
    6.6533   -1.4729   25.2925 C   0  0  0  0  0  0  0  0  0  0  0  0
    6.9250   -0.8668   23.9099 C   0  0  0  0  0  0  0  0  0  0  0  0
    6.0972   -1.6403   22.9918 N   0  0  0  0  0  0  0  0  0  0  0  0
    6.1479   -1.6295   21.6262 C   0  0  0  0  0  0  0  0  0  0  0  0
    5.5828   -2.4819   20.9595 O   0  0  0  0  0  0  0  0  0  0  0  0
    6.9101   -0.4853   20.9189 C   0  0  0  0  0  0  0  0  0  0  0  0
    6.1153    0.0912   19.7663 C   0  0  0  0  0  0  0  0  0  0  0  0
    6.4217   -0.2147   18.4636 C   0  0  0  0  0  0  0  0  0  0  0  0
    5.7585    0.2380   17.3634 N   0  0  0  0  0  0  0  0  0  0  0  0
    4.7345    1.0295   17.5745 C   0  0  0  0  0  0  0  0  0  0  0  0
    4.2864    1.4240   18.8672 C   0  0  0  0  0  0  0  0  0  0  0  0
    3.1635    2.2751   19.0425 C   0  0  0  0  0  0  0  0  0  0  0  0
    2.7492    2.6265   20.2998 C   0  0  0  0  0  0  0  0  0  0  0  0
    3.4403    2.1407   21.4317 C   0  0  0  0  0  0  0  0  0  0  0  0
    4.5321    1.3190   21.2878 C   0  0  0  0  0  0  0  0  0  0  0  0
    4.9894    0.9413   19.9955 C   0  0  0  0  0  0  0  0  0  0  0  0
    5.0491    0.9571   22.1723 H   0  0  0  0  0  0  0  0  0  0  0  0
    3.1055    2.4266   22.4237 H   0  0  0  0  0  0  0  0  0  0  0  0
    1.8918    3.2799   20.4364 H   0  0  0  0  0  0  0  0  0  0  0  0
    2.6401    2.6444   18.1637 H   0  0  0  0  0  0  0  0  0  0  0  0
    4.1980    1.3992   16.6993 H   0  0  0  0  0  0  0  0  0  0  0  0
    7.2667   -0.8679   18.2481 H   0  0  0  0  0  0  0  0  0  0  0  0
    7.8368   -0.9158   20.5174 H   0  0  0  0  0  0  0  0  0  0  0  0
    7.2122    0.3113   21.6091 H   0  0  0  0  0  0  0  0  0  0  0  0
    5.2286   -2.5793   23.6996 C   0  0  0  0  0  0  0  0  0  0  0  0
    5.5662   -3.6119   23.5488 H   0  0  0  0  0  0  0  0  0  0  0  0
    4.2089   -2.5258   23.3095 H   0  0  0  0  0  0  0  0  0  0  0  0
    7.9833   -0.9520   23.6509 H   0  0  0  0  0  0  0  0  0  0  0  0
    6.6510    0.1940   23.8880 H   0  0  0  0  0  0  0  0  0  0  0  0
    6.6764   -0.7048   26.0701 H   0  0  0  0  0  0  0  0  0  0  0  0
    7.4350   -2.1941   25.5540 H   0  0  0  0  0  0  0  0  0  0  0  0
    5.2164   -3.4246   26.1116 C   0  0  0  0  0  0  0  0  0  0  0  0
    5.1543   -3.0771   27.5989 C   0  0  0  0  0  0  0  0  0  0  0  0
    5.0913   -3.9944   28.1990 H   0  0  0  0  0  0  0  0  0  0  0  0
    6.0868   -2.5833   27.9019 H   0  0  0  0  0  0  0  0  0  0  0  0
    4.3268   -4.0144   25.8508 H   0  0  0  0  0  0  0  0  0  0  0  0
    6.0770   -4.0778   25.9186 H   0  0  0  0  0  0  0  0  0  0  0  0
    3.1805   -1.6850   25.2421 H   0  0  0  0  0  0  0  0  0  0  0  0
    4.2221   -0.2973   24.9775 H   0  0  0  0  0  0  0  0  0  0  0  0
    3.1210   -0.2974   27.2313 H   0  0  0  0  0  0  0  0  0  0  0  0
    4.8639   -0.2821   27.3638 H   0  0  0  0  0  0  0  0  0  0  0  0
    3.0560   -2.7118   27.6475 H   0  0  0  0  0  0  0  0  0  0  0  0
    3.0366   -1.1950   29.6231 H   0  0  0  0  0  0  0  0  0  0  0  0
    3.8335   -2.7310   30.0088 H   0  0  0  0  0  0  0  0  0  0  0  0
    4.8001   -1.2837   29.7065 H   0  0  0  0  0  0  0  0  0  0  0  0
  1  2  1  0
  2  3  1  0
  3  4  1  0
  5  4  1  1
  5  6  1  0
  6  7  1  0
  7  8  1  0
  8  9  1  0
  9 10  2  0
  9 11  1  0
 11 12  1  0
 12 13  2  0
 13 14  1  0
 14 15  2  0
 15 16  1  0
 16 17  2  0
 17 18  1  0
 18 19  2  0
 19 20  1  0
 20 21  2  0
 20 22  1  0
 19 23  1  0
 18 24  1  0
 17 25  1  0
 15 26  1  0
 13 27  1  0
 11 28  1  0
 11 29  1  0
  8 30  1  0
 30 31  1  0
 30 32  1  0
  7 33  1  0
  7 34  1  0
  6 35  1  0
  6 36  1  0
  5 37  1  0
 37 38  1  0
 38 39  1  0
 38 40  1  0
 37 41  1  0
 37 42  1  0
  4 43  1  0
  4 44  1  0
  3 45  1  0
  3 46  1  0
  2 47  1  6
  1 48  1  0
  1 49  1  0
  1 50  1  0
 38  2  1  0
 30  5  1  0
 21 12  1  0
 21 16  1  0
M  END
>  <cnnaffinities>  (19) 
[5.63626]

>  <score>  (19) 
5.63626

>  <index>  (19) 
18

>  <Smiles>  (19) 
C([C@]1(C(C([C@@]2(C(C(N(C(=O)C(c3c(nc(c4c(c(c(c(c34)[H])[H])[H])[H])[H])[H])([H])[H])C2([H])[H])([H])[H])([H])[H])C(C1([H])[H])([H])[H])([H])[H])([H])[H])[H])([H])([H])[H]

>  <h>  (19) 
<NA>

>  <Training>  (19) 
True

>  <Success>  (19) 
True

>  <enamine_searched>  (19) 
False

>  <enamine_id>  (19) 
nan

$$$$

     RDKit          3D

 67 71  0  0  0  0  0  0  0  0999 V2000
    3.6701   -4.6152   23.2645 O   0  0  0  0  0  0  0  0  0  0  0  0
    4.5510   -4.9519   24.0452 C   0  0  0  0  0  0  0  0  0  0  0  0
    5.9956   -5.0502   23.5585 C   0  0  0  0  0  0  0  0  0  0  0  0
    6.4908   -3.6892   23.2281 N   0  0  1  0  0  4  0  0  0  0  0  0
    6.6504   -2.8709   24.4982 C   0  0  0  0  0  0  0  0  0  0  0  0
    7.4681   -1.5975   24.3624 C   0  0  0  0  0  0  0  0  0  0  0  0
    7.5512   -0.6966   25.4265 C   0  0  0  0  0  0  0  0  0  0  0  0
    8.3936    0.4072   25.3734 C   0  0  0  0  0  0  0  0  0  0  0  0
    9.1923    0.5976   24.2517 C   0  0  0  0  0  0  0  0  0  0  0  0
   10.2925    1.9443   24.1974 Cl  0  0  0  0  0  0  0  0  0  0  0  0
    9.1208   -0.2806   23.1789 C   0  0  0  0  0  0  0  0  0  0  0  0
    8.2323   -1.3591   23.2251 C   0  0  0  0  0  0  0  0  0  0  0  0
    8.0280   -2.2571   22.0269 C   0  0  2  0  0  0  0  0  0  0  0  0
    6.8065   -1.7839   21.2195 C   0  0  0  0  0  0  0  0  0  0  0  0
    5.8757   -2.5193   20.9295 O   0  0  0  0  0  0  0  0  0  0  0  0
    6.8204   -0.4632   20.8581 N   0  0  0  0  0  0  0  0  0  0  0  0
    6.0836    0.0540   19.7695 C   0  0  0  0  0  0  0  0  0  0  0  0
    6.4280   -0.2513   18.4802 C   0  0  0  0  0  0  0  0  0  0  0  0
    5.7855    0.2269   17.3842 N   0  0  0  0  0  0  0  0  0  0  0  0
    4.7749    1.0357   17.5860 C   0  0  0  0  0  0  0  0  0  0  0  0
    4.3170    1.4326   18.8708 C   0  0  0  0  0  0  0  0  0  0  0  0
    3.1971    2.2839   19.0498 C   0  0  0  0  0  0  0  0  0  0  0  0
    2.7821    2.6179   20.3055 C   0  0  0  0  0  0  0  0  0  0  0  0
    3.4531    2.1233   21.4479 C   0  0  0  0  0  0  0  0  0  0  0  0
    4.5386    1.2948   21.3044 C   0  0  0  0  0  0  0  0  0  0  0  0
    4.9898    0.9356   20.0088 C   0  0  0  0  0  0  0  0  0  0  0  0
    5.0520    0.9034   22.1792 H   0  0  0  0  0  0  0  0  0  0  0  0
    3.0993    2.3839   22.4410 H   0  0  0  0  0  0  0  0  0  0  0  0
    1.9143    3.2569   20.4458 H   0  0  0  0  0  0  0  0  0  0  0  0
    2.6789    2.6506   18.1666 H   0  0  0  0  0  0  0  0  0  0  0  0
    4.2464    1.4093   16.7077 H   0  0  0  0  0  0  0  0  0  0  0  0
    7.2792   -0.9022   18.2862 H   0  0  0  0  0  0  0  0  0  0  0  0
    7.3650    0.1873   21.4000 H   0  0  0  0  0  0  0  0  0  0  0  0
    7.7670   -3.6993   22.4439 C   0  0  0  0  0  0  0  0  0  0  0  0
    8.5812   -4.1036   23.0592 H   0  0  0  0  0  0  0  0  0  0  0  0
    7.6425   -4.3293   21.5567 H   0  0  0  0  0  0  0  0  0  0  0  0
    8.9134   -2.1941   21.3838 H   0  0  0  0  0  0  0  0  0  0  0  0
    9.7557   -0.1173   22.3119 H   0  0  0  0  0  0  0  0  0  0  0  0
    8.4532    1.0977   26.2079 H   0  0  0  0  0  0  0  0  0  0  0  0
    6.9691   -0.8663   26.3283 H   0  0  0  0  0  0  0  0  0  0  0  0
    5.6553   -2.6348   24.8875 H   0  0  0  0  0  0  0  0  0  0  0  0
    7.1412   -3.5173   25.2399 H   0  0  0  0  0  0  0  0  0  0  0  0
    5.7728   -3.2705   22.5958 H   0  0  0  0  0  0  0  0  0  0  0  0
    6.6392   -5.5294   24.3022 H   0  0  0  0  0  0  0  0  0  0  0  0
    6.0303   -5.6729   22.6592 H   0  0  0  0  0  0  0  0  0  0  0  0
    4.3264   -5.1807   25.3664 N   0  0  0  0  0  0  0  0  0  0  0  0
    2.9861   -5.2091   25.9359 C   0  0  0  0  0  0  0  0  0  0  0  0
    2.2585   -6.5318   25.6317 C   0  0  0  0  0  0  0  0  0  0  0  0
    0.8791   -6.6340   26.2315 C   0  0  0  0  0  0  0  0  0  0  0  0
   -0.2314   -6.1480   25.5407 C   0  0  0  0  0  0  0  0  0  0  0  0
   -1.5039   -6.2028   26.0947 C   0  0  0  0  0  0  0  0  0  0  0  0
   -1.6897   -6.7517   27.3620 C   0  0  0  0  0  0  0  0  0  0  0  0
   -3.0572   -6.7899   27.9781 C   0  0  0  0  0  0  0  0  0  0  0  0
   -3.9777   -7.2467   27.0798 F   0  0  0  0  0  0  0  0  0  0  0  0
   -3.4584   -5.5364   28.3395 F   0  0  0  0  0  0  0  0  0  0  0  0
   -3.1131   -7.4278   28.8662 H   0  0  0  0  0  0  0  0  0  0  0  0
   -0.5911   -7.2485   28.0583 C   0  0  0  0  0  0  0  0  0  0  0  0
    0.6797   -7.1928   27.4950 C   0  0  0  0  0  0  0  0  0  0  0  0
    1.5220   -7.6058   28.0437 H   0  0  0  0  0  0  0  0  0  0  0  0
   -0.7214   -7.6946   29.0445 H   0  0  0  0  0  0  0  0  0  0  0  0
   -2.3576   -5.8265   25.5386 H   0  0  0  0  0  0  0  0  0  0  0  0
   -0.1109   -5.7306   24.5448 H   0  0  0  0  0  0  0  0  0  0  0  0
    2.2074   -6.6284   24.5407 H   0  0  0  0  0  0  0  0  0  0  0  0
    2.8810   -7.3551   25.9991 H   0  0  0  0  0  0  0  0  0  0  0  0
    3.0829   -5.0646   27.0178 H   0  0  0  0  0  0  0  0  0  0  0  0
    2.4210   -4.3657   25.5264 H   0  0  0  0  0  0  0  0  0  0  0  0
    5.1049   -5.4579   25.9413 H   0  0  0  0  0  0  0  0  0  0  0  0
  1  2  2  0
  2  3  1  0
  3  4  1  0
  4  5  1  0
  5  6  1  0
  6  7  2  0
  7  8  1  0
  8  9  2  0
  9 10  1  0
  9 11  1  0
 11 12  2  0
 12 13  1  0
 13 14  1  0
 14 15  2  0
 14 16  1  0
 16 17  1  0
 17 18  2  0
 18 19  1  0
 19 20  2  0
 20 21  1  0
 21 22  2  0
 22 23  1  0
 23 24  2  0
 24 25  1  0
 25 26  2  0
 25 27  1  0
 24 28  1  0
 23 29  1  0
 22 30  1  0
 20 31  1  0
 18 32  1  0
 16 33  1  0
 13 34  1  0
 34 35  1  0
 34 36  1  0
 13 37  1  6
 11 38  1  0
  8 39  1  0
  7 40  1  0
  5 41  1  0
  5 42  1  0
  4 43  1  6
  3 44  1  0
  3 45  1  0
  2 46  1  0
 46 47  1  0
 47 48  1  0
 48 49  1  0
 49 50  2  0
 50 51  1  0
 51 52  2  0
 52 53  1  0
 53 54  1  0
 53 55  1  0
 53 56  1  0
 52 57  1  0
 57 58  2  0
 58 59  1  0
 57 60  1  0
 51 61  1  0
 50 62  1  0
 48 63  1  0
 48 64  1  0
 47 65  1  0
 47 66  1  0
 46 67  1  0
 34  4  1  0
 58 49  1  0
 12  6  1  0
 26 17  1  0
 26 21  1  0
M  CHG  1   4   1
M  END
>  <cnnaffinities>  (20) 
[6.59303, 6.10571, 5.75873]

>  <score>  (20) 
6.59303

>  <index>  (20) 
19

>  <Smiles>  (20) 
O=C(C([N@+]1(C(c2c(c(c(Cl)c(c2[C@](C(=O)N(c2c(nc(c3c(c(c(c(c23)[H])[H])[H])[H])[H])[H])[H])(C1([H])[H])[H])[H])[H])[H])([H])[H])[H])([H])[H])N(C(C(c1c(c(c(C(F)(F)[H])c(c1[H])[H])[H])[H])([H])[H])([H])[H])[H]

>  <h>  (20) 
<NA>

>  <Training>  (20) 
True

>  <Success>  (20) 
True

>  <enamine_searched>  (20) 
False

>  <enamine_id>  (20) 
nan

$$$$

     RDKit          3D

 66 70  0  0  0  0  0  0  0  0999 V2000
   11.3074   -3.0006   24.5019 C   0  0  0  0  0  0  0  0  0  0  0  0
   10.1707   -4.0242   24.6410 C   0  0  0  0  0  0  0  0  0  0  0  0
    8.8690   -3.3849   24.2054 C   0  0  0  0  0  0  0  0  0  0  0  0
    8.6001   -3.2937   23.0232 O   0  0  0  0  0  0  0  0  0  0  0  0
    8.0584   -2.8643   25.2206 N   0  0  0  0  0  0  0  0  0  0  0  0
    7.9716   -3.5780   26.4986 C   0  0  0  0  0  0  0  0  0  0  0  0
    6.6147   -3.3492   27.1426 C   0  0  0  0  0  0  0  0  0  0  0  0
    6.3926   -1.8583   27.3578 C   0  0  0  0  0  0  0  0  0  0  0  0
    6.6201   -1.0768   26.0804 C   0  0  0  0  0  0  0  0  0  0  0  0
    6.0582    0.1879   25.8963 C   0  0  0  0  0  0  0  0  0  0  0  0
    6.3006    0.9348   24.7546 C   0  0  0  0  0  0  0  0  0  0  0  0
    7.1197    0.4109   23.7546 C   0  0  0  0  0  0  0  0  0  0  0  0
    7.4563    1.2328   22.6421 N   0  0  0  0  0  0  0  0  0  0  0  0
    7.7653    0.7925   21.3577 C   0  0  0  0  0  0  0  0  0  0  0  0
    8.5153    1.4137   20.6383 O   0  0  0  0  0  0  0  0  0  0  0  0
    6.9991   -0.4246   20.8623 C   0  0  0  0  0  0  0  0  0  0  0  0
    6.1157    0.0379   19.7313 C   0  0  0  0  0  0  0  0  0  0  0  0
    6.4562   -0.2354   18.4357 C   0  0  0  0  0  0  0  0  0  0  0  0
    5.7946    0.2206   17.3418 N   0  0  0  0  0  0  0  0  0  0  0  0
    4.7692    1.0054   17.5685 C   0  0  0  0  0  0  0  0  0  0  0  0
    4.3164    1.3936   18.8588 C   0  0  0  0  0  0  0  0  0  0  0  0
    3.2200    2.2749   19.0313 C   0  0  0  0  0  0  0  0  0  0  0  0
    2.7987    2.6332   20.2798 C   0  0  0  0  0  0  0  0  0  0  0  0
    3.4711    2.1374   21.4171 C   0  0  0  0  0  0  0  0  0  0  0  0
    4.5569    1.2992   21.2803 C   0  0  0  0  0  0  0  0  0  0  0  0
    5.0051    0.8958   19.9886 C   0  0  0  0  0  0  0  0  0  0  0  0
    5.0876    0.9809   22.1776 H   0  0  0  0  0  0  0  0  0  0  0  0
    3.1361    2.4320   22.4065 H   0  0  0  0  0  0  0  0  0  0  0  0
    1.9522    3.3050   20.4005 H   0  0  0  0  0  0  0  0  0  0  0  0
    2.7285    2.6497   18.1386 H   0  0  0  0  0  0  0  0  0  0  0  0
    4.2334    1.3797   16.6975 H   0  0  0  0  0  0  0  0  0  0  0  0
    7.3240   -0.8626   18.2241 H   0  0  0  0  0  0  0  0  0  0  0  0
    6.4166   -0.8657   21.6710 H   0  0  0  0  0  0  0  0  0  0  0  0
    7.7247   -1.1709   20.5122 H   0  0  0  0  0  0  0  0  0  0  0  0
    7.5709    2.5886   22.8819 N   0  0  0  0  0  0  0  0  0  0  0  0
    6.9753    3.4936   21.9009 C   0  0  0  0  0  0  0  0  0  0  0  0
    6.7869    2.9687   20.9598 H   0  0  0  0  0  0  0  0  0  0  0  0
    7.6694    4.3089   21.6799 H   0  0  0  0  0  0  0  0  0  0  0  0
    6.0135    3.9085   22.2391 H   0  0  0  0  0  0  0  0  0  0  0  0
    8.6606    2.9692   23.6780 C   0  0  0  0  0  0  0  0  0  0  0  0
    9.7429    2.1040   23.9074 C   0  0  0  0  0  0  0  0  0  0  0  0
   10.8002    2.5388   24.6919 C   0  0  0  0  0  0  0  0  0  0  0  0
   10.7700    3.7929   25.2995 C   0  0  0  0  0  0  0  0  0  0  0  0
    9.6968    4.6316   25.0559 C   0  0  0  0  0  0  0  0  0  0  0  0
    9.6880    6.2229   25.7584 Cl  0  0  0  0  0  0  0  0  0  0  0  0
    8.6445    4.2452   24.2456 C   0  0  0  0  0  0  0  0  0  0  0  0
    7.8089    4.9199   24.0865 H   0  0  0  0  0  0  0  0  0  0  0  0
   11.5592    4.1399   25.9560 H   0  0  0  0  0  0  0  0  0  0  0  0
   11.6557    1.8789   24.7902 H   0  0  0  0  0  0  0  0  0  0  0  0
    9.7410    1.0924   23.5029 H   0  0  0  0  0  0  0  0  0  0  0  0
    7.6947   -0.8409   23.9086 C   0  0  0  0  0  0  0  0  0  0  0  0
    7.4479   -1.5929   25.0658 C   0  0  0  0  0  0  0  0  0  0  0  0
    8.3574   -1.2224   23.1439 H   0  0  0  0  0  0  0  0  0  0  0  0
    5.8960    1.9315   24.6226 H   0  0  0  0  0  0  0  0  0  0  0  0
    5.4248    0.6178   26.6721 H   0  0  0  0  0  0  0  0  0  0  0  0
    5.3850   -1.6688   27.7464 H   0  0  0  0  0  0  0  0  0  0  0  0
    7.0814   -1.4970   28.1359 H   0  0  0  0  0  0  0  0  0  0  0  0
    6.5527   -3.8994   28.0898 H   0  0  0  0  0  0  0  0  0  0  0  0
    5.8414   -3.7449   26.4757 H   0  0  0  0  0  0  0  0  0  0  0  0
    8.1028   -4.6486   26.3122 H   0  0  0  0  0  0  0  0  0  0  0  0
    8.7751   -3.2698   27.1817 H   0  0  0  0  0  0  0  0  0  0  0  0
   10.3188   -4.8552   23.9611 H   0  0  0  0  0  0  0  0  0  0  0  0
   10.1357   -4.4224   25.6591 H   0  0  0  0  0  0  0  0  0  0  0  0
   11.1999   -2.2274   25.2672 H   0  0  0  0  0  0  0  0  0  0  0  0
   11.2744   -2.5120   23.5194 H   0  0  0  0  0  0  0  0  0  0  0  0
   12.2880   -3.4681   24.6358 H   0  0  0  0  0  0  0  0  0  0  0  0
  1  2  1  0
  2  3  1  0
  3  4  2  0
  3  5  1  0
  5  6  1  0
  6  7  1  0
  7  8  1  0
  8  9  1  0
  9 10  2  0
 10 11  1  0
 11 12  2  0
 12 13  1  0
 13 14  1  0
 14 15  2  0
 14 16  1  0
 16 17  1  0
 17 18  2  0
 18 19  1  0
 19 20  2  0
 20 21  1  0
 21 22  2  0
 22 23  1  0
 23 24  2  0
 24 25  1  0
 25 26  2  0
 25 27  1  0
 24 28  1  0
 23 29  1  0
 22 30  1  0
 20 31  1  0
 18 32  1  0
 16 33  1  0
 16 34  1  0
 13 35  1  0
 35 36  1  0
 36 37  1  0
 36 38  1  0
 36 39  1  0
 35 40  1  0
 40 41  2  0
 41 42  1  0
 42 43  2  0
 43 44  1  0
 44 45  1  0
 44 46  2  0
 46 47  1  0
 43 48  1  0
 42 49  1  0
 41 50  1  0
 12 51  1  0
 51 52  2  0
 51 53  1  0
 11 54  1  0
 10 55  1  0
  8 56  1  0
  8 57  1  0
  7 58  1  0
  7 59  1  0
  6 60  1  0
  6 61  1  0
  2 62  1  0
  2 63  1  0
  1 64  1  0
  1 65  1  0
  1 66  1  0
 52  5  1  0
 52  9  1  0
 26 17  1  0
 46 40  1  0
 26 21  1  0
M  END
>  <cnnaffinities>  (21) 
[6.89965, 6.87496]

>  <score>  (21) 
6.89965

>  <index>  (21) 
20

>  <Smiles>  (21) 
C(C(C(=O)N1C(C(C(c2c(c(c(N(C(=O)C(c3c(nc(c4c(c(c(c(c34)[H])[H])[H])[H])[H])[H])([H])[H])N(C([H])([H])[H])c3c(c(c(c(Cl)c3[H])[H])[H])[H])c(c12)[H])[H])[H])([H])[H])([H])[H])([H])[H])([H])[H])([H])([H])[H]

>  <h>  (21) 
<NA>

>  <Training>  (21) 
True

>  <Success>  (21) 
True

>  <enamine_searched>  (21) 
False

>  <enamine_id>  (21) 
nan

$$$$

     RDKit          3D

 59 64  0  0  0  0  0  0  0  0999 V2000
    6.8039   -2.2578   23.6475 C   0  0  0  0  0  0  0  0  0  0  0  0
    7.7743   -1.8283   22.5286 C   0  0  1  0  0  0  0  0  0  0  0  0
    7.0331   -1.7929   21.1689 C   0  0  0  0  0  0  0  0  0  0  0  0
    6.8893   -0.3881   20.8671 N   0  0  0  0  0  0  0  0  0  0  0  0
    6.1315    0.1067   19.7749 C   0  0  0  0  0  0  0  0  0  0  0  0
    6.4445   -0.2263   18.4786 C   0  0  0  0  0  0  0  0  0  0  0  0
    5.7697    0.2211   17.3909 N   0  0  0  0  0  0  0  0  0  0  0  0
    4.7471    1.0189   17.5942 C   0  0  0  0  0  0  0  0  0  0  0  0
    4.2953    1.4232   18.8819 C   0  0  0  0  0  0  0  0  0  0  0  0
    3.1690    2.2714   19.0605 C   0  0  0  0  0  0  0  0  0  0  0  0
    2.7436    2.6136   20.3187 C   0  0  0  0  0  0  0  0  0  0  0  0
    3.4258    2.1201   21.4539 C   0  0  0  0  0  0  0  0  0  0  0  0
    4.5228    1.3076   21.3041 C   0  0  0  0  0  0  0  0  0  0  0  0
    4.9998    0.9517   20.0114 C   0  0  0  0  0  0  0  0  0  0  0  0
    5.0346    0.9149   22.1750 H   0  0  0  0  0  0  0  0  0  0  0  0
    3.0767    2.3907   22.4475 H   0  0  0  0  0  0  0  0  0  0  0  0
    1.8816    3.2611   20.4480 H   0  0  0  0  0  0  0  0  0  0  0  0
    2.6549    2.6408   18.1800 H   0  0  0  0  0  0  0  0  0  0  0  0
    4.2210    1.3825   16.7137 H   0  0  0  0  0  0  0  0  0  0  0  0
    7.2906   -0.8754   18.2560 H   0  0  0  0  0  0  0  0  0  0  0  0
    7.7208    0.4268   21.6007 C   0  0  0  0  0  0  0  0  0  0  0  0
    7.8704    1.6105   21.3772 O   0  0  0  0  0  0  0  0  0  0  0  0
    8.4418   -0.4160   22.6825 C   0  0  1  0  0  0  0  0  0  0  0  0
    8.2473    0.1773   24.1025 C   0  0  0  0  0  0  0  0  0  0  0  0
    8.9581    1.4250   24.3035 N   0  0  0  0  0  0  0  0  0  0  0  0
    8.2769    2.5745   24.9060 C   0  0  0  0  0  0  0  0  0  0  0  0
    7.7564    3.5803   23.9035 C   0  0  0  0  0  0  0  0  0  0  0  0
    8.4805    4.5951   23.2428 C   0  0  0  0  0  0  0  0  0  0  0  0
    7.7406    5.2159   22.3299 N   0  0  0  0  0  0  0  0  0  0  0  0
    6.5463    4.6250   22.3927 N   0  0  0  0  0  0  0  0  0  0  0  0
    5.4941    4.9492   21.4552 C   0  0  0  0  0  0  0  0  0  0  0  0
    5.4699    4.2372   20.6177 H   0  0  0  0  0  0  0  0  0  0  0  0
    5.6634    5.9667   21.0935 H   0  0  0  0  0  0  0  0  0  0  0  0
    4.5460    4.8827   21.9942 H   0  0  0  0  0  0  0  0  0  0  0  0
    6.5017    3.6552   23.3333 C   0  0  0  0  0  0  0  0  0  0  0  0
    5.5971    3.0673   23.4520 H   0  0  0  0  0  0  0  0  0  0  0  0
    9.5228    4.8673   23.3683 H   0  0  0  0  0  0  0  0  0  0  0  0
    8.9872    3.0432   25.5950 H   0  0  0  0  0  0  0  0  0  0  0  0
    7.4475    2.1873   25.5076 H   0  0  0  0  0  0  0  0  0  0  0  0
   10.2622    1.5764   23.9240 C   0  0  0  0  0  0  0  0  0  0  0  0
   10.9411    2.5231   24.3070 O   0  0  0  0  0  0  0  0  0  0  0  0
   10.7826    0.5416   22.9706 C   0  0  0  0  0  0  0  0  0  0  0  0
   12.1358    0.5977   22.6357 C   0  0  0  0  0  0  0  0  0  0  0  0
   12.6631   -0.2683   21.7037 C   0  0  0  0  0  0  0  0  0  0  0  0
   11.8168   -1.1841   21.0990 C   0  0  0  0  0  0  0  0  0  0  0  0
   12.3677   -2.0231   20.2058 F   0  0  0  0  0  0  0  0  0  0  0  0
   10.4672   -1.2538   21.3914 C   0  0  0  0  0  0  0  0  0  0  0  0
    9.9377   -0.4057   22.3755 C   0  0  0  0  0  0  0  0  0  0  0  0
    9.8500   -1.9562   20.8388 H   0  0  0  0  0  0  0  0  0  0  0  0
   13.7091   -0.2761   21.4210 H   0  0  0  0  0  0  0  0  0  0  0  0
   12.7627    1.3330   23.1214 H   0  0  0  0  0  0  0  0  0  0  0  0
    7.1899    0.3851   24.2592 H   0  0  0  0  0  0  0  0  0  0  0  0
    8.5759   -0.5685   24.8453 H   0  0  0  0  0  0  0  0  0  0  0  0
    7.6064   -2.3030   20.3900 H   0  0  0  0  0  0  0  0  0  0  0  0
    6.0443   -2.2661   21.2198 H   0  0  0  0  0  0  0  0  0  0  0  0
    8.5659   -2.5873   22.5040 H   0  0  0  0  0  0  0  0  0  0  0  0
    7.3037   -2.3296   24.6195 H   0  0  0  0  0  0  0  0  0  0  0  0
    6.3868   -3.2504   23.4253 H   0  0  0  0  0  0  0  0  0  0  0  0
    5.9608   -1.5625   23.7505 H   0  0  0  0  0  0  0  0  0  0  0  0
  1  2  1  0
  2  3  1  0
  3  4  1  0
  4  5  1  0
  5  6  2  0
  6  7  1  0
  7  8  2  0
  8  9  1  0
  9 10  2  0
 10 11  1  0
 11 12  2  0
 12 13  1  0
 13 14  2  0
 13 15  1  0
 12 16  1  0
 11 17  1  0
 10 18  1  0
  8 19  1  0
  6 20  1  0
  4 21  1  0
 21 22  2  0
 21 23  1  0
 23 24  1  1
 24 25  1  0
 25 26  1  0
 26 27  1  0
 27 28  1  0
 28 29  2  0
 29 30  1  0
 30 31  1  0
 31 32  1  0
 31 33  1  0
 31 34  1  0
 30 35  1  0
 35 36  1  0
 28 37  1  0
 26 38  1  0
 26 39  1  0
 25 40  1  0
 40 41  2  0
 40 42  1  0
 42 43  2  0
 43 44  1  0
 44 45  2  0
 45 46  1  0
 45 47  1  0
 47 48  2  0
 47 49  1  0
 44 50  1  0
 43 51  1  0
 24 52  1  0
 24 53  1  0
  3 54  1  0
  3 55  1  0
  2 56  1  6
  1 57  1  0
  1 58  1  0
  1 59  1  0
 23  2  1  0
 35 27  2  0
 48 42  1  0
 14  5  1  0
 48 23  1  0
 14  9  1  0
M  END
>  <cnnaffinities>  (22) 
[6.81446, 6.8328]

>  <score>  (22) 
6.81446

>  <index>  (22) 
21

>  <Smiles>  (22) 
C([C@]1(C(N(c2c(nc(c3c(c(c(c(c23)[H])[H])[H])[H])[H])[H])C(=O)[C@]21C(N(C(c1c(nn(C([H])([H])[H])c1[H])[H])([H])[H])C(=O)c1c(c(c(F)c(c21)[H])[H])[H])([H])[H])([H])[H])[H])([H])([H])[H]

>  <h>  (22) 
<NA>

>  <Training>  (22) 
True

>  <Success>  (22) 
True

>  <enamine_searched>  (22) 
False

>  <enamine_id>  (22) 
nan

$$$$

     RDKit          3D

 41 44  0  0  0  0  0  0  0  0999 V2000
    8.0386    1.7590   21.0094 O   0  0  0  0  0  0  0  0  0  0  0  0
    8.0885    0.5829   21.3312 C   0  0  0  0  0  0  0  0  0  0  0  0
    7.0220   -0.4185   20.8853 C   0  0  0  0  0  0  0  0  0  0  0  0
    6.1593    0.0903   19.7704 C   0  0  0  0  0  0  0  0  0  0  0  0
    6.4643   -0.2246   18.4716 C   0  0  0  0  0  0  0  0  0  0  0  0
    5.7984    0.2146   17.3714 N   0  0  0  0  0  0  0  0  0  0  0  0
    4.7711    1.0038   17.5844 C   0  0  0  0  0  0  0  0  0  0  0  0
    4.3308    1.4066   18.8744 C   0  0  0  0  0  0  0  0  0  0  0  0
    3.2093    2.2582   19.0413 C   0  0  0  0  0  0  0  0  0  0  0  0
    2.8001    2.6250   20.2957 C   0  0  0  0  0  0  0  0  0  0  0  0
    3.4996    2.1621   21.4320 C   0  0  0  0  0  0  0  0  0  0  0  0
    4.5987    1.3490   21.2945 C   0  0  0  0  0  0  0  0  0  0  0  0
    5.0388    0.9434   20.0037 C   0  0  0  0  0  0  0  0  0  0  0  0
    5.1415    1.0211   22.1747 H   0  0  0  0  0  0  0  0  0  0  0  0
    3.1630    2.4593   22.4217 H   0  0  0  0  0  0  0  0  0  0  0  0
    1.9443    3.2815   20.4214 H   0  0  0  0  0  0  0  0  0  0  0  0
    2.6924    2.6125   18.1542 H   0  0  0  0  0  0  0  0  0  0  0  0
    4.2285    1.3653   16.7122 H   0  0  0  0  0  0  0  0  0  0  0  0
    7.3085   -0.8806   18.2562 H   0  0  0  0  0  0  0  0  0  0  0  0
    6.4154   -0.7044   21.7560 H   0  0  0  0  0  0  0  0  0  0  0  0
    7.5380   -1.3249   20.5481 H   0  0  0  0  0  0  0  0  0  0  0  0
    9.0993    0.0738   22.0953 N   0  0  0  0  0  0  0  0  0  0  0  0
    9.1582   -1.3174   22.5517 C   0  0  0  0  0  0  0  0  0  0  0  0
    9.9955   -1.4423   23.8202 C   0  0  0  0  0  0  0  0  0  0  0  0
   11.3553   -0.8468   23.5906 C   0  0  0  0  0  0  0  0  0  0  0  0
   12.5629   -1.3817   24.0273 C   0  0  0  0  0  0  0  0  0  0  0  0
   12.5756   -2.8168   25.0119 Cl  0  0  0  0  0  0  0  0  0  0  0  0
   13.7769   -0.7894   23.7095 C   0  0  0  0  0  0  0  0  0  0  0  0
   13.7933    0.3656   22.9414 C   0  0  0  0  0  0  0  0  0  0  0  0
   12.5974    0.9743   22.5962 C   0  0  0  0  0  0  0  0  0  0  0  0
   11.3933    0.3689   22.9115 C   0  0  0  0  0  0  0  0  0  0  0  0
   10.1073    1.0301   22.5276 C   0  0  0  0  0  0  0  0  0  0  0  0
    9.7095    1.6469   23.3408 H   0  0  0  0  0  0  0  0  0  0  0  0
   10.2834    1.7521   21.7336 H   0  0  0  0  0  0  0  0  0  0  0  0
   12.5713    1.9304   22.0914 H   0  0  0  0  0  0  0  0  0  0  0  0
   14.7174    0.8042   22.5896 H   0  0  0  0  0  0  0  0  0  0  0  0
   14.6927   -1.2354   24.0747 H   0  0  0  0  0  0  0  0  0  0  0  0
   10.0513   -2.4805   24.1503 H   0  0  0  0  0  0  0  0  0  0  0  0
    9.5031   -0.8903   24.6268 H   0  0  0  0  0  0  0  0  0  0  0  0
    9.5679   -1.9675   21.7687 H   0  0  0  0  0  0  0  0  0  0  0  0
    8.1527   -1.6899   22.7539 H   0  0  0  0  0  0  0  0  0  0  0  0
  1  2  2  0
  2  3  1  0
  3  4  1  0
  4  5  2  0
  5  6  1  0
  6  7  2  0
  7  8  1  0
  8  9  2  0
  9 10  1  0
 10 11  2  0
 11 12  1  0
 12 13  2  0
 12 14  1  0
 11 15  1  0
 10 16  1  0
  9 17  1  0
  7 18  1  0
  5 19  1  0
  3 20  1  0
  3 21  1  0
  2 22  1  0
 22 23  1  0
 23 24  1  0
 24 25  1  0
 25 26  2  0
 26 27  1  0
 26 28  1  0
 28 29  2  0
 29 30  1  0
 30 31  2  0
 31 32  1  0
 32 33  1  0
 32 34  1  0
 30 35  1  0
 29 36  1  0
 28 37  1  0
 24 38  1  0
 24 39  1  0
 23 40  1  0
 23 41  1  0
 13  4  1  0
 32 22  1  0
 13  8  1  0
 31 25  1  0
M  END
>  <cnnaffinities>  (23) 
[6.00893]

>  <score>  (23) 
6.00893

>  <index>  (23) 
22

>  <Smiles>  (23) 
O=C(C(c1c(nc(c2c(c(c(c(c12)[H])[H])[H])[H])[H])[H])([H])[H])N1C(C(c2c(Cl)c(c(c(c2C1([H])[H])[H])[H])[H])([H])[H])([H])[H]

>  <h>  (23) 
<NA>

>  <Training>  (23) 
True

>  <Success>  (23) 
True

>  <enamine_searched>  (23) 
False

>  <enamine_id>  (23) 
nan

$$$$

     RDKit          3D

 69 74  0  0  0  0  0  0  0  0999 V2000
    7.9207    7.7487   22.5638 C   0  0  0  0  0  0  0  0  0  0  0  0
    7.7499    6.4245   21.8449 C   0  0  1  0  0  0  0  0  0  0  0  0
    8.6374    5.2674   22.3576 C   0  0  0  0  0  0  0  0  0  0  0  0
    7.9775    3.9008   22.2213 N   0  0  1  0  0  4  0  0  0  0  0  0
    7.3322    3.4379   23.4919 C   0  0  0  0  0  0  0  0  0  0  0  0
    8.3570    2.8334   24.4535 C   0  0  0  0  0  0  0  0  0  0  0  0
    9.0223    1.6647   23.8827 N   0  0  0  0  0  0  0  0  0  0  0  0
    8.2861    0.4221   23.7654 C   0  0  0  0  0  0  0  0  0  0  0  0
    8.6272   -0.3846   22.4835 C   0  0  2  0  0  0  0  0  0  0  0  0
    8.0404    0.3367   21.2458 C   0  0  0  0  0  0  0  0  0  0  0  0
    8.4557    1.3785   20.7653 O   0  0  0  0  0  0  0  0  0  0  0  0
    6.9467   -0.3642   20.7991 N   0  0  0  0  0  0  0  0  0  0  0  0
    6.1449    0.1176   19.7320 C   0  0  0  0  0  0  0  0  0  0  0  0
    6.4871   -0.1784   18.4380 C   0  0  0  0  0  0  0  0  0  0  0  0
    5.7907    0.2470   17.3556 N   0  0  0  0  0  0  0  0  0  0  0  0
    4.7498    1.0148   17.5704 C   0  0  0  0  0  0  0  0  0  0  0  0
    4.2933    1.4081   18.8617 C   0  0  0  0  0  0  0  0  0  0  0  0
    3.1905    2.2833   19.0474 C   0  0  0  0  0  0  0  0  0  0  0  0
    2.7981    2.6561   20.3044 C   0  0  0  0  0  0  0  0  0  0  0  0
    3.4781    2.1639   21.4381 C   0  0  0  0  0  0  0  0  0  0  0  0
    4.5409    1.3035   21.2861 C   0  0  0  0  0  0  0  0  0  0  0  0
    4.9942    0.9225   19.9906 C   0  0  0  0  0  0  0  0  0  0  0  0
    5.0788    0.9580   22.1639 H   0  0  0  0  0  0  0  0  0  0  0  0
    3.1698    2.4773   22.4304 H   0  0  0  0  0  0  0  0  0  0  0  0
    1.9679    3.3442   20.4388 H   0  0  0  0  0  0  0  0  0  0  0  0
    2.6892    2.6678   18.1650 H   0  0  0  0  0  0  0  0  0  0  0  0
    4.2050    1.3747   16.6956 H   0  0  0  0  0  0  0  0  0  0  0  0
    7.3578   -0.7986   18.2285 H   0  0  0  0  0  0  0  0  0  0  0  0
    6.5507   -1.4381   21.6873 C   0  0  0  0  0  0  0  0  0  0  0  0
    7.8554   -1.7401   22.4468 C   0  0  2  0  0  0  0  0  0  0  0  0
    7.6173   -2.4415   23.7840 C   0  0  0  0  0  0  0  0  0  0  0  0
    6.9748   -1.8371   24.4373 H   0  0  0  0  0  0  0  0  0  0  0  0
    8.5598   -2.6300   24.3131 H   0  0  0  0  0  0  0  0  0  0  0  0
    7.1124   -3.4045   23.6399 H   0  0  0  0  0  0  0  0  0  0  0  0
    8.4327   -2.4092   21.8045 H   0  0  0  0  0  0  0  0  0  0  0  0
    5.7429   -1.1389   22.3779 H   0  0  0  0  0  0  0  0  0  0  0  0
    6.1840   -2.2977   21.1168 H   0  0  0  0  0  0  0  0  0  0  0  0
   10.1354   -0.4609   22.3339 C   0  0  0  0  0  0  0  0  0  0  0  0
   10.7319   -1.4152   21.4986 C   0  0  0  0  0  0  0  0  0  0  0  0
   12.0619   -1.3038   21.1385 C   0  0  0  0  0  0  0  0  0  0  0  0
   12.6965   -2.4854   20.0187 Cl  0  0  0  0  0  0  0  0  0  0  0  0
   12.8669   -0.2805   21.6437 C   0  0  0  0  0  0  0  0  0  0  0  0
   12.3000    0.6158   22.5276 C   0  0  0  0  0  0  0  0  0  0  0  0
   10.9455    0.5580   22.8580 C   0  0  0  0  0  0  0  0  0  0  0  0
   10.3717    1.6969   23.6653 C   0  0  0  0  0  0  0  0  0  0  0  0
   11.0719    2.6384   24.0274 O   0  0  0  0  0  0  0  0  0  0  0  0
   12.9003    1.3856   22.9940 H   0  0  0  0  0  0  0  0  0  0  0  0
   13.9091   -0.2000   21.3453 H   0  0  0  0  0  0  0  0  0  0  0  0
   10.1786   -2.2478   21.0776 H   0  0  0  0  0  0  0  0  0  0  0  0
    8.4860   -0.2120   24.6393 H   0  0  0  0  0  0  0  0  0  0  0  0
    7.2215    0.6640   23.7513 H   0  0  0  0  0  0  0  0  0  0  0  0
    9.1555    3.5415   24.6663 H   0  0  0  0  0  0  0  0  0  0  0  0
    7.8741    2.5875   25.4096 H   0  0  0  0  0  0  0  0  0  0  0  0
    6.8005    4.2761   23.9447 H   0  0  0  0  0  0  0  0  0  0  0  0
    6.5852    2.6808   23.2212 H   0  0  0  0  0  0  0  0  0  0  0  0
    7.0305    3.8792   21.0610 C   0  0  0  0  0  0  0  0  0  0  0  0
    6.0882    5.0949   20.9825 C   0  0  0  0  0  0  0  0  0  0  0  0
    6.3845    6.0618   21.9571 O   0  0  0  0  0  0  0  0  0  0  0  0
    6.1697    5.5762   19.9936 H   0  0  0  0  0  0  0  0  0  0  0  0
    5.0407    4.8030   21.1089 H   0  0  0  0  0  0  0  0  0  0  0  0
    6.4454    2.9664   21.1015 H   0  0  0  0  0  0  0  0  0  0  0  0
    7.6465    3.7971   20.1663 H   0  0  0  0  0  0  0  0  0  0  0  0
    8.6751    3.1818   21.9711 H   0  0  0  0  0  0  0  0  0  0  0  0
    8.8736    5.4227   23.4117 H   0  0  0  0  0  0  0  0  0  0  0  0
    9.5805    5.2518   21.8049 H   0  0  0  0  0  0  0  0  0  0  0  0
    7.9958    6.5884   20.7849 H   0  0  0  0  0  0  0  0  0  0  0  0
    7.6465    7.6486   23.6179 H   0  0  0  0  0  0  0  0  0  0  0  0
    7.2452    8.4759   22.1002 H   0  0  0  0  0  0  0  0  0  0  0  0
    8.9455    8.1278   22.4753 H   0  0  0  0  0  0  0  0  0  0  0  0
  1  2  1  0
  2  3  1  0
  3  4  1  0
  4  5  1  0
  5  6  1  0
  6  7  1  0
  7  8  1  0
  9  8  1  1
  9 10  1  0
 10 11  2  0
 10 12  1  0
 12 13  1  0
 13 14  2  0
 14 15  1  0
 15 16  2  0
 16 17  1  0
 17 18  2  0
 18 19  1  0
 19 20  2  0
 20 21  1  0
 21 22  2  0
 21 23  1  0
 20 24  1  0
 19 25  1  0
 18 26  1  0
 16 27  1  0
 14 28  1  0
 12 29  1  0
 29 30  1  0
 30 31  1  0
 31 32  1  0
 31 33  1  0
 31 34  1  0
 30 35  1  6
 29 36  1  0
 29 37  1  0
  9 38  1  0
 38 39  2  0
 39 40  1  0
 40 41  1  0
 40 42  2  0
 42 43  1  0
 43 44  2  0
 44 45  1  0
 45 46  2  0
 43 47  1  0
 42 48  1  0
 39 49  1  0
  8 50  1  0
  8 51  1  0
  6 52  1  0
  6 53  1  0
  5 54  1  0
  5 55  1  0
  4 56  1  0
 56 57  1  0
 57 58  1  0
 57 59  1  0
 57 60  1  0
 56 61  1  0
 56 62  1  0
  4 63  1  6
  3 64  1  0
  3 65  1  0
  2 66  1  6
  1 67  1  0
  1 68  1  0
  1 69  1  0
 58  2  1  0
 45  7  1  0
 30  9  1  0
 44 38  1  0
 22 13  1  0
 22 17  1  0
M  CHG  1   4   1
M  END
>  <cnnaffinities>  (24) 
[6.64806]

>  <score>  (24) 
6.64806

>  <index>  (24) 
23

>  <Smiles>  (24) 
C([C@]1(C([N@@+](C(C(N2C([C@@]3(C(=O)N(c4c(nc(c5c(c(c(c(c45)[H])[H])[H])[H])[H])[H])C([C@@]3(C([H])([H])[H])[H])([H])[H])c3c(c(Cl)c(c(c3C2=O)[H])[H])[H])([H])[H])([H])[H])([H])[H])(C(C(O1)([H])[H])([H])[H])[H])([H])[H])[H])([H])([H])[H]

>  <h>  (24) 
<NA>

>  <Training>  (24) 
True

>  <Success>  (24) 
True

>  <enamine_searched>  (24) 
False

>  <enamine_id>  (24) 
nan

$$$$

     RDKit          3D

 70 75  0  0  0  0  0  0  0  0999 V2000
    4.6249   -7.8274   24.0740 C   0  0  0  0  0  0  0  0  0  0  0  0
    5.9873   -7.4880   23.6090 N   0  0  0  0  0  4  0  0  0  0  0  0
    6.4486   -6.1361   24.0550 C   0  0  0  0  0  0  0  0  0  0  0  0
    5.7386   -4.9839   23.3297 C   0  0  0  0  0  0  0  0  0  0  0  0
    6.2474   -3.6935   23.7480 N   0  0  0  0  0  0  0  0  0  0  0  0
    7.4753   -3.1845   23.1637 C   0  0  0  0  0  0  0  0  0  0  0  0
    7.3603   -1.6823   22.8247 C   0  0  2  0  0  0  0  0  0  0  0  0
    6.4056   -1.4910   21.6274 C   0  0  0  0  0  0  0  0  0  0  0  0
    5.3652   -2.0742   21.4053 O   0  0  0  0  0  0  0  0  0  0  0  0
    6.9241   -0.5069   20.8224 N   0  0  0  0  0  0  0  0  0  0  0  0
    6.1736    0.0486   19.7598 C   0  0  0  0  0  0  0  0  0  0  0  0
    6.5335   -0.2142   18.4642 C   0  0  0  0  0  0  0  0  0  0  0  0
    5.8643    0.2373   17.3751 N   0  0  0  0  0  0  0  0  0  0  0  0
    4.8163    0.9960   17.5920 C   0  0  0  0  0  0  0  0  0  0  0  0
    4.3567    1.3769   18.8859 C   0  0  0  0  0  0  0  0  0  0  0  0
    3.2380    2.2345   19.0555 C   0  0  0  0  0  0  0  0  0  0  0  0
    2.8402    2.6110   20.3079 C   0  0  0  0  0  0  0  0  0  0  0  0
    3.5388    2.1479   21.4477 C   0  0  0  0  0  0  0  0  0  0  0  0
    4.6204    1.3113   21.3166 C   0  0  0  0  0  0  0  0  0  0  0  0
    5.0518    0.8985   20.0191 C   0  0  0  0  0  0  0  0  0  0  0  0
    5.1544    0.9714   22.2062 H   0  0  0  0  0  0  0  0  0  0  0  0
    3.2153    2.4654   22.4339 H   0  0  0  0  0  0  0  0  0  0  0  0
    1.9921    3.2774   20.4365 H   0  0  0  0  0  0  0  0  0  0  0  0
    2.7210    2.5938   18.1695 H   0  0  0  0  0  0  0  0  0  0  0  0
    4.2770    1.3571   16.7159 H   0  0  0  0  0  0  0  0  0  0  0  0
    7.3993   -0.8453   18.2669 H   0  0  0  0  0  0  0  0  0  0  0  0
    8.2452   -0.0556   21.1923 C   0  0  0  0  0  0  0  0  0  0  0  0
    8.6811   -1.0105   22.3188 C   0  0  2  0  0  0  0  0  0  0  0  0
    9.8034   -1.9453   21.8229 C   0  0  0  0  0  0  0  0  0  0  0  0
   10.5005   -2.5806   22.8517 O   0  0  0  0  0  0  0  0  0  0  0  0
   11.3511   -1.6837   23.6007 C   0  0  0  0  0  0  0  0  0  0  0  0
   11.9151   -2.3624   24.8356 C   0  0  0  0  0  0  0  0  0  0  0  0
   12.0061   -2.4993   24.6263 C   0  0  0  0  0  0  0  0  0  0  0  0
   14.0335   -3.4189   24.3489 O   0  0  0  0  0  0  0  0  0  0  0  0
   13.4665   -2.2972   24.9474 C   0  0  0  0  0  0  0  0  0  0  0  0
   13.7848   -2.2394   26.0168 H   0  0  0  0  0  0  0  0  0  0  0  0
   14.0149   -1.3986   24.5590 H   0  0  0  0  0  0  0  0  0  0  0  0
   11.9207   -3.5697   25.3250 H   0  0  0  0  0  0  0  0  0  0  0  0
   12.5200   -3.4875   24.1890 H   0  0  0  0  0  0  0  0  0  0  0  0
   11.5435   -1.5697   25.6830 H   0  0  0  0  0  0  0  0  0  0  0  0
   11.9881   -1.1936   22.8180 H   0  0  0  0  0  0  0  0  0  0  0  0
   10.6762   -0.8699   23.9619 H   0  0  0  0  0  0  0  0  0  0  0  0
   10.5183   -1.3763   21.2016 H   0  0  0  0  0  0  0  0  0  0  0  0
    9.3769   -2.7181   21.1693 H   0  0  0  0  0  0  0  0  0  0  0  0
    9.1044   -0.4434   23.1499 H   0  0  0  0  0  0  0  0  0  0  0  0
    8.9160   -0.1123   20.3362 H   0  0  0  0  0  0  0  0  0  0  0  0
    8.2303    0.9977   21.5067 H   0  0  0  0  0  0  0  0  0  0  0  0
    6.8030   -0.9591   24.0553 C   0  0  0  0  0  0  0  0  0  0  0  0
    6.9949    0.4184   24.2398 C   0  0  0  0  0  0  0  0  0  0  0  0
    6.4915    1.0501   25.3660 C   0  0  0  0  0  0  0  0  0  0  0  0
    6.7650    2.7583   25.5771 Cl  0  0  0  0  0  0  0  0  0  0  0  0
    5.7740    0.3545   26.3361 C   0  0  0  0  0  0  0  0  0  0  0  0
    5.5393   -0.9910   26.1357 C   0  0  0  0  0  0  0  0  0  0  0  0
    6.0318   -1.6397   25.0039 C   0  0  0  0  0  0  0  0  0  0  0  0
    5.6573   -3.0778   24.8104 C   0  0  0  0  0  0  0  0  0  0  0  0
    4.8422   -3.6417   25.5311 O   0  0  0  0  0  0  0  0  0  0  0  0
    4.9603   -1.5758   26.8423 H   0  0  0  0  0  0  0  0  0  0  0  0
    5.4013    0.8708   27.2139 H   0  0  0  0  0  0  0  0  0  0  0  0
    7.5384    1.0244   23.5220 H   0  0  0  0  0  0  0  0  0  0  0  0
    7.6828   -3.7529   22.2572 H   0  0  0  0  0  0  0  0  0  0  0  0
    8.3166   -3.3315   23.8536 H   0  0  0  0  0  0  0  0  0  0  0  0
    5.8638   -5.0485   22.2389 H   0  0  0  0  0  0  0  0  0  0  0  0
    4.6673   -4.9845   23.5501 H   0  0  0  0  0  0  0  0  0  0  0  0
    7.5238   -6.0861   23.8959 H   0  0  0  0  0  0  0  0  0  0  0  0
    6.2594   -6.0393   25.1255 H   0  0  0  0  0  0  0  0  0  0  0  0
    5.9813   -7.4894   22.5614 H   0  0  0  0  0  0  0  0  0  0  0  0
    6.6431   -8.2174   23.9531 H   0  0  0  0  0  0  0  0  0  0  0  0
    4.5017   -7.5313   25.1168 H   0  0  0  0  0  0  0  0  0  0  0  0
    3.8657   -7.3080   23.4885 H   0  0  0  0  0  0  0  0  0  0  0  0
    4.4563   -8.8977   23.9855 H   0  0  0  0  0  0  0  0  0  0  0  0
  1  2  1  0
  2  3  1  0
  3  4  1  0
  4  5  1  0
  5  6  1  0
  7  6  1  1
  7  8  1  0
  8  9  2  0
  8 10  1  0
 10 11  1  0
 11 12  2  0
 12 13  1  0
 13 14  2  0
 14 15  1  0
 15 16  2  0
 16 17  1  0
 17 18  2  0
 18 19  1  0
 19 20  2  0
 19 21  1  0
 18 22  1  0
 17 23  1  0
 16 24  1  0
 14 25  1  0
 12 26  1  0
 10 27  1  0
 27 28  1  0
 28 29  1  0
 29 30  1  0
 30 31  1  0
 31 32  1  0
 32 33  1  0
 33 34  1  0
 34 35  1  0
 35 36  1  0
 35 37  1  0
 33 38  1  0
 33 39  1  0
 32 40  1  0
 31 41  1  0
 31 42  1  0
 29 43  1  0
 29 44  1  0
 28 45  1  1
 27 46  1  0
 27 47  1  0
  7 48  1  0
 48 49  2  0
 49 50  1  0
 50 51  1  0
 50 52  2  0
 52 53  1  0
 53 54  2  0
 54 55  1  0
 55 56  2  0
 53 57  1  0
 52 58  1  0
 49 59  1  0
  6 60  1  0
  6 61  1  0
  4 62  1  0
  4 63  1  0
  3 64  1  0
  3 65  1  0
  2 66  1  0
  2 67  1  0
  1 68  1  0
  1 69  1  0
  1 70  1  0
 55  5  1  0
 28  7  1  0
 35 32  1  0
 54 48  1  0
 20 11  1  0
 20 15  1  0
M  CHG  1   2   1
M  END
>  <cnnaffinities>  (25) 
[6.84208]

>  <score>  (25) 
6.84208

>  <index>  (25) 
24

>  <Smiles>  (25) 
C([N+](C(C(N1C([C@@]2(C(=O)N(c3c(nc(c4c(c(c(c(c34)[H])[H])[H])[H])[H])[H])C([C@@]2(C(OC(C2(C(OC2([H])[H])([H])[H])[H])([H])[H])([H])[H])[H])([H])[H])c2c(c(Cl)c(c(c2C1=O)[H])[H])[H])([H])[H])([H])[H])([H])[H])([H])[H])([H])([H])[H]

>  <h>  (25) 
<NA>

>  <Training>  (25) 
True

>  <Success>  (25) 
True

>  <enamine_searched>  (25) 
False

>  <enamine_id>  (25) 
nan

$$$$

     RDKit          3D

 68 73  0  0  0  0  0  0  0  0999 V2000
    6.5549    4.3999   21.4110 C   0  0  0  0  0  0  0  0  0  0  0  0
    7.5011    3.9818   22.4376 N   0  0  0  0  0  0  0  0  0  0  0  0
    7.0140    3.3182   23.5270 C   0  0  0  0  0  0  0  0  0  0  0  0
    5.8166    3.1362   23.7066 O   0  0  0  0  0  0  0  0  0  0  0  0
    8.0572    2.8116   24.5324 C   0  0  0  0  0  0  0  0  0  0  0  0
    8.7481    1.6356   24.0193 N   0  0  0  0  0  0  0  0  0  0  0  0
    7.9843    0.4075   23.8433 C   0  0  0  0  0  0  0  0  0  0  0  0
    8.4245   -0.3922   22.5889 C   0  0  2  0  0  0  0  0  0  0  0  0
    7.9472    0.3338   21.3071 C   0  0  0  0  0  0  0  0  0  0  0  0
    8.3948    1.3562   20.8317 O   0  0  0  0  0  0  0  0  0  0  0  0
    6.9096   -0.3779   20.7597 N   0  0  0  0  0  0  0  0  0  0  0  0
    6.1387    0.1400   19.6971 C   0  0  0  0  0  0  0  0  0  0  0  0
    6.4689   -0.1750   18.4088 C   0  0  0  0  0  0  0  0  0  0  0  0
    5.7745    0.2480   17.3253 N   0  0  0  0  0  0  0  0  0  0  0  0
    4.7325    1.0145   17.5437 C   0  0  0  0  0  0  0  0  0  0  0  0
    4.2836    1.4165   18.8354 C   0  0  0  0  0  0  0  0  0  0  0  0
    3.1630    2.2672   19.0298 C   0  0  0  0  0  0  0  0  0  0  0  0
    2.7747    2.6328   20.2896 C   0  0  0  0  0  0  0  0  0  0  0  0
    3.4867    2.1715   21.4215 C   0  0  0  0  0  0  0  0  0  0  0  0
    4.5748    1.3486   21.2615 C   0  0  0  0  0  0  0  0  0  0  0  0
    5.0033    0.9575   19.9618 C   0  0  0  0  0  0  0  0  0  0  0  0
    5.1406    1.0301   22.1338 H   0  0  0  0  0  0  0  0  0  0  0  0
    3.1965    2.4927   22.4174 H   0  0  0  0  0  0  0  0  0  0  0  0
    1.9216    3.2911   20.4288 H   0  0  0  0  0  0  0  0  0  0  0  0
    2.6373    2.6309   18.1510 H   0  0  0  0  0  0  0  0  0  0  0  0
    4.1832    1.3630   16.6689 H   0  0  0  0  0  0  0  0  0  0  0  0
    7.3383   -0.8014   18.2174 H   0  0  0  0  0  0  0  0  0  0  0  0
    6.4949   -1.5254   21.5221 C   0  0  0  0  0  0  0  0  0  0  0  0
    7.6851   -1.7683   22.4576 C   0  0  2  0  0  0  0  0  0  0  0  0
    7.2217   -2.4921   23.7186 C   0  0  0  0  0  0  0  0  0  0  0  0
    8.3452   -3.0155   24.4598 N   0  0  0  0  0  0  0  0  0  0  0  0
    8.1058   -3.5447   25.7337 C   0  0  0  0  0  0  0  0  0  0  0  0
    9.0767   -4.1228   26.5936 C   0  0  0  0  0  0  0  0  0  0  0  0
    8.5343   -4.5705   27.7136 N   0  0  0  0  0  0  0  0  0  0  0  0
    7.2302   -4.3144   27.6070 N   0  0  0  0  0  0  0  0  0  0  0  0
    6.3817   -4.7122   28.7067 C   0  0  0  0  0  0  0  0  0  0  0  0
    5.3401   -4.5077   28.4653 H   0  0  0  0  0  0  0  0  0  0  0  0
    6.6442   -4.1532   29.6091 H   0  0  0  0  0  0  0  0  0  0  0  0
    6.5126   -5.7817   28.9022 H   0  0  0  0  0  0  0  0  0  0  0  0
    6.9149   -3.7037   26.4246 C   0  0  0  0  0  0  0  0  0  0  0  0
    5.8948   -3.4604   26.1454 H   0  0  0  0  0  0  0  0  0  0  0  0
   10.1348   -4.2813   26.4412 H   0  0  0  0  0  0  0  0  0  0  0  0
    9.2036   -2.4808   24.3737 H   0  0  0  0  0  0  0  0  0  0  0  0
    6.5794   -3.3349   23.4311 H   0  0  0  0  0  0  0  0  0  0  0  0
    6.5787   -1.8238   24.3207 H   0  0  0  0  0  0  0  0  0  0  0  0
    8.3780   -2.4449   21.9493 H   0  0  0  0  0  0  0  0  0  0  0  0
    6.3060   -2.3788   20.8602 H   0  0  0  0  0  0  0  0  0  0  0  0
    5.5624   -1.3270   22.0791 H   0  0  0  0  0  0  0  0  0  0  0  0
    9.9421   -0.4476   22.5337 C   0  0  0  0  0  0  0  0  0  0  0  0
   10.5712   -1.2885   21.6055 C   0  0  0  0  0  0  0  0  0  0  0  0
   11.9401   -1.2336   21.4255 C   0  0  0  0  0  0  0  0  0  0  0  0
   12.6428   -2.2128   20.1677 Cl  0  0  0  0  0  0  0  0  0  0  0  0
   12.7360   -0.3839   22.1952 C   0  0  0  0  0  0  0  0  0  0  0  0
   12.1220    0.4580   23.0988 C   0  0  0  0  0  0  0  0  0  0  0  0
   10.7327    0.4823   23.2218 C   0  0  0  0  0  0  0  0  0  0  0  0
   10.1191    1.6178   23.9930 C   0  0  0  0  0  0  0  0  0  0  0  0
   10.8012    2.4952   24.5046 O   0  0  0  0  0  0  0  0  0  0  0  0
   12.6984    1.1440   23.7077 H   0  0  0  0  0  0  0  0  0  0  0  0
   13.8115   -0.3550   22.0660 H   0  0  0  0  0  0  0  0  0  0  0  0
   10.0135   -1.9627   20.9668 H   0  0  0  0  0  0  0  0  0  0  0  0
    8.0977   -0.2180   24.7407 H   0  0  0  0  0  0  0  0  0  0  0  0
    6.9293    0.6810   23.7491 H   0  0  0  0  0  0  0  0  0  0  0  0
    7.5358    2.5948   25.4749 H   0  0  0  0  0  0  0  0  0  0  0  0
    8.8263    3.5642   24.7407 H   0  0  0  0  0  0  0  0  0  0  0  0
    8.4411    3.7532   22.1331 H   0  0  0  0  0  0  0  0  0  0  0  0
    5.7165    4.9080   21.8968 H   0  0  0  0  0  0  0  0  0  0  0  0
    6.1589    3.5408   20.8456 H   0  0  0  0  0  0  0  0  0  0  0  0
    7.0372    5.1010   20.7254 H   0  0  0  0  0  0  0  0  0  0  0  0
  1  2  1  0
  2  3  1  0
  3  4  2  0
  3  5  1  0
  5  6  1  0
  6  7  1  0
  8  7  1  1
  8  9  1  0
  9 10  2  0
  9 11  1  0
 11 12  1  0
 12 13  2  0
 13 14  1  0
 14 15  2  0
 15 16  1  0
 16 17  2  0
 17 18  1  0
 18 19  2  0
 19 20  1  0
 20 21  2  0
 20 22  1  0
 19 23  1  0
 18 24  1  0
 17 25  1  0
 15 26  1  0
 13 27  1  0
 11 28  1  0
 28 29  1  0
 29 30  1  0
 30 31  1  0
 31 32  1  0
 32 33  1  0
 33 34  2  0
 34 35  1  0
 35 36  1  0
 36 37  1  0
 36 38  1  0
 36 39  1  0
 35 40  1  0
 40 41  1  0
 33 42  1  0
 31 43  1  0
 30 44  1  0
 30 45  1  0
 29 46  1  6
 28 47  1  0
 28 48  1  0
  8 49  1  0
 49 50  2  0
 50 51  1  0
 51 52  1  0
 51 53  2  0
 53 54  1  0
 54 55  2  0
 55 56  1  0
 56 57  2  0
 54 58  1  0
 53 59  1  0
 50 60  1  0
  7 61  1  0
  7 62  1  0
  5 63  1  0
  5 64  1  0
  2 65  1  0
  1 66  1  0
  1 67  1  0
  1 68  1  0
 56  6  1  0
 29  8  1  0
 40 32  2  0
 55 49  1  0
 21 12  1  0
 21 16  1  0
M  END
>  <cnnaffinities>  (26) 
[6.61641]

>  <score>  (26) 
6.61641

>  <index>  (26) 
25

>  <Smiles>  (26) 
C(N(C(=O)C(N1C([C@@]2(C(=O)N(c3c(nc(c4c(c(c(c(c34)[H])[H])[H])[H])[H])[H])C([C@@]2(C(N(c2c(nn(C([H])([H])[H])c2[H])[H])[H])([H])[H])[H])([H])[H])c2c(c(Cl)c(c(c2C1=O)[H])[H])[H])([H])[H])([H])[H])[H])([H])([H])[H]

>  <h>  (26) 
<NA>

>  <Training>  (26) 
True

>  <Success>  (26) 
True

>  <enamine_searched>  (26) 
False

>  <enamine_id>  (26) 
nan

$$$$

     RDKit          3D

 43 47  0  0  0  0  0  0  0  0999 V2000
    8.9502    0.4885   20.5999 O   0  0  0  0  0  0  0  0  0  0  0  0
    8.2636   -0.4033   21.0315 C   0  0  0  0  0  0  0  0  0  0  0  0
    8.6346   -1.4460   21.8324 N   0  0  0  0  0  0  0  0  0  0  0  0
    7.5187   -2.1060   22.4737 C   0  0  1  0  0  0  0  0  0  0  0  0
    7.5521   -3.6411   22.5169 C   0  0  0  0  0  0  0  0  0  0  0  0
    7.5895   -3.6249   24.0753 C   0  0  2  0  0  0  0  0  0  0  0  0
    6.4856   -4.3780   24.7798 C   0  0  0  0  0  0  0  0  0  0  0  0
    5.7268   -3.7913   25.7965 C   0  0  0  0  0  0  0  0  0  0  0  0
    4.6927   -4.4765   26.4210 C   0  0  0  0  0  0  0  0  0  0  0  0
    4.3975   -5.7865   26.0483 C   0  0  0  0  0  0  0  0  0  0  0  0
    5.1642   -6.4117   25.0691 C   0  0  0  0  0  0  0  0  0  0  0  0
    6.2056   -5.7135   24.4686 C   0  0  0  0  0  0  0  0  0  0  0  0
    7.1993   -6.5543   23.2997 Cl  0  0  0  0  0  0  0  0  0  0  0  0
    4.9738   -7.4373   24.7658 H   0  0  0  0  0  0  0  0  0  0  0  0
    3.5914   -6.3315   26.5321 H   0  0  0  0  0  0  0  0  0  0  0  0
    4.1210   -3.9785   27.1999 H   0  0  0  0  0  0  0  0  0  0  0  0
    5.9658   -2.7714   26.0887 H   0  0  0  0  0  0  0  0  0  0  0  0
    7.4719   -2.0713   24.0260 C   0  0  0  0  0  0  0  0  0  0  0  0
    8.3082   -1.5299   24.4813 H   0  0  0  0  0  0  0  0  0  0  0  0
    6.5367   -1.6523   24.4112 H   0  0  0  0  0  0  0  0  0  0  0  0
    8.5688   -3.9595   24.4539 H   0  0  0  0  0  0  0  0  0  0  0  0
    8.4412   -4.0596   22.0360 H   0  0  0  0  0  0  0  0  0  0  0  0
    6.6491   -4.0792   22.0840 H   0  0  0  0  0  0  0  0  0  0  0  0
    6.3339   -1.4973   21.7345 C   0  0  0  0  0  0  0  0  0  0  0  0
    5.1614   -1.7514   21.8929 O   0  0  0  0  0  0  0  0  0  0  0  0
    6.8617   -0.5541   20.8409 N   0  0  0  0  0  0  0  0  0  0  0  0
    6.1235    0.0529   19.7796 C   0  0  0  0  0  0  0  0  0  0  0  0
    6.4613   -0.2304   18.4773 C   0  0  0  0  0  0  0  0  0  0  0  0
    5.7866    0.2316   17.3948 N   0  0  0  0  0  0  0  0  0  0  0  0
    4.7599    1.0132   17.6137 C   0  0  0  0  0  0  0  0  0  0  0  0
    4.3133    1.4128   18.9002 C   0  0  0  0  0  0  0  0  0  0  0  0
    3.1926    2.2707   19.0618 C   0  0  0  0  0  0  0  0  0  0  0  0
    2.7856    2.6504   20.3089 C   0  0  0  0  0  0  0  0  0  0  0  0
    3.4917    2.1913   21.4443 C   0  0  0  0  0  0  0  0  0  0  0  0
    4.5793    1.3620   21.3137 C   0  0  0  0  0  0  0  0  0  0  0  0
    5.0156    0.9317   20.0299 C   0  0  0  0  0  0  0  0  0  0  0  0
    5.1057    1.0181   22.1989 H   0  0  0  0  0  0  0  0  0  0  0  0
    3.1672    2.5010   22.4311 H   0  0  0  0  0  0  0  0  0  0  0  0
    1.9310    3.3114   20.4350 H   0  0  0  0  0  0  0  0  0  0  0  0
    2.6771    2.6218   18.1717 H   0  0  0  0  0  0  0  0  0  0  0  0
    4.2261    1.3737   16.7357 H   0  0  0  0  0  0  0  0  0  0  0  0
    7.3035   -0.8805   18.2567 H   0  0  0  0  0  0  0  0  0  0  0  0
    9.5935   -1.6009   22.0985 H   0  0  0  0  0  0  0  0  0  0  0  0
  1  2  2  0
  2  3  1  0
  4  3  1  6
  4  5  1  0
  5  6  1  0
  6  7  1  0
  7  8  2  0
  8  9  1  0
  9 10  2  0
 10 11  1  0
 11 12  2  0
 12 13  1  0
 11 14  1  0
 10 15  1  0
  9 16  1  0
  8 17  1  0
  6 18  1  0
 18 19  1  0
 18 20  1  0
  6 21  1  6
  5 22  1  0
  5 23  1  0
  4 24  1  0
 24 25  2  0
 24 26  1  0
 26 27  1  0
 27 28  2  0
 28 29  1  0
 29 30  2  0
 30 31  1  0
 31 32  2  0
 32 33  1  0
 33 34  2  0
 34 35  1  0
 35 36  2  0
 35 37  1  0
 34 38  1  0
 33 39  1  0
 32 40  1  0
 30 41  1  0
 28 42  1  0
  3 43  1  0
 26  2  1  0
 36 27  1  0
 18  4  1  0
 36 31  1  0
 12  7  1  0
M  END
>  <cnnaffinities>  (27) 
[6.08713, 6.11055]

>  <score>  (27) 
6.08713

>  <index>  (27) 
26

>  <Smiles>  (27) 
O=C1N([C@]2(C([C@](c3c(c(c(c(c3Cl)[H])[H])[H])[H])(C2([H])[H])[H])([H])[H])C(=O)N1c1c(nc(c2c(c(c(c(c12)[H])[H])[H])[H])[H])[H])[H]

>  <h>  (27) 
<NA>

>  <Training>  (27) 
True

>  <Success>  (27) 
True

>  <enamine_searched>  (27) 
False

>  <enamine_id>  (27) 
nan

$$$$

     RDKit          3D

 46 48  0  0  0  0  0  0  0  0999 V2000
    6.8332    3.9221   21.3968 C   0  0  0  0  0  0  0  0  0  0  0  0
    7.1944    3.3884   22.7856 C   0  0  0  0  0  0  0  0  0  0  0  0
    8.4671    2.5040   22.7874 C   0  0  1  0  0  0  0  0  0  0  0  0
    9.3499    2.7066   24.0171 C   0  0  0  0  0  0  0  0  0  0  0  0
    8.9383    1.9323   25.2630 C   0  0  1  0  0  0  0  0  0  0  0  0
    7.8545    2.5945   26.0974 C   0  0  0  0  0  0  0  0  0  0  0  0
    7.7497    1.9906   27.2991 F   0  0  0  0  0  0  0  0  0  0  0  0
    6.6299    2.5323   25.5236 F   0  0  0  0  0  0  0  0  0  0  0  0
    8.1253    3.8962   26.3228 F   0  0  0  0  0  0  0  0  0  0  0  0
    8.6379    0.4832   24.9215 C   0  0  0  0  0  0  0  0  0  0  0  0
    7.6845    0.3236   23.7409 C   0  0  0  0  0  0  0  0  0  0  0  0
    8.1648    1.0808   22.5976 N   0  0  0  0  0  0  0  0  0  0  0  0
    8.0418    0.6573   21.2938 C   0  0  0  0  0  0  0  0  0  0  0  0
    8.7381    1.1311   20.4132 O   0  0  0  0  0  0  0  0  0  0  0  0
    6.9784   -0.3966   20.9157 C   0  0  0  0  0  0  0  0  0  0  0  0
    6.1161    0.0936   19.7711 C   0  0  0  0  0  0  0  0  0  0  0  0
    6.4318   -0.2112   18.4669 C   0  0  0  0  0  0  0  0  0  0  0  0
    5.7641    0.2363   17.3709 N   0  0  0  0  0  0  0  0  0  0  0  0
    4.7382    1.0244   17.5770 C   0  0  0  0  0  0  0  0  0  0  0  0
    4.2852    1.4232   18.8649 C   0  0  0  0  0  0  0  0  0  0  0  0
    3.1773    2.2892   19.0450 C   0  0  0  0  0  0  0  0  0  0  0  0
    2.7743    2.6631   20.2983 C   0  0  0  0  0  0  0  0  0  0  0  0
    3.4690    2.1863   21.4336 C   0  0  0  0  0  0  0  0  0  0  0  0
    4.5486    1.3459   21.2835 C   0  0  0  0  0  0  0  0  0  0  0  0
    4.9909    0.9400   19.9980 C   0  0  0  0  0  0  0  0  0  0  0  0
    5.0681    0.9940   22.1717 H   0  0  0  0  0  0  0  0  0  0  0  0
    3.1483    2.4846   22.4268 H   0  0  0  0  0  0  0  0  0  0  0  0
    1.9270    3.3294   20.4286 H   0  0  0  0  0  0  0  0  0  0  0  0
    2.6632    2.6537   18.1591 H   0  0  0  0  0  0  0  0  0  0  0  0
    4.2076    1.3897   16.6953 H   0  0  0  0  0  0  0  0  0  0  0  0
    7.2809   -0.8530   18.2385 H   0  0  0  0  0  0  0  0  0  0  0  0
    7.5297   -1.2782   20.5708 H   0  0  0  0  0  0  0  0  0  0  0  0
    6.3644   -0.7027   21.7714 H   0  0  0  0  0  0  0  0  0  0  0  0
    6.6702    0.6309   24.0355 H   0  0  0  0  0  0  0  0  0  0  0  0
    7.6697   -0.7259   23.4465 H   0  0  0  0  0  0  0  0  0  0  0  0
    8.2434   -0.0271   25.8037 H   0  0  0  0  0  0  0  0  0  0  0  0
    9.5945    0.0137   24.6625 H   0  0  0  0  0  0  0  0  0  0  0  0
    9.8127    1.8937   25.9100 H   0  0  0  0  0  0  0  0  0  0  0  0
    9.4043    3.7734   24.2516 H   0  0  0  0  0  0  0  0  0  0  0  0
   10.3615    2.3767   23.7539 H   0  0  0  0  0  0  0  0  0  0  0  0
    9.0707    2.7670   21.9150 H   0  0  0  0  0  0  0  0  0  0  0  0
    6.3546    2.8194   23.2054 H   0  0  0  0  0  0  0  0  0  0  0  0
    7.3734    4.2324   23.4693 H   0  0  0  0  0  0  0  0  0  0  0  0
    7.5750    4.6562   21.0875 H   0  0  0  0  0  0  0  0  0  0  0  0
    6.7913    3.1227   20.6440 H   0  0  0  0  0  0  0  0  0  0  0  0
    5.8743    4.4492   21.3883 H   0  0  0  0  0  0  0  0  0  0  0  0
  1  2  1  0
  2  3  1  0
  3  4  1  0
  4  5  1  0
  5  6  1  0
  6  7  1  0
  6  8  1  0
  6  9  1  0
  5 10  1  0
 10 11  1  0
 11 12  1  0
 12 13  1  0
 13 14  2  0
 13 15  1  0
 15 16  1  0
 16 17  2  0
 17 18  1  0
 18 19  2  0
 19 20  1  0
 20 21  2  0
 21 22  1  0
 22 23  2  0
 23 24  1  0
 24 25  2  0
 24 26  1  0
 23 27  1  0
 22 28  1  0
 21 29  1  0
 19 30  1  0
 17 31  1  0
 15 32  1  0
 15 33  1  0
 11 34  1  0
 11 35  1  0
 10 36  1  0
 10 37  1  0
  5 38  1  1
  4 39  1  0
  4 40  1  0
  3 41  1  6
  2 42  1  0
  2 43  1  0
  1 44  1  0
  1 45  1  0
  1 46  1  0
 12  3  1  0
 25 16  1  0
 25 20  1  0
M  END
>  <cnnaffinities>  (28) 
[5.54772, 5.5476, 5.69174]

>  <score>  (28) 
5.54772

>  <index>  (28) 
27

>  <Smiles>  (28) 
C(C([C@]1(C([C@@](C(F)(F)F)(C(C(N1C(=O)C(c1c(nc(c2c(c(c(c(c12)[H])[H])[H])[H])[H])[H])([H])[H])([H])[H])([H])[H])[H])([H])[H])[H])([H])[H])([H])([H])[H]

>  <h>  (28) 
<NA>

>  <Training>  (28) 
True

>  <Success>  (28) 
True

>  <enamine_searched>  (28) 
False

>  <enamine_id>  (28) 
nan

$$$$

     RDKit          3D

 70 75  0  0  0  0  0  0  0  0999 V2000
    6.5742    4.4721   21.3974 C   0  0  0  0  0  0  0  0  0  0  0  0
    6.9499    3.4727   22.3984 N   0  0  0  0  0  4  0  0  0  0  0  0
    7.9657    3.9105   23.3785 C   0  0  0  0  0  0  0  0  0  0  0  0
    8.1610    2.8640   24.4763 C   0  0  0  0  0  0  0  0  0  0  0  0
    8.7818    1.6484   23.9734 N   0  0  0  0  0  0  0  0  0  0  0  0
    8.0460    0.4068   23.8490 C   0  0  0  0  0  0  0  0  0  0  0  0
    8.4379   -0.3981   22.5822 C   0  0  2  0  0  0  0  0  0  0  0  0
    7.8406    0.3236   21.3679 C   0  0  0  0  0  0  0  0  0  0  0  0
    8.0727    1.4718   21.0174 O   0  0  0  0  0  0  0  0  0  0  0  0
    6.8895   -0.4649   20.7957 N   0  0  0  0  0  0  0  0  0  0  0  0
    6.1132    0.0722   19.7364 C   0  0  0  0  0  0  0  0  0  0  0  0
    6.4637   -0.2176   18.4446 C   0  0  0  0  0  0  0  0  0  0  0  0
    5.7853    0.2302   17.3609 N   0  0  0  0  0  0  0  0  0  0  0  0
    4.7566    1.0105   17.5867 C   0  0  0  0  0  0  0  0  0  0  0  0
    4.3237    1.4258   18.8796 C   0  0  0  0  0  0  0  0  0  0  0  0
    3.2185    2.2978   19.0626 C   0  0  0  0  0  0  0  0  0  0  0  0
    2.8289    2.6813   20.3155 C   0  0  0  0  0  0  0  0  0  0  0  0
    3.5286    2.2189   21.4526 C   0  0  0  0  0  0  0  0  0  0  0  0
    4.6082    1.3781   21.3038 C   0  0  0  0  0  0  0  0  0  0  0  0
    5.0299    0.9526   20.0089 C   0  0  0  0  0  0  0  0  0  0  0  0
    5.1259    1.0156   22.1908 H   0  0  0  0  0  0  0  0  0  0  0  0
    3.2107    2.5341   22.4432 H   0  0  0  0  0  0  0  0  0  0  0  0
    1.9820    3.3491   20.4442 H   0  0  0  0  0  0  0  0  0  0  0  0
    2.6984    2.6485   18.1749 H   0  0  0  0  0  0  0  0  0  0  0  0
    4.1991    1.3654   16.7181 H   0  0  0  0  0  0  0  0  0  0  0  0
    7.3387   -0.8353   18.2505 H   0  0  0  0  0  0  0  0  0  0  0  0
    6.4751   -1.5667   21.6481 C   0  0  0  0  0  0  0  0  0  0  0  0
    7.7223   -1.7753   22.5218 C   0  0  2  0  0  0  0  0  0  0  0  0
    7.4396   -2.4167   23.8702 C   0  0  0  0  0  0  0  0  0  0  0  0
    6.8616   -3.6870   23.6593 O   0  0  0  0  0  0  0  0  0  0  0  0
    6.5329   -4.3092   24.8769 C   0  0  0  0  0  0  0  0  0  0  0  0
    5.8796   -5.6419   24.5973 C   0  0  0  0  0  0  0  0  0  0  0  0
    5.5143   -6.1579   25.8249 F   0  0  0  0  0  0  0  0  0  0  0  0
    4.7678   -5.7212   23.5539 C   0  0  0  0  0  0  0  0  0  0  0  0
    5.5842   -6.5332   22.6998 O   0  0  0  0  0  0  0  0  0  0  0  0
    6.6237   -6.6181   23.6835 C   0  0  0  0  0  0  0  0  0  0  0  0
    6.7230   -7.6233   24.1105 H   0  0  0  0  0  0  0  0  0  0  0  0
    7.5878   -6.2818   23.2876 H   0  0  0  0  0  0  0  0  0  0  0  0
    4.4647   -4.7917   23.0623 H   0  0  0  0  0  0  0  0  0  0  0  0
    3.8879   -6.2562   23.9328 H   0  0  0  0  0  0  0  0  0  0  0  0
    7.4366   -4.4805   25.4867 H   0  0  0  0  0  0  0  0  0  0  0  0
    5.8304   -3.6908   25.4601 H   0  0  0  0  0  0  0  0  0  0  0  0
    8.3777   -2.5064   24.4474 H   0  0  0  0  0  0  0  0  0  0  0  0
    6.7459   -1.7820   24.4468 H   0  0  0  0  0  0  0  0  0  0  0  0
    8.3672   -2.4556   21.9729 H   0  0  0  0  0  0  0  0  0  0  0  0
    6.2105   -2.4424   21.0490 H   0  0  0  0  0  0  0  0  0  0  0  0
    5.6018   -1.2906   22.2583 H   0  0  0  0  0  0  0  0  0  0  0  0
    9.9491   -0.4563   22.4677 C   0  0  0  0  0  0  0  0  0  0  0  0
   10.5798   -1.3694   21.6094 C   0  0  0  0  0  0  0  0  0  0  0  0
   11.9355   -1.2618   21.3563 C   0  0  0  0  0  0  0  0  0  0  0  0
   12.6568   -2.2539   20.1142 Cl  0  0  0  0  0  0  0  0  0  0  0  0
   12.7216   -0.3275   22.0329 C   0  0  0  0  0  0  0  0  0  0  0  0
   12.1192    0.5310   22.9221 C   0  0  0  0  0  0  0  0  0  0  0  0
   10.7359    0.5247   23.0800 C   0  0  0  0  0  0  0  0  0  0  0  0
   10.1347    1.6809   23.8153 C   0  0  0  0  0  0  0  0  0  0  0  0
   10.8225    2.6242   24.1965 O   0  0  0  0  0  0  0  0  0  0  0  0
   12.7019    1.2339   23.5069 H   0  0  0  0  0  0  0  0  0  0  0  0
   13.7875   -0.2778   21.8474 H   0  0  0  0  0  0  0  0  0  0  0  0
   10.0346   -2.1643   21.1111 H   0  0  0  0  0  0  0  0  0  0  0  0
    8.2416   -0.2080   24.7336 H   0  0  0  0  0  0  0  0  0  0  0  0
    6.9720    0.6194   23.8079 H   0  0  0  0  0  0  0  0  0  0  0  0
    7.2028    2.6025   24.9369 H   0  0  0  0  0  0  0  0  0  0  0  0
    8.8281    3.2563   25.2457 H   0  0  0  0  0  0  0  0  0  0  0  0
    8.9200    4.0656   22.8655 H   0  0  0  0  0  0  0  0  0  0  0  0
    7.6740    4.8677   23.8205 H   0  0  0  0  0  0  0  0  0  0  0  0
    7.3045    2.6298   21.9157 H   0  0  0  0  0  0  0  0  0  0  0  0
    6.0891    3.2047   22.9024 H   0  0  0  0  0  0  0  0  0  0  0  0
    5.6822    4.1344   20.8636 H   0  0  0  0  0  0  0  0  0  0  0  0
    7.3841    4.6081   20.6793 H   0  0  0  0  0  0  0  0  0  0  0  0
    6.3615    5.4378   21.8639 H   0  0  0  0  0  0  0  0  0  0  0  0
  1  2  1  0
  2  3  1  0
  3  4  1  0
  4  5  1  0
  5  6  1  0
  7  6  1  1
  7  8  1  0
  8  9  2  0
  8 10  1  0
 10 11  1  0
 11 12  2  0
 12 13  1  0
 13 14  2  0
 14 15  1  0
 15 16  2  0
 16 17  1  0
 17 18  2  0
 18 19  1  0
 19 20  2  0
 19 21  1  0
 18 22  1  0
 17 23  1  0
 16 24  1  0
 14 25  1  0
 12 26  1  0
 10 27  1  0
 27 28  1  0
 28 29  1  0
 29 30  1  0
 30 31  1  0
 31 32  1  0
 32 33  1  0
 32 34  1  0
 34 35  1  0
 35 36  1  0
 36 37  1  0
 36 38  1  0
 34 39  1  0
 34 40  1  0
 31 41  1  0
 31 42  1  0
 29 43  1  0
 29 44  1  0
 28 45  1  6
 27 46  1  0
 27 47  1  0
  7 48  1  0
 48 49  2  0
 49 50  1  0
 50 51  1  0
 50 52  2  0
 52 53  1  0
 53 54  2  0
 54 55  1  0
 55 56  2  0
 53 57  1  0
 52 58  1  0
 49 59  1  0
  6 60  1  0
  6 61  1  0
  4 62  1  0
  4 63  1  0
  3 64  1  0
  3 65  1  0
  2 66  1  0
  2 67  1  0
  1 68  1  0
  1 69  1  0
  1 70  1  0
 55  5  1  0
 28  7  1  0
 36 32  1  0
 54 48  1  0
 20 11  1  0
 20 15  1  0
M  CHG  1   2   1
M  END
>  <cnnaffinities>  (29) 
[6.87283, 6.5525]

>  <score>  (29) 
6.87283

>  <index>  (29) 
28

>  <Smiles>  (29) 
C([N+](C(C(N1C([C@@]2(C(=O)N(c3c(nc(c4c(c(c(c(c34)[H])[H])[H])[H])[H])[H])C([C@@]2(C(OC(C2(F)C(OC2([H])[H])([H])[H])([H])[H])([H])[H])[H])([H])[H])c2c(c(Cl)c(c(c2C1=O)[H])[H])[H])([H])[H])([H])[H])([H])[H])([H])[H])([H])([H])[H]

>  <h>  (29) 
<NA>

>  <Training>  (29) 
True

>  <Success>  (29) 
True

>  <enamine_searched>  (29) 
False

>  <enamine_id>  (29) 
nan

$$$$

     RDKit          3D

 67 72  0  0  0  0  0  0  0  0999 V2000
    6.6154    4.3727   21.3152 C   0  0  0  0  0  0  0  0  0  0  0  0
    6.9987    3.3956   22.3371 N   0  0  0  0  0  4  0  0  0  0  0  0
    8.0515    3.8467   23.2721 C   0  0  0  0  0  0  0  0  0  0  0  0
    8.2459    2.8289   24.4028 C   0  0  0  0  0  0  0  0  0  0  0  0
    8.8760    1.5943   23.9414 N   0  0  0  0  0  0  0  0  0  0  0  0
    8.1415    0.3491   23.8072 C   0  0  0  0  0  0  0  0  0  0  0  0
    8.5234   -0.4339   22.5198 C   0  0  2  0  0  0  0  0  0  0  0  0
    7.8979    0.3065   21.3248 C   0  0  0  0  0  0  0  0  0  0  0  0
    8.1673    1.4381   20.9502 O   0  0  0  0  0  0  0  0  0  0  0  0
    6.8828   -0.4435   20.8062 N   0  0  0  0  0  0  0  0  0  0  0  0
    6.1082    0.0806   19.7387 C   0  0  0  0  0  0  0  0  0  0  0  0
    6.4601   -0.2104   18.4459 C   0  0  0  0  0  0  0  0  0  0  0  0
    5.7799    0.2306   17.3621 N   0  0  0  0  0  0  0  0  0  0  0  0
    4.7500    1.0133   17.5825 C   0  0  0  0  0  0  0  0  0  0  0  0
    4.3144    1.4320   18.8734 C   0  0  0  0  0  0  0  0  0  0  0  0
    3.2086    2.3048   19.0580 C   0  0  0  0  0  0  0  0  0  0  0  0
    2.8284    2.6909   20.3152 C   0  0  0  0  0  0  0  0  0  0  0  0
    3.5287    2.2277   21.4483 C   0  0  0  0  0  0  0  0  0  0  0  0
    4.6036    1.3824   21.2948 C   0  0  0  0  0  0  0  0  0  0  0  0
    5.0204    0.9600   20.0000 C   0  0  0  0  0  0  0  0  0  0  0  0
    5.1294    1.0196   22.1738 H   0  0  0  0  0  0  0  0  0  0  0  0
    3.2209    2.5479   22.4404 H   0  0  0  0  0  0  0  0  0  0  0  0
    1.9857    3.3622   20.4459 H   0  0  0  0  0  0  0  0  0  0  0  0
    2.6854    2.6613   18.1764 H   0  0  0  0  0  0  0  0  0  0  0  0
    4.2042    1.3670   16.7084 H   0  0  0  0  0  0  0  0  0  0  0  0
    7.3295   -0.8372   18.2551 H   0  0  0  0  0  0  0  0  0  0  0  0
    6.4920   -1.5418   21.6723 C   0  0  0  0  0  0  0  0  0  0  0  0
    7.8095   -1.8094   22.4161 C   0  0  2  0  0  0  0  0  0  0  0  0
    7.6304   -2.5810   23.7230 C   0  0  0  0  0  0  0  0  0  0  0  0
    7.0555   -3.8952   23.5126 N   0  0  0  0  0  0  0  0  0  0  0  0
    5.7646   -4.1967   23.7360 C   0  0  0  0  0  0  0  0  0  0  0  0
    4.9796   -3.2643   24.3172 N   0  0  0  0  0  0  0  0  0  0  0  0
    3.7578   -3.6867   24.5971 C   0  0  0  0  0  0  0  0  0  0  0  0
    3.2322   -4.8721   24.2984 N   0  0  0  0  0  0  0  0  0  0  0  0
    4.0868   -5.6779   23.6573 C   0  0  0  0  0  0  0  0  0  0  0  0
    5.3462   -5.4238   23.3546 N   0  0  0  0  0  0  0  0  0  0  0  0
    3.7071   -6.6528   23.3477 H   0  0  0  0  0  0  0  0  0  0  0  0
    3.1229   -2.9819   25.1340 H   0  0  0  0  0  0  0  0  0  0  0  0
    7.6425   -4.6611   23.2215 H   0  0  0  0  0  0  0  0  0  0  0  0
    6.9436   -2.0385   24.3753 H   0  0  0  0  0  0  0  0  0  0  0  0
    8.5930   -2.6862   24.2373 H   0  0  0  0  0  0  0  0  0  0  0  0
    8.4111   -2.4299   21.7496 H   0  0  0  0  0  0  0  0  0  0  0  0
    5.6841   -1.2625   22.3751 H   0  0  0  0  0  0  0  0  0  0  0  0
    6.1481   -2.3962   21.0840 H   0  0  0  0  0  0  0  0  0  0  0  0
   10.0342   -0.4923   22.3933 C   0  0  0  0  0  0  0  0  0  0  0  0
   10.6659   -1.4267   21.5572 C   0  0  0  0  0  0  0  0  0  0  0  0
   12.0056   -1.2906   21.2478 C   0  0  0  0  0  0  0  0  0  0  0  0
   12.6919   -2.3779   20.0660 Cl  0  0  0  0  0  0  0  0  0  0  0  0
   12.7936   -0.3092   21.8489 C   0  0  0  0  0  0  0  0  0  0  0  0
   12.2008    0.5514   22.7441 C   0  0  0  0  0  0  0  0  0  0  0  0
   10.8267    0.5058   22.9702 C   0  0  0  0  0  0  0  0  0  0  0  0
   10.2255    1.6426   23.7398 C   0  0  0  0  0  0  0  0  0  0  0  0
   10.9076    2.5902   24.1124 O   0  0  0  0  0  0  0  0  0  0  0  0
   12.7814    1.3019   23.2645 H   0  0  0  0  0  0  0  0  0  0  0  0
   13.8463   -0.2268   21.6078 H   0  0  0  0  0  0  0  0  0  0  0  0
   10.1371   -2.2547   21.0972 H   0  0  0  0  0  0  0  0  0  0  0  0
    7.0684    0.5701   23.7721 H   0  0  0  0  0  0  0  0  0  0  0  0
    8.3434   -0.2861   24.6790 H   0  0  0  0  0  0  0  0  0  0  0  0
    8.9017    3.2517   25.1670 H   0  0  0  0  0  0  0  0  0  0  0  0
    7.2840    2.5848   24.8703 H   0  0  0  0  0  0  0  0  0  0  0  0
    9.0013    3.9648   22.7373 H   0  0  0  0  0  0  0  0  0  0  0  0
    7.7873    4.8274   23.6892 H   0  0  0  0  0  0  0  0  0  0  0  0
    7.3448    2.5420   21.8589 H   0  0  0  0  0  0  0  0  0  0  0  0
    6.1526    3.1434   22.8750 H   0  0  0  0  0  0  0  0  0  0  0  0
    7.3913    4.4338   20.5490 H   0  0  0  0  0  0  0  0  0  0  0  0
    6.4763    5.3674   21.7542 H   0  0  0  0  0  0  0  0  0  0  0  0
    5.6796    4.0529   20.8496 H   0  0  0  0  0  0  0  0  0  0  0  0
  1  2  1  0
  2  3  1  0
  3  4  1  0
  4  5  1  0
  5  6  1  0
  7  6  1  1
  7  8  1  0
  8  9  2  0
  8 10  1  0
 10 11  1  0
 11 12  2  0
 12 13  1  0
 13 14  2  0
 14 15  1  0
 15 16  2  0
 16 17  1  0
 17 18  2  0
 18 19  1  0
 19 20  2  0
 19 21  1  0
 18 22  1  0
 17 23  1  0
 16 24  1  0
 14 25  1  0
 12 26  1  0
 10 27  1  0
 27 28  1  0
 28 29  1  0
 29 30  1  0
 30 31  1  0
 31 32  2  0
 32 33  1  0
 33 34  2  0
 34 35  1  0
 35 36  2  0
 35 37  1  0
 33 38  1  0
 30 39  1  0
 29 40  1  0
 29 41  1  0
 28 42  1  6
 27 43  1  0
 27 44  1  0
  7 45  1  0
 45 46  2  0
 46 47  1  0
 47 48  1  0
 47 49  2  0
 49 50  1  0
 50 51  2  0
 51 52  1  0
 52 53  2  0
 50 54  1  0
 49 55  1  0
 46 56  1  0
  6 57  1  0
  6 58  1  0
  4 59  1  0
  4 60  1  0
  3 61  1  0
  3 62  1  0
  2 63  1  0
  2 64  1  0
  1 65  1  0
  1 66  1  0
  1 67  1  0
 52  5  1  0
 28  7  1  0
 36 31  1  0
 51 45  1  0
 20 11  1  0
 20 15  1  0
M  CHG  1   2   1
M  END
>  <cnnaffinities>  (30) 
[6.84643, 6.8427]

>  <score>  (30) 
6.84643

>  <index>  (30) 
29

>  <Smiles>  (30) 
C([N+](C(C(N1C([C@@]2(C(=O)N(c3c(nc(c4c(c(c(c(c34)[H])[H])[H])[H])[H])[H])C([C@@]2(C(N(c2nc(nc(n2)[H])[H])[H])([H])[H])[H])([H])[H])c2c(c(Cl)c(c(c2C1=O)[H])[H])[H])([H])[H])([H])[H])([H])[H])([H])[H])([H])([H])[H]

>  <h>  (30) 
<NA>

>  <Training>  (30) 
True

>  <Success>  (30) 
True

>  <enamine_searched>  (30) 
False

>  <enamine_id>  (30) 
nan

$$$$

     RDKit          3D

 66 71  0  0  0  0  0  0  0  0999 V2000
    6.5915    4.3815   21.3750 C   0  0  0  0  0  0  0  0  0  0  0  0
    7.5788    3.9636   22.3604 N   0  0  0  0  0  0  0  0  0  0  0  0
    7.1080    3.3076   23.4672 C   0  0  0  0  0  0  0  0  0  0  0  0
    5.9147    3.1064   23.6469 O   0  0  0  0  0  0  0  0  0  0  0  0
    8.1479    2.8105   24.4667 C   0  0  0  0  0  0  0  0  0  0  0  0
    8.8140    1.6273   23.9579 N   0  0  0  0  0  0  0  0  0  0  0  0
    8.0578    0.3854   23.8331 C   0  0  0  0  0  0  0  0  0  0  0  0
    8.4758   -0.4160   22.5680 C   0  0  2  0  0  0  0  0  0  0  0  0
    7.9778    0.2719   21.2747 C   0  0  0  0  0  0  0  0  0  0  0  0
    8.4566    1.2423   20.7209 O   0  0  0  0  0  0  0  0  0  0  0  0
    6.8840   -0.4214   20.8122 N   0  0  0  0  0  0  0  0  0  0  0  0
    6.1186    0.0906   19.7407 C   0  0  0  0  0  0  0  0  0  0  0  0
    6.4698   -0.2028   18.4488 C   0  0  0  0  0  0  0  0  0  0  0  0
    5.7917    0.2318   17.3596 N   0  0  0  0  0  0  0  0  0  0  0  0
    4.7516    1.0022   17.5765 C   0  0  0  0  0  0  0  0  0  0  0  0
    4.2988    1.4048   18.8663 C   0  0  0  0  0  0  0  0  0  0  0  0
    3.1857    2.2667   19.0467 C   0  0  0  0  0  0  0  0  0  0  0  0
    2.7893    2.6359   20.3029 C   0  0  0  0  0  0  0  0  0  0  0  0
    3.4899    2.1745   21.4402 C   0  0  0  0  0  0  0  0  0  0  0  0
    4.5732    1.3407   21.2944 C   0  0  0  0  0  0  0  0  0  0  0  0
    4.9993    0.9336   19.9980 C   0  0  0  0  0  0  0  0  0  0  0  0
    5.1312    1.0300   22.1736 H   0  0  0  0  0  0  0  0  0  0  0  0
    3.1882    2.4985   22.4312 H   0  0  0  0  0  0  0  0  0  0  0  0
    1.9344    3.2937   20.4305 H   0  0  0  0  0  0  0  0  0  0  0  0
    2.6713    2.6288   18.1618 H   0  0  0  0  0  0  0  0  0  0  0  0
    4.2110    1.3575   16.7012 H   0  0  0  0  0  0  0  0  0  0  0  0
    7.3410   -0.8283   18.2683 H   0  0  0  0  0  0  0  0  0  0  0  0
    6.4965   -1.5530   21.6285 C   0  0  0  0  0  0  0  0  0  0  0  0
    7.7544   -1.7988   22.4767 C   0  0  2  0  0  0  0  0  0  0  0  0
    7.4731   -2.5348   23.7985 C   0  0  0  0  0  0  0  0  0  0  0  0
    6.9441   -3.9378   23.5830 C   0  0  0  0  0  0  0  0  0  0  0  0
    5.5686   -4.1914   23.5423 C   0  0  0  0  0  0  0  0  0  0  0  0
    5.0823   -5.4798   23.3312 C   0  0  0  0  0  0  0  0  0  0  0  0
    5.9678   -6.5392   23.1470 C   0  0  0  0  0  0  0  0  0  0  0  0
    7.3397   -6.3022   23.1883 C   0  0  0  0  0  0  0  0  0  0  0  0
    7.8214   -5.0124   23.4002 C   0  0  0  0  0  0  0  0  0  0  0  0
    8.8988   -4.8456   23.4368 H   0  0  0  0  0  0  0  0  0  0  0  0
    8.0394   -7.1273   23.0670 H   0  0  0  0  0  0  0  0  0  0  0  0
    5.5900   -7.5468   22.9823 H   0  0  0  0  0  0  0  0  0  0  0  0
    4.0088   -5.6602   23.3196 H   0  0  0  0  0  0  0  0  0  0  0  0
    4.8653   -3.3703   23.6877 H   0  0  0  0  0  0  0  0  0  0  0  0
    6.7468   -1.9618   24.3948 H   0  0  0  0  0  0  0  0  0  0  0  0
    8.4092   -2.5811   24.3731 H   0  0  0  0  0  0  0  0  0  0  0  0
    8.4018   -2.4558   21.8862 H   0  0  0  0  0  0  0  0  0  0  0  0
    5.6113   -1.3257   22.2476 H   0  0  0  0  0  0  0  0  0  0  0  0
    6.2482   -2.4230   21.0077 H   0  0  0  0  0  0  0  0  0  0  0  0
    9.9870   -0.4769   22.5047 C   0  0  0  0  0  0  0  0  0  0  0  0
   10.6058   -1.3651   21.6116 C   0  0  0  0  0  0  0  0  0  0  0  0
   11.9687   -1.2907   21.3982 C   0  0  0  0  0  0  0  0  0  0  0  0
   12.6748   -2.2723   20.1416 Cl  0  0  0  0  0  0  0  0  0  0  0  0
   12.7733   -0.4124   22.1297 C   0  0  0  0  0  0  0  0  0  0  0  0
   12.1730    0.4347   23.0388 C   0  0  0  0  0  0  0  0  0  0  0  0
   10.7844    0.4673   23.1636 C   0  0  0  0  0  0  0  0  0  0  0  0
   10.1817    1.6203   23.9089 C   0  0  0  0  0  0  0  0  0  0  0  0
   10.8714    2.5147   24.3871 O   0  0  0  0  0  0  0  0  0  0  0  0
   12.7532    1.1306   23.6344 H   0  0  0  0  0  0  0  0  0  0  0  0
   13.8408   -0.3690   21.9396 H   0  0  0  0  0  0  0  0  0  0  0  0
   10.0450   -2.0979   21.0386 H   0  0  0  0  0  0  0  0  0  0  0  0
    8.2325   -0.2429   24.7213 H   0  0  0  0  0  0  0  0  0  0  0  0
    6.9900    0.6312   23.7922 H   0  0  0  0  0  0  0  0  0  0  0  0
    8.9275    3.5479   24.6738 H   0  0  0  0  0  0  0  0  0  0  0  0
    7.6427    2.5961   25.4109 H   0  0  0  0  0  0  0  0  0  0  0  0
    8.4903    3.7262   21.9851 H   0  0  0  0  0  0  0  0  0  0  0  0
    5.7594    4.8580   21.8985 H   0  0  0  0  0  0  0  0  0  0  0  0
    6.1885    3.5220   20.8186 H   0  0  0  0  0  0  0  0  0  0  0  0
    7.0185    5.1071   20.6772 H   0  0  0  0  0  0  0  0  0  0  0  0
  1  2  1  0
  2  3  1  0
  3  4  2  0
  3  5  1  0
  5  6  1  0
  6  7  1  0
  8  7  1  1
  8  9  1  0
  9 10  2  0
  9 11  1  0
 11 12  1  0
 12 13  2  0
 13 14  1  0
 14 15  2  0
 15 16  1  0
 16 17  2  0
 17 18  1  0
 18 19  2  0
 19 20  1  0
 20 21  2  0
 20 22  1  0
 19 23  1  0
 18 24  1  0
 17 25  1  0
 15 26  1  0
 13 27  1  0
 11 28  1  0
 28 29  1  0
 29 30  1  0
 30 31  1  0
 31 32  2  0
 32 33  1  0
 33 34  2  0
 34 35  1  0
 35 36  2  0
 36 37  1  0
 35 38  1  0
 34 39  1  0
 33 40  1  0
 32 41  1  0
 30 42  1  0
 30 43  1  0
 29 44  1  6
 28 45  1  0
 28 46  1  0
  8 47  1  0
 47 48  2  0
 48 49  1  0
 49 50  1  0
 49 51  2  0
 51 52  1  0
 52 53  2  0
 53 54  1  0
 54 55  2  0
 52 56  1  0
 51 57  1  0
 48 58  1  0
  7 59  1  0
  7 60  1  0
  5 61  1  0
  5 62  1  0
  2 63  1  0
  1 64  1  0
  1 65  1  0
  1 66  1  0
 54  6  1  0
 29  8  1  0
 36 31  1  0
 53 47  1  0
 21 12  1  0
 21 16  1  0
M  END
>  <cnnaffinities>  (31) 
[7.08557, 7.0978, 7.3338, 7.33645]

>  <score>  (31) 
7.08557

>  <index>  (31) 
30

>  <Smiles>  (31) 
C(N(C(=O)C(N1C([C@@]2(C(=O)N(c3c(nc(c4c(c(c(c(c34)[H])[H])[H])[H])[H])[H])C([C@@]2(C(c2c(c(c(c(c2[H])[H])[H])[H])[H])([H])[H])[H])([H])[H])c2c(c(Cl)c(c(c2C1=O)[H])[H])[H])([H])[H])([H])[H])[H])([H])([H])[H]

>  <h>  (31) 
<NA>

>  <Training>  (31) 
True

>  <Success>  (31) 
True

>  <enamine_searched>  (31) 
False

>  <enamine_id>  (31) 
nan

$$$$

     RDKit          3D

 64 70  0  0  0  0  0  0  0  0999 V2000
   10.6432    2.6575   24.4602 O   0  0  0  0  0  0  0  0  0  0  0  0
   10.0141    1.7318   23.9777 C   0  0  0  0  0  0  0  0  0  0  0  0
   10.6962    0.6033   23.2535 C   0  0  0  0  0  0  0  0  0  0  0  0
   12.0916    0.6160   23.1482 C   0  0  0  0  0  0  0  0  0  0  0  0
   12.7410   -0.2384   22.2757 C   0  0  0  0  0  0  0  0  0  0  0  0
   11.9714   -1.0954   21.4830 C   0  0  0  0  0  0  0  0  0  0  0  0
   12.6923   -1.9835   20.1616 Cl  0  0  0  0  0  0  0  0  0  0  0  0
   10.6045   -1.1887   21.6556 C   0  0  0  0  0  0  0  0  0  0  0  0
    9.9469   -0.3515   22.5629 C   0  0  0  0  0  0  0  0  0  0  0  0
    8.4356   -0.3650   22.6049 C   0  0  1  0  0  0  0  0  0  0  0  0
    7.9584    0.4094   23.8610 C   0  0  0  0  0  0  0  0  0  0  0  0
    8.6389    1.6829   23.9960 N   0  0  0  0  0  0  0  0  0  0  0  0
    7.9100    2.8877   24.3390 C   0  0  0  0  0  0  0  0  0  0  0  0
    7.5735    3.7498   23.1672 C   0  0  0  0  0  0  0  0  0  0  0  0
    7.9708    4.9455   22.8808 N   0  0  0  0  0  0  0  0  0  0  0  0
    7.2127    5.3552   21.7912 N   0  0  0  0  0  0  0  0  0  0  0  0
    6.4263    4.3770   21.5121 C   0  0  0  0  0  0  0  0  0  0  0  0
    6.5934    3.3166   22.3406 O   0  0  0  0  0  0  0  0  0  0  0  0
    5.6504    4.3415   20.7588 H   0  0  0  0  0  0  0  0  0  0  0  0
    8.5106    3.4655   25.0441 H   0  0  0  0  0  0  0  0  0  0  0  0
    6.9665    2.6114   24.8209 H   0  0  0  0  0  0  0  0  0  0  0  0
    6.8810    0.5947   23.7958 H   0  0  0  0  0  0  0  0  0  0  0  0
    8.1485   -0.1911   24.7604 H   0  0  0  0  0  0  0  0  0  0  0  0
    7.9012    0.3268   21.3392 C   0  0  0  0  0  0  0  0  0  0  0  0
    8.2775    1.3752   20.8634 O   0  0  0  0  0  0  0  0  0  0  0  0
    6.8791   -0.4398   20.8279 N   0  0  0  0  0  0  0  0  0  0  0  0
    6.1038    0.0595   19.7562 C   0  0  0  0  0  0  0  0  0  0  0  0
    6.4620   -0.2235   18.4657 C   0  0  0  0  0  0  0  0  0  0  0  0
    5.7942    0.2249   17.3744 N   0  0  0  0  0  0  0  0  0  0  0  0
    4.7591    1.0015   17.5852 C   0  0  0  0  0  0  0  0  0  0  0  0
    4.3021    1.3961   18.8766 C   0  0  0  0  0  0  0  0  0  0  0  0
    3.1976    2.2704   19.0536 C   0  0  0  0  0  0  0  0  0  0  0  0
    2.7828    2.6170   20.3082 C   0  0  0  0  0  0  0  0  0  0  0  0
    3.4476    2.1109   21.4472 C   0  0  0  0  0  0  0  0  0  0  0  0
    4.5315    1.2771   21.3054 C   0  0  0  0  0  0  0  0  0  0  0  0
    4.9814    0.8994   20.0088 C   0  0  0  0  0  0  0  0  0  0  0  0
    5.0600    0.9278   22.1888 H   0  0  0  0  0  0  0  0  0  0  0  0
    3.1076    2.4001   22.4376 H   0  0  0  0  0  0  0  0  0  0  0  0
    1.9361    3.2854   20.4376 H   0  0  0  0  0  0  0  0  0  0  0  0
    2.6982    2.6524   18.1675 H   0  0  0  0  0  0  0  0  0  0  0  0
    4.2220    1.3691   16.7094 H   0  0  0  0  0  0  0  0  0  0  0  0
    7.3392   -0.8392   18.2793 H   0  0  0  0  0  0  0  0  0  0  0  0
    6.5505   -1.6055   21.6210 C   0  0  0  0  0  0  0  0  0  0  0  0
    7.7906   -1.7725   22.5095 C   0  0  2  0  0  0  0  0  0  0  0  0
    7.5255   -2.4485   23.8522 C   0  0  0  0  0  0  0  0  0  0  0  0
    7.1258   -3.8216   23.6617 N   0  0  0  0  0  0  0  0  0  0  0  0
    6.6049   -4.5901   24.6526 C   0  0  0  0  0  0  0  0  0  0  0  0
    6.6871   -4.2297   26.0128 C   0  0  0  0  0  0  0  0  0  0  0  0
    6.0469   -5.0625   26.9060 C   0  0  0  0  0  0  0  0  0  0  0  0
    5.4090   -6.1850   26.5420 N   0  0  0  0  0  0  0  0  0  0  0  0
    5.4364   -6.4411   25.2377 C   0  0  0  0  0  0  0  0  0  0  0  0
    5.9844   -5.7173   24.2677 N   0  0  0  0  0  0  0  0  0  0  0  0
    4.9273   -7.3512   24.9154 H   0  0  0  0  0  0  0  0  0  0  0  0
    6.0311   -4.8123   27.9693 H   0  0  0  0  0  0  0  0  0  0  0  0
    7.2055   -3.3321   26.3438 H   0  0  0  0  0  0  0  0  0  0  0  0
    7.0203   -4.1917   22.7295 H   0  0  0  0  0  0  0  0  0  0  0  0
    8.4437   -2.4048   24.4592 H   0  0  0  0  0  0  0  0  0  0  0  0
    6.7384   -1.9002   24.3971 H   0  0  0  0  0  0  0  0  0  0  0  0
    8.4836   -2.4238   21.9727 H   0  0  0  0  0  0  0  0  0  0  0  0
    5.6419   -1.4480   22.2230 H   0  0  0  0  0  0  0  0  0  0  0  0
    6.3770   -2.4698   20.9728 H   0  0  0  0  0  0  0  0  0  0  0  0
   10.0615   -1.9017   21.0475 H   0  0  0  0  0  0  0  0  0  0  0  0
   13.8235   -0.2257   22.1771 H   0  0  0  0  0  0  0  0  0  0  0  0
   12.6468    1.3328   23.7438 H   0  0  0  0  0  0  0  0  0  0  0  0
  1  2  2  0
  2  3  1  0
  3  4  2  0
  4  5  1  0
  5  6  2  0
  6  7  1  0
  6  8  1  0
  8  9  2  0
  9 10  1  0
 10 11  1  1
 11 12  1  0
 12 13  1  0
 13 14  1  0
 14 15  2  0
 15 16  1  0
 16 17  2  0
 17 18  1  0
 17 19  1  0
 13 20  1  0
 13 21  1  0
 11 22  1  0
 11 23  1  0
 10 24  1  0
 24 25  2  0
 24 26  1  0
 26 27  1  0
 27 28  2  0
 28 29  1  0
 29 30  2  0
 30 31  1  0
 31 32  2  0
 32 33  1  0
 33 34  2  0
 34 35  1  0
 35 36  2  0
 35 37  1  0
 34 38  1  0
 33 39  1  0
 32 40  1  0
 30 41  1  0
 28 42  1  0
 26 43  1  0
 43 44  1  0
 44 45  1  0
 45 46  1  0
 46 47  1  0
 47 48  2  0
 48 49  1  0
 49 50  2  0
 50 51  1  0
 51 52  2  0
 51 53  1  0
 49 54  1  0
 48 55  1  0
 46 56  1  0
 45 57  1  0
 45 58  1  0
 44 59  1  6
 43 60  1  0
 43 61  1  0
  8 62  1  0
  5 63  1  0
  4 64  1  0
 12  2  1  0
 18 14  1  0
 36 27  1  0
 52 47  1  0
  9  3  1  0
 44 10  1  0
 36 31  1  0
M  END
>  <cnnaffinities>  (32) 
[6.70735, 6.81096]

>  <score>  (32) 
6.70735

>  <index>  (32) 
31

>  <Smiles>  (32) 
O=C1c2c(c(c(Cl)c(c2[C@@]2(C(N1C(c1nnc(o1)[H])([H])[H])([H])[H])C(=O)N(c1c(nc(c3c(c(c(c(c13)[H])[H])[H])[H])[H])[H])C([C@@]2(C(N(c1c(c(nc(n1)[H])[H])[H])[H])([H])[H])[H])([H])[H])[H])[H])[H]

>  <h>  (32) 
<NA>

>  <Training>  (32) 
True

>  <Success>  (32) 
True

>  <enamine_searched>  (32) 
False

>  <enamine_id>  (32) 
nan

$$$$

     RDKit          3D

 72 77  0  0  0  0  0  0  0  0999 V2000
    6.9423   -2.5022   23.4512 C   0  0  0  0  0  0  0  0  0  0  0  0
    7.9028   -1.8471   22.4431 C   0  0  1  0  0  0  0  0  0  0  0  0
    7.2413   -1.7763   21.0465 C   0  0  0  0  0  0  0  0  0  0  0  0
    6.9014   -0.3800   20.8680 N   0  0  0  0  0  0  0  0  0  0  0  0
    6.1352    0.1070   19.7784 C   0  0  0  0  0  0  0  0  0  0  0  0
    6.4390   -0.2244   18.4795 C   0  0  0  0  0  0  0  0  0  0  0  0
    5.7652    0.2265   17.3921 N   0  0  0  0  0  0  0  0  0  0  0  0
    4.7441    1.0239   17.5911 C   0  0  0  0  0  0  0  0  0  0  0  0
    4.2943    1.4194   18.8818 C   0  0  0  0  0  0  0  0  0  0  0  0
    3.1704    2.2745   19.0553 C   0  0  0  0  0  0  0  0  0  0  0  0
    2.7478    2.6159   20.3109 C   0  0  0  0  0  0  0  0  0  0  0  0
    3.4178    2.1108   21.4463 C   0  0  0  0  0  0  0  0  0  0  0  0
    4.5039    1.2847   21.3042 C   0  0  0  0  0  0  0  0  0  0  0  0
    4.9912    0.9406   20.0115 C   0  0  0  0  0  0  0  0  0  0  0  0
    5.0206    0.8954   22.1751 H   0  0  0  0  0  0  0  0  0  0  0  0
    3.0699    2.3853   22.4417 H   0  0  0  0  0  0  0  0  0  0  0  0
    1.8916    3.2754   20.4423 H   0  0  0  0  0  0  0  0  0  0  0  0
    2.6575    2.6495   18.1739 H   0  0  0  0  0  0  0  0  0  0  0  0
    4.2144    1.3902   16.7103 H   0  0  0  0  0  0  0  0  0  0  0  0
    7.2885   -0.8689   18.2512 H   0  0  0  0  0  0  0  0  0  0  0  0
    7.6184    0.4497   21.6953 C   0  0  0  0  0  0  0  0  0  0  0  0
    7.6515    1.6603   21.5874 O   0  0  0  0  0  0  0  0  0  0  0  0
    8.3657   -0.3853   22.7565 C   0  0  1  0  0  0  0  0  0  0  0  0
    7.9868    0.0786   24.1882 C   0  0  0  0  0  0  0  0  0  0  0  0
    8.4676    1.4091   24.5088 N   0  0  0  0  0  0  0  0  0  0  0  0
    7.5737    2.3572   25.1784 C   0  0  0  0  0  0  0  0  0  0  0  0
    6.8374    3.2465   24.1727 C   0  0  0  0  0  0  0  0  0  0  0  0
    5.9642    4.2883   24.8001 N   0  0  1  0  0  4  0  0  0  0  0  0
    5.5638    5.3207   23.7826 C   0  0  0  0  0  0  0  0  0  0  0  0
    4.6373    6.3583   24.3931 C   0  0  0  0  0  0  0  0  0  0  0  0
    3.4786    5.7676   24.9479 O   0  0  0  0  0  0  0  0  0  0  0  0
    3.7568    4.7994   25.9647 C   0  0  0  0  0  0  0  0  0  0  0  0
    2.4193    4.1369   26.2739 C   0  0  0  0  0  0  0  0  0  0  0  0
    1.9908    3.6894   25.3699 H   0  0  0  0  0  0  0  0  0  0  0  0
    2.5528    3.3461   27.0229 H   0  0  0  0  0  0  0  0  0  0  0  0
    1.7080    4.8702   26.6711 H   0  0  0  0  0  0  0  0  0  0  0  0
    4.2910    5.4735   27.2288 C   0  0  0  0  0  0  0  0  0  0  0  0
    5.2923    5.8953   27.0930 H   0  0  0  0  0  0  0  0  0  0  0  0
    4.3480    4.7384   28.0403 H   0  0  0  0  0  0  0  0  0  0  0  0
    3.6108    6.2742   27.5395 H   0  0  0  0  0  0  0  0  0  0  0  0
    4.7239    3.7230   25.4461 C   0  0  0  0  0  0  0  0  0  0  0  0
    4.2060    3.1180   24.6963 H   0  0  0  0  0  0  0  0  0  0  0  0
    5.0065    3.0703   26.2760 H   0  0  0  0  0  0  0  0  0  0  0  0
    5.1938    6.9444   25.1397 H   0  0  0  0  0  0  0  0  0  0  0  0
    4.2868    7.0467   23.6163 H   0  0  0  0  0  0  0  0  0  0  0  0
    5.0400    4.8094   22.9687 H   0  0  0  0  0  0  0  0  0  0  0  0
    6.4656    5.7897   23.3724 H   0  0  0  0  0  0  0  0  0  0  0  0
    6.5344    4.7664   25.5232 H   0  0  0  0  0  0  0  0  0  0  0  0
    6.2276    2.6169   23.5124 H   0  0  0  0  0  0  0  0  0  0  0  0
    7.5708    3.7536   23.5419 H   0  0  0  0  0  0  0  0  0  0  0  0
    8.1650    2.9728   25.8619 H   0  0  0  0  0  0  0  0  0  0  0  0
    6.8523    1.7901   25.7766 H   0  0  0  0  0  0  0  0  0  0  0  0
    9.7441    1.7935   24.2173 C   0  0  0  0  0  0  0  0  0  0  0  0
   10.2334    2.8131   24.6784 O   0  0  0  0  0  0  0  0  0  0  0  0
   10.5016    0.8926   23.2617 C   0  0  0  0  0  0  0  0  0  0  0  0
   11.8549    1.1497   23.0339 C   0  0  0  0  0  0  0  0  0  0  0  0
   12.5799    0.4191   22.1116 C   0  0  0  0  0  0  0  0  0  0  0  0
   11.9205   -0.5743   21.3926 C   0  0  0  0  0  0  0  0  0  0  0  0
   12.7759   -1.4503   20.1558 Cl  0  0  0  0  0  0  0  0  0  0  0  0
   10.5766   -0.8411   21.5951 C   0  0  0  0  0  0  0  0  0  0  0  0
    9.8583   -0.1422   22.5712 C   0  0  0  0  0  0  0  0  0  0  0  0
   10.1038   -1.5776   20.9532 H   0  0  0  0  0  0  0  0  0  0  0  0
   13.6319    0.6162   21.9199 H   0  0  0  0  0  0  0  0  0  0  0  0
   12.3390    1.9434   23.5857 H   0  0  0  0  0  0  0  0  0  0  0  0
    8.3934   -0.6412   24.9131 H   0  0  0  0  0  0  0  0  0  0  0  0
    6.9065    0.0925   24.3039 H   0  0  0  0  0  0  0  0  0  0  0  0
    7.9332   -2.1093   20.2696 H   0  0  0  0  0  0  0  0  0  0  0  0
    6.3398   -2.3923   20.9803 H   0  0  0  0  0  0  0  0  0  0  0  0
    8.7833   -2.4969   22.4078 H   0  0  0  0  0  0  0  0  0  0  0  0
    6.6850   -3.5199   23.1269 H   0  0  0  0  0  0  0  0  0  0  0  0
    6.0040   -1.9435   23.5448 H   0  0  0  0  0  0  0  0  0  0  0  0
    7.3842   -2.5882   24.4489 H   0  0  0  0  0  0  0  0  0  0  0  0
  1  2  1  0
  2  3  1  0
  3  4  1  0
  4  5  1  0
  5  6  2  0
  6  7  1  0
  7  8  2  0
  8  9  1  0
  9 10  2  0
 10 11  1  0
 11 12  2  0
 12 13  1  0
 13 14  2  0
 13 15  1  0
 12 16  1  0
 11 17  1  0
 10 18  1  0
  8 19  1  0
  6 20  1  0
  4 21  1  0
 21 22  2  0
 21 23  1  0
 23 24  1  1
 24 25  1  0
 25 26  1  0
 26 27  1  0
 27 28  1  0
 28 29  1  0
 29 30  1  0
 30 31  1  0
 31 32  1  0
 32 33  1  0
 33 34  1  0
 33 35  1  0
 33 36  1  0
 32 37  1  0
 37 38  1  0
 37 39  1  0
 37 40  1  0
 32 41  1  0
 41 42  1  0
 41 43  1  0
 30 44  1  0
 30 45  1  0
 29 46  1  0
 29 47  1  0
 28 48  1  1
 27 49  1  0
 27 50  1  0
 26 51  1  0
 26 52  1  0
 25 53  1  0
 53 54  2  0
 53 55  1  0
 55 56  2  0
 56 57  1  0
 57 58  2  0
 58 59  1  0
 58 60  1  0
 60 61  2  0
 60 62  1  0
 57 63  1  0
 56 64  1  0
 24 65  1  0
 24 66  1  0
  3 67  1  0
  3 68  1  0
  2 69  1  6
  1 70  1  0
  1 71  1  0
  1 72  1  0
 23  2  1  0
 41 28  1  0
 61 55  1  0
 14  5  1  0
 61 23  1  0
 14  9  1  0
M  CHG  1  28   1
M  END
>  <cnnaffinities>  (33) 
[6.47827, 6.69552, 6.60383]

>  <score>  (33) 
6.47827

>  <index>  (33) 
32

>  <Smiles>  (33) 
C([C@]1(C(N(c2c(nc(c3c(c(c(c(c23)[H])[H])[H])[H])[H])[H])C(=O)[C@]21C(N(C(C([N@+]1(C(C(OC(C([H])([H])[H])(C([H])([H])[H])C1([H])[H])([H])[H])([H])[H])[H])([H])[H])([H])[H])C(=O)c1c(c(c(Cl)c(c21)[H])[H])[H])([H])[H])([H])[H])[H])([H])([H])[H]

>  <h>  (33) 
<NA>

>  <Training>  (33) 
True

>  <Success>  (33) 
True

>  <enamine_searched>  (33) 
False

>  <enamine_id>  (33) 
nan

$$$$

     RDKit          3D

 44 47  0  0  0  0  0  0  0  0999 V2000
    8.5126    1.3941   20.7354 O   0  0  0  0  0  0  0  0  0  0  0  0
    7.8677    0.6914   21.5021 C   0  0  0  0  0  0  0  0  0  0  0  0
    6.9525   -0.4144   20.9242 C   0  0  0  0  0  0  0  0  0  0  0  0
    6.1118    0.0891   19.7684 C   0  0  0  0  0  0  0  0  0  0  0  0
    6.4280   -0.2069   18.4669 C   0  0  0  0  0  0  0  0  0  0  0  0
    5.7604    0.2417   17.3645 N   0  0  0  0  0  0  0  0  0  0  0  0
    4.7342    1.0269   17.5770 C   0  0  0  0  0  0  0  0  0  0  0  0
    4.2855    1.4235   18.8663 C   0  0  0  0  0  0  0  0  0  0  0  0
    3.1727    2.2847   19.0466 C   0  0  0  0  0  0  0  0  0  0  0  0
    2.7646    2.6528   20.2982 C   0  0  0  0  0  0  0  0  0  0  0  0
    3.4653    2.1687   21.4300 C   0  0  0  0  0  0  0  0  0  0  0  0
    4.5441    1.3342   21.2895 C   0  0  0  0  0  0  0  0  0  0  0  0
    4.9894    0.9390   20.0007 C   0  0  0  0  0  0  0  0  0  0  0  0
    5.0719    0.9837   22.1769 H   0  0  0  0  0  0  0  0  0  0  0  0
    3.1343    2.4717   22.4188 H   0  0  0  0  0  0  0  0  0  0  0  0
    1.9132    3.3157   20.4321 H   0  0  0  0  0  0  0  0  0  0  0  0
    2.6527    2.6531   18.1629 H   0  0  0  0  0  0  0  0  0  0  0  0
    4.1999    1.3977   16.6978 H   0  0  0  0  0  0  0  0  0  0  0  0
    7.2750   -0.8552   18.2441 H   0  0  0  0  0  0  0  0  0  0  0  0
    7.6153   -1.1982   20.5370 H   0  0  0  0  0  0  0  0  0  0  0  0
    6.3238   -0.8903   21.6862 H   0  0  0  0  0  0  0  0  0  0  0  0
    7.9400    0.8602   22.8612 N   0  0  0  0  0  0  0  0  0  0  0  0
    7.4856   -0.0758   23.8814 C   0  0  0  0  0  0  0  0  0  0  0  0
    7.8303    0.5799   25.2247 C   0  0  0  0  0  0  0  0  0  0  0  0
    8.7638    1.7536   24.9053 C   0  0  0  0  0  0  0  0  0  0  0  0
    8.5932    2.0504   23.4074 C   0  0  2  0  0  0  0  0  0  0  0  0
    7.7994    3.3161   23.1421 C   0  0  0  0  0  0  0  0  0  0  0  0
    8.3961    4.4134   22.5250 C   0  0  0  0  0  0  0  0  0  0  0  0
    7.6646    5.5691   22.2706 C   0  0  0  0  0  0  0  0  0  0  0  0
    6.3282    5.6586   22.6337 C   0  0  0  0  0  0  0  0  0  0  0  0
    5.7666    4.5614   23.2651 C   0  0  0  0  0  0  0  0  0  0  0  0
    4.4684    4.6177   23.6159 F   0  0  0  0  0  0  0  0  0  0  0  0
    6.4671    3.3989   23.5348 C   0  0  0  0  0  0  0  0  0  0  0  0
    5.9562    2.5755   24.0302 H   0  0  0  0  0  0  0  0  0  0  0  0
    5.7336    6.5446   22.4324 H   0  0  0  0  0  0  0  0  0  0  0  0
    8.1383    6.4020   21.7671 H   0  0  0  0  0  0  0  0  0  0  0  0
    9.4400    4.3570   22.2277 H   0  0  0  0  0  0  0  0  0  0  0  0
    9.5686    2.1680   22.9358 H   0  0  0  0  0  0  0  0  0  0  0  0
    8.5347    2.6287   25.5174 H   0  0  0  0  0  0  0  0  0  0  0  0
    9.8015    1.5003   25.1372 H   0  0  0  0  0  0  0  0  0  0  0  0
    8.3013   -0.1284   25.9067 H   0  0  0  0  0  0  0  0  0  0  0  0
    6.9281    0.9268   25.7331 H   0  0  0  0  0  0  0  0  0  0  0  0
    7.9985   -1.0334   23.7587 H   0  0  0  0  0  0  0  0  0  0  0  0
    6.4100   -0.2704   23.8100 H   0  0  0  0  0  0  0  0  0  0  0  0
  1  2  2  0
  2  3  1  0
  3  4  1  0
  4  5  2  0
  5  6  1  0
  6  7  2  0
  7  8  1  0
  8  9  2  0
  9 10  1  0
 10 11  2  0
 11 12  1  0
 12 13  2  0
 12 14  1  0
 11 15  1  0
 10 16  1  0
  9 17  1  0
  7 18  1  0
  5 19  1  0
  3 20  1  0
  3 21  1  0
  2 22  1  0
 22 23  1  0
 23 24  1  0
 24 25  1  0
 25 26  1  0
 26 27  1  0
 27 28  2  0
 28 29  1  0
 29 30  2  0
 30 31  1  0
 31 32  1  0
 31 33  2  0
 33 34  1  0
 30 35  1  0
 29 36  1  0
 28 37  1  0
 26 38  1  6
 25 39  1  0
 25 40  1  0
 24 41  1  0
 24 42  1  0
 23 43  1  0
 23 44  1  0
 13  4  1  0
 26 22  1  0
 33 27  1  0
 13  8  1  0
M  END
>  <cnnaffinities>  (34) 
[5.46206, 5.69297, 5.70642]

>  <score>  (34) 
5.46206

>  <index>  (34) 
33

>  <Smiles>  (34) 
O=C(C(c1c(nc(c2c(c(c(c(c12)[H])[H])[H])[H])[H])[H])([H])[H])N1C(C(C([C@@]1(c1c(c(c(c(F)c1[H])[H])[H])[H])[H])([H])[H])([H])[H])([H])[H]

>  <h>  (34) 
<NA>

>  <Training>  (34) 
True

>  <Success>  (34) 
True

>  <enamine_searched>  (34) 
False

>  <enamine_id>  (34) 
nan

$$$$

     RDKit          3D

 58 63  0  0  0  0  0  0  0  0999 V2000
    6.7014   -2.3084   23.6186 C   0  0  0  0  0  0  0  0  0  0  0  0
    7.7103   -1.8412   22.5524 C   0  0  1  0  0  0  0  0  0  0  0  0
    7.0365   -1.7992   21.1587 C   0  0  0  0  0  0  0  0  0  0  0  0
    6.8803   -0.3926   20.8680 N   0  0  0  0  0  0  0  0  0  0  0  0
    6.1288    0.1061   19.7740 C   0  0  0  0  0  0  0  0  0  0  0  0
    6.4435   -0.2274   18.4807 C   0  0  0  0  0  0  0  0  0  0  0  0
    5.7717    0.2210   17.3898 N   0  0  0  0  0  0  0  0  0  0  0  0
    4.7506    1.0188   17.5942 C   0  0  0  0  0  0  0  0  0  0  0  0
    4.2973    1.4268   18.8798 C   0  0  0  0  0  0  0  0  0  0  0  0
    3.1668    2.2714   19.0589 C   0  0  0  0  0  0  0  0  0  0  0  0
    2.7379    2.6093   20.3134 C   0  0  0  0  0  0  0  0  0  0  0  0
    3.4181    2.1169   21.4505 C   0  0  0  0  0  0  0  0  0  0  0  0
    4.5154    1.3081   21.3023 C   0  0  0  0  0  0  0  0  0  0  0  0
    4.9989    0.9522   20.0127 C   0  0  0  0  0  0  0  0  0  0  0  0
    5.0230    0.9237   22.1808 H   0  0  0  0  0  0  0  0  0  0  0  0
    3.0803    2.3923   22.4468 H   0  0  0  0  0  0  0  0  0  0  0  0
    1.8752    3.2571   20.4432 H   0  0  0  0  0  0  0  0  0  0  0  0
    2.6546    2.6387   18.1740 H   0  0  0  0  0  0  0  0  0  0  0  0
    4.2230    1.3814   16.7117 H   0  0  0  0  0  0  0  0  0  0  0  0
    7.2903   -0.8766   18.2614 H   0  0  0  0  0  0  0  0  0  0  0  0
    7.6835    0.4275   21.6298 C   0  0  0  0  0  0  0  0  0  0  0  0
    7.8608    1.6015   21.4036 O   0  0  0  0  0  0  0  0  0  0  0  0
    8.3383   -0.4182   22.7570 C   0  0  1  0  0  0  0  0  0  0  0  0
    8.0385    0.1648   24.1614 C   0  0  0  0  0  0  0  0  0  0  0  0
    8.7070    1.4287   24.4015 N   0  0  0  0  0  0  0  0  0  0  0  0
    7.9573    2.5648   24.9415 C   0  0  0  0  0  0  0  0  0  0  0  0
    7.5766    3.5949   23.9067 C   0  0  0  0  0  0  0  0  0  0  0  0
    8.3691    4.6218   23.3803 C   0  0  0  0  0  0  0  0  0  0  0  0
    7.6945    5.2371   22.4156 N   0  0  0  0  0  0  0  0  0  0  0  0
    6.5398    4.6059   22.3887 N   0  0  0  0  0  0  0  0  0  0  0  0
    5.5368    4.8821   21.3742 C   0  0  0  0  0  0  0  0  0  0  0  0
    4.5621    4.8487   21.8643 H   0  0  0  0  0  0  0  0  0  0  0  0
    5.7418    5.8809   20.9761 H   0  0  0  0  0  0  0  0  0  0  0  0
    5.5664    4.1220   20.5802 H   0  0  0  0  0  0  0  0  0  0  0  0
    6.3969    3.6281   23.2760 N   0  0  0  0  0  0  0  0  0  0  0  0
    9.3713    4.9209   23.6580 H   0  0  0  0  0  0  0  0  0  0  0  0
    8.5855    3.0324   25.7049 H   0  0  0  0  0  0  0  0  0  0  0  0
    7.0501    2.1804   25.4198 H   0  0  0  0  0  0  0  0  0  0  0  0
   10.0393    1.5943   24.1362 C   0  0  0  0  0  0  0  0  0  0  0  0
   10.6803    2.5356   24.5902 O   0  0  0  0  0  0  0  0  0  0  0  0
   10.6441    0.5753   23.2109 C   0  0  0  0  0  0  0  0  0  0  0  0
   12.0156    0.6465   22.9599 C   0  0  0  0  0  0  0  0  0  0  0  0
   12.6084   -0.1958   22.0409 C   0  0  0  0  0  0  0  0  0  0  0  0
   11.8020   -1.0943   21.3549 C   0  0  0  0  0  0  0  0  0  0  0  0
   12.3682   -1.8896   20.4327 F   0  0  0  0  0  0  0  0  0  0  0  0
   10.4445   -1.1900   21.5808 C   0  0  0  0  0  0  0  0  0  0  0  0
    9.8495   -0.3734   22.5508 C   0  0  0  0  0  0  0  0  0  0  0  0
    9.8824   -1.8934   20.9750 H   0  0  0  0  0  0  0  0  0  0  0  0
   13.6713   -0.1805   21.8318 H   0  0  0  0  0  0  0  0  0  0  0  0
   12.5951    1.3880   23.4978 H   0  0  0  0  0  0  0  0  0  0  0  0
    8.3408   -0.5776   24.9180 H   0  0  0  0  0  0  0  0  0  0  0  0
    6.9675    0.3533   24.2502 H   0  0  0  0  0  0  0  0  0  0  0  0
    6.0556   -2.2899   21.1549 H   0  0  0  0  0  0  0  0  0  0  0  0
    7.6610   -2.2855   20.4042 H   0  0  0  0  0  0  0  0  0  0  0  0
    8.5223   -2.5778   22.5536 H   0  0  0  0  0  0  0  0  0  0  0  0
    5.8389   -1.6350   23.6907 H   0  0  0  0  0  0  0  0  0  0  0  0
    6.3220   -3.3053   23.3622 H   0  0  0  0  0  0  0  0  0  0  0  0
    7.1587   -2.3835   24.6100 H   0  0  0  0  0  0  0  0  0  0  0  0
  1  2  1  0
  2  3  1  0
  3  4  1  0
  4  5  1  0
  5  6  2  0
  6  7  1  0
  7  8  2  0
  8  9  1  0
  9 10  2  0
 10 11  1  0
 11 12  2  0
 12 13  1  0
 13 14  2  0
 13 15  1  0
 12 16  1  0
 11 17  1  0
 10 18  1  0
  8 19  1  0
  6 20  1  0
  4 21  1  0
 21 22  2  0
 21 23  1  0
 23 24  1  1
 24 25  1  0
 25 26  1  0
 26 27  1  0
 27 28  1  0
 28 29  2  0
 29 30  1  0
 30 31  1  0
 31 32  1  0
 31 33  1  0
 31 34  1  0
 30 35  1  0
 28 36  1  0
 26 37  1  0
 26 38  1  0
 25 39  1  0
 39 40  2  0
 39 41  1  0
 41 42  2  0
 42 43  1  0
 43 44  2  0
 44 45  1  0
 44 46  1  0
 46 47  2  0
 46 48  1  0
 43 49  1  0
 42 50  1  0
 24 51  1  0
 24 52  1  0
  3 53  1  0
  3 54  1  0
  2 55  1  6
  1 56  1  0
  1 57  1  0
  1 58  1  0
 23  2  1  0
 35 27  2  0
 47 41  1  0
 14  5  1  0
 47 23  1  0
 14  9  1  0
M  END
>  <cnnaffinities>  (35) 
[6.73896, 6.65009]

>  <score>  (35) 
6.73896

>  <index>  (35) 
34

>  <Smiles>  (35) 
C([C@]1(C(N(c2c(nc(c3c(c(c(c(c23)[H])[H])[H])[H])[H])[H])C(=O)[C@]21C(N(C(c1c(nn(C([H])([H])[H])n1)[H])([H])[H])C(=O)c1c(c(c(F)c(c21)[H])[H])[H])([H])[H])([H])[H])[H])([H])([H])[H]

>  <h>  (35) 
<NA>

>  <Training>  (35) 
True

>  <Success>  (35) 
True

>  <enamine_searched>  (35) 
False

>  <enamine_id>  (35) 
nan

$$$$

     RDKit          3D

 51 54  0  0  0  0  0  0  0  0999 V2000
   13.5496    0.2207   22.3366 N   0  0  0  0  0  0  0  0  0  0  0  0
   13.0766   -0.6106   22.9835 C   0  0  0  0  0  0  0  0  0  0  0  0
   12.4761   -1.7015   23.7759 C   0  0  0  0  0  0  0  0  0  0  0  0
   11.0511   -1.9941   23.3407 C   0  0  0  0  0  0  0  0  0  0  0  0
    9.9664   -1.3068   23.8754 C   0  0  0  0  0  0  0  0  0  0  0  0
    8.6767   -1.5446   23.4121 C   0  0  0  0  0  0  0  0  0  0  0  0
    8.4597   -2.4914   22.4077 C   0  0  0  0  0  0  0  0  0  0  0  0
    7.1441   -2.7676   21.9250 N   0  0  0  0  0  0  0  0  0  0  0  0
    6.5582   -4.0620   22.2663 C   0  0  0  0  0  0  0  0  0  0  0  0
    6.0482   -4.1421   23.6971 C   0  0  0  0  0  0  0  0  0  0  0  0
    4.7013   -3.9233   23.9888 C   0  0  0  0  0  0  0  0  0  0  0  0
    4.2502   -3.9406   25.3057 C   0  0  0  0  0  0  0  0  0  0  0  0
    5.1372   -4.1789   26.3495 C   0  0  0  0  0  0  0  0  0  0  0  0
    6.4724   -4.4145   26.0496 C   0  0  0  0  0  0  0  0  0  0  0  0
    7.5947   -4.7006   27.3489 Cl  0  0  0  0  0  0  0  0  0  0  0  0
    6.9368   -4.4030   24.7405 C   0  0  0  0  0  0  0  0  0  0  0  0
    7.9933   -4.5743   24.5455 H   0  0  0  0  0  0  0  0  0  0  0  0
    4.8163   -4.1755   27.3872 H   0  0  0  0  0  0  0  0  0  0  0  0
    3.2019   -3.7531   25.5236 H   0  0  0  0  0  0  0  0  0  0  0  0
    4.0127   -3.7222   23.1727 H   0  0  0  0  0  0  0  0  0  0  0  0
    5.7420   -4.2344   21.5596 H   0  0  0  0  0  0  0  0  0  0  0  0
    7.3445   -4.8078   22.1137 H   0  0  0  0  0  0  0  0  0  0  0  0
    6.2807   -1.8072   21.4369 C   0  0  0  0  0  0  0  0  0  0  0  0
    5.0745   -2.0025   21.4012 O   0  0  0  0  0  0  0  0  0  0  0  0
    6.9199   -0.5299   20.8821 C   0  0  0  0  0  0  0  0  0  0  0  0
    6.1193    0.0814   19.7619 C   0  0  0  0  0  0  0  0  0  0  0  0
    6.4273   -0.2191   18.4608 C   0  0  0  0  0  0  0  0  0  0  0  0
    5.7624    0.2333   17.3654 N   0  0  0  0  0  0  0  0  0  0  0  0
    4.7374    1.0223   17.5798 C   0  0  0  0  0  0  0  0  0  0  0  0
    4.2893    1.4120   18.8709 C   0  0  0  0  0  0  0  0  0  0  0  0
    3.1704    2.2666   19.0430 C   0  0  0  0  0  0  0  0  0  0  0  0
    2.7516    2.6178   20.2981 C   0  0  0  0  0  0  0  0  0  0  0  0
    3.4365    2.1259   21.4313 C   0  0  0  0  0  0  0  0  0  0  0  0
    4.5234    1.2972   21.2887 C   0  0  0  0  0  0  0  0  0  0  0  0
    4.9874    0.9224   19.9990 C   0  0  0  0  0  0  0  0  0  0  0  0
    5.0301    0.9081   22.1655 H   0  0  0  0  0  0  0  0  0  0  0  0
    3.1010    2.4144   22.4236 H   0  0  0  0  0  0  0  0  0  0  0  0
    1.8968    3.2771   20.4246 H   0  0  0  0  0  0  0  0  0  0  0  0
    2.6676    2.6364   18.1526 H   0  0  0  0  0  0  0  0  0  0  0  0
    4.2086    1.3911   16.6998 H   0  0  0  0  0  0  0  0  0  0  0  0
    7.2732   -0.8684   18.2347 H   0  0  0  0  0  0  0  0  0  0  0  0
    7.0530    0.1835   21.7059 H   0  0  0  0  0  0  0  0  0  0  0  0
    7.9342   -0.7868   20.5517 H   0  0  0  0  0  0  0  0  0  0  0  0
    9.5378   -3.2087   21.8931 C   0  0  0  0  0  0  0  0  0  0  0  0
   10.8264   -2.9193   22.3293 C   0  0  0  0  0  0  0  0  0  0  0  0
   11.7080   -3.3562   21.8797 H   0  0  0  0  0  0  0  0  0  0  0  0
    9.3382   -3.9714   21.1445 H   0  0  0  0  0  0  0  0  0  0  0  0
    7.8265   -1.0150   23.8403 H   0  0  0  0  0  0  0  0  0  0  0  0
   10.1481   -0.5576   24.6406 H   0  0  0  0  0  0  0  0  0  0  0  0
   13.1059   -2.5901   23.6520 H   0  0  0  0  0  0  0  0  0  0  0  0
   12.5233   -1.4303   24.8353 H   0  0  0  0  0  0  0  0  0  0  0  0
  1  2  3  0
  2  3  1  0
  3  4  1  0
  4  5  2  0
  5  6  1  0
  6  7  2  0
  7  8  1  0
  8  9  1  0
  9 10  1  0
 10 11  2  0
 11 12  1  0
 12 13  2  0
 13 14  1  0
 14 15  1  0
 14 16  2  0
 16 17  1  0
 13 18  1  0
 12 19  1  0
 11 20  1  0
  9 21  1  0
  9 22  1  0
  8 23  1  0
 23 24  2  0
 23 25  1  0
 25 26  1  0
 26 27  2  0
 27 28  1  0
 28 29  2  0
 29 30  1  0
 30 31  2  0
 31 32  1  0
 32 33  2  0
 33 34  1  0
 34 35  2  0
 34 36  1  0
 33 37  1  0
 32 38  1  0
 31 39  1  0
 29 40  1  0
 27 41  1  0
 25 42  1  0
 25 43  1  0
  7 44  1  0
 44 45  2  0
 45 46  1  0
 44 47  1  0
  6 48  1  0
  5 49  1  0
  3 50  1  0
  3 51  1  0
 45  4  1  0
 16 10  1  0
 35 26  1  0
 35 30  1  0
M  END
>  <cnnaffinities>  (36) 
[6.95042, 6.54025]

>  <score>  (36) 
6.95042

>  <index>  (36) 
35

>  <Smiles>  (36) 
N#CC(c1c(c(c(N(C(c2c(c(c(c(Cl)c2[H])[H])[H])[H])([H])[H])C(=O)C(c2c(nc(c3c(c(c(c(c23)[H])[H])[H])[H])[H])[H])([H])[H])c(c1[H])[H])[H])[H])([H])[H]

>  <h>  (36) 
<NA>

>  <Training>  (36) 
True

>  <Success>  (36) 
True

>  <enamine_searched>  (36) 
False

>  <enamine_id>  (36) 
nan

$$$$

     RDKit          3D

 59 64  0  0  0  0  0  0  0  0999 V2000
    6.5787   -2.0058   23.7855 C   0  0  0  0  0  0  0  0  0  0  0  0
    7.5787   -1.7769   22.6424 C   0  0  1  0  0  0  0  0  0  0  0  0
    6.8560   -1.7802   21.2774 C   0  0  0  0  0  0  0  0  0  0  0  0
    6.8728   -0.4010   20.8622 N   0  0  0  0  0  0  0  0  0  0  0  0
    6.1238    0.1047   19.7731 C   0  0  0  0  0  0  0  0  0  0  0  0
    6.4377   -0.2348   18.4791 C   0  0  0  0  0  0  0  0  0  0  0  0
    5.7759    0.2202   17.3870 N   0  0  0  0  0  0  0  0  0  0  0  0
    4.7599    1.0275   17.5931 C   0  0  0  0  0  0  0  0  0  0  0  0
    4.3175    1.4449   18.8836 C   0  0  0  0  0  0  0  0  0  0  0  0
    3.1936    2.2982   19.0587 C   0  0  0  0  0  0  0  0  0  0  0  0
    2.7706    2.6445   20.3154 C   0  0  0  0  0  0  0  0  0  0  0  0
    3.4513    2.1615   21.4533 C   0  0  0  0  0  0  0  0  0  0  0  0
    4.5457    1.3429   21.3110 C   0  0  0  0  0  0  0  0  0  0  0  0
    5.0108    0.9673   20.0169 C   0  0  0  0  0  0  0  0  0  0  0  0
    5.0635    0.9722   22.1906 H   0  0  0  0  0  0  0  0  0  0  0  0
    3.1186    2.4518   22.4481 H   0  0  0  0  0  0  0  0  0  0  0  0
    1.9088    3.2957   20.4418 H   0  0  0  0  0  0  0  0  0  0  0  0
    2.6727    2.6577   18.1777 H   0  0  0  0  0  0  0  0  0  0  0  0
    4.2209    1.3824   16.7143 H   0  0  0  0  0  0  0  0  0  0  0  0
    7.2872   -0.8897   18.2824 H   0  0  0  0  0  0  0  0  0  0  0  0
    7.7917    0.3781   21.5233 C   0  0  0  0  0  0  0  0  0  0  0  0
    8.0847    1.5021   21.1863 O   0  0  0  0  0  0  0  0  0  0  0  0
    8.3851   -0.4393   22.6942 C   0  0  1  0  0  0  0  0  0  0  0  0
    8.2287    0.2824   24.0541 C   0  0  0  0  0  0  0  0  0  0  0  0
    9.0705    1.4570   24.1796 N   0  0  0  0  0  0  0  0  0  0  0  0
    8.5040    2.7134   24.6408 C   0  0  0  0  0  0  0  0  0  0  0  0
    8.0744    3.6409   23.5376 C   0  0  0  0  0  0  0  0  0  0  0  0
    8.8809    4.6066   22.8948 C   0  0  0  0  0  0  0  0  0  0  0  0
    8.0280    5.2311   22.0151 C   0  0  0  0  0  0  0  0  0  0  0  0
    6.8311    4.6153   22.1207 N   0  0  0  0  0  0  0  0  0  0  0  0
    5.6890    4.7808   21.2452 C   0  0  0  0  0  0  0  0  0  0  0  0
    4.7746    4.8492   21.8399 H   0  0  0  0  0  0  0  0  0  0  0  0
    5.8155    5.6978   20.6640 H   0  0  0  0  0  0  0  0  0  0  0  0
    5.6110    3.9283   20.5607 H   0  0  0  0  0  0  0  0  0  0  0  0
    6.8344    3.6430   23.0548 N   0  0  0  0  0  0  0  0  0  0  0  0
    8.1781    6.0566   21.3213 H   0  0  0  0  0  0  0  0  0  0  0  0
    9.9538    4.7337   22.9907 H   0  0  0  0  0  0  0  0  0  0  0  0
    9.2716    3.1911   25.2566 H   0  0  0  0  0  0  0  0  0  0  0  0
    7.6422    2.4875   25.2682 H   0  0  0  0  0  0  0  0  0  0  0  0
   10.3787    1.4608   23.7962 C   0  0  0  0  0  0  0  0  0  0  0  0
   11.1507    2.3709   24.0916 O   0  0  0  0  0  0  0  0  0  0  0  0
   10.8060    0.3209   22.9375 C   0  0  0  0  0  0  0  0  0  0  0  0
   12.1488    0.2931   22.5624 C   0  0  0  0  0  0  0  0  0  0  0  0
   12.5833   -0.6407   21.6429 C   0  0  0  0  0  0  0  0  0  0  0  0
   11.6803   -1.5970   21.1918 C   0  0  0  0  0  0  0  0  0  0  0  0
   12.1411   -2.5859   20.4053 F   0  0  0  0  0  0  0  0  0  0  0  0
   10.3412   -1.5715   21.5352 C   0  0  0  0  0  0  0  0  0  0  0  0
    9.8816   -0.6021   22.4345 C   0  0  0  0  0  0  0  0  0  0  0  0
    9.6788   -2.3004   21.0813 H   0  0  0  0  0  0  0  0  0  0  0  0
   13.5882   -0.6543   21.2420 H   0  0  0  0  0  0  0  0  0  0  0  0
   12.8081    1.0194   23.0305 H   0  0  0  0  0  0  0  0  0  0  0  0
    7.1949    0.6040   24.2011 H   0  0  0  0  0  0  0  0  0  0  0  0
    8.4941   -0.4356   24.8410 H   0  0  0  0  0  0  0  0  0  0  0  0
    7.3690   -2.4178   20.5521 H   0  0  0  0  0  0  0  0  0  0  0  0
    5.8224   -2.1336   21.3535 H   0  0  0  0  0  0  0  0  0  0  0  0
    8.2958   -2.6003   22.6991 H   0  0  0  0  0  0  0  0  0  0  0  0
    6.0642   -2.9626   23.6534 H   0  0  0  0  0  0  0  0  0  0  0  0
    5.8143   -1.2217   23.8212 H   0  0  0  0  0  0  0  0  0  0  0  0
    7.0737   -2.0460   24.7597 H   0  0  0  0  0  0  0  0  0  0  0  0
  1  2  1  0
  2  3  1  0
  3  4  1  0
  4  5  1  0
  5  6  2  0
  6  7  1  0
  7  8  2  0
  8  9  1  0
  9 10  2  0
 10 11  1  0
 11 12  2  0
 12 13  1  0
 13 14  2  0
 13 15  1  0
 12 16  1  0
 11 17  1  0
 10 18  1  0
  8 19  1  0
  6 20  1  0
  4 21  1  0
 21 22  2  0
 21 23  1  0
 23 24  1  1
 24 25  1  0
 25 26  1  0
 26 27  1  0
 27 28  1  0
 28 29  2  0
 29 30  1  0
 30 31  1  0
 31 32  1  0
 31 33  1  0
 31 34  1  0
 30 35  1  0
 29 36  1  0
 28 37  1  0
 26 38  1  0
 26 39  1  0
 25 40  1  0
 40 41  2  0
 40 42  1  0
 42 43  2  0
 43 44  1  0
 44 45  2  0
 45 46  1  0
 45 47  1  0
 47 48  2  0
 47 49  1  0
 44 50  1  0
 43 51  1  0
 24 52  1  0
 24 53  1  0
  3 54  1  0
  3 55  1  0
  2 56  1  6
  1 57  1  0
  1 58  1  0
  1 59  1  0
 23  2  1  0
 35 27  2  0
 48 42  1  0
 14  5  1  0
 48 23  1  0
 14  9  1  0
M  END
>  <cnnaffinities>  (37) 
[6.56576, 6.6803]

>  <score>  (37) 
6.56576

>  <index>  (37) 
36

>  <Smiles>  (37) 
C([C@]1(C(N(c2c(nc(c3c(c(c(c(c23)[H])[H])[H])[H])[H])[H])C(=O)[C@]21C(N(C(c1c(c(n(C([H])([H])[H])n1)[H])[H])([H])[H])C(=O)c1c(c(c(F)c(c21)[H])[H])[H])([H])[H])([H])[H])[H])([H])([H])[H]

>  <h>  (37) 
<NA>

>  <Training>  (37) 
True

>  <Success>  (37) 
True

>  <enamine_searched>  (37) 
False

>  <enamine_id>  (37) 
nan

$$$$

     RDKit          3D

 48 51  0  0  0  0  0  0  0  0999 V2000
   13.4244   -1.3672   24.3326 N   0  0  0  0  0  0  0  0  0  0  0  0
   12.3611   -1.6091   23.9412 C   0  0  0  0  0  0  0  0  0  0  0  0
   11.0235   -1.8925   23.4707 C   0  0  0  0  0  0  0  0  0  0  0  0
    9.9267   -1.1776   23.9583 C   0  0  0  0  0  0  0  0  0  0  0  0
    8.6470   -1.4549   23.4942 C   0  0  0  0  0  0  0  0  0  0  0  0
    8.4332   -2.4462   22.5313 C   0  0  0  0  0  0  0  0  0  0  0  0
    7.1232   -2.7421   22.0379 N   0  0  0  0  0  0  0  0  0  0  0  0
    6.5276   -4.0359   22.4243 C   0  0  0  0  0  0  0  0  0  0  0  0
    5.9680   -4.0416   23.8361 C   0  0  0  0  0  0  0  0  0  0  0  0
    6.8155   -4.2323   24.9281 C   0  0  0  0  0  0  0  0  0  0  0  0
    6.3153   -4.1593   26.2220 C   0  0  0  0  0  0  0  0  0  0  0  0
    4.9698   -3.8989   26.4459 C   0  0  0  0  0  0  0  0  0  0  0  0
    4.1352   -3.7073   25.3546 C   0  0  0  0  0  0  0  0  0  0  0  0
    2.4517   -3.3747   25.6243 Cl  0  0  0  0  0  0  0  0  0  0  0  0
    4.6165   -3.7777   24.0547 C   0  0  0  0  0  0  0  0  0  0  0  0
    3.9505   -3.6081   23.2141 H   0  0  0  0  0  0  0  0  0  0  0  0
    4.5773   -3.8442   27.4553 H   0  0  0  0  0  0  0  0  0  0  0  0
    6.9815   -4.3072   27.0653 H   0  0  0  0  0  0  0  0  0  0  0  0
    7.8767   -4.4209   24.7675 H   0  0  0  0  0  0  0  0  0  0  0  0
    7.3038   -4.8051   22.3451 H   0  0  0  0  0  0  0  0  0  0  0  0
    5.7504   -4.2983   21.7032 H   0  0  0  0  0  0  0  0  0  0  0  0
    6.2920   -1.7731   21.4883 C   0  0  0  0  0  0  0  0  0  0  0  0
    5.0885   -1.9345   21.4117 O   0  0  0  0  0  0  0  0  0  0  0  0
    6.9392   -0.5065   20.8857 C   0  0  0  0  0  0  0  0  0  0  0  0
    6.1182    0.0924   19.7659 C   0  0  0  0  0  0  0  0  0  0  0  0
    6.4207   -0.2110   18.4645 C   0  0  0  0  0  0  0  0  0  0  0  0
    5.7579    0.2371   17.3632 N   0  0  0  0  0  0  0  0  0  0  0  0
    4.7345    1.0299   17.5757 C   0  0  0  0  0  0  0  0  0  0  0  0
    4.2850    1.4234   18.8670 C   0  0  0  0  0  0  0  0  0  0  0  0
    3.1622    2.2764   19.0420 C   0  0  0  0  0  0  0  0  0  0  0  0
    2.7455    2.6237   20.2979 C   0  0  0  0  0  0  0  0  0  0  0  0
    3.4317    2.1333   21.4297 C   0  0  0  0  0  0  0  0  0  0  0  0
    4.5228    1.3124   21.2877 C   0  0  0  0  0  0  0  0  0  0  0  0
    4.9860    0.9353   19.9990 C   0  0  0  0  0  0  0  0  0  0  0  0
    5.0265    0.9279   22.1688 H   0  0  0  0  0  0  0  0  0  0  0  0
    3.0913    2.4122   22.4219 H   0  0  0  0  0  0  0  0  0  0  0  0
    1.8878    3.2765   20.4336 H   0  0  0  0  0  0  0  0  0  0  0  0
    2.6404    2.6468   18.1614 H   0  0  0  0  0  0  0  0  0  0  0  0
    4.1972    1.3999   16.6998 H   0  0  0  0  0  0  0  0  0  0  0  0
    7.2640   -0.8658   18.2483 H   0  0  0  0  0  0  0  0  0  0  0  0
    7.9423   -0.7515   20.5189 H   0  0  0  0  0  0  0  0  0  0  0  0
    7.0822    0.2329   21.6827 H   0  0  0  0  0  0  0  0  0  0  0  0
    9.5257   -3.1766   22.0682 C   0  0  0  0  0  0  0  0  0  0  0  0
   10.8067   -2.8918   22.5201 C   0  0  0  0  0  0  0  0  0  0  0  0
   11.6639   -3.4347   22.1500 H   0  0  0  0  0  0  0  0  0  0  0  0
    9.3778   -3.9551   21.3274 H   0  0  0  0  0  0  0  0  0  0  0  0
    7.8047   -0.9021   23.8972 H   0  0  0  0  0  0  0  0  0  0  0  0
   10.0843   -0.3995   24.6975 H   0  0  0  0  0  0  0  0  0  0  0  0
  1  2  3  0
  2  3  1  0
  3  4  2  0
  4  5  1  0
  5  6  2  0
  6  7  1  0
  7  8  1  0
  8  9  1  0
  9 10  2  0
 10 11  1  0
 11 12  2  0
 12 13  1  0
 13 14  1  0
 13 15  2  0
 15 16  1  0
 12 17  1  0
 11 18  1  0
 10 19  1  0
  8 20  1  0
  8 21  1  0
  7 22  1  0
 22 23  2  0
 22 24  1  0
 24 25  1  0
 25 26  2  0
 26 27  1  0
 27 28  2  0
 28 29  1  0
 29 30  2  0
 30 31  1  0
 31 32  2  0
 32 33  1  0
 33 34  2  0
 33 35  1  0
 32 36  1  0
 31 37  1  0
 30 38  1  0
 28 39  1  0
 26 40  1  0
 24 41  1  0
 24 42  1  0
  6 43  1  0
 43 44  2  0
 44 45  1  0
 43 46  1  0
  5 47  1  0
  4 48  1  0
 44  3  1  0
 15  9  1  0
 34 25  1  0
 34 29  1  0
M  END
>  <cnnaffinities>  (38) 
[6.52643]

>  <score>  (38) 
6.52643

>  <index>  (38) 
37

>  <Smiles>  (38) 
N#Cc1c(c(c(N(C(c2c(c(c(c(Cl)c2[H])[H])[H])[H])([H])[H])C(=O)C(c2c(nc(c3c(c(c(c(c23)[H])[H])[H])[H])[H])[H])([H])[H])c(c1[H])[H])[H])[H]

>  <h>  (38) 
<NA>

>  <Training>  (38) 
True

>  <Success>  (38) 
True

>  <enamine_searched>  (38) 
False

>  <enamine_id>  (38) 
nan

$$$$

     RDKit          3D

 72 77  0  0  0  0  0  0  0  0999 V2000
    5.0913   -7.2543   21.1387 C   0  0  0  0  0  0  0  0  0  0  0  0
    4.2280   -6.6027   22.1506 N   0  0  0  0  0  4  0  0  0  0  0  0
    4.6224   -5.1858   22.4469 C   0  0  0  0  0  0  0  0  0  0  0  0
    5.8801   -5.0882   23.3221 C   0  0  0  0  0  0  0  0  0  0  0  0
    6.1888   -3.7008   23.6366 N   0  0  0  0  0  0  0  0  0  0  0  0
    7.3735   -3.0679   23.0762 C   0  0  0  0  0  0  0  0  0  0  0  0
    7.1594   -1.5641   22.7531 C   0  0  2  0  0  0  0  0  0  0  0  0
    6.2331   -1.4429   21.5214 C   0  0  0  0  0  0  0  0  0  0  0  0
    5.1911   -2.0338   21.3286 O   0  0  0  0  0  0  0  0  0  0  0  0
    6.7803   -0.5350   20.6449 N   0  0  0  0  0  0  0  0  0  0  0  0
    6.0225    0.0422   19.5951 C   0  0  0  0  0  0  0  0  0  0  0  0
    6.3904   -0.1776   18.2961 C   0  0  0  0  0  0  0  0  0  0  0  0
    5.7367    0.3264   17.2198 N   0  0  0  0  0  0  0  0  0  0  0  0
    4.7011    1.0954   17.4556 C   0  0  0  0  0  0  0  0  0  0  0  0
    4.2394    1.4388   18.7588 C   0  0  0  0  0  0  0  0  0  0  0  0
    3.1335    2.3054   18.9612 C   0  0  0  0  0  0  0  0  0  0  0  0
    2.7483    2.6525   20.2239 C   0  0  0  0  0  0  0  0  0  0  0  0
    3.4513    2.1572   21.3489 C   0  0  0  0  0  0  0  0  0  0  0  0
    4.5178    1.3106   21.1864 C   0  0  0  0  0  0  0  0  0  0  0  0
    4.9258    0.9147   19.8772 C   0  0  0  0  0  0  0  0  0  0  0  0
    5.0614    0.9466   22.0613 H   0  0  0  0  0  0  0  0  0  0  0  0
    3.1421    2.4562   22.3457 H   0  0  0  0  0  0  0  0  0  0  0  0
    1.9060    3.3217   20.3776 H   0  0  0  0  0  0  0  0  0  0  0  0
    2.6153    2.6944   18.0871 H   0  0  0  0  0  0  0  0  0  0  0  0
    4.1758    1.5009   16.5895 H   0  0  0  0  0  0  0  0  0  0  0  0
    7.2521   -0.8087   18.0816 H   0  0  0  0  0  0  0  0  0  0  0  0
    7.9766    0.1137   21.1329 C   0  0  0  0  0  0  0  0  0  0  0  0
    8.4500   -0.7850   22.2884 C   0  0  2  0  0  0  0  0  0  0  0  0
    9.6570   -1.6147   21.8101 C   0  0  0  0  0  0  0  0  0  0  0  0
   10.2948   -2.2271   22.8925 O   0  0  0  0  0  0  0  0  0  0  0  0
   11.5961   -1.8581   23.2336 C   0  0  0  0  0  0  0  0  0  0  0  0
   11.7203   -2.4882   24.5608 C   0  0  0  0  0  0  0  0  0  0  0  0
   12.7850   -1.7734   25.4014 C   0  0  0  0  0  0  0  0  0  0  0  0
   14.6287   -2.2983   25.3112 S   0  0  0  0  0  0  0  0  0  0  0  0
   14.7652   -2.8557   26.6680 O   0  0  0  0  0  0  0  0  0  0  0  0
   14.3009   -3.4874   24.2329 O   0  0  0  0  0  0  0  0  0  0  0  0
   11.8546   -2.7138   24.5155 C   0  0  0  0  0  0  0  0  0  0  0  0
   11.9336   -3.9875   24.3119 H   0  0  0  0  0  0  0  0  0  0  0  0
   13.2625   -3.4677   24.1196 H   0  0  0  0  0  0  0  0  0  0  0  0
   12.7054   -0.6550   25.3966 H   0  0  0  0  0  0  0  0  0  0  0  0
   12.7421   -2.1227   26.4370 H   0  0  0  0  0  0  0  0  0  0  0  0
   10.8550   -2.6778   25.3885 H   0  0  0  0  0  0  0  0  0  0  0  0
   12.3619   -2.3150   22.6119 H   0  0  0  0  0  0  0  0  0  0  0  0
   11.7194   -0.7470   23.2995 H   0  0  0  0  0  0  0  0  0  0  0  0
    9.3243   -2.3964   21.1176 H   0  0  0  0  0  0  0  0  0  0  0  0
   10.3662   -0.9687   21.2628 H   0  0  0  0  0  0  0  0  0  0  0  0
    8.8188   -0.1994   23.1367 H   0  0  0  0  0  0  0  0  0  0  0  0
    7.7659    1.1458   21.4523 H   0  0  0  0  0  0  0  0  0  0  0  0
    8.7131    0.1811   20.3311 H   0  0  0  0  0  0  0  0  0  0  0  0
    6.5219   -0.9110   23.9862 C   0  0  0  0  0  0  0  0  0  0  0  0
    6.6599    0.4606   24.2468 C   0  0  0  0  0  0  0  0  0  0  0  0
    6.1249    1.0136   25.4011 C   0  0  0  0  0  0  0  0  0  0  0  0
    6.3511    2.7123   25.7204 Cl  0  0  0  0  0  0  0  0  0  0  0  0
    5.4203    0.2423   26.3216 C   0  0  0  0  0  0  0  0  0  0  0  0
    5.2314   -1.0966   26.0431 C   0  0  0  0  0  0  0  0  0  0  0  0
    5.7591   -1.6672   24.8851 C   0  0  0  0  0  0  0  0  0  0  0  0
    5.4666   -3.1147   24.6322 C   0  0  0  0  0  0  0  0  0  0  0  0
    4.6152   -3.7256   25.2708 O   0  0  0  0  0  0  0  0  0  0  0  0
    4.6702   -1.7383   26.7139 H   0  0  0  0  0  0  0  0  0  0  0  0
    5.0264    0.6951   27.2254 H   0  0  0  0  0  0  0  0  0  0  0  0
    7.1895    1.1237   23.5693 H   0  0  0  0  0  0  0  0  0  0  0  0
    7.6281   -3.6000   22.1586 H   0  0  0  0  0  0  0  0  0  0  0  0
    8.2087   -3.1552   23.7820 H   0  0  0  0  0  0  0  0  0  0  0  0
    6.7556   -5.5275   22.8251 H   0  0  0  0  0  0  0  0  0  0  0  0
    5.7247   -5.6152   24.2713 H   0  0  0  0  0  0  0  0  0  0  0  0
    3.7873   -4.7086   22.9504 H   0  0  0  0  0  0  0  0  0  0  0  0
    4.7955   -4.6638   21.5054 H   0  0  0  0  0  0  0  0  0  0  0  0
    3.2413   -6.6524   21.8280 H   0  0  0  0  0  0  0  0  0  0  0  0
    4.3115   -7.1467   23.0437 H   0  0  0  0  0  0  0  0  0  0  0  0
    4.5813   -8.1144   20.7104 H   0  0  0  0  0  0  0  0  0  0  0  0
    5.3281   -6.5484   20.3416 H   0  0  0  0  0  0  0  0  0  0  0  0
    6.0298   -7.5918   21.5796 H   0  0  0  0  0  0  0  0  0  0  0  0
  1  2  1  0
  2  3  1  0
  3  4  1  0
  4  5  1  0
  5  6  1  0
  7  6  1  1
  7  8  1  0
  8  9  2  0
  8 10  1  0
 10 11  1  0
 11 12  2  0
 12 13  1  0
 13 14  2  0
 14 15  1  0
 15 16  2  0
 16 17  1  0
 17 18  2  0
 18 19  1  0
 19 20  2  0
 19 21  1  0
 18 22  1  0
 17 23  1  0
 16 24  1  0
 14 25  1  0
 12 26  1  0
 10 27  1  0
 27 28  1  0
 28 29  1  0
 29 30  1  0
 30 31  1  0
 31 32  1  0
 32 33  1  0
 33 34  1  0
 34 35  2  0
 34 36  2  0
 34 37  1  0
 37 38  1  0
 37 39  1  0
 33 40  1  0
 33 41  1  0
 32 42  1  0
 31 43  1  0
 31 44  1  0
 29 45  1  0
 29 46  1  0
 28 47  1  1
 27 48  1  0
 27 49  1  0
  7 50  1  0
 50 51  2  0
 51 52  1  0
 52 53  1  0
 52 54  2  0
 54 55  1  0
 55 56  2  0
 56 57  1  0
 57 58  2  0
 55 59  1  0
 54 60  1  0
 51 61  1  0
  6 62  1  0
  6 63  1  0
  4 64  1  0
  4 65  1  0
  3 66  1  0
  3 67  1  0
  2 68  1  0
  2 69  1  0
  1 70  1  0
  1 71  1  0
  1 72  1  0
 57  5  1  0
 28  7  1  0
 37 32  1  0
 56 50  1  0
 20 11  1  0
 20 15  1  0
M  CHG  1   2   1
M  END
>  <cnnaffinities>  (39) 
[6.94418]

>  <score>  (39) 
6.94418

>  <index>  (39) 
38

>  <Smiles>  (39) 
C([N+](C(C(N1C([C@@]2(C(=O)N(c3c(nc(c4c(c(c(c(c34)[H])[H])[H])[H])[H])[H])C([C@@]2(C(OC(C2(C(S(=O)(=O)C2([H])[H])([H])[H])[H])([H])[H])([H])[H])[H])([H])[H])c2c(c(Cl)c(c(c2C1=O)[H])[H])[H])([H])[H])([H])[H])([H])[H])([H])[H])([H])([H])[H]

>  <h>  (39) 
<NA>

>  <Training>  (39) 
True

>  <Success>  (39) 
True

>  <enamine_searched>  (39) 
False

>  <enamine_id>  (39) 
nan

$$$$

     RDKit          3D

 60 64  0  0  0  0  0  0  0  0999 V2000
    8.2833   -4.3173   24.0889 C   0  0  0  0  0  0  0  0  0  0  0  0
    8.1736   -2.8442   24.4708 C   0  0  0  0  0  0  0  0  0  0  0  0
    7.1724   -2.2134   23.6864 O   0  0  0  0  0  0  0  0  0  0  0  0
    7.6790   -1.6916   22.4783 C   0  0  1  0  0  0  0  0  0  0  0  0
    6.5207   -1.5203   21.5032 C   0  0  0  0  0  0  0  0  0  0  0  0
    6.9069   -0.3524   20.7528 N   0  0  0  0  0  0  0  0  0  0  0  0
    6.1256    0.1536   19.6946 C   0  0  0  0  0  0  0  0  0  0  0  0
    6.4481   -0.1732   18.4072 C   0  0  0  0  0  0  0  0  0  0  0  0
    5.7571    0.2463   17.3213 N   0  0  0  0  0  0  0  0  0  0  0  0
    4.7236    1.0247   17.5448 C   0  0  0  0  0  0  0  0  0  0  0  0
    4.2837    1.4364   18.8377 C   0  0  0  0  0  0  0  0  0  0  0  0
    3.1637    2.2879   19.0282 C   0  0  0  0  0  0  0  0  0  0  0  0
    2.7683    2.6456   20.2893 C   0  0  0  0  0  0  0  0  0  0  0  0
    3.4750    2.1826   21.4232 C   0  0  0  0  0  0  0  0  0  0  0  0
    4.5664    1.3634   21.2668 C   0  0  0  0  0  0  0  0  0  0  0  0
    4.9987    0.9783   19.9644 C   0  0  0  0  0  0  0  0  0  0  0  0
    5.1238    1.0404   22.1432 H   0  0  0  0  0  0  0  0  0  0  0  0
    3.1729    2.4952   22.4187 H   0  0  0  0  0  0  0  0  0  0  0  0
    1.9056    3.2905   20.4257 H   0  0  0  0  0  0  0  0  0  0  0  0
    2.6385    2.6465   18.1479 H   0  0  0  0  0  0  0  0  0  0  0  0
    4.1763    1.3749   16.6719 H   0  0  0  0  0  0  0  0  0  0  0  0
    7.3123   -0.8110   18.2350 H   0  0  0  0  0  0  0  0  0  0  0  0
    7.8974    0.4090   21.3200 C   0  0  0  0  0  0  0  0  0  0  0  0
    8.3135    1.4449   20.8420 O   0  0  0  0  0  0  0  0  0  0  0  0
    8.3857   -0.3037   22.5980 C   0  0  1  0  0  0  0  0  0  0  0  0
    7.9495    0.4246   23.8902 C   0  0  0  0  0  0  0  0  0  0  0  0
    8.6877    1.6645   24.0928 N   0  0  0  0  0  0  0  0  0  0  0  0
    7.9655    2.7968   24.6469 C   0  0  0  0  0  0  0  0  0  0  0  0
    6.9761    3.3309   23.6060 C   0  0  0  0  0  0  0  0  0  0  0  0
    5.7776    3.1160   23.7104 O   0  0  0  0  0  0  0  0  0  0  0  0
    7.4970    4.0276   22.5582 N   0  0  0  0  0  0  0  0  0  0  0  0
    6.5907    4.4354   21.4971 C   0  0  0  0  0  0  0  0  0  0  0  0
    6.1678    3.5601   20.9827 H   0  0  0  0  0  0  0  0  0  0  0  0
    7.1212    5.0717   20.7858 H   0  0  0  0  0  0  0  0  0  0  0  0
    5.7756    5.0142   21.9409 H   0  0  0  0  0  0  0  0  0  0  0  0
    8.4508    3.8204   22.2882 H   0  0  0  0  0  0  0  0  0  0  0  0
    7.4052    2.4962   25.5423 H   0  0  0  0  0  0  0  0  0  0  0  0
    8.7002    3.5454   24.9548 H   0  0  0  0  0  0  0  0  0  0  0  0
   10.0612    1.6758   24.0739 C   0  0  0  0  0  0  0  0  0  0  0  0
   10.7241    2.5378   24.6286 O   0  0  0  0  0  0  0  0  0  0  0  0
   10.6835    0.5631   23.2691 C   0  0  0  0  0  0  0  0  0  0  0  0
   12.0753    0.4957   23.1873 C   0  0  0  0  0  0  0  0  0  0  0  0
   12.6938   -0.3489   22.2833 C   0  0  0  0  0  0  0  0  0  0  0  0
   11.8942   -1.1522   21.4680 C   0  0  0  0  0  0  0  0  0  0  0  0
   12.5916   -2.0886   20.1747 Cl  0  0  0  0  0  0  0  0  0  0  0  0
   10.5219   -1.1820   21.6178 C   0  0  0  0  0  0  0  0  0  0  0  0
    9.8959   -0.3412   22.5453 C   0  0  0  0  0  0  0  0  0  0  0  0
    9.9601   -1.8445   20.9687 H   0  0  0  0  0  0  0  0  0  0  0  0
   13.7752   -0.3587   22.1791 H   0  0  0  0  0  0  0  0  0  0  0  0
   12.6555    1.1543   23.8221 H   0  0  0  0  0  0  0  0  0  0  0  0
    8.0998   -0.2498   24.7441 H   0  0  0  0  0  0  0  0  0  0  0  0
    6.8800    0.6421   23.8403 H   0  0  0  0  0  0  0  0  0  0  0  0
    6.3996   -2.3845   20.8393 H   0  0  0  0  0  0  0  0  0  0  0  0
    5.5827   -1.3798   22.0551 H   0  0  0  0  0  0  0  0  0  0  0  0
    8.3885   -2.4034   22.0382 H   0  0  0  0  0  0  0  0  0  0  0  0
    7.8662   -2.7113   25.5196 H   0  0  0  0  0  0  0  0  0  0  0  0
    9.1506   -2.3423   24.3240 H   0  0  0  0  0  0  0  0  0  0  0  0
    8.2282   -4.4333   22.9997 H   0  0  0  0  0  0  0  0  0  0  0  0
    9.2475   -4.7061   24.4199 H   0  0  0  0  0  0  0  0  0  0  0  0
    7.4677   -4.9053   24.5208 H   0  0  0  0  0  0  0  0  0  0  0  0
  1  2  1  0
  2  3  1  0
  3  4  1  0
  4  5  1  0
  5  6  1  0
  6  7  1  0
  7  8  2  0
  8  9  1  0
  9 10  2  0
 10 11  1  0
 11 12  2  0
 12 13  1  0
 13 14  2  0
 14 15  1  0
 15 16  2  0
 15 17  1  0
 14 18  1  0
 13 19  1  0
 12 20  1  0
 10 21  1  0
  8 22  1  0
  6 23  1  0
 23 24  2  0
 23 25  1  0
 25 26  1  1
 26 27  1  0
 27 28  1  0
 28 29  1  0
 29 30  2  0
 29 31  1  0
 31 32  1  0
 32 33  1  0
 32 34  1  0
 32 35  1  0
 31 36  1  0
 28 37  1  0
 28 38  1  0
 27 39  1  0
 39 40  2  0
 39 41  1  0
 41 42  2  0
 42 43  1  0
 43 44  2  0
 44 45  1  0
 44 46  1  0
 46 47  2  0
 46 48  1  0
 43 49  1  0
 42 50  1  0
 26 51  1  0
 26 52  1  0
  5 53  1  0
  5 54  1  0
  4 55  1  6
  2 56  1  0
  2 57  1  0
  1 58  1  0
  1 59  1  0
  1 60  1  0
 25  4  1  0
 47 41  1  0
 16  7  1  0
 47 25  1  0
 16 11  1  0
M  END
>  <cnnaffinities>  (40) 
[6.65802]

>  <score>  (40) 
6.65802

>  <index>  (40) 
39

>  <Smiles>  (40) 
C(C(O[C@]1(C(N(c2c(nc(c3c(c(c(c(c23)[H])[H])[H])[H])[H])[H])C(=O)[C@]21C(N(C(C(=O)N(C([H])([H])[H])[H])([H])[H])C(=O)c1c(c(c(Cl)c(c21)[H])[H])[H])([H])[H])([H])[H])[H])([H])[H])([H])([H])[H]

>  <h>  (40) 
<NA>

>  <Training>  (40) 
True

>  <Success>  (40) 
True

>  <enamine_searched>  (40) 
False

>  <enamine_id>  (40) 
nan

$$$$

     RDKit          3D

 57 61  0  0  0  0  0  0  0  0999 V2000
    6.6178    4.3898   21.3688 C   0  0  0  0  0  0  0  0  0  0  0  0
    7.5797    3.9906   22.3819 N   0  0  0  0  0  0  0  0  0  0  0  0
    7.0974    3.3157   23.4639 C   0  0  0  0  0  0  0  0  0  0  0  0
    5.9035    3.1160   23.6129 O   0  0  0  0  0  0  0  0  0  0  0  0
    8.0992    2.8010   24.4885 C   0  0  0  0  0  0  0  0  0  0  0  0
    8.7854    1.6289   23.9865 N   0  0  0  0  0  0  0  0  0  0  0  0
    8.0481    0.3805   23.8520 C   0  0  0  0  0  0  0  0  0  0  0  0
    8.4673   -0.3983   22.5792 C   0  0  2  0  0  0  0  0  0  0  0  0
    7.9606    0.3027   21.2984 C   0  0  0  0  0  0  0  0  0  0  0  0
    8.4028    1.3040   20.7740 O   0  0  0  0  0  0  0  0  0  0  0  0
    6.8976   -0.4197   20.8116 N   0  0  0  0  0  0  0  0  0  0  0  0
    6.1245    0.0916   19.7441 C   0  0  0  0  0  0  0  0  0  0  0  0
    6.4709   -0.2028   18.4512 C   0  0  0  0  0  0  0  0  0  0  0  0
    5.7924    0.2322   17.3612 N   0  0  0  0  0  0  0  0  0  0  0  0
    4.7537    1.0037   17.5788 C   0  0  0  0  0  0  0  0  0  0  0  0
    4.3030    1.4062   18.8700 C   0  0  0  0  0  0  0  0  0  0  0  0
    3.1879    2.2661   19.0495 C   0  0  0  0  0  0  0  0  0  0  0  0
    2.7897    2.6337   20.3054 C   0  0  0  0  0  0  0  0  0  0  0  0
    3.4880    2.1714   21.4434 C   0  0  0  0  0  0  0  0  0  0  0  0
    4.5721    1.3391   21.2978 C   0  0  0  0  0  0  0  0  0  0  0  0
    5.0048    0.9348   20.0029 C   0  0  0  0  0  0  0  0  0  0  0  0
    5.1248    1.0241   22.1783 H   0  0  0  0  0  0  0  0  0  0  0  0
    3.1816    2.4899   22.4346 H   0  0  0  0  0  0  0  0  0  0  0  0
    1.9319    3.2870   20.4328 H   0  0  0  0  0  0  0  0  0  0  0  0
    2.6719    2.6271   18.1638 H   0  0  0  0  0  0  0  0  0  0  0  0
    4.2088    1.3589   16.7044 H   0  0  0  0  0  0  0  0  0  0  0  0
    7.3412   -0.8290   18.2679 H   0  0  0  0  0  0  0  0  0  0  0  0
    6.5351   -1.5756   21.6050 C   0  0  0  0  0  0  0  0  0  0  0  0
    7.7709   -1.7869   22.4878 C   0  0  2  0  0  0  0  0  0  0  0  0
    7.4565   -2.4883   23.8191 C   0  0  0  0  0  0  0  0  0  0  0  0
    6.9382   -3.8433   23.5855 C   0  0  0  0  0  0  0  0  0  0  0  0
    6.5197   -4.9026   23.3862 N   0  0  0  0  0  0  0  0  0  0  0  0
    8.3616   -2.5619   24.4314 H   0  0  0  0  0  0  0  0  0  0  0  0
    6.7049   -1.9321   24.3908 H   0  0  0  0  0  0  0  0  0  0  0  0
    8.4493   -2.4518   21.9490 H   0  0  0  0  0  0  0  0  0  0  0  0
    6.3397   -2.4429   20.9673 H   0  0  0  0  0  0  0  0  0  0  0  0
    5.6290   -1.3943   22.2040 H   0  0  0  0  0  0  0  0  0  0  0  0
    9.9755   -0.4410   22.5113 C   0  0  0  0  0  0  0  0  0  0  0  0
   10.5912   -1.3128   21.6067 C   0  0  0  0  0  0  0  0  0  0  0  0
   11.9581   -1.2677   21.4303 C   0  0  0  0  0  0  0  0  0  0  0  0
   12.6526   -2.2541   20.1755 Cl  0  0  0  0  0  0  0  0  0  0  0  0
   12.7628   -0.4123   22.1884 C   0  0  0  0  0  0  0  0  0  0  0  0
   12.1597    0.4520   23.0807 C   0  0  0  0  0  0  0  0  0  0  0  0
   10.7691    0.4928   23.1875 C   0  0  0  0  0  0  0  0  0  0  0  0
   10.1532    1.6364   23.9427 C   0  0  0  0  0  0  0  0  0  0  0  0
   10.8284    2.5320   24.4329 O   0  0  0  0  0  0  0  0  0  0  0  0
   12.7386    1.1505   23.6782 H   0  0  0  0  0  0  0  0  0  0  0  0
   13.8366   -0.3963   22.0353 H   0  0  0  0  0  0  0  0  0  0  0  0
   10.0207   -2.0160   21.0086 H   0  0  0  0  0  0  0  0  0  0  0  0
    6.9785    0.6095   23.8265 H   0  0  0  0  0  0  0  0  0  0  0  0
    8.2312   -0.2557   24.7306 H   0  0  0  0  0  0  0  0  0  0  0  0
    7.5540    2.5542   25.4037 H   0  0  0  0  0  0  0  0  0  0  0  0
    8.8651    3.5362   24.7362 H   0  0  0  0  0  0  0  0  0  0  0  0
    8.5143    3.7985   22.0562 H   0  0  0  0  0  0  0  0  0  0  0  0
    5.8168    4.9518   21.8518 H   0  0  0  0  0  0  0  0  0  0  0  0
    7.0915    5.0533   20.6404 H   0  0  0  0  0  0  0  0  0  0  0  0
    6.1928    3.5098   20.8635 H   0  0  0  0  0  0  0  0  0  0  0  0
  1  2  1  0
  2  3  1  0
  3  4  2  0
  3  5  1  0
  5  6  1  0
  6  7  1  0
  8  7  1  1
  8  9  1  0
  9 10  2  0
  9 11  1  0
 11 12  1  0
 12 13  2  0
 13 14  1  0
 14 15  2  0
 15 16  1  0
 16 17  2  0
 17 18  1  0
 18 19  2  0
 19 20  1  0
 20 21  2  0
 20 22  1  0
 19 23  1  0
 18 24  1  0
 17 25  1  0
 15 26  1  0
 13 27  1  0
 11 28  1  0
 28 29  1  0
 29 30  1  0
 30 31  1  0
 31 32  3  0
 30 33  1  0
 30 34  1  0
 29 35  1  6
 28 36  1  0
 28 37  1  0
  8 38  1  0
 38 39  2  0
 39 40  1  0
 40 41  1  0
 40 42  2  0
 42 43  1  0
 43 44  2  0
 44 45  1  0
 45 46  2  0
 43 47  1  0
 42 48  1  0
 39 49  1  0
  7 50  1  0
  7 51  1  0
  5 52  1  0
  5 53  1  0
  2 54  1  0
  1 55  1  0
  1 56  1  0
  1 57  1  0
 45  6  1  0
 29  8  1  0
 44 38  1  0
 21 12  1  0
 21 16  1  0
M  END
>  <cnnaffinities>  (41) 
[6.85148]

>  <score>  (41) 
6.85148

>  <index>  (41) 
40

>  <Smiles>  (41) 
C(N(C(=O)C(N1C([C@@]2(C(=O)N(c3c(nc(c4c(c(c(c(c34)[H])[H])[H])[H])[H])[H])C([C@@]2(C(C#N)([H])[H])[H])([H])[H])c2c(c(Cl)c(c(c2C1=O)[H])[H])[H])([H])[H])([H])[H])[H])([H])([H])[H]

>  <h>  (41) 
<NA>

>  <Training>  (41) 
True

>  <Success>  (41) 
True

>  <enamine_searched>  (41) 
False

>  <enamine_id>  (41) 
nan

$$$$

     RDKit          3D

 68 73  0  0  0  0  0  0  0  0999 V2000
    7.1390   -2.4840   23.4525 C   0  0  0  0  0  0  0  0  0  0  0  0
    8.0218   -1.7940   22.3954 C   0  0  1  0  0  0  0  0  0  0  0  0
    7.2924   -1.7362   21.0309 C   0  0  0  0  0  0  0  0  0  0  0  0
    6.9226   -0.3452   20.8627 N   0  0  0  0  0  0  0  0  0  0  0  0
    6.1404    0.1168   19.7766 C   0  0  0  0  0  0  0  0  0  0  0  0
    6.4460   -0.2251   18.4809 C   0  0  0  0  0  0  0  0  0  0  0  0
    5.7688    0.2178   17.3927 N   0  0  0  0  0  0  0  0  0  0  0  0
    4.7493    1.0171   17.5982 C   0  0  0  0  0  0  0  0  0  0  0  0
    4.2998    1.4219   18.8859 C   0  0  0  0  0  0  0  0  0  0  0  0
    3.1774    2.2773   19.0576 C   0  0  0  0  0  0  0  0  0  0  0  0
    2.7511    2.6216   20.3126 C   0  0  0  0  0  0  0  0  0  0  0  0
    3.4193    2.1167   21.4510 C   0  0  0  0  0  0  0  0  0  0  0  0
    4.5090    1.2945   21.3087 C   0  0  0  0  0  0  0  0  0  0  0  0
    4.9983    0.9464   20.0164 C   0  0  0  0  0  0  0  0  0  0  0  0
    5.0170    0.9119   22.1876 H   0  0  0  0  0  0  0  0  0  0  0  0
    3.0842    2.4053   22.4445 H   0  0  0  0  0  0  0  0  0  0  0  0
    1.9024    3.2876   20.4410 H   0  0  0  0  0  0  0  0  0  0  0  0
    2.6738    2.6515   18.1709 H   0  0  0  0  0  0  0  0  0  0  0  0
    4.2232    1.3808   16.7169 H   0  0  0  0  0  0  0  0  0  0  0  0
    7.2927   -0.8731   18.2589 H   0  0  0  0  0  0  0  0  0  0  0  0
    7.6308    0.5116   21.6786 C   0  0  0  0  0  0  0  0  0  0  0  0
    7.6089    1.7245   21.5862 O   0  0  0  0  0  0  0  0  0  0  0  0
    8.4570   -0.3167   22.6916 C   0  0  1  0  0  0  0  0  0  0  0  0
    8.1402    0.1259   24.1383 C   0  0  0  0  0  0  0  0  0  0  0  0
    8.6171    1.4653   24.4289 N   0  0  0  0  0  0  0  0  0  0  0  0
    7.7746    2.3213   25.2548 C   0  0  0  0  0  0  0  0  0  0  0  0
    6.7431    3.1046   24.4386 C   0  0  0  0  0  0  0  0  0  0  0  0
    7.3649    4.1814   23.5978 N   0  0  0  0  0  4  0  0  0  0  0  0
    7.9080    5.3053   24.4639 C   0  0  0  0  0  0  0  0  0  0  0  0
    8.0234    6.6291   23.7233 C   0  0  0  0  0  0  0  0  0  0  0  0
    6.4061    7.2566   23.2619 S   0  0  0  0  0  0  0  0  0  0  0  0
    5.8271    7.9023   24.4401 O   0  0  0  0  0  0  0  0  0  0  0  0
    6.5392    8.0016   22.0163 O   0  0  0  0  0  0  0  0  0  0  0  0
    5.4830    5.7565   22.9312 C   0  0  0  0  0  0  0  0  0  0  0  0
    6.4369    4.6534   22.4973 C   0  0  0  0  0  0  0  0  0  0  0  0
    5.8674    3.7863   22.1691 H   0  0  0  0  0  0  0  0  0  0  0  0
    7.0489    4.9829   21.6540 H   0  0  0  0  0  0  0  0  0  0  0  0
    4.7614    6.0214   22.1536 H   0  0  0  0  0  0  0  0  0  0  0  0
    4.9474    5.5091   23.8515 H   0  0  0  0  0  0  0  0  0  0  0  0
    8.6042    6.5534   22.8003 H   0  0  0  0  0  0  0  0  0  0  0  0
    8.4514    7.4126   24.3532 H   0  0  0  0  0  0  0  0  0  0  0  0
    7.2532    5.4278   25.3350 H   0  0  0  0  0  0  0  0  0  0  0  0
    8.8956    5.0108   24.8155 H   0  0  0  0  0  0  0  0  0  0  0  0
    8.1567    3.7225   23.1104 H   0  0  0  0  0  0  0  0  0  0  0  0
    6.2224    2.4156   23.7628 H   0  0  0  0  0  0  0  0  0  0  0  0
    6.0048    3.5588   25.1127 H   0  0  0  0  0  0  0  0  0  0  0  0
    8.4306    2.9896   25.8137 H   0  0  0  0  0  0  0  0  0  0  0  0
    7.2408    1.6891   25.9757 H   0  0  0  0  0  0  0  0  0  0  0  0
    9.8944    1.8417   24.1247 C   0  0  0  0  0  0  0  0  0  0  0  0
   10.4107    2.8463   24.6049 O   0  0  0  0  0  0  0  0  0  0  0  0
   10.6068    0.9735   23.1164 C   0  0  0  0  0  0  0  0  0  0  0  0
   11.9411    1.2474   22.8219 C   0  0  0  0  0  0  0  0  0  0  0  0
   12.6321    0.4991   21.8875 C   0  0  0  0  0  0  0  0  0  0  0  0
   11.9735   -0.5463   21.2429 C   0  0  0  0  0  0  0  0  0  0  0  0
   12.8348   -1.5178   20.0857 Cl  0  0  0  0  0  0  0  0  0  0  0  0
   10.6291   -0.7883   21.4668 C   0  0  0  0  0  0  0  0  0  0  0  0
    9.9401   -0.0613   22.4458 C   0  0  0  0  0  0  0  0  0  0  0  0
   10.1090   -1.4704   20.8011 H   0  0  0  0  0  0  0  0  0  0  0  0
   13.6453    0.7585   21.6045 H   0  0  0  0  0  0  0  0  0  0  0  0
   12.4165    2.0620   23.3521 H   0  0  0  0  0  0  0  0  0  0  0  0
    8.5964   -0.6043   24.8280 H   0  0  0  0  0  0  0  0  0  0  0  0
    7.0593    0.1285   24.2948 H   0  0  0  0  0  0  0  0  0  0  0  0
    6.3980   -2.3718   21.0137 H   0  0  0  0  0  0  0  0  0  0  0  0
    7.9529   -2.0566   20.2180 H   0  0  0  0  0  0  0  0  0  0  0  0
    8.9235   -2.4108   22.3075 H   0  0  0  0  0  0  0  0  0  0  0  0
    7.6485   -2.5685   24.4191 H   0  0  0  0  0  0  0  0  0  0  0  0
    6.8954   -3.5057   23.1297 H   0  0  0  0  0  0  0  0  0  0  0  0
    6.1931   -1.9499   23.6066 H   0  0  0  0  0  0  0  0  0  0  0  0
  1  2  1  0
  2  3  1  0
  3  4  1  0
  4  5  1  0
  5  6  2  0
  6  7  1  0
  7  8  2  0
  8  9  1  0
  9 10  2  0
 10 11  1  0
 11 12  2  0
 12 13  1  0
 13 14  2  0
 13 15  1  0
 12 16  1  0
 11 17  1  0
 10 18  1  0
  8 19  1  0
  6 20  1  0
  4 21  1  0
 21 22  2  0
 21 23  1  0
 23 24  1  1
 24 25  1  0
 25 26  1  0
 26 27  1  0
 27 28  1  0
 28 29  1  0
 29 30  1  0
 30 31  1  0
 31 32  2  0
 31 33  2  0
 31 34  1  0
 34 35  1  0
 35 36  1  0
 35 37  1  0
 34 38  1  0
 34 39  1  0
 30 40  1  0
 30 41  1  0
 29 42  1  0
 29 43  1  0
 28 44  1  0
 27 45  1  0
 27 46  1  0
 26 47  1  0
 26 48  1  0
 25 49  1  0
 49 50  2  0
 49 51  1  0
 51 52  2  0
 52 53  1  0
 53 54  2  0
 54 55  1  0
 54 56  1  0
 56 57  2  0
 56 58  1  0
 53 59  1  0
 52 60  1  0
 24 61  1  0
 24 62  1  0
  3 63  1  0
  3 64  1  0
  2 65  1  6
  1 66  1  0
  1 67  1  0
  1 68  1  0
 23  2  1  0
 35 28  1  0
 57 51  1  0
 14  5  1  0
 57 23  1  0
 14  9  1  0
M  CHG  1  28   1
M  END
>  <cnnaffinities>  (42) 
[6.79516]

>  <score>  (42) 
6.79516

>  <index>  (42) 
41

>  <Smiles>  (42) 
C([C@]1(C(N(c2c(nc(c3c(c(c(c(c23)[H])[H])[H])[H])[H])[H])C(=O)[C@]21C(N(C(C([N+]1(C(C(S(=O)(=O)C(C1([H])[H])([H])[H])([H])[H])([H])[H])[H])([H])[H])([H])[H])C(=O)c1c(c(c(Cl)c(c21)[H])[H])[H])([H])[H])([H])[H])[H])([H])([H])[H]

>  <h>  (42) 
<NA>

>  <Training>  (42) 
True

>  <Success>  (42) 
True

>  <enamine_searched>  (42) 
False

>  <enamine_id>  (42) 
nan

$$$$

     RDKit          3D

 60 65  0  0  0  0  0  0  0  0999 V2000
    6.5719    4.3897   21.3757 C   0  0  0  0  0  0  0  0  0  0  0  0
    7.5509    3.9718   22.3668 N   0  0  0  0  0  0  0  0  0  0  0  0
    7.0732    3.3221   23.4760 C   0  0  0  0  0  0  0  0  0  0  0  0
    5.8786    3.1491   23.6574 O   0  0  0  0  0  0  0  0  0  0  0  0
    8.1074    2.8018   24.4725 C   0  0  0  0  0  0  0  0  0  0  0  0
    8.7944    1.6422   23.9442 N   0  0  0  0  0  0  0  0  0  0  0  0
    8.0530    0.3913   23.8337 C   0  0  0  0  0  0  0  0  0  0  0  0
    8.4608   -0.4175   22.5768 C   0  0  2  0  0  0  0  0  0  0  0  0
    7.9630    0.2714   21.2860 C   0  0  0  0  0  0  0  0  0  0  0  0
    8.4340    1.2452   20.7317 O   0  0  0  0  0  0  0  0  0  0  0  0
    6.8775   -0.4293   20.8186 N   0  0  0  0  0  0  0  0  0  0  0  0
    6.1157    0.0856   19.7465 C   0  0  0  0  0  0  0  0  0  0  0  0
    6.4722   -0.2061   18.4558 C   0  0  0  0  0  0  0  0  0  0  0  0
    5.7982    0.2308   17.3656 N   0  0  0  0  0  0  0  0  0  0  0  0
    4.7560    1.0002   17.5787 C   0  0  0  0  0  0  0  0  0  0  0  0
    4.3003    1.4029   18.8685 C   0  0  0  0  0  0  0  0  0  0  0  0
    3.1855    2.2631   19.0471 C   0  0  0  0  0  0  0  0  0  0  0  0
    2.7879    2.6335   20.3038 C   0  0  0  0  0  0  0  0  0  0  0  0
    3.4903    2.1766   21.4415 C   0  0  0  0  0  0  0  0  0  0  0  0
    4.5750    1.3449   21.2965 C   0  0  0  0  0  0  0  0  0  0  0  0
    4.9997    0.9332   20.0005 C   0  0  0  0  0  0  0  0  0  0  0  0
    5.1368    1.0351   22.1747 H   0  0  0  0  0  0  0  0  0  0  0  0
    3.1907    2.5022   22.4326 H   0  0  0  0  0  0  0  0  0  0  0  0
    1.9314    3.2888   20.4303 H   0  0  0  0  0  0  0  0  0  0  0  0
    2.6696    2.6232   18.1627 H   0  0  0  0  0  0  0  0  0  0  0  0
    4.2172    1.3543   16.7016 H   0  0  0  0  0  0  0  0  0  0  0  0
    7.3453   -0.8297   18.2760 H   0  0  0  0  0  0  0  0  0  0  0  0
    6.4782   -1.5519   21.6421 C   0  0  0  0  0  0  0  0  0  0  0  0
    7.7410   -1.7969   22.4827 C   0  0  2  0  0  0  0  0  0  0  0  0
    7.5384   -2.6349   23.7632 C   0  0  0  0  0  0  0  0  0  0  0  0
    6.3192   -2.3061   24.5794 C   0  0  0  0  0  0  0  0  0  0  0  0
    5.0906   -2.6973   24.2575 N   0  0  0  0  0  0  0  0  0  0  0  0
    4.3023   -2.1769   25.1969 N   0  0  0  0  0  0  0  0  0  0  0  0
    5.0278   -1.5028   26.0468 N   0  0  0  0  0  2  0  0  0  0  0  0
    6.3075   -1.5759   25.6871 N   0  0  0  0  0  0  0  0  0  0  0  0
    7.4367   -3.6830   23.4639 H   0  0  0  0  0  0  0  0  0  0  0  0
    8.4290   -2.5527   24.3966 H   0  0  0  0  0  0  0  0  0  0  0  0
    8.3919   -2.4050   21.8521 H   0  0  0  0  0  0  0  0  0  0  0  0
    5.5993   -1.3165   22.2568 H   0  0  0  0  0  0  0  0  0  0  0  0
    6.2284   -2.4242   21.0274 H   0  0  0  0  0  0  0  0  0  0  0  0
    9.9728   -0.4728   22.5105 C   0  0  0  0  0  0  0  0  0  0  0  0
   10.6008   -1.3665   21.6302 C   0  0  0  0  0  0  0  0  0  0  0  0
   11.9610   -1.2861   21.4085 C   0  0  0  0  0  0  0  0  0  0  0  0
   12.6469   -2.2660   20.1371 Cl  0  0  0  0  0  0  0  0  0  0  0  0
   12.7624   -0.4003   22.1334 C   0  0  0  0  0  0  0  0  0  0  0  0
   12.1538    0.4620   23.0263 C   0  0  0  0  0  0  0  0  0  0  0  0
   10.7649    0.4911   23.1469 C   0  0  0  0  0  0  0  0  0  0  0  0
   10.1611    1.6587   23.8741 C   0  0  0  0  0  0  0  0  0  0  0  0
   10.8433    2.5693   24.3236 O   0  0  0  0  0  0  0  0  0  0  0  0
   12.7273    1.1702   23.6121 H   0  0  0  0  0  0  0  0  0  0  0  0
   13.8323   -0.3647   21.9576 H   0  0  0  0  0  0  0  0  0  0  0  0
   10.0510   -2.1177   21.0720 H   0  0  0  0  0  0  0  0  0  0  0  0
    8.2267   -0.2299   24.7245 H   0  0  0  0  0  0  0  0  0  0  0  0
    6.9828    0.6192   23.7967 H   0  0  0  0  0  0  0  0  0  0  0  0
    8.8748    3.5387   24.7192 H   0  0  0  0  0  0  0  0  0  0  0  0
    7.5802    2.5478   25.3946 H   0  0  0  0  0  0  0  0  0  0  0  0
    8.4574    3.7194   21.9990 H   0  0  0  0  0  0  0  0  0  0  0  0
    5.7420    4.8746   21.8912 H   0  0  0  0  0  0  0  0  0  0  0  0
    6.1656    3.5271   20.8242 H   0  0  0  0  0  0  0  0  0  0  0  0
    7.0119    5.1104   20.6767 H   0  0  0  0  0  0  0  0  0  0  0  0
  1  2  1  0
  2  3  1  0
  3  4  2  0
  3  5  1  0
  5  6  1  0
  6  7  1  0
  8  7  1  1
  8  9  1  0
  9 10  2  0
  9 11  1  0
 11 12  1  0
 12 13  2  0
 13 14  1  0
 14 15  2  0
 15 16  1  0
 16 17  2  0
 17 18  1  0
 18 19  2  0
 19 20  1  0
 20 21  2  0
 20 22  1  0
 19 23  1  0
 18 24  1  0
 17 25  1  0
 15 26  1  0
 13 27  1  0
 11 28  1  0
 28 29  1  0
 29 30  1  0
 30 31  1  0
 31 32  1  0
 32 33  2  0
 33 34  1  0
 34 35  1  0
 30 36  1  0
 30 37  1  0
 29 38  1  6
 28 39  1  0
 28 40  1  0
  8 41  1  0
 41 42  2  0
 42 43  1  0
 43 44  1  0
 43 45  2  0
 45 46  1  0
 46 47  2  0
 47 48  1  0
 48 49  2  0
 46 50  1  0
 45 51  1  0
 42 52  1  0
  7 53  1  0
  7 54  1  0
  5 55  1  0
  5 56  1  0
  2 57  1  0
  1 58  1  0
  1 59  1  0
  1 60  1  0
 48  6  1  0
 29  8  1  0
 35 31  2  0
 47 41  1  0
 21 12  1  0
 21 16  1  0
M  CHG  1  34  -1
M  END
>  <cnnaffinities>  (43) 
[6.80775, 7.17659, 7.17682, 7.08654, 7.08678]

>  <score>  (43) 
6.80775

>  <index>  (43) 
42

>  <Smiles>  (43) 
C(N(C(=O)C(N1C([C@@]2(C(=O)N(c3c(nc(c4c(c(c(c(c34)[H])[H])[H])[H])[H])[H])C([C@@]2(C(c2nn[n-]n2)([H])[H])[H])([H])[H])c2c(c(Cl)c(c(c2C1=O)[H])[H])[H])([H])[H])([H])[H])[H])([H])([H])[H]

>  <h>  (43) 
<NA>

>  <Training>  (43) 
True

>  <Success>  (43) 
True

>  <enamine_searched>  (43) 
False

>  <enamine_id>  (43) 
nan

$$$$

     RDKit          3D

 62 67  0  0  0  0  0  0  0  0999 V2000
    5.5191    1.4024   27.8057 C   0  0  0  0  0  0  0  0  0  0  0  0
    7.0022    1.2287   27.5289 C   0  0  0  0  0  0  0  0  0  0  0  0
    7.6786    2.4956   27.2944 N   0  0  0  0  0  0  0  0  0  0  0  0
    7.8613    3.2705   28.3722 N   0  0  0  0  0  0  0  0  0  0  0  0
    8.4397    4.3696   27.9159 C   0  0  0  0  0  0  0  0  0  0  0  0
    8.6486    4.3107   26.5260 C   0  0  0  0  0  0  0  0  0  0  0  0
    8.1394    3.0793   26.1480 C   0  0  0  0  0  0  0  0  0  0  0  0
    7.9494    2.4884   24.7745 C   0  0  0  0  0  0  0  0  0  0  0  0
    8.8164    1.3672   24.4099 N   0  0  0  0  0  0  0  0  0  0  0  0
    8.2623    0.0513   24.1332 C   0  0  0  0  0  0  0  0  0  0  0  0
    8.4690   -0.4058   22.6677 C   0  0  2  0  0  0  0  0  0  0  0  0
    7.6363    0.4710   21.7066 C   0  0  0  0  0  0  0  0  0  0  0  0
    7.6306    1.6829   21.6569 O   0  0  0  0  0  0  0  0  0  0  0  0
    6.8847   -0.3506   20.8934 N   0  0  0  0  0  0  0  0  0  0  0  0
    6.1233    0.1242   19.8052 C   0  0  0  0  0  0  0  0  0  0  0  0
    6.4417   -0.2357   18.5197 C   0  0  0  0  0  0  0  0  0  0  0  0
    5.7863    0.2000   17.4151 N   0  0  0  0  0  0  0  0  0  0  0  0
    4.7658    1.0005   17.6030 C   0  0  0  0  0  0  0  0  0  0  0  0
    4.3013    1.4130   18.8836 C   0  0  0  0  0  0  0  0  0  0  0  0
    3.1793    2.2683   19.0337 C   0  0  0  0  0  0  0  0  0  0  0  0
    2.7329    2.6153   20.2778 C   0  0  0  0  0  0  0  0  0  0  0  0
    3.3793    2.1189   21.4335 C   0  0  0  0  0  0  0  0  0  0  0  0
    4.4690    1.2958   21.3150 C   0  0  0  0  0  0  0  0  0  0  0  0
    4.9764    0.9468   20.0322 C   0  0  0  0  0  0  0  0  0  0  0  0
    4.9611    0.9127   22.2038 H   0  0  0  0  0  0  0  0  0  0  0  0
    3.0131    2.3982   22.4168 H   0  0  0  0  0  0  0  0  0  0  0  0
    1.8769    3.2746   20.3901 H   0  0  0  0  0  0  0  0  0  0  0  0
    2.6883    2.6370   18.1363 H   0  0  0  0  0  0  0  0  0  0  0  0
    4.2418    1.3582   16.7158 H   0  0  0  0  0  0  0  0  0  0  0  0
    7.2924   -0.8902   18.3315 H   0  0  0  0  0  0  0  0  0  0  0  0
    7.2210   -1.7492   21.0268 C   0  0  0  0  0  0  0  0  0  0  0  0
    7.9299   -1.8458   22.3921 C   0  0  2  0  0  0  0  0  0  0  0  0
    7.0123   -2.4294   23.4713 C   0  0  0  0  0  0  0  0  0  0  0  0
    6.1141   -1.8218   23.6248 H   0  0  0  0  0  0  0  0  0  0  0  0
    7.5383   -2.5106   24.4274 H   0  0  0  0  0  0  0  0  0  0  0  0
    6.6956   -3.4396   23.1917 H   0  0  0  0  0  0  0  0  0  0  0  0
    8.7764   -2.5338   22.3200 H   0  0  0  0  0  0  0  0  0  0  0  0
    6.3132   -2.3587   20.9702 H   0  0  0  0  0  0  0  0  0  0  0  0
    7.8857   -2.0600   20.2140 H   0  0  0  0  0  0  0  0  0  0  0  0
    9.9582   -0.2544   22.3702 C   0  0  0  0  0  0  0  0  0  0  0  0
   10.5922   -1.0515   21.4094 C   0  0  0  0  0  0  0  0  0  0  0  0
   11.9351   -0.8630   21.1500 C   0  0  0  0  0  0  0  0  0  0  0  0
   12.5398   -1.6436   20.2380 F   0  0  0  0  0  0  0  0  0  0  0  0
   12.6870    0.1203   21.7797 C   0  0  0  0  0  0  0  0  0  0  0  0
   12.0572    0.9253   22.7078 C   0  0  0  0  0  0  0  0  0  0  0  0
   10.7100    0.7405   23.0111 C   0  0  0  0  0  0  0  0  0  0  0  0
   10.0807    1.6909   23.9867 C   0  0  0  0  0  0  0  0  0  0  0  0
   10.6348    2.7208   24.3445 O   0  0  0  0  0  0  0  0  0  0  0  0
   12.5858    1.7235   23.2153 H   0  0  0  0  0  0  0  0  0  0  0  0
   13.7320    0.2425   21.5239 H   0  0  0  0  0  0  0  0  0  0  0  0
   10.0720   -1.8231   20.8539 H   0  0  0  0  0  0  0  0  0  0  0  0
    8.7502   -0.6932   24.7776 H   0  0  0  0  0  0  0  0  0  0  0  0
    7.1958    0.0692   24.3686 H   0  0  0  0  0  0  0  0  0  0  0  0
    6.9063    2.1638   24.6620 H   0  0  0  0  0  0  0  0  0  0  0  0
    8.1092    3.2796   24.0318 H   0  0  0  0  0  0  0  0  0  0  0  0
    9.1190    5.0532   25.8908 H   0  0  0  0  0  0  0  0  0  0  0  0
    8.6743    5.1523   28.6205 H   0  0  0  0  0  0  0  0  0  0  0  0
    7.1881    0.5626   26.6834 H   0  0  0  0  0  0  0  0  0  0  0  0
    7.4844    0.7744   28.3974 H   0  0  0  0  0  0  0  0  0  0  0  0
    5.0184    1.9373   26.9955 H   0  0  0  0  0  0  0  0  0  0  0  0
    5.3690    1.9695   28.7274 H   0  0  0  0  0  0  0  0  0  0  0  0
    5.0702    0.4121   27.9099 H   0  0  0  0  0  0  0  0  0  0  0  0
  1  2  1  0
  2  3  1  0
  3  4  1  0
  4  5  2  0
  5  6  1  0
  6  7  2  0
  7  8  1  0
  8  9  1  0
  9 10  1  0
 11 10  1  1
 11 12  1  0
 12 13  2  0
 12 14  1  0
 14 15  1  0
 15 16  2  0
 16 17  1  0
 17 18  2  0
 18 19  1  0
 19 20  2  0
 20 21  1  0
 21 22  2  0
 22 23  1  0
 23 24  2  0
 23 25  1  0
 22 26  1  0
 21 27  1  0
 20 28  1  0
 18 29  1  0
 16 30  1  0
 14 31  1  0
 31 32  1  0
 32 33  1  0
 33 34  1  0
 33 35  1  0
 33 36  1  0
 32 37  1  6
 31 38  1  0
 31 39  1  0
 11 40  1  0
 40 41  2  0
 41 42  1  0
 42 43  1  0
 42 44  2  0
 44 45  1  0
 45 46  2  0
 46 47  1  0
 47 48  2  0
 45 49  1  0
 44 50  1  0
 41 51  1  0
 10 52  1  0
 10 53  1  0
  8 54  1  0
  8 55  1  0
  6 56  1  0
  5 57  1  0
  2 58  1  0
  2 59  1  0
  1 60  1  0
  1 61  1  0
  1 62  1  0
  7  3  1  0
 47  9  1  0
 32 11  1  0
 46 40  1  0
 24 15  1  0
 24 19  1  0
M  END
>  <cnnaffinities>  (44) 
[6.39668, 6.90503, 6.71123, 6.33221]

>  <score>  (44) 
6.39668

>  <index>  (44) 
43

>  <Smiles>  (44) 
C(C(n1nc(c(c1C(N1C([C@@]2(C(=O)N(c3c(nc(c4c(c(c(c(c34)[H])[H])[H])[H])[H])[H])C([C@@]2(C([H])([H])[H])[H])([H])[H])c2c(c(F)c(c(c2C1=O)[H])[H])[H])([H])[H])([H])[H])[H])[H])([H])[H])([H])([H])[H]

>  <h>  (44) 
<NA>

>  <Training>  (44) 
True

>  <Success>  (44) 
True

>  <enamine_searched>  (44) 
False

>  <enamine_id>  (44) 
nan

$$$$

     RDKit          3D

 56 60  0  0  0  0  0  0  0  0999 V2000
    7.5127   -8.4107   23.0732 C   0  0  0  0  0  0  0  0  0  0  0  0
    6.5304   -7.3962   22.7475 N   0  0  0  0  0  0  0  0  0  0  0  0
    6.7867   -6.5690   21.6917 C   0  0  0  0  0  0  0  0  0  0  0  0
    7.5963   -6.8135   20.8185 O   0  0  0  0  0  0  0  0  0  0  0  0
    6.0389   -5.2370   21.6700 C   0  0  0  0  0  0  0  0  0  0  0  0
    6.6286   -4.3146   22.6259 N   0  0  0  0  0  0  0  0  0  0  0  0
    7.7197   -3.4144   22.2715 C   0  0  0  0  0  0  0  0  0  0  0  0
    7.3805   -1.9484   22.6529 C   0  0  2  0  0  0  0  0  0  0  0  0
    6.2913   -1.4315   21.6829 C   0  0  0  0  0  0  0  0  0  0  0  0
    5.1423   -1.8188   21.6031 O   0  0  0  0  0  0  0  0  0  0  0  0
    6.8443   -0.4733   20.8556 N   0  0  0  0  0  0  0  0  0  0  0  0
    6.1173    0.0780   19.7801 C   0  0  0  0  0  0  0  0  0  0  0  0
    6.4655   -0.2166   18.4858 C   0  0  0  0  0  0  0  0  0  0  0  0
    5.8033    0.2274   17.3885 N   0  0  0  0  0  0  0  0  0  0  0  0
    4.7672    1.0052   17.5968 C   0  0  0  0  0  0  0  0  0  0  0  0
    4.3122    1.4041   18.8858 C   0  0  0  0  0  0  0  0  0  0  0  0
    3.1941    2.2634   19.0435 C   0  0  0  0  0  0  0  0  0  0  0  0
    2.7892    2.6488   20.2912 C   0  0  0  0  0  0  0  0  0  0  0  0
    3.4833    2.2032   21.4369 C   0  0  0  0  0  0  0  0  0  0  0  0
    4.5689    1.3740   21.3122 C   0  0  0  0  0  0  0  0  0  0  0  0
    5.0031    0.9414   20.0251 C   0  0  0  0  0  0  0  0  0  0  0  0
    5.0948    1.0409   22.2012 H   0  0  0  0  0  0  0  0  0  0  0  0
    3.1575    2.5316   22.4197 H   0  0  0  0  0  0  0  0  0  0  0  0
    1.9397    3.3148   20.4073 H   0  0  0  0  0  0  0  0  0  0  0  0
    2.6808    2.6120   18.1514 H   0  0  0  0  0  0  0  0  0  0  0  0
    4.2278    1.3691   16.7222 H   0  0  0  0  0  0  0  0  0  0  0  0
    7.3116   -0.8769   18.2982 H   0  0  0  0  0  0  0  0  0  0  0  0
    8.2874   -0.4019   20.9585 C   0  0  0  0  0  0  0  0  0  0  0  0
    8.5524   -0.9626   22.3632 C   0  0  2  0  0  0  0  0  0  0  0  0
    9.9825   -1.4816   22.4388 C   0  0  0  0  0  0  0  0  0  0  0  0
   10.4517   -2.0137   24.0783 Cl  0  0  0  0  0  0  0  0  0  0  0  0
   10.1325   -2.3304   21.7639 H   0  0  0  0  0  0  0  0  0  0  0  0
   10.6838   -0.6916   22.1582 H   0  0  0  0  0  0  0  0  0  0  0  0
    8.4680   -0.1286   23.0605 H   0  0  0  0  0  0  0  0  0  0  0  0
    8.6285    0.6345   20.8600 H   0  0  0  0  0  0  0  0  0  0  0  0
    8.7999   -1.0068   20.1925 H   0  0  0  0  0  0  0  0  0  0  0  0
    6.8953   -1.9549   24.0927 C   0  0  0  0  0  0  0  0  0  0  0  0
    6.8579   -0.7804   24.8539 C   0  0  0  0  0  0  0  0  0  0  0  0
    6.4020   -0.8108   26.1599 C   0  0  0  0  0  0  0  0  0  0  0  0
    6.3583    0.6718   27.0636 Cl  0  0  0  0  0  0  0  0  0  0  0  0
    5.9716   -1.9864   26.7729 C   0  0  0  0  0  0  0  0  0  0  0  0
    5.9714   -3.1378   26.0170 C   0  0  0  0  0  0  0  0  0  0  0  0
    6.3947   -3.1194   24.6915 C   0  0  0  0  0  0  0  0  0  0  0  0
    6.1630   -4.3503   23.8975 C   0  0  0  0  0  0  0  0  0  0  0  0
    5.5283   -5.3101   24.3474 O   0  0  0  0  0  0  0  0  0  0  0  0
    5.6208   -4.0785   26.4199 H   0  0  0  0  0  0  0  0  0  0  0  0
    5.6295   -1.9873   27.8037 H   0  0  0  0  0  0  0  0  0  0  0  0
    7.1848    0.1697   24.4464 H   0  0  0  0  0  0  0  0  0  0  0  0
    8.6581   -3.7022   22.7707 H   0  0  0  0  0  0  0  0  0  0  0  0
    7.8839   -3.4869   21.2002 H   0  0  0  0  0  0  0  0  0  0  0  0
    4.9837   -5.3707   21.9288 H   0  0  0  0  0  0  0  0  0  0  0  0
    6.1021   -4.7951   20.6698 H   0  0  0  0  0  0  0  0  0  0  0  0
    5.9579   -7.0291   23.4919 H   0  0  0  0  0  0  0  0  0  0  0  0
    8.3969   -8.0027   23.5862 H   0  0  0  0  0  0  0  0  0  0  0  0
    7.0491   -9.1639   23.7100 H   0  0  0  0  0  0  0  0  0  0  0  0
    7.8266   -8.8768   22.1415 H   0  0  0  0  0  0  0  0  0  0  0  0
  1  2  1  0
  2  3  1  0
  3  4  2  0
  3  5  1  0
  5  6  1  0
  6  7  1  0
  8  7  1  6
  8  9  1  0
  9 10  2  0
  9 11  1  0
 11 12  1  0
 12 13  2  0
 13 14  1  0
 14 15  2  0
 15 16  1  0
 16 17  2  0
 17 18  1  0
 18 19  2  0
 19 20  1  0
 20 21  2  0
 20 22  1  0
 19 23  1  0
 18 24  1  0
 17 25  1  0
 15 26  1  0
 13 27  1  0
 11 28  1  0
 28 29  1  0
 29 30  1  0
 30 31  1  0
 30 32  1  0
 30 33  1  0
 29 34  1  1
 28 35  1  0
 28 36  1  0
  8 37  1  0
 37 38  2  0
 38 39  1  0
 39 40  1  0
 39 41  2  0
 41 42  1  0
 42 43  2  0
 43 44  1  0
 44 45  2  0
 42 46  1  0
 41 47  1  0
 38 48  1  0
  7 49  1  0
  7 50  1  0
  5 51  1  0
  5 52  1  0
  2 53  1  0
  1 54  1  0
  1 55  1  0
  1 56  1  0
 44  6  1  0
 29  8  1  0
 43 37  1  0
 21 12  1  0
 21 16  1  0
M  END
>  <cnnaffinities>  (45) 
[6.8636, 6.84673]

>  <score>  (45) 
6.8636

>  <index>  (45) 
44

>  <Smiles>  (45) 
C(N(C(=O)C(N1C([C@@]2(C(=O)N(c3c(nc(c4c(c(c(c(c34)[H])[H])[H])[H])[H])[H])C([C@@]2(C(Cl)([H])[H])[H])([H])[H])c2c(c(Cl)c(c(c2C1=O)[H])[H])[H])([H])[H])([H])[H])[H])([H])([H])[H]

>  <h>  (45) 
<NA>

>  <Training>  (45) 
True

>  <Success>  (45) 
True

>  <enamine_searched>  (45) 
False

>  <enamine_id>  (45) 
nan

$$$$

     RDKit          3D

 60 64  0  0  0  0  0  0  0  0999 V2000
    7.5225   -8.4144   23.0710 C   0  0  0  0  0  0  0  0  0  0  0  0
    6.5374   -7.3934   22.7568 N   0  0  0  0  0  0  0  0  0  0  0  0
    6.7840   -6.5696   21.6997 C   0  0  0  0  0  0  0  0  0  0  0  0
    7.5872   -6.8170   20.8171 O   0  0  0  0  0  0  0  0  0  0  0  0
    6.0348   -5.2394   21.6713 C   0  0  0  0  0  0  0  0  0  0  0  0
    6.6274   -4.3194   22.6271 N   0  0  0  0  0  0  0  0  0  0  0  0
    7.7252   -3.4265   22.2696 C   0  0  0  0  0  0  0  0  0  0  0  0
    7.3909   -1.9582   22.6493 C   0  0  2  0  0  0  0  0  0  0  0  0
    6.2966   -1.4432   21.6812 C   0  0  0  0  0  0  0  0  0  0  0  0
    5.1520   -1.8435   21.5976 O   0  0  0  0  0  0  0  0  0  0  0  0
    6.8401   -0.4719   20.8618 N   0  0  0  0  0  0  0  0  0  0  0  0
    6.1141    0.0767   19.7832 C   0  0  0  0  0  0  0  0  0  0  0  0
    6.4644   -0.2177   18.4888 C   0  0  0  0  0  0  0  0  0  0  0  0
    5.8047    0.2271   17.3912 N   0  0  0  0  0  0  0  0  0  0  0  0
    4.7684    1.0054   17.5978 C   0  0  0  0  0  0  0  0  0  0  0  0
    4.3113    1.4036   18.8864 C   0  0  0  0  0  0  0  0  0  0  0  0
    3.1933    2.2633   19.0429 C   0  0  0  0  0  0  0  0  0  0  0  0
    2.7885    2.6484   20.2912 C   0  0  0  0  0  0  0  0  0  0  0  0
    3.4814    2.2028   21.4376 C   0  0  0  0  0  0  0  0  0  0  0  0
    4.5667    1.3720   21.3137 C   0  0  0  0  0  0  0  0  0  0  0  0
    4.9998    0.9397   20.0256 C   0  0  0  0  0  0  0  0  0  0  0  0
    5.0935    1.0388   22.2023 H   0  0  0  0  0  0  0  0  0  0  0  0
    3.1551    2.5314   22.4206 H   0  0  0  0  0  0  0  0  0  0  0  0
    1.9391    3.3148   20.4068 H   0  0  0  0  0  0  0  0  0  0  0  0
    2.6813    2.6122   18.1506 H   0  0  0  0  0  0  0  0  0  0  0  0
    4.2305    1.3685   16.7229 H   0  0  0  0  0  0  0  0  0  0  0  0
    7.3119   -0.8757   18.3024 H   0  0  0  0  0  0  0  0  0  0  0  0
    8.2825   -0.3863   20.9667 C   0  0  0  0  0  0  0  0  0  0  0  0
    8.5642   -0.9748   22.3532 C   0  0  2  0  0  0  0  0  0  0  0  0
    9.9826   -1.5159   22.4184 C   0  0  0  0  0  0  0  0  0  0  0  0
   10.2411   -2.0158   23.7054 O   0  0  0  0  0  0  0  0  0  0  0  0
   11.5212   -2.5948   23.7993 C   0  0  0  0  0  0  0  0  0  0  0  0
   12.3157   -1.8754   23.5462 H   0  0  0  0  0  0  0  0  0  0  0  0
   11.6653   -2.9242   24.8306 H   0  0  0  0  0  0  0  0  0  0  0  0
   11.6223   -3.4651   23.1324 H   0  0  0  0  0  0  0  0  0  0  0  0
   10.6886   -0.7019   22.1744 H   0  0  0  0  0  0  0  0  0  0  0  0
   10.1210   -2.3006   21.6532 H   0  0  0  0  0  0  0  0  0  0  0  0
    8.4994   -0.1642   23.0794 H   0  0  0  0  0  0  0  0  0  0  0  0
    8.7926   -0.9737   20.1848 H   0  0  0  0  0  0  0  0  0  0  0  0
    8.6135    0.6555   20.8818 H   0  0  0  0  0  0  0  0  0  0  0  0
    6.9075   -1.9649   24.0932 C   0  0  0  0  0  0  0  0  0  0  0  0
    6.8674   -0.7884   24.8506 C   0  0  0  0  0  0  0  0  0  0  0  0
    6.4009   -0.8130   26.1533 C   0  0  0  0  0  0  0  0  0  0  0  0
    6.3433    0.6729   27.0515 Cl  0  0  0  0  0  0  0  0  0  0  0  0
    5.9684   -1.9876   26.7684 C   0  0  0  0  0  0  0  0  0  0  0  0
    5.9731   -3.1425   26.0177 C   0  0  0  0  0  0  0  0  0  0  0  0
    6.4021   -3.1271   24.6940 C   0  0  0  0  0  0  0  0  0  0  0  0
    6.1673   -4.3579   23.9017 C   0  0  0  0  0  0  0  0  0  0  0  0
    5.5298   -5.3155   24.3524 O   0  0  0  0  0  0  0  0  0  0  0  0
    5.6190   -4.0821   26.4214 H   0  0  0  0  0  0  0  0  0  0  0  0
    5.6179   -1.9866   27.7960 H   0  0  0  0  0  0  0  0  0  0  0  0
    7.1912    0.1616   24.4397 H   0  0  0  0  0  0  0  0  0  0  0  0
    8.6597   -3.7135   22.7739 H   0  0  0  0  0  0  0  0  0  0  0  0
    7.8928   -3.5016   21.1993 H   0  0  0  0  0  0  0  0  0  0  0  0
    4.9804   -5.3690   21.9323 H   0  0  0  0  0  0  0  0  0  0  0  0
    6.0949   -4.7951   20.6710 H   0  0  0  0  0  0  0  0  0  0  0  0
    5.9888   -7.0083   23.5142 H   0  0  0  0  0  0  0  0  0  0  0  0
    7.8195   -8.8930   22.1374 H   0  0  0  0  0  0  0  0  0  0  0  0
    7.0628   -9.1502   23.7321 H   0  0  0  0  0  0  0  0  0  0  0  0
    8.4157   -8.0029   23.5664 H   0  0  0  0  0  0  0  0  0  0  0  0
  1  2  1  0
  2  3  1  0
  3  4  2  0
  3  5  1  0
  5  6  1  0
  6  7  1  0
  8  7  1  6
  8  9  1  0
  9 10  2  0
  9 11  1  0
 11 12  1  0
 12 13  2  0
 13 14  1  0
 14 15  2  0
 15 16  1  0
 16 17  2  0
 17 18  1  0
 18 19  2  0
 19 20  1  0
 20 21  2  0
 20 22  1  0
 19 23  1  0
 18 24  1  0
 17 25  1  0
 15 26  1  0
 13 27  1  0
 11 28  1  0
 28 29  1  0
 29 30  1  0
 30 31  1  0
 31 32  1  0
 32 33  1  0
 32 34  1  0
 32 35  1  0
 30 36  1  0
 30 37  1  0
 29 38  1  1
 28 39  1  0
 28 40  1  0
  8 41  1  0
 41 42  2  0
 42 43  1  0
 43 44  1  0
 43 45  2  0
 45 46  1  0
 46 47  2  0
 47 48  1  0
 48 49  2  0
 46 50  1  0
 45 51  1  0
 42 52  1  0
  7 53  1  0
  7 54  1  0
  5 55  1  0
  5 56  1  0
  2 57  1  0
  1 58  1  0
  1 59  1  0
  1 60  1  0
 48  6  1  0
 29  8  1  0
 47 41  1  0
 21 12  1  0
 21 16  1  0
M  END
>  <cnnaffinities>  (46) 
[6.82843, 6.69615]

>  <score>  (46) 
6.82843

>  <index>  (46) 
45

>  <Smiles>  (46) 
C(N(C(=O)C(N1C([C@@]2(C(=O)N(c3c(nc(c4c(c(c(c(c34)[H])[H])[H])[H])[H])[H])C([C@@]2(C(OC([H])([H])[H])([H])[H])[H])([H])[H])c2c(c(Cl)c(c(c2C1=O)[H])[H])[H])([H])[H])([H])[H])[H])([H])([H])[H]

>  <h>  (46) 
<NA>

>  <Training>  (46) 
True

>  <Success>  (46) 
True

>  <enamine_searched>  (46) 
False

>  <enamine_id>  (46) 
nan

$$$$

     RDKit          3D

 64 68  0  0  0  0  0  0  0  0999 V2000
    5.7443   -5.9808   25.0229 C   0  0  0  0  0  0  0  0  0  0  0  0
    6.5966   -4.7180   25.0763 C   0  0  0  0  0  0  0  0  0  0  0  0
    6.7770   -4.0831   23.4199 S   0  0  0  0  0  0  0  0  0  0  0  0
    7.6854   -4.9537   22.6746 O   0  0  0  0  0  0  0  0  0  0  0  0
    5.4246   -3.8381   22.9288 O   0  0  0  0  0  0  0  0  0  0  0  0
    7.5340   -2.5810   23.6584 N   0  0  0  0  0  0  0  0  0  0  0  0
    7.7707   -1.8568   22.3901 C   0  0  1  0  0  0  0  0  0  0  0  0
    6.4846   -1.5473   21.6156 C   0  0  0  0  0  0  0  0  0  0  0  0
    6.8783   -0.4083   20.8218 N   0  0  0  0  0  0  0  0  0  0  0  0
    6.1269    0.1009   19.7378 C   0  0  0  0  0  0  0  0  0  0  0  0
    6.4807   -0.1953   18.4467 C   0  0  0  0  0  0  0  0  0  0  0  0
    5.7985    0.2362   17.3571 N   0  0  0  0  0  0  0  0  0  0  0  0
    4.7510    0.9999   17.5662 C   0  0  0  0  0  0  0  0  0  0  0  0
    4.2881    1.3955   18.8546 C   0  0  0  0  0  0  0  0  0  0  0  0
    3.1753    2.2596   19.0388 C   0  0  0  0  0  0  0  0  0  0  0  0
    2.7822    2.6320   20.2975 C   0  0  0  0  0  0  0  0  0  0  0  0
    3.4830    2.1661   21.4342 C   0  0  0  0  0  0  0  0  0  0  0  0
    4.5632    1.3297   21.2817 C   0  0  0  0  0  0  0  0  0  0  0  0
    4.9917    0.9267   19.9864 C   0  0  0  0  0  0  0  0  0  0  0  0
    5.1341    1.0198   22.1532 H   0  0  0  0  0  0  0  0  0  0  0  0
    3.1971    2.4946   22.4294 H   0  0  0  0  0  0  0  0  0  0  0  0
    1.9370    3.3014   20.4292 H   0  0  0  0  0  0  0  0  0  0  0  0
    2.6624    2.6303   18.1558 H   0  0  0  0  0  0  0  0  0  0  0  0
    4.2111    1.3558   16.6885 H   0  0  0  0  0  0  0  0  0  0  0  0
    7.3560   -0.8118   18.2517 H   0  0  0  0  0  0  0  0  0  0  0  0
    8.0044    0.2383   21.2716 C   0  0  0  0  0  0  0  0  0  0  0  0
    8.5053    1.2017   20.7270 O   0  0  0  0  0  0  0  0  0  0  0  0
    8.5060   -0.5004   22.5351 C   0  0  1  0  0  0  0  0  0  0  0  0
    8.0645    0.2416   23.8233 C   0  0  0  0  0  0  0  0  0  0  0  0
    8.8182    1.4753   24.0284 N   0  0  0  0  0  0  0  0  0  0  0  0
    8.1382    2.6679   24.5268 C   0  0  0  0  0  0  0  0  0  0  0  0
    7.0684    3.1661   23.5407 C   0  0  0  0  0  0  0  0  0  0  0  0
    5.8763    3.0074   23.7611 O   0  0  0  0  0  0  0  0  0  0  0  0
    7.5238    3.8231   22.4341 N   0  0  0  0  0  0  0  0  0  0  0  0
    6.5525    4.2886   21.4562 C   0  0  0  0  0  0  0  0  0  0  0  0
    7.0015    5.0497   20.8128 H   0  0  0  0  0  0  0  0  0  0  0  0
    5.7086    4.7324   21.9898 H   0  0  0  0  0  0  0  0  0  0  0  0
    6.1680    3.4636   20.8403 H   0  0  0  0  0  0  0  0  0  0  0  0
    8.4368    3.5483   22.0936 H   0  0  0  0  0  0  0  0  0  0  0  0
    7.6549    2.4937   25.5033 H   0  0  0  0  0  0  0  0  0  0  0  0
    8.9218    3.4214   24.6749 H   0  0  0  0  0  0  0  0  0  0  0  0
   10.1904    1.4766   23.9805 C   0  0  0  0  0  0  0  0  0  0  0  0
   10.8642    2.3477   24.5159 O   0  0  0  0  0  0  0  0  0  0  0  0
   10.8047    0.3920   23.1406 C   0  0  0  0  0  0  0  0  0  0  0  0
   12.1841    0.4454   22.9328 C   0  0  0  0  0  0  0  0  0  0  0  0
   12.7776   -0.3368   21.9673 C   0  0  0  0  0  0  0  0  0  0  0  0
   11.9948   -1.2564   21.2727 C   0  0  0  0  0  0  0  0  0  0  0  0
   12.7185   -2.2088   20.0081 Cl  0  0  0  0  0  0  0  0  0  0  0  0
   10.6456   -1.3947   21.5384 C   0  0  0  0  0  0  0  0  0  0  0  0
   10.0177   -0.5525   22.4672 C   0  0  0  0  0  0  0  0  0  0  0  0
   10.0995   -2.1362   20.9706 H   0  0  0  0  0  0  0  0  0  0  0  0
   13.8331   -0.2379   21.7431 H   0  0  0  0  0  0  0  0  0  0  0  0
   12.7786    1.1267   23.5302 H   0  0  0  0  0  0  0  0  0  0  0  0
    8.1856   -0.4270   24.6844 H   0  0  0  0  0  0  0  0  0  0  0  0
    7.0038    0.5024   23.7466 H   0  0  0  0  0  0  0  0  0  0  0  0
    6.1680   -2.3815   20.9847 H   0  0  0  0  0  0  0  0  0  0  0  0
    5.6632   -1.3149   22.3018 H   0  0  0  0  0  0  0  0  0  0  0  0
    8.3793   -2.4968   21.7485 H   0  0  0  0  0  0  0  0  0  0  0  0
    8.4368   -2.7187   24.1245 H   0  0  0  0  0  0  0  0  0  0  0  0
    6.1254   -3.9203   25.6582 H   0  0  0  0  0  0  0  0  0  0  0  0
    7.5994   -4.9141   25.4723 H   0  0  0  0  0  0  0  0  0  0  0  0
    6.2825   -6.7823   24.5119 H   0  0  0  0  0  0  0  0  0  0  0  0
    5.4993   -6.3234   26.0300 H   0  0  0  0  0  0  0  0  0  0  0  0
    4.8188   -5.8024   24.4709 H   0  0  0  0  0  0  0  0  0  0  0  0
  1  2  1  0
  2  3  1  0
  3  4  2  0
  3  5  2  0
  3  6  1  0
  6  7  1  0
  7  8  1  0
  8  9  1  0
  9 10  1  0
 10 11  2  0
 11 12  1  0
 12 13  2  0
 13 14  1  0
 14 15  2  0
 15 16  1  0
 16 17  2  0
 17 18  1  0
 18 19  2  0
 18 20  1  0
 17 21  1  0
 16 22  1  0
 15 23  1  0
 13 24  1  0
 11 25  1  0
  9 26  1  0
 26 27  2  0
 26 28  1  0
 28 29  1  1
 29 30  1  0
 30 31  1  0
 31 32  1  0
 32 33  2  0
 32 34  1  0
 34 35  1  0
 35 36  1  0
 35 37  1  0
 35 38  1  0
 34 39  1  0
 31 40  1  0
 31 41  1  0
 30 42  1  0
 42 43  2  0
 42 44  1  0
 44 45  2  0
 45 46  1  0
 46 47  2  0
 47 48  1  0
 47 49  1  0
 49 50  2  0
 49 51  1  0
 46 52  1  0
 45 53  1  0
 29 54  1  0
 29 55  1  0
  8 56  1  0
  8 57  1  0
  7 58  1  6
  6 59  1  0
  2 60  1  0
  2 61  1  0
  1 62  1  0
  1 63  1  0
  1 64  1  0
 28  7  1  0
 50 44  1  0
 19 10  1  0
 50 28  1  0
 19 14  1  0
M  END
>  <cnnaffinities>  (47) 
[6.6443]

>  <score>  (47) 
6.6443

>  <index>  (47) 
46

>  <Smiles>  (47) 
C(C(S(=O)(=O)N([C@]1(C(N(c2c(nc(c3c(c(c(c(c23)[H])[H])[H])[H])[H])[H])C(=O)[C@]21C(N(C(C(=O)N(C([H])([H])[H])[H])([H])[H])C(=O)c1c(c(c(Cl)c(c21)[H])[H])[H])([H])[H])([H])[H])[H])[H])([H])[H])([H])([H])[H]

>  <h>  (47) 
<NA>

>  <Training>  (47) 
True

>  <Success>  (47) 
True

>  <enamine_searched>  (47) 
False

>  <enamine_id>  (47) 
nan

$$$$

     RDKit          3D

 56 60  0  0  0  0  0  0  0  0999 V2000
    7.4970   -8.4197   23.0025 C   0  0  0  0  0  0  0  0  0  0  0  0
    6.6209   -7.2770   22.8710 N   0  0  0  0  0  0  0  0  0  0  0  0
    6.7498   -6.4735   21.7768 C   0  0  0  0  0  0  0  0  0  0  0  0
    7.4483   -6.7367   20.8129 O   0  0  0  0  0  0  0  0  0  0  0  0
    5.9676   -5.1649   21.8439 C   0  0  0  0  0  0  0  0  0  0  0  0
    6.5848   -4.2460   22.7759 N   0  0  0  0  0  0  0  0  0  0  0  0
    7.6915   -3.4060   22.3548 C   0  0  0  0  0  0  0  0  0  0  0  0
    7.3917   -1.9228   22.6880 C   0  0  2  0  0  0  0  0  0  0  0  0
    6.3007   -1.4589   21.6870 C   0  0  0  0  0  0  0  0  0  0  0  0
    5.1797   -1.9038   21.5797 O   0  0  0  0  0  0  0  0  0  0  0  0
    6.8315   -0.4850   20.8638 N   0  0  0  0  0  0  0  0  0  0  0  0
    6.1017    0.0581   19.7836 C   0  0  0  0  0  0  0  0  0  0  0  0
    6.4616   -0.2217   18.4894 C   0  0  0  0  0  0  0  0  0  0  0  0
    5.8059    0.2302   17.3914 N   0  0  0  0  0  0  0  0  0  0  0  0
    4.7672    1.0061   17.5903 C   0  0  0  0  0  0  0  0  0  0  0  0
    4.3057    1.4021   18.8785 C   0  0  0  0  0  0  0  0  0  0  0  0
    3.1893    2.2660   19.0351 C   0  0  0  0  0  0  0  0  0  0  0  0
    2.7852    2.6558   20.2829 C   0  0  0  0  0  0  0  0  0  0  0  0
    3.4789    2.2069   21.4291 C   0  0  0  0  0  0  0  0  0  0  0  0
    4.5594    1.3685   21.3039 C   0  0  0  0  0  0  0  0  0  0  0  0
    4.9909    0.9304   20.0190 C   0  0  0  0  0  0  0  0  0  0  0  0
    5.0956    1.0324   22.1861 H   0  0  0  0  0  0  0  0  0  0  0  0
    3.1542    2.5338   22.4134 H   0  0  0  0  0  0  0  0  0  0  0  0
    1.9336    3.3211   20.4009 H   0  0  0  0  0  0  0  0  0  0  0  0
    2.6752    2.6151   18.1431 H   0  0  0  0  0  0  0  0  0  0  0  0
    4.2348    1.3663   16.7087 H   0  0  0  0  0  0  0  0  0  0  0  0
    7.3134   -0.8719   18.2940 H   0  0  0  0  0  0  0  0  0  0  0  0
    8.2746   -0.4021   20.9542 C   0  0  0  0  0  0  0  0  0  0  0  0
    8.5781   -0.9684   22.3487 C   0  0  2  0  0  0  0  0  0  0  0  0
    9.9875   -1.5458   22.4386 C   0  0  0  0  0  0  0  0  0  0  0  0
   10.1429   -2.3306   21.6889 H   0  0  0  0  0  0  0  0  0  0  0  0
   10.1866   -1.9773   23.4253 H   0  0  0  0  0  0  0  0  0  0  0  0
   10.7302   -0.7619   22.2520 H   0  0  0  0  0  0  0  0  0  0  0  0
    8.5106   -0.1344   23.0490 H   0  0  0  0  0  0  0  0  0  0  0  0
    8.7702   -0.9950   20.1709 H   0  0  0  0  0  0  0  0  0  0  0  0
    8.6014    0.6370   20.8534 H   0  0  0  0  0  0  0  0  0  0  0  0
    6.9027   -1.8562   24.1378 C   0  0  0  0  0  0  0  0  0  0  0  0
    6.8613   -0.6437   24.8341 C   0  0  0  0  0  0  0  0  0  0  0  0
    6.3838   -0.6093   26.1291 C   0  0  0  0  0  0  0  0  0  0  0  0
    6.3457    0.5709   26.7683 F   0  0  0  0  0  0  0  0  0  0  0  0
    5.9377   -1.7366   26.8092 C   0  0  0  0  0  0  0  0  0  0  0  0
    5.9423   -2.9318   26.1246 C   0  0  0  0  0  0  0  0  0  0  0  0
    6.3874   -2.9810   24.8042 C   0  0  0  0  0  0  0  0  0  0  0  0
    6.1822   -4.2586   24.0741 C   0  0  0  0  0  0  0  0  0  0  0  0
    5.6095   -5.2237   24.5822 O   0  0  0  0  0  0  0  0  0  0  0  0
    5.5760   -3.8537   26.5670 H   0  0  0  0  0  0  0  0  0  0  0  0
    5.5704   -1.6647   27.8255 H   0  0  0  0  0  0  0  0  0  0  0  0
    7.1692    0.2893   24.3792 H   0  0  0  0  0  0  0  0  0  0  0  0
    8.6015   -3.7352   22.8742 H   0  0  0  0  0  0  0  0  0  0  0  0
    7.8401   -3.5386   21.2807 H   0  0  0  0  0  0  0  0  0  0  0  0
    4.9445   -5.3504   22.1933 H   0  0  0  0  0  0  0  0  0  0  0  0
    5.9580   -4.7071   20.8451 H   0  0  0  0  0  0  0  0  0  0  0  0
    6.2189   -6.8636   23.7046 H   0  0  0  0  0  0  0  0  0  0  0  0
    8.4945   -8.1078   23.3263 H   0  0  0  0  0  0  0  0  0  0  0  0
    7.0822   -9.1496   23.7020 H   0  0  0  0  0  0  0  0  0  0  0  0
    7.5931   -8.8908   22.0303 H   0  0  0  0  0  0  0  0  0  0  0  0
  1  2  1  0
  2  3  1  0
  3  4  2  0
  3  5  1  0
  5  6  1  0
  6  7  1  0
  8  7  1  6
  8  9  1  0
  9 10  2  0
  9 11  1  0
 11 12  1  0
 12 13  2  0
 13 14  1  0
 14 15  2  0
 15 16  1  0
 16 17  2  0
 17 18  1  0
 18 19  2  0
 19 20  1  0
 20 21  2  0
 20 22  1  0
 19 23  1  0
 18 24  1  0
 17 25  1  0
 15 26  1  0
 13 27  1  0
 11 28  1  0
 28 29  1  0
 29 30  1  0
 30 31  1  0
 30 32  1  0
 30 33  1  0
 29 34  1  1
 28 35  1  0
 28 36  1  0
  8 37  1  0
 37 38  2  0
 38 39  1  0
 39 40  1  0
 39 41  2  0
 41 42  1  0
 42 43  2  0
 43 44  1  0
 44 45  2  0
 42 46  1  0
 41 47  1  0
 38 48  1  0
  7 49  1  0
  7 50  1  0
  5 51  1  0
  5 52  1  0
  2 53  1  0
  1 54  1  0
  1 55  1  0
  1 56  1  0
 44  6  1  0
 29  8  1  0
 43 37  1  0
 21 12  1  0
 21 16  1  0
M  END
>  <cnnaffinities>  (48) 
[6.52618]

>  <score>  (48) 
6.52618

>  <index>  (48) 
47

>  <Smiles>  (48) 
C(N(C(=O)C(N1C([C@@]2(C(=O)N(c3c(nc(c4c(c(c(c(c34)[H])[H])[H])[H])[H])[H])C([C@@]2(C([H])([H])[H])[H])([H])[H])c2c(c(F)c(c(c2C1=O)[H])[H])[H])([H])[H])([H])[H])[H])([H])([H])[H]

>  <h>  (48) 
<NA>

>  <Training>  (48) 
True

>  <Success>  (48) 
True

>  <enamine_searched>  (48) 
False

>  <enamine_id>  (48) 
nan

$$$$

     RDKit          3D

 41 43  0  0  0  0  0  0  0  0999 V2000
   10.9106   -2.4511   23.7828 C   0  0  0  0  0  0  0  0  0  0  0  0
   10.0170   -1.2725   23.4542 C   0  0  1  0  0  0  0  0  0  0  0  0
    8.5428   -1.5710   23.7523 C   0  0  0  0  0  0  0  0  0  0  0  0
    7.6638   -0.3149   23.8326 C   0  0  0  0  0  0  0  0  0  0  0  0
    8.0160    0.7497   22.8943 N   0  0  0  0  0  0  0  0  0  0  0  0
    7.8631    0.6363   21.5245 C   0  0  0  0  0  0  0  0  0  0  0  0
    8.4359    1.3993   20.7654 O   0  0  0  0  0  0  0  0  0  0  0  0
    6.9379   -0.4477   20.9198 C   0  0  0  0  0  0  0  0  0  0  0  0
    6.1113    0.0851   19.7672 C   0  0  0  0  0  0  0  0  0  0  0  0
    6.4267   -0.2075   18.4628 C   0  0  0  0  0  0  0  0  0  0  0  0
    5.7614    0.2420   17.3628 N   0  0  0  0  0  0  0  0  0  0  0  0
    4.7334    1.0283   17.5746 C   0  0  0  0  0  0  0  0  0  0  0  0
    4.2865    1.4236   18.8669 C   0  0  0  0  0  0  0  0  0  0  0  0
    3.1692    2.2813   19.0425 C   0  0  0  0  0  0  0  0  0  0  0  0
    2.7640    2.6455   20.2993 C   0  0  0  0  0  0  0  0  0  0  0  0
    3.4626    2.1677   21.4302 C   0  0  0  0  0  0  0  0  0  0  0  0
    4.5480    1.3381   21.2863 C   0  0  0  0  0  0  0  0  0  0  0  0
    4.9917    0.9423   19.9957 C   0  0  0  0  0  0  0  0  0  0  0  0
    5.0728    0.9903   22.1707 H   0  0  0  0  0  0  0  0  0  0  0  0
    3.1371    2.4643   22.4222 H   0  0  0  0  0  0  0  0  0  0  0  0
    1.9114    3.3051   20.4364 H   0  0  0  0  0  0  0  0  0  0  0  0
    2.6440    2.6486   18.1638 H   0  0  0  0  0  0  0  0  0  0  0  0
    4.1979    1.3989   16.6993 H   0  0  0  0  0  0  0  0  0  0  0  0
    7.2736   -0.8570   18.2451 H   0  0  0  0  0  0  0  0  0  0  0  0
    7.5903   -1.2399   20.5272 H   0  0  0  0  0  0  0  0  0  0  0  0
    6.2861   -0.9124   21.6668 H   0  0  0  0  0  0  0  0  0  0  0  0
    9.0468    1.6764   23.3758 C   0  0  0  0  0  0  0  0  0  0  0  0
   10.4542    1.0771   23.4654 C   0  0  0  0  0  0  0  0  0  0  0  0
   10.4949   -0.1429   24.1767 O   0  0  0  0  0  0  0  0  0  0  0  0
   10.8647    0.9353   22.4557 H   0  0  0  0  0  0  0  0  0  0  0  0
   11.1273    1.7680   23.9973 H   0  0  0  0  0  0  0  0  0  0  0  0
    8.7545    1.9971   24.3792 H   0  0  0  0  0  0  0  0  0  0  0  0
    9.0634    2.5595   22.7334 H   0  0  0  0  0  0  0  0  0  0  0  0
    6.6076   -0.5753   23.7202 H   0  0  0  0  0  0  0  0  0  0  0  0
    7.7555    0.1103   24.8328 H   0  0  0  0  0  0  0  0  0  0  0  0
    8.4668   -2.1273   24.6969 H   0  0  0  0  0  0  0  0  0  0  0  0
    8.1656   -2.2443   22.9724 H   0  0  0  0  0  0  0  0  0  0  0  0
   10.1181   -1.0540   22.3864 H   0  0  0  0  0  0  0  0  0  0  0  0
   10.5948   -3.3351   23.2203 H   0  0  0  0  0  0  0  0  0  0  0  0
   11.9465   -2.2265   23.5145 H   0  0  0  0  0  0  0  0  0  0  0  0
   10.8704   -2.6774   24.8511 H   0  0  0  0  0  0  0  0  0  0  0  0
  1  2  1  0
  2  3  1  0
  3  4  1  0
  4  5  1  0
  5  6  1  0
  6  7  2  0
  6  8  1  0
  8  9  1  0
  9 10  2  0
 10 11  1  0
 11 12  2  0
 12 13  1  0
 13 14  2  0
 14 15  1  0
 15 16  2  0
 16 17  1  0
 17 18  2  0
 17 19  1  0
 16 20  1  0
 15 21  1  0
 14 22  1  0
 12 23  1  0
 10 24  1  0
  8 25  1  0
  8 26  1  0
  5 27  1  0
 27 28  1  0
 28 29  1  0
 28 30  1  0
 28 31  1  0
 27 32  1  0
 27 33  1  0
  4 34  1  0
  4 35  1  0
  3 36  1  0
  3 37  1  0
  2 38  1  6
  1 39  1  0
  1 40  1  0
  1 41  1  0
 29  2  1  0
 18  9  1  0
 18 13  1  0
M  END
>  <cnnaffinities>  (49) 
[5.41773]

>  <score>  (49) 
5.41773

>  <index>  (49) 
48

>  <Smiles>  (49) 
C([C@]1(C(C(N(C(=O)C(c2c(nc(c3c(c(c(c(c23)[H])[H])[H])[H])[H])[H])([H])[H])C(C(O1)([H])[H])([H])[H])([H])[H])([H])[H])[H])([H])([H])[H]

>  <h>  (49) 
<NA>

>  <Training>  (49) 
True

>  <Success>  (49) 
True

>  <enamine_searched>  (49) 
False

>  <enamine_id>  (49) 
nan

$$$$

     RDKit          3D

 42 45  0  0  0  0  0  0  0  0999 V2000
    5.8602    1.6719   25.0133 C   0  0  0  0  0  0  0  0  0  0  0  0
    7.1832    1.1957   24.6344 N   0  0  0  0  0  0  0  0  0  0  0  0
    7.3845   -0.1591   24.1522 C   0  0  0  0  0  0  0  0  0  0  0  0
    8.3140   -0.1928   22.9234 C   0  0  1  0  0  0  0  0  0  0  0  0
    7.6140    0.4400   21.7058 C   0  0  0  0  0  0  0  0  0  0  0  0
    7.6025    1.6380   21.5230 O   0  0  0  0  0  0  0  0  0  0  0  0
    6.9059   -0.3946   20.8598 N   0  0  0  0  0  0  0  0  0  0  0  0
    6.1298    0.1053   19.7776 C   0  0  0  0  0  0  0  0  0  0  0  0
    6.4322   -0.2238   18.4766 C   0  0  0  0  0  0  0  0  0  0  0  0
    5.7659    0.2341   17.3856 N   0  0  0  0  0  0  0  0  0  0  0  0
    4.7395    1.0303   17.5814 C   0  0  0  0  0  0  0  0  0  0  0  0
    4.2906    1.4202   18.8737 C   0  0  0  0  0  0  0  0  0  0  0  0
    3.1647    2.2713   19.0491 C   0  0  0  0  0  0  0  0  0  0  0  0
    2.7381    2.6069   20.3081 C   0  0  0  0  0  0  0  0  0  0  0  0
    3.4129    2.0982   21.4395 C   0  0  0  0  0  0  0  0  0  0  0  0
    4.4995    1.2729   21.2949 C   0  0  0  0  0  0  0  0  0  0  0  0
    4.9863    0.9334   20.0037 C   0  0  0  0  0  0  0  0  0  0  0  0
    5.0114    0.8794   22.1671 H   0  0  0  0  0  0  0  0  0  0  0  0
    3.0717    2.3637   22.4346 H   0  0  0  0  0  0  0  0  0  0  0  0
    1.8804    3.2586   20.4470 H   0  0  0  0  0  0  0  0  0  0  0  0
    2.6445    2.6479   18.1716 H   0  0  0  0  0  0  0  0  0  0  0  0
    4.2026    1.3968   16.7012 H   0  0  0  0  0  0  0  0  0  0  0  0
    7.2825   -0.8670   18.2539 H   0  0  0  0  0  0  0  0  0  0  0  0
    7.1115   -1.3796   20.8541 H   0  0  0  0  0  0  0  0  0  0  0  0
    9.5771    0.5652   23.2517 C   0  0  0  0  0  0  0  0  0  0  0  0
   10.7750    0.2305   22.6205 C   0  0  0  0  0  0  0  0  0  0  0  0
   11.9281    0.9559   22.8772 C   0  0  0  0  0  0  0  0  0  0  0  0
   13.4116    0.5191   22.0838 Cl  0  0  0  0  0  0  0  0  0  0  0  0
   11.9148    2.0328   23.7597 C   0  0  0  0  0  0  0  0  0  0  0  0
   10.7220    2.3696   24.3812 C   0  0  0  0  0  0  0  0  0  0  0  0
    9.5482    1.6384   24.1419 C   0  0  0  0  0  0  0  0  0  0  0  0
    8.2507    2.0401   24.8085 C   0  0  0  0  0  0  0  0  0  0  0  0
    8.1551    3.0731   25.4539 O   0  0  0  0  0  0  0  0  0  0  0  0
   10.7095    3.2142   25.0588 H   0  0  0  0  0  0  0  0  0  0  0  0
   12.8337    2.5893   23.9363 H   0  0  0  0  0  0  0  0  0  0  0  0
   10.8083   -0.5974   21.9207 H   0  0  0  0  0  0  0  0  0  0  0  0
    8.5604   -1.2355   22.6982 H   0  0  0  0  0  0  0  0  0  0  0  0
    7.8045   -0.7890   24.9485 H   0  0  0  0  0  0  0  0  0  0  0  0
    6.4184   -0.5932   23.8931 H   0  0  0  0  0  0  0  0  0  0  0  0
    5.8098    1.9724   26.0624 H   0  0  0  0  0  0  0  0  0  0  0  0
    5.1192    0.8884   24.8553 H   0  0  0  0  0  0  0  0  0  0  0  0
    5.5649    2.5367   24.4121 H   0  0  0  0  0  0  0  0  0  0  0  0
  1  2  1  0
  2  3  1  0
  3  4  1  0
  4  5  1  0
  5  6  2  0
  5  7  1  0
  7  8  1  0
  8  9  2  0
  9 10  1  0
 10 11  2  0
 11 12  1  0
 12 13  2  0
 13 14  1  0
 14 15  2  0
 15 16  1  0
 16 17  2  0
 16 18  1  0
 15 19  1  0
 14 20  1  0
 13 21  1  0
 11 22  1  0
  9 23  1  0
  7 24  1  0
  4 25  1  0
 25 26  2  0
 26 27  1  0
 27 28  1  0
 27 29  2  0
 29 30  1  0
 30 31  2  0
 31 32  1  0
 32 33  2  0
 30 34  1  0
 29 35  1  0
 26 36  1  0
  4 37  1  6
  3 38  1  0
  3 39  1  0
  1 40  1  0
  1 41  1  0
  1 42  1  0
 32  2  1  0
 17  8  1  0
 31 25  1  0
 17 12  1  0
M  END
>  <cnnaffinities>  (50) 
[5.85681, 5.71069]

>  <score>  (50) 
5.85681

>  <index>  (50) 
49

>  <Smiles>  (50) 
C(N1C([C@@](C(=O)N(c2c(nc(c3c(c(c(c(c23)[H])[H])[H])[H])[H])[H])[H])(c2c(c(Cl)c(c(c2C1=O)[H])[H])[H])[H])([H])[H])([H])([H])[H]

>  <h>  (50) 
<NA>

>  <Training>  (50) 
True

>  <Success>  (50) 
True

>  <enamine_searched>  (50) 
False

>  <enamine_id>  (50) 
nan

$$$$

     RDKit          3D

 38 41  0  0  0  0  0  0  0  0999 V2000
    8.6083    1.2621   20.7255 O   0  0  0  0  0  0  0  0  0  0  0  0
    7.8629    0.6687   21.4841 C   0  0  0  0  0  0  0  0  0  0  0  0
    6.9466   -0.4395   20.9176 C   0  0  0  0  0  0  0  0  0  0  0  0
    6.1083    0.0830   19.7657 C   0  0  0  0  0  0  0  0  0  0  0  0
    6.4266   -0.2078   18.4626 C   0  0  0  0  0  0  0  0  0  0  0  0
    5.7609    0.2423   17.3623 N   0  0  0  0  0  0  0  0  0  0  0  0
    4.7332    1.0280   17.5747 C   0  0  0  0  0  0  0  0  0  0  0  0
    4.2853    1.4230   18.8667 C   0  0  0  0  0  0  0  0  0  0  0  0
    3.1699    2.2833   19.0423 C   0  0  0  0  0  0  0  0  0  0  0  0
    2.7654    2.6487   20.2982 C   0  0  0  0  0  0  0  0  0  0  0  0
    3.4614    2.1696   21.4301 C   0  0  0  0  0  0  0  0  0  0  0  0
    4.5445    1.3361   21.2868 C   0  0  0  0  0  0  0  0  0  0  0  0
    4.9886    0.9404   19.9955 C   0  0  0  0  0  0  0  0  0  0  0  0
    5.0714    0.9877   22.1707 H   0  0  0  0  0  0  0  0  0  0  0  0
    3.1355    2.4676   22.4214 H   0  0  0  0  0  0  0  0  0  0  0  0
    1.9140    3.3104   20.4341 H   0  0  0  0  0  0  0  0  0  0  0  0
    2.6460    2.6508   18.1627 H   0  0  0  0  0  0  0  0  0  0  0  0
    4.1982    1.3990   16.6988 H   0  0  0  0  0  0  0  0  0  0  0  0
    7.2741   -0.8571   18.2461 H   0  0  0  0  0  0  0  0  0  0  0  0
    6.3028   -0.8997   21.6747 H   0  0  0  0  0  0  0  0  0  0  0  0
    7.6004   -1.2311   20.5330 H   0  0  0  0  0  0  0  0  0  0  0  0
    7.7612    1.0120   22.8221 N   0  0  0  0  0  0  0  0  0  0  0  0
    8.3089    2.3210   23.2109 C   0  0  0  0  0  0  0  0  0  0  0  0
    7.6733    2.8478   24.4956 C   0  0  0  0  0  0  0  0  0  0  0  0
    7.7414    1.7987   25.5562 C   0  0  0  0  0  0  0  0  0  0  0  0
    7.8246    2.0699   27.2633 S   0  0  0  0  0  0  0  0  0  0  0  0
    7.7821    0.3714   27.5677 C   0  0  0  0  0  0  0  0  0  0  0  0
    7.7157   -0.3551   26.4155 C   0  0  0  0  0  0  0  0  0  0  0  0
    7.6944    0.4769   25.2549 C   0  0  0  0  0  0  0  0  0  0  0  0
    7.5150   -0.0073   23.8408 C   0  0  0  0  0  0  0  0  0  0  0  0
    8.1599   -0.8838   23.6964 H   0  0  0  0  0  0  0  0  0  0  0  0
    6.4907   -0.3919   23.7493 H   0  0  0  0  0  0  0  0  0  0  0  0
    7.6709   -1.4415   26.3968 H   0  0  0  0  0  0  0  0  0  0  0  0
    7.8333    0.0034   28.5845 H   0  0  0  0  0  0  0  0  0  0  0  0
    8.1616    3.7700   24.8198 H   0  0  0  0  0  0  0  0  0  0  0  0
    6.6216    3.1047   24.3142 H   0  0  0  0  0  0  0  0  0  0  0  0
    9.3975    2.2732   23.3361 H   0  0  0  0  0  0  0  0  0  0  0  0
    8.1181    3.0174   22.3926 H   0  0  0  0  0  0  0  0  0  0  0  0
  1  2  2  0
  2  3  1  0
  3  4  1  0
  4  5  2  0
  5  6  1  0
  6  7  2  0
  7  8  1  0
  8  9  2  0
  9 10  1  0
 10 11  2  0
 11 12  1  0
 12 13  2  0
 12 14  1  0
 11 15  1  0
 10 16  1  0
  9 17  1  0
  7 18  1  0
  5 19  1  0
  3 20  1  0
  3 21  1  0
  2 22  1  0
 22 23  1  0
 23 24  1  0
 24 25  1  0
 25 26  1  0
 26 27  1  0
 27 28  2  0
 28 29  1  0
 29 30  1  0
 30 31  1  0
 30 32  1  0
 28 33  1  0
 27 34  1  0
 24 35  1  0
 24 36  1  0
 23 37  1  0
 23 38  1  0
 13  4  1  0
 30 22  1  0
 13  8  1  0
 29 25  2  0
M  END
>  <cnnaffinities>  (51) 
[4.90466, 5.20412]

>  <score>  (51) 
4.90466

>  <index>  (51) 
50

>  <Smiles>  (51) 
O=C(C(c1c(nc(c2c(c(c(c(c12)[H])[H])[H])[H])[H])[H])([H])[H])N1C(C(c2sc(c(c2C1([H])[H])[H])[H])([H])[H])([H])[H]

>  <h>  (51) 
<NA>

>  <Training>  (51) 
True

>  <Success>  (51) 
True

>  <enamine_searched>  (51) 
False

>  <enamine_id>  (51) 
nan

$$$$

     RDKit          3D

 67 73  0  0  0  0  0  0  0  0999 V2000
    5.7099    4.8552   21.9225 C   0  0  0  0  0  0  0  0  0  0  0  0
    5.9564    4.1001   23.1821 C   0  0  0  0  0  0  0  0  0  0  0  0
    5.1276    3.6081   24.0421 N   0  0  0  0  0  0  0  0  0  0  0  0
    5.8894    2.9039   24.9755 N   0  0  0  0  0  0  0  0  0  0  0  0
    7.1167    3.0269   24.5993 C   0  0  0  0  0  0  0  0  0  0  0  0
    8.3523    2.4187   25.1855 C   0  0  0  0  0  0  0  0  0  0  0  0
    8.9896    1.4870   24.2746 N   0  0  0  0  0  0  0  0  0  0  0  0
    8.3307    0.2136   24.0503 C   0  0  0  0  0  0  0  0  0  0  0  0
    8.4775   -0.2629   22.5890 C   0  0  2  0  0  0  0  0  0  0  0  0
    7.7538    0.6845   21.5802 C   0  0  0  0  0  0  0  0  0  0  0  0
    7.8173    1.8902   21.5427 O   0  0  0  0  0  0  0  0  0  0  0  0
    7.0095   -0.1098   20.7121 N   0  0  0  0  0  0  0  0  0  0  0  0
    6.1615    0.3295   19.6686 C   0  0  0  0  0  0  0  0  0  0  0  0
    6.3996   -0.0946   18.3824 C   0  0  0  0  0  0  0  0  0  0  0  0
    5.6880    0.2840   17.2930 N   0  0  0  0  0  0  0  0  0  0  0  0
    4.6669    1.0826   17.4921 C   0  0  0  0  0  0  0  0  0  0  0  0
    4.2480    1.5288   18.7784 C   0  0  0  0  0  0  0  0  0  0  0  0
    3.0983    2.3498   18.9477 C   0  0  0  0  0  0  0  0  0  0  0  0
    2.6634    2.6878   20.2003 C   0  0  0  0  0  0  0  0  0  0  0  0
    3.3432    2.2109   21.3436 C   0  0  0  0  0  0  0  0  0  0  0  0
    4.4692    1.4328   21.2067 C   0  0  0  0  0  0  0  0  0  0  0  0
    4.9792    1.1074   19.9172 C   0  0  0  0  0  0  0  0  0  0  0  0
    4.9723    1.0409   22.0877 H   0  0  0  0  0  0  0  0  0  0  0  0
    2.9758    2.4691   22.3329 H   0  0  0  0  0  0  0  0  0  0  0  0
    1.7836    3.3155   20.3187 H   0  0  0  0  0  0  0  0  0  0  0  0
    2.5718    2.6947   18.0612 H   0  0  0  0  0  0  0  0  0  0  0  0
    4.1002    1.3982   16.6148 H   0  0  0  0  0  0  0  0  0  0  0  0
    7.2216   -0.7812   18.1859 H   0  0  0  0  0  0  0  0  0  0  0  0
    7.3749   -1.5101   20.8388 C   0  0  0  0  0  0  0  0  0  0  0  0
    7.7733   -1.6128   22.3136 C   0  0  2  0  0  0  0  0  0  0  0  0
    6.5524   -1.8981   23.2138 C   0  0  0  0  0  0  0  0  0  0  0  0
    5.8881   -3.1407   22.8818 N   0  0  0  0  0  0  0  0  0  0  0  0
    6.4637   -4.3649   22.9803 C   0  0  0  0  0  0  0  0  0  0  0  0
    7.7766   -4.5806   23.4494 C   0  0  0  0  0  0  0  0  0  0  0  0
    8.2285   -5.8841   23.3766 C   0  0  0  0  0  0  0  0  0  0  0  0
    7.4827   -6.9130   22.9565 N   0  0  0  0  0  0  0  0  0  0  0  0
    6.2366   -6.5945   22.6234 C   0  0  0  0  0  0  0  0  0  0  0  0
    5.6722   -5.3929   22.6279 N   0  0  0  0  0  0  0  0  0  0  0  0
    5.5984   -7.4269   22.3356 H   0  0  0  0  0  0  0  0  0  0  0  0
    9.2536   -6.1188   23.6343 H   0  0  0  0  0  0  0  0  0  0  0  0
    8.3990   -3.7727   23.8348 H   0  0  0  0  0  0  0  0  0  0  0  0
    4.8796   -3.1945   22.9367 H   0  0  0  0  0  0  0  0  0  0  0  0
    6.8686   -1.9192   24.2669 H   0  0  0  0  0  0  0  0  0  0  0  0
    5.8141   -1.0935   23.1034 H   0  0  0  0  0  0  0  0  0  0  0  0
    8.4951   -2.4077   22.4705 H   0  0  0  0  0  0  0  0  0  0  0  0
    8.2207   -1.7427   20.1780 H   0  0  0  0  0  0  0  0  0  0  0  0
    6.5395   -2.1536   20.5687 H   0  0  0  0  0  0  0  0  0  0  0  0
    9.9847   -0.3122   22.3277 C   0  0  0  0  0  0  0  0  0  0  0  0
   10.5975   -1.2898   21.5290 C   0  0  0  0  0  0  0  0  0  0  0  0
   11.9339   -1.1607   21.1942 C   0  0  0  0  0  0  0  0  0  0  0  0
   12.6532   -2.2645   20.0553 Cl  0  0  0  0  0  0  0  0  0  0  0  0
   12.7294   -0.1357   21.7024 C   0  0  0  0  0  0  0  0  0  0  0  0
   12.1469    0.7961   22.5363 C   0  0  0  0  0  0  0  0  0  0  0  0
   10.7922    0.7057   22.8537 C   0  0  0  0  0  0  0  0  0  0  0  0
   10.2326    1.7555   23.7706 C   0  0  0  0  0  0  0  0  0  0  0  0
   10.8552    2.7739   24.0432 O   0  0  0  0  0  0  0  0  0  0  0  0
   12.7111    1.6242   22.9524 H   0  0  0  0  0  0  0  0  0  0  0  0
   13.7751   -0.0862   21.4170 H   0  0  0  0  0  0  0  0  0  0  0  0
   10.0598   -2.1567   21.1578 H   0  0  0  0  0  0  0  0  0  0  0  0
    7.2839    0.3362   24.3256 H   0  0  0  0  0  0  0  0  0  0  0  0
    8.7655   -0.5555   24.7087 H   0  0  0  0  0  0  0  0  0  0  0  0
    9.0943    3.1841   25.4283 H   0  0  0  0  0  0  0  0  0  0  0  0
    8.0636    1.8946   26.1012 H   0  0  0  0  0  0  0  0  0  0  0  0
    7.2429    3.7976   23.4965 O   0  0  0  0  0  0  0  0  0  0  0  0
    4.7226    5.3213   21.9322 H   0  0  0  0  0  0  0  0  0  0  0  0
    5.7540    4.1609   21.0740 H   0  0  0  0  0  0  0  0  0  0  0  0
    6.4756    5.6216   21.7775 H   0  0  0  0  0  0  0  0  0  0  0  0
  1  2  1  0
  2  3  2  0
  3  4  1  0
  4  5  2  0
  5  6  1  0
  6  7  1  0
  7  8  1  0
  9  8  1  1
  9 10  1  0
 10 11  2  0
 10 12  1  0
 12 13  1  0
 13 14  2  0
 14 15  1  0
 15 16  2  0
 16 17  1  0
 17 18  2  0
 18 19  1  0
 19 20  2  0
 20 21  1  0
 21 22  2  0
 21 23  1  0
 20 24  1  0
 19 25  1  0
 18 26  1  0
 16 27  1  0
 14 28  1  0
 12 29  1  0
 29 30  1  0
 30 31  1  0
 31 32  1  0
 32 33  1  0
 33 34  2  0
 34 35  1  0
 35 36  2  0
 36 37  1  0
 37 38  2  0
 37 39  1  0
 35 40  1  0
 34 41  1  0
 32 42  1  0
 31 43  1  0
 31 44  1  0
 30 45  1  6
 29 46  1  0
 29 47  1  0
  9 48  1  0
 48 49  2  0
 49 50  1  0
 50 51  1  0
 50 52  2  0
 52 53  1  0
 53 54  2  0
 54 55  1  0
 55 56  2  0
 53 57  1  0
 52 58  1  0
 49 59  1  0
  8 60  1  0
  8 61  1  0
  6 62  1  0
  6 63  1  0
  5 64  1  0
  1 65  1  0
  1 66  1  0
  1 67  1  0
 64  2  1  0
 55  7  1  0
 30  9  1  0
 38 33  1  0
 54 48  1  0
 22 13  1  0
 22 17  1  0
M  END
>  <cnnaffinities>  (52) 
[7.15288]

>  <score>  (52) 
7.15288

>  <index>  (52) 
51

>  <Smiles>  (52) 
C(c1nnc(C(N2C([C@@]3(C(=O)N(c4c(nc(c5c(c(c(c(c45)[H])[H])[H])[H])[H])[H])C([C@@]3(C(N(c3c(c(nc(n3)[H])[H])[H])[H])([H])[H])[H])([H])[H])c3c(c(Cl)c(c(c3C2=O)[H])[H])[H])([H])[H])([H])[H])o1)([H])([H])[H]

>  <h>  (52) 
<NA>

>  <Training>  (52) 
True

>  <Success>  (52) 
True

>  <enamine_searched>  (52) 
False

>  <enamine_id>  (52) 
nan

$$$$

     RDKit          3D

 66 71  0  0  0  0  0  0  0  0999 V2000
    6.5687    4.3365   21.4250 C   0  0  0  0  0  0  0  0  0  0  0  0
    7.5356    3.9102   22.4237 N   0  0  0  0  0  0  0  0  0  0  0  0
    7.0432    3.2500   23.5171 C   0  0  0  0  0  0  0  0  0  0  0  0
    5.8458    3.0773   23.6821 O   0  0  0  0  0  0  0  0  0  0  0  0
    8.0803    2.7462   24.5279 C   0  0  0  0  0  0  0  0  0  0  0  0
    8.7275    1.5338   24.0539 N   0  0  0  0  0  0  0  0  0  0  0  0
    7.9490    0.3118   23.8963 C   0  0  0  0  0  0  0  0  0  0  0  0
    8.3827   -0.4988   22.6442 C   0  0  2  0  0  0  0  0  0  0  0  0
    7.9177    0.2024   21.3480 C   0  0  0  0  0  0  0  0  0  0  0  0
    8.4021    1.1869   20.8242 O   0  0  0  0  0  0  0  0  0  0  0  0
    6.8476   -0.4892   20.8361 N   0  0  0  0  0  0  0  0  0  0  0  0
    6.1070    0.0530   19.7592 C   0  0  0  0  0  0  0  0  0  0  0  0
    6.4765   -0.2197   18.4693 C   0  0  0  0  0  0  0  0  0  0  0  0
    5.8127    0.2307   17.3769 N   0  0  0  0  0  0  0  0  0  0  0  0
    4.7671    0.9957   17.5870 C   0  0  0  0  0  0  0  0  0  0  0  0
    4.2998    1.3856   18.8747 C   0  0  0  0  0  0  0  0  0  0  0  0
    3.1882    2.2501   19.0508 C   0  0  0  0  0  0  0  0  0  0  0  0
    2.7867    2.6221   20.3052 C   0  0  0  0  0  0  0  0  0  0  0  0
    3.4837    2.1587   21.4450 C   0  0  0  0  0  0  0  0  0  0  0  0
    4.5635    1.3207   21.3027 C   0  0  0  0  0  0  0  0  0  0  0  0
    4.9931    0.9070   20.0099 C   0  0  0  0  0  0  0  0  0  0  0  0
    5.1272    1.0147   22.1812 H   0  0  0  0  0  0  0  0  0  0  0  0
    3.1881    2.4911   22.4360 H   0  0  0  0  0  0  0  0  0  0  0  0
    1.9371    3.2876   20.4309 H   0  0  0  0  0  0  0  0  0  0  0  0
    2.6805    2.6172   18.1635 H   0  0  0  0  0  0  0  0  0  0  0  0
    4.2355    1.3598   16.7086 H   0  0  0  0  0  0  0  0  0  0  0  0
    7.3540   -0.8362   18.2826 H   0  0  0  0  0  0  0  0  0  0  0  0
    6.4313   -1.6278   21.6248 C   0  0  0  0  0  0  0  0  0  0  0  0
    7.6371   -1.8639   22.5493 C   0  0  2  0  0  0  0  0  0  0  0  0
    7.2605   -2.4997   23.8852 C   0  0  0  0  0  0  0  0  0  0  0  0
    6.6495   -3.7880   23.6887 N   0  0  0  0  0  0  0  0  0  0  0  0
    6.1968   -4.5761   24.6913 C   0  0  0  0  0  0  0  0  0  0  0  0
    6.2545   -4.1795   26.0448 C   0  0  0  0  0  0  0  0  0  0  0  0
    5.7170   -5.0690   26.9510 C   0  0  0  0  0  0  0  0  0  0  0  0
    5.1694   -6.2381   26.6045 N   0  0  0  0  0  0  0  0  0  0  0  0
    5.1981   -6.5107   25.3049 C   0  0  0  0  0  0  0  0  0  0  0  0
    5.6740   -5.7545   24.3213 N   0  0  0  0  0  0  0  0  0  0  0  0
    4.7766   -7.4679   25.0044 H   0  0  0  0  0  0  0  0  0  0  0  0
    5.7143   -4.8335   28.0140 H   0  0  0  0  0  0  0  0  0  0  0  0
    6.6964   -3.2406   26.3654 H   0  0  0  0  0  0  0  0  0  0  0  0
    6.6708   -4.2191   22.7782 H   0  0  0  0  0  0  0  0  0  0  0  0
    8.1575   -2.5725   24.5179 H   0  0  0  0  0  0  0  0  0  0  0  0
    6.5561   -1.8439   24.4123 H   0  0  0  0  0  0  0  0  0  0  0  0
    8.3006   -2.5660   22.0397 H   0  0  0  0  0  0  0  0  0  0  0  0
    6.2138   -2.4884   20.9810 H   0  0  0  0  0  0  0  0  0  0  0  0
    5.5149   -1.4101   22.1945 H   0  0  0  0  0  0  0  0  0  0  0  0
    9.8943   -0.5712   22.6026 C   0  0  0  0  0  0  0  0  0  0  0  0
   10.5268   -1.4237   21.6873 C   0  0  0  0  0  0  0  0  0  0  0  0
   11.8921   -1.3459   21.4882 C   0  0  0  0  0  0  0  0  0  0  0  0
   12.5944   -2.2830   20.1953 Cl  0  0  0  0  0  0  0  0  0  0  0  0
   12.6849   -0.4847   22.2516 C   0  0  0  0  0  0  0  0  0  0  0  0
   12.0746    0.3235   23.1825 C   0  0  0  0  0  0  0  0  0  0  0  0
   10.6888    0.3492   23.2966 C   0  0  0  0  0  0  0  0  0  0  0  0
   10.0938    1.4978   24.0454 C   0  0  0  0  0  0  0  0  0  0  0  0
   10.7806    2.3767   24.5506 O   0  0  0  0  0  0  0  0  0  0  0  0
   12.6564    0.9917   23.8047 H   0  0  0  0  0  0  0  0  0  0  0  0
   13.7519   -0.4062   22.0865 H   0  0  0  0  0  0  0  0  0  0  0  0
    9.9740   -2.1168   21.0633 H   0  0  0  0  0  0  0  0  0  0  0  0
    8.0737   -0.3111   24.7946 H   0  0  0  0  0  0  0  0  0  0  0  0
    6.8919    0.5815   23.8102 H   0  0  0  0  0  0  0  0  0  0  0  0
    8.8816    3.4784   24.6963 H   0  0  0  0  0  0  0  0  0  0  0  0
    7.5704    2.5868   25.4859 H   0  0  0  0  0  0  0  0  0  0  0  0
    8.4513    3.6516   22.0793 H   0  0  0  0  0  0  0  0  0  0  0  0
    5.7425    4.8386   21.9287 H   0  0  0  0  0  0  0  0  0  0  0  0
    7.0180    5.0434   20.7274 H   0  0  0  0  0  0  0  0  0  0  0  0
    6.1530    3.4847   20.8703 H   0  0  0  0  0  0  0  0  0  0  0  0
  1  2  1  0
  2  3  1  0
  3  4  2  0
  3  5  1  0
  5  6  1  0
  6  7  1  0
  8  7  1  1
  8  9  1  0
  9 10  2  0
  9 11  1  0
 11 12  1  0
 12 13  2  0
 13 14  1  0
 14 15  2  0
 15 16  1  0
 16 17  2  0
 17 18  1  0
 18 19  2  0
 19 20  1  0
 20 21  2  0
 20 22  1  0
 19 23  1  0
 18 24  1  0
 17 25  1  0
 15 26  1  0
 13 27  1  0
 11 28  1  0
 28 29  1  0
 29 30  1  0
 30 31  1  0
 31 32  1  0
 32 33  2  0
 33 34  1  0
 34 35  2  0
 35 36  1  0
 36 37  2  0
 36 38  1  0
 34 39  1  0
 33 40  1  0
 31 41  1  0
 30 42  1  0
 30 43  1  0
 29 44  1  6
 28 45  1  0
 28 46  1  0
  8 47  1  0
 47 48  2  0
 48 49  1  0
 49 50  1  0
 49 51  2  0
 51 52  1  0
 52 53  2  0
 53 54  1  0
 54 55  2  0
 52 56  1  0
 51 57  1  0
 48 58  1  0
  7 59  1  0
  7 60  1  0
  5 61  1  0
  5 62  1  0
  2 63  1  0
  1 64  1  0
  1 65  1  0
  1 66  1  0
 54  6  1  0
 29  8  1  0
 37 32  1  0
 53 47  1  0
 21 12  1  0
 21 16  1  0
M  END
>  <cnnaffinities>  (53) 
[6.85496, 6.75233]

>  <score>  (53) 
6.85496

>  <index>  (53) 
52

>  <Smiles>  (53) 
C(N(C(=O)C(N1C([C@@]2(C(=O)N(c3c(nc(c4c(c(c(c(c34)[H])[H])[H])[H])[H])[H])C([C@@]2(C(N(c2c(c(nc(n2)[H])[H])[H])[H])([H])[H])[H])([H])[H])c2c(c(Cl)c(c(c2C1=O)[H])[H])[H])([H])[H])([H])[H])[H])([H])([H])[H]

>  <h>  (53) 
<NA>

>  <Training>  (53) 
True

>  <Success>  (53) 
True

>  <enamine_searched>  (53) 
False

>  <enamine_id>  (53) 
nan

$$$$

     RDKit          3D

 77 84  0  0  0  0  0  0  0  0999 V2000
    9.7296    2.7196   25.2360 O   0  0  0  0  0  0  0  0  0  0  0  0
    9.3706    1.7043   24.6483 C   0  0  0  0  0  0  0  0  0  0  0  0
   10.2727    1.0044   23.6796 C   0  0  0  0  0  0  0  0  0  0  0  0
   11.5960    1.4361   23.6271 C   0  0  0  0  0  0  0  0  0  0  0  0
   12.4805    0.9032   22.7137 C   0  0  0  0  0  0  0  0  0  0  0  0
   12.0009   -0.0556   21.8263 C   0  0  0  0  0  0  0  0  0  0  0  0
   13.0845   -0.7456   20.6623 Cl  0  0  0  0  0  0  0  0  0  0  0  0
   10.6730   -0.4568   21.8239 C   0  0  0  0  0  0  0  0  0  0  0  0
    9.7841    0.0512   22.7784 C   0  0  0  0  0  0  0  0  0  0  0  0
    8.3155   -0.3574   22.7911 C   0  0  1  0  0  0  0  0  0  0  0  0
    7.7594   -0.0949   24.2104 C   0  0  0  0  0  0  0  0  0  0  0  0
    8.1265    1.1740   24.8056 N   0  0  0  0  0  0  0  0  0  0  0  0
    7.0366    2.0413   25.2482 C   0  0  0  0  0  0  0  0  0  0  0  0
    6.2583    1.4420   26.4109 C   0  0  0  0  0  0  0  0  0  0  0  0
    7.2036    1.2441   27.5547 N   0  0  0  0  0  4  0  0  0  0  0  0
    6.6824    0.6627   28.8470 C   0  0  0  0  0  0  0  0  0  0  0  0
    7.0500    1.9273   29.6662 C   0  0  0  0  0  0  0  0  0  0  0  0
    7.7376    1.7953   31.0366 C   0  0  0  0  0  0  0  0  0  0  0  0
    6.7126    2.5523   31.6801 O   0  0  0  0  0  0  0  0  0  0  0  0
    6.0079    2.7208   30.4491 C   0  0  0  0  0  0  0  0  0  0  0  0
    5.0073    2.2732   30.4753 H   0  0  0  0  0  0  0  0  0  0  0  0
    5.9414    3.7812   30.1774 H   0  0  0  0  0  0  0  0  0  0  0  0
    7.7792    0.7632   31.4090 H   0  0  0  0  0  0  0  0  0  0  0  0
    8.7159    2.2546   31.1831 H   0  0  0  0  0  0  0  0  0  0  0  0
    7.5820    2.5124   28.3244 C   0  0  0  0  0  0  0  0  0  0  0  0
    6.9991    3.3495   27.9502 H   0  0  0  0  0  0  0  0  0  0  0  0
    8.6364    2.7180   28.2059 H   0  0  0  0  0  0  0  0  0  0  0  0
    7.2413   -0.2343   29.1038 H   0  0  0  0  0  0  0  0  0  0  0  0
    5.6155    0.4558   28.7854 H   0  0  0  0  0  0  0  0  0  0  0  0
    8.0300    0.7380   27.1761 H   0  0  0  0  0  0  0  0  0  0  0  0
    5.4503    2.1151   26.7144 H   0  0  0  0  0  0  0  0  0  0  0  0
    5.8158    0.4696   26.1853 H   0  0  0  0  0  0  0  0  0  0  0  0
    7.5071    2.9828   25.5437 H   0  0  0  0  0  0  0  0  0  0  0  0
    6.3751    2.2354   24.3908 H   0  0  0  0  0  0  0  0  0  0  0  0
    8.0936   -0.9007   24.8720 H   0  0  0  0  0  0  0  0  0  0  0  0
    6.6752   -0.1165   24.1524 H   0  0  0  0  0  0  0  0  0  0  0  0
    7.5221    0.4741   21.7643 C   0  0  0  0  0  0  0  0  0  0  0  0
    7.4197    1.6824   21.7533 O   0  0  0  0  0  0  0  0  0  0  0  0
    6.9126   -0.3730   20.8626 N   0  0  0  0  0  0  0  0  0  0  0  0
    6.1294    0.0915   19.7861 C   0  0  0  0  0  0  0  0  0  0  0  0
    6.4452   -0.2406   18.4894 C   0  0  0  0  0  0  0  0  0  0  0  0
    5.7848    0.2130   17.3949 N   0  0  0  0  0  0  0  0  0  0  0  0
    4.7623    1.0080   17.5960 C   0  0  0  0  0  0  0  0  0  0  0  0
    4.2971    1.3897   18.8858 C   0  0  0  0  0  0  0  0  0  0  0  0
    3.1743    2.2440   19.0469 C   0  0  0  0  0  0  0  0  0  0  0  0
    2.7216    2.5716   20.2947 C   0  0  0  0  0  0  0  0  0  0  0  0
    3.3666    2.0562   21.4412 C   0  0  0  0  0  0  0  0  0  0  0  0
    4.4599    1.2388   21.3120 C   0  0  0  0  0  0  0  0  0  0  0  0
    4.9743    0.9060   20.0245 C   0  0  0  0  0  0  0  0  0  0  0  0
    4.9511    0.8655   22.2053 H   0  0  0  0  0  0  0  0  0  0  0  0
    3.0025    2.3196   22.4300 H   0  0  0  0  0  0  0  0  0  0  0  0
    1.8670    3.2319   20.4147 H   0  0  0  0  0  0  0  0  0  0  0  0
    2.6905    2.6342   18.1548 H   0  0  0  0  0  0  0  0  0  0  0  0
    4.2326    1.3825   16.7177 H   0  0  0  0  0  0  0  0  0  0  0  0
    7.2986   -0.8839   18.2817 H   0  0  0  0  0  0  0  0  0  0  0  0
    7.4212   -1.7268   20.9347 C   0  0  0  0  0  0  0  0  0  0  0  0
    8.0679   -1.8277   22.3254 C   0  0  2  0  0  0  0  0  0  0  0  0
    7.3093   -2.8014   23.2541 C   0  0  0  0  0  0  0  0  0  0  0  0
    5.9317   -2.4701   23.5514 N   0  0  0  0  0  0  0  0  0  0  0  0
    5.3977   -2.4216   24.8083 C   0  0  0  0  0  0  0  0  0  0  0  0
    4.0834   -2.1268   24.8591 N   0  0  0  0  0  0  0  0  0  0  0  0
    3.5783   -1.9586   26.0731 C   0  0  0  0  0  0  0  0  0  0  0  0
    4.3113   -2.1165   27.2407 C   0  0  0  0  0  0  0  0  0  0  0  0
    5.6380   -2.4620   27.0705 C   0  0  0  0  0  0  0  0  0  0  0  0
    6.2034   -2.6058   25.8650 N   0  0  0  0  0  0  0  0  0  0  0  0
    6.2903   -2.6302   27.9275 H   0  0  0  0  0  0  0  0  0  0  0  0
    3.8678   -1.9822   28.2204 H   0  0  0  0  0  0  0  0  0  0  0  0
    2.5292   -1.6761   26.0943 H   0  0  0  0  0  0  0  0  0  0  0  0
    5.2602   -2.3380   22.8107 H   0  0  0  0  0  0  0  0  0  0  0  0
    7.8226   -2.8605   24.2106 H   0  0  0  0  0  0  0  0  0  0  0  0
    7.3607   -3.8069   22.8092 H   0  0  0  0  0  0  0  0  0  0  0  0
    9.0449   -2.3071   22.2394 H   0  0  0  0  0  0  0  0  0  0  0  0
    6.6131   -2.4449   20.7732 H   0  0  0  0  0  0  0  0  0  0  0  0
    8.1787   -1.8922   20.1608 H   0  0  0  0  0  0  0  0  0  0  0  0
   10.3492   -1.1425   21.0481 H   0  0  0  0  0  0  0  0  0  0  0  0
   13.5124    1.2412   22.6600 H   0  0  0  0  0  0  0  0  0  0  0  0
   11.8866    2.2178   24.3153 H   0  0  0  0  0  0  0  0  0  0  0  0
  1  2  2  0
  2  3  1  0
  3  4  2  0
  4  5  1  0
  5  6  2  0
  6  7  1  0
  6  8  1  0
  8  9  2  0
  9 10  1  0
 10 11  1  1
 11 12  1  0
 12 13  1  0
 13 14  1  0
 14 15  1  0
 15 16  1  0
 16 17  1  0
 17 18  1  0
 18 19  1  0
 19 20  1  0
 20 21  1  0
 20 22  1  0
 18 23  1  0
 18 24  1  0
 17 25  1  0
 25 26  1  0
 25 27  1  0
 16 28  1  0
 16 29  1  0
 15 30  1  0
 14 31  1  0
 14 32  1  0
 13 33  1  0
 13 34  1  0
 11 35  1  0
 11 36  1  0
 10 37  1  0
 37 38  2  0
 37 39  1  0
 39 40  1  0
 40 41  2  0
 41 42  1  0
 42 43  2  0
 43 44  1  0
 44 45  2  0
 45 46  1  0
 46 47  2  0
 47 48  1  0
 48 49  2  0
 48 50  1  0
 47 51  1  0
 46 52  1  0
 45 53  1  0
 43 54  1  0
 41 55  1  0
 39 56  1  0
 56 57  1  0
 57 58  1  0
 58 59  1  0
 59 60  1  0
 60 61  2  0
 61 62  1  0
 62 63  2  0
 63 64  1  0
 64 65  2  0
 64 66  1  0
 63 67  1  0
 62 68  1  0
 59 69  1  0
 58 70  1  0
 58 71  1  0
 57 72  1  6
 56 73  1  0
 56 74  1  0
  8 75  1  0
  5 76  1  0
  4 77  1  0
 12  2  1  0
 25 15  1  0
 49 40  1  0
 65 60  1  0
  9  3  1  0
 57 10  1  0
 20 17  1  0
 49 44  1  0
M  CHG  1  15   1
M  END
>  <cnnaffinities>  (54) 
[6.66106, 6.53103]

>  <score>  (54) 
6.66106

>  <index>  (54) 
53

>  <Smiles>  (54) 
O=C1c2c(c(c(Cl)c(c2[C@@]2(C(N1C(C([N+]1(C(C3(C(OC3([H])[H])([H])[H])C1([H])[H])([H])[H])[H])([H])[H])([H])[H])([H])[H])C(=O)N(c1c(nc(c3c(c(c(c(c13)[H])[H])[H])[H])[H])[H])C([C@@]2(C(N(c1nc(c(c(n1)[H])[H])[H])[H])([H])[H])[H])([H])[H])[H])[H])[H]

>  <h>  (54) 
<NA>

>  <Training>  (54) 
True

>  <Success>  (54) 
True

>  <enamine_searched>  (54) 
False

>  <enamine_id>  (54) 
nan

$$$$

     RDKit          3D

 66 71  0  0  0  0  0  0  0  0999 V2000
    6.5445    4.4022   21.3735 C   0  0  0  0  0  0  0  0  0  0  0  0
    7.5369    3.9655   22.3518 N   0  0  0  0  0  0  0  0  0  0  0  0
    7.1010    3.3202   23.4737 C   0  0  0  0  0  0  0  0  0  0  0  0
    5.9137    3.1430   23.7111 O   0  0  0  0  0  0  0  0  0  0  0  0
    8.1972    2.8584   24.4458 C   0  0  0  0  0  0  0  0  0  0  0  0
    8.8457    1.6431   23.9709 N   0  0  0  0  0  0  0  0  0  0  0  0
    8.0524    0.4336   23.8060 C   0  0  0  0  0  0  0  0  0  0  0  0
    8.4613   -0.3992   22.5589 C   0  0  2  0  0  0  0  0  0  0  0  0
    8.0029    0.3210   21.2676 C   0  0  0  0  0  0  0  0  0  0  0  0
    8.4949    1.3120   20.7623 O   0  0  0  0  0  0  0  0  0  0  0  0
    6.9306   -0.3530   20.7401 N   0  0  0  0  0  0  0  0  0  0  0  0
    6.1600    0.1660   19.6795 C   0  0  0  0  0  0  0  0  0  0  0  0
    6.4709   -0.1611   18.3877 C   0  0  0  0  0  0  0  0  0  0  0  0
    5.7628    0.2498   17.3090 N   0  0  0  0  0  0  0  0  0  0  0  0
    4.7243    1.0211   17.5337 C   0  0  0  0  0  0  0  0  0  0  0  0
    4.2862    1.4270   18.8293 C   0  0  0  0  0  0  0  0  0  0  0  0
    3.1647    2.2785   19.0286 C   0  0  0  0  0  0  0  0  0  0  0  0
    2.7859    2.6463   20.2934 C   0  0  0  0  0  0  0  0  0  0  0  0
    3.5051    2.1849   21.4209 C   0  0  0  0  0  0  0  0  0  0  0  0
    4.5942    1.3631   21.2528 C   0  0  0  0  0  0  0  0  0  0  0  0
    5.0179    0.9749   19.9491 C   0  0  0  0  0  0  0  0  0  0  0  0
    5.1658    1.0437   22.1203 H   0  0  0  0  0  0  0  0  0  0  0  0
    3.2199    2.5041   22.4206 H   0  0  0  0  0  0  0  0  0  0  0  0
    1.9348    3.3076   20.4362 H   0  0  0  0  0  0  0  0  0  0  0  0
    2.6358    2.6434   18.1515 H   0  0  0  0  0  0  0  0  0  0  0  0
    4.1696    1.3709   16.6639 H   0  0  0  0  0  0  0  0  0  0  0  0
    7.3295   -0.7992   18.1916 H   0  0  0  0  0  0  0  0  0  0  0  0
    6.4693   -1.4677   21.5208 C   0  0  0  0  0  0  0  0  0  0  0  0
    7.6576   -1.7435   22.4456 C   0  0  2  0  0  0  0  0  0  0  0  0
    7.1864   -2.4415   23.7150 C   0  0  0  0  0  0  0  0  0  0  0  0
    8.3177   -3.0034   24.4131 N   0  0  0  0  0  0  0  0  0  0  0  0
    8.1731   -3.4411   25.7013 C   0  0  0  0  0  0  0  0  0  0  0  0
    9.2827   -3.9742   26.3976 C   0  0  0  0  0  0  0  0  0  0  0  0
    9.1917   -4.3175   27.6644 N   0  0  0  0  0  0  0  0  0  0  0  0
    7.9977   -4.1741   28.2542 C   0  0  0  0  0  0  0  0  0  0  0  0
    6.8860   -3.7877   27.5375 C   0  0  0  0  0  0  0  0  0  0  0  0
    6.9606   -3.3968   26.2584 N   0  0  0  0  0  0  0  0  0  0  0  0
    5.8938   -3.7894   27.9840 H   0  0  0  0  0  0  0  0  0  0  0  0
    7.9708   -4.3414   29.3210 H   0  0  0  0  0  0  0  0  0  0  0  0
   10.2539   -4.1006   25.9195 H   0  0  0  0  0  0  0  0  0  0  0  0
    9.2360   -2.6627   24.1543 H   0  0  0  0  0  0  0  0  0  0  0  0
    6.4864   -3.2535   23.4726 H   0  0  0  0  0  0  0  0  0  0  0  0
    6.6249   -1.7652   24.3769 H   0  0  0  0  0  0  0  0  0  0  0  0
    8.3036   -2.4567   21.9237 H   0  0  0  0  0  0  0  0  0  0  0  0
    6.2334   -2.3211   20.8728 H   0  0  0  0  0  0  0  0  0  0  0  0
    5.5437   -1.2216   22.0665 H   0  0  0  0  0  0  0  0  0  0  0  0
    9.9779   -0.5001   22.4965 C   0  0  0  0  0  0  0  0  0  0  0  0
   10.5950   -1.3842   21.5939 C   0  0  0  0  0  0  0  0  0  0  0  0
   11.9552   -1.3006   21.3507 C   0  0  0  0  0  0  0  0  0  0  0  0
   12.6436   -2.3114   20.1071 Cl  0  0  0  0  0  0  0  0  0  0  0  0
   12.7600   -0.3881   22.0349 C   0  0  0  0  0  0  0  0  0  0  0  0
   12.1675    0.4513   22.9511 C   0  0  0  0  0  0  0  0  0  0  0  0
   10.7865    0.4522   23.1380 C   0  0  0  0  0  0  0  0  0  0  0  0
   10.2111    1.6004   23.9157 C   0  0  0  0  0  0  0  0  0  0  0  0
   10.9188    2.4709   24.4060 O   0  0  0  0  0  0  0  0  0  0  0  0
   12.7810    1.1414   23.5138 H   0  0  0  0  0  0  0  0  0  0  0  0
   13.8235   -0.2999   21.8420 H   0  0  0  0  0  0  0  0  0  0  0  0
   10.0367   -2.1011   21.0005 H   0  0  0  0  0  0  0  0  0  0  0  0
    7.0093    0.7374   23.7017 H   0  0  0  0  0  0  0  0  0  0  0  0
    8.1415   -0.1859   24.7103 H   0  0  0  0  0  0  0  0  0  0  0  0
    8.9860    3.6140   24.5466 H   0  0  0  0  0  0  0  0  0  0  0  0
    7.7462    2.7287   25.4395 H   0  0  0  0  0  0  0  0  0  0  0  0
    8.4666    3.7390   22.0133 H   0  0  0  0  0  0  0  0  0  0  0  0
    6.9612    5.2112   20.7650 H   0  0  0  0  0  0  0  0  0  0  0  0
    5.6725    4.7840   21.9158 H   0  0  0  0  0  0  0  0  0  0  0  0
    6.2025    3.5661   20.7360 H   0  0  0  0  0  0  0  0  0  0  0  0
  1  2  1  0
  2  3  1  0
  3  4  2  0
  3  5  1  0
  5  6  1  0
  6  7  1  0
  8  7  1  1
  8  9  1  0
  9 10  2  0
  9 11  1  0
 11 12  1  0
 12 13  2  0
 13 14  1  0
 14 15  2  0
 15 16  1  0
 16 17  2  0
 17 18  1  0
 18 19  2  0
 19 20  1  0
 20 21  2  0
 20 22  1  0
 19 23  1  0
 18 24  1  0
 17 25  1  0
 15 26  1  0
 13 27  1  0
 11 28  1  0
 28 29  1  0
 29 30  1  0
 30 31  1  0
 31 32  1  0
 32 33  2  0
 33 34  1  0
 34 35  2  0
 35 36  1  0
 36 37  2  0
 36 38  1  0
 35 39  1  0
 33 40  1  0
 31 41  1  0
 30 42  1  0
 30 43  1  0
 29 44  1  6
 28 45  1  0
 28 46  1  0
  8 47  1  0
 47 48  2  0
 48 49  1  0
 49 50  1  0
 49 51  2  0
 51 52  1  0
 52 53  2  0
 53 54  1  0
 54 55  2  0
 52 56  1  0
 51 57  1  0
 48 58  1  0
  7 59  1  0
  7 60  1  0
  5 61  1  0
  5 62  1  0
  2 63  1  0
  1 64  1  0
  1 65  1  0
  1 66  1  0
 54  6  1  0
 29  8  1  0
 37 32  1  0
 53 47  1  0
 21 12  1  0
 21 16  1  0
M  END
>  <cnnaffinities>  (55) 
[6.68259, 6.7866, 7.57545, 6.81324]

>  <score>  (55) 
6.68259

>  <index>  (55) 
54

>  <Smiles>  (55) 
C(N(C(=O)C(N1C([C@@]2(C(=O)N(c3c(nc(c4c(c(c(c(c34)[H])[H])[H])[H])[H])[H])C([C@@]2(C(N(c2c(nc(c(n2)[H])[H])[H])[H])([H])[H])[H])([H])[H])c2c(c(Cl)c(c(c2C1=O)[H])[H])[H])([H])[H])([H])[H])[H])([H])([H])[H]

>  <h>  (55) 
<NA>

>  <Training>  (55) 
True

>  <Success>  (55) 
True

>  <enamine_searched>  (55) 
False

>  <enamine_id>  (55) 
nan

$$$$

     RDKit          3D

 56 61  0  0  0  0  0  0  0  0999 V2000
    5.5677    4.8346   21.4520 C   0  0  0  0  0  0  0  0  0  0  0  0
    6.5796    4.5706   22.4604 N   0  0  0  0  0  0  0  0  0  0  0  0
    7.7848    5.1680   22.5692 C   0  0  0  0  0  0  0  0  0  0  0  0
    8.4628    4.5263   23.5772 C   0  0  0  0  0  0  0  0  0  0  0  0
    7.5825    3.5107   24.0089 C   0  0  0  0  0  0  0  0  0  0  0  0
    7.8892    2.4355   25.0252 C   0  0  0  0  0  0  0  0  0  0  0  0
    8.6633    1.3133   24.4831 N   0  0  0  0  0  0  0  0  0  0  0  0
    8.0003    0.0702   24.1480 C   0  0  0  0  0  0  0  0  0  0  0  0
    8.3647   -0.4399   22.7324 C   0  0  1  0  0  0  0  0  0  0  0  0
    7.7371   -1.8367   22.5251 C   0  0  0  0  0  0  0  0  0  0  0  0
    6.9850   -1.8152   21.1798 C   0  0  0  0  0  0  0  0  0  0  0  0
    6.8736   -0.4025   20.8745 N   0  0  0  0  0  0  0  0  0  0  0  0
    6.1290    0.1048   19.7779 C   0  0  0  0  0  0  0  0  0  0  0  0
    6.4466   -0.2266   18.4850 C   0  0  0  0  0  0  0  0  0  0  0  0
    5.7752    0.2210   17.3932 N   0  0  0  0  0  0  0  0  0  0  0  0
    4.7525    1.0163   17.5972 C   0  0  0  0  0  0  0  0  0  0  0  0
    4.2969    1.4239   18.8816 C   0  0  0  0  0  0  0  0  0  0  0  0
    3.1651    2.2671   19.0596 C   0  0  0  0  0  0  0  0  0  0  0  0
    2.7372    2.6055   20.3133 C   0  0  0  0  0  0  0  0  0  0  0  0
    3.4188    2.1162   21.4507 C   0  0  0  0  0  0  0  0  0  0  0  0
    4.5194    1.3113   21.3054 C   0  0  0  0  0  0  0  0  0  0  0  0
    5.0006    0.9527   20.0158 C   0  0  0  0  0  0  0  0  0  0  0  0
    5.0285    0.9372   22.1881 H   0  0  0  0  0  0  0  0  0  0  0  0
    3.0808    2.3916   22.4470 H   0  0  0  0  0  0  0  0  0  0  0  0
    1.8743    3.2531   20.4434 H   0  0  0  0  0  0  0  0  0  0  0  0
    2.6538    2.6349   18.1743 H   0  0  0  0  0  0  0  0  0  0  0  0
    4.2258    1.3784   16.7142 H   0  0  0  0  0  0  0  0  0  0  0  0
    7.2911   -0.8795   18.2659 H   0  0  0  0  0  0  0  0  0  0  0  0
    7.7079    0.4098   21.6116 C   0  0  0  0  0  0  0  0  0  0  0  0
    7.8959    1.5796   21.3760 O   0  0  0  0  0  0  0  0  0  0  0  0
    5.9845   -2.2614   21.2410 H   0  0  0  0  0  0  0  0  0  0  0  0
    7.5393   -2.3400   20.3979 H   0  0  0  0  0  0  0  0  0  0  0  0
    8.4932   -2.6251   22.5678 H   0  0  0  0  0  0  0  0  0  0  0  0
    7.0296   -2.0379   23.3369 H   0  0  0  0  0  0  0  0  0  0  0  0
    9.8680   -0.3846   22.5719 C   0  0  0  0  0  0  0  0  0  0  0  0
   10.4826   -1.1628   21.5844 C   0  0  0  0  0  0  0  0  0  0  0  0
   11.8477   -1.0752   21.3890 C   0  0  0  0  0  0  0  0  0  0  0  0
   12.6054   -2.0482   20.1612 Cl  0  0  0  0  0  0  0  0  0  0  0  0
   12.6285   -0.2102   22.1535 C   0  0  0  0  0  0  0  0  0  0  0  0
   12.0188    0.5891   23.1006 C   0  0  0  0  0  0  0  0  0  0  0  0
   10.6421    0.5175   23.3122 C   0  0  0  0  0  0  0  0  0  0  0  0
   10.0102    1.4787   24.2840 C   0  0  0  0  0  0  0  0  0  0  0  0
   10.6407    2.3781   24.8262 O   0  0  0  0  0  0  0  0  0  0  0  0
   12.5882    1.2963   23.6922 H   0  0  0  0  0  0  0  0  0  0  0  0
   13.6983   -0.1783   21.9877 H   0  0  0  0  0  0  0  0  0  0  0  0
    9.9125   -1.8353   20.9501 H   0  0  0  0  0  0  0  0  0  0  0  0
    8.2574   -0.7193   24.8759 H   0  0  0  0  0  0  0  0  0  0  0  0
    6.9227    0.2552   24.1819 H   0  0  0  0  0  0  0  0  0  0  0  0
    6.9559    2.0368   25.4431 H   0  0  0  0  0  0  0  0  0  0  0  0
    8.4847    2.8667   25.8354 H   0  0  0  0  0  0  0  0  0  0  0  0
    6.4282    3.5670   23.3479 N   0  0  0  0  0  0  0  0  0  0  0  0
    9.4553    4.7057   23.9631 H   0  0  0  0  0  0  0  0  0  0  0  0
    8.0593    5.9769   21.9031 H   0  0  0  0  0  0  0  0  0  0  0  0
    4.5847    4.7746   21.9259 H   0  0  0  0  0  0  0  0  0  0  0  0
    5.7334    5.8470   21.0665 H   0  0  0  0  0  0  0  0  0  0  0  0
    5.6134    4.1003   20.6344 H   0  0  0  0  0  0  0  0  0  0  0  0
  1  2  1  0
  2  3  1  0
  3  4  2  0
  4  5  1  0
  5  6  1  0
  6  7  1  0
  7  8  1  0
  9  8  1  1
  9 10  1  0
 10 11  1  0
 11 12  1  0
 12 13  1  0
 13 14  2  0
 14 15  1  0
 15 16  2  0
 16 17  1  0
 17 18  2  0
 18 19  1  0
 19 20  2  0
 20 21  1  0
 21 22  2  0
 21 23  1  0
 20 24  1  0
 19 25  1  0
 18 26  1  0
 16 27  1  0
 14 28  1  0
 12 29  1  0
 29 30  2  0
 11 31  1  0
 11 32  1  0
 10 33  1  0
 10 34  1  0
  9 35  1  0
 35 36  2  0
 36 37  1  0
 37 38  1  0
 37 39  2  0
 39 40  1  0
 40 41  2  0
 41 42  1  0
 42 43  2  0
 40 44  1  0
 39 45  1  0
 36 46  1  0
  8 47  1  0
  8 48  1  0
  6 49  1  0
  6 50  1  0
  5 51  2  0
  4 52  1  0
  3 53  1  0
  1 54  1  0
  1 55  1  0
  1 56  1  0
 51  2  1  0
 42  7  1  0
 29  9  1  0
 41 35  1  0
 22 13  1  0
 22 17  1  0
M  END
>  <cnnaffinities>  (56) 
[6.70763]

>  <score>  (56) 
6.70763

>  <index>  (56) 
55

>  <Smiles>  (56) 
C(n1c(c(c(C(N2C([C@]3(C(C(N(c4c(nc(c5c(c(c(c(c45)[H])[H])[H])[H])[H])[H])C3=O)([H])[H])([H])[H])c3c(c(Cl)c(c(c3C2=O)[H])[H])[H])([H])[H])([H])[H])n1)[H])[H])([H])([H])[H]

>  <h>  (56) 
<NA>

>  <Training>  (56) 
True

>  <Success>  (56) 
True

>  <enamine_searched>  (56) 
False

>  <enamine_id>  (56) 
nan

$$$$

     RDKit          3D

 41 43  0  0  0  0  0  0  0  0999 V2000
    8.1233    1.6606   20.9606 O   0  0  0  0  0  0  0  0  0  0  0  0
    7.9113    0.6152   21.5545 C   0  0  0  0  0  0  0  0  0  0  0  0
    6.9587   -0.4375   20.9443 C   0  0  0  0  0  0  0  0  0  0  0  0
    6.1327    0.0907   19.7933 C   0  0  0  0  0  0  0  0  0  0  0  0
    6.4495   -0.2091   18.4947 C   0  0  0  0  0  0  0  0  0  0  0  0
    5.7851    0.2334   17.3906 N   0  0  0  0  0  0  0  0  0  0  0  0
    4.7558    1.0202   17.5940 C   0  0  0  0  0  0  0  0  0  0  0  0
    4.3052    1.4188   18.8802 C   0  0  0  0  0  0  0  0  0  0  0  0
    3.1854    2.2733   19.0462 C   0  0  0  0  0  0  0  0  0  0  0  0
    2.7788    2.6397   20.3022 C   0  0  0  0  0  0  0  0  0  0  0  0
    3.4722    2.1674   21.4386 C   0  0  0  0  0  0  0  0  0  0  0  0
    4.5559    1.3375   21.3011 C   0  0  0  0  0  0  0  0  0  0  0  0
    5.0067    0.9430   20.0130 C   0  0  0  0  0  0  0  0  0  0  0  0
    5.0794    0.9799   22.1848 H   0  0  0  0  0  0  0  0  0  0  0  0
    3.1436    2.4664   22.4307 H   0  0  0  0  0  0  0  0  0  0  0  0
    1.9266    3.2990   20.4280 H   0  0  0  0  0  0  0  0  0  0  0  0
    2.6696    2.6310   18.1582 H   0  0  0  0  0  0  0  0  0  0  0  0
    4.2186    1.3776   16.7139 H   0  0  0  0  0  0  0  0  0  0  0  0
    7.2950   -0.8616   18.2712 H   0  0  0  0  0  0  0  0  0  0  0  0
    7.5894   -1.2601   20.5785 H   0  0  0  0  0  0  0  0  0  0  0  0
    6.3122   -0.8651   21.7188 H   0  0  0  0  0  0  0  0  0  0  0  0
    8.5133    0.3399   22.7686 N   0  0  0  0  0  0  0  0  0  0  0  0
    9.3404    1.3872   23.3736 C   0  0  0  0  0  0  0  0  0  0  0  0
   10.7416    1.4551   22.7739 C   0  0  0  0  0  0  0  0  0  0  0  0
   11.7011    0.2990   23.0672 C   0  0  0  0  0  0  0  0  0  0  0  0
   11.1408   -1.3874   22.6976 S   0  0  0  0  0  0  0  0  0  0  0  0
    9.8170   -1.4673   23.9308 C   0  0  0  0  0  0  0  0  0  0  0  0
    8.4637   -0.9520   23.4186 C   0  0  1  0  0  0  0  0  0  0  0  0
    7.4622   -0.8856   24.5671 C   0  0  0  0  0  0  0  0  0  0  0  0
    7.2776   -2.0891   25.1315 F   0  0  0  0  0  0  0  0  0  0  0  0
    6.2773   -0.4370   24.1273 F   0  0  0  0  0  0  0  0  0  0  0  0
    7.8672   -0.0443   25.5409 F   0  0  0  0  0  0  0  0  0  0  0  0
    8.0680   -1.6765   22.7023 H   0  0  0  0  0  0  0  0  0  0  0  0
    9.7068   -2.5100   24.2438 H   0  0  0  0  0  0  0  0  0  0  0  0
   10.1356   -0.8830   24.7999 H   0  0  0  0  0  0  0  0  0  0  0  0
   12.6363    0.4381   22.5121 H   0  0  0  0  0  0  0  0  0  0  0  0
   11.9690    0.3340   24.1310 H   0  0  0  0  0  0  0  0  0  0  0  0
   10.6004    1.6311   21.7044 H   0  0  0  0  0  0  0  0  0  0  0  0
   11.2138    2.3617   23.1556 H   0  0  0  0  0  0  0  0  0  0  0  0
    8.8469    2.3374   23.1572 H   0  0  0  0  0  0  0  0  0  0  0  0
    9.3340    1.2640   24.4627 H   0  0  0  0  0  0  0  0  0  0  0  0
  1  2  2  0
  2  3  1  0
  3  4  1  0
  4  5  2  0
  5  6  1  0
  6  7  2  0
  7  8  1  0
  8  9  2  0
  9 10  1  0
 10 11  2  0
 11 12  1  0
 12 13  2  0
 12 14  1  0
 11 15  1  0
 10 16  1  0
  9 17  1  0
  7 18  1  0
  5 19  1  0
  3 20  1  0
  3 21  1  0
  2 22  1  0
 22 23  1  0
 23 24  1  0
 24 25  1  0
 25 26  1  0
 26 27  1  0
 27 28  1  0
 28 29  1  0
 29 30  1  0
 29 31  1  0
 29 32  1  0
 28 33  1  6
 27 34  1  0
 27 35  1  0
 25 36  1  0
 25 37  1  0
 24 38  1  0
 24 39  1  0
 23 40  1  0
 23 41  1  0
 13  4  1  0
 28 22  1  0
 13  8  1  0
M  END
>  <cnnaffinities>  (57) 
[5.92937, 5.92936, 5.92949, 5.8079, 5.80795, 5.80795]

>  <score>  (57) 
5.92937

>  <index>  (57) 
56

>  <Smiles>  (57) 
O=C(C(c1c(nc(c2c(c(c(c(c12)[H])[H])[H])[H])[H])[H])([H])[H])N1C(C(C(SC([C@]1(C(F)(F)F)[H])([H])[H])([H])[H])([H])[H])([H])[H]

>  <h>  (57) 
<NA>

>  <Training>  (57) 
True

>  <Success>  (57) 
True

>  <enamine_searched>  (57) 
False

>  <enamine_id>  (57) 
nan

$$$$

     RDKit          3D

 67 72  0  0  0  0  0  0  0  0999 V2000
    6.5065    4.3948   21.4113 C   0  0  0  0  0  0  0  0  0  0  0  0
    7.4745    3.9472   22.4056 N   0  0  0  0  0  0  0  0  0  0  0  0
    7.0143    3.3076   23.5194 C   0  0  0  0  0  0  0  0  0  0  0  0
    5.8215    3.1434   23.7365 O   0  0  0  0  0  0  0  0  0  0  0  0
    8.0893    2.8204   24.5072 C   0  0  0  0  0  0  0  0  0  0  0  0
    8.7748    1.6379   24.0007 N   0  0  0  0  0  0  0  0  0  0  0  0
    8.0180    0.4015   23.8479 C   0  0  0  0  0  0  0  0  0  0  0  0
    8.4417   -0.3982   22.5869 C   0  0  2  0  0  0  0  0  0  0  0  0
    7.9099    0.2799   21.3080 C   0  0  0  0  0  0  0  0  0  0  0  0
    8.3545    1.2712   20.7639 O   0  0  0  0  0  0  0  0  0  0  0  0
    6.8375   -0.4397   20.8362 N   0  0  0  0  0  0  0  0  0  0  0  0
    6.0917    0.0725   19.7510 C   0  0  0  0  0  0  0  0  0  0  0  0
    6.4607   -0.2145   18.4632 C   0  0  0  0  0  0  0  0  0  0  0  0
    5.7930    0.2269   17.3693 N   0  0  0  0  0  0  0  0  0  0  0  0
    4.7502    0.9982   17.5691 C   0  0  0  0  0  0  0  0  0  0  0  0
    4.2822    1.3989   18.8549 C   0  0  0  0  0  0  0  0  0  0  0  0
    3.1682    2.2626   19.0346 C   0  0  0  0  0  0  0  0  0  0  0  0
    2.7719    2.6396   20.2900 C   0  0  0  0  0  0  0  0  0  0  0  0
    3.4779    2.1868   21.4300 C   0  0  0  0  0  0  0  0  0  0  0  0
    4.5606    1.3541   21.2831 C   0  0  0  0  0  0  0  0  0  0  0  0
    4.9815    0.9319   19.9912 C   0  0  0  0  0  0  0  0  0  0  0  0
    5.1338    1.0507   22.1562 H   0  0  0  0  0  0  0  0  0  0  0  0
    3.1909    2.5224   22.4227 H   0  0  0  0  0  0  0  0  0  0  0  0
    1.9211    3.3037   20.4192 H   0  0  0  0  0  0  0  0  0  0  0  0
    2.6535    2.6274   18.1491 H   0  0  0  0  0  0  0  0  0  0  0  0
    4.2196    1.3575   16.6855 H   0  0  0  0  0  0  0  0  0  0  0  0
    7.3387   -0.8295   18.2755 H   0  0  0  0  0  0  0  0  0  0  0  0
    6.4725   -1.5802   21.6505 C   0  0  0  0  0  0  0  0  0  0  0  0
    7.7497   -1.7840   22.4839 C   0  0  2  0  0  0  0  0  0  0  0  0
    7.5239   -2.5656   23.7735 C   0  0  0  0  0  0  0  0  0  0  0  0
    7.1151   -3.9168   23.4774 N   0  0  0  0  0  0  0  0  0  0  0  0
    5.7970   -4.2990   23.4785 C   0  0  0  0  0  0  0  0  0  0  0  0
    4.7487   -3.7040   24.1129 C   0  0  0  0  0  0  0  0  0  0  0  0
    3.5347   -4.3404   24.0186 N   0  0  0  0  0  0  0  0  0  0  0  0
    3.6181   -5.3966   23.2777 C   0  0  0  0  0  0  0  0  0  0  0  0
    2.4490   -6.2514   22.9136 C   0  0  0  0  0  0  0  0  0  0  0  0
    2.1896   -6.1183   21.8589 H   0  0  0  0  0  0  0  0  0  0  0  0
    2.6244   -7.3166   23.0985 H   0  0  0  0  0  0  0  0  0  0  0  0
    1.6015   -5.9026   23.5010 H   0  0  0  0  0  0  0  0  0  0  0  0
    5.2191   -5.7460   22.6799 S   0  0  0  0  0  0  0  0  0  0  0  0
    4.8226   -2.7980   24.7048 H   0  0  0  0  0  0  0  0  0  0  0  0
    7.8229   -4.6146   23.3383 H   0  0  0  0  0  0  0  0  0  0  0  0
    8.4244   -2.5651   24.4031 H   0  0  0  0  0  0  0  0  0  0  0  0
    6.7269   -2.0949   24.3475 H   0  0  0  0  0  0  0  0  0  0  0  0
    8.4085   -2.4006   21.8730 H   0  0  0  0  0  0  0  0  0  0  0  0
    5.5833   -1.3779   22.2715 H   0  0  0  0  0  0  0  0  0  0  0  0
    6.2303   -2.4575   21.0406 H   0  0  0  0  0  0  0  0  0  0  0  0
    9.9533   -0.4408   22.5058 C   0  0  0  0  0  0  0  0  0  0  0  0
   10.5818   -1.2902   21.5846 C   0  0  0  0  0  0  0  0  0  0  0  0
   11.9466   -1.2322   21.3874 C   0  0  0  0  0  0  0  0  0  0  0  0
   12.6477   -2.2301   20.1426 Cl  0  0  0  0  0  0  0  0  0  0  0  0
   12.7458   -0.3706   22.1382 C   0  0  0  0  0  0  0  0  0  0  0  0
   12.1352    0.4615   23.0494 C   0  0  0  0  0  0  0  0  0  0  0  0
   10.7490    0.4870   23.1841 C   0  0  0  0  0  0  0  0  0  0  0  0
   10.1459    1.6229   23.9592 C   0  0  0  0  0  0  0  0  0  0  0  0
   10.8320    2.5030   24.4599 O   0  0  0  0  0  0  0  0  0  0  0  0
   12.7156    1.1346   23.6656 H   0  0  0  0  0  0  0  0  0  0  0  0
   13.8189   -0.3342   21.9990 H   0  0  0  0  0  0  0  0  0  0  0  0
   10.0313   -1.9817   20.9602 H   0  0  0  0  0  0  0  0  0  0  0  0
    6.9584    0.6628   23.7770 H   0  0  0  0  0  0  0  0  0  0  0  0
    8.1643   -0.2184   24.7444 H   0  0  0  0  0  0  0  0  0  0  0  0
    8.8681    3.5761   24.6714 H   0  0  0  0  0  0  0  0  0  0  0  0
    7.5996    2.6301   25.4754 H   0  0  0  0  0  0  0  0  0  0  0  0
    8.3966    3.6826   22.0823 H   0  0  0  0  0  0  0  0  0  0  0  0
    6.1370    3.5547   20.8017 H   0  0  0  0  0  0  0  0  0  0  0  0
    5.6415    4.8148   21.9343 H   0  0  0  0  0  0  0  0  0  0  0  0
    6.9635    5.1578   20.7684 H   0  0  0  0  0  0  0  0  0  0  0  0
  1  2  1  0
  2  3  1  0
  3  4  2  0
  3  5  1  0
  5  6  1  0
  6  7  1  0
  8  7  1  1
  8  9  1  0
  9 10  2  0
  9 11  1  0
 11 12  1  0
 12 13  2  0
 13 14  1  0
 14 15  2  0
 15 16  1  0
 16 17  2  0
 17 18  1  0
 18 19  2  0
 19 20  1  0
 20 21  2  0
 20 22  1  0
 19 23  1  0
 18 24  1  0
 17 25  1  0
 15 26  1  0
 13 27  1  0
 11 28  1  0
 28 29  1  0
 29 30  1  0
 30 31  1  0
 31 32  1  0
 32 33  2  0
 33 34  1  0
 34 35  2  0
 35 36  1  0
 36 37  1  0
 36 38  1  0
 36 39  1  0
 35 40  1  0
 33 41  1  0
 31 42  1  0
 30 43  1  0
 30 44  1  0
 29 45  1  6
 28 46  1  0
 28 47  1  0
  8 48  1  0
 48 49  2  0
 49 50  1  0
 50 51  1  0
 50 52  2  0
 52 53  1  0
 53 54  2  0
 54 55  1  0
 55 56  2  0
 53 57  1  0
 52 58  1  0
 49 59  1  0
  7 60  1  0
  7 61  1  0
  5 62  1  0
  5 63  1  0
  2 64  1  0
  1 65  1  0
  1 66  1  0
  1 67  1  0
 55  6  1  0
 29  8  1  0
 40 32  1  0
 54 48  1  0
 21 12  1  0
 21 16  1  0
M  END
>  <cnnaffinities>  (58) 
[7.17573]

>  <score>  (58) 
7.17573

>  <index>  (58) 
57

>  <Smiles>  (58) 
C(N(C(=O)C(N1C([C@@]2(C(=O)N(c3c(nc(c4c(c(c(c(c34)[H])[H])[H])[H])[H])[H])C([C@@]2(C(N(c2c(nc(C([H])([H])[H])s2)[H])[H])([H])[H])[H])([H])[H])c2c(c(Cl)c(c(c2C1=O)[H])[H])[H])([H])[H])([H])[H])[H])([H])([H])[H]

>  <h>  (58) 
<NA>

>  <Training>  (58) 
True

>  <Success>  (58) 
True

>  <enamine_searched>  (58) 
False

>  <enamine_id>  (58) 
nan

$$$$

     RDKit          3D

 57 62  0  0  0  0  0  0  0  0999 V2000
    7.0128   -2.2954   23.6158 C   0  0  0  0  0  0  0  0  0  0  0  0
    7.8838   -1.8758   22.4177 C   0  0  1  0  0  0  0  0  0  0  0  0
    7.0248   -1.7992   21.1380 C   0  0  0  0  0  0  0  0  0  0  0  0
    6.8843   -0.3896   20.8702 N   0  0  0  0  0  0  0  0  0  0  0  0
    6.1260    0.1025   19.7807 C   0  0  0  0  0  0  0  0  0  0  0  0
    6.4449   -0.2311   18.4851 C   0  0  0  0  0  0  0  0  0  0  0  0
    5.7778    0.2194   17.3937 N   0  0  0  0  0  0  0  0  0  0  0  0
    4.7534    1.0136   17.6001 C   0  0  0  0  0  0  0  0  0  0  0  0
    4.2982    1.4130   18.8909 C   0  0  0  0  0  0  0  0  0  0  0  0
    3.1684    2.2586   19.0559 C   0  0  0  0  0  0  0  0  0  0  0  0
    2.7305    2.5913   20.3102 C   0  0  0  0  0  0  0  0  0  0  0  0
    3.3970    2.0931   21.4499 C   0  0  0  0  0  0  0  0  0  0  0  0
    4.5104    1.2982   21.3179 C   0  0  0  0  0  0  0  0  0  0  0  0
    4.9926    0.9408   20.0259 C   0  0  0  0  0  0  0  0  0  0  0  0
    5.0338    0.9452   22.2002 H   0  0  0  0  0  0  0  0  0  0  0  0
    3.0379    2.3602   22.4409 H   0  0  0  0  0  0  0  0  0  0  0  0
    1.8753    3.2484   20.4399 H   0  0  0  0  0  0  0  0  0  0  0  0
    2.6663    2.6317   18.1683 H   0  0  0  0  0  0  0  0  0  0  0  0
    4.2269    1.3757   16.7183 H   0  0  0  0  0  0  0  0  0  0  0  0
    7.2956   -0.8783   18.2678 H   0  0  0  0  0  0  0  0  0  0  0  0
    7.7996    0.4022   21.5300 C   0  0  0  0  0  0  0  0  0  0  0  0
    7.9347    1.5870   21.3277 O   0  0  0  0  0  0  0  0  0  0  0  0
    8.5983   -0.4802   22.5223 C   0  0  1  0  0  0  0  0  0  0  0  0
    8.5356    0.0957   23.9527 C   0  0  0  0  0  0  0  0  0  0  0  0
    9.2926    1.3226   24.1035 N   0  0  0  0  0  0  0  0  0  0  0  0
    8.7014    2.4480   24.8037 C   0  0  0  0  0  0  0  0  0  0  0  0
    8.0333    3.4208   23.8606 C   0  0  0  0  0  0  0  0  0  0  0  0
    8.7983    4.3680   23.1754 C   0  0  0  0  0  0  0  0  0  0  0  0
    8.1046    5.2263   22.3354 C   0  0  0  0  0  0  0  0  0  0  0  0
    6.7747    5.1712   22.2029 N   0  0  0  0  0  0  0  0  0  0  0  0
    6.1602    4.2238   22.9003 C   0  0  0  0  0  0  0  0  0  0  0  0
    6.7038    3.3262   23.7179 N   0  0  0  0  0  0  0  0  0  0  0  0
    5.0813    4.1698   22.7788 H   0  0  0  0  0  0  0  0  0  0  0  0
    8.6139    5.9877   21.7438 H   0  0  0  0  0  0  0  0  0  0  0  0
    9.8786    4.4173   23.3212 H   0  0  0  0  0  0  0  0  0  0  0  0
    9.5282    2.9264   25.3369 H   0  0  0  0  0  0  0  0  0  0  0  0
    7.9665    2.0586   25.5144 H   0  0  0  0  0  0  0  0  0  0  0  0
   10.5610    1.4742   23.6317 C   0  0  0  0  0  0  0  0  0  0  0  0
   11.2837    2.3996   23.9851 O   0  0  0  0  0  0  0  0  0  0  0  0
   10.9859    0.4521   22.6395 C   0  0  0  0  0  0  0  0  0  0  0  0
   12.3136    0.5086   22.2225 C   0  0  0  0  0  0  0  0  0  0  0  0
   12.7751   -0.3951   21.2908 C   0  0  0  0  0  0  0  0  0  0  0  0
   11.8978   -1.3657   20.8261 C   0  0  0  0  0  0  0  0  0  0  0  0
   12.4039   -2.3043   20.0060 F   0  0  0  0  0  0  0  0  0  0  0  0
   10.5563   -1.3954   21.1744 C   0  0  0  0  0  0  0  0  0  0  0  0
   10.0802   -0.4920   22.1281 C   0  0  0  0  0  0  0  0  0  0  0  0
    9.8823   -2.0762   20.6636 H   0  0  0  0  0  0  0  0  0  0  0  0
   13.7827   -0.3728   20.8984 H   0  0  0  0  0  0  0  0  0  0  0  0
   12.9339    1.2787   22.6693 H   0  0  0  0  0  0  0  0  0  0  0  0
    7.5020    0.3433   24.2022 H   0  0  0  0  0  0  0  0  0  0  0  0
    8.9205   -0.6731   24.6410 H   0  0  0  0  0  0  0  0  0  0  0  0
    7.5041   -2.2995   20.2949 H   0  0  0  0  0  0  0  0  0  0  0  0
    6.0368   -2.2536   21.2731 H   0  0  0  0  0  0  0  0  0  0  0  0
    8.6537   -2.6484   22.3173 H   0  0  0  0  0  0  0  0  0  0  0  0
    6.1988   -1.5880   23.8073 H   0  0  0  0  0  0  0  0  0  0  0  0
    6.5560   -3.2704   23.4186 H   0  0  0  0  0  0  0  0  0  0  0  0
    7.5939   -2.4007   24.5359 H   0  0  0  0  0  0  0  0  0  0  0  0
  1  2  1  0
  2  3  1  0
  3  4  1  0
  4  5  1  0
  5  6  2  0
  6  7  1  0
  7  8  2  0
  8  9  1  0
  9 10  2  0
 10 11  1  0
 11 12  2  0
 12 13  1  0
 13 14  2  0
 13 15  1  0
 12 16  1  0
 11 17  1  0
 10 18  1  0
  8 19  1  0
  6 20  1  0
  4 21  1  0
 21 22  2  0
 21 23  1  0
 23 24  1  1
 24 25  1  0
 25 26  1  0
 26 27  1  0
 27 28  2  0
 28 29  1  0
 29 30  2  0
 30 31  1  0
 31 32  2  0
 31 33  1  0
 29 34  1  0
 28 35  1  0
 26 36  1  0
 26 37  1  0
 25 38  1  0
 38 39  2  0
 38 40  1  0
 40 41  2  0
 41 42  1  0
 42 43  2  0
 43 44  1  0
 43 45  1  0
 45 46  2  0
 45 47  1  0
 42 48  1  0
 41 49  1  0
 24 50  1  0
 24 51  1  0
  3 52  1  0
  3 53  1  0
  2 54  1  6
  1 55  1  0
  1 56  1  0
  1 57  1  0
 23  2  1  0
 32 27  1  0
 46 40  1  0
 14  5  1  0
 46 23  1  0
 14  9  1  0
M  END
>  <cnnaffinities>  (59) 
[6.73074, 6.77584]

>  <score>  (59) 
6.73074

>  <index>  (59) 
58

>  <Smiles>  (59) 
C([C@]1(C(N(c2c(nc(c3c(c(c(c(c23)[H])[H])[H])[H])[H])[H])C(=O)[C@]21C(N(C(c1c(c(nc(n1)[H])[H])[H])([H])[H])C(=O)c1c(c(c(F)c(c21)[H])[H])[H])([H])[H])([H])[H])[H])([H])([H])[H]

>  <h>  (59) 
<NA>

>  <Training>  (59) 
True

>  <Success>  (59) 
True

>  <enamine_searched>  (59) 
False

>  <enamine_id>  (59) 
nan

$$$$

     RDKit          3D

 60 65  0  0  0  0  0  0  0  0999 V2000
    7.3776   -4.7341   23.8015 C   0  0  0  0  0  0  0  0  0  0  0  0
    6.5838   -3.7259   23.2220 O   0  0  0  0  0  0  0  0  0  0  0  0
    7.0088   -2.4129   23.5264 C   0  0  0  0  0  0  0  0  0  0  0  0
    7.9268   -1.8487   22.4184 C   0  0  1  0  0  0  0  0  0  0  0  0
    7.1580   -1.7869   21.0794 C   0  0  0  0  0  0  0  0  0  0  0  0
    6.8863   -0.3795   20.8741 N   0  0  0  0  0  0  0  0  0  0  0  0
    6.1283    0.1049   19.7788 C   0  0  0  0  0  0  0  0  0  0  0  0
    6.4432   -0.2263   18.4829 C   0  0  0  0  0  0  0  0  0  0  0  0
    5.7727    0.2215   17.3914 N   0  0  0  0  0  0  0  0  0  0  0  0
    4.7497    1.0166   17.5960 C   0  0  0  0  0  0  0  0  0  0  0  0
    4.2946    1.4184   18.8845 C   0  0  0  0  0  0  0  0  0  0  0  0
    3.1674    2.2683   19.0561 C   0  0  0  0  0  0  0  0  0  0  0  0
    2.7385    2.6054   20.3096 C   0  0  0  0  0  0  0  0  0  0  0  0
    3.4090    2.1039   21.4458 C   0  0  0  0  0  0  0  0  0  0  0  0
    4.5016    1.2889   21.3077 C   0  0  0  0  0  0  0  0  0  0  0  0
    4.9890    0.9398   20.0172 C   0  0  0  0  0  0  0  0  0  0  0  0
    5.0070    0.9057   22.1870 H   0  0  0  0  0  0  0  0  0  0  0  0
    3.0719    2.3892   22.4402 H   0  0  0  0  0  0  0  0  0  0  0  0
    1.8881    3.2701   20.4425 H   0  0  0  0  0  0  0  0  0  0  0  0
    2.6639    2.6427   18.1680 H   0  0  0  0  0  0  0  0  0  0  0  0
    4.2235    1.3801   16.7139 H   0  0  0  0  0  0  0  0  0  0  0  0
    7.2937   -0.8717   18.2621 H   0  0  0  0  0  0  0  0  0  0  0  0
    7.6863    0.4521   21.6345 C   0  0  0  0  0  0  0  0  0  0  0  0
    7.7641    1.6513   21.4810 O   0  0  0  0  0  0  0  0  0  0  0  0
    8.4916   -0.4066   22.6442 C   0  0  1  0  0  0  0  0  0  0  0  0
    8.2925    0.0899   24.1003 C   0  0  0  0  0  0  0  0  0  0  0  0
    8.8941    1.3889   24.3402 N   0  0  0  0  0  0  0  0  0  0  0  0
    8.1395    2.4149   25.0387 C   0  0  0  0  0  0  0  0  0  0  0  0
    7.4371    3.3650   24.1020 C   0  0  0  0  0  0  0  0  0  0  0  0
    6.1734    3.2894   23.7467 N   0  0  0  0  0  0  0  0  0  0  0  0
    5.9881    4.3171   22.8527 C   0  0  0  0  0  0  0  0  0  0  0  0
    7.1484    5.0258   22.6850 C   0  0  0  0  0  0  0  0  0  0  0  0
    8.0706    4.4046   23.5013 N   0  0  0  0  0  0  0  0  0  0  0  0
    9.0531    4.6295   23.6103 H   0  0  0  0  0  0  0  0  0  0  0  0
    7.4066    5.8624   22.0519 H   0  0  0  0  0  0  0  0  0  0  0  0
    5.0237    4.4329   22.3613 H   0  0  0  0  0  0  0  0  0  0  0  0
    8.8534    2.9491   25.6689 H   0  0  0  0  0  0  0  0  0  0  0  0
    7.3963    1.9196   25.6651 H   0  0  0  0  0  0  0  0  0  0  0  0
   10.1444    1.7074   23.9119 C   0  0  0  0  0  0  0  0  0  0  0  0
   10.7061    2.7422   24.2691 O   0  0  0  0  0  0  0  0  0  0  0  0
   10.7486    0.7504   22.9308 C   0  0  0  0  0  0  0  0  0  0  0  0
   12.0839    0.9435   22.5815 C   0  0  0  0  0  0  0  0  0  0  0  0
   12.6629    0.1284   21.6327 C   0  0  0  0  0  0  0  0  0  0  0  0
   11.9163   -0.8793   21.0293 C   0  0  0  0  0  0  0  0  0  0  0  0
   12.7672   -1.9015   19.9105 Cl  0  0  0  0  0  0  0  0  0  0  0  0
   10.5698   -1.0415   21.3165 C   0  0  0  0  0  0  0  0  0  0  0  0
    9.9809   -0.2546   22.3170 C   0  0  0  0  0  0  0  0  0  0  0  0
    9.9732   -1.7422   20.7422 H   0  0  0  0  0  0  0  0  0  0  0  0
   13.6861    0.2586   21.3100 H   0  0  0  0  0  0  0  0  0  0  0  0
   12.6391    1.7391   23.0736 H   0  0  0  0  0  0  0  0  0  0  0  0
    7.2271    0.2041   24.3087 H   0  0  0  0  0  0  0  0  0  0  0  0
    8.7342   -0.6626   24.7758 H   0  0  0  0  0  0  0  0  0  0  0  0
    7.7656   -2.1777   20.2600 H   0  0  0  0  0  0  0  0  0  0  0  0
    6.2242   -2.3568   21.1212 H   0  0  0  0  0  0  0  0  0  0  0  0
    8.7600   -2.5581   22.3539 H   0  0  0  0  0  0  0  0  0  0  0  0
    6.1033   -1.7975   23.6135 H   0  0  0  0  0  0  0  0  0  0  0  0
    7.5219   -2.4165   24.4986 H   0  0  0  0  0  0  0  0  0  0  0  0
    8.4438   -4.6257   23.5501 H   0  0  0  0  0  0  0  0  0  0  0  0
    7.2888   -4.7476   24.8995 H   0  0  0  0  0  0  0  0  0  0  0  0
    7.0141   -5.6848   23.4048 H   0  0  0  0  0  0  0  0  0  0  0  0
  1  2  1  0
  2  3  1  0
  3  4  1  0
  4  5  1  0
  5  6  1  0
  6  7  1  0
  7  8  2  0
  8  9  1  0
  9 10  2  0
 10 11  1  0
 11 12  2  0
 12 13  1  0
 13 14  2  0
 14 15  1  0
 15 16  2  0
 15 17  1  0
 14 18  1  0
 13 19  1  0
 12 20  1  0
 10 21  1  0
  8 22  1  0
  6 23  1  0
 23 24  2  0
 23 25  1  0
 25 26  1  1
 26 27  1  0
 27 28  1  0
 28 29  1  0
 29 30  2  0
 30 31  1  0
 31 32  2  0
 32 33  1  0
 33 34  1  0
 32 35  1  0
 31 36  1  0
 28 37  1  0
 28 38  1  0
 27 39  1  0
 39 40  2  0
 39 41  1  0
 41 42  2  0
 42 43  1  0
 43 44  2  0
 44 45  1  0
 44 46  1  0
 46 47  2  0
 46 48  1  0
 43 49  1  0
 42 50  1  0
 26 51  1  0
 26 52  1  0
  5 53  1  0
  5 54  1  0
  4 55  1  6
  3 56  1  0
  3 57  1  0
  1 58  1  0
  1 59  1  0
  1 60  1  0
 25  4  1  0
 33 29  1  0
 47 41  1  0
 16  7  1  0
 47 25  1  0
 16 11  1  0
M  END
>  <cnnaffinities>  (60) 
[6.96407, 6.84136]

>  <score>  (60) 
6.96407

>  <index>  (60) 
59

>  <Smiles>  (60) 
C(OC([C@]1(C(N(c2c(nc(c3c(c(c(c(c23)[H])[H])[H])[H])[H])[H])C(=O)[C@]21C(N(C(c1nc(c(n1[H])[H])[H])([H])[H])C(=O)c1c(c(c(Cl)c(c21)[H])[H])[H])([H])[H])([H])[H])[H])([H])[H])([H])([H])[H]

>  <h>  (60) 
<NA>

>  <Training>  (60) 
True

>  <Success>  (60) 
True

>  <enamine_searched>  (60) 
False

>  <enamine_id>  (60) 
nan

$$$$

     RDKit          3D

 38 41  0  0  0  0  0  0  0  0999 V2000
    8.6083    1.2621   20.7255 O   0  0  0  0  0  0  0  0  0  0  0  0
    7.8629    0.6687   21.4841 C   0  0  0  0  0  0  0  0  0  0  0  0
    6.9466   -0.4395   20.9176 C   0  0  0  0  0  0  0  0  0  0  0  0
    6.1083    0.0830   19.7657 C   0  0  0  0  0  0  0  0  0  0  0  0
    6.4266   -0.2078   18.4626 C   0  0  0  0  0  0  0  0  0  0  0  0
    5.7609    0.2423   17.3623 N   0  0  0  0  0  0  0  0  0  0  0  0
    4.7332    1.0280   17.5747 C   0  0  0  0  0  0  0  0  0  0  0  0
    4.2853    1.4230   18.8667 C   0  0  0  0  0  0  0  0  0  0  0  0
    3.1699    2.2833   19.0423 C   0  0  0  0  0  0  0  0  0  0  0  0
    2.7654    2.6487   20.2982 C   0  0  0  0  0  0  0  0  0  0  0  0
    3.4614    2.1696   21.4301 C   0  0  0  0  0  0  0  0  0  0  0  0
    4.5445    1.3361   21.2868 C   0  0  0  0  0  0  0  0  0  0  0  0
    4.9886    0.9404   19.9955 C   0  0  0  0  0  0  0  0  0  0  0  0
    5.0714    0.9877   22.1707 H   0  0  0  0  0  0  0  0  0  0  0  0
    3.1355    2.4676   22.4214 H   0  0  0  0  0  0  0  0  0  0  0  0
    1.9140    3.3104   20.4341 H   0  0  0  0  0  0  0  0  0  0  0  0
    2.6460    2.6508   18.1627 H   0  0  0  0  0  0  0  0  0  0  0  0
    4.1982    1.3990   16.6988 H   0  0  0  0  0  0  0  0  0  0  0  0
    7.2741   -0.8571   18.2461 H   0  0  0  0  0  0  0  0  0  0  0  0
    6.3028   -0.8997   21.6747 H   0  0  0  0  0  0  0  0  0  0  0  0
    7.6004   -1.2311   20.5330 H   0  0  0  0  0  0  0  0  0  0  0  0
    7.7612    1.0120   22.8221 N   0  0  0  0  0  0  0  0  0  0  0  0
    8.3089    2.3210   23.2109 C   0  0  0  0  0  0  0  0  0  0  0  0
    7.6733    2.8478   24.4956 C   0  0  0  0  0  0  0  0  0  0  0  0
    7.7414    1.7987   25.5562 C   0  0  0  0  0  0  0  0  0  0  0  0
    7.8246    2.0699   27.2633 S   0  0  0  0  0  0  0  0  0  0  0  0
    7.7821    0.3714   27.5677 C   0  0  0  0  0  0  0  0  0  0  0  0
    7.7157   -0.3551   26.4155 C   0  0  0  0  0  0  0  0  0  0  0  0
    7.6944    0.4769   25.2549 C   0  0  0  0  0  0  0  0  0  0  0  0
    7.5150   -0.0073   23.8408 C   0  0  0  0  0  0  0  0  0  0  0  0
    8.1599   -0.8838   23.6964 H   0  0  0  0  0  0  0  0  0  0  0  0
    6.4907   -0.3919   23.7493 H   0  0  0  0  0  0  0  0  0  0  0  0
    7.6709   -1.4415   26.3968 H   0  0  0  0  0  0  0  0  0  0  0  0
    7.8333    0.0034   28.5845 H   0  0  0  0  0  0  0  0  0  0  0  0
    8.1616    3.7700   24.8198 H   0  0  0  0  0  0  0  0  0  0  0  0
    6.6216    3.1047   24.3142 H   0  0  0  0  0  0  0  0  0  0  0  0
    9.3975    2.2732   23.3361 H   0  0  0  0  0  0  0  0  0  0  0  0
    8.1181    3.0174   22.3926 H   0  0  0  0  0  0  0  0  0  0  0  0
  1  2  2  0
  2  3  1  0
  3  4  1  0
  4  5  2  0
  5  6  1  0
  6  7  2  0
  7  8  1  0
  8  9  2  0
  9 10  1  0
 10 11  2  0
 11 12  1  0
 12 13  2  0
 12 14  1  0
 11 15  1  0
 10 16  1  0
  9 17  1  0
  7 18  1  0
  5 19  1  0
  3 20  1  0
  3 21  1  0
  2 22  1  0
 22 23  1  0
 23 24  1  0
 24 25  1  0
 25 26  1  0
 26 27  1  0
 27 28  2  0
 28 29  1  0
 29 30  1  0
 30 31  1  0
 30 32  1  0
 28 33  1  0
 27 34  1  0
 24 35  1  0
 24 36  1  0
 23 37  1  0
 23 38  1  0
 13  4  1  0
 30 22  1  0
 13  8  1  0
 29 25  2  0
M  END
>  <cnnaffinities>  (61) 
[4.90466, 5.20412]

>  <score>  (61) 
4.90466

>  <index>  (61) 
60

>  <Smiles>  (61) 
O=C(C(c1c(nc(c2c(c(c(c(c12)[H])[H])[H])[H])[H])[H])([H])[H])N1C(C(c2sc(c(c2C1([H])[H])[H])[H])([H])[H])([H])[H]

>  <h>  (61) 
<NA>

>  <Training>  (61) 
True

>  <Success>  (61) 
True

>  <enamine_searched>  (61) 
False

>  <enamine_id>  (61) 
nan

$$$$

     RDKit          3D

 64 70  0  0  0  0  0  0  0  0999 V2000
    9.3336    2.6734   25.3966 O   0  0  0  0  0  0  0  0  0  0  0  0
    9.0391    1.6880   24.7333 C   0  0  0  0  0  0  0  0  0  0  0  0
   10.0535    0.8302   24.0376 C   0  0  0  0  0  0  0  0  0  0  0  0
   11.3933    1.1216   24.2531 C   0  0  0  0  0  0  0  0  0  0  0  0
   12.3747    0.6145   23.4287 C   0  0  0  0  0  0  0  0  0  0  0  0
   11.9684   -0.1644   22.3399 C   0  0  0  0  0  0  0  0  0  0  0  0
   13.0961   -0.4907   21.0599 Cl  0  0  0  0  0  0  0  0  0  0  0  0
   10.6535   -0.5733   22.1900 C   0  0  0  0  0  0  0  0  0  0  0  0
    9.6714   -0.1037   23.0687 C   0  0  0  0  0  0  0  0  0  0  0  0
    8.2108   -0.4252   22.8346 C   0  0  1  0  0  0  0  0  0  0  0  0
    7.4215   -0.0176   24.1019 C   0  0  0  0  0  0  0  0  0  0  0  0
    7.7434    1.3310   24.4997 N   0  0  0  0  0  0  0  0  0  0  0  0
    6.6738    2.2649   24.7823 C   0  0  0  0  0  0  0  0  0  0  0  0
    5.8630    1.8888   26.0058 C   0  0  0  0  0  0  0  0  0  0  0  0
    6.3563    2.0830   27.2808 C   0  0  0  0  0  0  0  0  0  0  0  0
    5.5649    1.6543   28.3449 C   0  0  0  0  0  0  0  0  0  0  0  0
    4.3753    1.0783   28.1951 N   0  0  0  0  0  0  0  0  0  0  0  0
    3.8907    0.8936   26.9768 N   0  0  0  0  0  0  0  0  0  0  0  0
    4.6033    1.2829   25.9233 C   0  0  0  0  0  0  0  0  0  0  0  0
    4.1246    1.0929   24.9640 H   0  0  0  0  0  0  0  0  0  0  0  0
    5.8878    1.7735   29.3773 H   0  0  0  0  0  0  0  0  0  0  0  0
    7.3266    2.5525   27.4416 H   0  0  0  0  0  0  0  0  0  0  0  0
    7.1602    3.2331   24.9281 H   0  0  0  0  0  0  0  0  0  0  0  0
    6.0268    2.3184   23.8923 H   0  0  0  0  0  0  0  0  0  0  0  0
    7.6606   -0.7032   24.9292 H   0  0  0  0  0  0  0  0  0  0  0  0
    6.3426   -0.0586   23.9221 H   0  0  0  0  0  0  0  0  0  0  0  0
    7.6874    0.4012   21.6367 C   0  0  0  0  0  0  0  0  0  0  0  0
    7.8651    1.5802   21.4239 O   0  0  0  0  0  0  0  0  0  0  0  0
    6.9198   -0.4185   20.8363 N   0  0  0  0  0  0  0  0  0  0  0  0
    6.1401    0.1014   19.7706 C   0  0  0  0  0  0  0  0  0  0  0  0
    6.4455   -0.2285   18.4742 C   0  0  0  0  0  0  0  0  0  0  0  0
    5.7702    0.2199   17.3858 N   0  0  0  0  0  0  0  0  0  0  0  0
    4.7491    1.0160   17.5957 C   0  0  0  0  0  0  0  0  0  0  0  0
    4.3018    1.4174   18.8867 C   0  0  0  0  0  0  0  0  0  0  0  0
    3.1761    2.2680   19.0603 C   0  0  0  0  0  0  0  0  0  0  0  0
    2.7502    2.6140   20.3143 C   0  0  0  0  0  0  0  0  0  0  0  0
    3.4269    2.1174   21.4517 C   0  0  0  0  0  0  0  0  0  0  0  0
    4.5190    1.2979   21.3093 C   0  0  0  0  0  0  0  0  0  0  0  0
    5.0031    0.9400   20.0174 C   0  0  0  0  0  0  0  0  0  0  0  0
    5.0300    0.9122   22.1865 H   0  0  0  0  0  0  0  0  0  0  0  0
    3.0821    2.3998   22.4426 H   0  0  0  0  0  0  0  0  0  0  0  0
    1.8966    3.2741   20.4412 H   0  0  0  0  0  0  0  0  0  0  0  0
    2.6668    2.6392   18.1742 H   0  0  0  0  0  0  0  0  0  0  0  0
    4.2184    1.3812   16.7164 H   0  0  0  0  0  0  0  0  0  0  0  0
    7.2918   -0.8820   18.2654 H   0  0  0  0  0  0  0  0  0  0  0  0
    6.7869   -1.7708   21.3359 C   0  0  0  0  0  0  0  0  0  0  0  0
    7.9097   -1.8799   22.3803 C   0  0  2  0  0  0  0  0  0  0  0  0
    7.5815   -2.9054   23.4829 C   0  0  0  0  0  0  0  0  0  0  0  0
    7.4896   -4.2578   22.9634 N   0  0  0  0  0  0  0  0  0  0  0  0
    6.3126   -4.8444   22.6446 C   0  0  0  0  0  0  0  0  0  0  0  0
    5.1320   -4.3244   22.8633 N   0  0  0  0  0  0  0  0  0  0  0  0
    4.1151   -5.1520   22.4649 N   0  0  0  0  0  0  0  0  0  0  0  0
    4.5365   -6.2574   21.9551 C   0  0  0  0  0  0  0  0  0  0  0  0
    6.2616   -6.4143   21.8786 S   0  0  0  0  0  0  0  0  0  0  0  0
    3.8721   -7.0333   21.5948 H   0  0  0  0  0  0  0  0  0  0  0  0
    8.3462   -4.7394   22.7358 H   0  0  0  0  0  0  0  0  0  0  0  0
    6.6234   -2.6694   23.9623 H   0  0  0  0  0  0  0  0  0  0  0  0
    8.3666   -2.8964   24.2477 H   0  0  0  0  0  0  0  0  0  0  0  0
    8.8169   -2.2272   21.8793 H   0  0  0  0  0  0  0  0  0  0  0  0
    5.8040   -1.9407   21.8022 H   0  0  0  0  0  0  0  0  0  0  0  0
    6.8848   -2.4943   20.5212 H   0  0  0  0  0  0  0  0  0  0  0  0
   10.3999   -1.2465   21.3733 H   0  0  0  0  0  0  0  0  0  0  0  0
   13.4277    0.8292   23.5915 H   0  0  0  0  0  0  0  0  0  0  0  0
   11.5945    1.8232   25.0402 H   0  0  0  0  0  0  0  0  0  0  0  0
  1  2  2  0
  2  3  1  0
  3  4  2  0
  4  5  1  0
  5  6  2  0
  6  7  1  0
  6  8  1  0
  8  9  2  0
  9 10  1  0
 10 11  1  1
 11 12  1  0
 12 13  1  0
 13 14  1  0
 14 15  2  0
 15 16  1  0
 16 17  2  0
 17 18  1  0
 18 19  2  0
 19 20  1  0
 16 21  1  0
 15 22  1  0
 13 23  1  0
 13 24  1  0
 11 25  1  0
 11 26  1  0
 10 27  1  0
 27 28  2  0
 27 29  1  0
 29 30  1  0
 30 31  2  0
 31 32  1  0
 32 33  2  0
 33 34  1  0
 34 35  2  0
 35 36  1  0
 36 37  2  0
 37 38  1  0
 38 39  2  0
 38 40  1  0
 37 41  1  0
 36 42  1  0
 35 43  1  0
 33 44  1  0
 31 45  1  0
 29 46  1  0
 46 47  1  0
 47 48  1  0
 48 49  1  0
 49 50  1  0
 50 51  2  0
 51 52  1  0
 52 53  2  0
 53 54  1  0
 53 55  1  0
 49 56  1  0
 48 57  1  0
 48 58  1  0
 47 59  1  6
 46 60  1  0
 46 61  1  0
  8 62  1  0
  5 63  1  0
  4 64  1  0
 12  2  1  0
 19 14  1  0
 39 30  1  0
 54 50  1  0
  9  3  1  0
 47 10  1  0
 39 34  1  0
M  END
>  <cnnaffinities>  (62) 
[7.16877, 7.45856, 7.13708]

>  <score>  (62) 
7.16877

>  <index>  (62) 
61

>  <Smiles>  (62) 
O=C1c2c(c(c(Cl)c(c2[C@@]2(C(N1C(c1c(c(nnc1[H])[H])[H])([H])[H])([H])[H])C(=O)N(c1c(nc(c3c(c(c(c(c13)[H])[H])[H])[H])[H])[H])C([C@@]2(C(N(c1nnc(s1)[H])[H])([H])[H])[H])([H])[H])[H])[H])[H]

>  <h>  (62) 
<NA>

>  <Training>  (62) 
True

>  <Success>  (62) 
True

>  <enamine_searched>  (62) 
False

>  <enamine_id>  (62) 
nan

$$$$

     RDKit          3D

 70 76  0  0  0  0  0  0  0  0999 V2000
    8.2122   -2.8910   23.1940 C   0  0  0  0  0  0  0  0  0  0  0  0
    8.3152   -1.8350   22.0879 C   0  0  1  0  0  0  0  0  0  0  0  0
    7.0330   -1.7491   21.2345 C   0  0  0  0  0  0  0  0  0  0  0  0
    6.9718   -0.3632   20.8223 N   0  0  0  0  0  0  0  0  0  0  0  0
    6.1550    0.1126   19.7639 C   0  0  0  0  0  0  0  0  0  0  0  0
    6.4494   -0.2226   18.4635 C   0  0  0  0  0  0  0  0  0  0  0  0
    5.7680    0.2191   17.3789 N   0  0  0  0  0  0  0  0  0  0  0  0
    4.7471    1.0155   17.5953 C   0  0  0  0  0  0  0  0  0  0  0  0
    4.3071    1.4175   18.8902 C   0  0  0  0  0  0  0  0  0  0  0  0
    3.1832    2.2714   19.0609 C   0  0  0  0  0  0  0  0  0  0  0  0
    2.7619    2.6175   20.3174 C   0  0  0  0  0  0  0  0  0  0  0  0
    3.4359    2.1222   21.4537 C   0  0  0  0  0  0  0  0  0  0  0  0
    4.5266    1.2948   21.3120 C   0  0  0  0  0  0  0  0  0  0  0  0
    5.0119    0.9397   20.0189 C   0  0  0  0  0  0  0  0  0  0  0  0
    5.0331    0.9104   22.1907 H   0  0  0  0  0  0  0  0  0  0  0  0
    3.1040    2.4136   22.4471 H   0  0  0  0  0  0  0  0  0  0  0  0
    1.9102    3.2834   20.4339 H   0  0  0  0  0  0  0  0  0  0  0  0
    2.6797    2.6446   18.1743 H   0  0  0  0  0  0  0  0  0  0  0  0
    4.2146    1.3816   16.7183 H   0  0  0  0  0  0  0  0  0  0  0  0
    7.2949   -0.8741   18.2487 H   0  0  0  0  0  0  0  0  0  0  0  0
    7.8353    0.4680   21.4961 C   0  0  0  0  0  0  0  0  0  0  0  0
    7.9163    1.6635   21.2916 O   0  0  0  0  0  0  0  0  0  0  0  0
    8.6274   -0.3684   22.5347 C   0  0  1  0  0  0  0  0  0  0  0  0
    8.0934   -0.0824   23.9605 C   0  0  0  0  0  0  0  0  0  0  0  0
    8.4271    1.2476   24.4274 N   0  0  0  0  0  0  0  0  0  0  0  0
    7.4173    2.0687   25.0721 C   0  0  0  0  0  0  0  0  0  0  0  0
    6.8187    3.0696   24.0826 C   0  0  0  0  0  0  0  0  0  0  0  0
    5.7538    3.9268   24.6871 N   0  0  2  0  0  4  0  0  0  0  0  0
    4.5281    3.1750   25.1824 C   0  0  0  0  0  0  0  0  0  0  0  0
    3.3735    4.1785   25.1382 C   0  0  0  0  0  0  0  0  0  0  0  0
    3.7643    5.2468   24.1102 C   0  0  0  0  0  0  0  0  0  0  0  0
    2.8118    5.4873   22.9222 C   0  0  0  0  0  0  0  0  0  0  0  0
    2.5421    6.8316   23.3323 O   0  0  0  0  0  0  0  0  0  0  0  0
    3.4127    6.7085   24.4624 C   0  0  0  0  0  0  0  0  0  0  0  0
    2.8748    6.8539   25.4093 H   0  0  0  0  0  0  0  0  0  0  0  0
    4.2451    7.4252   24.4157 H   0  0  0  0  0  0  0  0  0  0  0  0
    1.9022    4.8699   22.9120 H   0  0  0  0  0  0  0  0  0  0  0  0
    3.2799    5.4431   21.9265 H   0  0  0  0  0  0  0  0  0  0  0  0
    5.2210    4.9638   23.7307 C   0  0  0  0  0  0  0  0  0  0  0  0
    5.8527    5.8557   23.7746 H   0  0  0  0  0  0  0  0  0  0  0  0
    5.2960    4.5388   22.7217 H   0  0  0  0  0  0  0  0  0  0  0  0
    3.2256    4.6452   26.1192 H   0  0  0  0  0  0  0  0  0  0  0  0
    2.4296    3.6892   24.8737 H   0  0  0  0  0  0  0  0  0  0  0  0
    4.3679    2.3304   24.5065 H   0  0  0  0  0  0  0  0  0  0  0  0
    4.7122    2.7820   26.1824 H   0  0  0  0  0  0  0  0  0  0  0  0
    6.1791    4.4288   25.4973 H   0  0  0  0  0  0  0  0  0  0  0  0
    7.6176    3.7052   23.6817 H   0  0  0  0  0  0  0  0  0  0  0  0
    6.3867    2.5219   23.2345 H   0  0  0  0  0  0  0  0  0  0  0  0
    7.8957    2.5870   25.9087 H   0  0  0  0  0  0  0  0  0  0  0  0
    6.6422    1.3977   25.4605 H   0  0  0  0  0  0  0  0  0  0  0  0
    9.6965    1.7300   24.3297 C   0  0  0  0  0  0  0  0  0  0  0  0
   10.0837    2.7086   24.9634 O   0  0  0  0  0  0  0  0  0  0  0  0
   10.5944    1.0100   23.3689 C   0  0  0  0  0  0  0  0  0  0  0  0
   11.9272    1.4136   23.3098 C   0  0  0  0  0  0  0  0  0  0  0  0
   12.7918    0.8292   22.4076 C   0  0  0  0  0  0  0  0  0  0  0  0
   12.3034   -0.1586   21.5545 C   0  0  0  0  0  0  0  0  0  0  0  0
   13.3715   -0.7995   20.3359 Cl  0  0  0  0  0  0  0  0  0  0  0  0
   10.9739   -0.5451   21.5713 C   0  0  0  0  0  0  0  0  0  0  0  0
   10.0994    0.0112   22.5160 C   0  0  0  0  0  0  0  0  0  0  0  0
   10.6116   -1.1651   20.7554 H   0  0  0  0  0  0  0  0  0  0  0  0
   13.8048    1.1915   22.2803 H   0  0  0  0  0  0  0  0  0  0  0  0
   12.2582    2.1850   23.9953 H   0  0  0  0  0  0  0  0  0  0  0  0
    8.5166   -0.8403   24.6388 H   0  0  0  0  0  0  0  0  0  0  0  0
    7.0044   -0.1700   23.9532 H   0  0  0  0  0  0  0  0  0  0  0  0
    7.0582   -2.4010   20.3556 H   0  0  0  0  0  0  0  0  0  0  0  0
    6.1460   -2.0287   21.8216 H   0  0  0  0  0  0  0  0  0  0  0  0
    9.1341   -2.1171   21.4250 H   0  0  0  0  0  0  0  0  0  0  0  0
    7.3576   -2.6927   23.8529 H   0  0  0  0  0  0  0  0  0  0  0  0
    9.1130   -2.9292   23.8183 H   0  0  0  0  0  0  0  0  0  0  0  0
    8.0647   -3.8876   22.7646 H   0  0  0  0  0  0  0  0  0  0  0  0
  1  2  1  0
  2  3  1  0
  3  4  1  0
  4  5  1  0
  5  6  2  0
  6  7  1  0
  7  8  2  0
  8  9  1  0
  9 10  2  0
 10 11  1  0
 11 12  2  0
 12 13  1  0
 13 14  2  0
 13 15  1  0
 12 16  1  0
 11 17  1  0
 10 18  1  0
  8 19  1  0
  6 20  1  0
  4 21  1  0
 21 22  2  0
 21 23  1  0
 23 24  1  1
 24 25  1  0
 25 26  1  0
 26 27  1  0
 27 28  1  0
 28 29  1  0
 29 30  1  0
 30 31  1  0
 31 32  1  0
 32 33  1  0
 33 34  1  0
 34 35  1  0
 34 36  1  0
 32 37  1  0
 32 38  1  0
 31 39  1  0
 39 40  1  0
 39 41  1  0
 30 42  1  0
 30 43  1  0
 29 44  1  0
 29 45  1  0
 28 46  1  1
 27 47  1  0
 27 48  1  0
 26 49  1  0
 26 50  1  0
 25 51  1  0
 51 52  2  0
 51 53  1  0
 53 54  2  0
 54 55  1  0
 55 56  2  0
 56 57  1  0
 56 58  1  0
 58 59  2  0
 58 60  1  0
 55 61  1  0
 54 62  1  0
 24 63  1  0
 24 64  1  0
  3 65  1  0
  3 66  1  0
  2 67  1  6
  1 68  1  0
  1 69  1  0
  1 70  1  0
 23  2  1  0
 39 28  1  0
 59 53  1  0
 14  5  1  0
 59 23  1  0
 14  9  1  0
 34 31  1  0
M  CHG  1  28   1
M  END
>  <cnnaffinities>  (63) 
[6.51551, 6.41704, 6.76127, 6.60267]

>  <score>  (63) 
6.51551

>  <index>  (63) 
62

>  <Smiles>  (63) 
C([C@]1(C(N(c2c(nc(c3c(c(c(c(c23)[H])[H])[H])[H])[H])[H])C(=O)[C@]21C(N(C(C([N@@+]1(C(C(C3(C(OC3([H])[H])([H])[H])C1([H])[H])([H])[H])([H])[H])[H])([H])[H])([H])[H])C(=O)c1c(c(c(Cl)c(c21)[H])[H])[H])([H])[H])([H])[H])[H])([H])([H])[H]

>  <h>  (63) 
<NA>

>  <Training>  (63) 
True

>  <Success>  (63) 
True

>  <enamine_searched>  (63) 
False

>  <enamine_id>  (63) 
nan

$$$$

     RDKit          3D

 56 61  0  0  0  0  0  0  0  0999 V2000
    5.5677    4.8346   21.4520 C   0  0  0  0  0  0  0  0  0  0  0  0
    6.5796    4.5706   22.4604 N   0  0  0  0  0  0  0  0  0  0  0  0
    7.7848    5.1680   22.5692 C   0  0  0  0  0  0  0  0  0  0  0  0
    8.4628    4.5263   23.5772 C   0  0  0  0  0  0  0  0  0  0  0  0
    7.5825    3.5107   24.0089 C   0  0  0  0  0  0  0  0  0  0  0  0
    7.8892    2.4355   25.0252 C   0  0  0  0  0  0  0  0  0  0  0  0
    8.6633    1.3133   24.4831 N   0  0  0  0  0  0  0  0  0  0  0  0
    8.0003    0.0702   24.1480 C   0  0  0  0  0  0  0  0  0  0  0  0
    8.3647   -0.4399   22.7324 C   0  0  1  0  0  0  0  0  0  0  0  0
    7.7371   -1.8367   22.5251 C   0  0  0  0  0  0  0  0  0  0  0  0
    6.9850   -1.8152   21.1798 C   0  0  0  0  0  0  0  0  0  0  0  0
    6.8736   -0.4025   20.8745 N   0  0  0  0  0  0  0  0  0  0  0  0
    6.1290    0.1048   19.7779 C   0  0  0  0  0  0  0  0  0  0  0  0
    6.4466   -0.2266   18.4850 C   0  0  0  0  0  0  0  0  0  0  0  0
    5.7752    0.2210   17.3932 N   0  0  0  0  0  0  0  0  0  0  0  0
    4.7525    1.0163   17.5972 C   0  0  0  0  0  0  0  0  0  0  0  0
    4.2969    1.4239   18.8816 C   0  0  0  0  0  0  0  0  0  0  0  0
    3.1651    2.2671   19.0596 C   0  0  0  0  0  0  0  0  0  0  0  0
    2.7372    2.6055   20.3133 C   0  0  0  0  0  0  0  0  0  0  0  0
    3.4188    2.1162   21.4507 C   0  0  0  0  0  0  0  0  0  0  0  0
    4.5194    1.3113   21.3054 C   0  0  0  0  0  0  0  0  0  0  0  0
    5.0006    0.9527   20.0158 C   0  0  0  0  0  0  0  0  0  0  0  0
    5.0285    0.9372   22.1881 H   0  0  0  0  0  0  0  0  0  0  0  0
    3.0808    2.3916   22.4470 H   0  0  0  0  0  0  0  0  0  0  0  0
    1.8743    3.2531   20.4434 H   0  0  0  0  0  0  0  0  0  0  0  0
    2.6538    2.6349   18.1743 H   0  0  0  0  0  0  0  0  0  0  0  0
    4.2258    1.3784   16.7142 H   0  0  0  0  0  0  0  0  0  0  0  0
    7.2911   -0.8795   18.2659 H   0  0  0  0  0  0  0  0  0  0  0  0
    7.7079    0.4098   21.6116 C   0  0  0  0  0  0  0  0  0  0  0  0
    7.8959    1.5796   21.3760 O   0  0  0  0  0  0  0  0  0  0  0  0
    5.9845   -2.2614   21.2410 H   0  0  0  0  0  0  0  0  0  0  0  0
    7.5393   -2.3400   20.3979 H   0  0  0  0  0  0  0  0  0  0  0  0
    8.4932   -2.6251   22.5678 H   0  0  0  0  0  0  0  0  0  0  0  0
    7.0296   -2.0379   23.3369 H   0  0  0  0  0  0  0  0  0  0  0  0
    9.8680   -0.3846   22.5719 C   0  0  0  0  0  0  0  0  0  0  0  0
   10.4826   -1.1628   21.5844 C   0  0  0  0  0  0  0  0  0  0  0  0
   11.8477   -1.0752   21.3890 C   0  0  0  0  0  0  0  0  0  0  0  0
   12.6054   -2.0482   20.1612 Cl  0  0  0  0  0  0  0  0  0  0  0  0
   12.6285   -0.2102   22.1535 C   0  0  0  0  0  0  0  0  0  0  0  0
   12.0188    0.5891   23.1006 C   0  0  0  0  0  0  0  0  0  0  0  0
   10.6422    0.5175   23.3122 C   0  0  0  0  0  0  0  0  0  0  0  0
   10.0102    1.4787   24.2840 C   0  0  0  0  0  0  0  0  0  0  0  0
   10.6407    2.3781   24.8262 O   0  0  0  0  0  0  0  0  0  0  0  0
   12.5882    1.2963   23.6922 H   0  0  0  0  0  0  0  0  0  0  0  0
   13.6983   -0.1783   21.9877 H   0  0  0  0  0  0  0  0  0  0  0  0
    9.9125   -1.8353   20.9501 H   0  0  0  0  0  0  0  0  0  0  0  0
    8.2574   -0.7193   24.8759 H   0  0  0  0  0  0  0  0  0  0  0  0
    6.9227    0.2552   24.1819 H   0  0  0  0  0  0  0  0  0  0  0  0
    6.9559    2.0368   25.4431 H   0  0  0  0  0  0  0  0  0  0  0  0
    8.4847    2.8667   25.8354 H   0  0  0  0  0  0  0  0  0  0  0  0
    6.4282    3.5670   23.3479 N   0  0  0  0  0  0  0  0  0  0  0  0
    9.4553    4.7057   23.9631 H   0  0  0  0  0  0  0  0  0  0  0  0
    8.0593    5.9769   21.9031 H   0  0  0  0  0  0  0  0  0  0  0  0
    4.5847    4.7746   21.9259 H   0  0  0  0  0  0  0  0  0  0  0  0
    5.7334    5.8470   21.0665 H   0  0  0  0  0  0  0  0  0  0  0  0
    5.6134    4.1003   20.6344 H   0  0  0  0  0  0  0  0  0  0  0  0
  1  2  1  0
  2  3  1  0
  3  4  2  0
  4  5  1  0
  5  6  1  0
  6  7  1  0
  7  8  1  0
  9  8  1  1
  9 10  1  0
 10 11  1  0
 11 12  1  0
 12 13  1  0
 13 14  2  0
 14 15  1  0
 15 16  2  0
 16 17  1  0
 17 18  2  0
 18 19  1  0
 19 20  2  0
 20 21  1  0
 21 22  2  0
 21 23  1  0
 20 24  1  0
 19 25  1  0
 18 26  1  0
 16 27  1  0
 14 28  1  0
 12 29  1  0
 29 30  2  0
 11 31  1  0
 11 32  1  0
 10 33  1  0
 10 34  1  0
  9 35  1  0
 35 36  2  0
 36 37  1  0
 37 38  1  0
 37 39  2  0
 39 40  1  0
 40 41  2  0
 41 42  1  0
 42 43  2  0
 40 44  1  0
 39 45  1  0
 36 46  1  0
  8 47  1  0
  8 48  1  0
  6 49  1  0
  6 50  1  0
  5 51  2  0
  4 52  1  0
  3 53  1  0
  1 54  1  0
  1 55  1  0
  1 56  1  0
 51  2  1  0
 42  7  1  0
 29  9  1  0
 41 35  1  0
 22 13  1  0
 22 17  1  0
M  END
>  <cnnaffinities>  (64) 
[6.7073]

>  <score>  (64) 
6.7073

>  <index>  (64) 
63

>  <Smiles>  (64) 
C(n1c(c(c(C(N2C([C@]3(C(C(N(c4c(nc(c5c(c(c(c(c45)[H])[H])[H])[H])[H])[H])C3=O)([H])[H])([H])[H])c3c(c(Cl)c(c(c3C2=O)[H])[H])[H])([H])[H])([H])[H])n1)[H])[H])([H])([H])[H]

>  <h>  (64) 
<NA>

>  <Training>  (64) 
True

>  <Success>  (64) 
True

>  <enamine_searched>  (64) 
False

>  <enamine_id>  (64) 
nan

$$$$

     RDKit          3D

 66 71  0  0  0  0  0  0  0  0999 V2000
    7.1585   -2.4869   23.4342 C   0  0  0  0  0  0  0  0  0  0  0  0
    8.0329   -1.7846   22.3865 C   0  0  1  0  0  0  0  0  0  0  0  0
    7.3216   -1.7189   21.0153 C   0  0  0  0  0  0  0  0  0  0  0  0
    6.9291   -0.3308   20.8604 N   0  0  0  0  0  0  0  0  0  0  0  0
    6.1427    0.1196   19.7759 C   0  0  0  0  0  0  0  0  0  0  0  0
    6.4444   -0.2295   18.4816 C   0  0  0  0  0  0  0  0  0  0  0  0
    5.7716    0.2151   17.3901 N   0  0  0  0  0  0  0  0  0  0  0  0
    4.7524    1.0138   17.5987 C   0  0  0  0  0  0  0  0  0  0  0  0
    4.3035    1.4202   18.8879 C   0  0  0  0  0  0  0  0  0  0  0  0
    3.1812    2.2767   19.0570 C   0  0  0  0  0  0  0  0  0  0  0  0
    2.7538    2.6209   20.3104 C   0  0  0  0  0  0  0  0  0  0  0  0
    3.4198    2.1177   21.4514 C   0  0  0  0  0  0  0  0  0  0  0  0
    4.5096    1.2972   21.3120 C   0  0  0  0  0  0  0  0  0  0  0  0
    4.9988    0.9446   20.0205 C   0  0  0  0  0  0  0  0  0  0  0  0
    5.0151    0.9151   22.1922 H   0  0  0  0  0  0  0  0  0  0  0  0
    3.0781    2.4020   22.4431 H   0  0  0  0  0  0  0  0  0  0  0  0
    1.9053    3.2869   20.4365 H   0  0  0  0  0  0  0  0  0  0  0  0
    2.6783    2.6509   18.1679 H   0  0  0  0  0  0  0  0  0  0  0  0
    4.2231    1.3782   16.7181 H   0  0  0  0  0  0  0  0  0  0  0  0
    7.2942   -0.8772   18.2715 H   0  0  0  0  0  0  0  0  0  0  0  0
    7.6126    0.5243   21.6942 C   0  0  0  0  0  0  0  0  0  0  0  0
    7.5665    1.7437   21.6377 O   0  0  0  0  0  0  0  0  0  0  0  0
    8.4434   -0.3054   22.6999 C   0  0  1  0  0  0  0  0  0  0  0  0
    8.1192    0.1239   24.1468 C   0  0  0  0  0  0  0  0  0  0  0  0
    8.5770    1.4701   24.4386 N   0  0  0  0  0  0  0  0  0  0  0  0
    7.7466    2.2811   25.3084 C   0  0  0  0  0  0  0  0  0  0  0  0
    6.6853    3.0717   24.5438 C   0  0  0  0  0  0  0  0  0  0  0  0
    7.2710    4.1326   23.6709 N   0  0  0  0  0  4  0  0  0  0  0  0
    7.7912    5.3168   24.4644 C   0  0  0  0  0  0  0  0  0  0  0  0
    8.2657    6.4260   23.5372 C   0  0  0  0  0  0  0  0  0  0  0  0
    7.2428    6.8397   22.6573 O   0  0  0  0  0  0  0  0  0  0  0  0
    6.8300    5.7657   21.8404 C   0  0  0  0  0  0  0  0  0  0  0  0
    6.2580    4.6260   22.6635 C   0  0  0  0  0  0  0  0  0  0  0  0
    5.9986    3.7845   22.0198 H   0  0  0  0  0  0  0  0  0  0  0  0
    5.3613    4.9646   23.1997 H   0  0  0  0  0  0  0  0  0  0  0  0
    7.6819    5.3935   21.2555 H   0  0  0  0  0  0  0  0  0  0  0  0
    6.0781    6.1582   21.1512 H   0  0  0  0  0  0  0  0  0  0  0  0
    8.5547    7.3105   24.1125 H   0  0  0  0  0  0  0  0  0  0  0  0
    9.1431    6.0809   22.9644 H   0  0  0  0  0  0  0  0  0  0  0  0
    6.9746    5.6993   25.0929 H   0  0  0  0  0  0  0  0  0  0  0  0
    8.6112    4.9887   25.1035 H   0  0  0  0  0  0  0  0  0  0  0  0
    8.0395    3.6707   23.1383 H   0  0  0  0  0  0  0  0  0  0  0  0
    6.1104    2.3941   23.8970 H   0  0  0  0  0  0  0  0  0  0  0  0
    5.9869    3.5382   25.2533 H   0  0  0  0  0  0  0  0  0  0  0  0
    7.2416    1.6192   26.0188 H   0  0  0  0  0  0  0  0  0  0  0  0
    8.4087    2.9420   25.8647 H   0  0  0  0  0  0  0  0  0  0  0  0
    9.8389    1.8806   24.1193 C   0  0  0  0  0  0  0  0  0  0  0  0
   10.3405    2.9034   24.5803 O   0  0  0  0  0  0  0  0  0  0  0  0
   10.5725    1.0255   23.1252 C   0  0  0  0  0  0  0  0  0  0  0  0
   11.9087    1.3216   22.8471 C   0  0  0  0  0  0  0  0  0  0  0  0
   12.6189    0.5676   21.9283 C   0  0  0  0  0  0  0  0  0  0  0  0
   11.9824   -0.5005   21.2958 C   0  0  0  0  0  0  0  0  0  0  0  0
   12.8567   -1.4818   20.1556 Cl  0  0  0  0  0  0  0  0  0  0  0  0
   10.6398   -0.7582   21.5061 C   0  0  0  0  0  0  0  0  0  0  0  0
    9.9267   -0.0312   22.4672 C   0  0  0  0  0  0  0  0  0  0  0  0
   10.1536   -1.4766   20.8538 H   0  0  0  0  0  0  0  0  0  0  0  0
   13.6325    0.8345   21.6507 H   0  0  0  0  0  0  0  0  0  0  0  0
   12.3585    2.1733   23.3505 H   0  0  0  0  0  0  0  0  0  0  0  0
    7.0351    0.1016   24.2938 H   0  0  0  0  0  0  0  0  0  0  0  0
    8.5984   -0.6044   24.8219 H   0  0  0  0  0  0  0  0  0  0  0  0
    7.9971   -2.0132   20.2046 H   0  0  0  0  0  0  0  0  0  0  0  0
    6.4383   -2.3671   20.9824 H   0  0  0  0  0  0  0  0  0  0  0  0
    8.9474   -2.3817   22.3024 H   0  0  0  0  0  0  0  0  0  0  0  0
    6.2050   -1.9687   23.5831 H   0  0  0  0  0  0  0  0  0  0  0  0
    7.6685   -2.5688   24.3987 H   0  0  0  0  0  0  0  0  0  0  0  0
    6.9391   -3.5063   23.1043 H   0  0  0  0  0  0  0  0  0  0  0  0
  1  2  1  0
  2  3  1  0
  3  4  1  0
  4  5  1  0
  5  6  2  0
  6  7  1  0
  7  8  2  0
  8  9  1  0
  9 10  2  0
 10 11  1  0
 11 12  2  0
 12 13  1  0
 13 14  2  0
 13 15  1  0
 12 16  1  0
 11 17  1  0
 10 18  1  0
  8 19  1  0
  6 20  1  0
  4 21  1  0
 21 22  2  0
 21 23  1  0
 23 24  1  1
 24 25  1  0
 25 26  1  0
 26 27  1  0
 27 28  1  0
 28 29  1  0
 29 30  1  0
 30 31  1  0
 31 32  1  0
 32 33  1  0
 33 34  1  0
 33 35  1  0
 32 36  1  0
 32 37  1  0
 30 38  1  0
 30 39  1  0
 29 40  1  0
 29 41  1  0
 28 42  1  0
 27 43  1  0
 27 44  1  0
 26 45  1  0
 26 46  1  0
 25 47  1  0
 47 48  2  0
 47 49  1  0
 49 50  2  0
 50 51  1  0
 51 52  2  0
 52 53  1  0
 52 54  1  0
 54 55  2  0
 54 56  1  0
 51 57  1  0
 50 58  1  0
 24 59  1  0
 24 60  1  0
  3 61  1  0
  3 62  1  0
  2 63  1  6
  1 64  1  0
  1 65  1  0
  1 66  1  0
 23  2  1  0
 33 28  1  0
 55 49  1  0
 14  5  1  0
 55 23  1  0
 14  9  1  0
M  CHG  1  28   1
M  END
>  <cnnaffinities>  (65) 
[6.71849, 6.78497]

>  <score>  (65) 
6.71849

>  <index>  (65) 
64

>  <Smiles>  (65) 
C([C@]1(C(N(c2c(nc(c3c(c(c(c(c23)[H])[H])[H])[H])[H])[H])C(=O)[C@]21C(N(C(C([N+]1(C(C(OC(C1([H])[H])([H])[H])([H])[H])([H])[H])[H])([H])[H])([H])[H])C(=O)c1c(c(c(Cl)c(c21)[H])[H])[H])([H])[H])([H])[H])[H])([H])([H])[H]

>  <h>  (65) 
<NA>

>  <Training>  (65) 
True

>  <Success>  (65) 
True

>  <enamine_searched>  (65) 
False

>  <enamine_id>  (65) 
nan

$$$$

     RDKit          3D

 54 59  0  0  0  0  0  0  0  0999 V2000
    3.9763    1.2620   28.0997 C   0  0  0  0  0  0  0  0  0  0  0  0
    5.2045    1.3198   27.3355 N   0  0  0  0  0  0  0  0  0  0  0  0
    5.1200    1.5479   26.0009 C   0  0  0  0  0  0  0  0  0  0  0  0
    4.0794    1.8318   25.4264 O   0  0  0  0  0  0  0  0  0  0  0  0
    6.4615    1.4020   25.2867 C   0  0  0  0  0  0  0  0  0  0  0  0
    6.7978    0.0113   25.0931 N   0  0  0  0  0  0  0  0  0  0  0  0
    7.5137   -0.6997   26.0337 C   0  0  0  0  0  0  0  0  0  0  0  0
    7.8261   -0.2518   27.1308 O   0  0  0  0  0  0  0  0  0  0  0  0
    7.6421   -2.0806   25.4858 C   0  0  0  0  0  0  0  0  0  0  0  0
    8.1619   -3.1618   26.1519 C   0  0  0  0  0  0  0  0  0  0  0  0
    7.7821   -4.4606   25.7632 C   0  0  0  0  0  0  0  0  0  0  0  0
    6.8758   -4.6232   24.7578 C   0  0  0  0  0  0  0  0  0  0  0  0
    6.3773   -6.2101   24.2968 Cl  0  0  0  0  0  0  0  0  0  0  0  0
    6.1437   -3.5186   24.0893 C   0  0  0  0  0  0  0  0  0  0  0  0
    6.8609   -2.1887   24.2521 C   0  0  1  0  0  0  0  0  0  0  0  0
    6.2161   -0.8373   24.0960 C   0  0  2  0  0  0  0  0  0  0  0  0
    7.1119   -1.3462   22.9850 C   0  0  2  0  0  0  0  0  0  0  0  0
    6.3248   -1.4467   21.6861 C   0  0  0  0  0  0  0  0  0  0  0  0
    5.3239   -2.0912   21.4417 O   0  0  0  0  0  0  0  0  0  0  0  0
    6.8883   -0.5396   20.8007 N   0  0  0  0  0  0  0  0  0  0  0  0
    6.1131    0.0195   19.7481 C   0  0  0  0  0  0  0  0  0  0  0  0
    6.4503   -0.2481   18.4480 C   0  0  0  0  0  0  0  0  0  0  0  0
    5.7850    0.2285   17.3659 N   0  0  0  0  0  0  0  0  0  0  0  0
    4.7541    1.0057   17.5934 C   0  0  0  0  0  0  0  0  0  0  0  0
    4.3064    1.3795   18.8925 C   0  0  0  0  0  0  0  0  0  0  0  0
    3.1978    2.2479   19.0724 C   0  0  0  0  0  0  0  0  0  0  0  0
    2.8059    2.6177   20.3282 C   0  0  0  0  0  0  0  0  0  0  0  0
    3.5070    2.1475   21.4635 C   0  0  0  0  0  0  0  0  0  0  0  0
    4.5830    1.3070   21.3160 C   0  0  0  0  0  0  0  0  0  0  0  0
    5.0030    0.8871   20.0170 C   0  0  0  0  0  0  0  0  0  0  0  0
    5.1258    0.9649   22.1987 H   0  0  0  0  0  0  0  0  0  0  0  0
    3.1980    2.4656   22.4546 H   0  0  0  0  0  0  0  0  0  0  0  0
    1.9662    3.2941   20.4576 H   0  0  0  0  0  0  0  0  0  0  0  0
    2.6837    2.6197   18.1898 H   0  0  0  0  0  0  0  0  0  0  0  0
    4.2174    1.3914   16.7258 H   0  0  0  0  0  0  0  0  0  0  0  0
    7.3043   -0.8917   18.2490 H   0  0  0  0  0  0  0  0  0  0  0  0
    8.0949    0.1013   21.3075 C   0  0  0  0  0  0  0  0  0  0  0  0
    8.3597   -0.6623   22.5843 C   0  0  0  0  0  0  0  0  0  0  0  0
    9.5412   -0.6763   23.1906 C   0  0  0  0  0  0  0  0  0  0  0  0
   10.5542    0.0800   22.7245 F   0  0  0  0  0  0  0  0  0  0  0  0
    9.7898   -1.2728   24.0618 H   0  0  0  0  0  0  0  0  0  0  0  0
    8.9210    0.0390   20.5942 H   0  0  0  0  0  0  0  0  0  0  0  0
    7.9140    1.1604   21.5360 H   0  0  0  0  0  0  0  0  0  0  0  0
    5.1567   -0.7367   23.8649 H   0  0  0  0  0  0  0  0  0  0  0  0
    5.9901   -3.7403   23.0280 H   0  0  0  0  0  0  0  0  0  0  0  0
    5.1345   -3.4562   24.5386 H   0  0  0  0  0  0  0  0  0  0  0  0
    8.1432   -5.3163   26.3291 H   0  0  0  0  0  0  0  0  0  0  0  0
    8.8495   -3.0397   26.9729 H   0  0  0  0  0  0  0  0  0  0  0  0
    6.4345    1.8879   24.3109 H   0  0  0  0  0  0  0  0  0  0  0  0
    7.2473    1.8713   25.8852 H   0  0  0  0  0  0  0  0  0  0  0  0
    6.0631    0.9124   27.6945 H   0  0  0  0  0  0  0  0  0  0  0  0
    4.2120    1.0511   29.1445 H   0  0  0  0  0  0  0  0  0  0  0  0
    3.4616    2.2260   28.0287 H   0  0  0  0  0  0  0  0  0  0  0  0
    3.3100    0.4790   27.7121 H   0  0  0  0  0  0  0  0  0  0  0  0
  1  2  1  0
  2  3  1  0
  3  4  2  0
  3  5  1  0
  5  6  1  0
  6  7  1  0
  7  8  2  0
  7  9  1  0
  9 10  2  0
 10 11  1  0
 11 12  2  0
 12 13  1  0
 12 14  1  0
 15 14  1  6
 15 16  1  0
 16 17  1  0
 17 18  1  6
 18 19  2  0
 18 20  1  0
 20 21  1  0
 21 22  2  0
 22 23  1  0
 23 24  2  0
 24 25  1  0
 25 26  2  0
 26 27  1  0
 27 28  2  0
 28 29  1  0
 29 30  2  0
 29 31  1  0
 28 32  1  0
 27 33  1  0
 26 34  1  0
 24 35  1  0
 22 36  1  0
 20 37  1  0
 37 38  1  0
 38 39  2  0
 39 40  1  0
 39 41  1  0
 37 42  1  0
 37 43  1  0
 16 44  1  6
 14 45  1  0
 14 46  1  0
 11 47  1  0
 10 48  1  0
  5 49  1  0
  5 50  1  0
  2 51  1  0
  1 52  1  0
  1 53  1  0
  1 54  1  0
 16  6  1  0
 38 17  1  0
 15  9  1  0
 30 21  1  0
 17 15  1  0
 30 25  1  0
M  END
>  <cnnaffinities>  (66) 
[6.46281, 6.45853]

>  <score>  (66) 
6.46281

>  <index>  (66) 
65

>  <Smiles>  (66) 
C(N(C(=O)C(N1C(=O)C2=C(C(=C(Cl)C([C@]32[C@@]1([C@@]13C(=O)N(c2c(nc(c3c(c(c(c(c23)[H])[H])[H])[H])[H])[H])C(/C/1=C(\F)/[H])([H])[H])[H])([H])[H])[H])[H])([H])[H])[H])([H])([H])[H]

>  <h>  (66) 
<NA>

>  <Training>  (66) 
True

>  <Success>  (66) 
True

>  <enamine_searched>  (66) 
False

>  <enamine_id>  (66) 
nan

$$$$

     RDKit          3D

 47 50  0  0  0  0  0  0  0  0999 V2000
    5.4701   -2.4285   20.9107 O   0  0  0  0  0  0  0  0  0  0  0  0
    6.1391   -1.6674   21.5834 C   0  0  0  0  0  0  0  0  0  0  0  0
    6.9060   -0.5047   20.9139 C   0  0  0  0  0  0  0  0  0  0  0  0
    6.1173    0.0892   19.7655 C   0  0  0  0  0  0  0  0  0  0  0  0
    6.4229   -0.2146   18.4634 C   0  0  0  0  0  0  0  0  0  0  0  0
    5.7595    0.2389   17.3646 N   0  0  0  0  0  0  0  0  0  0  0  0
    4.7352    1.0288   17.5752 C   0  0  0  0  0  0  0  0  0  0  0  0
    4.2866    1.4211   18.8669 C   0  0  0  0  0  0  0  0  0  0  0  0
    3.1634    2.2710   19.0450 C   0  0  0  0  0  0  0  0  0  0  0  0
    2.7481    2.6216   20.3018 C   0  0  0  0  0  0  0  0  0  0  0  0
    3.4413    2.1374   21.4346 C   0  0  0  0  0  0  0  0  0  0  0  0
    4.5346    1.3182   21.2850 C   0  0  0  0  0  0  0  0  0  0  0  0
    4.9912    0.9375   19.9961 C   0  0  0  0  0  0  0  0  0  0  0  0
    5.0628    0.9624   22.1643 H   0  0  0  0  0  0  0  0  0  0  0  0
    3.1072    2.4232   22.4289 H   0  0  0  0  0  0  0  0  0  0  0  0
    1.8888    3.2745   20.4386 H   0  0  0  0  0  0  0  0  0  0  0  0
    2.6397    2.6411   18.1655 H   0  0  0  0  0  0  0  0  0  0  0  0
    4.1991    1.3983   16.6988 H   0  0  0  0  0  0  0  0  0  0  0  0
    7.2662   -0.8690   18.2439 H   0  0  0  0  0  0  0  0  0  0  0  0
    7.8533   -0.9034   20.5239 H   0  0  0  0  0  0  0  0  0  0  0  0
    7.1655    0.2747   21.6455 H   0  0  0  0  0  0  0  0  0  0  0  0
    6.1913   -1.7435   22.9677 N   0  0  0  0  0  0  0  0  0  0  0  0
    7.4457   -1.6672   23.7167 C   0  0  0  0  0  0  0  0  0  0  0  0
    7.2224   -1.0295   25.0780 C   0  0  0  0  0  0  0  0  0  0  0  0
    6.1365   -1.7602   25.8674 C   0  0  1  0  0  0  0  0  0  0  0  0
    5.8689   -1.1105   27.2364 C   0  0  0  0  0  0  0  0  0  0  0  0
    5.1176    0.2178   27.1449 C   0  0  0  0  0  0  0  0  0  0  0  0
    3.8566    0.0732   26.3197 C   0  0  0  0  0  0  0  0  0  0  0  0
    3.2388    1.2903   26.1837 F   0  0  0  0  0  0  0  0  0  0  0  0
    2.9657   -0.7125   27.0066 F   0  0  0  0  0  0  0  0  0  0  0  0
    4.0958   -0.5392   24.9538 C   0  0  0  0  0  0  0  0  0  0  0  0
    4.8401   -1.8782   25.0476 C   0  0  1  0  0  0  0  0  0  0  0  0
    5.1287   -2.4707   23.6629 C   0  0  0  0  0  0  0  0  0  0  0  0
    5.3643   -3.5421   23.7621 H   0  0  0  0  0  0  0  0  0  0  0  0
    4.2321   -2.4206   23.0427 H   0  0  0  0  0  0  0  0  0  0  0  0
    4.1698   -2.5637   25.5777 H   0  0  0  0  0  0  0  0  0  0  0  0
    4.6736    0.1792   24.3683 H   0  0  0  0  0  0  0  0  0  0  0  0
    3.1282   -0.6567   24.4534 H   0  0  0  0  0  0  0  0  0  0  0  0
    4.8539    0.5972   28.1376 H   0  0  0  0  0  0  0  0  0  0  0  0
    5.7353    0.9790   26.6627 H   0  0  0  0  0  0  0  0  0  0  0  0
    6.8170   -0.9547   27.7627 H   0  0  0  0  0  0  0  0  0  0  0  0
    5.2846   -1.7993   27.8561 H   0  0  0  0  0  0  0  0  0  0  0  0
    6.5063   -2.7792   26.0507 H   0  0  0  0  0  0  0  0  0  0  0  0
    6.9599    0.0218   24.9420 H   0  0  0  0  0  0  0  0  0  0  0  0
    8.1593   -1.0333   25.6458 H   0  0  0  0  0  0  0  0  0  0  0  0
    7.8836   -2.6690   23.8607 H   0  0  0  0  0  0  0  0  0  0  0  0
    8.1749   -1.0990   23.1376 H   0  0  0  0  0  0  0  0  0  0  0  0
  1  2  2  0
  2  3  1  0
  3  4  1  0
  4  5  2  0
  5  6  1  0
  6  7  2  0
  7  8  1  0
  8  9  2  0
  9 10  1  0
 10 11  2  0
 11 12  1  0
 12 13  2  0
 12 14  1  0
 11 15  1  0
 10 16  1  0
  9 17  1  0
  7 18  1  0
  5 19  1  0
  3 20  1  0
  3 21  1  0
  2 22  1  0
 22 23  1  0
 23 24  1  0
 24 25  1  0
 25 26  1  0
 26 27  1  0
 27 28  1  0
 28 29  1  0
 28 30  1  0
 28 31  1  0
 31 32  1  0
 32 33  1  0
 33 34  1  0
 33 35  1  0
 32 36  1  1
 31 37  1  0
 31 38  1  0
 27 39  1  0
 27 40  1  0
 26 41  1  0
 26 42  1  0
 25 43  1  1
 24 44  1  0
 24 45  1  0
 23 46  1  0
 23 47  1  0
 13  4  1  0
 33 22  1  0
 13  8  1  0
 32 25  1  0
M  END
>  <cnnaffinities>  (67) 
[5.6789, 5.67888, 5.54229, 5.54264]

>  <score>  (67) 
5.6789

>  <index>  (67) 
66

>  <Smiles>  (67) 
O=C(C(c1c(nc(c2c(c(c(c(c12)[H])[H])[H])[H])[H])[H])([H])[H])N1C(C([C@]2(C(C(C(F)(F)C([C@]2(C1([H])[H])[H])([H])[H])([H])[H])([H])[H])[H])([H])[H])([H])[H]

>  <h>  (67) 
<NA>

>  <Training>  (67) 
True

>  <Success>  (67) 
True

>  <enamine_searched>  (67) 
False

>  <enamine_id>  (67) 
nan

$$$$

     RDKit          3D

 69 74  0  0  0  0  0  0  0  0999 V2000
    6.6900    4.3172   21.2241 C   0  0  0  0  0  0  0  0  0  0  0  0
    7.0265    3.4186   22.3293 N   0  0  0  0  0  4  0  0  0  0  0  0
    8.1399    3.8624   23.2010 C   0  0  0  0  0  0  0  0  0  0  0  0
    8.3062    2.8803   24.3598 C   0  0  0  0  0  0  0  0  0  0  0  0
    8.8897    1.6248   23.9051 N   0  0  0  0  0  0  0  0  0  0  0  0
    8.1449    0.3819   23.8091 C   0  0  0  0  0  0  0  0  0  0  0  0
    8.5167   -0.4355   22.5398 C   0  0  2  0  0  0  0  0  0  0  0  0
    7.9149    0.2922   21.3221 C   0  0  0  0  0  0  0  0  0  0  0  0
    8.1666    1.4362   20.9476 O   0  0  0  0  0  0  0  0  0  0  0  0
    6.9147   -0.4623   20.7907 N   0  0  0  0  0  0  0  0  0  0  0  0
    6.1303    0.0805   19.7381 C   0  0  0  0  0  0  0  0  0  0  0  0
    6.4660   -0.2121   18.4423 C   0  0  0  0  0  0  0  0  0  0  0  0
    5.7828    0.2287   17.3588 N   0  0  0  0  0  0  0  0  0  0  0  0
    4.7547    1.0093   17.5879 C   0  0  0  0  0  0  0  0  0  0  0  0
    4.3285    1.4258   18.8823 C   0  0  0  0  0  0  0  0  0  0  0  0
    3.2201    2.2965   19.0622 C   0  0  0  0  0  0  0  0  0  0  0  0
    2.8335    2.6824   20.3161 C   0  0  0  0  0  0  0  0  0  0  0  0
    3.5344    2.2200   21.4514 C   0  0  0  0  0  0  0  0  0  0  0  0
    4.6143    1.3783   21.3039 C   0  0  0  0  0  0  0  0  0  0  0  0
    5.0388    0.9542   20.0101 C   0  0  0  0  0  0  0  0  0  0  0  0
    5.1324    1.0223   22.1917 H   0  0  0  0  0  0  0  0  0  0  0  0
    3.2161    2.5360   22.4424 H   0  0  0  0  0  0  0  0  0  0  0  0
    1.9834    3.3469   20.4444 H   0  0  0  0  0  0  0  0  0  0  0  0
    2.6957    2.6426   18.1751 H   0  0  0  0  0  0  0  0  0  0  0  0
    4.1986    1.3643   16.7195 H   0  0  0  0  0  0  0  0  0  0  0  0
    7.3330   -0.8401   18.2513 H   0  0  0  0  0  0  0  0  0  0  0  0
    6.4925   -1.5424   21.6671 C   0  0  0  0  0  0  0  0  0  0  0  0
    7.7644   -1.8002   22.4922 C   0  0  2  0  0  0  0  0  0  0  0  0
    7.4750   -2.4263   23.8502 C   0  0  0  0  0  0  0  0  0  0  0  0
    6.8444   -3.6753   23.6662 O   0  0  0  0  0  0  0  0  0  0  0  0
    6.5206   -4.2759   24.9007 C   0  0  0  0  0  0  0  0  0  0  0  0
    5.8426   -5.6121   24.7016 C   0  0  0  0  0  0  0  0  0  0  0  0
    5.4707   -6.1174   25.9283 F   0  0  0  0  0  0  0  0  0  0  0  0
    6.2935   -6.5730   23.6611 C   0  0  0  0  0  0  0  0  0  0  0  0
    4.9404   -5.9067   23.5607 C   0  0  0  0  0  0  0  0  0  0  0  0
    4.8027   -5.1296   22.8175 H   0  0  0  0  0  0  0  0  0  0  0  0
    4.0744   -6.5218   23.7800 H   0  0  0  0  0  0  0  0  0  0  0  0
    6.3154   -7.6241   23.9271 H   0  0  0  0  0  0  0  0  0  0  0  0
    7.0767   -6.2340   22.9912 H   0  0  0  0  0  0  0  0  0  0  0  0
    7.4286   -4.4284   25.5073 H   0  0  0  0  0  0  0  0  0  0  0  0
    5.8451   -3.6277   25.4810 H   0  0  0  0  0  0  0  0  0  0  0  0
    8.4166   -2.5481   24.4109 H   0  0  0  0  0  0  0  0  0  0  0  0
    6.8157   -1.7677   24.4422 H   0  0  0  0  0  0  0  0  0  0  0  0
    8.3678   -2.5088   21.9218 H   0  0  0  0  0  0  0  0  0  0  0  0
    5.6464   -1.2413   22.3030 H   0  0  0  0  0  0  0  0  0  0  0  0
    6.1707   -2.4089   21.0886 H   0  0  0  0  0  0  0  0  0  0  0  0
   10.0286   -0.5059   22.4146 C   0  0  0  0  0  0  0  0  0  0  0  0
   10.6524   -1.4463   21.5762 C   0  0  0  0  0  0  0  0  0  0  0  0
   11.9949   -1.3142   21.2763 C   0  0  0  0  0  0  0  0  0  0  0  0
   12.7096   -2.3380   20.0636 Cl  0  0  0  0  0  0  0  0  0  0  0  0
   12.7933   -0.3344   21.8737 C   0  0  0  0  0  0  0  0  0  0  0  0
   12.2093    0.5183   22.7882 C   0  0  0  0  0  0  0  0  0  0  0  0
   10.8298    0.4964   22.9862 C   0  0  0  0  0  0  0  0  0  0  0  0
   10.2404    1.6530   23.7287 C   0  0  0  0  0  0  0  0  0  0  0  0
   10.9276    2.6043   24.1005 O   0  0  0  0  0  0  0  0  0  0  0  0
   12.7982    1.2316   23.3580 H   0  0  0  0  0  0  0  0  0  0  0  0
   13.8414   -0.2570   21.6011 H   0  0  0  0  0  0  0  0  0  0  0  0
   10.1307   -2.2883   21.1309 H   0  0  0  0  0  0  0  0  0  0  0  0
    8.3510   -0.2271   24.6969 H   0  0  0  0  0  0  0  0  0  0  0  0
    7.0712    0.6023   23.7863 H   0  0  0  0  0  0  0  0  0  0  0  0
    8.9839    3.2964   25.1058 H   0  0  0  0  0  0  0  0  0  0  0  0
    7.3395    2.6939   24.8352 H   0  0  0  0  0  0  0  0  0  0  0  0
    7.9554    4.8799   23.5627 H   0  0  0  0  0  0  0  0  0  0  0  0
    9.0645    3.8911   22.6159 H   0  0  0  0  0  0  0  0  0  0  0  0
    7.2984    2.5047   21.9186 H   0  0  0  0  0  0  0  0  0  0  0  0
    6.1706    3.2948   22.8996 H   0  0  0  0  0  0  0  0  0  0  0  0
    6.7053    5.3648   21.5417 H   0  0  0  0  0  0  0  0  0  0  0  0
    5.6928    4.0765   20.8397 H   0  0  0  0  0  0  0  0  0  0  0  0
    7.4198    4.1892   20.4233 H   0  0  0  0  0  0  0  0  0  0  0  0
  1  2  1  0
  2  3  1  0
  3  4  1  0
  4  5  1  0
  5  6  1  0
  7  6  1  1
  7  8  1  0
  8  9  2  0
  8 10  1  0
 10 11  1  0
 11 12  2  0
 12 13  1  0
 13 14  2  0
 14 15  1  0
 15 16  2  0
 16 17  1  0
 17 18  2  0
 18 19  1  0
 19 20  2  0
 19 21  1  0
 18 22  1  0
 17 23  1  0
 16 24  1  0
 14 25  1  0
 12 26  1  0
 10 27  1  0
 27 28  1  0
 28 29  1  0
 29 30  1  0
 30 31  1  0
 31 32  1  0
 32 33  1  0
 32 34  1  0
 34 35  1  0
 35 36  1  0
 35 37  1  0
 34 38  1  0
 34 39  1  0
 31 40  1  0
 31 41  1  0
 29 42  1  0
 29 43  1  0
 28 44  1  6
 27 45  1  0
 27 46  1  0
  7 47  1  0
 47 48  2  0
 48 49  1  0
 49 50  1  0
 49 51  2  0
 51 52  1  0
 52 53  2  0
 53 54  1  0
 54 55  2  0
 52 56  1  0
 51 57  1  0
 48 58  1  0
  6 59  1  0
  6 60  1  0
  4 61  1  0
  4 62  1  0
  3 63  1  0
  3 64  1  0
  2 65  1  0
  2 66  1  0
  1 67  1  0
  1 68  1  0
  1 69  1  0
 54  5  1  0
 28  7  1  0
 35 32  1  0
 53 47  1  0
 20 11  1  0
 20 15  1  0
M  CHG  1   2   1
M  END
>  <cnnaffinities>  (68) 
[6.89775]

>  <score>  (68) 
6.89775

>  <index>  (68) 
67

>  <Smiles>  (68) 
C([N+](C(C(N1C([C@@]2(C(=O)N(c3c(nc(c4c(c(c(c(c34)[H])[H])[H])[H])[H])[H])C([C@@]2(C(OC(C2(F)C(C2([H])[H])([H])[H])([H])[H])([H])[H])[H])([H])[H])c2c(c(Cl)c(c(c2C1=O)[H])[H])[H])([H])[H])([H])[H])([H])[H])([H])[H])([H])([H])[H]

>  <h>  (68) 
<NA>

>  <Training>  (68) 
True

>  <Success>  (68) 
True

>  <enamine_searched>  (68) 
False

>  <enamine_id>  (68) 
nan

$$$$

     RDKit          3D

 57 62  0  0  0  0  0  0  0  0999 V2000
    5.4049    4.9821   21.5230 C   0  0  0  0  0  0  0  0  0  0  0  0
    6.3788    4.5232   22.5543 C   0  0  0  0  0  0  0  0  0  0  0  0
    6.2919    3.5180   23.3795 N   0  0  0  0  0  0  0  0  0  0  0  0
    7.5173    3.5492   24.0071 C   0  0  0  0  0  0  0  0  0  0  0  0
    7.9456    2.5076   25.0041 C   0  0  0  0  0  0  0  0  0  0  0  0
    8.7036    1.4234   24.3942 N   0  0  0  0  0  0  0  0  0  0  0  0
    8.0858    0.1325   24.1512 C   0  0  0  0  0  0  0  0  0  0  0  0
    8.3787   -0.4044   22.7289 C   0  0  2  0  0  0  0  0  0  0  0  0
    7.6650    0.4469   21.6443 C   0  0  0  0  0  0  0  0  0  0  0  0
    7.7843    1.6347   21.4610 O   0  0  0  0  0  0  0  0  0  0  0  0
    6.8838   -0.3843   20.8685 N   0  0  0  0  0  0  0  0  0  0  0  0
    6.1278    0.1044   19.7752 C   0  0  0  0  0  0  0  0  0  0  0  0
    6.4444   -0.2282   18.4806 C   0  0  0  0  0  0  0  0  0  0  0  0
    5.7726    0.2199   17.3909 N   0  0  0  0  0  0  0  0  0  0  0  0
    4.7496    1.0168   17.5955 C   0  0  0  0  0  0  0  0  0  0  0  0
    4.2942    1.4196   18.8819 C   0  0  0  0  0  0  0  0  0  0  0  0
    3.1653    2.2691   19.0569 C   0  0  0  0  0  0  0  0  0  0  0  0
    2.7358    2.6068   20.3137 C   0  0  0  0  0  0  0  0  0  0  0  0
    3.4142    2.1119   21.4481 C   0  0  0  0  0  0  0  0  0  0  0  0
    4.5108    1.2992   21.3043 C   0  0  0  0  0  0  0  0  0  0  0  0
    4.9924    0.9444   20.0118 C   0  0  0  0  0  0  0  0  0  0  0  0
    5.0220    0.9243   22.1824 H   0  0  0  0  0  0  0  0  0  0  0  0
    3.0813    2.3913   22.4458 H   0  0  0  0  0  0  0  0  0  0  0  0
    1.8770    3.2617   20.4410 H   0  0  0  0  0  0  0  0  0  0  0  0
    2.6597    2.6405   18.1726 H   0  0  0  0  0  0  0  0  0  0  0  0
    4.2251    1.3805   16.7139 H   0  0  0  0  0  0  0  0  0  0  0  0
    7.2922   -0.8758   18.2603 H   0  0  0  0  0  0  0  0  0  0  0  0
    7.1143   -1.7909   21.1113 C   0  0  0  0  0  0  0  0  0  0  0  0
    7.8062   -1.8454   22.4953 C   0  0  2  0  0  0  0  0  0  0  0  0
    6.8317   -2.3825   23.5611 C   0  0  0  0  0  0  0  0  0  0  0  0
    7.3057   -2.4628   24.5448 H   0  0  0  0  0  0  0  0  0  0  0  0
    5.9427   -1.7470   23.6598 H   0  0  0  0  0  0  0  0  0  0  0  0
    6.4918   -3.3887   23.2833 H   0  0  0  0  0  0  0  0  0  0  0  0
    8.6465   -2.5493   22.4638 H   0  0  0  0  0  0  0  0  0  0  0  0
    6.1593   -2.3313   21.1001 H   0  0  0  0  0  0  0  0  0  0  0  0
    7.7585   -2.2133   20.3347 H   0  0  0  0  0  0  0  0  0  0  0  0
    9.8839   -0.2951   22.4981 C   0  0  0  0  0  0  0  0  0  0  0  0
   10.5007   -1.0744   21.5106 C   0  0  0  0  0  0  0  0  0  0  0  0
   11.8506   -0.9133   21.2694 C   0  0  0  0  0  0  0  0  0  0  0  0
   12.4415   -1.6612   20.3232 F   0  0  0  0  0  0  0  0  0  0  0  0
   12.6246    0.0129   21.9542 C   0  0  0  0  0  0  0  0  0  0  0  0
   12.0100    0.8168   22.8926 C   0  0  0  0  0  0  0  0  0  0  0  0
   10.6481    0.6755   23.1591 C   0  0  0  0  0  0  0  0  0  0  0  0
   10.0260    1.6470   24.1189 C   0  0  0  0  0  0  0  0  0  0  0  0
   10.6349    2.5906   24.5954 O   0  0  0  0  0  0  0  0  0  0  0  0
   12.5566    1.5800   23.4342 H   0  0  0  0  0  0  0  0  0  0  0  0
   13.6802    0.0831   21.7260 H   0  0  0  0  0  0  0  0  0  0  0  0
    9.9605   -1.7911   20.9018 H   0  0  0  0  0  0  0  0  0  0  0  0
    7.0092    0.2665   24.2719 H   0  0  0  0  0  0  0  0  0  0  0  0
    8.4459   -0.6112   24.8816 H   0  0  0  0  0  0  0  0  0  0  0  0
    8.5723    2.9699   25.7713 H   0  0  0  0  0  0  0  0  0  0  0  0
    7.0441    2.0854   25.4563 H   0  0  0  0  0  0  0  0  0  0  0  0
    8.2798    4.5388   23.6504 N   0  0  0  0  0  0  0  0  0  0  0  0
    7.5353    5.1906   22.6779 O   0  0  0  0  0  0  0  0  0  0  0  0
    5.6401    5.9975   21.1965 H   0  0  0  0  0  0  0  0  0  0  0  0
    4.3965    4.9461   21.9381 H   0  0  0  0  0  0  0  0  0  0  0  0
    5.4211    4.3054   20.6618 H   0  0  0  0  0  0  0  0  0  0  0  0
  1  2  1  0
  2  3  2  0
  3  4  1  0
  4  5  1  0
  5  6  1  0
  6  7  1  0
  8  7  1  1
  8  9  1  0
  9 10  2  0
  9 11  1  0
 11 12  1  0
 12 13  2  0
 13 14  1  0
 14 15  2  0
 15 16  1  0
 16 17  2  0
 17 18  1  0
 18 19  2  0
 19 20  1  0
 20 21  2  0
 20 22  1  0
 19 23  1  0
 18 24  1  0
 17 25  1  0
 15 26  1  0
 13 27  1  0
 11 28  1  0
 28 29  1  0
 29 30  1  0
 30 31  1  0
 30 32  1  0
 30 33  1  0
 29 34  1  6
 28 35  1  0
 28 36  1  0
  8 37  1  0
 37 38  2  0
 38 39  1  0
 39 40  1  0
 39 41  2  0
 41 42  1  0
 42 43  2  0
 43 44  1  0
 44 45  2  0
 42 46  1  0
 41 47  1  0
 38 48  1  0
  7 49  1  0
  7 50  1  0
  5 51  1  0
  5 52  1  0
  4 53  2  0
 53 54  1  0
  1 55  1  0
  1 56  1  0
  1 57  1  0
 54  2  1  0
 44  6  1  0
 29  8  1  0
 43 37  1  0
 21 12  1  0
 21 16  1  0
M  END
>  <cnnaffinities>  (69) 
[6.67573, 6.76023]

>  <score>  (69) 
6.67573

>  <index>  (69) 
68

>  <Smiles>  (69) 
C(c1nc(C(N2C([C@@]3(C(=O)N(c4c(nc(c5c(c(c(c(c45)[H])[H])[H])[H])[H])[H])C([C@@]3(C([H])([H])[H])[H])([H])[H])c3c(c(F)c(c(c3C2=O)[H])[H])[H])([H])[H])([H])[H])no1)([H])([H])[H]

>  <h>  (69) 
<NA>

>  <Training>  (69) 
True

>  <Success>  (69) 
True

>  <enamine_searched>  (69) 
False

>  <enamine_id>  (69) 
nan

$$$$

     RDKit          3D

 64 68  0  0  0  0  0  0  0  0999 V2000
    1.1600   -1.2583   28.5125 C   0  0  0  0  0  0  0  0  0  0  0  0
    2.5955   -1.5765   28.0698 C   0  0  0  0  0  0  0  0  0  0  0  0
    2.6887   -2.0500   26.6194 C   0  0  0  0  0  0  0  0  0  0  0  0
    2.4333   -1.2837   25.7106 O   0  0  0  0  0  0  0  0  0  0  0  0
    3.1184   -3.3636   26.3875 N   0  0  0  0  0  0  0  0  0  0  0  0
    2.6392   -4.4675   27.2300 C   0  0  0  0  0  0  0  0  0  0  0  0
    2.2021   -5.6455   26.3621 C   0  0  0  0  0  0  0  0  0  0  0  0
    3.3938   -6.1284   25.5391 C   0  0  0  0  0  0  0  0  0  0  0  0
    4.1072   -4.9804   24.8536 C   0  0  0  0  0  0  0  0  0  0  0  0
    4.9602   -5.2380   23.7843 C   0  0  0  0  0  0  0  0  0  0  0  0
    5.6832   -4.2433   23.1438 C   0  0  0  0  0  0  0  0  0  0  0  0
    5.5645   -2.9287   23.5940 C   0  0  0  0  0  0  0  0  0  0  0  0
    6.3190   -1.8742   22.9766 N   0  0  0  0  0  0  0  0  0  0  0  0
    7.3400   -1.2046   23.7812 C   0  0  0  0  0  0  0  0  0  0  0  0
    8.7632   -1.5285   23.3592 C   0  0  0  0  0  0  0  0  0  0  0  0
    9.2052   -2.8507   23.3841 C   0  0  0  0  0  0  0  0  0  0  0  0
   10.4977   -3.1654   22.9842 C   0  0  0  0  0  0  0  0  0  0  0  0
   11.3730   -2.1763   22.5525 C   0  0  0  0  0  0  0  0  0  0  0  0
   10.9413   -0.8571   22.5605 C   0  0  0  0  0  0  0  0  0  0  0  0
   12.0582    0.3970   22.0808 Cl  0  0  0  0  0  0  0  0  0  0  0  0
    9.6495   -0.5259   22.9588 C   0  0  0  0  0  0  0  0  0  0  0  0
    9.3519    0.5197   22.9469 H   0  0  0  0  0  0  0  0  0  0  0  0
   12.3782   -2.4193   22.2284 H   0  0  0  0  0  0  0  0  0  0  0  0
   10.8308   -4.1947   23.0224 H   0  0  0  0  0  0  0  0  0  0  0  0
    8.5329   -3.6374   23.7227 H   0  0  0  0  0  0  0  0  0  0  0  0
    7.1666   -1.5535   24.8061 H   0  0  0  0  0  0  0  0  0  0  0  0
    7.1995   -0.1165   23.7606 H   0  0  0  0  0  0  0  0  0  0  0  0
    6.1257   -1.6599   21.6225 C   0  0  0  0  0  0  0  0  0  0  0  0
    5.3748   -2.3686   20.9773 O   0  0  0  0  0  0  0  0  0  0  0  0
    6.8835   -0.5039   20.9274 C   0  0  0  0  0  0  0  0  0  0  0  0
    6.1038    0.0780   19.7749 C   0  0  0  0  0  0  0  0  0  0  0  0
    6.4156   -0.2162   18.4748 C   0  0  0  0  0  0  0  0  0  0  0  0
    5.7575    0.2401   17.3739 N   0  0  0  0  0  0  0  0  0  0  0  0
    4.7315    1.0323   17.5744 C   0  0  0  0  0  0  0  0  0  0  0  0
    4.2924    1.4180   18.8675 C   0  0  0  0  0  0  0  0  0  0  0  0
    3.1816    2.2636   19.0758 C   0  0  0  0  0  0  0  0  0  0  0  0
    2.5441    2.7103   17.9784 F   0  0  0  0  0  0  0  0  0  0  0  0
    2.7445    2.6275   20.3138 C   0  0  0  0  0  0  0  0  0  0  0  0
    3.4392    2.1353   21.4416 C   0  0  0  0  0  0  0  0  0  0  0  0
    4.5252    1.3139   21.2916 C   0  0  0  0  0  0  0  0  0  0  0  0
    4.9842    0.9321   20.0057 C   0  0  0  0  0  0  0  0  0  0  0  0
    5.0466    0.9427   22.1696 H   0  0  0  0  0  0  0  0  0  0  0  0
    3.1070    2.4197   22.4376 H   0  0  0  0  0  0  0  0  0  0  0  0
    1.8872    3.2831   20.4131 H   0  0  0  0  0  0  0  0  0  0  0  0
    4.1997    1.4002   16.6972 H   0  0  0  0  0  0  0  0  0  0  0  0
    7.2605   -0.8665   18.2463 H   0  0  0  0  0  0  0  0  0  0  0  0
    7.8234   -0.9206   20.5412 H   0  0  0  0  0  0  0  0  0  0  0  0
    7.1674    0.2737   21.6453 H   0  0  0  0  0  0  0  0  0  0  0  0
    4.7293   -2.6426   24.6692 C   0  0  0  0  0  0  0  0  0  0  0  0
    3.9675   -3.6504   25.2900 C   0  0  0  0  0  0  0  0  0  0  0  0
    4.7002   -1.6195   25.0305 H   0  0  0  0  0  0  0  0  0  0  0  0
    6.3280   -4.4923   22.3083 H   0  0  0  0  0  0  0  0  0  0  0  0
    5.0420   -6.2660   23.4383 H   0  0  0  0  0  0  0  0  0  0  0  0
    4.1056   -6.6569   26.1962 H   0  0  0  0  0  0  0  0  0  0  0  0
    3.0769   -6.8690   24.7920 H   0  0  0  0  0  0  0  0  0  0  0  0
    1.3829   -5.3321   25.7010 H   0  0  0  0  0  0  0  0  0  0  0  0
    1.8202   -6.4534   26.9981 H   0  0  0  0  0  0  0  0  0  0  0  0
    3.4229   -4.7905   27.9362 H   0  0  0  0  0  0  0  0  0  0  0  0
    1.7939   -4.0850   27.8103 H   0  0  0  0  0  0  0  0  0  0  0  0
    3.1829   -0.6481   28.0882 H   0  0  0  0  0  0  0  0  0  0  0  0
    3.0927   -2.2806   28.7496 H   0  0  0  0  0  0  0  0  0  0  0  0
    0.5131   -2.1446   28.4897 H   0  0  0  0  0  0  0  0  0  0  0  0
    1.1581   -0.8642   29.5359 H   0  0  0  0  0  0  0  0  0  0  0  0
    0.7213   -0.4965   27.8588 H   0  0  0  0  0  0  0  0  0  0  0  0
  1  2  1  0
  2  3  1  0
  3  4  2  0
  3  5  1  0
  5  6  1  0
  6  7  1  0
  7  8  1  0
  8  9  1  0
  9 10  2  0
 10 11  1  0
 11 12  2  0
 12 13  1  0
 13 14  1  0
 14 15  1  0
 15 16  2  0
 16 17  1  0
 17 18  2  0
 18 19  1  0
 19 20  1  0
 19 21  2  0
 21 22  1  0
 18 23  1  0
 17 24  1  0
 16 25  1  0
 14 26  1  0
 14 27  1  0
 13 28  1  0
 28 29  2  0
 28 30  1  0
 30 31  1  0
 31 32  2  0
 32 33  1  0
 33 34  2  0
 34 35  1  0
 35 36  2  0
 36 37  1  0
 36 38  1  0
 38 39  2  0
 39 40  1  0
 40 41  2  0
 40 42  1  0
 39 43  1  0
 38 44  1  0
 34 45  1  0
 32 46  1  0
 30 47  1  0
 30 48  1  0
 12 49  1  0
 49 50  2  0
 49 51  1  0
 11 52  1  0
 10 53  1  0
  8 54  1  0
  8 55  1  0
  7 56  1  0
  7 57  1  0
  6 58  1  0
  6 59  1  0
  2 60  1  0
  2 61  1  0
  1 62  1  0
  1 63  1  0
  1 64  1  0
 50  5  1  0
 50  9  1  0
 21 15  1  0
 41 31  1  0
 41 35  1  0
M  END
>  <cnnaffinities>  (70) 
[6.81781]

>  <score>  (70) 
6.81781

>  <index>  (70) 
69

>  <Smiles>  (70) 
C(C(C(=O)N1C(C(C(c2c(c(c(N(C(c3c(c(c(c(Cl)c3[H])[H])[H])[H])([H])[H])C(=O)C(c3c(nc(c4c(F)c(c(c(c34)[H])[H])[H])[H])[H])([H])[H])c(c12)[H])[H])[H])([H])[H])([H])[H])([H])[H])([H])[H])([H])([H])[H]

>  <h>  (70) 
<NA>

>  <Training>  (70) 
True

>  <Success>  (70) 
True

>  <enamine_searched>  (70) 
False

>  <enamine_id>  (70) 
nan

$$$$

     RDKit          3D

 57 62  0  0  0  0  0  0  0  0999 V2000
    7.2440   -2.3253   23.5332 C   0  0  0  0  0  0  0  0  0  0  0  0
    8.0572   -1.7986   22.3447 C   0  0  1  0  0  0  0  0  0  0  0  0
    7.2042   -1.7426   21.0624 C   0  0  0  0  0  0  0  0  0  0  0  0
    6.9033   -0.3401   20.8886 N   0  0  0  0  0  0  0  0  0  0  0  0
    6.1283    0.1139   19.7934 C   0  0  0  0  0  0  0  0  0  0  0  0
    6.4473   -0.2340   18.5048 C   0  0  0  0  0  0  0  0  0  0  0  0
    5.7859    0.2021   17.4043 N   0  0  0  0  0  0  0  0  0  0  0  0
    4.7622    0.9999   17.5978 C   0  0  0  0  0  0  0  0  0  0  0  0
    4.3015    1.4091   18.8816 C   0  0  0  0  0  0  0  0  0  0  0  0
    3.1788    2.2643   19.0459 C   0  0  0  0  0  0  0  0  0  0  0  0
    2.7560    2.6208   20.2974 C   0  0  0  0  0  0  0  0  0  0  0  0
    3.4273    2.1422   21.4437 C   0  0  0  0  0  0  0  0  0  0  0  0
    4.5117    1.3098   21.3122 C   0  0  0  0  0  0  0  0  0  0  0  0
    4.9891    0.9410   20.0248 C   0  0  0  0  0  0  0  0  0  0  0  0
    5.0127    0.9224   22.1941 H   0  0  0  0  0  0  0  0  0  0  0  0
    3.1064    2.4541   22.4339 H   0  0  0  0  0  0  0  0  0  0  0  0
    1.8907    3.2669   20.4112 H   0  0  0  0  0  0  0  0  0  0  0  0
    2.6739    2.6296   18.1554 H   0  0  0  0  0  0  0  0  0  0  0  0
    4.2369    1.3650   16.7143 H   0  0  0  0  0  0  0  0  0  0  0  0
    7.3011   -0.8811   18.3092 H   0  0  0  0  0  0  0  0  0  0  0  0
    7.8002    0.4920   21.5363 C   0  0  0  0  0  0  0  0  0  0  0  0
    7.8936    1.6823   21.3356 O   0  0  0  0  0  0  0  0  0  0  0  0
    8.6657   -0.3621   22.4976 C   0  0  1  0  0  0  0  0  0  0  0  0
    8.5790    0.1648   23.9538 C   0  0  0  0  0  0  0  0  0  0  0  0
    9.2078    1.4651   24.1189 N   0  0  0  0  0  0  0  0  0  0  0  0
    8.5814    2.4433   24.9899 C   0  0  0  0  0  0  0  0  0  0  0  0
    7.3856    3.0591   24.3443 C   0  0  0  0  0  0  0  0  0  0  0  0
    6.1108    2.7368   24.6577 N   0  0  0  0  0  0  0  0  0  0  0  0
    5.3557    3.4315   23.8494 N   0  0  0  0  0  0  0  0  0  0  0  0
    6.1668    4.1422   23.0955 N   0  0  0  0  0  0  0  0  0  0  0  0
    5.6923    4.8790   21.9379 C   0  0  0  0  0  0  0  0  0  0  0  0
    6.3537    5.7326   21.7771 H   0  0  0  0  0  0  0  0  0  0  0  0
    4.6800    5.2358   22.1454 H   0  0  0  0  0  0  0  0  0  0  0  0
    5.6964    4.2123   21.0642 H   0  0  0  0  0  0  0  0  0  0  0  0
    7.4494    3.9499   23.3648 N   0  0  0  0  0  0  0  0  0  0  0  0
    8.2828    1.9637   25.9250 H   0  0  0  0  0  0  0  0  0  0  0  0
    9.3393    3.2006   25.2085 H   0  0  0  0  0  0  0  0  0  0  0  0
   10.4403    1.7442   23.6008 C   0  0  0  0  0  0  0  0  0  0  0  0
   11.0886    2.7294   23.9327 O   0  0  0  0  0  0  0  0  0  0  0  0
   10.9559    0.7604   22.6068 C   0  0  0  0  0  0  0  0  0  0  0  0
   12.2927    0.8840   22.2274 C   0  0  0  0  0  0  0  0  0  0  0  0
   12.8713   -0.0227   21.3634 C   0  0  0  0  0  0  0  0  0  0  0  0
   12.0698   -1.0592   20.9002 C   0  0  0  0  0  0  0  0  0  0  0  0
   12.6153   -2.0128   20.1265 F   0  0  0  0  0  0  0  0  0  0  0  0
   10.7381   -1.1806   21.2355 C   0  0  0  0  0  0  0  0  0  0  0  0
   10.1418   -0.2643   22.1005 C   0  0  0  0  0  0  0  0  0  0  0  0
   10.1836   -2.0127   20.8212 H   0  0  0  0  0  0  0  0  0  0  0  0
   13.9087    0.0441   21.0536 H   0  0  0  0  0  0  0  0  0  0  0  0
   12.8601    1.7287   22.6009 H   0  0  0  0  0  0  0  0  0  0  0  0
    7.5388    0.2452   24.2779 H   0  0  0  0  0  0  0  0  0  0  0  0
    9.0836   -0.5684   24.5990 H   0  0  0  0  0  0  0  0  0  0  0  0
    6.2756   -2.3168   21.1474 H   0  0  0  0  0  0  0  0  0  0  0  0
    7.7626   -2.1197   20.2003 H   0  0  0  0  0  0  0  0  0  0  0  0
    8.8726   -2.5130   22.2177 H   0  0  0  0  0  0  0  0  0  0  0  0
    6.3802   -1.6876   23.7516 H   0  0  0  0  0  0  0  0  0  0  0  0
    7.8648   -2.3914   24.4326 H   0  0  0  0  0  0  0  0  0  0  0  0
    6.8785   -3.3337   23.3069 H   0  0  0  0  0  0  0  0  0  0  0  0
  1  2  1  0
  2  3  1  0
  3  4  1  0
  4  5  1  0
  5  6  2  0
  6  7  1  0
  7  8  2  0
  8  9  1  0
  9 10  2  0
 10 11  1  0
 11 12  2  0
 12 13  1  0
 13 14  2  0
 13 15  1  0
 12 16  1  0
 11 17  1  0
 10 18  1  0
  8 19  1  0
  6 20  1  0
  4 21  1  0
 21 22  2  0
 21 23  1  0
 23 24  1  1
 24 25  1  0
 25 26  1  0
 26 27  1  0
 27 28  1  0
 28 29  2  0
 29 30  1  0
 30 31  1  0
 31 32  1  0
 31 33  1  0
 31 34  1  0
 30 35  1  0
 26 36  1  0
 26 37  1  0
 25 38  1  0
 38 39  2  0
 38 40  1  0
 40 41  2  0
 41 42  1  0
 42 43  2  0
 43 44  1  0
 43 45  1  0
 45 46  2  0
 45 47  1  0
 42 48  1  0
 41 49  1  0
 24 50  1  0
 24 51  1  0
  3 52  1  0
  3 53  1  0
  2 54  1  6
  1 55  1  0
  1 56  1  0
  1 57  1  0
 23  2  1  0
 35 27  2  0
 46 40  1  0
 14  5  1  0
 46 23  1  0
 14  9  1  0
M  END
>  <cnnaffinities>  (71) 
[6.70242]

>  <score>  (71) 
6.70242

>  <index>  (71) 
70

>  <Smiles>  (71) 
C([C@]1(C(N(c2c(nc(c3c(c(c(c(c23)[H])[H])[H])[H])[H])[H])C(=O)[C@]21C(N(C(c1nnn(C([H])([H])[H])n1)([H])[H])C(=O)c1c(c(c(F)c(c21)[H])[H])[H])([H])[H])([H])[H])[H])([H])([H])[H]

>  <h>  (71) 
<NA>

>  <Training>  (71) 
True

>  <Success>  (71) 
True

>  <enamine_searched>  (71) 
False

>  <enamine_id>  (71) 
nan

$$$$

     RDKit          3D

 59 64  0  0  0  0  0  0  0  0999 V2000
    7.1346   -2.2754   23.6017 C   0  0  0  0  0  0  0  0  0  0  0  0
    7.9613   -1.8515   22.3791 C   0  0  1  0  0  0  0  0  0  0  0  0
    7.0530   -1.7624   21.1381 C   0  0  0  0  0  0  0  0  0  0  0  0
    6.9174   -0.3503   20.8802 N   0  0  0  0  0  0  0  0  0  0  0  0
    6.1427    0.1211   19.7906 C   0  0  0  0  0  0  0  0  0  0  0  0
    6.4539   -0.2295   18.5001 C   0  0  0  0  0  0  0  0  0  0  0  0
    5.7886    0.2082   17.4010 N   0  0  0  0  0  0  0  0  0  0  0  0
    4.7639    1.0040   17.5956 C   0  0  0  0  0  0  0  0  0  0  0  0
    4.3051    1.4041   18.8827 C   0  0  0  0  0  0  0  0  0  0  0  0
    3.1782    2.2512   19.0419 C   0  0  0  0  0  0  0  0  0  0  0  0
    2.7353    2.5832   20.2914 C   0  0  0  0  0  0  0  0  0  0  0  0
    3.3917    2.0842   21.4373 C   0  0  0  0  0  0  0  0  0  0  0  0
    4.4973    1.2790   21.3141 C   0  0  0  0  0  0  0  0  0  0  0  0
    4.9915    0.9341   20.0261 C   0  0  0  0  0  0  0  0  0  0  0  0
    4.9933    0.8912   22.1989 H   0  0  0  0  0  0  0  0  0  0  0  0
    3.0168    2.3471   22.4234 H   0  0  0  0  0  0  0  0  0  0  0  0
    1.8744    3.2334   20.4157 H   0  0  0  0  0  0  0  0  0  0  0  0
    2.6773    2.6234   18.1528 H   0  0  0  0  0  0  0  0  0  0  0  0
    4.2284    1.3673   16.7162 H   0  0  0  0  0  0  0  0  0  0  0  0
    7.3057   -0.8796   18.2994 H   0  0  0  0  0  0  0  0  0  0  0  0
    7.8858    0.4205   21.4910 C   0  0  0  0  0  0  0  0  0  0  0  0
    8.0506    1.6052   21.2900 O   0  0  0  0  0  0  0  0  0  0  0  0
    8.6921   -0.4659   22.4675 C   0  0  1  0  0  0  0  0  0  0  0  0
    8.6476    0.1250   23.8967 C   0  0  0  0  0  0  0  0  0  0  0  0
    9.3970    1.3620   24.0214 N   0  0  0  0  0  0  0  0  0  0  0  0
    8.8611    2.4362   24.8380 C   0  0  0  0  0  0  0  0  0  0  0  0
    7.7939    3.1981   24.1062 C   0  0  0  0  0  0  0  0  0  0  0  0
    6.5038    3.0087   24.2927 N   0  0  0  0  0  0  0  0  0  0  0  0
    5.8921    3.8998   23.4490 C   0  0  0  0  0  0  0  0  0  0  0  0
    6.8177    4.6030   22.7364 C   0  0  0  0  0  0  0  0  0  0  0  0
    8.0445    4.1574   23.1687 N   0  0  0  0  0  0  0  0  0  0  0  0
    9.3141    4.5193   22.5593 C   0  0  0  0  0  0  0  0  0  0  0  0
    9.2119    5.4978   22.0843 H   0  0  0  0  0  0  0  0  0  0  0  0
   10.1041    4.5853   23.3103 H   0  0  0  0  0  0  0  0  0  0  0  0
    9.5763    3.7949   21.7854 H   0  0  0  0  0  0  0  0  0  0  0  0
    6.7390    5.3207   21.9332 H   0  0  0  0  0  0  0  0  0  0  0  0
    4.8182    3.9713   23.3850 H   0  0  0  0  0  0  0  0  0  0  0  0
    9.7073    3.0738   25.1199 H   0  0  0  0  0  0  0  0  0  0  0  0
    8.4210    1.9930   25.7396 H   0  0  0  0  0  0  0  0  0  0  0  0
   10.6760    1.4638   23.5697 C   0  0  0  0  0  0  0  0  0  0  0  0
   11.4413    2.3502   23.9391 O   0  0  0  0  0  0  0  0  0  0  0  0
   11.0803    0.4535   22.5559 C   0  0  0  0  0  0  0  0  0  0  0  0
   12.3973    0.5147   22.1002 C   0  0  0  0  0  0  0  0  0  0  0  0
   12.8786   -0.4493   21.2424 C   0  0  0  0  0  0  0  0  0  0  0  0
   12.0177   -1.4700   20.8631 C   0  0  0  0  0  0  0  0  0  0  0  0
   12.5085   -2.4875   20.1319 F   0  0  0  0  0  0  0  0  0  0  0  0
   10.6817   -1.4880   21.2199 C   0  0  0  0  0  0  0  0  0  0  0  0
   10.1728   -0.5021   22.0705 C   0  0  0  0  0  0  0  0  0  0  0  0
   10.0595   -2.2770   20.8176 H   0  0  0  0  0  0  0  0  0  0  0  0
   13.8985   -0.4427   20.8778 H   0  0  0  0  0  0  0  0  0  0  0  0
   13.0360    1.3071   22.4732 H   0  0  0  0  0  0  0  0  0  0  0  0
    9.0713   -0.6194   24.5809 H   0  0  0  0  0  0  0  0  0  0  0  0
    7.6245    0.3287   24.2101 H   0  0  0  0  0  0  0  0  0  0  0  0
    7.4918   -2.2663   20.2764 H   0  0  0  0  0  0  0  0  0  0  0  0
    6.0664   -2.2086   21.3071 H   0  0  0  0  0  0  0  0  0  0  0  0
    8.7044   -2.6431   22.2533 H   0  0  0  0  0  0  0  0  0  0  0  0
    6.6658   -3.2478   23.4114 H   0  0  0  0  0  0  0  0  0  0  0  0
    6.3341   -1.5604   23.8210 H   0  0  0  0  0  0  0  0  0  0  0  0
    7.7550   -2.3908   24.4949 H   0  0  0  0  0  0  0  0  0  0  0  0
  1  2  1  0
  2  3  1  0
  3  4  1  0
  4  5  1  0
  5  6  2  0
  6  7  1  0
  7  8  2  0
  8  9  1  0
  9 10  2  0
 10 11  1  0
 11 12  2  0
 12 13  1  0
 13 14  2  0
 13 15  1  0
 12 16  1  0
 11 17  1  0
 10 18  1  0
  8 19  1  0
  6 20  1  0
  4 21  1  0
 21 22  2  0
 21 23  1  0
 23 24  1  1
 24 25  1  0
 25 26  1  0
 26 27  1  0
 27 28  2  0
 28 29  1  0
 29 30  2  0
 30 31  1  0
 31 32  1  0
 32 33  1  0
 32 34  1  0
 32 35  1  0
 30 36  1  0
 29 37  1  0
 26 38  1  0
 26 39  1  0
 25 40  1  0
 40 41  2  0
 40 42  1  0
 42 43  2  0
 43 44  1  0
 44 45  2  0
 45 46  1  0
 45 47  1  0
 47 48  2  0
 47 49  1  0
 44 50  1  0
 43 51  1  0
 24 52  1  0
 24 53  1  0
  3 54  1  0
  3 55  1  0
  2 56  1  6
  1 57  1  0
  1 58  1  0
  1 59  1  0
 23  2  1  0
 31 27  1  0
 48 42  1  0
 14  5  1  0
 48 23  1  0
 14  9  1  0
M  END
>  <cnnaffinities>  (72) 
[6.7767, 6.6677]

>  <score>  (72) 
6.7767

>  <index>  (72) 
71

>  <Smiles>  (72) 
C([C@]1(C(N(c2c(nc(c3c(c(c(c(c23)[H])[H])[H])[H])[H])[H])C(=O)[C@]21C(N(C(c1nc(c(n1C([H])([H])[H])[H])[H])([H])[H])C(=O)c1c(c(c(F)c(c21)[H])[H])[H])([H])[H])([H])[H])[H])([H])([H])[H]

>  <h>  (72) 
<NA>

>  <Training>  (72) 
True

>  <Success>  (72) 
True

>  <enamine_searched>  (72) 
False

>  <enamine_id>  (72) 
nan

$$$$

     RDKit          3D

 60 64  0  0  0  0  0  0  0  0999 V2000
    6.4855    4.4278   22.5885 C   0  0  0  0  0  0  0  0  0  0  0  0
    7.1789    3.6335   23.5795 N   0  0  0  0  0  0  0  0  0  0  0  0
    6.5189    2.6768   24.2713 C   0  0  0  0  0  0  0  0  0  0  0  0
    5.3033    2.5608   24.2275 O   0  0  0  0  0  0  0  0  0  0  0  0
    7.3836    1.7733   25.1545 C   0  0  0  0  0  0  0  0  0  0  0  0
    8.3904    1.0230   24.4377 N   0  0  0  0  0  0  0  0  0  0  0  0
    8.0511   -0.2821   23.8997 C   0  0  0  0  0  0  0  0  0  0  0  0
    8.6386   -0.4941   22.4879 C   0  0  2  0  0  0  0  0  0  0  0  0
    7.8703    0.3930   21.4828 C   0  0  0  0  0  0  0  0  0  0  0  0
    8.0043    1.5836   21.2926 O   0  0  0  0  0  0  0  0  0  0  0  0
    6.9547   -0.3939   20.8208 N   0  0  0  0  0  0  0  0  0  0  0  0
    6.1541    0.1042   19.7647 C   0  0  0  0  0  0  0  0  0  0  0  0
    6.4551   -0.2316   18.4657 C   0  0  0  0  0  0  0  0  0  0  0  0
    5.7797    0.2186   17.3807 N   0  0  0  0  0  0  0  0  0  0  0  0
    4.7582    1.0121   17.5980 C   0  0  0  0  0  0  0  0  0  0  0  0
    4.3162    1.4089   18.8917 C   0  0  0  0  0  0  0  0  0  0  0  0
    3.1908    2.2593   19.0642 C   0  0  0  0  0  0  0  0  0  0  0  0
    2.7646    2.6093   20.3171 C   0  0  0  0  0  0  0  0  0  0  0  0
    3.4518    2.1296   21.4561 C   0  0  0  0  0  0  0  0  0  0  0  0
    4.5499    1.3143   21.3169 C   0  0  0  0  0  0  0  0  0  0  0  0
    5.0199    0.9376   20.0241 C   0  0  0  0  0  0  0  0  0  0  0  0
    5.0572    0.9674   22.2123 H   0  0  0  0  0  0  0  0  0  0  0  0
    3.1387    2.4226   22.4552 H   0  0  0  0  0  0  0  0  0  0  0  0
    1.9041    3.2638   20.4424 H   0  0  0  0  0  0  0  0  0  0  0  0
    2.6817    2.6268   18.1782 H   0  0  0  0  0  0  0  0  0  0  0  0
    4.2152    1.3760   16.7255 H   0  0  0  0  0  0  0  0  0  0  0  0
    7.3053   -0.8826   18.2545 H   0  0  0  0  0  0  0  0  0  0  0  0
    6.9820   -1.7813   21.2133 C   0  0  0  0  0  0  0  0  0  0  0  0
    8.3224   -1.9196   21.9438 C   0  0  2  0  0  0  0  0  0  0  0  0
    8.2813   -2.9827   22.9369 N   0  0  0  0  0  0  0  0  0  0  0  0
    7.7973   -4.2316   22.6488 C   0  0  0  0  0  0  0  0  0  0  0  0
    7.2657   -4.5039   21.5818 O   0  0  0  0  0  0  0  0  0  0  0  0
    7.9604   -5.2475   23.7482 C   0  0  0  0  0  0  0  0  0  0  0  0
    7.8682   -4.8163   24.7507 H   0  0  0  0  0  0  0  0  0  0  0  0
    8.9530   -5.6939   23.6516 H   0  0  0  0  0  0  0  0  0  0  0  0
    7.2094   -6.0241   23.6080 H   0  0  0  0  0  0  0  0  0  0  0  0
    8.9054   -2.9047   23.7270 H   0  0  0  0  0  0  0  0  0  0  0  0
    9.0848   -2.1583   21.1984 H   0  0  0  0  0  0  0  0  0  0  0  0
    6.9017   -2.4499   20.3599 H   0  0  0  0  0  0  0  0  0  0  0  0
    6.1739   -2.0353   21.9053 H   0  0  0  0  0  0  0  0  0  0  0  0
   10.1087   -0.1265   22.5364 C   0  0  0  0  0  0  0  0  0  0  0  0
   11.0129   -0.6150   21.5863 C   0  0  0  0  0  0  0  0  0  0  0  0
   12.3366   -0.2028   21.6084 C   0  0  0  0  0  0  0  0  0  0  0  0
   13.4182   -0.7569   20.3564 Cl  0  0  0  0  0  0  0  0  0  0  0  0
   12.8131    0.7013   22.5588 C   0  0  0  0  0  0  0  0  0  0  0  0
   11.9285    1.1965   23.4966 C   0  0  0  0  0  0  0  0  0  0  0  0
   10.5925    0.7990   23.4756 C   0  0  0  0  0  0  0  0  0  0  0  0
    9.6761    1.4831   24.4340 C   0  0  0  0  0  0  0  0  0  0  0  0
   10.0399    2.4399   25.1117 O   0  0  0  0  0  0  0  0  0  0  0  0
   12.2261    1.9365   24.2339 H   0  0  0  0  0  0  0  0  0  0  0  0
   13.8408    1.0456   22.5067 H   0  0  0  0  0  0  0  0  0  0  0  0
   10.6774   -1.2241   20.7553 H   0  0  0  0  0  0  0  0  0  0  0  0
    8.4213   -1.0635   24.5698 H   0  0  0  0  0  0  0  0  0  0  0  0
    6.9636   -0.3458   23.8581 H   0  0  0  0  0  0  0  0  0  0  0  0
    6.6957    1.0934   25.6577 H   0  0  0  0  0  0  0  0  0  0  0  0
    7.9277    2.3791   25.8836 H   0  0  0  0  0  0  0  0  0  0  0  0
    8.1827    3.6349   23.5728 H   0  0  0  0  0  0  0  0  0  0  0  0
    6.0226    3.7894   21.8309 H   0  0  0  0  0  0  0  0  0  0  0  0
    5.6927    5.0133   23.0523 H   0  0  0  0  0  0  0  0  0  0  0  0
    7.1928    5.1032   22.1068 H   0  0  0  0  0  0  0  0  0  0  0  0
  1  2  1  0
  2  3  1  0
  3  4  2  0
  3  5  1  0
  5  6  1  0
  6  7  1  0
  8  7  1  1
  8  9  1  0
  9 10  2  0
  9 11  1  0
 11 12  1  0
 12 13  2  0
 13 14  1  0
 14 15  2  0
 15 16  1  0
 16 17  2  0
 17 18  1  0
 18 19  2  0
 19 20  1  0
 20 21  2  0
 20 22  1  0
 19 23  1  0
 18 24  1  0
 17 25  1  0
 15 26  1  0
 13 27  1  0
 11 28  1  0
 28 29  1  0
 29 30  1  0
 30 31  1  0
 31 32  2  0
 31 33  1  0
 33 34  1  0
 33 35  1  0
 33 36  1  0
 30 37  1  0
 29 38  1  6
 28 39  1  0
 28 40  1  0
  8 41  1  0
 41 42  2  0
 42 43  1  0
 43 44  1  0
 43 45  2  0
 45 46  1  0
 46 47  2  0
 47 48  1  0
 48 49  2  0
 46 50  1  0
 45 51  1  0
 42 52  1  0
  7 53  1  0
  7 54  1  0
  5 55  1  0
  5 56  1  0
  2 57  1  0
  1 58  1  0
  1 59  1  0
  1 60  1  0
 48  6  1  0
 29  8  1  0
 47 41  1  0
 21 12  1  0
 21 16  1  0
M  END
>  <cnnaffinities>  (73) 
[6.72146]

>  <score>  (73) 
6.72146

>  <index>  (73) 
72

>  <Smiles>  (73) 
C(N(C(=O)C(N1C([C@@]2(C(=O)N(c3c(nc(c4c(c(c(c(c34)[H])[H])[H])[H])[H])[H])C([C@@]2(N(C(=O)C([H])([H])[H])[H])[H])([H])[H])c2c(c(Cl)c(c(c2C1=O)[H])[H])[H])([H])[H])([H])[H])[H])([H])([H])[H]

>  <h>  (73) 
<NA>

>  <Training>  (73) 
True

>  <Success>  (73) 
True

>  <enamine_searched>  (73) 
False

>  <enamine_id>  (73) 
nan

$$$$

     RDKit          3D

 56 61  0  0  0  0  0  0  0  0999 V2000
    7.0405   -2.4960   23.4111 C   0  0  0  0  0  0  0  0  0  0  0  0
    7.9584   -1.8758   22.3506 C   0  0  1  0  0  0  0  0  0  0  0  0
    7.2528   -1.7794   20.9815 C   0  0  0  0  0  0  0  0  0  0  0  0
    6.8323   -0.3992   20.8907 N   0  0  0  0  0  0  0  0  0  0  0  0
    6.0802    0.0849   19.7952 C   0  0  0  0  0  0  0  0  0  0  0  0
    6.4152   -0.2546   18.5062 C   0  0  0  0  0  0  0  0  0  0  0  0
    5.7735    0.1952   17.3994 N   0  0  0  0  0  0  0  0  0  0  0  0
    4.7562    1.0045   17.5767 C   0  0  0  0  0  0  0  0  0  0  0  0
    4.2808    1.4125   18.8572 C   0  0  0  0  0  0  0  0  0  0  0  0
    3.1651    2.2825   19.0015 C   0  0  0  0  0  0  0  0  0  0  0  0
    2.7123    2.6297   20.2480 C   0  0  0  0  0  0  0  0  0  0  0  0
    3.3419    2.1148   21.4018 C   0  0  0  0  0  0  0  0  0  0  0  0
    4.4220    1.2752   21.2864 C   0  0  0  0  0  0  0  0  0  0  0  0
    4.9391    0.9268   20.0054 C   0  0  0  0  0  0  0  0  0  0  0  0
    4.9007    0.8725   22.1717 H   0  0  0  0  0  0  0  0  0  0  0  0
    2.9708    2.3922   22.3851 H   0  0  0  0  0  0  0  0  0  0  0  0
    1.8650    3.3022   20.3559 H   0  0  0  0  0  0  0  0  0  0  0  0
    2.6895    2.6689   18.1052 H   0  0  0  0  0  0  0  0  0  0  0  0
    4.2430    1.3663   16.6849 H   0  0  0  0  0  0  0  0  0  0  0  0
    7.2693   -0.9027   18.3132 H   0  0  0  0  0  0  0  0  0  0  0  0
    7.6415    0.4314   21.6455 C   0  0  0  0  0  0  0  0  0  0  0  0
    7.6772    1.6358   21.5211 O   0  0  0  0  0  0  0  0  0  0  0  0
    8.4539   -0.4214   22.6487 C   0  0  1  0  0  0  0  0  0  0  0  0
    8.1655    0.0432   24.0924 C   0  0  0  0  0  0  0  0  0  0  0  0
    8.5988    1.4054   24.2977 N   0  0  0  0  0  0  0  0  0  0  0  0
    7.6059    2.3982   24.7039 C   0  0  0  0  0  0  0  0  0  0  0  0
    7.8537    3.8434   24.2022 C   0  0  0  0  0  0  0  0  0  0  0  0
    8.4780    4.1692   25.5436 N   0  0  0  0  0  4  0  0  0  0  0  0
    7.8163    2.9469   26.1319 C   0  0  0  0  0  0  0  0  0  0  0  0
    6.8842    3.1563   26.6542 H   0  0  0  0  0  0  0  0  0  0  0  0
    8.4881    2.3669   26.7630 H   0  0  0  0  0  0  0  0  0  0  0  0
    8.4234    5.1031   25.9688 H   0  0  0  0  0  0  0  0  0  0  0  0
    9.4867    3.9218   25.4298 H   0  0  0  0  0  0  0  0  0  0  0  0
    6.9395    4.4049   23.9930 H   0  0  0  0  0  0  0  0  0  0  0  0
    8.5731    3.9697   23.3941 H   0  0  0  0  0  0  0  0  0  0  0  0
    6.6250    1.9608   24.4615 H   0  0  0  0  0  0  0  0  0  0  0  0
    9.9049    1.7344   24.0699 C   0  0  0  0  0  0  0  0  0  0  0  0
   10.4404    2.7340   24.5658 O   0  0  0  0  0  0  0  0  0  0  0  0
   10.6384    0.8176   23.1275 C   0  0  0  0  0  0  0  0  0  0  0  0
   12.0064    1.0078   22.9109 C   0  0  0  0  0  0  0  0  0  0  0  0
   12.7064    0.1905   22.0400 C   0  0  0  0  0  0  0  0  0  0  0  0
   12.0042   -0.7830   21.3319 C   0  0  0  0  0  0  0  0  0  0  0  0
   12.7987   -1.7292   20.1103 Cl  0  0  0  0  0  0  0  0  0  0  0  0
   10.6540   -0.9914   21.5311 C   0  0  0  0  0  0  0  0  0  0  0  0
    9.9509   -0.2053   22.4449 C   0  0  0  0  0  0  0  0  0  0  0  0
   10.1690   -1.7832   20.9692 H   0  0  0  0  0  0  0  0  0  0  0  0
   13.7769    0.2969   21.8939 H   0  0  0  0  0  0  0  0  0  0  0  0
   12.5194    1.8018   23.4423 H   0  0  0  0  0  0  0  0  0  0  0  0
    8.7020   -0.6265   24.7764 H   0  0  0  0  0  0  0  0  0  0  0  0
    7.1087   -0.0283   24.3380 H   0  0  0  0  0  0  0  0  0  0  0  0
    6.3877   -2.4432   20.8952 H   0  0  0  0  0  0  0  0  0  0  0  0
    7.9480   -2.0127   20.1673 H   0  0  0  0  0  0  0  0  0  0  0  0
    8.8155   -2.5489   22.2757 H   0  0  0  0  0  0  0  0  0  0  0  0
    6.7463   -3.5121   23.1253 H   0  0  0  0  0  0  0  0  0  0  0  0
    6.1260   -1.9107   23.5511 H   0  0  0  0  0  0  0  0  0  0  0  0
    7.5512   -2.5729   24.3755 H   0  0  0  0  0  0  0  0  0  0  0  0
  1  2  1  0
  2  3  1  0
  3  4  1  0
  4  5  1  0
  5  6  2  0
  6  7  1  0
  7  8  2  0
  8  9  1  0
  9 10  2  0
 10 11  1  0
 11 12  2  0
 12 13  1  0
 13 14  2  0
 13 15  1  0
 12 16  1  0
 11 17  1  0
 10 18  1  0
  8 19  1  0
  6 20  1  0
  4 21  1  0
 21 22  2  0
 21 23  1  0
 23 24  1  1
 24 25  1  0
 25 26  1  0
 26 27  1  0
 27 28  1  0
 28 29  1  0
 29 30  1  0
 29 31  1  0
 28 32  1  0
 28 33  1  0
 27 34  1  0
 27 35  1  0
 26 36  1  0
 25 37  1  0
 37 38  2  0
 37 39  1  0
 39 40  2  0
 40 41  1  0
 41 42  2  0
 42 43  1  0
 42 44  1  0
 44 45  2  0
 44 46  1  0
 41 47  1  0
 40 48  1  0
 24 49  1  0
 24 50  1  0
  3 51  1  0
  3 52  1  0
  2 53  1  6
  1 54  1  0
  1 55  1  0
  1 56  1  0
 23  2  1  0
 29 26  1  0
 45 39  1  0
 14  5  1  0
 45 23  1  0
 14  9  1  0
M  CHG  1  28   1
M  END
>  <cnnaffinities>  (74) 
[6.43611, 6.43628]

>  <score>  (74) 
6.43611

>  <index>  (74) 
73

>  <Smiles>  (74) 
C([C@]1(C(N(c2c(nc(c3c(c(c(c(c23)[H])[H])[H])[H])[H])[H])C(=O)[C@]21C(N(C1(C([N+](C1([H])[H])([H])[H])([H])[H])[H])C(=O)c1c(c(c(Cl)c(c21)[H])[H])[H])([H])[H])([H])[H])[H])([H])([H])[H]

>  <h>  (74) 
<NA>

>  <Training>  (74) 
True

>  <Success>  (74) 
True

>  <enamine_searched>  (74) 
False

>  <enamine_id>  (74) 
nan

$$$$

     RDKit          3D

 55 60  0  0  0  0  0  0  0  0999 V2000
    7.1007   -2.4543   23.4848 C   0  0  0  0  0  0  0  0  0  0  0  0
    7.9865   -1.8415   22.3838 C   0  0  1  0  0  0  0  0  0  0  0  0
    7.2177   -1.7705   21.0429 C   0  0  0  0  0  0  0  0  0  0  0  0
    6.8919   -0.3704   20.8731 N   0  0  0  0  0  0  0  0  0  0  0  0
    6.1297    0.1057   19.7788 C   0  0  0  0  0  0  0  0  0  0  0  0
    6.4458   -0.2266   18.4840 C   0  0  0  0  0  0  0  0  0  0  0  0
    5.7722    0.2191   17.3927 N   0  0  0  0  0  0  0  0  0  0  0  0
    4.7504    1.0150   17.5976 C   0  0  0  0  0  0  0  0  0  0  0  0
    4.2961    1.4163   18.8839 C   0  0  0  0  0  0  0  0  0  0  0  0
    3.1720    2.2701   19.0581 C   0  0  0  0  0  0  0  0  0  0  0  0
    2.7467    2.6147   20.3113 C   0  0  0  0  0  0  0  0  0  0  0  0
    3.4139    2.1081   21.4502 C   0  0  0  0  0  0  0  0  0  0  0  0
    4.4950    1.2756   21.3049 C   0  0  0  0  0  0  0  0  0  0  0  0
    4.9868    0.9356   20.0157 C   0  0  0  0  0  0  0  0  0  0  0  0
    5.0024    0.8811   22.1794 H   0  0  0  0  0  0  0  0  0  0  0  0
    3.0818    2.3975   22.4423 H   0  0  0  0  0  0  0  0  0  0  0  0
    1.8942    3.2768   20.4343 H   0  0  0  0  0  0  0  0  0  0  0  0
    2.6684    2.6417   18.1697 H   0  0  0  0  0  0  0  0  0  0  0  0
    4.2272    1.3781   16.7149 H   0  0  0  0  0  0  0  0  0  0  0  0
    7.2930   -0.8730   18.2595 H   0  0  0  0  0  0  0  0  0  0  0  0
    7.6716    0.4711   21.6443 C   0  0  0  0  0  0  0  0  0  0  0  0
    7.7088    1.6730   21.5140 O   0  0  0  0  0  0  0  0  0  0  0  0
    8.5084   -0.3859   22.6341 C   0  0  1  0  0  0  0  0  0  0  0  0
    8.3083    0.0671   24.0982 C   0  0  0  0  0  0  0  0  0  0  0  0
    8.8762    1.3713   24.3633 N   0  0  0  0  0  0  0  0  0  0  0  0
    8.0874    2.3436   25.1027 C   0  0  0  0  0  0  0  0  0  0  0  0
    7.3177    3.2737   24.1944 C   0  0  0  0  0  0  0  0  0  0  0  0
    7.8200    4.4076   23.4884 C   0  0  0  0  0  0  0  0  0  0  0  0
    6.7401    4.8515   22.8031 C   0  0  0  0  0  0  0  0  0  0  0  0
    5.6693    4.1045   23.0871 O   0  0  0  0  0  0  0  0  0  0  0  0
    6.0405    3.1008   23.9607 N   0  0  0  0  0  0  0  0  0  0  0  0
    6.5567    5.6297   22.0763 H   0  0  0  0  0  0  0  0  0  0  0  0
    8.8295    4.7841   23.5249 H   0  0  0  0  0  0  0  0  0  0  0  0
    7.4056    1.8043   25.7712 H   0  0  0  0  0  0  0  0  0  0  0  0
    8.7892    2.9248   25.7014 H   0  0  0  0  0  0  0  0  0  0  0  0
   10.1210    1.7346   23.9327 C   0  0  0  0  0  0  0  0  0  0  0  0
   10.6757    2.7504   24.3365 O   0  0  0  0  0  0  0  0  0  0  0  0
   10.7348    0.8187   22.9176 C   0  0  0  0  0  0  0  0  0  0  0  0
   12.0637    1.0356   22.5551 C   0  0  0  0  0  0  0  0  0  0  0  0
   12.6661    0.2407   21.6015 C   0  0  0  0  0  0  0  0  0  0  0  0
   11.9193   -0.7658   21.0016 C   0  0  0  0  0  0  0  0  0  0  0  0
   12.5143   -1.5008   20.0467 F   0  0  0  0  0  0  0  0  0  0  0  0
   10.5896   -0.9757   21.3102 C   0  0  0  0  0  0  0  0  0  0  0  0
    9.9894   -0.2018   22.3109 C   0  0  0  0  0  0  0  0  0  0  0  0
   10.0111   -1.6720   20.7154 H   0  0  0  0  0  0  0  0  0  0  0  0
   13.6693    0.4227   21.2407 H   0  0  0  0  0  0  0  0  0  0  0  0
   12.5887    1.8550   23.0331 H   0  0  0  0  0  0  0  0  0  0  0  0
    8.7631   -0.6923   24.7567 H   0  0  0  0  0  0  0  0  0  0  0  0
    7.2402    0.1592   24.3078 H   0  0  0  0  0  0  0  0  0  0  0  0
    7.8451   -2.1149   20.2149 H   0  0  0  0  0  0  0  0  0  0  0  0
    6.2984   -2.3701   21.0598 H   0  0  0  0  0  0  0  0  0  0  0  0
    8.8526   -2.5045   22.2804 H   0  0  0  0  0  0  0  0  0  0  0  0
    6.7918   -3.4665   23.1943 H   0  0  0  0  0  0  0  0  0  0  0  0
    6.1930   -1.8616   23.6533 H   0  0  0  0  0  0  0  0  0  0  0  0
    7.6352   -2.5414   24.4368 H   0  0  0  0  0  0  0  0  0  0  0  0
  1  2  1  0
  2  3  1  0
  3  4  1  0
  4  5  1  0
  5  6  2  0
  6  7  1  0
  7  8  2  0
  8  9  1  0
  9 10  2  0
 10 11  1  0
 11 12  2  0
 12 13  1  0
 13 14  2  0
 13 15  1  0
 12 16  1  0
 11 17  1  0
 10 18  1  0
  8 19  1  0
  6 20  1  0
  4 21  1  0
 21 22  2  0
 21 23  1  0
 23 24  1  1
 24 25  1  0
 25 26  1  0
 26 27  1  0
 27 28  1  0
 28 29  2  0
 29 30  1  0
 30 31  1  0
 29 32  1  0
 28 33  1  0
 26 34  1  0
 26 35  1  0
 25 36  1  0
 36 37  2  0
 36 38  1  0
 38 39  2  0
 39 40  1  0
 40 41  2  0
 41 42  1  0
 41 43  1  0
 43 44  2  0
 43 45  1  0
 40 46  1  0
 39 47  1  0
 24 48  1  0
 24 49  1  0
  3 50  1  0
  3 51  1  0
  2 52  1  6
  1 53  1  0
  1 54  1  0
  1 55  1  0
 23  2  1  0
 31 27  2  0
 44 38  1  0
 14  5  1  0
 44 23  1  0
 14  9  1  0
M  END
>  <cnnaffinities>  (75) 
[6.6944, 6.27431, 6.64196]

>  <score>  (75) 
6.6944

>  <index>  (75) 
74

>  <Smiles>  (75) 
C([C@]1(C(N(c2c(nc(c3c(c(c(c(c23)[H])[H])[H])[H])[H])[H])C(=O)[C@]21C(N(C(c1c(c(on1)[H])[H])([H])[H])C(=O)c1c(c(c(F)c(c21)[H])[H])[H])([H])[H])([H])[H])[H])([H])([H])[H]

>  <h>  (75) 
<NA>

>  <Training>  (75) 
True

>  <Success>  (75) 
True

>  <enamine_searched>  (75) 
False

>  <enamine_id>  (75) 
nan

$$$$

     RDKit          3D

 70 75  0  0  0  0  0  0  0  0999 V2000
    3.5793    6.2603   31.1061 C   0  0  0  0  0  0  0  0  0  0  0  0
    4.5405    5.3294   30.6513 O   0  0  0  0  0  0  0  0  0  0  0  0
    4.1411    4.1124   30.1921 C   0  0  0  0  0  0  0  0  0  0  0  0
    2.8153    3.6903   30.1206 C   0  0  0  0  0  0  0  0  0  0  0  0
    2.5408    2.4167   29.6253 C   0  0  0  0  0  0  0  0  0  0  0  0
    3.5610    1.5763   29.2029 C   0  0  0  0  0  0  0  0  0  0  0  0
    4.8925    2.0005   29.2634 C   0  0  0  0  0  0  0  0  0  0  0  0
    6.0228    1.1131   28.7552 C   0  0  0  0  0  0  0  0  0  0  0  0
    6.6239    1.5923   27.5129 N   0  0  0  0  0  0  0  0  0  0  0  0
    5.9549    1.4519   26.3395 C   0  0  0  0  0  0  0  0  0  0  0  0
    4.8453    0.9407   26.2642 O   0  0  0  0  0  0  0  0  0  0  0  0
    6.6744    1.9732   25.0901 C   0  0  0  0  0  0  0  0  0  0  0  0
    7.7456    1.1149   24.6303 N   0  0  0  0  0  0  0  0  0  0  0  0
    7.4400   -0.2082   24.1310 C   0  0  0  0  0  0  0  0  0  0  0  0
    8.2187   -0.5100   22.8240 C   0  0  2  0  0  0  0  0  0  0  0  0
    7.6474    0.3687   21.6834 C   0  0  0  0  0  0  0  0  0  0  0  0
    7.7836    1.5657   21.5548 O   0  0  0  0  0  0  0  0  0  0  0  0
    6.9229   -0.4296   20.8254 N   0  0  0  0  0  0  0  0  0  0  0  0
    6.1379    0.1018   19.7674 C   0  0  0  0  0  0  0  0  0  0  0  0
    6.4397   -0.2240   18.4693 C   0  0  0  0  0  0  0  0  0  0  0  0
    5.7660    0.2259   17.3824 N   0  0  0  0  0  0  0  0  0  0  0  0
    4.7448    1.0215   17.5913 C   0  0  0  0  0  0  0  0  0  0  0  0
    4.2958    1.4177   18.8828 C   0  0  0  0  0  0  0  0  0  0  0  0
    3.1696    2.2692   19.0562 C   0  0  0  0  0  0  0  0  0  0  0  0
    2.7455    2.6127   20.3106 C   0  0  0  0  0  0  0  0  0  0  0  0
    3.4210    2.1137   21.4474 C   0  0  0  0  0  0  0  0  0  0  0  0
    4.5106    1.2924   21.3038 C   0  0  0  0  0  0  0  0  0  0  0  0
    4.9964    0.9375   20.0123 C   0  0  0  0  0  0  0  0  0  0  0  0
    5.0234    0.9168   22.1852 H   0  0  0  0  0  0  0  0  0  0  0  0
    3.0795    2.3933   22.4399 H   0  0  0  0  0  0  0  0  0  0  0  0
    1.8912    3.2716   20.4418 H   0  0  0  0  0  0  0  0  0  0  0  0
    2.6589    2.6420   18.1717 H   0  0  0  0  0  0  0  0  0  0  0  0
    4.2158    1.3874   16.7114 H   0  0  0  0  0  0  0  0  0  0  0  0
    7.2841   -0.8788   18.2601 H   0  0  0  0  0  0  0  0  0  0  0  0
    6.8572   -1.8195   21.2354 C   0  0  0  0  0  0  0  0  0  0  0  0
    7.9585   -1.9575   22.3069 C   0  0  2  0  0  0  0  0  0  0  0  0
    7.6184   -3.0173   23.3629 C   0  0  0  0  0  0  0  0  0  0  0  0
    8.3911   -3.0857   24.1390 H   0  0  0  0  0  0  0  0  0  0  0  0
    7.5221   -4.0073   22.9003 H   0  0  0  0  0  0  0  0  0  0  0  0
    6.6664   -2.7925   23.8614 H   0  0  0  0  0  0  0  0  0  0  0  0
    8.8778   -2.2751   21.8077 H   0  0  0  0  0  0  0  0  0  0  0  0
    5.8677   -2.0686   21.6492 H   0  0  0  0  0  0  0  0  0  0  0  0
    7.0237   -2.4722   20.3747 H   0  0  0  0  0  0  0  0  0  0  0  0
    9.6824   -0.1595   23.0447 C   0  0  0  0  0  0  0  0  0  0  0  0
   10.6557   -0.5715   22.1252 C   0  0  0  0  0  0  0  0  0  0  0  0
   11.9690   -0.1597   22.2600 C   0  0  0  0  0  0  0  0  0  0  0  0
   13.0854   -0.4692   20.9592 Cl  0  0  0  0  0  0  0  0  0  0  0  0
   12.3836    0.5768   23.3709 C   0  0  0  0  0  0  0  0  0  0  0  0
   11.4152    1.0473   24.2370 C   0  0  0  0  0  0  0  0  0  0  0  0
   10.0692    0.7432   24.0416 C   0  0  0  0  0  0  0  0  0  0  0  0
    9.0388    1.4982   24.8298 C   0  0  0  0  0  0  0  0  0  0  0  0
    9.3216    2.4302   25.5667 O   0  0  0  0  0  0  0  0  0  0  0  0
   11.6504    1.7228   25.0445 H   0  0  0  0  0  0  0  0  0  0  0  0
   13.4320    0.8213   23.5044 H   0  0  0  0  0  0  0  0  0  0  0  0
   10.3994   -1.1618   21.2534 H   0  0  0  0  0  0  0  0  0  0  0  0
    7.7135   -0.9542   24.8936 H   0  0  0  0  0  0  0  0  0  0  0  0
    6.3606   -0.2586   23.9535 H   0  0  0  0  0  0  0  0  0  0  0  0
    7.1178    2.9598   25.2617 H   0  0  0  0  0  0  0  0  0  0  0  0
    5.9182    2.0491   24.3030 H   0  0  0  0  0  0  0  0  0  0  0  0
    7.5499    2.0005   27.5149 H   0  0  0  0  0  0  0  0  0  0  0  0
    6.8245    1.0489   29.4980 H   0  0  0  0  0  0  0  0  0  0  0  0
    5.6312    0.1017   28.6000 H   0  0  0  0  0  0  0  0  0  0  0  0
    5.1712    3.2648   29.7636 C   0  0  0  0  0  0  0  0  0  0  0  0
    6.1966    3.6222   29.8239 H   0  0  0  0  0  0  0  0  0  0  0  0
    3.3381    0.5940   28.7930 H   0  0  0  0  0  0  0  0  0  0  0  0
    1.5082    2.0842   29.5580 H   0  0  0  0  0  0  0  0  0  0  0  0
    2.0008    4.3347   30.4386 H   0  0  0  0  0  0  0  0  0  0  0  0
    2.8765    6.5509   30.3112 H   0  0  0  0  0  0  0  0  0  0  0  0
    4.1604    7.1346   31.4135 H   0  0  0  0  0  0  0  0  0  0  0  0
    3.0113    5.8788   31.9672 H   0  0  0  0  0  0  0  0  0  0  0  0
  1  2  1  0
  2  3  1  0
  3  4  2  0
  4  5  1  0
  5  6  2  0
  6  7  1  0
  7  8  1  0
  8  9  1  0
  9 10  1  0
 10 11  2  0
 10 12  1  0
 12 13  1  0
 13 14  1  0
 15 14  1  1
 15 16  1  0
 16 17  2  0
 16 18  1  0
 18 19  1  0
 19 20  2  0
 20 21  1  0
 21 22  2  0
 22 23  1  0
 23 24  2  0
 24 25  1  0
 25 26  2  0
 26 27  1  0
 27 28  2  0
 27 29  1  0
 26 30  1  0
 25 31  1  0
 24 32  1  0
 22 33  1  0
 20 34  1  0
 18 35  1  0
 35 36  1  0
 36 37  1  0
 37 38  1  0
 37 39  1  0
 37 40  1  0
 36 41  1  6
 35 42  1  0
 35 43  1  0
 15 44  1  0
 44 45  2  0
 45 46  1  0
 46 47  1  0
 46 48  2  0
 48 49  1  0
 49 50  2  0
 50 51  1  0
 51 52  2  0
 49 53  1  0
 48 54  1  0
 45 55  1  0
 14 56  1  0
 14 57  1  0
 12 58  1  0
 12 59  1  0
  9 60  1  0
  8 61  1  0
  8 62  1  0
  7 63  2  0
 63 64  1  0
  6 65  1  0
  5 66  1  0
  4 67  1  0
  1 68  1  0
  1 69  1  0
  1 70  1  0
 63  3  1  0
 51 13  1  0
 36 15  1  0
 50 44  1  0
 28 19  1  0
 28 23  1  0
M  END
>  <cnnaffinities>  (76) 
[6.75715, 6.15563]

>  <score>  (76) 
6.75715

>  <index>  (76) 
75

>  <Smiles>  (76) 
C(Oc1c(c(c(c(C(N(C(=O)C(N2C([C@@]3(C(=O)N(c4c(nc(c5c(c(c(c(c45)[H])[H])[H])[H])[H])[H])C([C@@]3(C([H])([H])[H])[H])([H])[H])c3c(c(Cl)c(c(c3C2=O)[H])[H])[H])([H])[H])([H])[H])[H])([H])[H])c1[H])[H])[H])[H])([H])([H])[H]

>  <h>  (76) 
<NA>

>  <Training>  (76) 
True

>  <Success>  (76) 
True

>  <enamine_searched>  (76) 
False

>  <enamine_id>  (76) 
nan

$$$$

     RDKit          3D

 61 65  0  0  0  0  0  0  0  0999 V2000
    7.4789   -2.5244   23.7800 C   0  0  0  0  0  0  0  0  0  0  0  0
    7.8649   -1.7413   22.5183 C   0  0  1  0  0  0  0  0  0  0  0  0
    6.6966   -1.6181   21.5198 C   0  0  0  0  0  0  0  0  0  0  0  0
    6.9574   -0.3692   20.8277 N   0  0  0  0  0  0  0  0  0  0  0  0
    6.1545    0.1195   19.7601 C   0  0  0  0  0  0  0  0  0  0  0  0
    6.4538   -0.2184   18.4648 C   0  0  0  0  0  0  0  0  0  0  0  0
    5.7637    0.2175   17.3806 N   0  0  0  0  0  0  0  0  0  0  0  0
    4.7459    1.0149   17.5940 C   0  0  0  0  0  0  0  0  0  0  0  0
    4.3073    1.4279   18.8848 C   0  0  0  0  0  0  0  0  0  0  0  0
    3.1893    2.2876   19.0637 C   0  0  0  0  0  0  0  0  0  0  0  0
    2.7818    2.6512   20.3165 C   0  0  0  0  0  0  0  0  0  0  0  0
    3.4657    2.1629   21.4536 C   0  0  0  0  0  0  0  0  0  0  0  0
    4.5500    1.3289   21.3059 C   0  0  0  0  0  0  0  0  0  0  0  0
    5.0191    0.9561   20.0136 C   0  0  0  0  0  0  0  0  0  0  0  0
    5.0581    0.9510   22.1896 H   0  0  0  0  0  0  0  0  0  0  0  0
    3.1383    2.4584   22.4456 H   0  0  0  0  0  0  0  0  0  0  0  0
    1.9361    3.3224   20.4453 H   0  0  0  0  0  0  0  0  0  0  0  0
    2.6750    2.6541   18.1777 H   0  0  0  0  0  0  0  0  0  0  0  0
    4.2136    1.3775   16.7140 H   0  0  0  0  0  0  0  0  0  0  0  0
    7.2967   -0.8723   18.2476 H   0  0  0  0  0  0  0  0  0  0  0  0
    7.8549    0.4516   21.4691 C   0  0  0  0  0  0  0  0  0  0  0  0
    8.1435    1.5731   21.0929 O   0  0  0  0  0  0  0  0  0  0  0  0
    8.4054   -0.2853   22.7120 C   0  0  1  0  0  0  0  0  0  0  0  0
    7.8605    0.3700   23.9960 C   0  0  0  0  0  0  0  0  0  0  0  0
    8.4305    1.6841   24.2248 N   0  0  0  0  0  0  0  0  0  0  0  0
    7.5496    2.7205   24.7275 C   0  0  0  0  0  0  0  0  0  0  0  0
    6.8811    3.5223   23.6159 C   0  0  0  0  0  0  0  0  0  0  0  0
    7.8533    4.3417   22.8231 N   0  0  0  0  0  4  0  0  0  0  0  0
    8.3755    5.5137   23.5823 C   0  0  0  0  0  0  0  0  0  0  0  0
    8.9546    5.1953   24.4491 H   0  0  0  0  0  0  0  0  0  0  0  0
    7.5337    6.1387   23.9084 H   0  0  0  0  0  0  0  0  0  0  0  0
    9.0097    6.1169   22.9267 H   0  0  0  0  0  0  0  0  0  0  0  0
    7.2021    4.8377   21.5841 C   0  0  0  0  0  0  0  0  0  0  0  0
    6.9424    3.9796   20.9633 H   0  0  0  0  0  0  0  0  0  0  0  0
    7.8829    5.5106   21.0619 H   0  0  0  0  0  0  0  0  0  0  0  0
    6.2947    5.4059   21.8296 H   0  0  0  0  0  0  0  0  0  0  0  0
    8.6248    3.7065   22.5507 H   0  0  0  0  0  0  0  0  0  0  0  0
    6.1302    4.2005   24.0368 H   0  0  0  0  0  0  0  0  0  0  0  0
    6.3798    2.8512   22.9101 H   0  0  0  0  0  0  0  0  0  0  0  0
    6.7724    2.2347   25.3253 H   0  0  0  0  0  0  0  0  0  0  0  0
    8.1482    3.3579   25.3770 H   0  0  0  0  0  0  0  0  0  0  0  0
    9.7836    1.8707   24.2317 C   0  0  0  0  0  0  0  0  0  0  0  0
   10.3142    2.8544   24.7393 O   0  0  0  0  0  0  0  0  0  0  0  0
   10.5664    0.8253   23.4798 C   0  0  0  0  0  0  0  0  0  0  0  0
   11.9591    0.9236   23.4309 C   0  0  0  0  0  0  0  0  0  0  0  0
   12.6933    0.1308   22.5615 C   0  0  0  0  0  0  0  0  0  0  0  0
   12.0086   -0.7269   21.6963 C   0  0  0  0  0  0  0  0  0  0  0  0
   12.7828   -1.4868   20.3332 Cl  0  0  0  0  0  0  0  0  0  0  0  0
   10.6479   -0.9047   21.8060 C   0  0  0  0  0  0  0  0  0  0  0  0
    9.9112   -0.1576   22.7230 C   0  0  0  0  0  0  0  0  0  0  0  0
   10.1688   -1.6198   21.1501 H   0  0  0  0  0  0  0  0  0  0  0  0
   13.7771    0.1741   22.5315 H   0  0  0  0  0  0  0  0  0  0  0  0
   12.4471    1.6676   24.0528 H   0  0  0  0  0  0  0  0  0  0  0  0
    6.7742    0.4888   23.9077 H   0  0  0  0  0  0  0  0  0  0  0  0
    8.0784   -0.2969   24.8469 H   0  0  0  0  0  0  0  0  0  0  0  0
    6.6538   -2.4504   20.8073 H   0  0  0  0  0  0  0  0  0  0  0  0
    5.7326   -1.5983   22.0535 H   0  0  0  0  0  0  0  0  0  0  0  0
    8.6675   -2.2894   22.0240 H   0  0  0  0  0  0  0  0  0  0  0  0
    6.6362   -2.0493   24.2965 H   0  0  0  0  0  0  0  0  0  0  0  0
    7.1714   -3.5469   23.5281 H   0  0  0  0  0  0  0  0  0  0  0  0
    8.3079   -2.5981   24.4945 H   0  0  0  0  0  0  0  0  0  0  0  0
  1  2  1  0
  2  3  1  0
  3  4  1  0
  4  5  1  0
  5  6  2  0
  6  7  1  0
  7  8  2  0
  8  9  1  0
  9 10  2  0
 10 11  1  0
 11 12  2  0
 12 13  1  0
 13 14  2  0
 13 15  1  0
 12 16  1  0
 11 17  1  0
 10 18  1  0
  8 19  1  0
  6 20  1  0
  4 21  1  0
 21 22  2  0
 21 23  1  0
 23 24  1  1
 24 25  1  0
 25 26  1  0
 26 27  1  0
 27 28  1  0
 28 29  1  0
 29 30  1  0
 29 31  1  0
 29 32  1  0
 28 33  1  0
 33 34  1  0
 33 35  1  0
 33 36  1  0
 28 37  1  0
 27 38  1  0
 27 39  1  0
 26 40  1  0
 26 41  1  0
 25 42  1  0
 42 43  2  0
 42 44  1  0
 44 45  2  0
 45 46  1  0
 46 47  2  0
 47 48  1  0
 47 49  1  0
 49 50  2  0
 49 51  1  0
 46 52  1  0
 45 53  1  0
 24 54  1  0
 24 55  1  0
  3 56  1  0
  3 57  1  0
  2 58  1  6
  1 59  1  0
  1 60  1  0
  1 61  1  0
 23  2  1  0
 50 44  1  0
 14  5  1  0
 50 23  1  0
 14  9  1  0
M  CHG  1  28   1
M  END
>  <cnnaffinities>  (77) 
[6.53396, 6.60198]

>  <score>  (77) 
6.53396

>  <index>  (77) 
76

>  <Smiles>  (77) 
C([C@]1(C(N(c2c(nc(c3c(c(c(c(c23)[H])[H])[H])[H])[H])[H])C(=O)[C@]21C(N(C(C([N+](C([H])([H])[H])(C([H])([H])[H])[H])([H])[H])([H])[H])C(=O)c1c(c(c(Cl)c(c21)[H])[H])[H])([H])[H])([H])[H])[H])([H])([H])[H]

>  <h>  (77) 
<NA>

>  <Training>  (77) 
True

>  <Success>  (77) 
True

>  <enamine_searched>  (77) 
False

>  <enamine_id>  (77) 
nan

$$$$

     RDKit          3D

 57 60  0  0  0  0  0  0  0  0999 V2000
    3.1214   -6.1627   26.7839 C   0  0  0  0  0  0  0  0  0  0  0  0
    3.6796   -6.4156   25.3689 C   0  0  0  0  0  0  0  0  0  0  0  0
    2.5146   -6.8291   24.4370 C   0  0  0  0  0  0  0  0  0  0  0  0
    2.8823   -7.0930   23.4384 H   0  0  0  0  0  0  0  0  0  0  0  0
    1.9765   -7.6889   24.8530 H   0  0  0  0  0  0  0  0  0  0  0  0
    1.8120   -5.9948   24.3353 H   0  0  0  0  0  0  0  0  0  0  0  0
    4.5894   -7.5823   25.4636 C   0  0  0  0  0  0  0  0  0  0  0  0
    5.2301   -8.5430   25.5363 N   0  0  0  0  0  0  0  0  0  0  0  0
    4.4380   -5.2149   24.7778 C   0  0  0  0  0  0  0  0  0  0  0  0
    5.2281   -5.3935   23.6405 C   0  0  0  0  0  0  0  0  0  0  0  0
    5.8782   -4.3249   23.0336 C   0  0  0  0  0  0  0  0  0  0  0  0
    5.7525   -3.0386   23.5575 C   0  0  0  0  0  0  0  0  0  0  0  0
    6.4241   -1.9234   22.9534 N   0  0  0  0  0  0  0  0  0  0  0  0
    7.4279   -1.2163   23.7470 C   0  0  0  0  0  0  0  0  0  0  0  0
    8.8487   -1.4800   23.2953 C   0  0  0  0  0  0  0  0  0  0  0  0
    9.3220   -2.7911   23.2827 C   0  0  0  0  0  0  0  0  0  0  0  0
   10.6116   -3.0577   22.8465 C   0  0  0  0  0  0  0  0  0  0  0  0
   11.4440   -2.0303   22.4225 C   0  0  0  0  0  0  0  0  0  0  0  0
   10.9910   -0.7212   22.4889 C   0  0  0  0  0  0  0  0  0  0  0  0
   12.0954    0.5686   22.0829 Cl  0  0  0  0  0  0  0  0  0  0  0  0
    9.6955   -0.4376   22.9089 C   0  0  0  0  0  0  0  0  0  0  0  0
    9.3637    0.5987   22.9275 H   0  0  0  0  0  0  0  0  0  0  0  0
   12.4381   -2.2373   22.0565 H   0  0  0  0  0  0  0  0  0  0  0  0
   10.9803   -4.0749   22.8546 H   0  0  0  0  0  0  0  0  0  0  0  0
    8.6785   -3.6038   23.6151 H   0  0  0  0  0  0  0  0  0  0  0  0
    7.2967   -1.5894   24.7690 H   0  0  0  0  0  0  0  0  0  0  0  0
    7.2479   -0.1346   23.7493 H   0  0  0  0  0  0  0  0  0  0  0  0
    6.1505   -1.6560   21.6227 C   0  0  0  0  0  0  0  0  0  0  0  0
    5.3428   -2.3282   21.0014 O   0  0  0  0  0  0  0  0  0  0  0  0
    6.8915   -0.4959   20.9273 C   0  0  0  0  0  0  0  0  0  0  0  0
    6.1063    0.0824   19.7774 C   0  0  0  0  0  0  0  0  0  0  0  0
    6.4231   -0.2214   18.4799 C   0  0  0  0  0  0  0  0  0  0  0  0
    5.7643    0.2329   17.3776 N   0  0  0  0  0  0  0  0  0  0  0  0
    4.7403    1.0229   17.5814 C   0  0  0  0  0  0  0  0  0  0  0  0
    4.2863    1.4174   18.8681 C   0  0  0  0  0  0  0  0  0  0  0  0
    3.1674    2.2704   19.0428 C   0  0  0  0  0  0  0  0  0  0  0  0
    2.7504    2.6240   20.2959 C   0  0  0  0  0  0  0  0  0  0  0  0
    3.4391    2.1395   21.4328 C   0  0  0  0  0  0  0  0  0  0  0  0
    4.5262    1.3174   21.2882 C   0  0  0  0  0  0  0  0  0  0  0  0
    4.9826    0.9327   20.0006 C   0  0  0  0  0  0  0  0  0  0  0  0
    5.0471    0.9531   22.1686 H   0  0  0  0  0  0  0  0  0  0  0  0
    3.1082    2.4275   22.4261 H   0  0  0  0  0  0  0  0  0  0  0  0
    1.8965    3.2824   20.4277 H   0  0  0  0  0  0  0  0  0  0  0  0
    2.6585    2.6383   18.1548 H   0  0  0  0  0  0  0  0  0  0  0  0
    4.2117    1.3900   16.6994 H   0  0  0  0  0  0  0  0  0  0  0  0
    7.2680   -0.8719   18.2512 H   0  0  0  0  0  0  0  0  0  0  0  0
    7.1708    0.2822   21.6468 H   0  0  0  0  0  0  0  0  0  0  0  0
    7.8356   -0.9053   20.5429 H   0  0  0  0  0  0  0  0  0  0  0  0
    4.9791   -2.8541   24.7038 C   0  0  0  0  0  0  0  0  0  0  0  0
    4.3176   -3.9271   25.2945 C   0  0  0  0  0  0  0  0  0  0  0  0
    3.7242   -3.7540   26.1856 H   0  0  0  0  0  0  0  0  0  0  0  0
    4.8999   -1.8583   25.1315 H   0  0  0  0  0  0  0  0  0  0  0  0
    6.4787   -4.5012   22.1455 H   0  0  0  0  0  0  0  0  0  0  0  0
    5.3295   -6.3902   23.2186 H   0  0  0  0  0  0  0  0  0  0  0  0
    2.3228   -5.4114   26.7552 H   0  0  0  0  0  0  0  0  0  0  0  0
    2.6949   -7.0932   27.1746 H   0  0  0  0  0  0  0  0  0  0  0  0
    3.9037   -5.8251   27.4744 H   0  0  0  0  0  0  0  0  0  0  0  0
  1  2  1  0
  2  3  1  0
  3  4  1  0
  3  5  1  0
  3  6  1  0
  2  7  1  0
  7  8  3  0
  2  9  1  0
  9 10  2  0
 10 11  1  0
 11 12  2  0
 12 13  1  0
 13 14  1  0
 14 15  1  0
 15 16  2  0
 16 17  1  0
 17 18  2  0
 18 19  1  0
 19 20  1  0
 19 21  2  0
 21 22  1  0
 18 23  1  0
 17 24  1  0
 16 25  1  0
 14 26  1  0
 14 27  1  0
 13 28  1  0
 28 29  2  0
 28 30  1  0
 30 31  1  0
 31 32  2  0
 32 33  1  0
 33 34  2  0
 34 35  1  0
 35 36  2  0
 36 37  1  0
 37 38  2  0
 38 39  1  0
 39 40  2  0
 39 41  1  0
 38 42  1  0
 37 43  1  0
 36 44  1  0
 34 45  1  0
 32 46  1  0
 30 47  1  0
 30 48  1  0
 12 49  1  0
 49 50  2  0
 50 51  1  0
 49 52  1  0
 11 53  1  0
 10 54  1  0
  1 55  1  0
  1 56  1  0
  1 57  1  0
 50  9  1  0
 21 15  1  0
 40 31  1  0
 40 35  1  0
M  END
>  <cnnaffinities>  (78) 
[6.93173, 6.94869, 6.79503, 6.80073, 6.79776, 6.87653, 6.87769, 6.81553]

>  <score>  (78) 
6.93173

>  <index>  (78) 
77

>  <Smiles>  (78) 
C(C(C([H])([H])[H])(C#N)c1c(c(c(N(C(c2c(c(c(c(Cl)c2[H])[H])[H])[H])([H])[H])C(=O)C(c2c(nc(c3c(c(c(c(c23)[H])[H])[H])[H])[H])[H])([H])[H])c(c1[H])[H])[H])[H])([H])([H])[H]

>  <h>  (78) 
<NA>

>  <Training>  (78) 
True

>  <Success>  (78) 
True

>  <enamine_searched>  (78) 
False

>  <enamine_id>  (78) 
nan

$$$$

     RDKit          3D

 40 42  0  0  0  0  0  0  0  0999 V2000
    5.7376   -2.9728   27.0649 C   0  0  0  0  0  0  0  0  0  0  0  0
    5.6270   -2.1415   25.7886 C   0  0  0  0  0  0  0  0  0  0  0  0
    4.7391   -2.8184   24.7513 C   0  0  0  0  0  0  0  0  0  0  0  0
    4.6432   -1.9990   23.4752 C   0  0  0  0  0  0  0  0  0  0  0  0
    5.9615   -1.6609   22.9458 N   0  0  0  0  0  0  0  0  0  0  0  0
    6.1322   -1.6641   21.5679 C   0  0  0  0  0  0  0  0  0  0  0  0
    5.6511   -2.5358   20.8715 O   0  0  0  0  0  0  0  0  0  0  0  0
    6.9071   -0.4966   20.9139 C   0  0  0  0  0  0  0  0  0  0  0  0
    6.1172    0.0942   19.7636 C   0  0  0  0  0  0  0  0  0  0  0  0
    6.4236   -0.2137   18.4637 C   0  0  0  0  0  0  0  0  0  0  0  0
    5.7581    0.2380   17.3641 N   0  0  0  0  0  0  0  0  0  0  0  0
    4.7347    1.0290   17.5761 C   0  0  0  0  0  0  0  0  0  0  0  0
    4.2870    1.4230   18.8658 C   0  0  0  0  0  0  0  0  0  0  0  0
    3.1648    2.2722   19.0433 C   0  0  0  0  0  0  0  0  0  0  0  0
    2.7480    2.6249   20.2986 C   0  0  0  0  0  0  0  0  0  0  0  0
    3.4403    2.1393   21.4317 C   0  0  0  0  0  0  0  0  0  0  0  0
    4.5327    1.3194   21.2873 C   0  0  0  0  0  0  0  0  0  0  0  0
    4.9913    0.9414   19.9965 C   0  0  0  0  0  0  0  0  0  0  0  0
    5.0512    0.9595   22.1730 H   0  0  0  0  0  0  0  0  0  0  0  0
    3.1065    2.4274   22.4242 H   0  0  0  0  0  0  0  0  0  0  0  0
    1.8905    3.2802   20.4341 H   0  0  0  0  0  0  0  0  0  0  0  0
    2.6453    2.6409   18.1620 H   0  0  0  0  0  0  0  0  0  0  0  0
    4.2005    1.3973   16.6979 H   0  0  0  0  0  0  0  0  0  0  0  0
    7.2662   -0.8674   18.2410 H   0  0  0  0  0  0  0  0  0  0  0  0
    7.8447   -0.9089   20.5200 H   0  0  0  0  0  0  0  0  0  0  0  0
    7.1722    0.2816   21.6427 H   0  0  0  0  0  0  0  0  0  0  0  0
    6.8869   -1.0490   23.8847 C   0  0  0  0  0  0  0  0  0  0  0  0
    6.9915   -1.8711   25.1685 C   0  0  0  0  0  0  0  0  0  0  0  0
    7.4872   -2.8250   24.9584 H   0  0  0  0  0  0  0  0  0  0  0  0
    7.6331   -1.3486   25.8847 H   0  0  0  0  0  0  0  0  0  0  0  0
    7.8669   -0.9912   23.4117 H   0  0  0  0  0  0  0  0  0  0  0  0
    6.5853   -0.0202   24.1447 H   0  0  0  0  0  0  0  0  0  0  0  0
    4.1127   -2.5453   22.6967 H   0  0  0  0  0  0  0  0  0  0  0  0
    4.0657   -1.0801   23.6813 H   0  0  0  0  0  0  0  0  0  0  0  0
    5.1402   -3.8113   24.5218 H   0  0  0  0  0  0  0  0  0  0  0  0
    3.7372   -2.9818   25.1648 H   0  0  0  0  0  0  0  0  0  0  0  0
    5.1742   -1.1741   26.0472 H   0  0  0  0  0  0  0  0  0  0  0  0
    4.7542   -3.1515   27.5149 H   0  0  0  0  0  0  0  0  0  0  0  0
    6.3679   -2.4793   27.8135 H   0  0  0  0  0  0  0  0  0  0  0  0
    6.1845   -3.9514   26.8529 H   0  0  0  0  0  0  0  0  0  0  0  0
  1  2  1  0
  2  3  1  0
  3  4  1  0
  4  5  1  0
  5  6  1  0
  6  7  2  0
  6  8  1  0
  8  9  1  0
  9 10  2  0
 10 11  1  0
 11 12  2  0
 12 13  1  0
 13 14  2  0
 14 15  1  0
 15 16  2  0
 16 17  1  0
 17 18  2  0
 17 19  1  0
 16 20  1  0
 15 21  1  0
 14 22  1  0
 12 23  1  0
 10 24  1  0
  8 25  1  0
  8 26  1  0
  5 27  1  0
 27 28  1  0
 28 29  1  0
 28 30  1  0
 27 31  1  0
 27 32  1  0
  4 33  1  0
  4 34  1  0
  3 35  1  0
  3 36  1  0
  2 37  1  0
  1 38  1  0
  1 39  1  0
  1 40  1  0
 28  2  1  0
 18  9  1  0
 18 13  1  0
M  END
>  <cnnaffinities>  (79) 
[5.17367, 5.17371, 5.02985, 5.02972, 5.3257, 4.44754, 4.4407, 5.23985, 5.23964]

>  <score>  (79) 
5.17367

>  <index>  (79) 
79

>  <Smiles>  (79) 
C(C1(C(C(N(C(=O)C(c2c(nc(c3c(c(c(c(c23)[H])[H])[H])[H])[H])[H])([H])[H])C(C1([H])[H])([H])[H])([H])[H])([H])[H])[H])([H])([H])[H]

>  <h>  (79) 
<NA>

>  <Training>  (79) 
True

>  <Success>  (79) 
True

>  <enamine_searched>  (79) 
False

>  <enamine_id>  (79) 
nan

$$$$

     RDKit          3D

 59 64  0  0  0  0  0  0  0  0999 V2000
    9.7532   -1.8539   21.9295 C   0  0  0  0  0  0  0  0  0  0  0  0
    8.5656   -0.9926   22.3942 C   0  0  1  0  0  0  0  0  0  0  0  0
    8.1279   -0.0241   21.2670 C   0  0  0  0  0  0  0  0  0  0  0  0
    6.8410   -0.5216   20.8313 N   0  0  0  0  0  0  0  0  0  0  0  0
    6.0965    0.0455   19.7672 C   0  0  0  0  0  0  0  0  0  0  0  0
    6.4459   -0.2288   18.4701 C   0  0  0  0  0  0  0  0  0  0  0  0
    5.7894    0.2431   17.3818 N   0  0  0  0  0  0  0  0  0  0  0  0
    4.7570    1.0226   17.5991 C   0  0  0  0  0  0  0  0  0  0  0  0
    4.2955    1.4040   18.8929 C   0  0  0  0  0  0  0  0  0  0  0  0
    3.1816    2.2703   19.0615 C   0  0  0  0  0  0  0  0  0  0  0  0
    2.7775    2.6408   20.3140 C   0  0  0  0  0  0  0  0  0  0  0  0
    3.4732    2.1719   21.4515 C   0  0  0  0  0  0  0  0  0  0  0  0
    4.5524    1.3335   21.3189 C   0  0  0  0  0  0  0  0  0  0  0  0
    4.9843    0.9128   20.0236 C   0  0  0  0  0  0  0  0  0  0  0  0
    5.0840    0.9905   22.2068 H   0  0  0  0  0  0  0  0  0  0  0  0
    3.1425    2.4785   22.4393 H   0  0  0  0  0  0  0  0  0  0  0  0
    1.9236    3.3007   20.4399 H   0  0  0  0  0  0  0  0  0  0  0  0
    2.6714    2.6334   18.1731 H   0  0  0  0  0  0  0  0  0  0  0  0
    4.2258    1.3864   16.7207 H   0  0  0  0  0  0  0  0  0  0  0  0
    7.2955   -0.8782   18.2639 H   0  0  0  0  0  0  0  0  0  0  0  0
    6.2977   -1.4956   21.6297 C   0  0  0  0  0  0  0  0  0  0  0  0
    5.2187   -2.0241   21.4290 O   0  0  0  0  0  0  0  0  0  0  0  0
    7.2659   -1.7706   22.8027 C   0  0  1  0  0  0  0  0  0  0  0  0
    7.4770   -3.2932   22.9565 C   0  0  0  0  0  0  0  0  0  0  0  0
    6.2673   -3.9408   23.4146 N   0  0  0  0  0  0  0  0  0  0  0  0
    5.8167   -5.1533   22.7848 C   0  0  0  0  0  0  0  0  0  0  0  0
    6.4004   -6.4078   23.3732 C   0  0  0  0  0  0  0  0  0  0  0  0
    7.7183   -6.8002   23.4517 C   0  0  0  0  0  0  0  0  0  0  0  0
    7.6783   -8.1288   23.9266 C   0  0  0  0  0  0  0  0  0  0  0  0
    6.4274   -8.5218   24.1417 N   0  0  0  0  0  0  0  0  0  0  0  0
    5.6697   -7.4612   23.8220 N   0  0  0  0  0  0  0  0  0  0  0  0
    4.2347   -7.5494   23.9990 C   0  0  0  0  0  0  0  0  0  0  0  0
    3.7548   -7.5975   23.0152 H   0  0  0  0  0  0  0  0  0  0  0  0
    4.0617   -8.4800   24.5422 H   0  0  0  0  0  0  0  0  0  0  0  0
    3.8637   -6.6908   24.5709 H   0  0  0  0  0  0  0  0  0  0  0  0
    8.4925   -8.7856   24.2256 H   0  0  0  0  0  0  0  0  0  0  0  0
    8.5663   -6.1693   23.2144 H   0  0  0  0  0  0  0  0  0  0  0  0
    4.7233   -5.1706   22.8164 H   0  0  0  0  0  0  0  0  0  0  0  0
    6.1225   -5.0667   21.7378 H   0  0  0  0  0  0  0  0  0  0  0  0
    5.6225   -3.5322   24.5379 C   0  0  0  0  0  0  0  0  0  0  0  0
    4.8405   -4.2615   25.1423 O   0  0  0  0  0  0  0  0  0  0  0  0
    5.8808   -2.1125   24.9284 C   0  0  0  0  0  0  0  0  0  0  0  0
    5.2794   -1.6394   26.0928 C   0  0  0  0  0  0  0  0  0  0  0  0
    5.3777   -0.3022   26.4284 C   0  0  0  0  0  0  0  0  0  0  0  0
    6.0768    0.5457   25.5783 C   0  0  0  0  0  0  0  0  0  0  0  0
    6.1480    1.8517   25.8938 F   0  0  0  0  0  0  0  0  0  0  0  0
    6.6952    0.0994   24.4278 C   0  0  0  0  0  0  0  0  0  0  0  0
    6.6310   -1.2619   24.0994 C   0  0  0  0  0  0  0  0  0  0  0  0
    7.2071    0.8306   23.8089 H   0  0  0  0  0  0  0  0  0  0  0  0
    4.9135    0.1055   27.3155 H   0  0  0  0  0  0  0  0  0  0  0  0
    4.7204   -2.3568   26.6885 H   0  0  0  0  0  0  0  0  0  0  0  0
    7.7502   -3.7217   21.9876 H   0  0  0  0  0  0  0  0  0  0  0  0
    8.2886   -3.4556   23.6830 H   0  0  0  0  0  0  0  0  0  0  0  0
    8.0483    1.0163   21.6165 H   0  0  0  0  0  0  0  0  0  0  0  0
    8.8393   -0.0301   20.4356 H   0  0  0  0  0  0  0  0  0  0  0  0
    8.9147   -0.4319   23.2702 H   0  0  0  0  0  0  0  0  0  0  0  0
   10.5945   -1.2084   21.6548 H   0  0  0  0  0  0  0  0  0  0  0  0
   10.1045   -2.5231   22.7201 H   0  0  0  0  0  0  0  0  0  0  0  0
    9.4981   -2.4600   21.0528 H   0  0  0  0  0  0  0  0  0  0  0  0
  1  2  1  0
  2  3  1  0
  3  4  1  0
  4  5  1  0
  5  6  2  0
  6  7  1  0
  7  8  2  0
  8  9  1  0
  9 10  2  0
 10 11  1  0
 11 12  2  0
 12 13  1  0
 13 14  2  0
 13 15  1  0
 12 16  1  0
 11 17  1  0
 10 18  1  0
  8 19  1  0
  6 20  1  0
  4 21  1  0
 21 22  2  0
 21 23  1  0
 23 24  1  1
 24 25  1  0
 25 26  1  0
 26 27  1  0
 27 28  2  0
 28 29  1  0
 29 30  2  0
 30 31  1  0
 31 32  1  0
 32 33  1  0
 32 34  1  0
 32 35  1  0
 29 36  1  0
 28 37  1  0
 26 38  1  0
 26 39  1  0
 25 40  1  0
 40 41  2  0
 40 42  1  0
 42 43  2  0
 43 44  1  0
 44 45  2  0
 45 46  1  0
 45 47  1  0
 47 48  2  0
 47 49  1  0
 44 50  1  0
 43 51  1  0
 24 52  1  0
 24 53  1  0
  3 54  1  0
  3 55  1  0
  2 56  1  1
  1 57  1  0
  1 58  1  0
  1 59  1  0
 23  2  1  0
 31 27  1  0
 48 42  1  0
 14  5  1  0
 48 23  1  0
 14  9  1  0
M  END
>  <cnnaffinities>  (80) 
[6.77137, 6.57637]

>  <score>  (80) 
6.77137

>  <index>  (80) 
80

>  <Smiles>  (80) 
C([C@]1(C(N(c2c(nc(c3c(c(c(c(c23)[H])[H])[H])[H])[H])[H])C(=O)[C@]21C(N(C(c1c(c(nn1C([H])([H])[H])[H])[H])([H])[H])C(=O)c1c(c(c(F)c(c21)[H])[H])[H])([H])[H])([H])[H])[H])([H])([H])[H]

>  <h>  (80) 
<NA>

>  <Training>  (80) 
True

>  <Success>  (80) 
True

>  <enamine_searched>  (80) 
False

>  <enamine_id>  (80) 
nan

$$$$

     RDKit          3D

 58 63  0  0  0  0  0  0  0  0999 V2000
    5.4577    4.9520   21.4145 C   0  0  0  0  0  0  0  0  0  0  0  0
    6.4451    4.5472   22.4638 C   0  0  0  0  0  0  0  0  0  0  0  0
    6.3473    3.5890   23.3348 N   0  0  0  0  0  0  0  0  0  0  0  0
    7.5807    3.5757   23.9881 C   0  0  0  0  0  0  0  0  0  0  0  0
    7.9662    2.5285   24.9923 C   0  0  0  0  0  0  0  0  0  0  0  0
    8.7144    1.4142   24.4124 N   0  0  0  0  0  0  0  0  0  0  0  0
    8.0598    0.1464   24.1595 C   0  0  0  0  0  0  0  0  0  0  0  0
    8.3569   -0.4135   22.7452 C   0  0  2  0  0  0  0  0  0  0  0  0
    7.6820    0.4364   21.6323 C   0  0  0  0  0  0  0  0  0  0  0  0
    7.8438    1.6140   21.4160 O   0  0  0  0  0  0  0  0  0  0  0  0
    6.8823   -0.3879   20.8685 N   0  0  0  0  0  0  0  0  0  0  0  0
    6.1278    0.1045   19.7744 C   0  0  0  0  0  0  0  0  0  0  0  0
    6.4439   -0.2279   18.4803 C   0  0  0  0  0  0  0  0  0  0  0  0
    5.7721    0.2202   17.3901 N   0  0  0  0  0  0  0  0  0  0  0  0
    4.7495    1.0169   17.5943 C   0  0  0  0  0  0  0  0  0  0  0  0
    4.2937    1.4203   18.8806 C   0  0  0  0  0  0  0  0  0  0  0  0
    3.1649    2.2687   19.0580 C   0  0  0  0  0  0  0  0  0  0  0  0
    2.7349    2.6050   20.3139 C   0  0  0  0  0  0  0  0  0  0  0  0
    3.4143    2.1109   21.4493 C   0  0  0  0  0  0  0  0  0  0  0  0
    4.5123    1.3016   21.3031 C   0  0  0  0  0  0  0  0  0  0  0  0
    4.9938    0.9459   20.0115 C   0  0  0  0  0  0  0  0  0  0  0  0
    5.0242    0.9267   22.1819 H   0  0  0  0  0  0  0  0  0  0  0  0
    3.0803    2.3899   22.4464 H   0  0  0  0  0  0  0  0  0  0  0  0
    1.8756    3.2582   20.4429 H   0  0  0  0  0  0  0  0  0  0  0  0
    2.6575    2.6408   18.1741 H   0  0  0  0  0  0  0  0  0  0  0  0
    4.2240    1.3811   16.7126 H   0  0  0  0  0  0  0  0  0  0  0  0
    7.2912   -0.8765   18.2609 H   0  0  0  0  0  0  0  0  0  0  0  0
    7.0643   -1.7957   21.1418 C   0  0  0  0  0  0  0  0  0  0  0  0
    7.7467   -1.8430   22.5308 C   0  0  2  0  0  0  0  0  0  0  0  0
    6.7503   -2.3351   23.5984 C   0  0  0  0  0  0  0  0  0  0  0  0
    7.2150   -2.4130   24.5865 H   0  0  0  0  0  0  0  0  0  0  0  0
    5.8783   -1.6746   23.6815 H   0  0  0  0  0  0  0  0  0  0  0  0
    6.3841   -3.3355   23.3348 H   0  0  0  0  0  0  0  0  0  0  0  0
    8.5681   -2.5695   22.5190 H   0  0  0  0  0  0  0  0  0  0  0  0
    6.0917   -2.3037   21.1370 H   0  0  0  0  0  0  0  0  0  0  0  0
    7.6949   -2.2598   20.3780 H   0  0  0  0  0  0  0  0  0  0  0  0
    9.8664   -0.3461   22.5283 C   0  0  0  0  0  0  0  0  0  0  0  0
   10.4669   -1.1502   21.5510 C   0  0  0  0  0  0  0  0  0  0  0  0
   11.8219   -1.0324   21.3171 C   0  0  0  0  0  0  0  0  0  0  0  0
   12.3961   -1.8118   20.3862 F   0  0  0  0  0  0  0  0  0  0  0  0
   12.6176   -0.1246   22.0023 C   0  0  0  0  0  0  0  0  0  0  0  0
   12.0193    0.7061   22.9287 C   0  0  0  0  0  0  0  0  0  0  0  0
   10.6507    0.6117   23.1872 C   0  0  0  0  0  0  0  0  0  0  0  0
   10.0360    1.6169   24.1211 C   0  0  0  0  0  0  0  0  0  0  0  0
   10.6532    2.5776   24.5595 O   0  0  0  0  0  0  0  0  0  0  0  0
   12.5895    1.4543   23.4671 H   0  0  0  0  0  0  0  0  0  0  0  0
   13.6782   -0.0923   21.7853 H   0  0  0  0  0  0  0  0  0  0  0  0
    9.9110   -1.8589   20.9459 H   0  0  0  0  0  0  0  0  0  0  0  0
    6.9867    0.3197   24.2561 H   0  0  0  0  0  0  0  0  0  0  0  0
    8.3782   -0.6028   24.9034 H   0  0  0  0  0  0  0  0  0  0  0  0
    7.0588    2.1288   25.4567 H   0  0  0  0  0  0  0  0  0  0  0  0
    8.5992    2.9774   25.7632 H   0  0  0  0  0  0  0  0  0  0  0  0
    8.3321    4.5881   23.5085 C   0  0  0  0  0  0  0  0  0  0  0  0
    7.6251    5.2189   22.5277 O   0  0  0  0  0  0  0  0  0  0  0  0
    9.3125    4.9706   23.7440 H   0  0  0  0  0  0  0  0  0  0  0  0
    5.6657    5.9533   21.0290 H   0  0  0  0  0  0  0  0  0  0  0  0
    4.4559    4.9206   21.8446 H   0  0  0  0  0  0  0  0  0  0  0  0
    5.4620    4.2343   20.5864 H   0  0  0  0  0  0  0  0  0  0  0  0
  1  2  1  0
  2  3  2  0
  3  4  1  0
  4  5  1  0
  5  6  1  0
  6  7  1  0
  8  7  1  1
  8  9  1  0
  9 10  2  0
  9 11  1  0
 11 12  1  0
 12 13  2  0
 13 14  1  0
 14 15  2  0
 15 16  1  0
 16 17  2  0
 17 18  1  0
 18 19  2  0
 19 20  1  0
 20 21  2  0
 20 22  1  0
 19 23  1  0
 18 24  1  0
 17 25  1  0
 15 26  1  0
 13 27  1  0
 11 28  1  0
 28 29  1  0
 29 30  1  0
 30 31  1  0
 30 32  1  0
 30 33  1  0
 29 34  1  6
 28 35  1  0
 28 36  1  0
  8 37  1  0
 37 38  2  0
 38 39  1  0
 39 40  1  0
 39 41  2  0
 41 42  1  0
 42 43  2  0
 43 44  1  0
 44 45  2  0
 42 46  1  0
 41 47  1  0
 38 48  1  0
  7 49  1  0
  7 50  1  0
  5 51  1  0
  5 52  1  0
  4 53  2  0
 53 54  1  0
 53 55  1  0
  1 56  1  0
  1 57  1  0
  1 58  1  0
 54  2  1  0
 44  6  1  0
 29  8  1  0
 43 37  1  0
 21 12  1  0
 21 16  1  0
M  END
>  <cnnaffinities>  (81) 
[6.70031, 6.70387]

>  <score>  (81) 
6.70031

>  <index>  (81) 
81

>  <Smiles>  (81) 
C(c1nc(C(N2C([C@@]3(C(=O)N(c4c(nc(c5c(c(c(c(c45)[H])[H])[H])[H])[H])[H])C([C@@]3(C([H])([H])[H])[H])([H])[H])c3c(c(F)c(c(c3C2=O)[H])[H])[H])([H])[H])([H])[H])c(o1)[H])([H])([H])[H]

>  <h>  (81) 
<NA>

>  <Training>  (81) 
True

>  <Success>  (81) 
True

>  <enamine_searched>  (81) 
False

>  <enamine_id>  (81) 
nan

$$$$

     RDKit          3D

 55 60  0  0  0  0  0  0  0  0999 V2000
    7.5459   -2.8582   23.5155 C   0  0  0  0  0  0  0  0  0  0  0  0
    7.9192   -1.9034   22.3713 C   0  0  1  0  0  0  0  0  0  0  0  0
    6.7832   -1.7605   21.3359 C   0  0  0  0  0  0  0  0  0  0  0  0
    6.9293   -0.4106   20.8267 N   0  0  0  0  0  0  0  0  0  0  0  0
    6.1399    0.1063   19.7631 C   0  0  0  0  0  0  0  0  0  0  0  0
    6.4447   -0.2229   18.4687 C   0  0  0  0  0  0  0  0  0  0  0  0
    5.7670    0.2225   17.3799 N   0  0  0  0  0  0  0  0  0  0  0  0
    4.7464    1.0179   17.5891 C   0  0  0  0  0  0  0  0  0  0  0  0
    4.2946    1.4171   18.8774 C   0  0  0  0  0  0  0  0  0  0  0  0
    3.1671    2.2664   19.0557 C   0  0  0  0  0  0  0  0  0  0  0  0
    2.7392    2.6031   20.3086 C   0  0  0  0  0  0  0  0  0  0  0  0
    3.4117    2.0965   21.4452 C   0  0  0  0  0  0  0  0  0  0  0  0
    4.5074    1.2816   21.2970 C   0  0  0  0  0  0  0  0  0  0  0  0
    4.9953    0.9358   20.0085 C   0  0  0  0  0  0  0  0  0  0  0  0
    5.0274    0.9082   22.1753 H   0  0  0  0  0  0  0  0  0  0  0  0
    3.0827    2.3847   22.4393 H   0  0  0  0  0  0  0  0  0  0  0  0
    1.8870    3.2664   20.4387 H   0  0  0  0  0  0  0  0  0  0  0  0
    2.6596    2.6433   18.1706 H   0  0  0  0  0  0  0  0  0  0  0  0
    4.2183    1.3833   16.7077 H   0  0  0  0  0  0  0  0  0  0  0  0
    7.2876   -0.8796   18.2597 H   0  0  0  0  0  0  0  0  0  0  0  0
    7.7356    0.3991   21.5956 C   0  0  0  0  0  0  0  0  0  0  0  0
    7.9309    1.5737   21.3739 O   0  0  0  0  0  0  0  0  0  0  0  0
    8.3172   -0.4407   22.7648 C   0  0  1  0  0  0  0  0  0  0  0  0
    7.6683   -0.0041   24.0997 C   0  0  0  0  0  0  0  0  0  0  0  0
    8.1147    1.3126   24.5157 N   0  0  0  0  0  0  0  0  0  0  0  0
    7.1585    2.3191   24.9238 C   0  0  0  0  0  0  0  0  0  0  0  0
    6.8896    3.3415   23.8542 C   0  0  0  0  0  0  0  0  0  0  0  0
    5.7367    3.6350   23.3481 N   0  0  0  0  0  0  0  0  0  0  0  0
    6.0194    4.6111   22.3982 C   0  0  0  0  0  0  0  0  0  0  0  0
    7.3433    4.8714   22.4247 C   0  0  0  0  0  0  0  0  0  0  0  0
    7.9128    4.0583   23.3595 O   0  0  0  0  0  0  0  0  0  0  0  0
    8.0094    5.5492   21.9165 H   0  0  0  0  0  0  0  0  0  0  0  0
    5.2507    5.0245   21.7585 H   0  0  0  0  0  0  0  0  0  0  0  0
    6.2065    1.8352   25.1480 H   0  0  0  0  0  0  0  0  0  0  0  0
    7.5356    2.8052   25.8284 H   0  0  0  0  0  0  0  0  0  0  0  0
    9.4487    1.6152   24.5887 C   0  0  0  0  0  0  0  0  0  0  0  0
    9.8744    2.5606   25.2347 O   0  0  0  0  0  0  0  0  0  0  0  0
   10.3461    0.7459   23.7632 C   0  0  0  0  0  0  0  0  0  0  0  0
   11.7231    0.9651   23.8315 C   0  0  0  0  0  0  0  0  0  0  0  0
   12.5808    0.3400   22.9471 C   0  0  0  0  0  0  0  0  0  0  0  0
   12.0175   -0.4610   21.9595 C   0  0  0  0  0  0  0  0  0  0  0  0
   12.7841   -0.9336   20.9648 F   0  0  0  0  0  0  0  0  0  0  0  0
   10.6741   -0.7559   21.9229 C   0  0  0  0  0  0  0  0  0  0  0  0
    9.8112   -0.1878   22.8642 C   0  0  0  0  0  0  0  0  0  0  0  0
   10.3367   -1.3901   21.1111 H   0  0  0  0  0  0  0  0  0  0  0  0
   13.6523    0.4948   22.9767 H   0  0  0  0  0  0  0  0  0  0  0  0
   12.0860    1.6774   24.5626 H   0  0  0  0  0  0  0  0  0  0  0  0
    7.9177   -0.7482   24.8720 H   0  0  0  0  0  0  0  0  0  0  0  0
    6.5818    0.0274   23.9610 H   0  0  0  0  0  0  0  0  0  0  0  0
    6.8597   -2.4843   20.5167 H   0  0  0  0  0  0  0  0  0  0  0  0
    5.7997   -1.9082   21.8097 H   0  0  0  0  0  0  0  0  0  0  0  0
    8.7863   -2.3288   21.8602 H   0  0  0  0  0  0  0  0  0  0  0  0
    6.6415   -2.5215   24.0383 H   0  0  0  0  0  0  0  0  0  0  0  0
    8.3473   -2.9436   24.2598 H   0  0  0  0  0  0  0  0  0  0  0  0
    7.3433   -3.8655   23.1314 H   0  0  0  0  0  0  0  0  0  0  0  0
  1  2  1  0
  2  3  1  0
  3  4  1  0
  4  5  1  0
  5  6  2  0
  6  7  1  0
  7  8  2  0
  8  9  1  0
  9 10  2  0
 10 11  1  0
 11 12  2  0
 12 13  1  0
 13 14  2  0
 13 15  1  0
 12 16  1  0
 11 17  1  0
 10 18  1  0
  8 19  1  0
  6 20  1  0
  4 21  1  0
 21 22  2  0
 21 23  1  0
 23 24  1  1
 24 25  1  0
 25 26  1  0
 26 27  1  0
 27 28  2  0
 28 29  1  0
 29 30  2  0
 30 31  1  0
 30 32  1  0
 29 33  1  0
 26 34  1  0
 26 35  1  0
 25 36  1  0
 36 37  2  0
 36 38  1  0
 38 39  2  0
 39 40  1  0
 40 41  2  0
 41 42  1  0
 41 43  1  0
 43 44  2  0
 43 45  1  0
 40 46  1  0
 39 47  1  0
 24 48  1  0
 24 49  1  0
  3 50  1  0
  3 51  1  0
  2 52  1  6
  1 53  1  0
  1 54  1  0
  1 55  1  0
 23  2  1  0
 31 27  1  0
 44 38  1  0
 14  5  1  0
 44 23  1  0
 14  9  1  0
M  END
>  <cnnaffinities>  (82) 
[6.67584, 6.66147, 6.65582, 6.32428]

>  <score>  (82) 
6.67584

>  <index>  (82) 
82

>  <Smiles>  (82) 
C([C@]1(C(N(c2c(nc(c3c(c(c(c(c23)[H])[H])[H])[H])[H])[H])C(=O)[C@]21C(N(C(c1nc(c(o1)[H])[H])([H])[H])C(=O)c1c(c(c(F)c(c21)[H])[H])[H])([H])[H])([H])[H])[H])([H])([H])[H]

>  <h>  (82) 
<NA>

>  <Training>  (82) 
True

>  <Success>  (82) 
True

>  <enamine_searched>  (82) 
False

>  <enamine_id>  (82) 
nan

$$$$

     RDKit          3D

 72 77  0  0  0  0  0  0  0  0999 V2000
    9.2277    6.0446   23.5286 C   0  0  0  0  0  0  0  0  0  0  0  0
    7.9915    6.0548   22.6383 C   0  0  2  0  0  0  0  0  0  0  0  0
    7.2514    7.3805   22.7291 C   0  0  0  0  0  0  0  0  0  0  0  0
    6.0652    7.3911   21.9657 O   0  0  0  0  0  0  0  0  0  0  0  0
    5.1491    6.4430   22.4699 C   0  0  0  0  0  0  0  0  0  0  0  0
    5.6826    5.0225   22.3713 C   0  0  1  0  0  0  0  0  0  0  0  0
    5.7366    4.6111   20.9110 C   0  0  0  0  0  0  0  0  0  0  0  0
    6.2174    3.6412   20.7731 H   0  0  0  0  0  0  0  0  0  0  0  0
    6.2821    5.3668   20.3454 H   0  0  0  0  0  0  0  0  0  0  0  0
    4.7335    4.5336   20.4950 H   0  0  0  0  0  0  0  0  0  0  0  0
    7.0457    4.9314   23.0298 N   0  0  0  0  0  4  0  0  0  0  0  0
    7.6636    3.5849   22.8753 C   0  0  0  0  0  0  0  0  0  0  0  0
    8.0795    2.9644   24.2046 C   0  0  0  0  0  0  0  0  0  0  0  0
    8.7612    1.6994   23.9764 N   0  0  0  0  0  0  0  0  0  0  0  0
    8.0064    0.4705   23.8160 C   0  0  0  0  0  0  0  0  0  0  0  0
    8.4511   -0.3786   22.5865 C   0  0  2  0  0  0  0  0  0  0  0  0
    7.9853    0.2564   21.2577 C   0  0  0  0  0  0  0  0  0  0  0  0
    8.5019    1.1880   20.6710 O   0  0  0  0  0  0  0  0  0  0  0  0
    6.8757   -0.4125   20.8111 N   0  0  0  0  0  0  0  0  0  0  0  0
    6.1193    0.1091   19.7345 C   0  0  0  0  0  0  0  0  0  0  0  0
    6.4680   -0.1872   18.4425 C   0  0  0  0  0  0  0  0  0  0  0  0
    5.7935    0.2567   17.3556 N   0  0  0  0  0  0  0  0  0  0  0  0
    4.7544    1.0310   17.5751 C   0  0  0  0  0  0  0  0  0  0  0  0
    4.2945    1.4225   18.8646 C   0  0  0  0  0  0  0  0  0  0  0  0
    3.1750    2.2765   19.0523 C   0  0  0  0  0  0  0  0  0  0  0  0
    2.7590    2.6249   20.3112 C   0  0  0  0  0  0  0  0  0  0  0  0
    3.4698    2.1688   21.4434 C   0  0  0  0  0  0  0  0  0  0  0  0
    4.5725    1.3613   21.2916 C   0  0  0  0  0  0  0  0  0  0  0  0
    4.9997    0.9513   19.9950 C   0  0  0  0  0  0  0  0  0  0  0  0
    5.1276    1.0418   22.1683 H   0  0  0  0  0  0  0  0  0  0  0  0
    3.1555    2.4759   22.4375 H   0  0  0  0  0  0  0  0  0  0  0  0
    1.9014    3.2803   20.4395 H   0  0  0  0  0  0  0  0  0  0  0  0
    2.6709    2.6577   18.1707 H   0  0  0  0  0  0  0  0  0  0  0  0
    4.2151    1.3931   16.7002 H   0  0  0  0  0  0  0  0  0  0  0  0
    7.3362   -0.8162   18.2536 H   0  0  0  0  0  0  0  0  0  0  0  0
    6.4501   -1.5023   21.6643 C   0  0  0  0  0  0  0  0  0  0  0  0
    7.6977   -1.7436   22.5360 C   0  0  2  0  0  0  0  0  0  0  0  0
    7.3909   -2.4155   23.8693 C   0  0  0  0  0  0  0  0  0  0  0  0
    8.3047   -2.5507   24.4577 H   0  0  0  0  0  0  0  0  0  0  0  0
    6.6904   -1.8232   24.4682 H   0  0  0  0  0  0  0  0  0  0  0  0
    6.9359   -3.4000   23.7143 H   0  0  0  0  0  0  0  0  0  0  0  0
    8.3351   -2.4206   21.9639 H   0  0  0  0  0  0  0  0  0  0  0  0
    6.1747   -2.3861   21.0728 H   0  0  0  0  0  0  0  0  0  0  0  0
    5.5709   -1.2227   22.2651 H   0  0  0  0  0  0  0  0  0  0  0  0
    9.9628   -0.4471   22.5382 C   0  0  0  0  0  0  0  0  0  0  0  0
   10.5943   -1.3622   21.6832 C   0  0  0  0  0  0  0  0  0  0  0  0
   11.9547   -1.2878   21.4636 C   0  0  0  0  0  0  0  0  0  0  0  0
   12.6309   -2.3106   20.2157 Cl  0  0  0  0  0  0  0  0  0  0  0  0
   12.7454   -0.3725   22.1686 C   0  0  0  0  0  0  0  0  0  0  0  0
   12.1353    0.5081   23.0400 C   0  0  0  0  0  0  0  0  0  0  0  0
   10.7449    0.5410   23.1471 C   0  0  0  0  0  0  0  0  0  0  0  0
   10.1155    1.7351   23.8080 C   0  0  0  0  0  0  0  0  0  0  0  0
   10.7921    2.7091   24.1204 O   0  0  0  0  0  0  0  0  0  0  0  0
   12.7180    1.2029   23.6369 H   0  0  0  0  0  0  0  0  0  0  0  0
   13.8142   -0.3203   22.0108 H   0  0  0  0  0  0  0  0  0  0  0  0
   10.0540   -2.1152   21.1211 H   0  0  0  0  0  0  0  0  0  0  0  0
    6.9409    0.7117   23.7232 H   0  0  0  0  0  0  0  0  0  0  0  0
    8.1332   -0.1404   24.7201 H   0  0  0  0  0  0  0  0  0  0  0  0
    8.7718    3.6118   24.7451 H   0  0  0  0  0  0  0  0  0  0  0  0
    7.1853    2.8115   24.8244 H   0  0  0  0  0  0  0  0  0  0  0  0
    8.5206    3.6518   22.1976 H   0  0  0  0  0  0  0  0  0  0  0  0
    6.9466    2.9027   22.4122 H   0  0  0  0  0  0  0  0  0  0  0  0
    6.8790    5.0476   24.0431 H   0  0  0  0  0  0  0  0  0  0  0  0
    5.0158    4.3427   22.9142 H   0  0  0  0  0  0  0  0  0  0  0  0
    4.2503    6.5285   21.8524 H   0  0  0  0  0  0  0  0  0  0  0  0
    4.8848    6.6755   23.5112 H   0  0  0  0  0  0  0  0  0  0  0  0
    7.0138    7.5830   23.7870 H   0  0  0  0  0  0  0  0  0  0  0  0
    7.8840    8.1848   22.3429 H   0  0  0  0  0  0  0  0  0  0  0  0
    8.2855    5.8902   21.5969 H   0  0  0  0  0  0  0  0  0  0  0  0
    9.8482    5.1582   23.3671 H   0  0  0  0  0  0  0  0  0  0  0  0
    9.8490    6.9244   23.3429 H   0  0  0  0  0  0  0  0  0  0  0  0
    8.9310    6.0607   24.5855 H   0  0  0  0  0  0  0  0  0  0  0  0
  1  2  1  0
  2  3  1  0
  3  4  1  0
  4  5  1  0
  5  6  1  0
  6  7  1  0
  7  8  1  0
  7  9  1  0
  7 10  1  0
  6 11  1  0
 11 12  1  0
 12 13  1  0
 13 14  1  0
 14 15  1  0
 16 15  1  1
 16 17  1  0
 17 18  2  0
 17 19  1  0
 19 20  1  0
 20 21  2  0
 21 22  1  0
 22 23  2  0
 23 24  1  0
 24 25  2  0
 25 26  1  0
 26 27  2  0
 27 28  1  0
 28 29  2  0
 28 30  1  0
 27 31  1  0
 26 32  1  0
 25 33  1  0
 23 34  1  0
 21 35  1  0
 19 36  1  0
 36 37  1  0
 37 38  1  0
 38 39  1  0
 38 40  1  0
 38 41  1  0
 37 42  1  6
 36 43  1  0
 36 44  1  0
 16 45  1  0
 45 46  2  0
 46 47  1  0
 47 48  1  0
 47 49  2  0
 49 50  1  0
 50 51  2  0
 51 52  1  0
 52 53  2  0
 50 54  1  0
 49 55  1  0
 46 56  1  0
 15 57  1  0
 15 58  1  0
 13 59  1  0
 13 60  1  0
 12 61  1  0
 12 62  1  0
 11 63  1  0
  6 64  1  1
  5 65  1  0
  5 66  1  0
  3 67  1  0
  3 68  1  0
  2 69  1  6
  1 70  1  0
  1 71  1  0
  1 72  1  0
 11  2  1  0
 52 14  1  0
 37 16  1  0
 51 45  1  0
 29 20  1  0
 29 24  1  0
M  CHG  1  11   1
M  END
>  <cnnaffinities>  (83) 
[6.81758, 6.92223, 6.92419, 7.08275]

>  <score>  (83) 
6.81758

>  <index>  (83) 
83

>  <Smiles>  (83) 
C([C@@]1(C(OC([C@@](C([H])([H])[H])([N+]1(C(C(N1C([C@@]2(C(=O)N(c3c(nc(c4c(c(c(c(c34)[H])[H])[H])[H])[H])[H])C([C@@]2(C([H])([H])[H])[H])([H])[H])c2c(c(Cl)c(c(c2C1=O)[H])[H])[H])([H])[H])([H])[H])([H])[H])[H])[H])([H])[H])([H])[H])[H])([H])([H])[H]

>  <h>  (83) 
<NA>

>  <Training>  (83) 
True

>  <Success>  (83) 
True

>  <enamine_searched>  (83) 
False

>  <enamine_id>  (83) 
nan

$$$$

     RDKit          3D

 60 65  0  0  0  0  0  0  0  0999 V2000
    6.9149    1.8612   28.6174 C   0  0  0  0  0  0  0  0  0  0  0  0
    7.5011    1.8808   27.2921 N   0  0  0  0  0  0  0  0  0  0  0  0
    6.7858    2.4584   26.3069 C   0  0  0  0  0  0  0  0  0  0  0  0
    5.6851    2.9538   26.5162 O   0  0  0  0  0  0  0  0  0  0  0  0
    7.4009    2.5199   24.9283 C   0  0  0  0  0  0  0  0  0  0  0  0
    8.2499    1.4649   24.4722 N   0  0  0  0  0  0  0  0  0  0  0  0
    7.6143    0.2155   24.0977 C   0  0  0  0  0  0  0  0  0  0  0  0
    8.2184   -0.3857   22.8085 C   0  0  2  0  0  0  0  0  0  0  0  0
    7.7386    0.3818   21.5528 C   0  0  0  0  0  0  0  0  0  0  0  0
    8.0474    1.5048   21.2172 O   0  0  0  0  0  0  0  0  0  0  0  0
    6.9070   -0.4366   20.8229 N   0  0  0  0  0  0  0  0  0  0  0  0
    6.1298    0.0866   19.7596 C   0  0  0  0  0  0  0  0  0  0  0  0
    6.4494   -0.2346   18.4675 C   0  0  0  0  0  0  0  0  0  0  0  0
    5.7765    0.2170   17.3805 N   0  0  0  0  0  0  0  0  0  0  0  0
    4.7555    1.0122   17.5920 C   0  0  0  0  0  0  0  0  0  0  0  0
    4.3107    1.4124   18.8844 C   0  0  0  0  0  0  0  0  0  0  0  0
    3.1929    2.2707   19.0567 C   0  0  0  0  0  0  0  0  0  0  0  0
    2.7746    2.6246   20.3103 C   0  0  0  0  0  0  0  0  0  0  0  0
    3.4491    2.1309   21.4490 C   0  0  0  0  0  0  0  0  0  0  0  0
    4.5310    1.2971   21.3090 C   0  0  0  0  0  0  0  0  0  0  0  0
    5.0054    0.9316   20.0136 C   0  0  0  0  0  0  0  0  0  0  0  0
    5.0293    0.9155   22.1958 H   0  0  0  0  0  0  0  0  0  0  0  0
    3.1099    2.4175   22.4414 H   0  0  0  0  0  0  0  0  0  0  0  0
    1.9222    3.2852   20.4370 H   0  0  0  0  0  0  0  0  0  0  0  0
    2.6840    2.6389   18.1707 H   0  0  0  0  0  0  0  0  0  0  0  0
    4.2142    1.3770   16.7181 H   0  0  0  0  0  0  0  0  0  0  0  0
    7.3008   -0.8821   18.2630 H   0  0  0  0  0  0  0  0  0  0  0  0
    6.6037   -1.6951   21.4687 C   0  0  0  0  0  0  0  0  0  0  0  0
    7.7056   -1.8363   22.5320 C   0  0  2  0  0  0  0  0  0  0  0  0
    7.2567   -2.6627   23.7369 C   0  0  0  0  0  0  0  0  0  0  0  0
    6.3858   -2.2172   24.2313 H   0  0  0  0  0  0  0  0  0  0  0  0
    6.9721   -3.6724   23.4227 H   0  0  0  0  0  0  0  0  0  0  0  0
    8.0535   -2.7630   24.4827 H   0  0  0  0  0  0  0  0  0  0  0  0
    8.5370   -2.3786   22.0759 H   0  0  0  0  0  0  0  0  0  0  0  0
    5.6022   -1.6864   21.9296 H   0  0  0  0  0  0  0  0  0  0  0  0
    6.6238   -2.5081   20.7373 H   0  0  0  0  0  0  0  0  0  0  0  0
    9.7280   -0.2748   22.8782 C   0  0  0  0  0  0  0  0  0  0  0  0
   10.4888   -0.9611   21.9292 C   0  0  0  0  0  0  0  0  0  0  0  0
   11.8487   -0.7702   21.8658 C   0  0  0  0  0  0  0  0  0  0  0  0
   12.6691   -1.4047   20.4721 Cl  0  0  0  0  0  0  0  0  0  0  0  0
   12.5322   -0.0366   22.8360 C   0  0  0  0  0  0  0  0  0  0  0  0
   11.7875    0.6707   23.7626 C   0  0  0  0  0  0  0  0  0  0  0  0
   10.3914    0.6217   23.7253 C   0  0  0  0  0  0  0  0  0  0  0  0
    9.6201    1.5985   24.5512 C   0  0  0  0  0  0  0  0  0  0  0  0
   10.1440    2.4885   25.2046 O   0  0  0  0  0  0  0  0  0  0  0  0
   12.2479    1.3372   24.4838 H   0  0  0  0  0  0  0  0  0  0  0  0
   13.6105    0.0154   22.8072 H   0  0  0  0  0  0  0  0  0  0  0  0
   10.0668   -1.6307   21.1874 H   0  0  0  0  0  0  0  0  0  0  0  0
    6.5482    0.4095   23.9558 H   0  0  0  0  0  0  0  0  0  0  0  0
    7.7350   -0.5122   24.9126 H   0  0  0  0  0  0  0  0  0  0  0  0
    7.6069    3.9217   24.4222 C   0  0  0  0  0  0  0  0  0  0  0  0
    6.4546    3.1096   23.9189 C   0  0  0  0  0  0  0  0  0  0  0  0
    6.5338    2.7157   22.9109 H   0  0  0  0  0  0  0  0  0  0  0  0
    5.4659    3.3246   24.3159 H   0  0  0  0  0  0  0  0  0  0  0  0
    7.4213    4.7266   25.1300 H   0  0  0  0  0  0  0  0  0  0  0  0
    8.4481    4.0733   23.7493 H   0  0  0  0  0  0  0  0  0  0  0  0
    8.4849    1.6959   27.1741 H   0  0  0  0  0  0  0  0  0  0  0  0
    5.8837    1.5083   28.5401 H   0  0  0  0  0  0  0  0  0  0  0  0
    7.4724    1.1732   29.2454 H   0  0  0  0  0  0  0  0  0  0  0  0
    6.9007    2.8644   29.0661 H   0  0  0  0  0  0  0  0  0  0  0  0
  1  2  1  0
  2  3  1  0
  3  4  2  0
  3  5  1  0
  5  6  1  0
  6  7  1  0
  8  7  1  1
  8  9  1  0
  9 10  2  0
  9 11  1  0
 11 12  1  0
 12 13  2  0
 13 14  1  0
 14 15  2  0
 15 16  1  0
 16 17  2  0
 17 18  1  0
 18 19  2  0
 19 20  1  0
 20 21  2  0
 20 22  1  0
 19 23  1  0
 18 24  1  0
 17 25  1  0
 15 26  1  0
 13 27  1  0
 11 28  1  0
 28 29  1  0
 29 30  1  0
 30 31  1  0
 30 32  1  0
 30 33  1  0
 29 34  1  6
 28 35  1  0
 28 36  1  0
  8 37  1  0
 37 38  2  0
 38 39  1  0
 39 40  1  0
 39 41  2  0
 41 42  1  0
 42 43  2  0
 43 44  1  0
 44 45  2  0
 42 46  1  0
 41 47  1  0
 38 48  1  0
  7 49  1  0
  7 50  1  0
  5 51  1  0
 51 52  1  0
 52 53  1  0
 52 54  1  0
 51 55  1  0
 51 56  1  0
  2 57  1  0
  1 58  1  0
  1 59  1  0
  1 60  1  0
 52  5  1  0
 44  6  1  0
 29  8  1  0
 43 37  1  0
 21 12  1  0
 21 16  1  0
M  END
>  <cnnaffinities>  (84) 
[6.32434, 6.62486]

>  <score>  (84) 
6.32434

>  <index>  (84) 
84

>  <Smiles>  (84) 
C(N(C(=O)C1(N2C([C@@]3(C(=O)N(c4c(nc(c5c(c(c(c(c45)[H])[H])[H])[H])[H])[H])C([C@@]3(C([H])([H])[H])[H])([H])[H])c3c(c(Cl)c(c(c3C2=O)[H])[H])[H])([H])[H])C(C1([H])[H])([H])[H])[H])([H])([H])[H]

>  <h>  (84) 
<NA>

>  <Training>  (84) 
True

>  <Success>  (84) 
True

>  <enamine_searched>  (84) 
False

>  <enamine_id>  (84) 
nan

$$$$

     RDKit          3D

 55 60  0  0  0  0  0  0  0  0999 V2000
    7.0199   -2.4388   23.5064 C   0  0  0  0  0  0  0  0  0  0  0  0
    7.9298   -1.8530   22.4138 C   0  0  1  0  0  0  0  0  0  0  0  0
    7.1818   -1.7791   21.0633 C   0  0  0  0  0  0  0  0  0  0  0  0
    6.8904   -0.3746   20.8719 N   0  0  0  0  0  0  0  0  0  0  0  0
    6.1298    0.1074   19.7783 C   0  0  0  0  0  0  0  0  0  0  0  0
    6.4432   -0.2273   18.4824 C   0  0  0  0  0  0  0  0  0  0  0  0
    5.7722    0.2208   17.3916 N   0  0  0  0  0  0  0  0  0  0  0  0
    4.7493    1.0172   17.5952 C   0  0  0  0  0  0  0  0  0  0  0  0
    4.2952    1.4179   18.8842 C   0  0  0  0  0  0  0  0  0  0  0  0
    3.1675    2.2685   19.0550 C   0  0  0  0  0  0  0  0  0  0  0  0
    2.7383    2.6064   20.3099 C   0  0  0  0  0  0  0  0  0  0  0  0
    3.4083    2.1016   21.4457 C   0  0  0  0  0  0  0  0  0  0  0  0
    4.4988    1.2813   21.3062 C   0  0  0  0  0  0  0  0  0  0  0  0
    4.9878    0.9386   20.0155 C   0  0  0  0  0  0  0  0  0  0  0  0
    5.0062    0.9014   22.1842 H   0  0  0  0  0  0  0  0  0  0  0  0
    3.0829    2.3944   22.4405 H   0  0  0  0  0  0  0  0  0  0  0  0
    1.8895    3.2719   20.4402 H   0  0  0  0  0  0  0  0  0  0  0  0
    2.6641    2.6440   18.1680 H   0  0  0  0  0  0  0  0  0  0  0  0
    4.2232    1.3807   16.7127 H   0  0  0  0  0  0  0  0  0  0  0  0
    7.2923   -0.8726   18.2622 H   0  0  0  0  0  0  0  0  0  0  0  0
    7.6694    0.4585   21.6508 C   0  0  0  0  0  0  0  0  0  0  0  0
    7.7251    1.6608   21.5187 O   0  0  0  0  0  0  0  0  0  0  0  0
    8.4746   -0.4031   22.6598 C   0  0  1  0  0  0  0  0  0  0  0  0
    8.2512    0.0685   24.1172 C   0  0  0  0  0  0  0  0  0  0  0  0
    8.8435    1.3621   24.3899 N   0  0  0  0  0  0  0  0  0  0  0  0
    8.0680    2.3771   25.0923 C   0  0  0  0  0  0  0  0  0  0  0  0
    7.4210    3.3712   24.1701 C   0  0  0  0  0  0  0  0  0  0  0  0
    7.9897    4.4449   23.5811 C   0  0  0  0  0  0  0  0  0  0  0  0
    7.0686    5.0332   22.7706 O   0  0  0  0  0  0  0  0  0  0  0  0
    5.9699    4.2669   22.9099 C   0  0  0  0  0  0  0  0  0  0  0  0
    6.0975    3.2772   23.7314 N   0  0  0  0  0  0  0  0  0  0  0  0
    5.1181    4.5630   22.3098 H   0  0  0  0  0  0  0  0  0  0  0  0
    8.9632    4.9051   23.6201 H   0  0  0  0  0  0  0  0  0  0  0  0
    8.7630    2.8901   25.7632 H   0  0  0  0  0  0  0  0  0  0  0  0
    7.2983    1.8733   25.6866 H   0  0  0  0  0  0  0  0  0  0  0  0
   10.1064    1.6913   23.9809 C   0  0  0  0  0  0  0  0  0  0  0  0
   10.6807    2.6957   24.3890 O   0  0  0  0  0  0  0  0  0  0  0  0
   10.7223    0.7587   22.9792 C   0  0  0  0  0  0  0  0  0  0  0  0
   12.0628    0.9519   22.6395 C   0  0  0  0  0  0  0  0  0  0  0  0
   12.6579    0.1643   21.6738 C   0  0  0  0  0  0  0  0  0  0  0  0
   11.8941   -0.8080   21.0414 C   0  0  0  0  0  0  0  0  0  0  0  0
   12.4815   -1.5319   20.0731 F   0  0  0  0  0  0  0  0  0  0  0  0
   10.5583   -1.0023   21.3379 C   0  0  0  0  0  0  0  0  0  0  0  0
    9.9628   -0.2385   22.3504 C   0  0  0  0  0  0  0  0  0  0  0  0
    9.9902   -1.7138   20.7501 H   0  0  0  0  0  0  0  0  0  0  0  0
   13.6854    0.2995   21.3611 H   0  0  0  0  0  0  0  0  0  0  0  0
   12.6085    1.7410   23.1455 H   0  0  0  0  0  0  0  0  0  0  0  0
    7.1808    0.1718   24.3024 H   0  0  0  0  0  0  0  0  0  0  0  0
    8.6730   -0.6931   24.7929 H   0  0  0  0  0  0  0  0  0  0  0  0
    6.2507   -2.3567   21.0740 H   0  0  0  0  0  0  0  0  0  0  0  0
    7.8093   -2.1499   20.2488 H   0  0  0  0  0  0  0  0  0  0  0  0
    8.7869   -2.5306   22.3296 H   0  0  0  0  0  0  0  0  0  0  0  0
    6.6970   -3.4459   23.2208 H   0  0  0  0  0  0  0  0  0  0  0  0
    7.5377   -2.5295   24.4659 H   0  0  0  0  0  0  0  0  0  0  0  0
    6.1207   -1.8310   23.6572 H   0  0  0  0  0  0  0  0  0  0  0  0
  1  2  1  0
  2  3  1  0
  3  4  1  0
  4  5  1  0
  5  6  2  0
  6  7  1  0
  7  8  2  0
  8  9  1  0
  9 10  2  0
 10 11  1  0
 11 12  2  0
 12 13  1  0
 13 14  2  0
 13 15  1  0
 12 16  1  0
 11 17  1  0
 10 18  1  0
  8 19  1  0
  6 20  1  0
  4 21  1  0
 21 22  2  0
 21 23  1  0
 23 24  1  1
 24 25  1  0
 25 26  1  0
 26 27  1  0
 27 28  2  0
 28 29  1  0
 29 30  1  0
 30 31  2  0
 30 32  1  0
 28 33  1  0
 26 34  1  0
 26 35  1  0
 25 36  1  0
 36 37  2  0
 36 38  1  0
 38 39  2  0
 39 40  1  0
 40 41  2  0
 41 42  1  0
 41 43  1  0
 43 44  2  0
 43 45  1  0
 40 46  1  0
 39 47  1  0
 24 48  1  0
 24 49  1  0
  3 50  1  0
  3 51  1  0
  2 52  1  6
  1 53  1  0
  1 54  1  0
  1 55  1  0
 23  2  1  0
 31 27  1  0
 44 38  1  0
 14  5  1  0
 44 23  1  0
 14  9  1  0
M  END
>  <cnnaffinities>  (85) 
[6.59842, 6.17153]

>  <score>  (85) 
6.59842

>  <index>  (85) 
85

>  <Smiles>  (85) 
C([C@]1(C(N(c2c(nc(c3c(c(c(c(c23)[H])[H])[H])[H])[H])[H])C(=O)[C@]21C(N(C(c1c(oc(n1)[H])[H])([H])[H])C(=O)c1c(c(c(F)c(c21)[H])[H])[H])([H])[H])([H])[H])[H])([H])([H])[H]

>  <h>  (85) 
<NA>

>  <Training>  (85) 
True

>  <Success>  (85) 
True

>  <enamine_searched>  (85) 
False

>  <enamine_id>  (85) 
nan

$$$$

     RDKit          3D

 65 70  0  0  0  0  0  0  0  0999 V2000
    2.5163   -5.6255   22.5726 C   0  0  0  0  0  0  0  0  0  0  0  0
    3.7067   -5.4617   23.3780 N   0  0  0  0  0  0  0  0  0  0  0  0
    4.9106   -5.3216   22.7555 C   0  0  0  0  0  0  0  0  0  0  0  0
    5.0494   -5.3353   21.5425 O   0  0  0  0  0  0  0  0  0  0  0  0
    6.1199   -5.1340   23.6733 C   0  0  0  0  0  0  0  0  0  0  0  0
    6.3956   -3.7169   23.8740 N   0  0  0  0  0  0  0  0  0  0  0  0
    7.5251   -3.1181   23.1784 C   0  0  0  0  0  0  0  0  0  0  0  0
    7.3406   -1.6073   22.8707 C   0  0  2  0  0  0  0  0  0  0  0  0
    6.3416   -1.4083   21.7124 C   0  0  0  0  0  0  0  0  0  0  0  0
    5.2520   -1.9232   21.5851 O   0  0  0  0  0  0  0  0  0  0  0  0
    6.8682   -0.4930   20.8336 N   0  0  0  0  0  0  0  0  0  0  0  0
    6.1117    0.0545   19.7708 C   0  0  0  0  0  0  0  0  0  0  0  0
    6.4658   -0.2191   18.4739 C   0  0  0  0  0  0  0  0  0  0  0  0
    5.8024    0.2343   17.3821 N   0  0  0  0  0  0  0  0  0  0  0  0
    4.7636    1.0065   17.5952 C   0  0  0  0  0  0  0  0  0  0  0  0
    4.3079    1.3964   18.8872 C   0  0  0  0  0  0  0  0  0  0  0  0
    3.1937    2.2603   19.0485 C   0  0  0  0  0  0  0  0  0  0  0  0
    2.7950    2.6490   20.2967 C   0  0  0  0  0  0  0  0  0  0  0  0
    3.4953    2.1990   21.4395 C   0  0  0  0  0  0  0  0  0  0  0  0
    4.5767    1.3624   21.3157 C   0  0  0  0  0  0  0  0  0  0  0  0
    5.0005    0.9237   20.0236 C   0  0  0  0  0  0  0  0  0  0  0  0
    5.1136    1.0386   22.2094 H   0  0  0  0  0  0  0  0  0  0  0  0
    3.1727    2.5264   22.4237 H   0  0  0  0  0  0  0  0  0  0  0  0
    1.9447    3.3141   20.4184 H   0  0  0  0  0  0  0  0  0  0  0  0
    2.6789    2.6095   18.1579 H   0  0  0  0  0  0  0  0  0  0  0  0
    4.2293    1.3748   16.7196 H   0  0  0  0  0  0  0  0  0  0  0  0
    7.3215   -0.8655   18.2788 H   0  0  0  0  0  0  0  0  0  0  0  0
    8.1998   -0.0390   21.1548 C   0  0  0  0  0  0  0  0  0  0  0  0
    8.6364   -0.9325   22.3300 C   0  0  2  0  0  0  0  0  0  0  0  0
    9.7642   -1.8849   21.8805 C   0  0  0  0  0  0  0  0  0  0  0  0
   10.9260   -1.1517   21.4117 N   0  0  0  0  0  0  0  0  0  0  0  0
   11.8172   -0.5976   22.2645 C   0  0  0  0  0  0  0  0  0  0  0  0
   12.8529    0.0771   21.7208 N   0  0  0  0  0  0  0  0  0  0  0  0
   13.6901    0.5761   22.6107 C   0  0  0  0  0  0  0  0  0  0  0  0
   13.6070    0.4837   23.9430 N   0  0  0  0  0  0  0  0  0  0  0  0
   12.5339   -0.1879   24.3521 C   0  0  0  0  0  0  0  0  0  0  0  0
   11.5930   -0.7224   23.5876 N   0  0  0  0  0  0  0  0  0  0  0  0
   12.4081   -0.3029   25.4283 H   0  0  0  0  0  0  0  0  0  0  0  0
   14.5438    1.1244   22.2117 H   0  0  0  0  0  0  0  0  0  0  0  0
   11.2419   -1.2786   20.4620 H   0  0  0  0  0  0  0  0  0  0  0  0
    9.4233   -2.5396   21.0747 H   0  0  0  0  0  0  0  0  0  0  0  0
   10.0857   -2.5028   22.7205 H   0  0  0  0  0  0  0  0  0  0  0  0
    9.0796   -0.3330   23.1280 H   0  0  0  0  0  0  0  0  0  0  0  0
    8.2028    1.0296   21.4139 H   0  0  0  0  0  0  0  0  0  0  0  0
    8.8507   -0.1615   20.2903 H   0  0  0  0  0  0  0  0  0  0  0  0
    6.7849   -0.9117   24.1110 C   0  0  0  0  0  0  0  0  0  0  0  0
    6.9622    0.4616   24.3342 C   0  0  0  0  0  0  0  0  0  0  0  0
    6.4298    1.0504   25.4717 C   0  0  0  0  0  0  0  0  0  0  0  0
    6.6734    2.7568   25.7437 Cl  0  0  0  0  0  0  0  0  0  0  0  0
    5.7000    0.3172   26.4071 C   0  0  0  0  0  0  0  0  0  0  0  0
    5.4683   -1.0180   26.1528 C   0  0  0  0  0  0  0  0  0  0  0  0
    5.9856   -1.6221   25.0097 C   0  0  0  0  0  0  0  0  0  0  0  0
    5.6183   -3.0454   24.7570 C   0  0  0  0  0  0  0  0  0  0  0  0
    4.6579   -3.5791   25.3179 O   0  0  0  0  0  0  0  0  0  0  0  0
    4.8841   -1.6266   26.8322 H   0  0  0  0  0  0  0  0  0  0  0  0
    5.3087    0.8037   27.2951 H   0  0  0  0  0  0  0  0  0  0  0  0
    7.5118    1.0912   23.6367 H   0  0  0  0  0  0  0  0  0  0  0  0
    8.4366   -3.2562   23.7764 H   0  0  0  0  0  0  0  0  0  0  0  0
    7.6320   -3.6683   22.2410 H   0  0  0  0  0  0  0  0  0  0  0  0
    6.9766   -5.5827   23.1624 H   0  0  0  0  0  0  0  0  0  0  0  0
    5.9915   -5.6178   24.6494 H   0  0  0  0  0  0  0  0  0  0  0  0
    3.6038   -5.0600   24.3040 H   0  0  0  0  0  0  0  0  0  0  0  0
    1.6477   -5.6454   23.2308 H   0  0  0  0  0  0  0  0  0  0  0  0
    2.3841   -4.8371   21.8306 H   0  0  0  0  0  0  0  0  0  0  0  0
    2.5673   -6.5659   22.0274 H   0  0  0  0  0  0  0  0  0  0  0  0
  1  2  1  0
  2  3  1  0
  3  4  2  0
  3  5  1  0
  5  6  1  0
  6  7  1  0
  8  7  1  1
  8  9  1  0
  9 10  2  0
  9 11  1  0
 11 12  1  0
 12 13  2  0
 13 14  1  0
 14 15  2  0
 15 16  1  0
 16 17  2  0
 17 18  1  0
 18 19  2  0
 19 20  1  0
 20 21  2  0
 20 22  1  0
 19 23  1  0
 18 24  1  0
 17 25  1  0
 15 26  1  0
 13 27  1  0
 11 28  1  0
 28 29  1  0
 29 30  1  0
 30 31  1  0
 31 32  1  0
 32 33  2  0
 33 34  1  0
 34 35  2  0
 35 36  1  0
 36 37  2  0
 36 38  1  0
 34 39  1  0
 31 40  1  0
 30 41  1  0
 30 42  1  0
 29 43  1  1
 28 44  1  0
 28 45  1  0
  8 46  1  0
 46 47  2  0
 47 48  1  0
 48 49  1  0
 48 50  2  0
 50 51  1  0
 51 52  2  0
 52 53  1  0
 53 54  2  0
 51 55  1  0
 50 56  1  0
 47 57  1  0
  7 58  1  0
  7 59  1  0
  5 60  1  0
  5 61  1  0
  2 62  1  0
  1 63  1  0
  1 64  1  0
  1 65  1  0
 53  6  1  0
 29  8  1  0
 37 32  1  0
 52 46  1  0
 21 12  1  0
 21 16  1  0
M  END
>  <cnnaffinities>  (86) 
[7.35454, 7.34967]

>  <score>  (86) 
7.35454

>  <index>  (86) 
86

>  <Smiles>  (86) 
C(N(C(=O)C(N1C([C@@]2(C(=O)N(c3c(nc(c4c(c(c(c(c34)[H])[H])[H])[H])[H])[H])C([C@@]2(C(N(c2nc(nc(n2)[H])[H])[H])([H])[H])[H])([H])[H])c2c(c(Cl)c(c(c2C1=O)[H])[H])[H])([H])[H])([H])[H])[H])([H])([H])[H]

>  <h>  (86) 
<NA>

>  <Training>  (86) 
True

>  <Success>  (86) 
True

>  <enamine_searched>  (86) 
False

>  <enamine_id>  (86) 
nan

$$$$

     RDKit          3D

 63 68  0  0  0  0  0  0  0  0999 V2000
    7.5214   -8.4368   23.0781 C   0  0  0  0  0  0  0  0  0  0  0  0
    6.5726   -7.3855   22.7812 N   0  0  0  0  0  0  0  0  0  0  0  0
    6.7921   -6.5584   21.7282 C   0  0  0  0  0  0  0  0  0  0  0  0
    7.5833   -6.8007   20.8377 O   0  0  0  0  0  0  0  0  0  0  0  0
    6.0282   -5.2370   21.7357 C   0  0  0  0  0  0  0  0  0  0  0  0
    6.6111   -4.2963   22.6747 N   0  0  0  0  0  0  0  0  0  0  0  0
    7.7020   -3.4089   22.2947 C   0  0  0  0  0  0  0  0  0  0  0  0
    7.3671   -1.9404   22.6665 C   0  0  2  0  0  0  0  0  0  0  0  0
    6.2889   -1.4427   21.6755 C   0  0  0  0  0  0  0  0  0  0  0  0
    5.1474   -1.8409   21.5691 O   0  0  0  0  0  0  0  0  0  0  0  0
    6.8548   -0.4835   20.8586 N   0  0  0  0  0  0  0  0  0  0  0  0
    6.1294    0.0761   19.7856 C   0  0  0  0  0  0  0  0  0  0  0  0
    6.4768   -0.2155   18.4899 C   0  0  0  0  0  0  0  0  0  0  0  0
    5.8129    0.2283   17.3944 N   0  0  0  0  0  0  0  0  0  0  0  0
    4.7761    1.0040   17.6024 C   0  0  0  0  0  0  0  0  0  0  0  0
    4.3221    1.4035   18.8905 C   0  0  0  0  0  0  0  0  0  0  0  0
    3.2006    2.2593   19.0437 C   0  0  0  0  0  0  0  0  0  0  0  0
    2.7925    2.6484   20.2894 C   0  0  0  0  0  0  0  0  0  0  0  0
    3.4866    2.2044   21.4372 C   0  0  0  0  0  0  0  0  0  0  0  0
    4.5738    1.3754   21.3150 C   0  0  0  0  0  0  0  0  0  0  0  0
    5.0136    0.9412   20.0297 C   0  0  0  0  0  0  0  0  0  0  0  0
    5.0988    1.0394   22.2039 H   0  0  0  0  0  0  0  0  0  0  0  0
    3.1577    2.5298   22.4210 H   0  0  0  0  0  0  0  0  0  0  0  0
    1.9409    3.3134   20.4046 H   0  0  0  0  0  0  0  0  0  0  0  0
    2.6886    2.6054   18.1495 H   0  0  0  0  0  0  0  0  0  0  0  0
    4.2354    1.3599   16.7262 H   0  0  0  0  0  0  0  0  0  0  0  0
    7.3232   -0.8739   18.2978 H   0  0  0  0  0  0  0  0  0  0  0  0
    8.3013   -0.4051   20.9841 C   0  0  0  0  0  0  0  0  0  0  0  0
    8.5456   -0.9651   22.3879 C   0  0  2  0  0  0  0  0  0  0  0  0
    9.9329   -1.5872   22.5755 C   0  0  0  0  0  0  0  0  0  0  0  0
   11.0268   -0.6445   22.4146 N   0  0  0  0  0  0  0  0  0  0  0  0
   11.9893   -0.6639   21.4594 C   0  0  0  0  0  0  0  0  0  0  0  0
   12.8466    0.3783   21.7312 C   0  0  0  0  0  0  0  0  0  0  0  0
   12.3211    0.9571   22.9017 C   0  0  0  0  0  0  0  0  0  0  0  0
   11.2185    0.3338   23.3114 N   0  0  0  0  0  0  0  0  0  0  0  0
   12.7343    1.7830   23.4677 H   0  0  0  0  0  0  0  0  0  0  0  0
   13.7452    0.6614   21.2012 H   0  0  0  0  0  0  0  0  0  0  0  0
   12.0025   -1.4085   20.6758 H   0  0  0  0  0  0  0  0  0  0  0  0
   10.0794   -2.3763   21.8303 H   0  0  0  0  0  0  0  0  0  0  0  0
    9.9946   -2.0155   23.5829 H   0  0  0  0  0  0  0  0  0  0  0  0
    8.4620   -0.1304   23.0849 H   0  0  0  0  0  0  0  0  0  0  0  0
    8.8174   -1.0101   20.2230 H   0  0  0  0  0  0  0  0  0  0  0  0
    8.6368    0.6312   20.8818 H   0  0  0  0  0  0  0  0  0  0  0  0
    6.8790   -1.9292   24.1042 C   0  0  0  0  0  0  0  0  0  0  0  0
    6.8421   -0.7413   24.8447 C   0  0  0  0  0  0  0  0  0  0  0  0
    6.3831   -0.7487   26.1492 C   0  0  0  0  0  0  0  0  0  0  0  0
    6.3423    0.7559   27.0282 Cl  0  0  0  0  0  0  0  0  0  0  0  0
    5.9587   -1.9171   26.7818 C   0  0  0  0  0  0  0  0  0  0  0  0
    5.9613   -3.0833   26.0490 C   0  0  0  0  0  0  0  0  0  0  0  0
    6.3791   -3.0843   24.7233 C   0  0  0  0  0  0  0  0  0  0  0  0
    6.1596   -4.3312   23.9511 C   0  0  0  0  0  0  0  0  0  0  0  0
    5.5443   -5.3014   24.4056 O   0  0  0  0  0  0  0  0  0  0  0  0
    5.6124   -4.0157   26.4738 H   0  0  0  0  0  0  0  0  0  0  0  0
    5.6187   -1.8939   27.8115 H   0  0  0  0  0  0  0  0  0  0  0  0
    7.1599    0.2045   24.4185 H   0  0  0  0  0  0  0  0  0  0  0  0
    7.8583   -3.4999   21.2216 H   0  0  0  0  0  0  0  0  0  0  0  0
    8.6340   -3.7153   22.7925 H   0  0  0  0  0  0  0  0  0  0  0  0
    4.9780   -5.3956   22.0081 H   0  0  0  0  0  0  0  0  0  0  0  0
    6.0860   -4.8082   20.7322 H   0  0  0  0  0  0  0  0  0  0  0  0
    6.0252   -6.9988   23.5372 H   0  0  0  0  0  0  0  0  0  0  0  0
    7.7878   -8.9309   22.1455 H   0  0  0  0  0  0  0  0  0  0  0  0
    7.0524   -9.1724   23.7349 H   0  0  0  0  0  0  0  0  0  0  0  0
    8.4354   -8.0521   23.5569 H   0  0  0  0  0  0  0  0  0  0  0  0
  1  2  1  0
  2  3  1  0
  3  4  2  0
  3  5  1  0
  5  6  1  0
  6  7  1  0
  8  7  1  6
  8  9  1  0
  9 10  2  0
  9 11  1  0
 11 12  1  0
 12 13  2  0
 13 14  1  0
 14 15  2  0
 15 16  1  0
 16 17  2  0
 17 18  1  0
 18 19  2  0
 19 20  1  0
 20 21  2  0
 20 22  1  0
 19 23  1  0
 18 24  1  0
 17 25  1  0
 15 26  1  0
 13 27  1  0
 11 28  1  0
 28 29  1  0
 29 30  1  0
 30 31  1  0
 31 32  1  0
 32 33  2  0
 33 34  1  0
 34 35  2  0
 34 36  1  0
 33 37  1  0
 32 38  1  0
 30 39  1  0
 30 40  1  0
 29 41  1  1
 28 42  1  0
 28 43  1  0
  8 44  1  0
 44 45  2  0
 45 46  1  0
 46 47  1  0
 46 48  2  0
 48 49  1  0
 49 50  2  0
 50 51  1  0
 51 52  2  0
 49 53  1  0
 48 54  1  0
 45 55  1  0
  7 56  1  0
  7 57  1  0
  5 58  1  0
  5 59  1  0
  2 60  1  0
  1 61  1  0
  1 62  1  0
  1 63  1  0
 51  6  1  0
 29  8  1  0
 35 31  1  0
 50 44  1  0
 21 12  1  0
 21 16  1  0
M  END
>  <cnnaffinities>  (87) 
[7.18468]

>  <score>  (87) 
7.18468

>  <index>  (87) 
87

>  <Smiles>  (87) 
C(N(C(=O)C(N1C([C@@]2(C(=O)N(c3c(nc(c4c(c(c(c(c34)[H])[H])[H])[H])[H])[H])C([C@@]2(C(n2c(c(c(n2)[H])[H])[H])([H])[H])[H])([H])[H])c2c(c(Cl)c(c(c2C1=O)[H])[H])[H])([H])[H])([H])[H])[H])([H])([H])[H]

>  <h>  (87) 
<NA>

>  <Training>  (87) 
True

>  <Success>  (87) 
True

>  <enamine_searched>  (87) 
False

>  <enamine_id>  (87) 
nan

$$$$

     RDKit          3D

 64 68  0  0  0  0  0  0  0  0999 V2000
   11.0878   -4.8945   25.4611 C   0  0  0  0  0  0  0  0  0  0  0  0
   10.3267   -4.3398   24.2689 C   0  0  0  0  0  0  0  0  0  0  0  0
    9.5507   -3.0730   24.5841 C   0  0  0  0  0  0  0  0  0  0  0  0
   10.0798   -2.0181   24.2659 O   0  0  0  0  0  0  0  0  0  0  0  0
    8.2256   -3.1139   25.0325 N   0  0  0  0  0  0  0  0  0  0  0  0
    7.6711   -4.3162   25.6646 C   0  0  0  0  0  0  0  0  0  0  0  0
    6.2492   -4.1038   26.2300 C   0  0  0  0  0  0  0  0  0  0  0  0
    6.0619   -2.7046   26.8535 C   0  0  0  0  0  0  0  0  0  0  0  0
    6.4138   -1.6609   25.8122 C   0  0  0  0  0  0  0  0  0  0  0  0
    5.7560   -0.4145   25.7006 C   0  0  0  0  0  0  0  0  0  0  0  0
    6.1527    0.5102   24.7082 C   0  0  0  0  0  0  0  0  0  0  0  0
    7.1572    0.1725   23.7924 C   0  0  0  0  0  0  0  0  0  0  0  0
    7.6941    1.0485   22.8446 N   0  0  0  0  0  0  0  0  0  0  0  0
    8.6663    2.0200   23.3523 C   0  0  0  0  0  0  0  0  0  0  0  0
   10.0026    1.3588   23.6642 C   0  0  0  0  0  0  0  0  0  0  0  0
   10.1930    0.7223   24.9065 C   0  0  0  0  0  0  0  0  0  0  0  0
   11.4209    0.1230   25.2209 C   0  0  0  0  0  0  0  0  0  0  0  0
   12.4881    0.1809   24.3211 C   0  0  0  0  0  0  0  0  0  0  0  0
   12.3144    0.7881   23.0756 C   0  0  0  0  0  0  0  0  0  0  0  0
   13.7810    0.8049   21.8473 Br  0  0  0  0  0  0  0  0  0  0  0  0
   11.0737    1.3621   22.7450 C   0  0  0  0  0  0  0  0  0  0  0  0
   10.9480    1.7982   21.7590 H   0  0  0  0  0  0  0  0  0  0  0  0
   13.4530   -0.2567   24.5695 H   0  0  0  0  0  0  0  0  0  0  0  0
   11.5597   -0.3738   26.1718 H   0  0  0  0  0  0  0  0  0  0  0  0
    9.3910    0.6862   25.6372 H   0  0  0  0  0  0  0  0  0  0  0  0
    8.2645    2.5047   24.2477 H   0  0  0  0  0  0  0  0  0  0  0  0
    8.8144    2.8220   22.6231 H   0  0  0  0  0  0  0  0  0  0  0  0
    7.7829    0.6812   21.4986 C   0  0  0  0  0  0  0  0  0  0  0  0
    8.5187    1.3126   20.7411 O   0  0  0  0  0  0  0  0  0  0  0  0
    6.9271   -0.4449   20.8906 C   0  0  0  0  0  0  0  0  0  0  0  0
    6.0963    0.0454   19.7043 C   0  0  0  0  0  0  0  0  0  0  0  0
    6.4238   -0.2888   18.3738 C   0  0  0  0  0  0  0  0  0  0  0  0
    5.7446    0.1684   17.3036 N   0  0  0  0  0  0  0  0  0  0  0  0
    4.7029    0.9914   17.5246 C   0  0  0  0  0  0  0  0  0  0  0  0
    4.2911    1.3752   18.8075 C   0  0  0  0  0  0  0  0  0  0  0  0
    3.1996    2.2396   19.0025 C   0  0  0  0  0  0  0  0  0  0  0  0
    2.8172    2.6063   20.2979 C   0  0  0  0  0  0  0  0  0  0  0  0
    3.5216    2.1212   21.4037 C   0  0  0  0  0  0  0  0  0  0  0  0
    4.6116    1.2680   21.2114 C   0  0  0  0  0  0  0  0  0  0  0  0
    5.0006    0.8888   19.9199 C   0  0  0  0  0  0  0  0  0  0  0  0
    5.1675    0.8992   22.0683 H   0  0  0  0  0  0  0  0  0  0  0  0
    3.2290    2.4097   22.4093 H   0  0  0  0  0  0  0  0  0  0  0  0
    1.9759    3.2757   20.4498 H   0  0  0  0  0  0  0  0  0  0  0  0
    2.6475    2.6375   18.1548 H   0  0  0  0  0  0  0  0  0  0  0  0
    4.1569    1.3754   16.6666 H   0  0  0  0  0  0  0  0  0  0  0  0
    7.2795   -0.9335   18.1961 H   0  0  0  0  0  0  0  0  0  0  0  0
    6.2554   -0.8408   21.6594 H   0  0  0  0  0  0  0  0  0  0  0  0
    7.5926   -1.2557   20.5829 H   0  0  0  0  0  0  0  0  0  0  0  0
    7.7651   -1.0599   23.8982 C   0  0  0  0  0  0  0  0  0  0  0  0
    7.4531   -1.9502   24.9195 C   0  0  0  0  0  0  0  0  0  0  0  0
    8.5466   -1.3033   23.1913 H   0  0  0  0  0  0  0  0  0  0  0  0
    5.6914    1.4912   24.6451 H   0  0  0  0  0  0  0  0  0  0  0  0
    4.9601   -0.1511   26.3919 H   0  0  0  0  0  0  0  0  0  0  0  0
    6.7097   -2.5970   27.7330 H   0  0  0  0  0  0  0  0  0  0  0  0
    5.0228   -2.5858   27.1807 H   0  0  0  0  0  0  0  0  0  0  0  0
    5.5253   -4.2248   25.4165 H   0  0  0  0  0  0  0  0  0  0  0  0
    6.0401   -4.8766   26.9770 H   0  0  0  0  0  0  0  0  0  0  0  0
    7.6368   -5.1253   24.9272 H   0  0  0  0  0  0  0  0  0  0  0  0
    8.3254   -4.6436   26.4812 H   0  0  0  0  0  0  0  0  0  0  0  0
    9.6264   -5.0821   23.8914 H   0  0  0  0  0  0  0  0  0  0  0  0
   11.0469   -4.1132   23.4770 H   0  0  0  0  0  0  0  0  0  0  0  0
   11.3929   -5.9136   25.2586 H   0  0  0  0  0  0  0  0  0  0  0  0
   11.9960   -4.3069   25.6121 H   0  0  0  0  0  0  0  0  0  0  0  0
   10.4762   -4.8935   26.3694 H   0  0  0  0  0  0  0  0  0  0  0  0
  1  2  1  0
  2  3  1  0
  3  4  2  0
  3  5  1  0
  5  6  1  0
  6  7  1  0
  7  8  1  0
  8  9  1  0
  9 10  2  0
 10 11  1  0
 11 12  2  0
 12 13  1  0
 13 14  1  0
 14 15  1  0
 15 16  2  0
 16 17  1  0
 17 18  2  0
 18 19  1  0
 19 20  1  0
 19 21  2  0
 21 22  1  0
 18 23  1  0
 17 24  1  0
 16 25  1  0
 14 26  1  0
 14 27  1  0
 13 28  1  0
 28 29  2  0
 28 30  1  0
 30 31  1  0
 31 32  2  0
 32 33  1  0
 33 34  2  0
 34 35  1  0
 35 36  2  0
 36 37  1  0
 37 38  2  0
 38 39  1  0
 39 40  2  0
 39 41  1  0
 38 42  1  0
 37 43  1  0
 36 44  1  0
 34 45  1  0
 32 46  1  0
 30 47  1  0
 30 48  1  0
 12 49  1  0
 49 50  2  0
 49 51  1  0
 11 52  1  0
 10 53  1  0
  8 54  1  0
  8 55  1  0
  7 56  1  0
  7 57  1  0
  6 58  1  0
  6 59  1  0
  2 60  1  0
  2 61  1  0
  1 62  1  0
  1 63  1  0
  1 64  1  0
 50  5  1  0
 50  9  1  0
 21 15  1  0
 40 31  1  0
 40 35  1  0
M  END
>  <cnnaffinities>  (88) 
[6.94148, 7.02736, 6.50201]

>  <score>  (88) 
6.94148

>  <index>  (88) 
88

>  <Smiles>  (88) 
C(C(C(=O)N1C(C(C(c2c(c(c(N(C(c3c(c(c(c(Br)c3[H])[H])[H])[H])([H])[H])C(=O)C(c3c(nc(c4c(c(c(c(c34)[H])[H])[H])[H])[H])[H])([H])[H])c(c12)[H])[H])[H])([H])[H])([H])[H])([H])[H])([H])[H])([H])([H])[H]

>  <h>  (88) 
<NA>

>  <Training>  (88) 
True

>  <Success>  (88) 
True

>  <enamine_searched>  (88) 
False

>  <enamine_id>  (88) 
nan

$$$$

     RDKit          3D

 38 40  0  0  0  0  0  0  0  0999 V2000
    8.0522    1.6746   20.9650 O   0  0  0  0  0  0  0  0  0  0  0  0
    7.8913    0.6083   21.5303 C   0  0  0  0  0  0  0  0  0  0  0  0
    6.9529   -0.4564   20.9119 C   0  0  0  0  0  0  0  0  0  0  0  0
    6.1169    0.0854   19.7715 C   0  0  0  0  0  0  0  0  0  0  0  0
    6.4275   -0.2074   18.4683 C   0  0  0  0  0  0  0  0  0  0  0  0
    5.7632    0.2417   17.3682 N   0  0  0  0  0  0  0  0  0  0  0  0
    4.7348    1.0273   17.5763 C   0  0  0  0  0  0  0  0  0  0  0  0
    4.2901    1.4236   18.8679 C   0  0  0  0  0  0  0  0  0  0  0  0
    3.1714    2.2808   19.0429 C   0  0  0  0  0  0  0  0  0  0  0  0
    2.7670    2.6475   20.2988 C   0  0  0  0  0  0  0  0  0  0  0  0
    3.4665    2.1726   21.4298 C   0  0  0  0  0  0  0  0  0  0  0  0
    4.5533    1.3434   21.2868 C   0  0  0  0  0  0  0  0  0  0  0  0
    4.9980    0.9454   19.9978 C   0  0  0  0  0  0  0  0  0  0  0  0
    5.0846    0.9942   22.1666 H   0  0  0  0  0  0  0  0  0  0  0  0
    3.1420    2.4731   22.4219 H   0  0  0  0  0  0  0  0  0  0  0  0
    1.9134    3.3088   20.4349 H   0  0  0  0  0  0  0  0  0  0  0  0
    2.6455    2.6472   18.1633 H   0  0  0  0  0  0  0  0  0  0  0  0
    4.1991    1.3976   16.6996 H   0  0  0  0  0  0  0  0  0  0  0  0
    7.2739   -0.8560   18.2448 H   0  0  0  0  0  0  0  0  0  0  0  0
    6.2980   -0.8849   21.6843 H   0  0  0  0  0  0  0  0  0  0  0  0
    7.5675   -1.2888   20.5371 H   0  0  0  0  0  0  0  0  0  0  0  0
    8.4979    0.3278   22.7430 N   0  0  0  0  0  0  0  0  0  0  0  0
    8.8177   -1.0443   23.1461 C   0  0  0  0  0  0  0  0  0  0  0  0
    9.9945   -1.6534   22.4099 C   0  0  0  0  0  0  0  0  0  0  0  0
   11.2154   -1.1255   22.4431 C   0  0  0  0  0  0  0  0  0  0  0  0
   11.5860    0.1018   23.2462 C   0  0  0  0  0  0  0  0  0  0  0  0
   10.8020    1.3696   22.8814 C   0  0  0  0  0  0  0  0  0  0  0  0
    9.3442    1.3713   23.3330 C   0  0  0  0  0  0  0  0  0  0  0  0
    9.3325    1.2335   24.4145 H   0  0  0  0  0  0  0  0  0  0  0  0
    8.8872    2.3383   23.1197 H   0  0  0  0  0  0  0  0  0  0  0  0
   10.8084    1.5178   21.8087 H   0  0  0  0  0  0  0  0  0  0  0  0
   11.3200    2.2508   23.2875 H   0  0  0  0  0  0  0  0  0  0  0  0
   12.6573    0.2943   23.1293 H   0  0  0  0  0  0  0  0  0  0  0  0
   11.4282   -0.0939   24.3151 H   0  0  0  0  0  0  0  0  0  0  0  0
   11.9966   -1.5791   21.8321 H   0  0  0  0  0  0  0  0  0  0  0  0
    9.8133   -2.5466   21.8075 H   0  0  0  0  0  0  0  0  0  0  0  0
    9.0356   -1.0231   24.2180 H   0  0  0  0  0  0  0  0  0  0  0  0
    7.9291   -1.6685   23.0362 H   0  0  0  0  0  0  0  0  0  0  0  0
  1  2  2  0
  2  3  1  0
  3  4  1  0
  4  5  2  0
  5  6  1  0
  6  7  2  0
  7  8  1  0
  8  9  2  0
  9 10  1  0
 10 11  2  0
 11 12  1  0
 12 13  2  0
 12 14  1  0
 11 15  1  0
 10 16  1  0
  9 17  1  0
  7 18  1  0
  5 19  1  0
  3 20  1  0
  3 21  1  0
  2 22  1  0
 22 23  1  0
 23 24  1  0
 24 25  2  0
 25 26  1  0
 26 27  1  0
 27 28  1  0
 28 29  1  0
 28 30  1  0
 27 31  1  0
 27 32  1  0
 26 33  1  0
 26 34  1  0
 25 35  1  0
 24 36  1  0
 23 37  1  0
 23 38  1  0
 13  4  1  0
 28 22  1  0
 13  8  1  0
M  END
>  <cnnaffinities>  (89) 
[5.48095, 5.11993, 5.35671]

>  <score>  (89) 
5.48095

>  <index>  (89) 
89

>  <Smiles>  (89) 
O=C(C(c1c(nc(c2c(c(c(c(c12)[H])[H])[H])[H])[H])[H])([H])[H])N1C(C(=C(C(C(C1([H])[H])([H])[H])([H])[H])[H])[H])([H])[H]

>  <h>  (89) 
<NA>

>  <Training>  (89) 
True

>  <Success>  (89) 
True

>  <enamine_searched>  (89) 
False

>  <enamine_id>  (89) 
nan

$$$$

     RDKit          3D

 62 67  0  0  0  0  0  0  0  0999 V2000
    7.5620   -2.7216   23.6118 C   0  0  0  0  0  0  0  0  0  0  0  0
    7.9366   -1.8208   22.4258 C   0  0  1  0  0  0  0  0  0  0  0  0
    6.7905   -1.7075   21.3951 C   0  0  0  0  0  0  0  0  0  0  0  0
    6.9507   -0.3804   20.8306 N   0  0  0  0  0  0  0  0  0  0  0  0
    6.1479    0.1130   19.7633 C   0  0  0  0  0  0  0  0  0  0  0  0
    6.4461   -0.2206   18.4659 C   0  0  0  0  0  0  0  0  0  0  0  0
    5.7632    0.2209   17.3808 N   0  0  0  0  0  0  0  0  0  0  0  0
    4.7431    1.0191   17.5911 C   0  0  0  0  0  0  0  0  0  0  0  0
    4.3014    1.4220   18.8840 C   0  0  0  0  0  0  0  0  0  0  0  0
    3.1777    2.2785   19.0598 C   0  0  0  0  0  0  0  0  0  0  0  0
    2.7654    2.6279   20.3194 C   0  0  0  0  0  0  0  0  0  0  0  0
    3.4443    2.1301   21.4515 C   0  0  0  0  0  0  0  0  0  0  0  0
    4.5306    1.2999   21.3044 C   0  0  0  0  0  0  0  0  0  0  0  0
    5.0071    0.9456   20.0080 C   0  0  0  0  0  0  0  0  0  0  0  0
    5.0338    0.9068   22.1808 H   0  0  0  0  0  0  0  0  0  0  0  0
    3.1085    2.4139   22.4455 H   0  0  0  0  0  0  0  0  0  0  0  0
    1.9143    3.2914   20.4496 H   0  0  0  0  0  0  0  0  0  0  0  0
    2.6642    2.6508   18.1795 H   0  0  0  0  0  0  0  0  0  0  0  0
    4.2132    1.3851   16.7130 H   0  0  0  0  0  0  0  0  0  0  0  0
    7.2894   -0.8762   18.2565 H   0  0  0  0  0  0  0  0  0  0  0  0
    7.7766    0.4450   21.5592 C   0  0  0  0  0  0  0  0  0  0  0  0
    7.9942    1.6109   21.2933 O   0  0  0  0  0  0  0  0  0  0  0  0
    8.3634   -0.3497   22.7555 C   0  0  1  0  0  0  0  0  0  0  0  0
    7.7352    0.1580   24.0768 C   0  0  0  0  0  0  0  0  0  0  0  0
    8.2245    1.4760   24.4489 N   0  0  0  0  0  0  0  0  0  0  0  0
    7.2647    2.4518   24.9517 C   0  0  0  0  0  0  0  0  0  0  0  0
    6.6797    3.3357   23.8625 C   0  0  0  0  0  0  0  0  0  0  0  0
    7.7202    4.2317   23.2882 N   0  0  0  0  0  4  0  0  0  0  0  0
    8.1515    5.4437   24.1643 C   0  0  0  0  0  0  0  0  0  0  0  0
    7.6361    6.4602   23.0925 C   0  0  0  0  0  0  0  0  0  0  0  0
    7.2500    5.2188   22.2217 C   0  0  0  0  0  0  0  0  0  0  0  0
    6.1901    5.0762   22.0157 H   0  0  0  0  0  0  0  0  0  0  0  0
    7.8153    5.0676   21.3084 H   0  0  0  0  0  0  0  0  0  0  0  0
    6.7813    7.0657   23.4133 H   0  0  0  0  0  0  0  0  0  0  0  0
    8.3837    7.1345   22.6656 H   0  0  0  0  0  0  0  0  0  0  0  0
    9.2201    5.4068   24.3458 H   0  0  0  0  0  0  0  0  0  0  0  0
    7.6138    5.4398   25.1104 H   0  0  0  0  0  0  0  0  0  0  0  0
    8.4988    3.6481   22.9396 H   0  0  0  0  0  0  0  0  0  0  0  0
    5.8718    3.9535   24.2687 H   0  0  0  0  0  0  0  0  0  0  0  0
    6.2808    2.7414   23.0414 H   0  0  0  0  0  0  0  0  0  0  0  0
    6.4463    1.9046   25.4337 H   0  0  0  0  0  0  0  0  0  0  0  0
    7.7689    3.0462   25.7175 H   0  0  0  0  0  0  0  0  0  0  0  0
    9.5655    1.7354   24.5092 C   0  0  0  0  0  0  0  0  0  0  0  0
   10.0316    2.6911   25.1237 O   0  0  0  0  0  0  0  0  0  0  0  0
   10.4374    0.8257   23.6796 C   0  0  0  0  0  0  0  0  0  0  0  0
   11.8194    1.0178   23.6913 C   0  0  0  0  0  0  0  0  0  0  0  0
   12.6355    0.3678   22.7832 C   0  0  0  0  0  0  0  0  0  0  0  0
   12.0384   -0.4411   21.8167 C   0  0  0  0  0  0  0  0  0  0  0  0
   12.9497   -1.0711   20.4791 Cl  0  0  0  0  0  0  0  0  0  0  0  0
   10.6864   -0.7136   21.8533 C   0  0  0  0  0  0  0  0  0  0  0  0
    9.8648   -0.1179   22.8169 C   0  0  0  0  0  0  0  0  0  0  0  0
   10.2855   -1.3614   21.0834 H   0  0  0  0  0  0  0  0  0  0  0  0
   13.7089    0.5089   22.8032 H   0  0  0  0  0  0  0  0  0  0  0  0
   12.2261    1.7383   24.3893 H   0  0  0  0  0  0  0  0  0  0  0  0
    7.9711   -0.5668   24.8723 H   0  0  0  0  0  0  0  0  0  0  0  0
    6.6455    0.2106   23.9542 H   0  0  0  0  0  0  0  0  0  0  0  0
    6.8527   -2.4676   20.6069 H   0  0  0  0  0  0  0  0  0  0  0  0
    5.8100   -1.8201   21.8859 H   0  0  0  0  0  0  0  0  0  0  0  0
    8.7886   -2.2862   21.9240 H   0  0  0  0  0  0  0  0  0  0  0  0
    7.3409   -3.7408   23.2689 H   0  0  0  0  0  0  0  0  0  0  0  0
    8.3742   -2.7878   24.3467 H   0  0  0  0  0  0  0  0  0  0  0  0
    6.6676   -2.3495   24.1296 H   0  0  0  0  0  0  0  0  0  0  0  0
  1  2  1  0
  2  3  1  0
  3  4  1  0
  4  5  1  0
  5  6  2  0
  6  7  1  0
  7  8  2  0
  8  9  1  0
  9 10  2  0
 10 11  1  0
 11 12  2  0
 12 13  1  0
 13 14  2  0
 13 15  1  0
 12 16  1  0
 11 17  1  0
 10 18  1  0
  8 19  1  0
  6 20  1  0
  4 21  1  0
 21 22  2  0
 21 23  1  0
 23 24  1  1
 24 25  1  0
 25 26  1  0
 26 27  1  0
 27 28  1  0
 28 29  1  0
 29 30  1  0
 30 31  1  0
 31 32  1  0
 31 33  1  0
 30 34  1  0
 30 35  1  0
 29 36  1  0
 29 37  1  0
 28 38  1  0
 27 39  1  0
 27 40  1  0
 26 41  1  0
 26 42  1  0
 25 43  1  0
 43 44  2  0
 43 45  1  0
 45 46  2  0
 46 47  1  0
 47 48  2  0
 48 49  1  0
 48 50  1  0
 50 51  2  0
 50 52  1  0
 47 53  1  0
 46 54  1  0
 24 55  1  0
 24 56  1  0
  3 57  1  0
  3 58  1  0
  2 59  1  6
  1 60  1  0
  1 61  1  0
  1 62  1  0
 23  2  1  0
 31 28  1  0
 51 45  1  0
 14  5  1  0
 51 23  1  0
 14  9  1  0
M  CHG  1  28   1
M  END
>  <cnnaffinities>  (90) 
[6.80367, 6.49099, 6.71612]

>  <score>  (90) 
6.80367

>  <index>  (90) 
90

>  <Smiles>  (90) 
C([C@]1(C(N(c2c(nc(c3c(c(c(c(c23)[H])[H])[H])[H])[H])[H])C(=O)[C@]21C(N(C(C([N+]1(C(C(C1([H])[H])([H])[H])([H])[H])[H])([H])[H])([H])[H])C(=O)c1c(c(c(Cl)c(c21)[H])[H])[H])([H])[H])([H])[H])[H])([H])([H])[H]

>  <h>  (90) 
<NA>

>  <Training>  (90) 
True

>  <Success>  (90) 
True

>  <enamine_searched>  (90) 
False

>  <enamine_id>  (90) 
nan

$$$$

     RDKit          3D

 56 61  0  0  0  0  0  0  0  0999 V2000
    7.0930   -2.4253   23.5066 C   0  0  0  0  0  0  0  0  0  0  0  0
    7.9776   -1.8447   22.3917 C   0  0  1  0  0  0  0  0  0  0  0  0
    7.1966   -1.7774   21.0592 C   0  0  0  0  0  0  0  0  0  0  0  0
    6.8873   -0.3767   20.8784 N   0  0  0  0  0  0  0  0  0  0  0  0
    6.1304    0.1045   19.7803 C   0  0  0  0  0  0  0  0  0  0  0  0
    6.4463   -0.2278   18.4851 C   0  0  0  0  0  0  0  0  0  0  0  0
    5.7732    0.2202   17.3945 N   0  0  0  0  0  0  0  0  0  0  0  0
    4.7499    1.0151   17.5980 C   0  0  0  0  0  0  0  0  0  0  0  0
    4.2948    1.4156   18.8850 C   0  0  0  0  0  0  0  0  0  0  0  0
    3.1703    2.2669   19.0599 C   0  0  0  0  0  0  0  0  0  0  0  0
    2.7447    2.6128   20.3133 C   0  0  0  0  0  0  0  0  0  0  0  0
    3.4219    2.1158   21.4525 C   0  0  0  0  0  0  0  0  0  0  0  0
    4.5030    1.2834   21.3059 C   0  0  0  0  0  0  0  0  0  0  0  0
    4.9887    0.9353   20.0174 C   0  0  0  0  0  0  0  0  0  0  0  0
    5.0219    0.8907   22.1747 H   0  0  0  0  0  0  0  0  0  0  0  0
    3.1036    2.4203   22.4458 H   0  0  0  0  0  0  0  0  0  0  0  0
    1.8918    3.2743   20.4350 H   0  0  0  0  0  0  0  0  0  0  0  0
    2.6667    2.6421   18.1713 H   0  0  0  0  0  0  0  0  0  0  0  0
    4.2255    1.3791   16.7139 H   0  0  0  0  0  0  0  0  0  0  0  0
    7.2938   -0.8722   18.2581 H   0  0  0  0  0  0  0  0  0  0  0  0
    7.6915    0.4573   21.6316 C   0  0  0  0  0  0  0  0  0  0  0  0
    7.7462    1.6591   21.4793 O   0  0  0  0  0  0  0  0  0  0  0  0
    8.5296   -0.3929   22.6200 C   0  0  1  0  0  0  0  0  0  0  0  0
    8.3659    0.0740   24.0862 C   0  0  0  0  0  0  0  0  0  0  0  0
    8.9681    1.3643   24.3505 N   0  0  0  0  0  0  0  0  0  0  0  0
    8.2153    2.3687   25.0861 C   0  0  0  0  0  0  0  0  0  0  0  0
    7.4238    3.3177   24.2055 C   0  0  0  0  0  0  0  0  0  0  0  0
    6.0442    3.2881   23.8649 C   0  0  0  0  0  0  0  0  0  0  0  0
    5.7167    4.2550   23.0172 N   0  0  0  0  0  0  0  0  0  0  0  0
    6.8600    4.9188   22.8087 N   0  0  0  0  0  0  0  0  0  0  0  0
    7.9080    4.3965   23.4972 C   0  0  0  0  0  0  0  0  0  0  0  0
    8.8965    4.8327   23.4338 H   0  0  0  0  0  0  0  0  0  0  0  0
    6.8800    5.6570   22.1209 H   0  0  0  0  0  0  0  0  0  0  0  0
    5.2477    2.6019   24.1442 H   0  0  0  0  0  0  0  0  0  0  0  0
    8.9468    2.9186   25.6859 H   0  0  0  0  0  0  0  0  0  0  0  0
    7.5333    1.8480   25.7664 H   0  0  0  0  0  0  0  0  0  0  0  0
   10.1947    1.7196   23.8705 C   0  0  0  0  0  0  0  0  0  0  0  0
   10.7596    2.7497   24.2328 O   0  0  0  0  0  0  0  0  0  0  0  0
   10.7769    0.7856   22.8601 C   0  0  0  0  0  0  0  0  0  0  0  0
   12.1023    0.9863   22.4797 C   0  0  0  0  0  0  0  0  0  0  0  0
   12.6809    0.1769   21.5260 C   0  0  0  0  0  0  0  0  0  0  0  0
   11.9145   -0.8250   20.9449 C   0  0  0  0  0  0  0  0  0  0  0  0
   12.5039   -1.5597   19.9863 F   0  0  0  0  0  0  0  0  0  0  0  0
   10.5836   -1.0161   21.2657 C   0  0  0  0  0  0  0  0  0  0  0  0
   10.0073   -0.2296   22.2702 C   0  0  0  0  0  0  0  0  0  0  0  0
    9.9838   -1.7180   20.6987 H   0  0  0  0  0  0  0  0  0  0  0  0
   13.6838    0.3331   21.1502 H   0  0  0  0  0  0  0  0  0  0  0  0
   12.6446    1.8024   22.9434 H   0  0  0  0  0  0  0  0  0  0  0  0
    8.8072   -0.6957   24.7408 H   0  0  0  0  0  0  0  0  0  0  0  0
    7.3043    0.1804   24.3113 H   0  0  0  0  0  0  0  0  0  0  0  0
    6.2708   -2.3626   21.0903 H   0  0  0  0  0  0  0  0  0  0  0  0
    7.8074   -2.1402   20.2276 H   0  0  0  0  0  0  0  0  0  0  0  0
    8.8336   -2.5205   22.2892 H   0  0  0  0  0  0  0  0  0  0  0  0
    7.6314   -2.5107   24.4554 H   0  0  0  0  0  0  0  0  0  0  0  0
    6.1976   -1.8163   23.6761 H   0  0  0  0  0  0  0  0  0  0  0  0
    6.7631   -3.4338   23.2323 H   0  0  0  0  0  0  0  0  0  0  0  0
  1  2  1  0
  2  3  1  0
  3  4  1  0
  4  5  1  0
  5  6  2  0
  6  7  1  0
  7  8  2  0
  8  9  1  0
  9 10  2  0
 10 11  1  0
 11 12  2  0
 12 13  1  0
 13 14  2  0
 13 15  1  0
 12 16  1  0
 11 17  1  0
 10 18  1  0
  8 19  1  0
  6 20  1  0
  4 21  1  0
 21 22  2  0
 21 23  1  0
 23 24  1  1
 24 25  1  0
 25 26  1  0
 26 27  1  0
 27 28  1  0
 28 29  2  0
 29 30  1  0
 30 31  1  0
 31 32  1  0
 30 33  1  0
 28 34  1  0
 26 35  1  0
 26 36  1  0
 25 37  1  0
 37 38  2  0
 37 39  1  0
 39 40  2  0
 40 41  1  0
 41 42  2  0
 42 43  1  0
 42 44  1  0
 44 45  2  0
 44 46  1  0
 41 47  1  0
 40 48  1  0
 24 49  1  0
 24 50  1  0
  3 51  1  0
  3 52  1  0
  2 53  1  6
  1 54  1  0
  1 55  1  0
  1 56  1  0
 23  2  1  0
 31 27  2  0
 45 39  1  0
 14  5  1  0
 45 23  1  0
 14  9  1  0
M  END
>  <cnnaffinities>  (91) 
[6.67442, 6.67511]

>  <score>  (91) 
6.67442

>  <index>  (91) 
91

>  <Smiles>  (91) 
C([C@]1(C(N(c2c(nc(c3c(c(c(c(c23)[H])[H])[H])[H])[H])[H])C(=O)[C@]21C(N(C(c1c(nn(c1[H])[H])[H])([H])[H])C(=O)c1c(c(c(F)c(c21)[H])[H])[H])([H])[H])([H])[H])[H])([H])([H])[H]

>  <h>  (91) 
<NA>

>  <Training>  (91) 
True

>  <Success>  (91) 
True

>  <enamine_searched>  (91) 
False

>  <enamine_id>  (91) 
nan

$$$$

     RDKit          3D

 47 50  0  0  0  0  0  0  0  0999 V2000
    5.5683   -2.4569   20.9388 O   0  0  0  0  0  0  0  0  0  0  0  0
    6.1431   -1.6132   21.5942 C   0  0  0  0  0  0  0  0  0  0  0  0
    6.9165   -0.4792   20.9086 C   0  0  0  0  0  0  0  0  0  0  0  0
    6.1189    0.0949   19.7620 C   0  0  0  0  0  0  0  0  0  0  0  0
    6.4231   -0.2143   18.4613 C   0  0  0  0  0  0  0  0  0  0  0  0
    5.7578    0.2380   17.3621 N   0  0  0  0  0  0  0  0  0  0  0  0
    4.7345    1.0289   17.5755 C   0  0  0  0  0  0  0  0  0  0  0  0
    4.2875    1.4216   18.8667 C   0  0  0  0  0  0  0  0  0  0  0  0
    3.1664    2.2724   19.0440 C   0  0  0  0  0  0  0  0  0  0  0  0
    2.7498    2.6262   20.2996 C   0  0  0  0  0  0  0  0  0  0  0  0
    3.4429    2.1388   21.4325 C   0  0  0  0  0  0  0  0  0  0  0  0
    4.5339    1.3167   21.2876 C   0  0  0  0  0  0  0  0  0  0  0  0
    4.9917    0.9387   19.9961 C   0  0  0  0  0  0  0  0  0  0  0  0
    5.0531    0.9528   22.1708 H   0  0  0  0  0  0  0  0  0  0  0  0
    3.1095    2.4278   22.4236 H   0  0  0  0  0  0  0  0  0  0  0  0
    1.8934    3.2820   20.4358 H   0  0  0  0  0  0  0  0  0  0  0  0
    2.6465    2.6421   18.1633 H   0  0  0  0  0  0  0  0  0  0  0  0
    4.2004    1.3976   16.6980 H   0  0  0  0  0  0  0  0  0  0  0  0
    7.2659   -0.8667   18.2409 H   0  0  0  0  0  0  0  0  0  0  0  0
    7.2037    0.2980   21.6241 H   0  0  0  0  0  0  0  0  0  0  0  0
    7.8441   -0.9209   20.5305 H   0  0  0  0  0  0  0  0  0  0  0  0
    6.0644   -1.6450   22.9920 N   0  0  0  0  0  0  0  0  0  0  0  0
    4.8993   -2.2929   23.4859 C   0  0  0  0  0  0  0  0  0  0  0  0
    4.8669   -3.4761   24.1009 C   0  0  0  0  0  0  0  0  0  0  0  0
    6.0422   -4.2463   24.5088 C   0  0  0  0  0  0  0  0  0  0  0  0
    6.9980   -3.7800   25.3301 C   0  0  0  0  0  0  0  0  0  0  0  0
    6.9503   -2.4608   25.9795 C   0  0  0  0  0  0  0  0  0  0  0  0
    6.8204   -1.2796   25.3659 C   0  0  0  0  0  0  0  0  0  0  0  0
    7.0418   -0.9842   23.8891 C   0  0  1  0  0  0  0  0  0  0  0  0
    8.4973   -1.2736   23.4978 C   0  0  0  0  0  0  0  0  0  0  0  0
    8.9086   -2.4923   22.9629 C   0  0  0  0  0  0  0  0  0  0  0  0
   10.2527   -2.7162   22.6689 C   0  0  0  0  0  0  0  0  0  0  0  0
   11.2060   -1.7303   22.9066 C   0  0  0  0  0  0  0  0  0  0  0  0
   10.8083   -0.5187   23.4620 C   0  0  0  0  0  0  0  0  0  0  0  0
    9.4656   -0.3027   23.7603 C   0  0  0  0  0  0  0  0  0  0  0  0
    9.1674    0.6400   24.2119 H   0  0  0  0  0  0  0  0  0  0  0  0
   11.5438    0.2571   23.6565 H   0  0  0  0  0  0  0  0  0  0  0  0
   12.2510   -1.9097   22.6631 H   0  0  0  0  0  0  0  0  0  0  0  0
   10.5592   -3.6669   22.2453 H   0  0  0  0  0  0  0  0  0  0  0  0
    8.1735   -3.2734   22.7881 H   0  0  0  0  0  0  0  0  0  0  0  0
    6.8893    0.0990   23.7806 H   0  0  0  0  0  0  0  0  0  0  0  0
    6.7412   -0.3970   25.9990 H   0  0  0  0  0  0  0  0  0  0  0  0
    6.9920   -2.4998   27.0721 H   0  0  0  0  0  0  0  0  0  0  0  0
    7.8312   -4.4256   25.6035 H   0  0  0  0  0  0  0  0  0  0  0  0
    6.0871   -5.2745   24.1502 H   0  0  0  0  0  0  0  0  0  0  0  0
    3.8929   -3.9117   24.3307 H   0  0  0  0  0  0  0  0  0  0  0  0
    3.9693   -1.7683   23.2679 H   0  0  0  0  0  0  0  0  0  0  0  0
  1  2  2  0
  2  3  1  0
  3  4  1  0
  4  5  2  0
  5  6  1  0
  6  7  2  0
  7  8  1  0
  8  9  2  0
  9 10  1  0
 10 11  2  0
 11 12  1  0
 12 13  2  0
 12 14  1  0
 11 15  1  0
 10 16  1  0
  9 17  1  0
  7 18  1  0
  5 19  1  0
  3 20  1  0
  3 21  1  0
  2 22  1  0
 22 23  1  0
 23 24  2  3
 24 25  1  0
 25 26  2  3
 26 27  1  0
 27 28  2  3
 28 29  1  0
 29 30  1  0
 30 31  2  0
 31 32  1  0
 32 33  2  0
 33 34  1  0
 34 35  2  0
 35 36  1  0
 34 37  1  0
 33 38  1  0
 32 39  1  0
 31 40  1  0
 29 41  1  1
 28 42  1  0
 27 43  1  0
 26 44  1  0
 25 45  1  0
 24 46  1  0
 23 47  1  0
 13  4  1  0
 29 22  1  0
 35 30  1  0
 13  8  1  0
M  END
>  <cnnaffinities>  (92) 
[6.24487, 6.2448]

>  <score>  (92) 
6.24487

>  <index>  (92) 
92

>  <Smiles>  (92) 
O=C(C(c1c(nc(c2c(c(c(c(c12)[H])[H])[H])[H])[H])[H])([H])[H])N1C(=C(C(=C(C(=C([C@]1(c1c(c(c(c(c1[H])[H])[H])[H])[H])[H])[H])[H])[H])[H])[H])[H]

>  <h>  (92) 
<NA>

>  <Training>  (92) 
True

>  <Success>  (92) 
True

>  <enamine_searched>  (92) 
False

>  <enamine_id>  (92) 
nan

$$$$

     RDKit          3D

 58 62  0  0  0  0  0  0  0  0999 V2000
    6.5571    4.4873   21.4070 C   0  0  0  0  0  0  0  0  0  0  0  0
    6.9343    3.4931   22.4145 N   0  0  0  0  0  4  0  0  0  0  0  0
    7.9526    3.9447   23.3905 C   0  0  0  0  0  0  0  0  0  0  0  0
    8.1541    2.8969   24.4822 C   0  0  0  0  0  0  0  0  0  0  0  0
    8.7656    1.6899   23.9438 N   0  0  0  0  0  0  0  0  0  0  0  0
    8.0276    0.4403   23.8432 C   0  0  0  0  0  0  0  0  0  0  0  0
    8.4171   -0.3600   22.5784 C   0  0  2  0  0  0  0  0  0  0  0  0
    7.8346    0.3622   21.3482 C   0  0  0  0  0  0  0  0  0  0  0  0
    8.0586    1.5100   20.9870 O   0  0  0  0  0  0  0  0  0  0  0  0
    6.9009   -0.4475   20.7647 N   0  0  0  0  0  0  0  0  0  0  0  0
    6.1149    0.0884   19.7174 C   0  0  0  0  0  0  0  0  0  0  0  0
    6.4585   -0.2013   18.4244 C   0  0  0  0  0  0  0  0  0  0  0  0
    5.7742    0.2364   17.3444 N   0  0  0  0  0  0  0  0  0  0  0  0
    4.7436    1.0157   17.5807 C   0  0  0  0  0  0  0  0  0  0  0  0
    4.3224    1.4315   18.8769 C   0  0  0  0  0  0  0  0  0  0  0  0
    3.2184    2.3035   19.0567 C   0  0  0  0  0  0  0  0  0  0  0  0
    2.8315    2.6855   20.3141 C   0  0  0  0  0  0  0  0  0  0  0  0
    3.5306    2.2197   21.4464 C   0  0  0  0  0  0  0  0  0  0  0  0
    4.6105    1.3794   21.2992 C   0  0  0  0  0  0  0  0  0  0  0  0
    5.0289    0.9600   20.0000 C   0  0  0  0  0  0  0  0  0  0  0  0
    5.1312    1.0254   22.1850 H   0  0  0  0  0  0  0  0  0  0  0  0
    3.2066    2.5306   22.4369 H   0  0  0  0  0  0  0  0  0  0  0  0
    1.9782    3.3435   20.4417 H   0  0  0  0  0  0  0  0  0  0  0  0
    2.6962    2.6495   18.1721 H   0  0  0  0  0  0  0  0  0  0  0  0
    4.1862    1.3672   16.7156 H   0  0  0  0  0  0  0  0  0  0  0  0
    7.3340   -0.8212   18.2428 H   0  0  0  0  0  0  0  0  0  0  0  0
    6.4669   -1.5271   21.6343 C   0  0  0  0  0  0  0  0  0  0  0  0
    7.7034   -1.7407   22.5097 C   0  0  2  0  0  0  0  0  0  0  0  0
    7.4219   -2.4101   23.8440 C   0  0  0  0  0  0  0  0  0  0  0  0
    6.9782   -3.3975   23.6853 H   0  0  0  0  0  0  0  0  0  0  0  0
    8.3503   -2.5310   24.4150 H   0  0  0  0  0  0  0  0  0  0  0  0
    6.7236   -1.8208   24.4502 H   0  0  0  0  0  0  0  0  0  0  0  0
    8.3406   -2.4115   21.9326 H   0  0  0  0  0  0  0  0  0  0  0  0
    6.2108   -2.4136   21.0527 H   0  0  0  0  0  0  0  0  0  0  0  0
    5.5840   -1.2544   22.2309 H   0  0  0  0  0  0  0  0  0  0  0  0
    9.9219   -0.4300   22.4873 C   0  0  0  0  0  0  0  0  0  0  0  0
   10.5521   -1.3932   21.6944 C   0  0  0  0  0  0  0  0  0  0  0  0
   11.9092   -1.3312   21.4821 C   0  0  0  0  0  0  0  0  0  0  0  0
   12.4422   -2.1995   20.6064 F   0  0  0  0  0  0  0  0  0  0  0  0
   12.7227   -0.3971   22.1148 C   0  0  0  0  0  0  0  0  0  0  0  0
   12.1046    0.5233   22.9361 C   0  0  0  0  0  0  0  0  0  0  0  0
   10.7203    0.5590   23.0711 C   0  0  0  0  0  0  0  0  0  0  0  0
   10.1229    1.7298   23.7840 C   0  0  0  0  0  0  0  0  0  0  0  0
   10.8058    2.6711   24.1731 O   0  0  0  0  0  0  0  0  0  0  0  0
   12.6875    1.2640   23.4634 H   0  0  0  0  0  0  0  0  0  0  0  0
   13.7915   -0.3917   21.9349 H   0  0  0  0  0  0  0  0  0  0  0  0
   10.0281   -2.1998   21.2003 H   0  0  0  0  0  0  0  0  0  0  0  0
    8.2319   -0.1799   24.7267 H   0  0  0  0  0  0  0  0  0  0  0  0
    6.9535    0.6529   23.8036 H   0  0  0  0  0  0  0  0  0  0  0  0
    7.2032    2.6361   24.9581 H   0  0  0  0  0  0  0  0  0  0  0  0
    8.8255    3.2764   25.2564 H   0  0  0  0  0  0  0  0  0  0  0  0
    8.9094    4.0946   22.8823 H   0  0  0  0  0  0  0  0  0  0  0  0
    7.6613    4.8996   23.8428 H   0  0  0  0  0  0  0  0  0  0  0  0
    6.0695    3.2356   22.9232 H   0  0  0  0  0  0  0  0  0  0  0  0
    7.2900    2.6484   21.9269 H   0  0  0  0  0  0  0  0  0  0  0  0
    5.6668    4.1432   20.8720 H   0  0  0  0  0  0  0  0  0  0  0  0
    7.3672    4.6344   20.6911 H   0  0  0  0  0  0  0  0  0  0  0  0
    6.3408    5.4570   21.8686 H   0  0  0  0  0  0  0  0  0  0  0  0
  1  2  1  0
  2  3  1  0
  3  4  1  0
  4  5  1  0
  5  6  1  0
  7  6  1  1
  7  8  1  0
  8  9  2  0
  8 10  1  0
 10 11  1  0
 11 12  2  0
 12 13  1  0
 13 14  2  0
 14 15  1  0
 15 16  2  0
 16 17  1  0
 17 18  2  0
 18 19  1  0
 19 20  2  0
 19 21  1  0
 18 22  1  0
 17 23  1  0
 16 24  1  0
 14 25  1  0
 12 26  1  0
 10 27  1  0
 27 28  1  0
 28 29  1  0
 29 30  1  0
 29 31  1  0
 29 32  1  0
 28 33  1  6
 27 34  1  0
 27 35  1  0
  7 36  1  0
 36 37  2  0
 37 38  1  0
 38 39  1  0
 38 40  2  0
 40 41  1  0
 41 42  2  0
 42 43  1  0
 43 44  2  0
 41 45  1  0
 40 46  1  0
 37 47  1  0
  6 48  1  0
  6 49  1  0
  4 50  1  0
  4 51  1  0
  3 52  1  0
  3 53  1  0
  2 54  1  0
  2 55  1  0
  1 56  1  0
  1 57  1  0
  1 58  1  0
 43  5  1  0
 28  7  1  0
 42 36  1  0
 20 11  1  0
 20 15  1  0
M  CHG  1   2   1
M  END
>  <cnnaffinities>  (93) 
[6.46745]

>  <score>  (93) 
6.46745

>  <index>  (93) 
93

>  <Smiles>  (93) 
C([N+](C(C(N1C([C@@]2(C(=O)N(c3c(nc(c4c(c(c(c(c34)[H])[H])[H])[H])[H])[H])C([C@@]2(C([H])([H])[H])[H])([H])[H])c2c(c(F)c(c(c2C1=O)[H])[H])[H])([H])[H])([H])[H])([H])[H])([H])[H])([H])([H])[H]

>  <h>  (93) 
<NA>

>  <Training>  (93) 
True

>  <Success>  (93) 
True

>  <enamine_searched>  (93) 
False

>  <enamine_id>  (93) 
nan

$$$$

     RDKit          3D

 65 69  0  0  0  0  0  0  0  0999 V2000
   13.8259   -0.9249   24.6157 C   0  0  0  0  0  0  0  0  0  0  0  0
   13.1722   -2.2773   24.3312 C   0  0  0  0  0  0  0  0  0  0  0  0
   11.8283   -2.0691   23.6701 C   0  0  0  0  0  0  0  0  0  0  0  0
   11.6544   -1.7132   22.5407 O   0  0  0  0  0  0  0  0  0  0  0  0
   10.6522   -2.4002   24.5725 N   0  0  2  0  0  4  0  0  0  0  0  0
   10.2993   -3.9307   24.5659 C   0  0  0  0  0  0  0  0  0  0  0  0
    9.5550   -4.2377   23.2873 C   0  0  0  0  0  0  0  0  0  0  0  0
    8.2366   -3.4946   23.2343 C   0  0  0  0  0  0  0  0  0  0  0  0
    8.2939   -2.0678   23.7182 C   0  0  0  0  0  0  0  0  0  0  0  0
    7.1423   -1.2782   23.6274 C   0  0  0  0  0  0  0  0  0  0  0  0
    6.0238   -1.8221   22.9063 N   0  0  0  0  0  0  0  0  0  0  0  0
    4.9565   -2.4859   23.6798 C   0  0  0  0  0  0  0  0  0  0  0  0
    4.7061   -3.9810   23.4497 C   0  0  0  0  0  0  0  0  0  0  0  0
    3.7893   -4.3766   22.4737 C   0  0  0  0  0  0  0  0  0  0  0  0
    3.3002   -5.6724   22.4358 C   0  0  0  0  0  0  0  0  0  0  0  0
    3.7805   -6.6401   23.3000 C   0  0  0  0  0  0  0  0  0  0  0  0
    4.7409   -6.2661   24.2292 C   0  0  0  0  0  0  0  0  0  0  0  0
    5.2978   -7.4624   25.3487 Cl  0  0  0  0  0  0  0  0  0  0  0  0
    5.2178   -4.9605   24.3093 C   0  0  0  0  0  0  0  0  0  0  0  0
    6.0103   -4.7060   25.0145 H   0  0  0  0  0  0  0  0  0  0  0  0
    3.4275   -7.6651   23.2450 H   0  0  0  0  0  0  0  0  0  0  0  0
    2.4843   -5.9326   21.7728 H   0  0  0  0  0  0  0  0  0  0  0  0
    3.4435   -3.6492   21.7497 H   0  0  0  0  0  0  0  0  0  0  0  0
    5.2044   -2.3502   24.7393 H   0  0  0  0  0  0  0  0  0  0  0  0
    4.0158   -1.9457   23.4780 H   0  0  0  0  0  0  0  0  0  0  0  0
    5.7990   -1.5401   21.5743 C   0  0  0  0  0  0  0  0  0  0  0  0
    4.8462   -2.0021   20.9746 O   0  0  0  0  0  0  0  0  0  0  0  0
    6.7816   -0.5848   20.8631 C   0  0  0  0  0  0  0  0  0  0  0  0
    6.1084    0.0652   19.6963 C   0  0  0  0  0  0  0  0  0  0  0  0
    6.4800   -0.1911   18.4037 C   0  0  0  0  0  0  0  0  0  0  0  0
    5.8430    0.2834   17.3010 N   0  0  0  0  0  0  0  0  0  0  0  0
    4.7912    1.0427   17.5069 C   0  0  0  0  0  0  0  0  0  0  0  0
    4.3140    1.4138   18.7945 C   0  0  0  0  0  0  0  0  0  0  0  0
    3.1859    2.2547   18.9696 C   0  0  0  0  0  0  0  0  0  0  0  0
    2.7703    2.6147   20.2252 C   0  0  0  0  0  0  0  0  0  0  0  0
    3.4699    2.1552   21.3606 C   0  0  0  0  0  0  0  0  0  0  0  0
    4.5633    1.3382   21.2182 C   0  0  0  0  0  0  0  0  0  0  0  0
    4.9998    0.9278   19.9257 C   0  0  0  0  0  0  0  0  0  0  0  0
    5.1005    1.0131   22.1046 H   0  0  0  0  0  0  0  0  0  0  0  0
    3.1433    2.4543   22.3524 H   0  0  0  0  0  0  0  0  0  0  0  0
    1.9059    3.2594   20.3542 H   0  0  0  0  0  0  0  0  0  0  0  0
    2.6696    2.6176   18.0866 H   0  0  0  0  0  0  0  0  0  0  0  0
    4.2677    1.4134   16.6247 H   0  0  0  0  0  0  0  0  0  0  0  0
    7.3484   -0.8168   18.1926 H   0  0  0  0  0  0  0  0  0  0  0  0
    7.6492   -1.1704   20.5383 H   0  0  0  0  0  0  0  0  0  0  0  0
    7.1434    0.1641   21.5739 H   0  0  0  0  0  0  0  0  0  0  0  0
    7.0714   -0.0404   24.2592 C   0  0  0  0  0  0  0  0  0  0  0  0
    8.1982    0.4619   24.9142 C   0  0  0  0  0  0  0  0  0  0  0  0
    9.3721   -0.2841   24.9496 C   0  0  0  0  0  0  0  0  0  0  0  0
    9.4037   -1.5547   24.3781 C   0  0  0  0  0  0  0  0  0  0  0  0
   10.2628    0.0878   25.4522 H   0  0  0  0  0  0  0  0  0  0  0  0
    8.1520    1.4160   25.4287 H   0  0  0  0  0  0  0  0  0  0  0  0
    6.1554    0.5515   24.2147 H   0  0  0  0  0  0  0  0  0  0  0  0
    7.5423   -4.0165   23.8973 H   0  0  0  0  0  0  0  0  0  0  0  0
    7.8117   -3.5451   22.2294 H   0  0  0  0  0  0  0  0  0  0  0  0
    9.3051   -5.2968   23.2877 H   0  0  0  0  0  0  0  0  0  0  0  0
   10.1876   -3.9843   22.4287 H   0  0  0  0  0  0  0  0  0  0  0  0
   11.2198   -4.5161   24.6579 H   0  0  0  0  0  0  0  0  0  0  0  0
    9.6644   -4.1197   25.4369 H   0  0  0  0  0  0  0  0  0  0  0  0
   10.9917   -2.1853   25.5288 H   0  0  0  0  0  0  0  0  0  0  0  0
   13.7845   -2.8883   23.6635 H   0  0  0  0  0  0  0  0  0  0  0  0
   13.0635   -2.8467   25.2605 H   0  0  0  0  0  0  0  0  0  0  0  0
   13.9799   -0.3576   23.6945 H   0  0  0  0  0  0  0  0  0  0  0  0
   14.7890   -1.0830   25.0967 H   0  0  0  0  0  0  0  0  0  0  0  0
   13.1980   -0.3259   25.2845 H   0  0  0  0  0  0  0  0  0  0  0  0
  1  2  1  0
  2  3  1  0
  3  4  2  0
  3  5  1  0
  5  6  1  0
  6  7  1  0
  7  8  1  0
  8  9  1  0
  9 10  2  0
 10 11  1  0
 11 12  1  0
 12 13  1  0
 13 14  2  0
 14 15  1  0
 15 16  2  0
 16 17  1  0
 17 18  1  0
 17 19  2  0
 19 20  1  0
 16 21  1  0
 15 22  1  0
 14 23  1  0
 12 24  1  0
 12 25  1  0
 11 26  1  0
 26 27  2  0
 26 28  1  0
 28 29  1  0
 29 30  2  0
 30 31  1  0
 31 32  2  0
 32 33  1  0
 33 34  2  0
 34 35  1  0
 35 36  2  0
 36 37  1  0
 37 38  2  0
 37 39  1  0
 36 40  1  0
 35 41  1  0
 34 42  1  0
 32 43  1  0
 30 44  1  0
 28 45  1  0
 28 46  1  0
 10 47  1  0
 47 48  2  0
 48 49  1  0
 49 50  2  0
 49 51  1  0
 48 52  1  0
 47 53  1  0
  8 54  1  0
  8 55  1  0
  7 56  1  0
  7 57  1  0
  6 58  1  0
  6 59  1  0
  5 60  1  1
  2 61  1  0
  2 62  1  0
  1 63  1  0
  1 64  1  0
  1 65  1  0
 50  5  1  0
 50  9  1  0
 19 13  1  0
 38 29  1  0
 38 33  1  0
M  CHG  1   5   1
M  END
>  <cnnaffinities>  (94) 
[6.96157, 7.08027]

>  <score>  (94) 
6.96157

>  <index>  (94) 
94

>  <Smiles>  (94) 
C(C(C(=O)[N@@+]1(C(C(C(c2c(N(C(c3c(c(c(c(Cl)c3[H])[H])[H])[H])([H])[H])C(=O)C(c3c(nc(c4c(c(c(c(c34)[H])[H])[H])[H])[H])[H])([H])[H])c(c(c(c12)[H])[H])[H])([H])[H])([H])[H])([H])[H])[H])([H])[H])([H])([H])[H]

>  <h>  (94) 
<NA>

>  <Training>  (94) 
True

>  <Success>  (94) 
True

>  <enamine_searched>  (94) 
False

>  <enamine_id>  (94) 
nan

$$$$

     RDKit          3D

 67 71  0  0  0  0  0  0  0  0999 V2000
    4.9584   -3.0726   18.6947 C   0  0  0  0  0  0  0  0  0  0  0  0
    5.5079   -3.6593   19.9006 N   0  0  0  0  0  0  0  0  0  0  0  0
    5.9334   -4.9381   20.0137 C   0  0  0  0  0  0  0  0  0  0  0  0
    5.6943   -5.8114   19.1975 O   0  0  0  0  0  0  0  0  0  0  0  0
    6.8209   -5.2657   21.2259 C   0  0  0  0  0  0  0  0  0  0  0  0
    6.9126   -4.2566   22.2690 N   0  0  0  0  0  0  0  0  0  0  0  0
    7.8240   -3.1280   22.1106 C   0  0  0  0  0  0  0  0  0  0  0  0
    7.2934   -1.8408   22.7979 C   0  0  2  0  0  0  0  0  0  0  0  0
    6.2221   -1.1914   21.8895 C   0  0  0  0  0  0  0  0  0  0  0  0
    5.0458   -1.4984   21.8206 O   0  0  0  0  0  0  0  0  0  0  0  0
    6.8336   -0.2653   21.0641 N   0  0  0  0  0  0  0  0  0  0  0  0
    6.2047    0.3009   19.9366 C   0  0  0  0  0  0  0  0  0  0  0  0
    6.7466    0.1445   18.6836 C   0  0  0  0  0  0  0  0  0  0  0  0
    6.1296    0.5201   17.5393 N   0  0  0  0  0  0  0  0  0  0  0  0
    4.9717    1.1342   17.6442 C   0  0  0  0  0  0  0  0  0  0  0  0
    4.3591    1.4584   18.8865 C   0  0  0  0  0  0  0  0  0  0  0  0
    3.1522    2.2036   18.9522 C   0  0  0  0  0  0  0  0  0  0  0  0
    2.6199    2.5586   20.1627 C   0  0  0  0  0  0  0  0  0  0  0  0
    3.2609    2.1717   21.3591 C   0  0  0  0  0  0  0  0  0  0  0  0
    4.4140    1.4325   21.3249 C   0  0  0  0  0  0  0  0  0  0  0  0
    4.9908    1.0496   20.0801 C   0  0  0  0  0  0  0  0  0  0  0  0
    4.8909    1.1312   22.2511 H   0  0  0  0  0  0  0  0  0  0  0  0
    2.8444    2.4696   22.3169 H   0  0  0  0  0  0  0  0  0  0  0  0
    1.7156    3.1575   20.2139 H   0  0  0  0  0  0  0  0  0  0  0  0
    2.6763    2.5083   18.0242 H   0  0  0  0  0  0  0  0  0  0  0  0
    4.4761    1.4265   16.7178 H   0  0  0  0  0  0  0  0  0  0  0  0
    7.7052   -0.3582   18.5453 H   0  0  0  0  0  0  0  0  0  0  0  0
    8.2748   -0.2552   21.2661 C   0  0  0  0  0  0  0  0  0  0  0  0
    8.3556   -0.7020   22.7315 C   0  0  2  0  0  0  0  0  0  0  0  0
    9.7634   -0.9916   23.2372 C   0  0  0  0  0  0  0  0  0  0  0  0
   10.5169    0.5734   23.7142 S   0  0  0  0  0  0  0  0  0  0  0  0
   10.1330    0.8505   25.0909 O   0  0  0  0  0  0  0  0  0  0  0  0
   10.2124    1.5489   22.6668 O   0  0  0  0  0  0  0  0  0  0  0  0
   12.1561    0.2581   23.6087 N   0  0  0  0  0  0  0  0  0  0  0  0
   12.7433   -0.4157   24.7592 C   0  0  0  0  0  0  0  0  0  0  0  0
   12.4462   -1.4680   24.7817 H   0  0  0  0  0  0  0  0  0  0  0  0
   12.4671    0.0663   25.7023 H   0  0  0  0  0  0  0  0  0  0  0  0
   13.8301   -0.3914   24.6448 H   0  0  0  0  0  0  0  0  0  0  0  0
   12.9420    1.3670   23.0615 C   0  0  0  0  0  0  0  0  0  0  0  0
   12.8967    2.2698   23.6825 H   0  0  0  0  0  0  0  0  0  0  0  0
   13.9837    1.0500   22.9733 H   0  0  0  0  0  0  0  0  0  0  0  0
   12.5590    1.5930   22.0691 H   0  0  0  0  0  0  0  0  0  0  0  0
   10.3803   -1.4518   22.4553 H   0  0  0  0  0  0  0  0  0  0  0  0
    9.7563   -1.6520   24.1141 H   0  0  0  0  0  0  0  0  0  0  0  0
    7.9607    0.1251   23.3256 H   0  0  0  0  0  0  0  0  0  0  0  0
    8.6997    0.7245   21.0726 H   0  0  0  0  0  0  0  0  0  0  0  0
    8.7858   -0.9853   20.6140 H   0  0  0  0  0  0  0  0  0  0  0  0
    6.7754   -2.1996   24.1761 C   0  0  0  0  0  0  0  0  0  0  0  0
    6.4957   -1.1998   25.1197 C   0  0  0  0  0  0  0  0  0  0  0  0
    6.0781   -1.5530   26.3911 C   0  0  0  0  0  0  0  0  0  0  0  0
    5.8324   -0.5794   27.2840 F   0  0  0  0  0  0  0  0  0  0  0  0
    5.9069   -2.8720   26.7929 C   0  0  0  0  0  0  0  0  0  0  0  0
    6.1209   -3.8563   25.8472 C   0  0  0  0  0  0  0  0  0  0  0  0
    6.5166   -3.5298   24.5458 C   0  0  0  0  0  0  0  0  0  0  0  0
    6.5705   -4.6475   23.5461 C   0  0  0  0  0  0  0  0  0  0  0  0
    6.2845   -5.7967   23.8322 O   0  0  0  0  0  0  0  0  0  0  0  0
    5.9646   -4.9048   26.0797 H   0  0  0  0  0  0  0  0  0  0  0  0
    5.5967   -3.0936   27.8126 H   0  0  0  0  0  0  0  0  0  0  0  0
    6.5945   -0.1499   24.8744 H   0  0  0  0  0  0  0  0  0  0  0  0
    8.8172   -3.3750   22.5174 H   0  0  0  0  0  0  0  0  0  0  0  0
    7.9461   -2.9418   21.0472 H   0  0  0  0  0  0  0  0  0  0  0  0
    7.8229   -5.5352   20.8602 H   0  0  0  0  0  0  0  0  0  0  0  0
    6.4225   -6.1696   21.6932 H   0  0  0  0  0  0  0  0  0  0  0  0
    5.4667   -3.0926   20.7392 H   0  0  0  0  0  0  0  0  0  0  0  0
    5.4153   -3.5169   17.8061 H   0  0  0  0  0  0  0  0  0  0  0  0
    3.8739   -3.1742   18.6351 H   0  0  0  0  0  0  0  0  0  0  0  0
    5.1746   -2.0007   18.7024 H   0  0  0  0  0  0  0  0  0  0  0  0
  1  2  1  0
  2  3  1  0
  3  4  2  0
  3  5  1  0
  5  6  1  0
  6  7  1  0
  8  7  1  6
  8  9  1  0
  9 10  2  0
  9 11  1  0
 11 12  1  0
 12 13  2  0
 13 14  1  0
 14 15  2  0
 15 16  1  0
 16 17  2  0
 17 18  1  0
 18 19  2  0
 19 20  1  0
 20 21  2  0
 20 22  1  0
 19 23  1  0
 18 24  1  0
 17 25  1  0
 15 26  1  0
 13 27  1  0
 11 28  1  0
 28 29  1  0
 29 30  1  0
 30 31  1  0
 31 32  2  0
 31 33  2  0
 31 34  1  0
 34 35  1  0
 35 36  1  0
 35 37  1  0
 35 38  1  0
 34 39  1  0
 39 40  1  0
 39 41  1  0
 39 42  1  0
 30 43  1  0
 30 44  1  0
 29 45  1  1
 28 46  1  0
 28 47  1  0
  8 48  1  0
 48 49  2  0
 49 50  1  0
 50 51  1  0
 50 52  2  0
 52 53  1  0
 53 54  2  0
 54 55  1  0
 55 56  2  0
 53 57  1  0
 52 58  1  0
 49 59  1  0
  7 60  1  0
  7 61  1  0
  5 62  1  0
  5 63  1  0
  2 64  1  0
  1 65  1  0
  1 66  1  0
  1 67  1  0
 55  6  1  0
 29  8  1  0
 54 48  1  0
 21 12  1  0
 21 16  1  0
M  END
>  <cnnaffinities>  (95) 
[7.03412]

>  <score>  (95) 
7.03412

>  <index>  (95) 
95

>  <Smiles>  (95) 
C(N(C(=O)C(N1C([C@@]2(C(=O)N(c3c(nc(c4c(c(c(c(c34)[H])[H])[H])[H])[H])[H])C([C@@]2(C(S(=O)(=O)N(C([H])([H])[H])C([H])([H])[H])([H])[H])[H])([H])[H])c2c(c(F)c(c(c2C1=O)[H])[H])[H])([H])[H])([H])[H])[H])([H])([H])[H]

>  <h>  (95) 
<NA>

>  <Training>  (95) 
True

>  <Success>  (95) 
True

>  <enamine_searched>  (95) 
False

>  <enamine_id>  (95) 
nan

$$$$

     RDKit          3D

 37 39  0  0  0  0  0  0  0  0999 V2000
    5.9332   -2.6914   20.8286 O   0  0  0  0  0  0  0  0  0  0  0  0
    6.1767   -1.7097   21.5140 C   0  0  0  0  0  0  0  0  0  0  0  0
    6.9069   -0.4993   20.9074 C   0  0  0  0  0  0  0  0  0  0  0  0
    6.1143    0.0949   19.7620 C   0  0  0  0  0  0  0  0  0  0  0  0
    6.4211   -0.2121   18.4599 C   0  0  0  0  0  0  0  0  0  0  0  0
    5.7584    0.2392   17.3624 N   0  0  0  0  0  0  0  0  0  0  0  0
    4.7338    1.0309   17.5736 C   0  0  0  0  0  0  0  0  0  0  0  0
    4.2855    1.4253   18.8670 C   0  0  0  0  0  0  0  0  0  0  0  0
    3.1606    2.2755   19.0400 C   0  0  0  0  0  0  0  0  0  0  0  0
    2.7472    2.6250   20.2985 C   0  0  0  0  0  0  0  0  0  0  0  0
    3.4373    2.1423   21.4287 C   0  0  0  0  0  0  0  0  0  0  0  0
    4.5309    1.3226   21.2861 C   0  0  0  0  0  0  0  0  0  0  0  0
    4.9869    0.9424   19.9928 C   0  0  0  0  0  0  0  0  0  0  0  0
    5.0468    0.9650   22.1702 H   0  0  0  0  0  0  0  0  0  0  0  0
    3.1014    2.4297   22.4219 H   0  0  0  0  0  0  0  0  0  0  0  0
    1.8876    3.2767   20.4337 H   0  0  0  0  0  0  0  0  0  0  0  0
    2.6358    2.6433   18.1623 H   0  0  0  0  0  0  0  0  0  0  0  0
    4.1962    1.4003   16.7004 H   0  0  0  0  0  0  0  0  0  0  0  0
    7.2668   -0.8692   18.2492 H   0  0  0  0  0  0  0  0  0  0  0  0
    7.8657   -0.8638   20.5161 H   0  0  0  0  0  0  0  0  0  0  0  0
    7.1438    0.2571   21.6636 H   0  0  0  0  0  0  0  0  0  0  0  0
    5.7578   -1.6353   22.8068 N   0  0  0  0  0  0  0  0  0  0  0  0
    4.9170   -2.6757   23.3940 C   0  0  0  0  0  0  0  0  0  0  0  0
    4.4662   -2.3085   24.7940 C   0  0  0  0  0  0  0  0  0  0  0  0
    3.3741   -1.4608   24.9849 C   0  0  0  0  0  0  0  0  0  0  0  0
    2.9839   -1.0882   26.2677 C   0  0  0  0  0  0  0  0  0  0  0  0
    3.6713   -1.5572   27.3811 C   0  0  0  0  0  0  0  0  0  0  0  0
    4.7569   -2.4021   27.1888 C   0  0  0  0  0  0  0  0  0  0  0  0
    5.6352   -2.9920   28.5741 Cl  0  0  0  0  0  0  0  0  0  0  0  0
    5.1563   -2.7829   25.9107 C   0  0  0  0  0  0  0  0  0  0  0  0
    6.0163   -3.4394   25.7918 H   0  0  0  0  0  0  0  0  0  0  0  0
    3.3695   -1.2671   28.3835 H   0  0  0  0  0  0  0  0  0  0  0  0
    2.1381   -0.4200   26.4042 H   0  0  0  0  0  0  0  0  0  0  0  0
    2.8346   -1.0746   24.1221 H   0  0  0  0  0  0  0  0  0  0  0  0
    5.4502   -3.6308   23.4056 H   0  0  0  0  0  0  0  0  0  0  0  0
    4.0432   -2.8170   22.7520 H   0  0  0  0  0  0  0  0  0  0  0  0
    6.0413   -0.8764   23.4070 H   0  0  0  0  0  0  0  0  0  0  0  0
  1  2  2  0
  2  3  1  0
  3  4  1  0
  4  5  2  0
  5  6  1  0
  6  7  2  0
  7  8  1  0
  8  9  2  0
  9 10  1  0
 10 11  2  0
 11 12  1  0
 12 13  2  0
 12 14  1  0
 11 15  1  0
 10 16  1  0
  9 17  1  0
  7 18  1  0
  5 19  1  0
  3 20  1  0
  3 21  1  0
  2 22  1  0
 22 23  1  0
 23 24  1  0
 24 25  2  0
 25 26  1  0
 26 27  2  0
 27 28  1  0
 28 29  1  0
 28 30  2  0
 30 31  1  0
 27 32  1  0
 26 33  1  0
 25 34  1  0
 23 35  1  0
 23 36  1  0
 22 37  1  0
 13  4  1  0
 30 24  1  0
 13  8  1  0
M  END
>  <cnnaffinities>  (96) 
[4.78848]

>  <score>  (96) 
4.78848

>  <index>  (96) 
96

>  <Smiles>  (96) 
O=C(C(c1c(nc(c2c(c(c(c(c12)[H])[H])[H])[H])[H])[H])([H])[H])N(C(c1c(c(c(c(Cl)c1[H])[H])[H])[H])([H])[H])[H]

>  <h>  (96) 
<NA>

>  <Training>  (96) 
True

>  <Success>  (96) 
True

>  <enamine_searched>  (96) 
False

>  <enamine_id>  (96) 
nan

$$$$
