
     RDKit          3D

 63 69  0  0  0  0  0  0  0  0999 V2000
    9.4895    2.6369   24.9965 O   0  0  0  0  0  0  0  0  0  0  0  0
    9.1532    1.5395   24.5845 C   0  0  0  0  0  0  0  0  0  0  0  0
   10.1507    0.5182   24.1435 C   0  0  0  0  0  0  0  0  0  0  0  0
   11.4656    0.6448   24.6053 C   0  0  0  0  0  0  0  0  0  0  0  0
   12.4484   -0.1933   24.1275 C   0  0  0  0  0  0  0  0  0  0  0  0
   12.1144   -1.1499   23.1757 C   0  0  0  0  0  0  0  0  0  0  0  0
   13.4005   -2.1198   22.5236 Cl  0  0  0  0  0  0  0  0  0  0  0  0
   10.8113   -1.3336   22.7486 C   0  0  0  0  0  0  0  0  0  0  0  0
    9.7891   -0.4948   23.2348 C   0  0  0  0  0  0  0  0  0  0  0  0
    8.3317   -0.6032   22.8071 C   0  0  1  0  0  0  0  0  0  0  0  0
    7.4835   -0.1618   24.0368 C   0  0  0  0  0  0  0  0  0  0  0  0
    7.8359    1.1792   24.4659 N   0  0  0  0  0  0  0  0  0  0  0  0
    6.8490    2.1445   24.8959 C   0  0  0  0  0  0  0  0  0  0  0  0
    6.5831    3.2201   23.8892 C   0  0  0  0  0  0  0  0  0  0  0  0
    5.4570    3.8305   23.6968 N   0  0  0  0  0  0  0  0  0  0  0  0
    5.7095    4.8175   22.7481 N   0  0  0  0  0  0  0  0  0  0  0  0
    6.9585    4.7163   22.4546 C   0  0  0  0  0  0  0  0  0  0  0  0
    7.5763    3.7211   23.1291 O   0  0  0  0  0  0  0  0  0  0  0  0
    7.5445    5.3285   21.7835 H   0  0  0  0  0  0  0  0  0  0  0  0
    7.2401    2.6118   25.8090 H   0  0  0  0  0  0  0  0  0  0  0  0
    5.8956    1.6612   25.1287 H   0  0  0  0  0  0  0  0  0  0  0  0
    7.6794   -0.8656   24.8583 H   0  0  0  0  0  0  0  0  0  0  0  0
    6.4174   -0.1902   23.7777 H   0  0  0  0  0  0  0  0  0  0  0  0
    7.9220    0.2833   21.5941 C   0  0  0  0  0  0  0  0  0  0  0  0
    8.3027    1.3911   21.2988 O   0  0  0  0  0  0  0  0  0  0  0  0
    6.9453   -0.4165   20.9028 N   0  0  0  0  0  0  0  0  0  0  0  0
    6.2032    0.1423   19.8356 C   0  0  0  0  0  0  0  0  0  0  0  0
    6.5539   -0.1569   18.5443 C   0  0  0  0  0  0  0  0  0  0  0  0
    5.8991    0.2943   17.4485 N   0  0  0  0  0  0  0  0  0  0  0  0
    4.8373    1.0353   17.6458 C   0  0  0  0  0  0  0  0  0  0  0  0
    4.3571    1.4153   18.9288 C   0  0  0  0  0  0  0  0  0  0  0  0
    3.2020    2.2279   19.0762 C   0  0  0  0  0  0  0  0  0  0  0  0
    2.7414    2.5606   20.3180 C   0  0  0  0  0  0  0  0  0  0  0  0
    3.4174    2.0955   21.4720 C   0  0  0  0  0  0  0  0  0  0  0  0
    4.5450    1.3178   21.3557 C   0  0  0  0  0  0  0  0  0  0  0  0
    5.0484    0.9585   20.0737 C   0  0  0  0  0  0  0  0  0  0  0  0
    5.0462    0.9551   22.2502 H   0  0  0  0  0  0  0  0  0  0  0  0
    3.0444    2.3643   22.4565 H   0  0  0  0  0  0  0  0  0  0  0  0
    1.8592    3.1875   20.4239 H   0  0  0  0  0  0  0  0  0  0  0  0
    2.7066    2.5761   18.1730 H   0  0  0  0  0  0  0  0  0  0  0  0
    4.2953    1.3719   16.7627 H   0  0  0  0  0  0  0  0  0  0  0  0
    7.4184   -0.7929   18.3571 H   0  0  0  0  0  0  0  0  0  0  0  0
    6.7212   -1.7739   21.3594 C   0  0  0  0  0  0  0  0  0  0  0  0
    7.9136   -2.0067   22.2946 C   0  0  2  0  0  0  0  0  0  0  0  0
    7.6758   -3.0415   23.4000 C   0  0  0  0  0  0  0  0  0  0  0  0
    7.5536   -4.4006   22.9143 N   0  0  0  0  0  0  0  0  0  0  0  0
    6.3834   -4.9797   22.5838 C   0  0  0  0  0  0  0  0  0  0  0  0
    5.2369   -4.3331   22.8790 N   0  0  0  0  0  0  0  0  0  0  0  0
    4.1389   -5.0266   22.6055 C   0  0  0  0  0  0  0  0  0  0  0  0
    4.0795   -6.2316   22.0456 N   0  0  0  0  0  0  0  0  0  0  0  0
    5.2799   -6.7440   21.7492 C   0  0  0  0  0  0  0  0  0  0  0  0
    6.4554   -6.1898   21.9856 N   0  0  0  0  0  0  0  0  0  0  0  0
    5.2889   -7.7205   21.2615 H   0  0  0  0  0  0  0  0  0  0  0  0
    3.1921   -4.5564   22.8691 H   0  0  0  0  0  0  0  0  0  0  0  0
    8.3806   -4.9349   22.7032 H   0  0  0  0  0  0  0  0  0  0  0  0
    6.7520   -2.8019   23.9355 H   0  0  0  0  0  0  0  0  0  0  0  0
    8.5115   -2.9980   24.1096 H   0  0  0  0  0  0  0  0  0  0  0  0
    8.7271   -2.3629   21.6562 H   0  0  0  0  0  0  0  0  0  0  0  0
    6.7076   -2.4684   20.5122 H   0  0  0  0  0  0  0  0  0  0  0  0
    5.7586   -1.8713   21.8800 H   0  0  0  0  0  0  0  0  0  0  0  0
   10.6519   -2.1416   22.0375 H   0  0  0  0  0  0  0  0  0  0  0  0
   13.4746   -0.1184   24.4572 H   0  0  0  0  0  0  0  0  0  0  0  0
   11.6994    1.4165   25.3250 H   0  0  0  0  0  0  0  0  0  0  0  0
  1  2  2  0
  2  3  1  0
  3  4  2  0
  4  5  1  0
  5  6  2  0
  6  7  1  0
  6  8  1  0
  8  9  2  0
  9 10  1  0
 10 11  1  1
 11 12  1  0
 12 13  1  0
 13 14  1  0
 14 15  2  0
 15 16  1  0
 16 17  2  0
 17 18  1  0
 17 19  1  0
 13 20  1  0
 13 21  1  0
 11 22  1  0
 11 23  1  0
 10 24  1  0
 24 25  2  0
 24 26  1  0
 26 27  1  0
 27 28  2  0
 28 29  1  0
 29 30  2  0
 30 31  1  0
 31 32  2  0
 32 33  1  0
 33 34  2  0
 34 35  1  0
 35 36  2  0
 35 37  1  0
 34 38  1  0
 33 39  1  0
 32 40  1  0
 30 41  1  0
 28 42  1  0
 26 43  1  0
 43 44  1  0
 44 45  1  0
 45 46  1  0
 46 47  1  0
 47 48  2  0
 48 49  1  0
 49 50  2  0
 50 51  1  0
 51 52  2  0
 51 53  1  0
 49 54  1  0
 46 55  1  0
 45 56  1  0
 45 57  1  0
 44 58  1  6
 43 59  1  0
 43 60  1  0
  8 61  1  0
  5 62  1  0
  4 63  1  0
 12  2  1  0
 18 14  1  0
 36 27  1  0
 52 47  1  0
  9  3  1  0
 44 10  1  0
 36 31  1  0
M  END
>  <cnnaffinities>  (1) 
[7.33938]

>  <score>  (1) 
7.33938

>  <index>  (1) 
0

>  <Smiles>  (1) 
O=C1c2c(c(c(Cl)c(c2[C@@]2(C(N1C(c1nnc(o1)[H])([H])[H])([H])[H])C(=O)N(c1c(nc(c3c(c(c(c(c13)[H])[H])[H])[H])[H])[H])C([C@@]2(C(N(c1nc(nc(n1)[H])[H])[H])([H])[H])[H])([H])[H])[H])[H])[H]

>  <h>  (1) 
<NA>

>  <Training>  (1) 
True

>  <Success>  (1) 
True

>  <enamine_searched>  (1) 
False

>  <enamine_id>  (1) 
nan

$$$$

     RDKit          3D

 51 54  0  0  0  0  0  0  0  0999 V2000
   13.4190   -2.2775   23.4940 C   0  0  0  0  0  0  0  0  0  0  0  0
   12.2746   -1.6131   23.9705 O   0  0  0  0  0  0  0  0  0  0  0  0
   11.0724   -1.8786   23.3938 C   0  0  0  0  0  0  0  0  0  0  0  0
   10.8812   -2.7283   22.3093 C   0  0  0  0  0  0  0  0  0  0  0  0
    9.5872   -2.9150   21.8132 C   0  0  0  0  0  0  0  0  0  0  0  0
    8.4851   -2.3358   22.4373 C   0  0  0  0  0  0  0  0  0  0  0  0
    7.1652   -2.6891   22.0089 N   0  0  0  0  0  0  0  0  0  0  0  0
    6.6091   -3.9986   22.3651 C   0  0  0  0  0  0  0  0  0  0  0  0
    6.0590   -4.0522   23.7783 C   0  0  0  0  0  0  0  0  0  0  0  0
    4.6887   -3.9095   24.0091 C   0  0  0  0  0  0  0  0  0  0  0  0
    4.1965   -3.8592   25.3117 C   0  0  0  0  0  0  0  0  0  0  0  0
    5.0616   -4.0223   26.3916 C   0  0  0  0  0  0  0  0  0  0  0  0
    6.4162   -4.2206   26.1516 C   0  0  0  0  0  0  0  0  0  0  0  0
    7.4978   -4.5192   27.4874 Cl  0  0  0  0  0  0  0  0  0  0  0  0
    6.9254   -4.2115   24.8588 C   0  0  0  0  0  0  0  0  0  0  0  0
    7.9868   -4.3805   24.6960 H   0  0  0  0  0  0  0  0  0  0  0  0
    4.6985   -4.0138   27.4143 H   0  0  0  0  0  0  0  0  0  0  0  0
    3.1365   -3.6875   25.4923 H   0  0  0  0  0  0  0  0  0  0  0  0
    4.0191   -3.8655   23.1541 H   0  0  0  0  0  0  0  0  0  0  0  0
    5.8020   -4.1825   21.6557 H   0  0  0  0  0  0  0  0  0  0  0  0
    7.3873   -4.7615   22.2194 H   0  0  0  0  0  0  0  0  0  0  0  0
    6.2855   -1.7813   21.4477 C   0  0  0  0  0  0  0  0  0  0  0  0
    5.0940   -2.0121   21.3587 O   0  0  0  0  0  0  0  0  0  0  0  0
    6.9158   -0.5098   20.8886 C   0  0  0  0  0  0  0  0  0  0  0  0
    6.1164    0.0918   19.7689 C   0  0  0  0  0  0  0  0  0  0  0  0
    6.4414   -0.1929   18.4679 C   0  0  0  0  0  0  0  0  0  0  0  0
    5.7881    0.2830   17.3780 N   0  0  0  0  0  0  0  0  0  0  0  0
    4.7437    1.0441   17.5908 C   0  0  0  0  0  0  0  0  0  0  0  0
    4.2847    1.4167   18.8798 C   0  0  0  0  0  0  0  0  0  0  0  0
    3.1650    2.2676   19.0510 C   0  0  0  0  0  0  0  0  0  0  0  0
    2.7472    2.6186   20.3057 C   0  0  0  0  0  0  0  0  0  0  0  0
    3.4317    2.1261   21.4414 C   0  0  0  0  0  0  0  0  0  0  0  0
    4.5167    1.2942   21.2986 C   0  0  0  0  0  0  0  0  0  0  0  0
    4.9804    0.9233   20.0081 C   0  0  0  0  0  0  0  0  0  0  0  0
    5.0232    0.9102   22.1789 H   0  0  0  0  0  0  0  0  0  0  0  0
    3.0967    2.4168   22.4329 H   0  0  0  0  0  0  0  0  0  0  0  0
    1.8942    3.2785   20.4343 H   0  0  0  0  0  0  0  0  0  0  0  0
    2.6630    2.6409   18.1603 H   0  0  0  0  0  0  0  0  0  0  0  0
    4.2024    1.4047   16.7154 H   0  0  0  0  0  0  0  0  0  0  0  0
    7.2842   -0.8477   18.2433 H   0  0  0  0  0  0  0  0  0  0  0  0
    7.9220   -0.7819   20.5511 H   0  0  0  0  0  0  0  0  0  0  0  0
    7.0566    0.1965   21.7182 H   0  0  0  0  0  0  0  0  0  0  0  0
    8.7041   -1.4458   23.4948 C   0  0  0  0  0  0  0  0  0  0  0  0
    9.9849   -1.2184   23.9653 C   0  0  0  0  0  0  0  0  0  0  0  0
   10.1860   -0.4977   24.7575 H   0  0  0  0  0  0  0  0  0  0  0  0
    7.8583   -0.9558   23.9728 H   0  0  0  0  0  0  0  0  0  0  0  0
    9.4567   -3.5015   20.9057 H   0  0  0  0  0  0  0  0  0  0  0  0
   11.7097   -3.2962   21.8926 H   0  0  0  0  0  0  0  0  0  0  0  0
   14.2612   -1.8389   24.0334 H   0  0  0  0  0  0  0  0  0  0  0  0
   13.3631   -3.3526   23.7019 H   0  0  0  0  0  0  0  0  0  0  0  0
   13.5525   -2.1261   22.4156 H   0  0  0  0  0  0  0  0  0  0  0  0
  1  2  1  0
  2  3  1  0
  3  4  2  0
  4  5  1  0
  5  6  2  0
  6  7  1  0
  7  8  1  0
  8  9  1  0
  9 10  2  0
 10 11  1  0
 11 12  2  0
 12 13  1  0
 13 14  1  0
 13 15  2  0
 15 16  1  0
 12 17  1  0
 11 18  1  0
 10 19  1  0
  8 20  1  0
  8 21  1  0
  7 22  1  0
 22 23  2  0
 22 24  1  0
 24 25  1  0
 25 26  2  0
 26 27  1  0
 27 28  2  0
 28 29  1  0
 29 30  2  0
 30 31  1  0
 31 32  2  0
 32 33  1  0
 33 34  2  0
 33 35  1  0
 32 36  1  0
 31 37  1  0
 30 38  1  0
 28 39  1  0
 26 40  1  0
 24 41  1  0
 24 42  1  0
  6 43  1  0
 43 44  2  0
 44 45  1  0
 43 46  1  0
  5 47  1  0
  4 48  1  0
  1 49  1  0
  1 50  1  0
  1 51  1  0
 44  3  1  0
 15  9  1  0
 34 25  1  0
 34 29  1  0
M  END
>  <cnnaffinities>  (2) 
[6.56017, 6.27703]

>  <score>  (2) 
6.56017

>  <index>  (2) 
1

>  <Smiles>  (2) 
C(Oc1c(c(c(N(C(c2c(c(c(c(Cl)c2[H])[H])[H])[H])([H])[H])C(=O)C(c2c(nc(c3c(c(c(c(c23)[H])[H])[H])[H])[H])[H])([H])[H])c(c1[H])[H])[H])[H])([H])([H])[H]

>  <h>  (2) 
<NA>

>  <Training>  (2) 
True

>  <Success>  (2) 
True

>  <enamine_searched>  (2) 
False

>  <enamine_id>  (2) 
nan

$$$$

     RDKit          3D

 56 60  0  0  0  0  0  0  0  0999 V2000
    6.5933    4.3600   21.4898 C   0  0  0  0  0  0  0  0  0  0  0  0
    7.5488    3.8894   22.4807 N   0  0  0  0  0  0  0  0  0  0  0  0
    7.0751    3.1985   23.5516 C   0  0  0  0  0  0  0  0  0  0  0  0
    5.8797    2.9799   23.6950 O   0  0  0  0  0  0  0  0  0  0  0  0
    8.1020    2.7340   24.5850 C   0  0  0  0  0  0  0  0  0  0  0  0
    8.7011    1.4594   24.2156 N   0  0  0  0  0  0  0  0  0  0  0  0
    7.8531    0.3008   23.9674 C   0  0  0  0  0  0  0  0  0  0  0  0
    8.4262   -0.5458   22.7922 C   0  0  2  0  0  0  0  0  0  0  0  0
    8.1146    0.2013   21.4622 C   0  0  0  0  0  0  0  0  0  0  0  0
    8.6973    1.1453   20.9744 O   0  0  0  0  0  0  0  0  0  0  0  0
    6.9785   -0.3736   20.9201 N   0  0  0  0  0  0  0  0  0  0  0  0
    6.2521    0.1948   19.8434 C   0  0  0  0  0  0  0  0  0  0  0  0
    6.6171   -0.0857   18.5516 C   0  0  0  0  0  0  0  0  0  0  0  0
    5.9330    0.3275   17.4598 N   0  0  0  0  0  0  0  0  0  0  0  0
    4.8484    1.0362   17.6606 C   0  0  0  0  0  0  0  0  0  0  0  0
    4.3697    1.4289   18.9418 C   0  0  0  0  0  0  0  0  0  0  0  0
    3.2196    2.2478   19.1007 C   0  0  0  0  0  0  0  0  0  0  0  0
    2.7931    2.6107   20.3500 C   0  0  0  0  0  0  0  0  0  0  0  0
    3.4912    2.1665   21.4938 C   0  0  0  0  0  0  0  0  0  0  0  0
    4.6026    1.3656   21.3637 C   0  0  0  0  0  0  0  0  0  0  0  0
    5.0812    0.9840   20.0799 C   0  0  0  0  0  0  0  0  0  0  0  0
    5.1493    1.0761   22.2544 H   0  0  0  0  0  0  0  0  0  0  0  0
    3.1724    2.4807   22.4831 H   0  0  0  0  0  0  0  0  0  0  0  0
    1.9221    3.2494   20.4644 H   0  0  0  0  0  0  0  0  0  0  0  0
    2.7010    2.5858   18.2077 H   0  0  0  0  0  0  0  0  0  0  0  0
    4.2901    1.3407   16.7778 H   0  0  0  0  0  0  0  0  0  0  0  0
    7.5026   -0.6917   18.3728 H   0  0  0  0  0  0  0  0  0  0  0  0
    6.4783   -1.5465   21.6111 C   0  0  0  0  0  0  0  0  0  0  0  0
    7.6276   -1.8579   22.5795 C   0  0  2  0  0  0  0  0  0  0  0  0
    7.2406   -2.5003   23.8763 N   0  0  0  0  0  4  0  0  0  0  0  0
    6.5462   -1.9163   24.3722 H   0  0  0  0  0  0  0  0  0  0  0  0
    8.0957   -2.5753   24.4551 H   0  0  0  0  0  0  0  0  0  0  0  0
    6.8338   -3.4375   23.7320 H   0  0  0  0  0  0  0  0  0  0  0  0
    8.2922   -2.5508   22.0771 H   0  0  0  0  0  0  0  0  0  0  0  0
    5.5265   -1.3344   22.1184 H   0  0  0  0  0  0  0  0  0  0  0  0
    6.3023   -2.3577   20.8900 H   0  0  0  0  0  0  0  0  0  0  0  0
    9.9050   -0.8071   23.0468 C   0  0  0  0  0  0  0  0  0  0  0  0
   10.6245   -1.7819   22.3319 C   0  0  0  0  0  0  0  0  0  0  0  0
   11.9938   -1.9023   22.4965 C   0  0  0  0  0  0  0  0  0  0  0  0
   12.8845   -2.9331   21.4104 Cl  0  0  0  0  0  0  0  0  0  0  0  0
   12.6934   -1.1729   23.4576 C   0  0  0  0  0  0  0  0  0  0  0  0
   11.9767   -0.2407   24.1916 C   0  0  0  0  0  0  0  0  0  0  0  0
   10.6203   -0.0139   23.9494 C   0  0  0  0  0  0  0  0  0  0  0  0
   10.0367    1.2765   24.4522 C   0  0  0  0  0  0  0  0  0  0  0  0
   10.7355    2.1337   24.9718 O   0  0  0  0  0  0  0  0  0  0  0  0
   12.4507    0.4001   24.9208 H   0  0  0  0  0  0  0  0  0  0  0  0
   13.7745   -1.2858   23.5140 H   0  0  0  0  0  0  0  0  0  0  0  0
   10.1365   -2.4242   21.6084 H   0  0  0  0  0  0  0  0  0  0  0  0
    7.7866   -0.3053   24.8815 H   0  0  0  0  0  0  0  0  0  0  0  0
    6.8481    0.6597   23.7189 H   0  0  0  0  0  0  0  0  0  0  0  0
    7.5863    2.6687   25.5524 H   0  0  0  0  0  0  0  0  0  0  0  0
    8.9201    3.4546   24.6948 H   0  0  0  0  0  0  0  0  0  0  0  0
    8.5043    3.7367   22.1900 H   0  0  0  0  0  0  0  0  0  0  0  0
    5.7956    4.8989   22.0089 H   0  0  0  0  0  0  0  0  0  0  0  0
    7.0770    5.0408   20.7827 H   0  0  0  0  0  0  0  0  0  0  0  0
    6.1351    3.5176   20.9511 H   0  0  0  0  0  0  0  0  0  0  0  0
  1  2  1  0
  2  3  1  0
  3  4  2  0
  3  5  1  0
  5  6  1  0
  6  7  1  0
  8  7  1  1
  8  9  1  0
  9 10  2  0
  9 11  1  0
 11 12  1  0
 12 13  2  0
 13 14  1  0
 14 15  2  0
 15 16  1  0
 16 17  2  0
 17 18  1  0
 18 19  2  0
 19 20  1  0
 20 21  2  0
 20 22  1  0
 19 23  1  0
 18 24  1  0
 17 25  1  0
 15 26  1  0
 13 27  1  0
 11 28  1  0
 28 29  1  0
 29 30  1  0
 30 31  1  0
 30 32  1  0
 30 33  1  0
 29 34  1  6
 28 35  1  0
 28 36  1  0
  8 37  1  0
 37 38  2  0
 38 39  1  0
 39 40  1  0
 39 41  2  0
 41 42  1  0
 42 43  2  0
 43 44  1  0
 44 45  2  0
 42 46  1  0
 41 47  1  0
 38 48  1  0
  7 49  1  0
  7 50  1  0
  5 51  1  0
  5 52  1  0
  2 53  1  0
  1 54  1  0
  1 55  1  0
  1 56  1  0
 44  6  1  0
 29  8  1  0
 43 37  1  0
 21 12  1  0
 21 16  1  0
M  CHG  1  30   1
M  END
>  <cnnaffinities>  (3) 
[6.94113]

>  <score>  (3) 
6.94113

>  <index>  (3) 
2

>  <Smiles>  (3) 
C(N(C(=O)C(N1C([C@@]2(C(=O)N(c3c(nc(c4c(c(c(c(c34)[H])[H])[H])[H])[H])[H])C([C@@]2([N+]([H])([H])[H])[H])([H])[H])c2c(c(Cl)c(c(c2C1=O)[H])[H])[H])([H])[H])([H])[H])[H])([H])([H])[H]

>  <h>  (3) 
<NA>

>  <Training>  (3) 
True

>  <Success>  (3) 
True

>  <enamine_searched>  (3) 
False

>  <enamine_id>  (3) 
nan

$$$$

     RDKit          3D

 67 73  0  0  0  0  0  0  0  0999 V2000
    9.8938    2.7348   24.6888 O   0  0  0  0  0  0  0  0  0  0  0  0
    9.3939    1.6546   24.3864 C   0  0  0  0  0  0  0  0  0  0  0  0
   10.2158    0.4454   24.0514 C   0  0  0  0  0  0  0  0  0  0  0  0
   11.5529    0.4083   24.4501 C   0  0  0  0  0  0  0  0  0  0  0  0
   12.4410   -0.4881   23.8764 C   0  0  0  0  0  0  0  0  0  0  0  0
   11.9490   -1.3781   22.9193 C   0  0  0  0  0  0  0  0  0  0  0  0
   13.0570   -2.4469   22.0876 Cl  0  0  0  0  0  0  0  0  0  0  0  0
   10.5935   -1.4501   22.6299 C   0  0  0  0  0  0  0  0  0  0  0  0
    9.6855   -0.5448   23.2077 C   0  0  0  0  0  0  0  0  0  0  0  0
    8.1928   -0.5498   22.9017 C   0  0  1  0  0  0  0  0  0  0  0  0
    7.4776    0.1546   24.0978 C   0  0  0  0  0  0  0  0  0  0  0  0
    8.0473    1.4709   24.3093 N   0  0  0  0  0  0  0  0  0  0  0  0
    7.1827    2.5936   24.6240 C   0  0  0  0  0  0  0  0  0  0  0  0
    6.7656    2.6412   26.0743 C   0  0  0  0  0  0  0  0  0  0  0  0
    7.4251    3.3931   27.0215 C   0  0  0  0  0  0  0  0  0  0  0  0
    6.9605    3.3219   28.3319 C   0  0  0  0  0  0  0  0  0  0  0  0
    5.9395    2.5624   28.7104 N   0  0  0  0  0  0  0  0  0  0  0  0
    5.3060    1.8277   27.8064 N   0  0  0  0  0  0  0  0  0  0  0  0
    5.7061    1.8616   26.5401 C   0  0  0  0  0  0  0  0  0  0  0  0
    5.1369    1.2294   25.8593 H   0  0  0  0  0  0  0  0  0  0  0  0
    7.4338    3.8932   29.1267 H   0  0  0  0  0  0  0  0  0  0  0  0
    8.2932    4.0011   26.7711 H   0  0  0  0  0  0  0  0  0  0  0  0
    6.3017    2.5424   23.9725 H   0  0  0  0  0  0  0  0  0  0  0  0
    7.7391    3.4981   24.3754 H   0  0  0  0  0  0  0  0  0  0  0  0
    6.4079    0.2714   23.9000 H   0  0  0  0  0  0  0  0  0  0  0  0
    7.5656   -0.4538   25.0118 H   0  0  0  0  0  0  0  0  0  0  0  0
    7.8619    0.2412   21.6129 C   0  0  0  0  0  0  0  0  0  0  0  0
    8.3011    1.3168   21.2794 O   0  0  0  0  0  0  0  0  0  0  0  0
    6.9169   -0.4674   20.8976 N   0  0  0  0  0  0  0  0  0  0  0  0
    6.1752    0.1154   19.8402 C   0  0  0  0  0  0  0  0  0  0  0  0
    6.5154   -0.1868   18.5503 C   0  0  0  0  0  0  0  0  0  0  0  0
    5.8596    0.2699   17.4568 N   0  0  0  0  0  0  0  0  0  0  0  0
    4.8095    1.0251   17.6515 C   0  0  0  0  0  0  0  0  0  0  0  0
    4.3368    1.4058   18.9360 C   0  0  0  0  0  0  0  0  0  0  0  0
    3.2087    2.2510   19.0790 C   0  0  0  0  0  0  0  0  0  0  0  0
    2.7659    2.6090   20.3205 C   0  0  0  0  0  0  0  0  0  0  0  0
    3.4358    2.1359   21.4730 C   0  0  0  0  0  0  0  0  0  0  0  0
    4.5332    1.3186   21.3626 C   0  0  0  0  0  0  0  0  0  0  0  0
    5.0237    0.9372   20.0796 C   0  0  0  0  0  0  0  0  0  0  0  0
    5.0331    0.9664   22.2640 H   0  0  0  0  0  0  0  0  0  0  0  0
    3.0740    2.4277   22.4538 H   0  0  0  0  0  0  0  0  0  0  0  0
    1.9051    3.2623   20.4291 H   0  0  0  0  0  0  0  0  0  0  0  0
    2.7178    2.6064   18.1769 H   0  0  0  0  0  0  0  0  0  0  0  0
    4.2737    1.3842   16.7705 H   0  0  0  0  0  0  0  0  0  0  0  0
    7.3762   -0.8246   18.3544 H   0  0  0  0  0  0  0  0  0  0  0  0
    6.5190   -1.7176   21.5068 C   0  0  0  0  0  0  0  0  0  0  0  0
    7.5929   -1.9472   22.5711 C   0  0  2  0  0  0  0  0  0  0  0  0
    7.0671   -2.7573   23.7446 C   0  0  0  0  0  0  0  0  0  0  0  0
    8.1453   -3.0564   24.6562 N   0  0  0  0  0  0  0  0  0  0  0  0
    7.8829   -3.5572   25.8886 C   0  0  0  0  0  0  0  0  0  0  0  0
    8.9272   -3.7469   26.8104 C   0  0  0  0  0  0  0  0  0  0  0  0
    8.5669   -4.2480   28.0369 C   0  0  0  0  0  0  0  0  0  0  0  0
    7.3024   -4.5693   28.3543 N   0  0  0  0  0  0  0  0  0  0  0  0
    6.4117   -4.3697   27.3964 C   0  0  0  0  0  0  0  0  0  0  0  0
    6.6175   -3.8827   26.1719 N   0  0  0  0  0  0  0  0  0  0  0  0
    5.3823   -4.6327   27.6384 H   0  0  0  0  0  0  0  0  0  0  0  0
    9.3228   -4.4056   28.8076 H   0  0  0  0  0  0  0  0  0  0  0  0
    9.9500   -3.5289   26.5238 H   0  0  0  0  0  0  0  0  0  0  0  0
    9.0119   -2.5488   24.5378 H   0  0  0  0  0  0  0  0  0  0  0  0
    6.2722   -2.2112   24.2703 H   0  0  0  0  0  0  0  0  0  0  0  0
    6.6170   -3.6984   23.4094 H   0  0  0  0  0  0  0  0  0  0  0  0
    8.3811   -2.5404   22.0994 H   0  0  0  0  0  0  0  0  0  0  0  0
    6.4991   -2.5309   20.7723 H   0  0  0  0  0  0  0  0  0  0  0  0
    5.5134   -1.6536   21.9498 H   0  0  0  0  0  0  0  0  0  0  0  0
   10.2718   -2.2158   21.9383 H   0  0  0  0  0  0  0  0  0  0  0  0
   13.4970   -0.4839   24.1320 H   0  0  0  0  0  0  0  0  0  0  0  0
   11.8881    1.1553   25.1600 H   0  0  0  0  0  0  0  0  0  0  0  0
  1  2  2  0
  2  3  1  0
  3  4  2  0
  4  5  1  0
  5  6  2  0
  6  7  1  0
  6  8  1  0
  8  9  2  0
  9 10  1  0
 10 11  1  1
 11 12  1  0
 12 13  1  0
 13 14  1  0
 14 15  2  0
 15 16  1  0
 16 17  2  0
 17 18  1  0
 18 19  2  0
 19 20  1  0
 16 21  1  0
 15 22  1  0
 13 23  1  0
 13 24  1  0
 11 25  1  0
 11 26  1  0
 10 27  1  0
 27 28  2  0
 27 29  1  0
 29 30  1  0
 30 31  2  0
 31 32  1  0
 32 33  2  0
 33 34  1  0
 34 35  2  0
 35 36  1  0
 36 37  2  0
 37 38  1  0
 38 39  2  0
 38 40  1  0
 37 41  1  0
 36 42  1  0
 35 43  1  0
 33 44  1  0
 31 45  1  0
 29 46  1  0
 46 47  1  0
 47 48  1  0
 48 49  1  0
 49 50  1  0
 50 51  2  0
 51 52  1  0
 52 53  2  0
 53 54  1  0
 54 55  2  0
 54 56  1  0
 52 57  1  0
 51 58  1  0
 49 59  1  0
 48 60  1  0
 48 61  1  0
 47 62  1  6
 46 63  1  0
 46 64  1  0
  8 65  1  0
  5 66  1  0
  4 67  1  0
 12  2  1  0
 19 14  1  0
 39 30  1  0
 55 50  1  0
  9  3  1  0
 47 10  1  0
 39 34  1  0
M  END
>  <cnnaffinities>  (4) 
[7.36353]

>  <score>  (4) 
7.36353

>  <index>  (4) 
3

>  <Smiles>  (4) 
O=C1c2c(c(c(Cl)c(c2[C@@]2(C(N1C(c1c(c(nnc1[H])[H])[H])([H])[H])([H])[H])C(=O)N(c1c(nc(c3c(c(c(c(c13)[H])[H])[H])[H])[H])[H])C([C@@]2(C(N(c1c(c(nc(n1)[H])[H])[H])[H])([H])[H])[H])([H])[H])[H])[H])[H]

>  <h>  (4) 
<NA>

>  <Training>  (4) 
True

>  <Success>  (4) 
True

>  <enamine_searched>  (4) 
False

>  <enamine_id>  (4) 
nan

$$$$

     RDKit          3D

 41 44  0  0  0  0  0  0  0  0999 V2000
    7.3406   -0.3135   24.4612 C   0  0  0  0  0  0  0  0  0  0  0  0
    7.7769   -1.4944   23.5892 C   0  0  1  0  0  0  0  0  0  0  0  0
    8.5051   -2.5216   24.4140 C   0  0  0  0  0  0  0  0  0  0  0  0
    9.8835   -2.4890   24.7815 C   0  0  0  0  0  0  0  0  0  0  0  0
   10.2028   -3.5060   25.6295 C   0  0  0  0  0  0  0  0  0  0  0  0
    8.8431   -4.4804   26.0389 S   0  0  0  0  0  0  0  0  0  0  0  0
    7.8224   -3.5210   25.0272 C   0  0  0  0  0  0  0  0  0  0  0  0
    6.3481   -3.6488   24.8540 C   0  0  0  0  0  0  0  0  0  0  0  0
    5.9176   -3.2454   23.4396 C   0  0  0  0  0  0  0  0  0  0  0  0
    6.6473   -2.0948   22.8717 N   0  0  0  0  0  0  0  0  0  0  0  0
    6.2034   -1.6628   21.6381 C   0  0  0  0  0  0  0  0  0  0  0  0
    5.2558   -2.2095   21.1008 O   0  0  0  0  0  0  0  0  0  0  0  0
    6.9216   -0.4908   20.9206 C   0  0  0  0  0  0  0  0  0  0  0  0
    6.1144    0.0826   19.7791 C   0  0  0  0  0  0  0  0  0  0  0  0
    6.4235   -0.2104   18.4756 C   0  0  0  0  0  0  0  0  0  0  0  0
    5.7694    0.2632   17.3820 N   0  0  0  0  0  0  0  0  0  0  0  0
    4.7312    1.0342   17.5824 C   0  0  0  0  0  0  0  0  0  0  0  0
    4.2832    1.4212   18.8731 C   0  0  0  0  0  0  0  0  0  0  0  0
    3.1636    2.2753   19.0456 C   0  0  0  0  0  0  0  0  0  0  0  0
    2.7482    2.6278   20.3015 C   0  0  0  0  0  0  0  0  0  0  0  0
    3.4383    2.1391   21.4325 C   0  0  0  0  0  0  0  0  0  0  0  0
    4.5287    1.3151   21.2877 C   0  0  0  0  0  0  0  0  0  0  0  0
    4.9881    0.9336   20.0007 C   0  0  0  0  0  0  0  0  0  0  0  0
    5.0423    0.9466   22.1689 H   0  0  0  0  0  0  0  0  0  0  0  0
    3.1032    2.4225   22.4241 H   0  0  0  0  0  0  0  0  0  0  0  0
    1.8921    3.2823   20.4363 H   0  0  0  0  0  0  0  0  0  0  0  0
    2.6447    2.6459   18.1642 H   0  0  0  0  0  0  0  0  0  0  0  0
    4.1988    1.3972   16.7003 H   0  0  0  0  0  0  0  0  0  0  0  0
    7.2629   -0.8650   18.2465 H   0  0  0  0  0  0  0  0  0  0  0  0
    7.8670   -0.8779   20.5159 H   0  0  0  0  0  0  0  0  0  0  0  0
    7.1958    0.3129   21.6170 H   0  0  0  0  0  0  0  0  0  0  0  0
    4.8466   -3.0247   23.4443 H   0  0  0  0  0  0  0  0  0  0  0  0
    6.0414   -4.1027   22.7710 H   0  0  0  0  0  0  0  0  0  0  0  0
    5.8448   -3.0271   25.6069 H   0  0  0  0  0  0  0  0  0  0  0  0
    6.0117   -4.6623   25.0743 H   0  0  0  0  0  0  0  0  0  0  0  0
   11.1695   -3.7583   26.0325 H   0  0  0  0  0  0  0  0  0  0  0  0
   10.5953   -1.7373   24.4464 H   0  0  0  0  0  0  0  0  0  0  0  0
    8.4952   -1.1354   22.8441 H   0  0  0  0  0  0  0  0  0  0  0  0
    6.8203    0.4531   23.8820 H   0  0  0  0  0  0  0  0  0  0  0  0
    8.2098    0.1420   24.9454 H   0  0  0  0  0  0  0  0  0  0  0  0
    6.6699   -0.6645   25.2480 H   0  0  0  0  0  0  0  0  0  0  0  0
  1  2  1  0
  2  3  1  0
  3  4  1  0
  4  5  2  0
  5  6  1  0
  6  7  1  0
  7  8  1  0
  8  9  1  0
  9 10  1  0
 10 11  1  0
 11 12  2  0
 11 13  1  0
 13 14  1  0
 14 15  2  0
 15 16  1  0
 16 17  2  0
 17 18  1  0
 18 19  2  0
 19 20  1  0
 20 21  2  0
 21 22  1  0
 22 23  2  0
 22 24  1  0
 21 25  1  0
 20 26  1  0
 19 27  1  0
 17 28  1  0
 15 29  1  0
 13 30  1  0
 13 31  1  0
  9 32  1  0
  9 33  1  0
  8 34  1  0
  8 35  1  0
  5 36  1  0
  4 37  1  0
  2 38  1  6
  1 39  1  0
  1 40  1  0
  1 41  1  0
 10  2  1  0
 23 14  1  0
  7  3  2  0
 23 18  1  0
M  END
>  <cnnaffinities>  (5) 
[5.58233, 5.59049]

>  <score>  (5) 
5.58233

>  <index>  (5) 
4

>  <Smiles>  (5) 
C([C@]1(c2c(c(sc2C(C(N1C(=O)C(c1c(nc(c2c(c(c(c(c12)[H])[H])[H])[H])[H])[H])([H])[H])([H])[H])([H])[H])[H])[H])[H])([H])([H])[H]

>  <h>  (5) 
<NA>

>  <Training>  (5) 
True

>  <Success>  (5) 
True

>  <enamine_searched>  (5) 
False

>  <enamine_id>  (5) 
nan

$$$$

     RDKit          3D

 65 69  0  0  0  0  0  0  0  0999 V2000
    6.6214    5.1674   26.9782 C   0  0  0  0  0  0  0  0  0  0  0  0
    7.6588    4.0726   26.7312 C   0  0  0  0  0  0  0  0  0  0  0  0
    7.0949    3.0474   25.7717 C   0  0  0  0  0  0  0  0  0  0  0  0
    6.7292    3.3009   24.6589 O   0  0  0  0  0  0  0  0  0  0  0  0
    6.9545    1.6178   26.3061 N   0  0  1  0  0  4  0  0  0  0  0  0
    5.5140    1.2655   26.7754 C   0  0  0  0  0  0  0  0  0  0  0  0
    4.6650    0.8839   25.5752 C   0  0  0  0  0  0  0  0  0  0  0  0
    5.2098   -0.3934   24.9350 C   0  0  0  0  0  0  0  0  0  0  0  0
    6.7029   -0.3210   24.6594 C   0  0  0  0  0  0  0  0  0  0  0  0
    7.3211   -1.1631   23.7129 C   0  0  0  0  0  0  0  0  0  0  0  0
    6.5175   -2.0002   22.8777 N   0  0  0  0  0  0  0  0  0  0  0  0
    6.0583   -3.2752   23.4219 C   0  0  0  0  0  0  0  0  0  0  0  0
    7.0834   -4.3881   23.2849 C   0  0  0  0  0  0  0  0  0  0  0  0
    7.0021   -5.3268   22.2560 C   0  0  0  0  0  0  0  0  0  0  0  0
    7.8392   -6.4381   22.2337 C   0  0  0  0  0  0  0  0  0  0  0  0
    8.8088   -6.6027   23.2148 C   0  0  0  0  0  0  0  0  0  0  0  0
    8.9186   -5.6386   24.2060 C   0  0  0  0  0  0  0  0  0  0  0  0
   10.1383   -5.8925   25.4219 Cl  0  0  0  0  0  0  0  0  0  0  0  0
    8.0863   -4.5261   24.2505 C   0  0  0  0  0  0  0  0  0  0  0  0
    8.1868   -3.7824   25.0390 H   0  0  0  0  0  0  0  0  0  0  0  0
    9.4714   -7.4654   23.2431 H   0  0  0  0  0  0  0  0  0  0  0  0
    7.7500   -7.1873   21.4567 H   0  0  0  0  0  0  0  0  0  0  0  0
    6.2718   -5.1927   21.4629 H   0  0  0  0  0  0  0  0  0  0  0  0
    5.1318   -3.5301   22.8936 H   0  0  0  0  0  0  0  0  0  0  0  0
    5.8451   -3.1165   24.4871 H   0  0  0  0  0  0  0  0  0  0  0  0
    6.2877   -1.7612   21.5365 C   0  0  0  0  0  0  0  0  0  0  0  0
    5.6423   -2.5376   20.8495 O   0  0  0  0  0  0  0  0  0  0  0  0
    6.9011   -0.4906   20.9253 C   0  0  0  0  0  0  0  0  0  0  0  0
    6.1091    0.0950   19.7890 C   0  0  0  0  0  0  0  0  0  0  0  0
    6.4446   -0.1811   18.4905 C   0  0  0  0  0  0  0  0  0  0  0  0
    5.7961    0.2927   17.3944 N   0  0  0  0  0  0  0  0  0  0  0  0
    4.7517    1.0515   17.6030 C   0  0  0  0  0  0  0  0  0  0  0  0
    4.2846    1.4275   18.8898 C   0  0  0  0  0  0  0  0  0  0  0  0
    3.1620    2.2775   19.0607 C   0  0  0  0  0  0  0  0  0  0  0  0
    2.7470    2.6341   20.3134 C   0  0  0  0  0  0  0  0  0  0  0  0
    3.4409    2.1590   21.4488 C   0  0  0  0  0  0  0  0  0  0  0  0
    4.5331    1.3389   21.3099 C   0  0  0  0  0  0  0  0  0  0  0  0
    4.9855    0.9450   20.0216 C   0  0  0  0  0  0  0  0  0  0  0  0
    5.0683    1.0052   22.1970 H   0  0  0  0  0  0  0  0  0  0  0  0
    3.1110    2.4565   22.4415 H   0  0  0  0  0  0  0  0  0  0  0  0
    1.8909    3.2902   20.4417 H   0  0  0  0  0  0  0  0  0  0  0  0
    2.6529    2.6443   18.1723 H   0  0  0  0  0  0  0  0  0  0  0  0
    4.2218    1.4173   16.7228 H   0  0  0  0  0  0  0  0  0  0  0  0
    7.2995   -0.8233   18.2745 H   0  0  0  0  0  0  0  0  0  0  0  0
    7.8909   -0.7912   20.5533 H   0  0  0  0  0  0  0  0  0  0  0  0
    7.0741    0.2597   21.7040 H   0  0  0  0  0  0  0  0  0  0  0  0
    8.7059   -1.1935   23.5820 C   0  0  0  0  0  0  0  0  0  0  0  0
    9.5024   -0.3133   24.3080 C   0  0  0  0  0  0  0  0  0  0  0  0
    8.9003    0.5948   25.1671 C   0  0  0  0  0  0  0  0  0  0  0  0
    7.5192    0.5720   25.3524 C   0  0  0  0  0  0  0  0  0  0  0  0
    9.4877    1.3315   25.7075 H   0  0  0  0  0  0  0  0  0  0  0  0
   10.5824   -0.3199   24.1940 H   0  0  0  0  0  0  0  0  0  0  0  0
    9.1619   -1.9148   22.9072 H   0  0  0  0  0  0  0  0  0  0  0  0
    4.6763   -0.6157   24.0062 H   0  0  0  0  0  0  0  0  0  0  0  0
    5.0129   -1.2351   25.6160 H   0  0  0  0  0  0  0  0  0  0  0  0
    4.6882    1.7062   24.8500 H   0  0  0  0  0  0  0  0  0  0  0  0
    3.6281    0.7416   25.8912 H   0  0  0  0  0  0  0  0  0  0  0  0
    5.6025    0.4236   27.4668 H   0  0  0  0  0  0  0  0  0  0  0  0
    5.1020    2.1219   27.3159 H   0  0  0  0  0  0  0  0  0  0  0  0
    7.5592    1.5778   27.1480 H   0  0  0  0  0  0  0  0  0  0  0  0
    7.9628    3.5820   27.6628 H   0  0  0  0  0  0  0  0  0  0  0  0
    8.5569    4.4857   26.2571 H   0  0  0  0  0  0  0  0  0  0  0  0
    5.7473    4.7517   27.4913 H   0  0  0  0  0  0  0  0  0  0  0  0
    7.0368    5.9694   27.5926 H   0  0  0  0  0  0  0  0  0  0  0  0
    6.2864    5.5862   26.0259 H   0  0  0  0  0  0  0  0  0  0  0  0
  1  2  1  0
  2  3  1  0
  3  4  2  0
  3  5  1  0
  5  6  1  0
  6  7  1  0
  7  8  1  0
  8  9  1  0
  9 10  2  0
 10 11  1  0
 11 12  1  0
 12 13  1  0
 13 14  2  0
 14 15  1  0
 15 16  2  0
 16 17  1  0
 17 18  1  0
 17 19  2  0
 19 20  1  0
 16 21  1  0
 15 22  1  0
 14 23  1  0
 12 24  1  0
 12 25  1  0
 11 26  1  0
 26 27  2  0
 26 28  1  0
 28 29  1  0
 29 30  2  0
 30 31  1  0
 31 32  2  0
 32 33  1  0
 33 34  2  0
 34 35  1  0
 35 36  2  0
 36 37  1  0
 37 38  2  0
 37 39  1  0
 36 40  1  0
 35 41  1  0
 34 42  1  0
 32 43  1  0
 30 44  1  0
 28 45  1  0
 28 46  1  0
 10 47  1  0
 47 48  2  0
 48 49  1  0
 49 50  2  0
 49 51  1  0
 48 52  1  0
 47 53  1  0
  8 54  1  0
  8 55  1  0
  7 56  1  0
  7 57  1  0
  6 58  1  0
  6 59  1  0
  5 60  1  1
  2 61  1  0
  2 62  1  0
  1 63  1  0
  1 64  1  0
  1 65  1  0
 50  5  1  0
 50  9  1  0
 19 13  1  0
 38 29  1  0
 38 33  1  0
M  CHG  1   5   1
M  END
>  <cnnaffinities>  (6) 
[7.04425, 6.71557]

>  <score>  (6) 
7.04425

>  <index>  (6) 
6

>  <Smiles>  (6) 
C(C(C(=O)[N@+]1(C(C(C(c2c(N(C(c3c(c(c(c(Cl)c3[H])[H])[H])[H])([H])[H])C(=O)C(c3c(nc(c4c(c(c(c(c34)[H])[H])[H])[H])[H])[H])([H])[H])c(c(c(c12)[H])[H])[H])([H])[H])([H])[H])([H])[H])[H])([H])[H])([H])([H])[H]

>  <h>  (6) 
<NA>

>  <Training>  (6) 
True

>  <Success>  (6) 
True

>  <enamine_searched>  (6) 
False

>  <enamine_id>  (6) 
nan

$$$$

     RDKit          3D

 37 39  0  0  0  0  0  0  0  0999 V2000
    8.5344    1.3387   20.7084 O   0  0  0  0  0  0  0  0  0  0  0  0
    7.8687    0.6725   21.4758 C   0  0  0  0  0  0  0  0  0  0  0  0
    6.9486   -0.4389   20.9186 C   0  0  0  0  0  0  0  0  0  0  0  0
    6.1057    0.0810   19.7732 C   0  0  0  0  0  0  0  0  0  0  0  0
    6.4302   -0.1998   18.4728 C   0  0  0  0  0  0  0  0  0  0  0  0
    5.7747    0.2744   17.3805 N   0  0  0  0  0  0  0  0  0  0  0  0
    4.7314    1.0363   17.5849 C   0  0  0  0  0  0  0  0  0  0  0  0
    4.2807    1.4225   18.8725 C   0  0  0  0  0  0  0  0  0  0  0  0
    3.1680    2.2824   19.0459 C   0  0  0  0  0  0  0  0  0  0  0  0
    2.7633    2.6495   20.3000 C   0  0  0  0  0  0  0  0  0  0  0  0
    3.4620    2.1697   21.4314 C   0  0  0  0  0  0  0  0  0  0  0  0
    4.5451    1.3381   21.2890 C   0  0  0  0  0  0  0  0  0  0  0  0
    4.9875    0.9391   20.0012 C   0  0  0  0  0  0  0  0  0  0  0  0
    5.0685    0.9828   22.1730 H   0  0  0  0  0  0  0  0  0  0  0  0
    3.1362    2.4666   22.4230 H   0  0  0  0  0  0  0  0  0  0  0  0
    1.9118    3.3121   20.4332 H   0  0  0  0  0  0  0  0  0  0  0  0
    2.6516    2.6491   18.1617 H   0  0  0  0  0  0  0  0  0  0  0  0
    4.1988    1.3951   16.7011 H   0  0  0  0  0  0  0  0  0  0  0  0
    7.2715   -0.8527   18.2405 H   0  0  0  0  0  0  0  0  0  0  0  0
    6.3111   -0.8804   21.6960 H   0  0  0  0  0  0  0  0  0  0  0  0
    7.6001   -1.2339   20.5346 H   0  0  0  0  0  0  0  0  0  0  0  0
    7.8830    0.9003   22.8466 N   0  0  0  0  0  0  0  0  0  0  0  0
    7.5919   -0.1174   23.8433 C   0  0  0  0  0  0  0  0  0  0  0  0
    8.4545    0.0735   25.0869 C   0  0  0  0  0  0  0  0  0  0  0  0
    8.3351    1.4890   25.6263 C   0  0  0  0  0  0  0  0  0  0  0  0
    8.7006    2.4943   24.5440 C   0  0  0  0  0  0  0  0  0  0  0  0
    7.8416    2.2856   23.3089 C   0  0  0  0  0  0  0  0  0  0  0  0
    6.8040    2.5845   23.5399 H   0  0  0  0  0  0  0  0  0  0  0  0
    8.1804    2.9082   22.4829 H   0  0  0  0  0  0  0  0  0  0  0  0
    8.5813    3.5187   24.9136 H   0  0  0  0  0  0  0  0  0  0  0  0
    9.7556    2.3864   24.2748 H   0  0  0  0  0  0  0  0  0  0  0  0
    7.3142    1.6731   25.9850 H   0  0  0  0  0  0  0  0  0  0  0  0
    8.9803    1.6109   26.4940 H   0  0  0  0  0  0  0  0  0  0  0  0
    9.4996   -0.1396   24.8427 H   0  0  0  0  0  0  0  0  0  0  0  0
    8.1656   -0.6529   25.8517 H   0  0  0  0  0  0  0  0  0  0  0  0
    6.5312   -0.1113   24.1452 H   0  0  0  0  0  0  0  0  0  0  0  0
    7.8006   -1.0925   23.4065 H   0  0  0  0  0  0  0  0  0  0  0  0
  1  2  2  0
  2  3  1  0
  3  4  1  0
  4  5  2  0
  5  6  1  0
  6  7  2  0
  7  8  1  0
  8  9  2  0
  9 10  1  0
 10 11  2  0
 11 12  1  0
 12 13  2  0
 12 14  1  0
 11 15  1  0
 10 16  1  0
  9 17  1  0
  7 18  1  0
  5 19  1  0
  3 20  1  0
  3 21  1  0
  2 22  1  0
 22 23  1  0
 23 24  1  0
 24 25  1  0
 25 26  1  0
 26 27  1  0
 27 28  1  0
 27 29  1  0
 26 30  1  0
 26 31  1  0
 25 32  1  0
 25 33  1  0
 24 34  1  0
 24 35  1  0
 23 36  1  0
 23 37  1  0
 13  4  1  0
 27 22  1  0
 13  8  1  0
M  END
>  <cnnaffinities>  (7) 
[4.98535, 4.97857, 5.18949]

>  <score>  (7) 
4.98535

>  <index>  (7) 
7

>  <Smiles>  (7) 
O=C(C(c1c(nc(c2c(c(c(c(c12)[H])[H])[H])[H])[H])[H])([H])[H])N1C(C(C(C(C1([H])[H])([H])[H])([H])[H])([H])[H])([H])[H]

>  <h>  (7) 
<NA>

>  <Training>  (7) 
True

>  <Success>  (7) 
True

>  <enamine_searched>  (7) 
False

>  <enamine_id>  (7) 
nan

$$$$

     RDKit          3D

 66 71  0  0  0  0  0  0  0  0999 V2000
    7.7117   -3.0844   23.3130 C   0  0  0  0  0  0  0  0  0  0  0  0
    7.9728   -2.0129   22.2623 C   0  0  1  0  0  0  0  0  0  0  0  0
    6.8334   -1.8005   21.2576 C   0  0  0  0  0  0  0  0  0  0  0  0
    6.9792   -0.4107   20.8695 N   0  0  0  0  0  0  0  0  0  0  0  0
    6.1933    0.1436   19.8274 C   0  0  0  0  0  0  0  0  0  0  0  0
    6.4979   -0.1815   18.5297 C   0  0  0  0  0  0  0  0  0  0  0  0
    5.8329    0.2692   17.4410 N   0  0  0  0  0  0  0  0  0  0  0  0
    4.7910    1.0347   17.6416 C   0  0  0  0  0  0  0  0  0  0  0  0
    4.3341    1.4210   18.9301 C   0  0  0  0  0  0  0  0  0  0  0  0
    3.1974    2.2575   19.0774 C   0  0  0  0  0  0  0  0  0  0  0  0
    2.7492    2.6000   20.3218 C   0  0  0  0  0  0  0  0  0  0  0  0
    3.4109    2.1126   21.4714 C   0  0  0  0  0  0  0  0  0  0  0  0
    4.5202    1.3092   21.3534 C   0  0  0  0  0  0  0  0  0  0  0  0
    5.0314    0.9557   20.0709 C   0  0  0  0  0  0  0  0  0  0  0  0
    5.0083    0.9386   22.2511 H   0  0  0  0  0  0  0  0  0  0  0  0
    3.0355    2.3828   22.4538 H   0  0  0  0  0  0  0  0  0  0  0  0
    1.8845    3.2479   20.4324 H   0  0  0  0  0  0  0  0  0  0  0  0
    2.7027    2.6182   18.1786 H   0  0  0  0  0  0  0  0  0  0  0  0
    4.2467    1.3880   16.7640 H   0  0  0  0  0  0  0  0  0  0  0  0
    7.3422   -0.8397   18.3290 H   0  0  0  0  0  0  0  0  0  0  0  0
    7.8004    0.3239   21.7046 C   0  0  0  0  0  0  0  0  0  0  0  0
    8.0692    1.4951   21.5492 O   0  0  0  0  0  0  0  0  0  0  0  0
    8.2529   -0.6095   22.8604 C   0  0  1  0  0  0  0  0  0  0  0  0
    7.3504   -0.3043   24.1045 C   0  0  0  0  0  0  0  0  0  0  0  0
    7.5867    1.0429   24.6018 N   0  0  0  0  0  0  0  0  0  0  0  0
    6.4912    1.8809   25.0508 C   0  0  0  0  0  0  0  0  0  0  0  0
    6.0804    1.5996   26.5013 C   0  0  0  0  0  0  0  0  0  0  0  0
    6.5109    2.2485   27.4418 O   0  0  0  0  0  0  0  0  0  0  0  0
    5.2175    0.5591   26.6808 N   0  0  0  0  0  0  0  0  0  0  0  0
    4.8089    0.2269   28.0385 C   0  0  0  0  0  0  0  0  0  0  0  0
    3.8903    1.2582   28.6326 C   0  0  0  0  0  0  0  0  0  0  0  0
    4.0499    2.1419   29.6807 C   0  0  0  0  0  0  0  0  0  0  0  0
    2.8504    2.8732   29.7162 C   0  0  0  0  0  0  0  0  0  0  0  0
    2.0092    2.4767   28.7709 N   0  0  0  0  0  0  0  0  0  0  0  0
    2.6512    1.4923   28.1250 N   0  0  0  0  0  0  0  0  0  0  0  0
    1.9976    0.8604   26.9972 C   0  0  0  0  0  0  0  0  0  0  0  0
    0.9494    1.1564   27.0440 H   0  0  0  0  0  0  0  0  0  0  0  0
    2.4235    1.1960   26.0451 H   0  0  0  0  0  0  0  0  0  0  0  0
    2.0656   -0.2289   27.0673 H   0  0  0  0  0  0  0  0  0  0  0  0
    2.5588    3.6705   30.3877 H   0  0  0  0  0  0  0  0  0  0  0  0
    4.9348    2.2676   30.2931 H   0  0  0  0  0  0  0  0  0  0  0  0
    5.7025    0.1537   28.6620 H   0  0  0  0  0  0  0  0  0  0  0  0
    4.3381   -0.7609   28.0313 H   0  0  0  0  0  0  0  0  0  0  0  0
    4.9454   -0.0301   25.9095 H   0  0  0  0  0  0  0  0  0  0  0  0
    5.6455    1.7676   24.3570 H   0  0  0  0  0  0  0  0  0  0  0  0
    6.8538    2.9099   25.0035 H   0  0  0  0  0  0  0  0  0  0  0  0
    8.8414    1.5744   24.6623 C   0  0  0  0  0  0  0  0  0  0  0  0
    9.0560    2.7029   25.0836 O   0  0  0  0  0  0  0  0  0  0  0  0
    9.9352    0.6763   24.1902 C   0  0  0  0  0  0  0  0  0  0  0  0
   11.2220    0.9868   24.6042 C   0  0  0  0  0  0  0  0  0  0  0  0
   12.3013    0.2434   24.1729 C   0  0  0  0  0  0  0  0  0  0  0  0
   12.0800   -0.8186   23.2963 C   0  0  0  0  0  0  0  0  0  0  0  0
   10.7966   -1.0915   22.8391 C   0  0  0  0  0  0  0  0  0  0  0  0
    9.6861   -0.3696   23.2993 C   0  0  0  0  0  0  0  0  0  0  0  0
   10.6546   -1.8545   22.0834 H   0  0  0  0  0  0  0  0  0  0  0  0
   12.9130   -1.4428   22.9819 H   0  0  0  0  0  0  0  0  0  0  0  0
   13.3079    0.4987   24.4809 H   0  0  0  0  0  0  0  0  0  0  0  0
   11.3248    1.8243   25.2698 H   0  0  0  0  0  0  0  0  0  0  0  0
    6.2932   -0.3781   23.8232 H   0  0  0  0  0  0  0  0  0  0  0  0
    7.5459   -1.0540   24.8897 H   0  0  0  0  0  0  0  0  0  0  0  0
    6.9158   -2.4483   20.3816 H   0  0  0  0  0  0  0  0  0  0  0  0
    5.8482   -1.9991   21.7059 H   0  0  0  0  0  0  0  0  0  0  0  0
    8.8532   -2.2901   21.6710 H   0  0  0  0  0  0  0  0  0  0  0  0
    6.7720   -2.8799   23.8412 H   0  0  0  0  0  0  0  0  0  0  0  0
    7.6447   -4.0833   22.8755 H   0  0  0  0  0  0  0  0  0  0  0  0
    8.5197   -3.0868   24.0540 H   0  0  0  0  0  0  0  0  0  0  0  0
  1  2  1  0
  2  3  1  0
  3  4  1  0
  4  5  1  0
  5  6  2  0
  6  7  1  0
  7  8  2  0
  8  9  1  0
  9 10  2  0
 10 11  1  0
 11 12  2  0
 12 13  1  0
 13 14  2  0
 13 15  1  0
 12 16  1  0
 11 17  1  0
 10 18  1  0
  8 19  1  0
  6 20  1  0
  4 21  1  0
 21 22  2  0
 21 23  1  0
 23 24  1  1
 24 25  1  0
 25 26  1  0
 26 27  1  0
 27 28  2  0
 27 29  1  0
 29 30  1  0
 30 31  1  0
 31 32  2  0
 32 33  1  0
 33 34  2  0
 34 35  1  0
 35 36  1  0
 36 37  1  0
 36 38  1  0
 36 39  1  0
 33 40  1  0
 32 41  1  0
 30 42  1  0
 30 43  1  0
 29 44  1  0
 26 45  1  0
 26 46  1  0
 25 47  1  0
 47 48  2  0
 47 49  1  0
 49 50  2  0
 50 51  1  0
 51 52  2  0
 52 53  1  0
 53 54  2  0
 53 55  1  0
 52 56  1  0
 51 57  1  0
 50 58  1  0
 24 59  1  0
 24 60  1  0
  3 61  1  0
  3 62  1  0
  2 63  1  6
  1 64  1  0
  1 65  1  0
  1 66  1  0
 23  2  1  0
 35 31  1  0
 54 49  1  0
 14  5  1  0
 54 23  1  0
 14  9  1  0
M  END
>  <cnnaffinities>  (8) 
[6.47111]

>  <score>  (8) 
6.47111

>  <index>  (8) 
8

>  <Smiles>  (8) 
C([C@]1(C(N(c2c(nc(c3c(c(c(c(c23)[H])[H])[H])[H])[H])[H])C(=O)[C@]21C(N(C(C(=O)N(C(c1c(c(nn1C([H])([H])[H])[H])[H])([H])[H])[H])([H])[H])C(=O)c1c(c(c(c(c21)[H])[H])[H])[H])([H])[H])([H])[H])[H])([H])([H])[H]

>  <h>  (8) 
<NA>

>  <Training>  (8) 
True

>  <Success>  (8) 
True

>  <enamine_searched>  (8) 
False

>  <enamine_id>  (8) 
nan

$$$$

     RDKit          3D

 58 63  0  0  0  0  0  0  0  0999 V2000
    6.1875    2.6957   29.8039 C   0  0  0  0  0  0  0  0  0  0  0  0
    6.1658    2.3983   28.3388 C   0  0  0  0  0  0  0  0  0  0  0  0
    6.9627    2.9439   27.2879 C   0  0  0  0  0  0  0  0  0  0  0  0
    6.4762    2.3324   26.1747 C   0  0  0  0  0  0  0  0  0  0  0  0
    6.8247    2.3773   24.7182 C   0  0  0  0  0  0  0  0  0  0  0  0
    7.8192    1.3927   24.3368 N   0  0  0  0  0  0  0  0  0  0  0  0
    7.4629    0.0138   24.0722 C   0  0  0  0  0  0  0  0  0  0  0  0
    8.2945   -0.5213   22.8703 C   0  0  2  0  0  0  0  0  0  0  0  0
    7.9355    0.3298   21.6223 C   0  0  0  0  0  0  0  0  0  0  0  0
    8.3403    1.4297   21.3132 O   0  0  0  0  0  0  0  0  0  0  0  0
    6.9940   -0.3806   20.9081 N   0  0  0  0  0  0  0  0  0  0  0  0
    6.2436    0.1779   19.8508 C   0  0  0  0  0  0  0  0  0  0  0  0
    6.5644   -0.1519   18.5603 C   0  0  0  0  0  0  0  0  0  0  0  0
    5.8907    0.2781   17.4691 N   0  0  0  0  0  0  0  0  0  0  0  0
    4.8390    1.0319   17.6654 C   0  0  0  0  0  0  0  0  0  0  0  0
    4.3825    1.4332   18.9509 C   0  0  0  0  0  0  0  0  0  0  0  0
    3.2371    2.2567   19.0956 C   0  0  0  0  0  0  0  0  0  0  0  0
    2.7824    2.5982   20.3397 C   0  0  0  0  0  0  0  0  0  0  0  0
    3.4547    2.1283   21.4911 C   0  0  0  0  0  0  0  0  0  0  0  0
    4.5776    1.3445   21.3747 C   0  0  0  0  0  0  0  0  0  0  0  0
    5.0848    0.9868   20.0914 C   0  0  0  0  0  0  0  0  0  0  0  0
    5.0744    0.9837   22.2714 H   0  0  0  0  0  0  0  0  0  0  0  0
    3.0760    2.3942   22.4746 H   0  0  0  0  0  0  0  0  0  0  0  0
    1.9054    3.2310   20.4463 H   0  0  0  0  0  0  0  0  0  0  0  0
    2.7390    2.6004   18.1933 H   0  0  0  0  0  0  0  0  0  0  0  0
    4.2833    1.3584   16.7849 H   0  0  0  0  0  0  0  0  0  0  0  0
    7.4170   -0.8003   18.3661 H   0  0  0  0  0  0  0  0  0  0  0  0
    6.7255   -1.7131   21.4074 C   0  0  0  0  0  0  0  0  0  0  0  0
    7.8568   -1.9372   22.4182 C   0  0  2  0  0  0  0  0  0  0  0  0
    7.5464   -2.8928   23.5626 C   0  0  0  0  0  0  0  0  0  0  0  0
    6.6627   -2.5698   24.1246 H   0  0  0  0  0  0  0  0  0  0  0  0
    8.3913   -2.9169   24.2610 H   0  0  0  0  0  0  0  0  0  0  0  0
    7.3612   -3.9053   23.1961 H   0  0  0  0  0  0  0  0  0  0  0  0
    8.6846   -2.3421   21.8259 H   0  0  0  0  0  0  0  0  0  0  0  0
    5.7262   -1.7798   21.8581 H   0  0  0  0  0  0  0  0  0  0  0  0
    6.7566   -2.4304   20.5824 H   0  0  0  0  0  0  0  0  0  0  0  0
    9.7485   -0.4103   23.2965 C   0  0  0  0  0  0  0  0  0  0  0  0
   10.7644   -1.2924   22.8756 C   0  0  0  0  0  0  0  0  0  0  0  0
   12.0639   -1.0933   23.3013 C   0  0  0  0  0  0  0  0  0  0  0  0
   13.0521   -1.8767   22.8311 F   0  0  0  0  0  0  0  0  0  0  0  0
   12.4071   -0.1147   24.2233 C   0  0  0  0  0  0  0  0  0  0  0  0
   11.4110    0.7511   24.6413 C   0  0  0  0  0  0  0  0  0  0  0  0
   10.1132    0.6544   24.1367 C   0  0  0  0  0  0  0  0  0  0  0  0
    9.1355    1.7483   24.4531 C   0  0  0  0  0  0  0  0  0  0  0  0
    9.4877    2.8669   24.7997 O   0  0  0  0  0  0  0  0  0  0  0  0
   11.6174    1.5388   25.3464 H   0  0  0  0  0  0  0  0  0  0  0  0
   13.4378   -0.0571   24.5561 H   0  0  0  0  0  0  0  0  0  0  0  0
   10.6045   -2.1407   22.2222 H   0  0  0  0  0  0  0  0  0  0  0  0
    7.6626   -0.6075   24.9592 H   0  0  0  0  0  0  0  0  0  0  0  0
    6.3906   -0.0360   23.8726 H   0  0  0  0  0  0  0  0  0  0  0  0
    7.2720    3.3435   24.4881 H   0  0  0  0  0  0  0  0  0  0  0  0
    5.9116    2.2619   24.1215 H   0  0  0  0  0  0  0  0  0  0  0  0
    5.4912    1.4934   26.5132 O   0  0  0  0  0  0  0  0  0  0  0  0
    5.2971    1.5349   27.8745 N   0  0  0  0  0  0  0  0  0  0  0  0
    7.7943    3.6309   27.3682 H   0  0  0  0  0  0  0  0  0  0  0  0
    7.2076    2.8360   30.1709 H   0  0  0  0  0  0  0  0  0  0  0  0
    5.7148    1.8804   30.3586 H   0  0  0  0  0  0  0  0  0  0  0  0
    5.6262    3.6136   30.0081 H   0  0  0  0  0  0  0  0  0  0  0  0
  1  2  1  0
  2  3  1  0
  3  4  2  0
  4  5  1  0
  5  6  1  0
  6  7  1  0
  8  7  1  1
  8  9  1  0
  9 10  2  0
  9 11  1  0
 11 12  1  0
 12 13  2  0
 13 14  1  0
 14 15  2  0
 15 16  1  0
 16 17  2  0
 17 18  1  0
 18 19  2  0
 19 20  1  0
 20 21  2  0
 20 22  1  0
 19 23  1  0
 18 24  1  0
 17 25  1  0
 15 26  1  0
 13 27  1  0
 11 28  1  0
 28 29  1  0
 29 30  1  0
 30 31  1  0
 30 32  1  0
 30 33  1  0
 29 34  1  6
 28 35  1  0
 28 36  1  0
  8 37  1  0
 37 38  2  0
 38 39  1  0
 39 40  1  0
 39 41  2  0
 41 42  1  0
 42 43  2  0
 43 44  1  0
 44 45  2  0
 42 46  1  0
 41 47  1  0
 38 48  1  0
  7 49  1  0
  7 50  1  0
  5 51  1  0
  5 52  1  0
  4 53  1  0
 53 54  1  0
  3 55  1  0
  1 56  1  0
  1 57  1  0
  1 58  1  0
 54  2  2  0
 44  6  1  0
 29  8  1  0
 43 37  1  0
 21 12  1  0
 21 16  1  0
M  END
>  <cnnaffinities>  (9) 
[6.96559]

>  <score>  (9) 
6.96559

>  <index>  (9) 
9

>  <Smiles>  (9) 
C(c1c(c(C(N2C([C@@]3(C(=O)N(c4c(nc(c5c(c(c(c(c45)[H])[H])[H])[H])[H])[H])C([C@@]3(C([H])([H])[H])[H])([H])[H])c3c(c(F)c(c(c3C2=O)[H])[H])[H])([H])[H])([H])[H])on1)[H])([H])([H])[H]

>  <h>  (9) 
<NA>

>  <Training>  (9) 
True

>  <Success>  (9) 
True

>  <enamine_searched>  (9) 
False

>  <enamine_id>  (9) 
nan

$$$$

     RDKit          3D

 72 77  0  0  0  0  0  0  0  0999 V2000
    7.4845    8.3719   24.7142 C   0  0  0  0  0  0  0  0  0  0  0  0
    6.7708    7.3044   23.9058 C   0  0  1  0  0  0  0  0  0  0  0  0
    7.5108    5.9691   23.9193 C   0  0  0  0  0  0  0  0  0  0  0  0
    6.7188    4.9266   23.1697 N   0  0  0  0  0  4  0  0  0  0  0  0
    7.4411    3.6100   23.0055 C   0  0  0  0  0  0  0  0  0  0  0  0
    7.6299    2.8449   24.3234 C   0  0  0  0  0  0  0  0  0  0  0  0
    8.3748    1.6108   24.1520 N   0  0  0  0  0  0  0  0  0  0  0  0
    7.7109    0.3402   23.9422 C   0  0  0  0  0  0  0  0  0  0  0  0
    8.3911   -0.4691   22.7909 C   0  0  2  0  0  0  0  0  0  0  0  0
    8.0967    0.2281   21.4334 C   0  0  0  0  0  0  0  0  0  0  0  0
    8.6803    1.1618   20.9204 O   0  0  0  0  0  0  0  0  0  0  0  0
    6.9855   -0.3914   20.8941 N   0  0  0  0  0  0  0  0  0  0  0  0
    6.2250    0.1649   19.8343 C   0  0  0  0  0  0  0  0  0  0  0  0
    6.5611   -0.1335   18.5407 C   0  0  0  0  0  0  0  0  0  0  0  0
    5.8711    0.2845   17.4519 N   0  0  0  0  0  0  0  0  0  0  0  0
    4.8095    1.0207   17.6495 C   0  0  0  0  0  0  0  0  0  0  0  0
    4.3454    1.4126   18.9348 C   0  0  0  0  0  0  0  0  0  0  0  0
    3.2066    2.2447   19.0875 C   0  0  0  0  0  0  0  0  0  0  0  0
    2.7698    2.5966   20.3320 C   0  0  0  0  0  0  0  0  0  0  0  0
    3.4488    2.1251   21.4772 C   0  0  0  0  0  0  0  0  0  0  0  0
    4.5652    1.3308   21.3569 C   0  0  0  0  0  0  0  0  0  0  0  0
    5.0566    0.9613   20.0738 C   0  0  0  0  0  0  0  0  0  0  0  0
    5.0723    0.9938   22.2550 H   0  0  0  0  0  0  0  0  0  0  0  0
    3.0882    2.3978   22.4636 H   0  0  0  0  0  0  0  0  0  0  0  0
    1.9013    3.2383   20.4513 H   0  0  0  0  0  0  0  0  0  0  0  0
    2.7052    2.5991   18.1909 H   0  0  0  0  0  0  0  0  0  0  0  0
    4.2591    1.3543   16.7675 H   0  0  0  0  0  0  0  0  0  0  0  0
    7.4197   -0.7709   18.3443 H   0  0  0  0  0  0  0  0  0  0  0  0
    6.5375   -1.5664   21.6212 C   0  0  0  0  0  0  0  0  0  0  0  0
    7.7117   -1.8497   22.5690 C   0  0  2  0  0  0  0  0  0  0  0  0
    7.3480   -2.6026   23.8451 C   0  0  0  0  0  0  0  0  0  0  0  0
    6.5580   -2.0788   24.4010 H   0  0  0  0  0  0  0  0  0  0  0  0
    6.9951   -3.6163   23.6220 H   0  0  0  0  0  0  0  0  0  0  0  0
    8.2272   -2.6756   24.4976 H   0  0  0  0  0  0  0  0  0  0  0  0
    8.4218   -2.4574   21.9956 H   0  0  0  0  0  0  0  0  0  0  0  0
    6.3593   -2.3929   20.9241 H   0  0  0  0  0  0  0  0  0  0  0  0
    5.5929   -1.3903   22.1617 H   0  0  0  0  0  0  0  0  0  0  0  0
    9.8660   -0.5625   23.1153 C   0  0  0  0  0  0  0  0  0  0  0  0
   10.7048   -1.5008   22.4963 C   0  0  0  0  0  0  0  0  0  0  0  0
   12.0765   -1.4499   22.6734 C   0  0  0  0  0  0  0  0  0  0  0  0
   13.0980   -2.4801   21.7048 Cl  0  0  0  0  0  0  0  0  0  0  0  0
   12.6455   -0.5960   23.6231 C   0  0  0  0  0  0  0  0  0  0  0  0
   11.8097    0.2735   24.3018 C   0  0  0  0  0  0  0  0  0  0  0  0
   10.4519    0.3666   23.9890 C   0  0  0  0  0  0  0  0  0  0  0  0
    9.7200    1.6262   24.3676 C   0  0  0  0  0  0  0  0  0  0  0  0
   10.3148    2.6104   24.7766 O   0  0  0  0  0  0  0  0  0  0  0  0
   12.2080    0.9326   25.0643 H   0  0  0  0  0  0  0  0  0  0  0  0
   13.7149   -0.6137   23.8026 H   0  0  0  0  0  0  0  0  0  0  0  0
   10.3101   -2.2431   21.8132 H   0  0  0  0  0  0  0  0  0  0  0  0
    7.7650   -0.2542   24.8703 H   0  0  0  0  0  0  0  0  0  0  0  0
    6.6584    0.5437   23.7200 H   0  0  0  0  0  0  0  0  0  0  0  0
    6.6524    2.5974   24.7464 H   0  0  0  0  0  0  0  0  0  0  0  0
    8.1824    3.4515   25.0454 H   0  0  0  0  0  0  0  0  0  0  0  0
    6.8661    3.0000   22.2948 H   0  0  0  0  0  0  0  0  0  0  0  0
    8.4220    3.8269   22.5631 H   0  0  0  0  0  0  0  0  0  0  0  0
    5.3276    4.8370   23.7559 C   0  0  0  0  0  0  0  0  0  0  0  0
    4.6515    6.2105   23.8152 C   0  0  2  0  0  0  0  0  0  0  0  0
    4.1786    6.7113   22.4549 C   0  0  0  0  0  0  0  0  0  0  0  0
    3.4388    6.0185   22.0399 H   0  0  0  0  0  0  0  0  0  0  0  0
    4.9976    6.7888   21.7308 H   0  0  0  0  0  0  0  0  0  0  0  0
    3.7178    7.6987   22.5591 H   0  0  0  0  0  0  0  0  0  0  0  0
    5.4771    7.1597   24.4801 O   0  0  0  0  0  0  0  0  0  0  0  0
    3.7757    6.1183   24.4694 H   0  0  0  0  0  0  0  0  0  0  0  0
    5.4036    4.4493   24.7732 H   0  0  0  0  0  0  0  0  0  0  0  0
    4.7270    4.1455   23.1586 H   0  0  0  0  0  0  0  0  0  0  0  0
    6.5996    5.2859   22.2020 H   0  0  0  0  0  0  0  0  0  0  0  0
    8.4989    6.0752   23.4582 H   0  0  0  0  0  0  0  0  0  0  0  0
    7.6392    5.6504   24.9580 H   0  0  0  0  0  0  0  0  0  0  0  0
    6.6844    7.6327   22.8575 H   0  0  0  0  0  0  0  0  0  0  0  0
    7.5620    8.0542   25.7600 H   0  0  0  0  0  0  0  0  0  0  0  0
    6.9214    9.3094   24.6785 H   0  0  0  0  0  0  0  0  0  0  0  0
    8.4929    8.5562   24.3276 H   0  0  0  0  0  0  0  0  0  0  0  0
  1  2  1  0
  2  3  1  0
  3  4  1  0
  4  5  1  0
  5  6  1  0
  6  7  1  0
  7  8  1  0
  9  8  1  1
  9 10  1  0
 10 11  2  0
 10 12  1  0
 12 13  1  0
 13 14  2  0
 14 15  1  0
 15 16  2  0
 16 17  1  0
 17 18  2  0
 18 19  1  0
 19 20  2  0
 20 21  1  0
 21 22  2  0
 21 23  1  0
 20 24  1  0
 19 25  1  0
 18 26  1  0
 16 27  1  0
 14 28  1  0
 12 29  1  0
 29 30  1  0
 30 31  1  0
 31 32  1  0
 31 33  1  0
 31 34  1  0
 30 35  1  6
 29 36  1  0
 29 37  1  0
  9 38  1  0
 38 39  2  0
 39 40  1  0
 40 41  1  0
 40 42  2  0
 42 43  1  0
 43 44  2  0
 44 45  1  0
 45 46  2  0
 43 47  1  0
 42 48  1  0
 39 49  1  0
  8 50  1  0
  8 51  1  0
  6 52  1  0
  6 53  1  0
  5 54  1  0
  5 55  1  0
  4 56  1  0
 56 57  1  0
 57 58  1  0
 58 59  1  0
 58 60  1  0
 58 61  1  0
 57 62  1  0
 57 63  1  1
 56 64  1  0
 56 65  1  0
  4 66  1  0
  3 67  1  0
  3 68  1  0
  2 69  1  6
  1 70  1  0
  1 71  1  0
  1 72  1  0
 62  2  1  0
 45  7  1  0
 30  9  1  0
 44 38  1  0
 22 13  1  0
 22 17  1  0
M  CHG  1   4   1
M  END
>  <cnnaffinities>  (10) 
[7.40221]

>  <score>  (10) 
7.40221

>  <index>  (10) 
10

>  <Smiles>  (10) 
C([C@]1(C([N+](C(C(N2C([C@@]3(C(=O)N(c4c(nc(c5c(c(c(c(c45)[H])[H])[H])[H])[H])[H])C([C@@]3(C([H])([H])[H])[H])([H])[H])c3c(c(Cl)c(c(c3C2=O)[H])[H])[H])([H])[H])([H])[H])([H])[H])(C([C@](C([H])([H])[H])(O1)[H])([H])[H])[H])([H])[H])[H])([H])([H])[H]

>  <h>  (10) 
<NA>

>  <Training>  (10) 
True

>  <Success>  (10) 
True

>  <enamine_searched>  (10) 
False

>  <enamine_id>  (10) 
nan

$$$$

     RDKit          3D

 54 57  0  0  0  0  0  0  0  0999 V2000
    9.5501    2.2297   24.5538 C   0  0  0  0  0  0  0  0  0  0  0  0
    8.9006    0.9797   24.6790 O   0  0  0  0  0  0  0  0  0  0  0  0
    9.4925   -0.0907   24.0627 C   0  0  0  0  0  0  0  0  0  0  0  0
   10.8731   -0.1731   23.8910 C   0  0  0  0  0  0  0  0  0  0  0  0
   11.4239   -1.2078   23.1391 C   0  0  0  0  0  0  0  0  0  0  0  0
   10.6109   -2.2221   22.6536 C   0  0  0  0  0  0  0  0  0  0  0  0
    9.2422   -2.1792   22.9165 C   0  0  0  0  0  0  0  0  0  0  0  0
    8.6562   -1.1268   23.6237 C   0  0  0  0  0  0  0  0  0  0  0  0
    7.1687   -1.0991   23.9821 C   0  0  2  0  0  0  0  0  0  0  0  0
    6.9552   -1.6265   25.4359 C   0  0  0  0  0  0  0  0  0  0  0  0
    5.4868   -1.9651   25.7483 C   0  0  2  0  0  0  0  0  0  0  0  0
    5.1513   -2.4479   27.1672 C   0  0  0  0  0  0  0  0  0  0  0  0
    5.5684   -1.8055   27.9544 H   0  0  0  0  0  0  0  0  0  0  0  0
    4.0562   -2.4665   27.2900 H   0  0  0  0  0  0  0  0  0  0  0  0
    5.5004   -3.4738   27.3426 H   0  0  0  0  0  0  0  0  0  0  0  0
    5.0594   -2.9953   24.7165 C   0  0  0  0  0  0  0  0  0  0  0  0
    5.0728   -2.3304   23.3708 C   0  0  0  0  0  0  0  0  0  0  0  0
    6.3806   -1.8314   22.9819 N   0  0  0  0  0  0  0  0  0  0  0  0
    6.4402   -1.6094   21.6094 C   0  0  0  0  0  0  0  0  0  0  0  0
    5.9253   -2.4026   20.8394 O   0  0  0  0  0  0  0  0  0  0  0  0
    7.1146   -0.3583   21.0404 C   0  0  0  0  0  0  0  0  0  0  0  0
    6.3030    0.2118   19.9026 C   0  0  0  0  0  0  0  0  0  0  0  0
    6.6551   -0.0689   18.6083 C   0  0  0  0  0  0  0  0  0  0  0  0
    5.9825    0.3422   17.5034 N   0  0  0  0  0  0  0  0  0  0  0  0
    4.8979    1.0495   17.6999 C   0  0  0  0  0  0  0  0  0  0  0  0
    4.4120    1.4280   18.9808 C   0  0  0  0  0  0  0  0  0  0  0  0
    3.2522    2.2276   19.1327 C   0  0  0  0  0  0  0  0  0  0  0  0
    2.8001    2.5628   20.3799 C   0  0  0  0  0  0  0  0  0  0  0  0
    3.4839    2.0983   21.5255 C   0  0  0  0  0  0  0  0  0  0  0  0
    4.6081    1.3219   21.4069 C   0  0  0  0  0  0  0  0  0  0  0  0
    5.1185    0.9804   20.1231 C   0  0  0  0  0  0  0  0  0  0  0  0
    5.1093    0.9681   22.3055 H   0  0  0  0  0  0  0  0  0  0  0  0
    3.1123    2.3622   22.5107 H   0  0  0  0  0  0  0  0  0  0  0  0
    1.9165    3.1825   20.4958 H   0  0  0  0  0  0  0  0  0  0  0  0
    2.7337    2.5645   18.2399 H   0  0  0  0  0  0  0  0  0  0  0  0
    4.3436    1.3564   16.8139 H   0  0  0  0  0  0  0  0  0  0  0  0
    7.5422   -0.6719   18.4062 H   0  0  0  0  0  0  0  0  0  0  0  0
    8.0902   -0.6877   20.6621 H   0  0  0  0  0  0  0  0  0  0  0  0
    7.3043    0.3798   21.8251 H   0  0  0  0  0  0  0  0  0  0  0  0
    4.3914   -1.4620   23.3852 H   0  0  0  0  0  0  0  0  0  0  0  0
    4.7488   -3.0137   22.5906 H   0  0  0  0  0  0  0  0  0  0  0  0
    5.7530   -3.8455   24.7315 H   0  0  0  0  0  0  0  0  0  0  0  0
    4.0539   -3.3779   24.9356 H   0  0  0  0  0  0  0  0  0  0  0  0
    4.8821   -1.0599   25.5823 H   0  0  0  0  0  0  0  0  0  0  0  0
    7.3330   -0.8607   26.1235 H   0  0  0  0  0  0  0  0  0  0  0  0
    7.5787   -2.5145   25.6063 H   0  0  0  0  0  0  0  0  0  0  0  0
    6.8342   -0.0521   23.9948 H   0  0  0  0  0  0  0  0  0  0  0  0
    8.6233   -2.9868   22.5359 H   0  0  0  0  0  0  0  0  0  0  0  0
   11.0481   -3.0390   22.0819 H   0  0  0  0  0  0  0  0  0  0  0  0
   12.4904   -1.1961   22.9275 H   0  0  0  0  0  0  0  0  0  0  0  0
   11.4961    0.6063   24.3216 H   0  0  0  0  0  0  0  0  0  0  0  0
   10.4794    2.2582   25.1314 H   0  0  0  0  0  0  0  0  0  0  0  0
    8.8425    2.9715   24.9289 H   0  0  0  0  0  0  0  0  0  0  0  0
    9.7973    2.4553   23.5071 H   0  0  0  0  0  0  0  0  0  0  0  0
  1  2  1  0
  2  3  1  0
  3  4  2  0
  4  5  1  0
  5  6  2  0
  6  7  1  0
  7  8  2  0
  8  9  1  0
  9 10  1  0
 10 11  1  0
 11 12  1  0
 12 13  1  0
 12 14  1  0
 12 15  1  0
 11 16  1  0
 16 17  1  0
 17 18  1  0
 18 19  1  0
 19 20  2  0
 19 21  1  0
 21 22  1  0
 22 23  2  0
 23 24  1  0
 24 25  2  0
 25 26  1  0
 26 27  2  0
 27 28  1  0
 28 29  2  0
 29 30  1  0
 30 31  2  0
 30 32  1  0
 29 33  1  0
 28 34  1  0
 27 35  1  0
 25 36  1  0
 23 37  1  0
 21 38  1  0
 21 39  1  0
 17 40  1  0
 17 41  1  0
 16 42  1  0
 16 43  1  0
 11 44  1  6
 10 45  1  0
 10 46  1  0
  9 47  1  1
  7 48  1  0
  6 49  1  0
  5 50  1  0
  4 51  1  0
  1 52  1  0
  1 53  1  0
  1 54  1  0
  8  3  1  0
 18  9  1  0
 31 22  1  0
 31 26  1  0
M  END
>  <cnnaffinities>  (11) 
[5.9768, 5.92992, 6.2076, 6.3769]

>  <score>  (11) 
5.9768

>  <index>  (11) 
11

>  <Smiles>  (11) 
C(Oc1c(c(c(c(c1[C@@]1(C([C@](C([H])([H])[H])(C(C(N1C(=O)C(c1c(nc(c2c(c(c(c(c12)[H])[H])[H])[H])[H])[H])([H])[H])([H])[H])([H])[H])[H])([H])[H])[H])[H])[H])[H])[H])([H])([H])[H]

>  <h>  (11) 
<NA>

>  <Training>  (11) 
True

>  <Success>  (11) 
True

>  <enamine_searched>  (11) 
False

>  <enamine_id>  (11) 
nan

$$$$

     RDKit          3D

 47 50  0  0  0  0  0  0  0  0999 V2000
    8.4521    1.0797   20.5563 O   0  0  0  0  0  0  0  0  0  0  0  0
    7.6975    0.4185   21.2545 C   0  0  0  0  0  0  0  0  0  0  0  0
    6.8156   -0.6842   20.6552 C   0  0  0  0  0  0  0  0  0  0  0  0
    5.9883   -0.0336   19.5856 C   0  0  0  0  0  0  0  0  0  0  0  0
    6.3744   -0.1508   18.2772 C   0  0  0  0  0  0  0  0  0  0  0  0
    5.7381    0.4208   17.2246 N   0  0  0  0  0  0  0  0  0  0  0  0
    4.6825    1.1426   17.4982 C   0  0  0  0  0  0  0  0  0  0  0  0
    4.2230    1.4201   18.8096 C   0  0  0  0  0  0  0  0  0  0  0  0
    3.1291    2.2874   19.0259 C   0  0  0  0  0  0  0  0  0  0  0  0
    2.7510    2.6335   20.2921 C   0  0  0  0  0  0  0  0  0  0  0  0
    3.4609    2.1126   21.3963 C   0  0  0  0  0  0  0  0  0  0  0  0
    4.5120    1.2450   21.2162 C   0  0  0  0  0  0  0  0  0  0  0  0
    4.9182    0.8588   19.9040 C   0  0  0  0  0  0  0  0  0  0  0  0
    5.0489    0.8886   22.0905 H   0  0  0  0  0  0  0  0  0  0  0  0
    3.1759    2.4122   22.4004 H   0  0  0  0  0  0  0  0  0  0  0  0
    1.9169    3.3103   20.4474 H   0  0  0  0  0  0  0  0  0  0  0  0
    2.6250    2.6844   18.1504 H   0  0  0  0  0  0  0  0  0  0  0  0
    4.1453    1.5764   16.6552 H   0  0  0  0  0  0  0  0  0  0  0  0
    7.2515   -0.7468   18.0215 H   0  0  0  0  0  0  0  0  0  0  0  0
    6.1899   -1.1897   21.4042 H   0  0  0  0  0  0  0  0  0  0  0  0
    7.4802   -1.4376   20.2046 H   0  0  0  0  0  0  0  0  0  0  0  0
    7.5431    0.6665   22.5876 N   0  0  0  0  0  0  0  0  0  0  0  0
    7.0509   -0.2970   23.5658 C   0  0  0  0  0  0  0  0  0  0  0  0
    7.6187    0.2644   24.8711 C   0  0  2  0  0  0  0  0  0  0  0  0
    6.9747   -0.2214   26.1435 C   0  0  0  0  0  0  0  0  0  0  0  0
    5.6024   -0.0174   26.1218 F   0  0  0  0  0  0  0  0  0  0  0  0
    7.1339   -1.2934   26.2901 H   0  0  0  0  0  0  0  0  0  0  0  0
    7.3759    0.3127   27.0158 H   0  0  0  0  0  0  0  0  0  0  0  0
    7.6902    1.7927   24.6756 C   0  0  0  0  0  0  0  0  0  0  0  0
    8.7411    2.4200   25.5841 C   0  0  0  0  0  0  0  0  0  0  0  0
    8.5286    3.9423   25.4912 C   0  0  0  0  0  0  0  0  0  0  0  0
    7.0144    4.0978   25.1773 C   0  0  0  0  0  0  0  0  0  0  0  0
    6.4674    2.6504   25.0695 C   0  0  0  0  0  0  0  0  0  0  0  0
    5.6332    2.5425   24.3666 H   0  0  0  0  0  0  0  0  0  0  0  0
    6.1062    2.3088   26.0410 H   0  0  0  0  0  0  0  0  0  0  0  0
    6.4667    4.6816   25.9305 H   0  0  0  0  0  0  0  0  0  0  0  0
    6.8870    4.6098   24.2165 H   0  0  0  0  0  0  0  0  0  0  0  0
    8.8553    4.4768   26.3900 H   0  0  0  0  0  0  0  0  0  0  0  0
    9.1133    4.3685   24.6733 H   0  0  0  0  0  0  0  0  0  0  0  0
    8.5561    2.1067   26.6163 H   0  0  0  0  0  0  0  0  0  0  0  0
    9.7386    2.0594   25.3022 H   0  0  0  0  0  0  0  0  0  0  0  0
    8.0296    1.9112   23.1717 C   0  0  0  0  0  0  0  0  0  0  0  0
    7.5445    2.7800   22.7061 H   0  0  0  0  0  0  0  0  0  0  0  0
    9.1062    2.0261   22.9868 H   0  0  0  0  0  0  0  0  0  0  0  0
    8.6621   -0.0804   24.9077 H   0  0  0  0  0  0  0  0  0  0  0  0
    7.4538   -1.2943   23.3602 H   0  0  0  0  0  0  0  0  0  0  0  0
    5.9524   -0.3759   23.5671 H   0  0  0  0  0  0  0  0  0  0  0  0
  1  2  2  0
  2  3  1  0
  3  4  1  0
  4  5  2  0
  5  6  1  0
  6  7  2  0
  7  8  1  0
  8  9  2  0
  9 10  1  0
 10 11  2  0
 11 12  1  0
 12 13  2  0
 12 14  1  0
 11 15  1  0
 10 16  1  0
  9 17  1  0
  7 18  1  0
  5 19  1  0
  3 20  1  0
  3 21  1  0
  2 22  1  0
 22 23  1  0
 23 24  1  0
 24 25  1  0
 25 26  1  0
 25 27  1  0
 25 28  1  0
 24 29  1  0
 29 30  1  0
 30 31  1  0
 31 32  1  0
 32 33  1  0
 33 34  1  0
 33 35  1  0
 32 36  1  0
 32 37  1  0
 31 38  1  0
 31 39  1  0
 30 40  1  0
 30 41  1  0
 29 42  1  0
 42 43  1  0
 42 44  1  0
 24 45  1  1
 23 46  1  0
 23 47  1  0
 13  4  1  0
 42 22  1  0
 13  8  1  0
 33 29  1  0
M  END
>  <cnnaffinities>  (12) 
[5.75203, 5.72223, 5.72165, 5.68442, 5.5648, 5.64248, 5.64336, 5.56607]

>  <score>  (12) 
5.75203

>  <index>  (12) 
12

>  <Smiles>  (12) 
O=C(C(c1c(nc(c2c(c(c(c(c12)[H])[H])[H])[H])[H])[H])([H])[H])N1C([C@](C(F)([H])[H])(C2(C(C(C(C2([H])[H])([H])[H])([H])[H])([H])[H])C1([H])[H])[H])([H])[H]

>  <h>  (12) 
<NA>

>  <Training>  (12) 
True

>  <Success>  (12) 
True

>  <enamine_searched>  (12) 
False

>  <enamine_id>  (12) 
nan

$$$$

     RDKit          3D

 67 72  0  0  0  0  0  0  0  0999 V2000
    6.6661    4.1586   21.4611 C   0  0  0  0  0  0  0  0  0  0  0  0
    7.6316    3.6388   22.4127 N   0  0  0  0  0  0  0  0  0  0  0  0
    7.2053    3.1169   23.5941 C   0  0  0  0  0  0  0  0  0  0  0  0
    6.0231    3.0693   23.9058 O   0  0  0  0  0  0  0  0  0  0  0  0
    8.3027    2.6229   24.5340 C   0  0  0  0  0  0  0  0  0  0  0  0
    8.8305    1.3255   24.1494 N   0  0  0  0  0  0  0  0  0  0  0  0
    7.9324    0.2169   23.8805 C   0  0  0  0  0  0  0  0  0  0  0  0
    8.4502   -0.6469   22.6937 C   0  0  2  0  0  0  0  0  0  0  0  0
    8.1347    0.0987   21.3702 C   0  0  0  0  0  0  0  0  0  0  0  0
    8.7483    1.0112   20.8568 O   0  0  0  0  0  0  0  0  0  0  0  0
    6.9502   -0.4189   20.8757 N   0  0  0  0  0  0  0  0  0  0  0  0
    6.2477    0.1940   19.8081 C   0  0  0  0  0  0  0  0  0  0  0  0
    6.6649    0.0081   18.5132 C   0  0  0  0  0  0  0  0  0  0  0  0
    5.9951    0.4638   17.4281 N   0  0  0  0  0  0  0  0  0  0  0  0
    4.8863    1.1333   17.6329 C   0  0  0  0  0  0  0  0  0  0  0  0
    4.3732    1.4544   18.9210 C   0  0  0  0  0  0  0  0  0  0  0  0
    3.2036    2.2409   19.0923 C   0  0  0  0  0  0  0  0  0  0  0  0
    2.7710    2.5786   20.3464 C   0  0  0  0  0  0  0  0  0  0  0  0
    3.4871    2.1495   21.4840 C   0  0  0  0  0  0  0  0  0  0  0  0
    4.6116    1.3688   21.3417 C   0  0  0  0  0  0  0  0  0  0  0  0
    5.0790    0.9848   20.0539 C   0  0  0  0  0  0  0  0  0  0  0  0
    5.1819    1.0982   22.2242 H   0  0  0  0  0  0  0  0  0  0  0  0
    3.1651    2.4481   22.4769 H   0  0  0  0  0  0  0  0  0  0  0  0
    1.8831    3.1912   20.4690 H   0  0  0  0  0  0  0  0  0  0  0  0
    2.6788    2.5825   18.2032 H   0  0  0  0  0  0  0  0  0  0  0  0
    4.3397    1.4750   16.7524 H   0  0  0  0  0  0  0  0  0  0  0  0
    7.5743   -0.5554   18.3173 H   0  0  0  0  0  0  0  0  0  0  0  0
    6.3922   -1.5003   21.6734 C   0  0  0  0  0  0  0  0  0  0  0  0
    7.6031   -1.9287   22.5137 C   0  0  2  0  0  0  0  0  0  0  0  0
    7.2988   -2.6730   23.8114 C   0  0  0  0  0  0  0  0  0  0  0  0
    6.9228   -4.0102   23.5807 O   0  0  0  0  0  0  0  0  0  0  0  0
    8.0173   -4.8742   23.3886 C   0  0  0  0  0  0  0  0  0  0  0  0
    7.6400   -5.9602   22.3944 C   0  0  0  0  0  0  0  0  0  0  0  0
    8.2918   -7.1184   22.4422 C   0  0  0  0  0  0  0  0  0  0  0  0
    6.6622   -5.6338   21.2914 C   0  0  0  0  0  0  0  0  0  0  0  0
    7.1995   -5.3254   20.3933 H   0  0  0  0  0  0  0  0  0  0  0  0
    6.0208   -6.4792   21.0230 H   0  0  0  0  0  0  0  0  0  0  0  0
    8.0714   -7.8969   21.7219 H   0  0  0  0  0  0  0  0  0  0  0  0
    9.0371   -7.3199   23.2091 H   0  0  0  0  0  0  0  0  0  0  0  0
    6.0263   -4.7955   21.5583 H   0  0  0  0  0  0  0  0  0  0  0  0
    8.3418   -5.3270   24.3422 H   0  0  0  0  0  0  0  0  0  0  0  0
    8.8884   -4.2870   23.0454 H   0  0  0  0  0  0  0  0  0  0  0  0
    6.4483   -2.2083   24.3221 H   0  0  0  0  0  0  0  0  0  0  0  0
    8.1649   -2.6194   24.4973 H   0  0  0  0  0  0  0  0  0  0  0  0
    8.1822   -2.5963   21.8714 H   0  0  0  0  0  0  0  0  0  0  0  0
    5.5541   -1.1639   22.3029 H   0  0  0  0  0  0  0  0  0  0  0  0
    6.0142   -2.2974   21.0252 H   0  0  0  0  0  0  0  0  0  0  0  0
    9.9239   -0.9348   22.8999 C   0  0  0  0  0  0  0  0  0  0  0  0
   10.5824   -1.9201   22.1437 C   0  0  0  0  0  0  0  0  0  0  0  0
   11.9289   -2.1666   22.3420 C   0  0  0  0  0  0  0  0  0  0  0  0
   12.7472   -3.3265   21.3323 Cl  0  0  0  0  0  0  0  0  0  0  0  0
   12.6657   -1.4602   23.2904 C   0  0  0  0  0  0  0  0  0  0  0  0
   12.0329   -0.4735   24.0192 C   0  0  0  0  0  0  0  0  0  0  0  0
   10.6848   -0.1924   23.8073 C   0  0  0  0  0  0  0  0  0  0  0  0
   10.1493    1.0683   24.4087 C   0  0  0  0  0  0  0  0  0  0  0  0
   10.8711    1.8363   25.0274 O   0  0  0  0  0  0  0  0  0  0  0  0
   12.5714    0.1441   24.7289 H   0  0  0  0  0  0  0  0  0  0  0  0
   13.7235   -1.6538   23.4138 H   0  0  0  0  0  0  0  0  0  0  0  0
   10.0730   -2.4665   21.3594 H   0  0  0  0  0  0  0  0  0  0  0  0
    6.9469    0.6315   23.6568 H   0  0  0  0  0  0  0  0  0  0  0  0
    7.8340   -0.4075   24.7792 H   0  0  0  0  0  0  0  0  0  0  0  0
    9.1494    3.3154   24.5267 H   0  0  0  0  0  0  0  0  0  0  0  0
    7.8999    2.6196   25.5537 H   0  0  0  0  0  0  0  0  0  0  0  0
    8.5391    3.3623   22.0648 H   0  0  0  0  0  0  0  0  0  0  0  0
    5.8260    4.5681   22.0265 H   0  0  0  0  0  0  0  0  0  0  0  0
    7.1117    4.9623   20.8682 H   0  0  0  0  0  0  0  0  0  0  0  0
    6.2813    3.3710   20.7969 H   0  0  0  0  0  0  0  0  0  0  0  0
  1  2  1  0
  2  3  1  0
  3  4  2  0
  3  5  1  0
  5  6  1  0
  6  7  1  0
  8  7  1  1
  8  9  1  0
  9 10  2  0
  9 11  1  0
 11 12  1  0
 12 13  2  0
 13 14  1  0
 14 15  2  0
 15 16  1  0
 16 17  2  0
 17 18  1  0
 18 19  2  0
 19 20  1  0
 20 21  2  0
 20 22  1  0
 19 23  1  0
 18 24  1  0
 17 25  1  0
 15 26  1  0
 13 27  1  0
 11 28  1  0
 28 29  1  0
 29 30  1  0
 30 31  1  0
 31 32  1  0
 32 33  1  0
 33 34  1  0
 34 35  1  0
 35 36  1  0
 35 37  1  0
 34 38  1  0
 34 39  1  0
 33 40  1  0
 32 41  1  0
 32 42  1  0
 30 43  1  0
 30 44  1  0
 29 45  1  6
 28 46  1  0
 28 47  1  0
  8 48  1  0
 48 49  2  0
 49 50  1  0
 50 51  1  0
 50 52  2  0
 52 53  1  0
 53 54  2  0
 54 55  1  0
 55 56  2  0
 53 57  1  0
 52 58  1  0
 49 59  1  0
  7 60  1  0
  7 61  1  0
  5 62  1  0
  5 63  1  0
  2 64  1  0
  1 65  1  0
  1 66  1  0
  1 67  1  0
 55  6  1  0
 29  8  1  0
 35 33  1  0
 54 48  1  0
 21 12  1  0
 21 16  1  0
M  END
>  <cnnaffinities>  (13) 
[7.43212]

>  <score>  (13) 
7.43212

>  <index>  (13) 
13

>  <Smiles>  (13) 
C(N(C(=O)C(N1C([C@@]2(C(=O)N(c3c(nc(c4c(c(c(c(c34)[H])[H])[H])[H])[H])[H])C([C@@]2(C(OC(C2(C(C2([H])[H])([H])[H])[H])([H])[H])([H])[H])[H])([H])[H])c2c(c(Cl)c(c(c2C1=O)[H])[H])[H])([H])[H])([H])[H])[H])([H])([H])[H]

>  <h>  (13) 
<NA>

>  <Training>  (13) 
True

>  <Success>  (13) 
True

>  <enamine_searched>  (13) 
False

>  <enamine_id>  (13) 
nan

$$$$

     RDKit          3D

 67 73  0  0  0  0  0  0  0  0999 V2000
    7.3938   -2.7276   23.7809 C   0  0  0  0  0  0  0  0  0  0  0  0
    7.7219   -1.8891   22.5481 C   0  0  1  0  0  0  0  0  0  0  0  0
    6.5276   -1.5666   21.6335 C   0  0  0  0  0  0  0  0  0  0  0  0
    6.9757   -0.3695   20.9473 N   0  0  0  0  0  0  0  0  0  0  0  0
    6.2561    0.1879   19.8643 C   0  0  0  0  0  0  0  0  0  0  0  0
    6.6370   -0.0939   18.5785 C   0  0  0  0  0  0  0  0  0  0  0  0
    5.9622    0.3223   17.4798 N   0  0  0  0  0  0  0  0  0  0  0  0
    4.8765    1.0342   17.6597 C   0  0  0  0  0  0  0  0  0  0  0  0
    4.3825    1.4227   18.9387 C   0  0  0  0  0  0  0  0  0  0  0  0
    3.2310    2.2431   19.0888 C   0  0  0  0  0  0  0  0  0  0  0  0
    2.7832    2.5885   20.3354 C   0  0  0  0  0  0  0  0  0  0  0  0
    3.4574    2.1272   21.4860 C   0  0  0  0  0  0  0  0  0  0  0  0
    4.5781    1.3373   21.3665 C   0  0  0  0  0  0  0  0  0  0  0  0
    5.0792    0.9754   20.0843 C   0  0  0  0  0  0  0  0  0  0  0  0
    5.0853    0.9889   22.2591 H   0  0  0  0  0  0  0  0  0  0  0  0
    3.0891    2.3945   22.4733 H   0  0  0  0  0  0  0  0  0  0  0  0
    1.9088    3.2238   20.4485 H   0  0  0  0  0  0  0  0  0  0  0  0
    2.7250    2.5974   18.1947 H   0  0  0  0  0  0  0  0  0  0  0  0
    4.3213    1.3356   16.7691 H   0  0  0  0  0  0  0  0  0  0  0  0
    7.5291   -0.6914   18.3972 H   0  0  0  0  0  0  0  0  0  0  0  0
    8.1222    0.2014   21.4627 C   0  0  0  0  0  0  0  0  0  0  0  0
    8.7145    1.1285   20.9576 O   0  0  0  0  0  0  0  0  0  0  0  0
    8.4116   -0.5201   22.8107 C   0  0  1  0  0  0  0  0  0  0  0  0
    7.6868    0.2566   23.9580 C   0  0  0  0  0  0  0  0  0  0  0  0
    8.3483    1.5100   24.2778 N   0  0  0  0  0  0  0  0  0  0  0  0
    7.5649    2.7003   24.5693 C   0  0  0  0  0  0  0  0  0  0  0  0
    7.2649    3.4898   23.2953 C   0  0  0  0  0  0  0  0  0  0  0  0
    6.3919    4.6866   23.4811 N   0  0  2  0  0  4  0  0  0  0  0  0
    6.9948    5.8667   24.2400 C   0  0  0  0  0  0  0  0  0  0  0  0
    5.8716    6.2285   25.2293 C   0  0  2  0  0  0  0  0  0  0  0  0
    5.3605    4.8553   25.6530 C   0  0  0  0  0  0  0  0  0  0  0  0
    5.0568    4.4686   24.2050 C   0  0  1  0  0  0  0  0  0  0  0  0
    4.1848    5.6471   23.7860 C   0  0  0  0  0  0  0  0  0  0  0  0
    4.7649    6.7636   24.4881 O   0  0  0  0  0  0  0  0  0  0  0  0
    3.1317    5.5362   24.0731 H   0  0  0  0  0  0  0  0  0  0  0  0
    4.2498    5.8174   22.7028 H   0  0  0  0  0  0  0  0  0  0  0  0
    4.6677    3.4753   23.9983 H   0  0  0  0  0  0  0  0  0  0  0  0
    4.4537    4.9190   26.2574 H   0  0  0  0  0  0  0  0  0  0  0  0
    6.1085    4.2441   26.1652 H   0  0  0  0  0  0  0  0  0  0  0  0
    6.1461    6.9402   26.0080 H   0  0  0  0  0  0  0  0  0  0  0  0
    7.9077    5.5410   24.7400 H   0  0  0  0  0  0  0  0  0  0  0  0
    7.2297    6.6800   23.5522 H   0  0  0  0  0  0  0  0  0  0  0  0
    6.1749    5.0003   22.5180 H   0  0  0  0  0  0  0  0  0  0  0  0
    6.7748    2.8336   22.5658 H   0  0  0  0  0  0  0  0  0  0  0  0
    8.2152    3.8116   22.8575 H   0  0  0  0  0  0  0  0  0  0  0  0
    8.1441    3.3168   25.2593 H   0  0  0  0  0  0  0  0  0  0  0  0
    6.6379    2.4032   25.0686 H   0  0  0  0  0  0  0  0  0  0  0  0
    9.7045    1.5790   24.3792 C   0  0  0  0  0  0  0  0  0  0  0  0
   10.2924    2.6101   24.6859 O   0  0  0  0  0  0  0  0  0  0  0  0
   10.4462    0.3129   24.0493 C   0  0  0  0  0  0  0  0  0  0  0  0
   11.7758    0.2056   24.4633 C   0  0  0  0  0  0  0  0  0  0  0  0
   12.5971   -0.7752   23.9367 C   0  0  0  0  0  0  0  0  0  0  0  0
   12.0788   -1.6142   22.9488 C   0  0  0  0  0  0  0  0  0  0  0  0
   13.1729   -2.6920   22.1222 Cl  0  0  0  0  0  0  0  0  0  0  0  0
   10.7387   -1.5830   22.5941 C   0  0  0  0  0  0  0  0  0  0  0  0
    9.8850   -0.6210   23.1649 C   0  0  0  0  0  0  0  0  0  0  0  0
   10.3931   -2.2532   21.8118 H   0  0  0  0  0  0  0  0  0  0  0  0
   13.6485   -0.8331   24.1942 H   0  0  0  0  0  0  0  0  0  0  0  0
   12.1758    0.9504   25.1422 H   0  0  0  0  0  0  0  0  0  0  0  0
    6.6479    0.4661   23.6703 H   0  0  0  0  0  0  0  0  0  0  0  0
    7.6688   -0.3754   24.8569 H   0  0  0  0  0  0  0  0  0  0  0  0
    6.3209   -2.3549   20.8997 H   0  0  0  0  0  0  0  0  0  0  0  0
    5.5939   -1.3924   22.1921 H   0  0  0  0  0  0  0  0  0  0  0  0
    8.4313   -2.4477   21.9314 H   0  0  0  0  0  0  0  0  0  0  0  0
    8.2776   -2.8197   24.4244 H   0  0  0  0  0  0  0  0  0  0  0  0
    6.5886   -2.2775   24.3767 H   0  0  0  0  0  0  0  0  0  0  0  0
    7.0748   -3.7370   23.4955 H   0  0  0  0  0  0  0  0  0  0  0  0
  1  2  1  0
  2  3  1  0
  3  4  1  0
  4  5  1  0
  5  6  2  0
  6  7  1  0
  7  8  2  0
  8  9  1  0
  9 10  2  0
 10 11  1  0
 11 12  2  0
 12 13  1  0
 13 14  2  0
 13 15  1  0
 12 16  1  0
 11 17  1  0
 10 18  1  0
  8 19  1  0
  6 20  1  0
  4 21  1  0
 21 22  2  0
 21 23  1  0
 23 24  1  1
 24 25  1  0
 25 26  1  0
 26 27  1  0
 27 28  1  0
 28 29  1  0
 29 30  1  0
 30 31  1  0
 31 32  1  0
 32 33  1  0
 33 34  1  0
 33 35  1  0
 33 36  1  0
 32 37  1  1
 31 38  1  0
 31 39  1  0
 30 40  1  1
 29 41  1  0
 29 42  1  0
 28 43  1  6
 27 44  1  0
 27 45  1  0
 26 46  1  0
 26 47  1  0
 25 48  1  0
 48 49  2  0
 48 50  1  0
 50 51  2  0
 51 52  1  0
 52 53  2  0
 53 54  1  0
 53 55  1  0
 55 56  2  0
 55 57  1  0
 52 58  1  0
 51 59  1  0
 24 60  1  0
 24 61  1  0
  3 62  1  0
  3 63  1  0
  2 64  1  6
  1 65  1  0
  1 66  1  0
  1 67  1  0
 23  2  1  0
 32 28  1  0
 56 50  1  0
 14  5  1  0
 56 23  1  0
 14  9  1  0
 34 30  1  0
M  CHG  1  28   1
M  END
>  <cnnaffinities>  (14) 
[7.26844]

>  <score>  (14) 
7.26844

>  <index>  (14) 
14

>  <Smiles>  (14) 
C([C@]1(C(N(c2c(nc(c3c(c(c(c(c23)[H])[H])[H])[H])[H])[H])C(=O)[C@]21C(N(C(C([N@@+]1(C([C@@]3(C([C@]1(C(O3)([H])[H])[H])([H])[H])[H])([H])[H])[H])([H])[H])([H])[H])C(=O)c1c(c(c(Cl)c(c21)[H])[H])[H])([H])[H])([H])[H])[H])([H])([H])[H]

>  <h>  (14) 
<NA>

>  <Training>  (14) 
True

>  <Success>  (14) 
True

>  <enamine_searched>  (14) 
False

>  <enamine_id>  (14) 
nan

$$$$

     RDKit          3D

 72 77  0  0  0  0  0  0  0  0999 V2000
    4.6982    6.5531   21.6110 C   0  0  0  0  0  0  0  0  0  0  0  0
    4.5522    5.6071   22.7934 C   0  0  1  0  0  0  0  0  0  0  0  0
    5.5678    4.4668   22.7529 C   0  0  0  0  0  0  0  0  0  0  0  0
    6.9444    4.9128   23.1506 N   0  0  2  0  0  4  0  0  0  0  0  0
    7.9087    3.7590   23.1319 C   0  0  0  0  0  0  0  0  0  0  0  0
    7.8479    2.8692   24.3850 C   0  0  0  0  0  0  0  0  0  0  0  0
    8.5049    1.5898   24.1537 N   0  0  0  0  0  0  0  0  0  0  0  0
    7.7262    0.3936   23.8777 C   0  0  0  0  0  0  0  0  0  0  0  0
    8.3872   -0.5043   22.7867 C   0  0  2  0  0  0  0  0  0  0  0  0
    8.1258    0.1412   21.3999 C   0  0  0  0  0  0  0  0  0  0  0  0
    8.7769    0.9805   20.8103 O   0  0  0  0  0  0  0  0  0  0  0  0
    6.9339   -0.3786   20.9405 N   0  0  0  0  0  0  0  0  0  0  0  0
    6.2250    0.1932   19.8596 C   0  0  0  0  0  0  0  0  0  0  0  0
    6.6289   -0.0546   18.5754 C   0  0  0  0  0  0  0  0  0  0  0  0
    5.9552    0.3648   17.4770 N   0  0  0  0  0  0  0  0  0  0  0  0
    4.8604    1.0632   17.6618 C   0  0  0  0  0  0  0  0  0  0  0  0
    4.3639    1.4472   18.9419 C   0  0  0  0  0  0  0  0  0  0  0  0
    3.2154    2.2669   19.1019 C   0  0  0  0  0  0  0  0  0  0  0  0
    2.7824    2.6263   20.3482 C   0  0  0  0  0  0  0  0  0  0  0  0
    3.4654    2.1694   21.4953 C   0  0  0  0  0  0  0  0  0  0  0  0
    4.5746    1.3690   21.3688 C   0  0  0  0  0  0  0  0  0  0  0  0
    5.0589    0.9929   20.0861 C   0  0  0  0  0  0  0  0  0  0  0  0
    5.0974    1.0390   22.2582 H   0  0  0  0  0  0  0  0  0  0  0  0
    3.1277    2.4679   22.4833 H   0  0  0  0  0  0  0  0  0  0  0  0
    1.9131    3.2671   20.4620 H   0  0  0  0  0  0  0  0  0  0  0  0
    2.6989    2.6119   18.2121 H   0  0  0  0  0  0  0  0  0  0  0  0
    4.3071    1.3672   16.7720 H   0  0  0  0  0  0  0  0  0  0  0  0
    7.5306   -0.6395   18.3986 H   0  0  0  0  0  0  0  0  0  0  0  0
    6.4161   -1.4899   21.7189 C   0  0  0  0  0  0  0  0  0  0  0  0
    7.6100   -1.8414   22.6212 C   0  0  2  0  0  0  0  0  0  0  0  0
    7.2601   -2.5937   23.9017 C   0  0  0  0  0  0  0  0  0  0  0  0
    8.1463   -2.7086   24.5374 H   0  0  0  0  0  0  0  0  0  0  0  0
    6.4936   -2.0699   24.4878 H   0  0  0  0  0  0  0  0  0  0  0  0
    6.8794   -3.5941   23.6684 H   0  0  0  0  0  0  0  0  0  0  0  0
    8.2765   -2.4732   22.0247 H   0  0  0  0  0  0  0  0  0  0  0  0
    6.1382   -2.3090   21.0486 H   0  0  0  0  0  0  0  0  0  0  0  0
    5.5118   -1.2260   22.2939 H   0  0  0  0  0  0  0  0  0  0  0  0
    9.8574   -0.6800   23.1031 C   0  0  0  0  0  0  0  0  0  0  0  0
   10.6458   -1.6546   22.4582 C   0  0  0  0  0  0  0  0  0  0  0  0
   11.9850   -1.7813   22.7994 C   0  0  0  0  0  0  0  0  0  0  0  0
   13.0032   -2.8825   21.9168 Cl  0  0  0  0  0  0  0  0  0  0  0  0
   12.5724   -1.0128   23.8025 C   0  0  0  0  0  0  0  0  0  0  0  0
   11.8170   -0.0116   24.3832 C   0  0  0  0  0  0  0  0  0  0  0  0
   10.4916    0.1941   23.9918 C   0  0  0  0  0  0  0  0  0  0  0  0
    9.8524    1.5111   24.3471 C   0  0  0  0  0  0  0  0  0  0  0  0
   10.5263    2.4673   24.7138 O   0  0  0  0  0  0  0  0  0  0  0  0
   12.2758    0.6919   25.0668 H   0  0  0  0  0  0  0  0  0  0  0  0
   13.6154   -1.1730   24.0668 H   0  0  0  0  0  0  0  0  0  0  0  0
   10.2534   -2.2632   21.6493 H   0  0  0  0  0  0  0  0  0  0  0  0
    6.7260    0.7015   23.5506 H   0  0  0  0  0  0  0  0  0  0  0  0
    7.6109   -0.1982   24.7963 H   0  0  0  0  0  0  0  0  0  0  0  0
    8.3355    3.3624   25.2337 H   0  0  0  0  0  0  0  0  0  0  0  0
    6.8072    2.6841   24.6790 H   0  0  0  0  0  0  0  0  0  0  0  0
    8.9227    4.1608   23.0417 H   0  0  0  0  0  0  0  0  0  0  0  0
    7.6942    3.1616   22.2342 H   0  0  0  0  0  0  0  0  0  0  0  0
    6.9365    5.7175   24.4381 C   0  0  1  0  0  0  0  0  0  0  0  0
    8.3105    6.2972   24.7436 C   0  0  0  0  0  0  0  0  0  0  0  0
    8.6599    6.8899   23.8884 H   0  0  0  0  0  0  0  0  0  0  0  0
    9.0601    5.5256   24.9472 H   0  0  0  0  0  0  0  0  0  0  0  0
    8.2582    6.9526   25.6192 H   0  0  0  0  0  0  0  0  0  0  0  0
    5.8817    6.8106   24.3215 C   0  0  0  0  0  0  0  0  0  0  0  0
    4.6002    6.2870   24.0427 O   0  0  0  0  0  0  0  0  0  0  0  0
    5.7947    7.3500   25.2702 H   0  0  0  0  0  0  0  0  0  0  0  0
    6.1954    7.5273   23.5478 H   0  0  0  0  0  0  0  0  0  0  0  0
    6.6198    5.0386   25.2311 H   0  0  0  0  0  0  0  0  0  0  0  0
    7.2678    5.5616   22.4048 H   0  0  0  0  0  0  0  0  0  0  0  0
    5.6146    4.0328   21.7488 H   0  0  0  0  0  0  0  0  0  0  0  0
    5.2478    3.6849   23.4472 H   0  0  0  0  0  0  0  0  0  0  0  0
    3.5514    5.1589   22.7614 H   0  0  0  0  0  0  0  0  0  0  0  0
    5.7262    6.9134   21.4873 H   0  0  0  0  0  0  0  0  0  0  0  0
    4.4219    6.0269   20.6946 H   0  0  0  0  0  0  0  0  0  0  0  0
    4.0370    7.4142   21.7342 H   0  0  0  0  0  0  0  0  0  0  0  0
  1  2  1  0
  2  3  1  0
  3  4  1  0
  4  5  1  0
  5  6  1  0
  6  7  1  0
  7  8  1  0
  9  8  1  1
  9 10  1  0
 10 11  2  0
 10 12  1  0
 12 13  1  0
 13 14  2  0
 14 15  1  0
 15 16  2  0
 16 17  1  0
 17 18  2  0
 18 19  1  0
 19 20  2  0
 20 21  1  0
 21 22  2  0
 21 23  1  0
 20 24  1  0
 19 25  1  0
 18 26  1  0
 16 27  1  0
 14 28  1  0
 12 29  1  0
 29 30  1  0
 30 31  1  0
 31 32  1  0
 31 33  1  0
 31 34  1  0
 30 35  1  6
 29 36  1  0
 29 37  1  0
  9 38  1  0
 38 39  2  0
 39 40  1  0
 40 41  1  0
 40 42  2  0
 42 43  1  0
 43 44  2  0
 44 45  1  0
 45 46  2  0
 43 47  1  0
 42 48  1  0
 39 49  1  0
  8 50  1  0
  8 51  1  0
  6 52  1  0
  6 53  1  0
  5 54  1  0
  5 55  1  0
  4 56  1  0
 56 57  1  0
 57 58  1  0
 57 59  1  0
 57 60  1  0
 56 61  1  0
 61 62  1  0
 61 63  1  0
 61 64  1  0
 56 65  1  1
  4 66  1  6
  3 67  1  0
  3 68  1  0
  2 69  1  6
  1 70  1  0
  1 71  1  0
  1 72  1  0
 62  2  1  0
 45  7  1  0
 30  9  1  0
 44 38  1  0
 22 13  1  0
 22 17  1  0
M  CHG  1   4   1
M  END
>  <cnnaffinities>  (15) 
[7.45971]

>  <score>  (15) 
7.45971

>  <index>  (15) 
15

>  <Smiles>  (15) 
C([C@]1(C([N@+](C(C(N2C([C@@]3(C(=O)N(c4c(nc(c5c(c(c(c(c45)[H])[H])[H])[H])[H])[H])C([C@@]3(C([H])([H])[H])[H])([H])[H])c3c(c(Cl)c(c(c3C2=O)[H])[H])[H])([H])[H])([H])[H])([H])[H])([C@@](C([H])([H])[H])(C(O1)([H])[H])[H])[H])([H])[H])[H])([H])([H])[H]

>  <h>  (15) 
<NA>

>  <Training>  (15) 
True

>  <Success>  (15) 
True

>  <enamine_searched>  (15) 
False

>  <enamine_id>  (15) 
nan

$$$$

     RDKit          3D

 47 50  0  0  0  0  0  0  0  0999 V2000
    8.6362   -4.5086   23.9914 C   0  0  0  0  0  0  0  0  0  0  0  0
    7.3727   -3.7642   24.4120 C   0  0  1  0  0  0  0  0  0  0  0  0
    7.6875   -2.3577   24.9371 C   0  0  0  0  0  0  0  0  0  0  0  0
    7.4177   -1.3747   23.7819 C   0  0  2  0  0  0  0  0  0  0  0  0
    6.6530   -0.1516   24.2617 C   0  0  0  0  0  0  0  0  0  0  0  0
    5.3222   -0.2557   24.6702 C   0  0  0  0  0  0  0  0  0  0  0  0
    4.6283    0.8585   25.1241 C   0  0  0  0  0  0  0  0  0  0  0  0
    5.2624    2.0968   25.1901 C   0  0  0  0  0  0  0  0  0  0  0  0
    6.5984    2.2054   24.8141 C   0  0  0  0  0  0  0  0  0  0  0  0
    7.2886    1.0849   24.3596 C   0  0  0  0  0  0  0  0  0  0  0  0
    8.3351    1.1733   24.0709 H   0  0  0  0  0  0  0  0  0  0  0  0
    7.1012    3.1663   24.8563 H   0  0  0  0  0  0  0  0  0  0  0  0
    4.7165    2.9708   25.5309 H   0  0  0  0  0  0  0  0  0  0  0  0
    3.5898    0.7593   25.4278 H   0  0  0  0  0  0  0  0  0  0  0  0
    4.8194   -1.2187   24.6447 H   0  0  0  0  0  0  0  0  0  0  0  0
    6.7026   -2.1673   22.7888 N   0  0  0  0  0  0  0  0  0  0  0  0
    6.2489   -1.7395   21.5635 C   0  0  0  0  0  0  0  0  0  0  0  0
    5.3962   -2.3681   20.9587 O   0  0  0  0  0  0  0  0  0  0  0  0
    6.9126   -0.4926   20.9239 C   0  0  0  0  0  0  0  0  0  0  0  0
    6.1096    0.0830   19.7802 C   0  0  0  0  0  0  0  0  0  0  0  0
    6.4233   -0.2077   18.4789 C   0  0  0  0  0  0  0  0  0  0  0  0
    5.7700    0.2675   17.3847 N   0  0  0  0  0  0  0  0  0  0  0  0
    4.7324    1.0365   17.5863 C   0  0  0  0  0  0  0  0  0  0  0  0
    4.2809    1.4226   18.8751 C   0  0  0  0  0  0  0  0  0  0  0  0
    3.1635    2.2760   19.0465 C   0  0  0  0  0  0  0  0  0  0  0  0
    2.7512    2.6283   20.3001 C   0  0  0  0  0  0  0  0  0  0  0  0
    3.4453    2.1359   21.4303 C   0  0  0  0  0  0  0  0  0  0  0  0
    4.5329    1.3105   21.2992 C   0  0  0  0  0  0  0  0  0  0  0  0
    4.9865    0.9350   20.0071 C   0  0  0  0  0  0  0  0  0  0  0  0
    5.0475    0.9463   22.1900 H   0  0  0  0  0  0  0  0  0  0  0  0
    3.1085    2.4261   22.4194 H   0  0  0  0  0  0  0  0  0  0  0  0
    1.8955    3.2858   20.4378 H   0  0  0  0  0  0  0  0  0  0  0  0
    2.6473    2.6464   18.1624 H   0  0  0  0  0  0  0  0  0  0  0  0
    4.2000    1.3964   16.7007 H   0  0  0  0  0  0  0  0  0  0  0  0
    7.2620   -0.8641   18.2449 H   0  0  0  0  0  0  0  0  0  0  0  0
    7.1486    0.2833   21.6629 H   0  0  0  0  0  0  0  0  0  0  0  0
    7.8800   -0.8259   20.5216 H   0  0  0  0  0  0  0  0  0  0  0  0
    6.4158   -3.5253   23.2369 C   0  0  0  0  0  0  0  0  0  0  0  0
    5.3632   -3.6548   23.5248 H   0  0  0  0  0  0  0  0  0  0  0  0
    6.5928   -4.2160   22.4102 H   0  0  0  0  0  0  0  0  0  0  0  0
    8.3628   -1.0379   23.3435 H   0  0  0  0  0  0  0  0  0  0  0  0
    7.0628   -2.1219   25.8023 H   0  0  0  0  0  0  0  0  0  0  0  0
    8.7174   -2.2764   25.2911 H   0  0  0  0  0  0  0  0  0  0  0  0
    6.8803   -4.3519   25.1876 H   0  0  0  0  0  0  0  0  0  0  0  0
    9.1670   -3.9412   23.2220 H   0  0  0  0  0  0  0  0  0  0  0  0
    8.4046   -5.5016   23.5912 H   0  0  0  0  0  0  0  0  0  0  0  0
    9.3224   -4.6409   24.8353 H   0  0  0  0  0  0  0  0  0  0  0  0
  1  2  1  0
  2  3  1  0
  3  4  1  0
  4  5  1  0
  5  6  2  0
  6  7  1  0
  7  8  2  0
  8  9  1  0
  9 10  2  0
 10 11  1  0
  9 12  1  0
  8 13  1  0
  7 14  1  0
  6 15  1  0
  4 16  1  0
 16 17  1  0
 17 18  2  0
 17 19  1  0
 19 20  1  0
 20 21  2  0
 21 22  1  0
 22 23  2  0
 23 24  1  0
 24 25  2  0
 25 26  1  0
 26 27  2  0
 27 28  1  0
 28 29  2  0
 28 30  1  0
 27 31  1  0
 26 32  1  0
 25 33  1  0
 23 34  1  0
 21 35  1  0
 19 36  1  0
 19 37  1  0
 16 38  1  0
 38 39  1  0
 38 40  1  0
  4 41  1  6
  3 42  1  0
  3 43  1  0
  2 44  1  1
  1 45  1  0
  1 46  1  0
  1 47  1  0
 38  2  1  0
 10  5  1  0
 29 20  1  0
 29 24  1  0
M  END
>  <cnnaffinities>  (16) 
[5.68987, 5.68974]

>  <score>  (16) 
5.68987

>  <index>  (16) 
16

>  <Smiles>  (16) 
C([C@]1(C([C@](c2c(c(c(c(c2[H])[H])[H])[H])[H])(N(C(=O)C(c2c(nc(c3c(c(c(c(c23)[H])[H])[H])[H])[H])[H])([H])[H])C1([H])[H])[H])([H])[H])[H])([H])([H])[H]

>  <h>  (16) 
<NA>

>  <Training>  (16) 
True

>  <Success>  (16) 
True

>  <enamine_searched>  (16) 
False

>  <enamine_id>  (16) 
nan

$$$$

     RDKit          3D

 58 63  0  0  0  0  0  0  0  0999 V2000
    6.9862   -2.5268   23.9821 C   0  0  0  0  0  0  0  0  0  0  0  0
    7.4666   -1.9371   22.6543 C   0  0  1  0  0  0  0  0  0  0  0  0
    6.3331   -1.5420   21.6883 C   0  0  0  0  0  0  0  0  0  0  0  0
    6.8937   -0.4374   20.9375 N   0  0  0  0  0  0  0  0  0  0  0  0
    6.2042    0.1539   19.8490 C   0  0  0  0  0  0  0  0  0  0  0  0
    6.5930   -0.1059   18.5625 C   0  0  0  0  0  0  0  0  0  0  0  0
    5.9228    0.3281   17.4646 N   0  0  0  0  0  0  0  0  0  0  0  0
    4.8402    1.0402   17.6517 C   0  0  0  0  0  0  0  0  0  0  0  0
    4.3482    1.4222   18.9317 C   0  0  0  0  0  0  0  0  0  0  0  0
    3.2083    2.2535   19.0913 C   0  0  0  0  0  0  0  0  0  0  0  0
    2.7880    2.6216   20.3396 C   0  0  0  0  0  0  0  0  0  0  0  0
    3.4782    2.1680   21.4874 C   0  0  0  0  0  0  0  0  0  0  0  0
    4.5768    1.3555   21.3580 C   0  0  0  0  0  0  0  0  0  0  0  0
    5.0456    0.9669   20.0730 C   0  0  0  0  0  0  0  0  0  0  0  0
    5.1044    1.0105   22.2422 H   0  0  0  0  0  0  0  0  0  0  0  0
    3.1428    2.4669   22.4759 H   0  0  0  0  0  0  0  0  0  0  0  0
    1.9281    3.2752   20.4593 H   0  0  0  0  0  0  0  0  0  0  0  0
    2.6956    2.6026   18.1980 H   0  0  0  0  0  0  0  0  0  0  0  0
    4.2945    1.3619   16.7630 H   0  0  0  0  0  0  0  0  0  0  0  0
    7.4800   -0.7072   18.3728 H   0  0  0  0  0  0  0  0  0  0  0  0
    8.0800    0.0594   21.4321 C   0  0  0  0  0  0  0  0  0  0  0  0
    8.7025    0.9658   20.9237 O   0  0  0  0  0  0  0  0  0  0  0  0
    8.3848   -0.6870   22.7588 C   0  0  1  0  0  0  0  0  0  0  0  0
    7.9342    0.2240   23.9277 C   0  0  0  0  0  0  0  0  0  0  0  0
    8.9010    1.2610   24.2066 N   0  0  0  0  0  0  0  0  0  0  0  0
    8.5915    2.6750   24.0899 C   0  0  0  0  0  0  0  0  0  0  0  0
    8.3288    3.3693   25.3961 C   0  0  0  0  0  0  0  0  0  0  0  0
    9.0003    4.4164   25.8047 N   0  0  0  0  0  0  0  0  0  0  0  0
    8.5615    4.7370   27.0626 N   0  0  0  0  0  0  0  0  0  0  0  0
    7.6091    3.8984   27.3571 C   0  0  0  0  0  0  0  0  0  0  0  0
    7.3953    3.0197   26.3350 N   0  0  0  0  0  0  0  0  0  0  0  0
    6.3645    2.0029   26.2603 C   0  0  0  0  0  0  0  0  0  0  0  0
    5.7381    2.0652   27.1546 H   0  0  0  0  0  0  0  0  0  0  0  0
    6.8238    1.0139   26.2315 H   0  0  0  0  0  0  0  0  0  0  0  0
    5.7371    2.1373   25.3720 H   0  0  0  0  0  0  0  0  0  0  0  0
    7.0932    3.8596   28.3080 H   0  0  0  0  0  0  0  0  0  0  0  0
    7.7494    2.7876   23.3898 H   0  0  0  0  0  0  0  0  0  0  0  0
    9.4577    3.1891   23.6580 H   0  0  0  0  0  0  0  0  0  0  0  0
   10.1996    0.9079   24.4903 C   0  0  0  0  0  0  0  0  0  0  0  0
   10.9314    1.5869   25.1909 O   0  0  0  0  0  0  0  0  0  0  0  0
   10.6940   -0.3171   23.7893 C   0  0  0  0  0  0  0  0  0  0  0  0
   12.0629   -0.5943   23.8932 C   0  0  0  0  0  0  0  0  0  0  0  0
   12.6561   -1.5251   23.0610 C   0  0  0  0  0  0  0  0  0  0  0  0
   11.8343   -2.1762   22.1420 C   0  0  0  0  0  0  0  0  0  0  0  0
   12.4096   -3.0339   21.2792 F   0  0  0  0  0  0  0  0  0  0  0  0
   10.4695   -1.9723   22.0640 C   0  0  0  0  0  0  0  0  0  0  0  0
    9.8625   -1.0218   22.9061 C   0  0  0  0  0  0  0  0  0  0  0  0
    9.9142   -2.5295   21.3090 H   0  0  0  0  0  0  0  0  0  0  0  0
   13.7259   -1.7297   23.0776 H   0  0  0  0  0  0  0  0  0  0  0  0
   12.6678   -0.0336   24.5993 H   0  0  0  0  0  0  0  0  0  0  0  0
    7.8167   -0.4022   24.8199 H   0  0  0  0  0  0  0  0  0  0  0  0
    6.9515    0.6615   23.7101 H   0  0  0  0  0  0  0  0  0  0  0  0
    5.4145   -1.2476   22.2184 H   0  0  0  0  0  0  0  0  0  0  0  0
    6.0661   -2.3573   21.0052 H   0  0  0  0  0  0  0  0  0  0  0  0
    8.0746   -2.6972   22.1558 H   0  0  0  0  0  0  0  0  0  0  0  0
    7.8274   -2.7106   24.6625 H   0  0  0  0  0  0  0  0  0  0  0  0
    6.4668   -3.4757   23.8234 H   0  0  0  0  0  0  0  0  0  0  0  0
    6.2882   -1.8599   24.5037 H   0  0  0  0  0  0  0  0  0  0  0  0
  1  2  1  0
  2  3  1  0
  3  4  1  0
  4  5  1  0
  5  6  2  0
  6  7  1  0
  7  8  2  0
  8  9  1  0
  9 10  2  0
 10 11  1  0
 11 12  2  0
 12 13  1  0
 13 14  2  0
 13 15  1  0
 12 16  1  0
 11 17  1  0
 10 18  1  0
  8 19  1  0
  6 20  1  0
  4 21  1  0
 21 22  2  0
 21 23  1  0
 23 24  1  1
 24 25  1  0
 25 26  1  0
 26 27  1  0
 27 28  2  0
 28 29  1  0
 29 30  2  0
 30 31  1  0
 31 32  1  0
 32 33  1  0
 32 34  1  0
 32 35  1  0
 30 36  1  0
 26 37  1  0
 26 38  1  0
 25 39  1  0
 39 40  2  0
 39 41  1  0
 41 42  2  0
 42 43  1  0
 43 44  2  0
 44 45  1  0
 44 46  1  0
 46 47  2  0
 46 48  1  0
 43 49  1  0
 42 50  1  0
 24 51  1  0
 24 52  1  0
  3 53  1  0
  3 54  1  0
  2 55  1  6
  1 56  1  0
  1 57  1  0
  1 58  1  0
 23  2  1  0
 31 27  1  0
 47 41  1  0
 14  5  1  0
 47 23  1  0
 14  9  1  0
M  END
>  <cnnaffinities>  (17) 
[7.00513, 6.82395]

>  <score>  (17) 
7.00513

>  <index>  (17) 
17

>  <Smiles>  (17) 
C([C@]1(C(N(c2c(nc(c3c(c(c(c(c23)[H])[H])[H])[H])[H])[H])C(=O)[C@]21C(N(C(c1nnc(n1C([H])([H])[H])[H])([H])[H])C(=O)c1c(c(c(F)c(c21)[H])[H])[H])([H])[H])([H])[H])[H])([H])([H])[H]

>  <h>  (17) 
<NA>

>  <Training>  (17) 
True

>  <Success>  (17) 
True

>  <enamine_searched>  (17) 
False

>  <enamine_id>  (17) 
nan

$$$$

     RDKit          3D

 50 53  0  0  0  0  0  0  0  0999 V2000
    6.0152   -1.0388   29.7336 C   0  0  0  0  0  0  0  0  0  0  0  0
    6.3494   -0.7175   28.2849 C   0  0  1  0  0  0  0  0  0  0  0  0
    7.4225   -1.6534   27.7439 C   0  0  0  0  0  0  0  0  0  0  0  0
    7.7798   -1.3221   26.2901 C   0  0  0  0  0  0  0  0  0  0  0  0
    6.5708   -1.3676   25.3433 C   0  0  2  0  0  0  0  0  0  0  0  0
    6.0853   -2.8118   25.1073 C   0  0  0  0  0  0  0  0  0  0  0  0
    5.5782   -2.8647   23.6691 C   0  0  0  0  0  0  0  0  0  0  0  0
    6.2241   -1.7448   22.9880 N   0  0  0  0  0  0  0  0  0  0  0  0
    6.1671   -1.6419   21.6252 C   0  0  0  0  0  0  0  0  0  0  0  0
    5.5462   -2.4539   20.9585 O   0  0  0  0  0  0  0  0  0  0  0  0
    6.9123   -0.4842   20.9208 C   0  0  0  0  0  0  0  0  0  0  0  0
    6.1140    0.0896   19.7727 C   0  0  0  0  0  0  0  0  0  0  0  0
    6.4229   -0.2103   18.4700 C   0  0  0  0  0  0  0  0  0  0  0  0
    5.7667    0.2612   17.3778 N   0  0  0  0  0  0  0  0  0  0  0  0
    4.7300    1.0343   17.5806 C   0  0  0  0  0  0  0  0  0  0  0  0
    4.2828    1.4248   18.8717 C   0  0  0  0  0  0  0  0  0  0  0  0
    3.1623    2.2769   19.0436 C   0  0  0  0  0  0  0  0  0  0  0  0
    2.7494    2.6285   20.3010 C   0  0  0  0  0  0  0  0  0  0  0  0
    3.4410    2.1407   21.4317 C   0  0  0  0  0  0  0  0  0  0  0  0
    4.5316    1.3169   21.2898 C   0  0  0  0  0  0  0  0  0  0  0  0
    4.9885    0.9402   19.9983 C   0  0  0  0  0  0  0  0  0  0  0  0
    5.0468    0.9537   22.1740 H   0  0  0  0  0  0  0  0  0  0  0  0
    3.1061    2.4271   22.4229 H   0  0  0  0  0  0  0  0  0  0  0  0
    1.8931    3.2823   20.4365 H   0  0  0  0  0  0  0  0  0  0  0  0
    2.6413    2.6464   18.1637 H   0  0  0  0  0  0  0  0  0  0  0  0
    4.1971    1.3982   16.7003 H   0  0  0  0  0  0  0  0  0  0  0  0
    7.2650   -0.8657   18.2478 H   0  0  0  0  0  0  0  0  0  0  0  0
    7.2130    0.3142   21.6089 H   0  0  0  0  0  0  0  0  0  0  0  0
    7.8423   -0.9048   20.5148 H   0  0  0  0  0  0  0  0  0  0  0  0
    6.9604   -0.9039   23.9178 C   0  0  0  0  0  0  0  0  0  0  0  0
    8.0400   -1.0073   23.7530 H   0  0  0  0  0  0  0  0  0  0  0  0
    6.7113    0.1521   23.7756 H   0  0  0  0  0  0  0  0  0  0  0  0
    4.5003   -2.7597   23.6490 H   0  0  0  0  0  0  0  0  0  0  0  0
    5.8124   -3.8119   23.1846 H   0  0  0  0  0  0  0  0  0  0  0  0
    5.3124   -3.1143   25.8212 H   0  0  0  0  0  0  0  0  0  0  0  0
    6.9105   -3.5169   25.2411 H   0  0  0  0  0  0  0  0  0  0  0  0
    5.4465   -0.4780   25.9211 C   0  0  0  0  0  0  0  0  0  0  0  0
    5.1153   -0.7569   27.3896 C   0  0  0  0  0  0  0  0  0  0  0  0
    4.3789   -0.0275   27.7486 H   0  0  0  0  0  0  0  0  0  0  0  0
    4.6333   -1.7373   27.4878 H   0  0  0  0  0  0  0  0  0  0  0  0
    4.5460   -0.5794   25.3051 H   0  0  0  0  0  0  0  0  0  0  0  0
    5.7561    0.5723   25.8417 H   0  0  0  0  0  0  0  0  0  0  0  0
    8.5555   -2.0071   25.9234 H   0  0  0  0  0  0  0  0  0  0  0  0
    8.2245   -0.3186   26.2505 H   0  0  0  0  0  0  0  0  0  0  0  0
    8.2808   -1.6019   28.4232 H   0  0  0  0  0  0  0  0  0  0  0  0
    7.0871   -2.6947   27.8095 H   0  0  0  0  0  0  0  0  0  0  0  0
    6.7568    0.3015   28.2471 H   0  0  0  0  0  0  0  0  0  0  0  0
    5.2600   -0.3535   30.1278 H   0  0  0  0  0  0  0  0  0  0  0  0
    5.6192   -2.0556   29.8168 H   0  0  0  0  0  0  0  0  0  0  0  0
    6.9012   -0.9770   30.3736 H   0  0  0  0  0  0  0  0  0  0  0  0
  1  2  1  0
  2  3  1  0
  3  4  1  0
  5  4  1  1
  5  6  1  0
  6  7  1  0
  7  8  1  0
  8  9  1  0
  9 10  2  0
  9 11  1  0
 11 12  1  0
 12 13  2  0
 13 14  1  0
 14 15  2  0
 15 16  1  0
 16 17  2  0
 17 18  1  0
 18 19  2  0
 19 20  1  0
 20 21  2  0
 20 22  1  0
 19 23  1  0
 18 24  1  0
 17 25  1  0
 15 26  1  0
 13 27  1  0
 11 28  1  0
 11 29  1  0
  8 30  1  0
 30 31  1  0
 30 32  1  0
  7 33  1  0
  7 34  1  0
  6 35  1  0
  6 36  1  0
  5 37  1  0
 37 38  1  0
 38 39  1  0
 38 40  1  0
 37 41  1  0
 37 42  1  0
  4 43  1  0
  4 44  1  0
  3 45  1  0
  3 46  1  0
  2 47  1  1
  1 48  1  0
  1 49  1  0
  1 50  1  0
 38  2  1  0
 30  5  1  0
 21 12  1  0
 21 16  1  0
M  END
>  <cnnaffinities>  (18) 
[5.69284, 5.63602, 5.58041, 5.72327]

>  <score>  (18) 
5.69284

>  <index>  (18) 
18

>  <Smiles>  (18) 
C([C@]1(C(C([C@@]2(C(C(N(C(=O)C(c3c(nc(c4c(c(c(c(c34)[H])[H])[H])[H])[H])[H])([H])[H])C2([H])[H])([H])[H])([H])[H])C(C1([H])[H])([H])[H])([H])[H])([H])[H])[H])([H])([H])[H]

>  <h>  (18) 
<NA>

>  <Training>  (18) 
True

>  <Success>  (18) 
True

>  <enamine_searched>  (18) 
False

>  <enamine_id>  (18) 
nan

$$$$

     RDKit          3D

 67 71  0  0  0  0  0  0  0  0999 V2000
    8.3572    1.4742   26.6261 O   0  0  0  0  0  0  0  0  0  0  0  0
    7.2653    1.2080   26.1500 C   0  0  0  0  0  0  0  0  0  0  0  0
    6.9686    1.3897   24.6576 C   0  0  0  0  0  0  0  0  0  0  0  0
    7.5331    0.2611   23.8763 N   0  0  1  0  0  4  0  0  0  0  0  0
    9.0059    0.0961   24.1552 C   0  0  0  0  0  0  0  0  0  0  0  0
    9.5789   -0.9451   23.2323 C   0  0  0  0  0  0  0  0  0  0  0  0
   10.9558   -1.0063   23.0276 C   0  0  0  0  0  0  0  0  0  0  0  0
   11.5104   -1.8912   22.1204 C   0  0  0  0  0  0  0  0  0  0  0  0
   10.6764   -2.6942   21.3602 C   0  0  0  0  0  0  0  0  0  0  0  0
   11.4815   -3.6859   20.1720 Cl  0  0  0  0  0  0  0  0  0  0  0  0
    9.3046   -2.7070   21.6008 C   0  0  0  0  0  0  0  0  0  0  0  0
    8.7566   -1.8688   22.5819 C   0  0  0  0  0  0  0  0  0  0  0  0
    7.2621   -1.9217   22.8512 C   0  0  2  0  0  0  0  0  0  0  0  0
    6.4234   -1.3642   21.6945 C   0  0  0  0  0  0  0  0  0  0  0  0
    5.3168   -1.7836   21.4293 O   0  0  0  0  0  0  0  0  0  0  0  0
    6.9561   -0.2333   21.0679 N   0  0  0  0  0  0  0  0  0  0  0  0
    6.2414    0.2736   19.9533 C   0  0  0  0  0  0  0  0  0  0  0  0
    6.6118   -0.0662   18.6775 C   0  0  0  0  0  0  0  0  0  0  0  0
    5.9393    0.3127   17.5635 N   0  0  0  0  0  0  0  0  0  0  0  0
    4.8571    1.0334   17.7337 C   0  0  0  0  0  0  0  0  0  0  0  0
    4.3766    1.4687   18.9995 C   0  0  0  0  0  0  0  0  0  0  0  0
    3.2136    2.2694   19.1230 C   0  0  0  0  0  0  0  0  0  0  0  0
    2.7783    2.6753   20.3567 C   0  0  0  0  0  0  0  0  0  0  0  0
    3.4869    2.2961   21.5199 C   0  0  0  0  0  0  0  0  0  0  0  0
    4.6149    1.5192   21.4293 C   0  0  0  0  0  0  0  0  0  0  0  0
    5.0869    1.0815   20.1575 C   0  0  0  0  0  0  0  0  0  0  0  0
    5.1522    1.2274   22.3306 H   0  0  0  0  0  0  0  0  0  0  0  0
    3.1278    2.6298   22.4894 H   0  0  0  0  0  0  0  0  0  0  0  0
    1.8933    3.2974   20.4447 H   0  0  0  0  0  0  0  0  0  0  0  0
    2.6899    2.5631   18.2180 H   0  0  0  0  0  0  0  0  0  0  0  0
    4.2952    1.3088   16.8409 H   0  0  0  0  0  0  0  0  0  0  0  0
    7.4805   -0.7025   18.5033 H   0  0  0  0  0  0  0  0  0  0  0  0
    7.9672   -0.2175   20.9674 H   0  0  0  0  0  0  0  0  0  0  0  0
    6.8762   -1.0821   24.0773 C   0  0  0  0  0  0  0  0  0  0  0  0
    7.2207   -1.5226   25.0146 H   0  0  0  0  0  0  0  0  0  0  0  0
    5.7951   -0.9684   24.1328 H   0  0  0  0  0  0  0  0  0  0  0  0
    6.9142   -2.9471   22.9772 H   0  0  0  0  0  0  0  0  0  0  0  0
    8.6388   -3.3578   21.0556 H   0  0  0  0  0  0  0  0  0  0  0  0
   12.5816   -1.9641   21.9786 H   0  0  0  0  0  0  0  0  0  0  0  0
   11.6108   -0.3194   23.5522 H   0  0  0  0  0  0  0  0  0  0  0  0
    9.5100    1.0558   24.0171 H   0  0  0  0  0  0  0  0  0  0  0  0
    9.1218   -0.1553   25.2126 H   0  0  0  0  0  0  0  0  0  0  0  0
    7.4282    0.4957   22.8704 H   0  0  0  0  0  0  0  0  0  0  0  0
    5.8926    1.4435   24.4661 H   0  0  0  0  0  0  0  0  0  0  0  0
    7.4196    2.3211   24.3031 H   0  0  0  0  0  0  0  0  0  0  0  0
    6.2533    0.6544   26.8650 N   0  0  0  0  0  0  0  0  0  0  0  0
    6.4683    0.1340   28.2057 C   0  0  0  0  0  0  0  0  0  0  0  0
    5.1830   -0.4882   28.7693 C   0  0  0  0  0  0  0  0  0  0  0  0
    5.3057   -0.9542   30.2026 C   0  0  0  0  0  0  0  0  0  0  0  0
    4.9223   -0.1366   31.2692 C   0  0  0  0  0  0  0  0  0  0  0  0
    5.0198   -0.5913   32.5807 C   0  0  0  0  0  0  0  0  0  0  0  0
    5.4993   -1.8713   32.8410 C   0  0  0  0  0  0  0  0  0  0  0  0
    5.3862   -2.4404   34.2258 C   0  0  0  0  0  0  0  0  0  0  0  0
    4.1985   -3.1096   34.3468 F   0  0  0  0  0  0  0  0  0  0  0  0
    6.3721   -3.3494   34.4585 F   0  0  0  0  0  0  0  0  0  0  0  0
    5.4219   -1.6710   35.0083 H   0  0  0  0  0  0  0  0  0  0  0  0
    5.9710   -2.6555   31.7914 C   0  0  0  0  0  0  0  0  0  0  0  0
    5.8530   -2.2083   30.4808 C   0  0  0  0  0  0  0  0  0  0  0  0
    6.1746   -2.8405   29.6537 H   0  0  0  0  0  0  0  0  0  0  0  0
    6.4392   -3.6062   32.0108 H   0  0  0  0  0  0  0  0  0  0  0  0
    4.7158    0.0427   33.4133 H   0  0  0  0  0  0  0  0  0  0  0  0
    4.5435    0.8646   31.0774 H   0  0  0  0  0  0  0  0  0  0  0  0
    4.3629    0.2361   28.6906 H   0  0  0  0  0  0  0  0  0  0  0  0
    4.9076   -1.3532   28.1521 H   0  0  0  0  0  0  0  0  0  0  0  0
    6.8192    0.9471   28.8463 H   0  0  0  0  0  0  0  0  0  0  0  0
    7.2669   -0.6186   28.1845 H   0  0  0  0  0  0  0  0  0  0  0  0
    5.3772    0.4774   26.4004 H   0  0  0  0  0  0  0  0  0  0  0  0
  1  2  2  0
  2  3  1  0
  3  4  1  0
  4  5  1  0
  5  6  1  0
  6  7  2  0
  7  8  1  0
  8  9  2  0
  9 10  1  0
  9 11  1  0
 11 12  2  0
 12 13  1  0
 13 14  1  0
 14 15  2  0
 14 16  1  0
 16 17  1  0
 17 18  2  0
 18 19  1  0
 19 20  2  0
 20 21  1  0
 21 22  2  0
 22 23  1  0
 23 24  2  0
 24 25  1  0
 25 26  2  0
 25 27  1  0
 24 28  1  0
 23 29  1  0
 22 30  1  0
 20 31  1  0
 18 32  1  0
 16 33  1  0
 13 34  1  0
 34 35  1  0
 34 36  1  0
 13 37  1  1
 11 38  1  0
  8 39  1  0
  7 40  1  0
  5 41  1  0
  5 42  1  0
  4 43  1  6
  3 44  1  0
  3 45  1  0
  2 46  1  0
 46 47  1  0
 47 48  1  0
 48 49  1  0
 49 50  2  0
 50 51  1  0
 51 52  2  0
 52 53  1  0
 53 54  1  0
 53 55  1  0
 53 56  1  0
 52 57  1  0
 57 58  2  0
 58 59  1  0
 57 60  1  0
 51 61  1  0
 50 62  1  0
 48 63  1  0
 48 64  1  0
 47 65  1  0
 47 66  1  0
 46 67  1  0
 34  4  1  0
 58 49  1  0
 12  6  1  0
 26 17  1  0
 26 21  1  0
M  CHG  1   4   1
M  END
>  <cnnaffinities>  (19) 
[6.01236, 6.1162]

>  <score>  (19) 
6.01236

>  <index>  (19) 
19

>  <Smiles>  (19) 
O=C(C([N@+]1(C(c2c(c(c(Cl)c(c2[C@](C(=O)N(c2c(nc(c3c(c(c(c(c23)[H])[H])[H])[H])[H])[H])[H])(C1([H])[H])[H])[H])[H])[H])([H])[H])[H])([H])[H])N(C(C(c1c(c(c(C(F)(F)[H])c(c1[H])[H])[H])[H])([H])[H])([H])[H])[H]

>  <h>  (19) 
<NA>

>  <Training>  (19) 
True

>  <Success>  (19) 
True

>  <enamine_searched>  (19) 
False

>  <enamine_id>  (19) 
nan

$$$$

     RDKit          3D

 66 70  0  0  0  0  0  0  0  0999 V2000
    4.1504    7.1878   21.3947 C   0  0  0  0  0  0  0  0  0  0  0  0
    5.3498    6.2728   21.1245 C   0  0  0  0  0  0  0  0  0  0  0  0
    5.7894    5.4640   22.3324 C   0  0  0  0  0  0  0  0  0  0  0  0
    5.0579    4.6011   22.7740 O   0  0  0  0  0  0  0  0  0  0  0  0
    7.0733    5.6880   22.8347 N   0  0  0  0  0  0  0  0  0  0  0  0
    7.5855    7.0520   23.0107 C   0  0  0  0  0  0  0  0  0  0  0  0
    8.1319    7.2156   24.4255 C   0  0  0  0  0  0  0  0  0  0  0  0
    9.2686    6.2207   24.6350 C   0  0  0  0  0  0  0  0  0  0  0  0
    8.9048    4.8256   24.1624 C   0  0  0  0  0  0  0  0  0  0  0  0
    9.6698    3.7417   24.5750 C   0  0  0  0  0  0  0  0  0  0  0  0
    9.4194    2.4404   24.1580 C   0  0  0  0  0  0  0  0  0  0  0  0
    8.3923    2.2224   23.2363 C   0  0  0  0  0  0  0  0  0  0  0  0
    8.0570    0.9006   22.7926 N   0  0  0  0  0  0  0  0  0  0  0  0
    7.9099    0.7180   21.4027 C   0  0  0  0  0  0  0  0  0  0  0  0
    8.5030    1.4351   20.6232 O   0  0  0  0  0  0  0  0  0  0  0  0
    6.9790   -0.4025   20.9183 C   0  0  0  0  0  0  0  0  0  0  0  0
    6.1170    0.0887   19.7802 C   0  0  0  0  0  0  0  0  0  0  0  0
    6.4378   -0.1946   18.4790 C   0  0  0  0  0  0  0  0  0  0  0  0
    5.7794    0.2728   17.3868 N   0  0  0  0  0  0  0  0  0  0  0  0
    4.7411    1.0387   17.5892 C   0  0  0  0  0  0  0  0  0  0  0  0
    4.2856    1.4242   18.8775 C   0  0  0  0  0  0  0  0  0  0  0  0
    3.1747    2.2904   19.0527 C   0  0  0  0  0  0  0  0  0  0  0  0
    2.7751    2.6592   20.3060 C   0  0  0  0  0  0  0  0  0  0  0  0
    3.4682    2.1740   21.4397 C   0  0  0  0  0  0  0  0  0  0  0  0
    4.5496    1.3418   21.2939 C   0  0  0  0  0  0  0  0  0  0  0  0
    4.9931    0.9393   20.0051 C   0  0  0  0  0  0  0  0  0  0  0  0
    5.0744    0.9924   22.1819 H   0  0  0  0  0  0  0  0  0  0  0  0
    3.1647    2.4813   22.4355 H   0  0  0  0  0  0  0  0  0  0  0  0
    1.9329    3.3320   20.4351 H   0  0  0  0  0  0  0  0  0  0  0  0
    2.6676    2.6594   18.1650 H   0  0  0  0  0  0  0  0  0  0  0  0
    4.2030    1.3916   16.7073 H   0  0  0  0  0  0  0  0  0  0  0  0
    7.2758   -0.8493   18.2403 H   0  0  0  0  0  0  0  0  0  0  0  0
    6.4136   -0.7778   21.7764 H   0  0  0  0  0  0  0  0  0  0  0  0
    7.6118   -1.2238   20.5501 H   0  0  0  0  0  0  0  0  0  0  0  0
    8.1642   -0.1819   23.6600 N   0  0  0  0  0  0  0  0  0  0  0  0
    9.0907   -1.2651   23.3625 C   0  0  0  0  0  0  0  0  0  0  0  0
    8.5828   -2.2224   23.5474 H   0  0  0  0  0  0  0  0  0  0  0  0
    9.9970   -1.2296   23.9907 H   0  0  0  0  0  0  0  0  0  0  0  0
    9.3956   -1.2239   22.3126 H   0  0  0  0  0  0  0  0  0  0  0  0
    7.4598   -0.1551   24.8632 C   0  0  0  0  0  0  0  0  0  0  0  0
    7.8598   -0.9467   25.9448 C   0  0  0  0  0  0  0  0  0  0  0  0
    7.1960   -0.8672   27.1659 C   0  0  0  0  0  0  0  0  0  0  0  0
    6.0964   -0.0341   27.3238 C   0  0  0  0  0  0  0  0  0  0  0  0
    5.6877    0.7229   26.2328 C   0  0  0  0  0  0  0  0  0  0  0  0
    4.3035    1.7712   26.3905 Cl  0  0  0  0  0  0  0  0  0  0  0  0
    6.3481    0.6859   25.0175 C   0  0  0  0  0  0  0  0  0  0  0  0
    6.0173    1.3129   24.1944 H   0  0  0  0  0  0  0  0  0  0  0  0
    5.5596    0.0273   28.2637 H   0  0  0  0  0  0  0  0  0  0  0  0
    7.5426   -1.4702   28.0054 H   0  0  0  0  0  0  0  0  0  0  0  0
    8.7057   -1.6163   25.8302 H   0  0  0  0  0  0  0  0  0  0  0  0
    7.6295    3.2936   22.7791 C   0  0  0  0  0  0  0  0  0  0  0  0
    7.8503    4.5923   23.2713 C   0  0  0  0  0  0  0  0  0  0  0  0
    6.8561    3.1237   22.0311 H   0  0  0  0  0  0  0  0  0  0  0  0
    9.9988    1.6137   24.5534 H   0  0  0  0  0  0  0  0  0  0  0  0
   10.4916    3.9680   25.2489 H   0  0  0  0  0  0  0  0  0  0  0  0
   10.1617    6.5588   24.0840 H   0  0  0  0  0  0  0  0  0  0  0  0
    9.5670    6.1893   25.6910 H   0  0  0  0  0  0  0  0  0  0  0  0
    7.3278    7.0324   25.1494 H   0  0  0  0  0  0  0  0  0  0  0  0
    8.4841    8.2424   24.5737 H   0  0  0  0  0  0  0  0  0  0  0  0
    8.3673    7.2814   22.2664 H   0  0  0  0  0  0  0  0  0  0  0  0
    6.7430    7.7294   22.8403 H   0  0  0  0  0  0  0  0  0  0  0  0
    6.1889    6.8098   20.6628 H   0  0  0  0  0  0  0  0  0  0  0  0
    5.0616    5.4650   20.4380 H   0  0  0  0  0  0  0  0  0  0  0  0
    3.8555    7.7035   20.4746 H   0  0  0  0  0  0  0  0  0  0  0  0
    4.3719    7.9473   22.1542 H   0  0  0  0  0  0  0  0  0  0  0  0
    3.2979    6.5948   21.7358 H   0  0  0  0  0  0  0  0  0  0  0  0
  1  2  1  0
  2  3  1  0
  3  4  2  0
  3  5  1  0
  5  6  1  0
  6  7  1  0
  7  8  1  0
  8  9  1  0
  9 10  2  0
 10 11  1  0
 11 12  2  0
 12 13  1  0
 13 14  1  0
 14 15  2  0
 14 16  1  0
 16 17  1  0
 17 18  2  0
 18 19  1  0
 19 20  2  0
 20 21  1  0
 21 22  2  0
 22 23  1  0
 23 24  2  0
 24 25  1  0
 25 26  2  0
 25 27  1  0
 24 28  1  0
 23 29  1  0
 22 30  1  0
 20 31  1  0
 18 32  1  0
 16 33  1  0
 16 34  1  0
 13 35  1  0
 35 36  1  0
 36 37  1  0
 36 38  1  0
 36 39  1  0
 35 40  1  0
 40 41  2  0
 41 42  1  0
 42 43  2  0
 43 44  1  0
 44 45  1  0
 44 46  2  0
 46 47  1  0
 43 48  1  0
 42 49  1  0
 41 50  1  0
 12 51  1  0
 51 52  2  0
 51 53  1  0
 11 54  1  0
 10 55  1  0
  8 56  1  0
  8 57  1  0
  7 58  1  0
  7 59  1  0
  6 60  1  0
  6 61  1  0
  2 62  1  0
  2 63  1  0
  1 64  1  0
  1 65  1  0
  1 66  1  0
 52  5  1  0
 52  9  1  0
 26 17  1  0
 46 40  1  0
 26 21  1  0
M  END
>  <cnnaffinities>  (20) 
[7.03255]

>  <score>  (20) 
7.03255

>  <index>  (20) 
20

>  <Smiles>  (20) 
C(C(C(=O)N1C(C(C(c2c(c(c(N(C(=O)C(c3c(nc(c4c(c(c(c(c34)[H])[H])[H])[H])[H])[H])([H])[H])N(C([H])([H])[H])c3c(c(c(c(Cl)c3[H])[H])[H])[H])c(c12)[H])[H])[H])([H])[H])([H])[H])([H])[H])([H])[H])([H])([H])[H]

>  <h>  (20) 
<NA>

>  <Training>  (20) 
True

>  <Success>  (20) 
True

>  <enamine_searched>  (20) 
False

>  <enamine_id>  (20) 
nan

$$$$

     RDKit          3D

 41 44  0  0  0  0  0  0  0  0999 V2000
    8.5277    1.3513   20.7642 O   0  0  0  0  0  0  0  0  0  0  0  0
    7.8457    0.6711   21.5092 C   0  0  0  0  0  0  0  0  0  0  0  0
    6.9441   -0.4392   20.9205 C   0  0  0  0  0  0  0  0  0  0  0  0
    6.1071    0.0841   19.7731 C   0  0  0  0  0  0  0  0  0  0  0  0
    6.4305   -0.2002   18.4732 C   0  0  0  0  0  0  0  0  0  0  0  0
    5.7729    0.2712   17.3803 N   0  0  0  0  0  0  0  0  0  0  0  0
    4.7314    1.0351   17.5842 C   0  0  0  0  0  0  0  0  0  0  0  0
    4.2808    1.4230   18.8713 C   0  0  0  0  0  0  0  0  0  0  0  0
    3.1684    2.2830   19.0456 C   0  0  0  0  0  0  0  0  0  0  0  0
    2.7643    2.6495   20.2997 C   0  0  0  0  0  0  0  0  0  0  0  0
    3.4627    2.1694   21.4317 C   0  0  0  0  0  0  0  0  0  0  0  0
    4.5452    1.3377   21.2891 C   0  0  0  0  0  0  0  0  0  0  0  0
    4.9874    0.9397   20.0006 C   0  0  0  0  0  0  0  0  0  0  0  0
    5.0713    0.9848   22.1724 H   0  0  0  0  0  0  0  0  0  0  0  0
    3.1355    2.4668   22.4223 H   0  0  0  0  0  0  0  0  0  0  0  0
    1.9131    3.3117   20.4337 H   0  0  0  0  0  0  0  0  0  0  0  0
    2.6500    2.6502   18.1623 H   0  0  0  0  0  0  0  0  0  0  0  0
    4.1982    1.3960   16.7009 H   0  0  0  0  0  0  0  0  0  0  0  0
    7.2723   -0.8533   18.2440 H   0  0  0  0  0  0  0  0  0  0  0  0
    6.3041   -0.9033   21.6808 H   0  0  0  0  0  0  0  0  0  0  0  0
    7.6082   -1.2224   20.5333 H   0  0  0  0  0  0  0  0  0  0  0  0
    7.8167    0.8925   22.8738 N   0  0  0  0  0  0  0  0  0  0  0  0
    7.5084   -0.1500   23.8411 C   0  0  0  0  0  0  0  0  0  0  0  0
    8.1589    0.1215   25.1962 C   0  0  0  0  0  0  0  0  0  0  0  0
    7.8095    1.4913   25.7061 C   0  0  0  0  0  0  0  0  0  0  0  0
    7.5541    1.7944   27.0459 C   0  0  0  0  0  0  0  0  0  0  0  0
    7.5968    0.5431   28.2589 Cl  0  0  0  0  0  0  0  0  0  0  0  0
    7.2550    3.0804   27.4738 C   0  0  0  0  0  0  0  0  0  0  0  0
    7.2197    4.0984   26.5316 C   0  0  0  0  0  0  0  0  0  0  0  0
    7.4832    3.8223   25.1950 C   0  0  0  0  0  0  0  0  0  0  0  0
    7.7745    2.5269   24.7719 C   0  0  0  0  0  0  0  0  0  0  0  0
    8.1364    2.2478   23.3262 C   0  0  0  0  0  0  0  0  0  0  0  0
    9.1978    2.4575   23.1501 H   0  0  0  0  0  0  0  0  0  0  0  0
    7.6065    2.9586   22.6894 H   0  0  0  0  0  0  0  0  0  0  0  0
    7.4728    4.6364   24.4771 H   0  0  0  0  0  0  0  0  0  0  0  0
    6.9905    5.1086   26.8543 H   0  0  0  0  0  0  0  0  0  0  0  0
    7.0607    3.2704   28.5265 H   0  0  0  0  0  0  0  0  0  0  0  0
    9.2462    0.0281   25.1068 H   0  0  0  0  0  0  0  0  0  0  0  0
    7.8436   -0.6445   25.9035 H   0  0  0  0  0  0  0  0  0  0  0  0
    7.8760   -1.1043   23.4550 H   0  0  0  0  0  0  0  0  0  0  0  0
    6.4223   -0.2476   23.9778 H   0  0  0  0  0  0  0  0  0  0  0  0
  1  2  2  0
  2  3  1  0
  3  4  1  0
  4  5  2  0
  5  6  1  0
  6  7  2  0
  7  8  1  0
  8  9  2  0
  9 10  1  0
 10 11  2  0
 11 12  1  0
 12 13  2  0
 12 14  1  0
 11 15  1  0
 10 16  1  0
  9 17  1  0
  7 18  1  0
  5 19  1  0
  3 20  1  0
  3 21  1  0
  2 22  1  0
 22 23  1  0
 23 24  1  0
 24 25  1  0
 25 26  2  0
 26 27  1  0
 26 28  1  0
 28 29  2  0
 29 30  1  0
 30 31  2  0
 31 32  1  0
 32 33  1  0
 32 34  1  0
 30 35  1  0
 29 36  1  0
 28 37  1  0
 24 38  1  0
 24 39  1  0
 23 40  1  0
 23 41  1  0
 13  4  1  0
 32 22  1  0
 13  8  1  0
 31 25  1  0
M  END
>  <cnnaffinities>  (21) 
[5.44701]

>  <score>  (21) 
5.44701

>  <index>  (21) 
22

>  <Smiles>  (21) 
O=C(C(c1c(nc(c2c(c(c(c(c12)[H])[H])[H])[H])[H])[H])([H])[H])N1C(C(c2c(Cl)c(c(c(c2C1([H])[H])[H])[H])[H])([H])[H])([H])[H]

>  <h>  (21) 
<NA>

>  <Training>  (21) 
True

>  <Success>  (21) 
True

>  <enamine_searched>  (21) 
False

>  <enamine_id>  (21) 
nan

$$$$

     RDKit          3D

 69 74  0  0  0  0  0  0  0  0999 V2000
    3.6026    6.8640   21.7791 C   0  0  0  0  0  0  0  0  0  0  0  0
    3.8355    5.9295   22.9507 C   0  0  1  0  0  0  0  0  0  0  0  0
    5.0840    5.0704   22.7689 C   0  0  0  0  0  0  0  0  0  0  0  0
    5.3388    4.1968   23.9670 N   0  0  1  0  0  4  0  0  0  0  0  0
    6.5848    3.3926   23.7671 C   0  0  0  0  0  0  0  0  0  0  0  0
    6.7455    2.2809   24.8093 C   0  0  0  0  0  0  0  0  0  0  0  0
    7.7644    1.3209   24.4167 N   0  0  0  0  0  0  0  0  0  0  0  0
    7.4345   -0.0448   24.0490 C   0  0  0  0  0  0  0  0  0  0  0  0
    8.3060   -0.5227   22.8413 C   0  0  2  0  0  0  0  0  0  0  0  0
    7.8997    0.3428   21.6231 C   0  0  0  0  0  0  0  0  0  0  0  0
    8.2477    1.4802   21.3844 O   0  0  0  0  0  0  0  0  0  0  0  0
    6.9985   -0.3907   20.8704 N   0  0  0  0  0  0  0  0  0  0  0  0
    6.2068    0.1581   19.8265 C   0  0  0  0  0  0  0  0  0  0  0  0
    6.5015   -0.1815   18.5296 C   0  0  0  0  0  0  0  0  0  0  0  0
    5.8270    0.2619   17.4438 N   0  0  0  0  0  0  0  0  0  0  0  0
    4.7929    1.0347   17.6551 C   0  0  0  0  0  0  0  0  0  0  0  0
    4.3493    1.4384   18.9434 C   0  0  0  0  0  0  0  0  0  0  0  0
    3.2075    2.2673   19.0963 C   0  0  0  0  0  0  0  0  0  0  0  0
    2.7659    2.6178   20.3408 C   0  0  0  0  0  0  0  0  0  0  0  0
    3.4529    2.1583   21.4859 C   0  0  0  0  0  0  0  0  0  0  0  0
    4.5704    1.3648   21.3657 C   0  0  0  0  0  0  0  0  0  0  0  0
    5.0604    0.9844   20.0815 C   0  0  0  0  0  0  0  0  0  0  0  0
    5.0675    1.0173   22.2667 H   0  0  0  0  0  0  0  0  0  0  0  0
    3.1035    2.4557   22.4716 H   0  0  0  0  0  0  0  0  0  0  0  0
    1.8833    3.2438   20.4475 H   0  0  0  0  0  0  0  0  0  0  0  0
    2.7011    2.6108   18.1983 H   0  0  0  0  0  0  0  0  0  0  0  0
    4.2388    1.3818   16.7828 H   0  0  0  0  0  0  0  0  0  0  0  0
    7.3416   -0.8474   18.3361 H   0  0  0  0  0  0  0  0  0  0  0  0
    6.7710   -1.7372   21.3706 C   0  0  0  0  0  0  0  0  0  0  0  0
    7.9284   -1.9414   22.3571 C   0  0  2  0  0  0  0  0  0  0  0  0
    7.6445   -2.9229   23.4888 C   0  0  0  0  0  0  0  0  0  0  0  0
    8.4772   -2.9180   24.2035 H   0  0  0  0  0  0  0  0  0  0  0  0
    6.7366   -2.6236   24.0293 H   0  0  0  0  0  0  0  0  0  0  0  0
    7.5053   -3.9471   23.1269 H   0  0  0  0  0  0  0  0  0  0  0  0
    8.7731   -2.3021   21.7597 H   0  0  0  0  0  0  0  0  0  0  0  0
    6.7847   -2.4627   20.5498 H   0  0  0  0  0  0  0  0  0  0  0  0
    5.7943   -1.8226   21.8714 H   0  0  0  0  0  0  0  0  0  0  0  0
    9.7530   -0.3674   23.2619 C   0  0  0  0  0  0  0  0  0  0  0  0
   10.8013   -1.2187   22.8785 C   0  0  0  0  0  0  0  0  0  0  0  0
   12.1085   -0.9447   23.2543 C   0  0  0  0  0  0  0  0  0  0  0  0
   13.3856   -1.9226   22.5851 Cl  0  0  0  0  0  0  0  0  0  0  0  0
   12.4205    0.1016   24.1293 C   0  0  0  0  0  0  0  0  0  0  0  0
   11.3768    0.9151   24.5326 C   0  0  0  0  0  0  0  0  0  0  0  0
   10.0778    0.7143   24.0805 C   0  0  0  0  0  0  0  0  0  0  0  0
    9.0563    1.7336   24.4752 C   0  0  0  0  0  0  0  0  0  0  0  0
    9.3694    2.8606   24.8373 O   0  0  0  0  0  0  0  0  0  0  0  0
   11.4902    1.7520   25.2023 H   0  0  0  0  0  0  0  0  0  0  0  0
   13.4505    0.3243   24.4125 H   0  0  0  0  0  0  0  0  0  0  0  0
   10.6238   -2.1089   22.2907 H   0  0  0  0  0  0  0  0  0  0  0  0
    7.5903   -0.7113   24.9100 H   0  0  0  0  0  0  0  0  0  0  0  0
    6.3692   -0.0764   23.8007 H   0  0  0  0  0  0  0  0  0  0  0  0
    7.0126    2.7140   25.7811 H   0  0  0  0  0  0  0  0  0  0  0  0
    5.8025    1.7361   24.9267 H   0  0  0  0  0  0  0  0  0  0  0  0
    7.4547    4.0602   23.7990 H   0  0  0  0  0  0  0  0  0  0  0  0
    6.5513    2.9564   22.7620 H   0  0  0  0  0  0  0  0  0  0  0  0
    5.3450    5.0513   25.2153 C   0  0  0  0  0  0  0  0  0  0  0  0
    4.1001    5.9315   25.2706 C   0  0  0  0  0  0  0  0  0  0  0  0
    3.9631    6.7322   24.1167 O   0  0  0  0  0  0  0  0  0  0  0  0
    3.2044    5.2957   25.3919 H   0  0  0  0  0  0  0  0  0  0  0  0
    4.1535    6.6114   26.1281 H   0  0  0  0  0  0  0  0  0  0  0  0
    5.3735    4.4110   26.0991 H   0  0  0  0  0  0  0  0  0  0  0  0
    6.2439    5.6805   25.2044 H   0  0  0  0  0  0  0  0  0  0  0  0
    4.5456    3.5228   24.0346 H   0  0  0  0  0  0  0  0  0  0  0  0
    5.9552    5.7234   22.6266 H   0  0  0  0  0  0  0  0  0  0  0  0
    4.9840    4.4305   21.8852 H   0  0  0  0  0  0  0  0  0  0  0  0
    2.9686    5.2554   23.0782 H   0  0  0  0  0  0  0  0  0  0  0  0
    3.4685    6.3033   20.8454 H   0  0  0  0  0  0  0  0  0  0  0  0
    2.7079    7.4683   21.9547 H   0  0  0  0  0  0  0  0  0  0  0  0
    4.4610    7.5363   21.6641 H   0  0  0  0  0  0  0  0  0  0  0  0
  1  2  1  0
  2  3  1  0
  3  4  1  0
  4  5  1  0
  5  6  1  0
  6  7  1  0
  7  8  1  0
  9  8  1  1
  9 10  1  0
 10 11  2  0
 10 12  1  0
 12 13  1  0
 13 14  2  0
 14 15  1  0
 15 16  2  0
 16 17  1  0
 17 18  2  0
 18 19  1  0
 19 20  2  0
 20 21  1  0
 21 22  2  0
 21 23  1  0
 20 24  1  0
 19 25  1  0
 18 26  1  0
 16 27  1  0
 14 28  1  0
 12 29  1  0
 29 30  1  0
 30 31  1  0
 31 32  1  0
 31 33  1  0
 31 34  1  0
 30 35  1  6
 29 36  1  0
 29 37  1  0
  9 38  1  0
 38 39  2  0
 39 40  1  0
 40 41  1  0
 40 42  2  0
 42 43  1  0
 43 44  2  0
 44 45  1  0
 45 46  2  0
 43 47  1  0
 42 48  1  0
 39 49  1  0
  8 50  1  0
  8 51  1  0
  6 52  1  0
  6 53  1  0
  5 54  1  0
  5 55  1  0
  4 56  1  0
 56 57  1  0
 57 58  1  0
 57 59  1  0
 57 60  1  0
 56 61  1  0
 56 62  1  0
  4 63  1  1
  3 64  1  0
  3 65  1  0
  2 66  1  1
  1 67  1  0
  1 68  1  0
  1 69  1  0
 58  2  1  0
 45  7  1  0
 30  9  1  0
 44 38  1  0
 22 13  1  0
 22 17  1  0
M  CHG  1   4   1
M  END
>  <cnnaffinities>  (22) 
[6.89024]

>  <score>  (22) 
6.89024

>  <index>  (22) 
23

>  <Smiles>  (22) 
C([C@]1(C([N@@+](C(C(N2C([C@@]3(C(=O)N(c4c(nc(c5c(c(c(c(c45)[H])[H])[H])[H])[H])[H])C([C@@]3(C([H])([H])[H])[H])([H])[H])c3c(c(Cl)c(c(c3C2=O)[H])[H])[H])([H])[H])([H])[H])([H])[H])(C(C(O1)([H])[H])([H])[H])[H])([H])[H])[H])([H])([H])[H]

>  <h>  (22) 
<NA>

>  <Training>  (22) 
True

>  <Success>  (22) 
True

>  <enamine_searched>  (22) 
False

>  <enamine_id>  (22) 
nan

$$$$

     RDKit          3D

 70 75  0  0  0  0  0  0  0  0999 V2000
    6.1353    4.6326   22.0928 C   0  0  0  0  0  0  0  0  0  0  0  0
    6.6386    3.4753   22.8454 N   0  0  0  0  0  4  0  0  0  0  0  0
    7.5393    3.8344   23.9641 C   0  0  0  0  0  0  0  0  0  0  0  0
    7.6901    2.7199   25.0010 C   0  0  0  0  0  0  0  0  0  0  0  0
    8.3946    1.5385   24.5287 N   0  0  0  0  0  0  0  0  0  0  0  0
    7.6970    0.3102   24.2005 C   0  0  0  0  0  0  0  0  0  0  0  0
    8.3287   -0.4145   22.9723 C   0  0  2  0  0  0  0  0  0  0  0  0
    7.8964    0.4261   21.7459 C   0  0  0  0  0  0  0  0  0  0  0  0
    8.1116    1.6187   21.5718 O   0  0  0  0  0  0  0  0  0  0  0  0
    7.0551   -0.3247   20.9651 N   0  0  0  0  0  0  0  0  0  0  0  0
    6.3029    0.2387   19.8969 C   0  0  0  0  0  0  0  0  0  0  0  0
    6.6435   -0.0847   18.6111 C   0  0  0  0  0  0  0  0  0  0  0  0
    5.9591    0.3227   17.5194 N   0  0  0  0  0  0  0  0  0  0  0  0
    4.8935    1.0586   17.7141 C   0  0  0  0  0  0  0  0  0  0  0  0
    4.4341    1.4766   18.9952 C   0  0  0  0  0  0  0  0  0  0  0  0
    3.2831    2.2973   19.1468 C   0  0  0  0  0  0  0  0  0  0  0  0
    2.8403    2.6519   20.3911 C   0  0  0  0  0  0  0  0  0  0  0  0
    3.5188    2.1953   21.5405 C   0  0  0  0  0  0  0  0  0  0  0  0
    4.6354    1.3964   21.4160 C   0  0  0  0  0  0  0  0  0  0  0  0
    5.1421    1.0367   20.1352 C   0  0  0  0  0  0  0  0  0  0  0  0
    5.1112    1.0061   22.3106 H   0  0  0  0  0  0  0  0  0  0  0  0
    3.1582    2.4905   22.5228 H   0  0  0  0  0  0  0  0  0  0  0  0
    1.9620    3.2824   20.4986 H   0  0  0  0  0  0  0  0  0  0  0  0
    2.7633    2.6251   18.2510 H   0  0  0  0  0  0  0  0  0  0  0  0
    4.3294    1.3572   16.8303 H   0  0  0  0  0  0  0  0  0  0  0  0
    7.5159   -0.7103   18.4332 H   0  0  0  0  0  0  0  0  0  0  0  0
    6.5606   -1.5123   21.6416 C   0  0  0  0  0  0  0  0  0  0  0  0
    7.6641   -1.7855   22.6619 C   0  0  2  0  0  0  0  0  0  0  0  0
    7.2360   -2.6089   23.8679 C   0  0  0  0  0  0  0  0  0  0  0  0
    6.0555   -2.0577   24.4191 O   0  0  0  0  0  0  0  0  0  0  0  0
    5.7994   -2.4470   25.7480 C   0  0  0  0  0  0  0  0  0  0  0  0
    4.5328   -1.7446   26.1951 C   0  0  0  0  0  0  0  0  0  0  0  0
    4.6995   -0.2540   26.5452 C   0  0  0  0  0  0  0  0  0  0  0  0
    4.5395   -0.5161   27.9442 O   0  0  0  0  0  0  0  0  0  0  0  0
    4.2324   -1.8940   27.6894 C   0  0  0  0  0  0  0  0  0  0  0  0
    4.9035   -2.5687   28.2379 H   0  0  0  0  0  0  0  0  0  0  0  0
    3.1929   -2.1369   27.9440 H   0  0  0  0  0  0  0  0  0  0  0  0
    5.6840    0.1808   26.3216 H   0  0  0  0  0  0  0  0  0  0  0  0
    3.9159    0.4102   26.1588 H   0  0  0  0  0  0  0  0  0  0  0  0
    3.7161   -1.9666   25.5053 H   0  0  0  0  0  0  0  0  0  0  0  0
    6.6405   -2.1606   26.4092 H   0  0  0  0  0  0  0  0  0  0  0  0
    5.6860   -3.5421   25.8192 H   0  0  0  0  0  0  0  0  0  0  0  0
    7.0640   -3.6579   23.5781 H   0  0  0  0  0  0  0  0  0  0  0  0
    8.0519   -2.5960   24.6106 H   0  0  0  0  0  0  0  0  0  0  0  0
    8.4211   -2.3688   22.1383 H   0  0  0  0  0  0  0  0  0  0  0  0
    6.4338   -2.3195   20.9150 H   0  0  0  0  0  0  0  0  0  0  0  0
    5.5937   -1.3362   22.1304 H   0  0  0  0  0  0  0  0  0  0  0  0
    9.8265   -0.5354   23.2092 C   0  0  0  0  0  0  0  0  0  0  0  0
   10.6405   -1.4871   22.5648 C   0  0  0  0  0  0  0  0  0  0  0  0
   11.9830   -1.5923   22.8968 C   0  0  0  0  0  0  0  0  0  0  0  0
   13.0126   -2.6726   21.9918 Cl  0  0  0  0  0  0  0  0  0  0  0  0
   12.5401   -0.8372   23.9276 C   0  0  0  0  0  0  0  0  0  0  0  0
   11.7616    0.1365   24.5135 C   0  0  0  0  0  0  0  0  0  0  0  0
   10.4421    0.3384   24.1126 C   0  0  0  0  0  0  0  0  0  0  0  0
    9.7515    1.6097   24.4964 C   0  0  0  0  0  0  0  0  0  0  0  0
   10.3570    2.6458   24.7404 O   0  0  0  0  0  0  0  0  0  0  0  0
   12.1684    0.7931   25.2721 H   0  0  0  0  0  0  0  0  0  0  0  0
   13.5954   -0.9462   24.1695 H   0  0  0  0  0  0  0  0  0  0  0  0
   10.2654   -2.1303   21.7757 H   0  0  0  0  0  0  0  0  0  0  0  0
    7.6899   -0.3578   25.0667 H   0  0  0  0  0  0  0  0  0  0  0  0
    6.6647    0.5500   23.9473 H   0  0  0  0  0  0  0  0  0  0  0  0
    6.7099    2.4185   25.3882 H   0  0  0  0  0  0  0  0  0  0  0  0
    8.2590    3.1121   25.8479 H   0  0  0  0  0  0  0  0  0  0  0  0
    8.5238    4.0949   23.5686 H   0  0  0  0  0  0  0  0  0  0  0  0
    7.1451    4.7196   24.4752 H   0  0  0  0  0  0  0  0  0  0  0  0
    5.8091    2.9880   23.2312 H   0  0  0  0  0  0  0  0  0  0  0  0
    7.1326    2.8230   22.2013 H   0  0  0  0  0  0  0  0  0  0  0  0
    6.9270    5.0918   21.4966 H   0  0  0  0  0  0  0  0  0  0  0  0
    5.3258    4.3150   21.4349 H   0  0  0  0  0  0  0  0  0  0  0  0
    5.7463    5.3943   22.7777 H   0  0  0  0  0  0  0  0  0  0  0  0
  1  2  1  0
  2  3  1  0
  3  4  1  0
  4  5  1  0
  5  6  1  0
  7  6  1  1
  7  8  1  0
  8  9  2  0
  8 10  1  0
 10 11  1  0
 11 12  2  0
 12 13  1  0
 13 14  2  0
 14 15  1  0
 15 16  2  0
 16 17  1  0
 17 18  2  0
 18 19  1  0
 19 20  2  0
 19 21  1  0
 18 22  1  0
 17 23  1  0
 16 24  1  0
 14 25  1  0
 12 26  1  0
 10 27  1  0
 27 28  1  0
 28 29  1  0
 29 30  1  0
 30 31  1  0
 31 32  1  0
 32 33  1  0
 33 34  1  0
 34 35  1  0
 35 36  1  0
 35 37  1  0
 33 38  1  0
 33 39  1  0
 32 40  1  0
 31 41  1  0
 31 42  1  0
 29 43  1  0
 29 44  1  0
 28 45  1  6
 27 46  1  0
 27 47  1  0
  7 48  1  0
 48 49  2  0
 49 50  1  0
 50 51  1  0
 50 52  2  0
 52 53  1  0
 53 54  2  0
 54 55  1  0
 55 56  2  0
 53 57  1  0
 52 58  1  0
 49 59  1  0
  6 60  1  0
  6 61  1  0
  4 62  1  0
  4 63  1  0
  3 64  1  0
  3 65  1  0
  2 66  1  0
  2 67  1  0
  1 68  1  0
  1 69  1  0
  1 70  1  0
 55  5  1  0
 28  7  1  0
 35 32  1  0
 54 48  1  0
 20 11  1  0
 20 15  1  0
M  CHG  1   2   1
M  END
>  <cnnaffinities>  (23) 
[7.10916]

>  <score>  (23) 
7.10916

>  <index>  (23) 
24

>  <Smiles>  (23) 
C([N+](C(C(N1C([C@@]2(C(=O)N(c3c(nc(c4c(c(c(c(c34)[H])[H])[H])[H])[H])[H])C([C@@]2(C(OC(C2(C(OC2([H])[H])([H])[H])[H])([H])[H])([H])[H])[H])([H])[H])c2c(c(Cl)c(c(c2C1=O)[H])[H])[H])([H])[H])([H])[H])([H])[H])([H])[H])([H])([H])[H]

>  <h>  (23) 
<NA>

>  <Training>  (23) 
True

>  <Success>  (23) 
True

>  <enamine_searched>  (23) 
False

>  <enamine_id>  (23) 
nan

$$$$

     RDKit          3D

 68 73  0  0  0  0  0  0  0  0999 V2000
    6.6417    4.2558   21.4735 C   0  0  0  0  0  0  0  0  0  0  0  0
    7.6443    3.7344   22.3847 N   0  0  0  0  0  0  0  0  0  0  0  0
    7.2518    3.0789   23.5101 C   0  0  0  0  0  0  0  0  0  0  0  0
    6.0731    2.8813   23.7818 O   0  0  0  0  0  0  0  0  0  0  0  0
    8.3809    2.6313   24.4472 C   0  0  0  0  0  0  0  0  0  0  0  0
    8.8845    1.3047   24.1199 N   0  0  0  0  0  0  0  0  0  0  0  0
    7.9565    0.2164   23.8618 C   0  0  0  0  0  0  0  0  0  0  0  0
    8.4409   -0.6769   22.6882 C   0  0  2  0  0  0  0  0  0  0  0  0
    8.1206    0.0876   21.3763 C   0  0  0  0  0  0  0  0  0  0  0  0
    8.7262    1.0118   20.8666 O   0  0  0  0  0  0  0  0  0  0  0  0
    6.9349   -0.4149   20.8857 N   0  0  0  0  0  0  0  0  0  0  0  0
    6.2274    0.1761   19.8142 C   0  0  0  0  0  0  0  0  0  0  0  0
    6.6103   -0.0806   18.5235 C   0  0  0  0  0  0  0  0  0  0  0  0
    5.9297    0.3522   17.4359 N   0  0  0  0  0  0  0  0  0  0  0  0
    4.8444    1.0592   17.6364 C   0  0  0  0  0  0  0  0  0  0  0  0
    4.3564    1.4319   18.9215 C   0  0  0  0  0  0  0  0  0  0  0  0
    3.2118    2.2530   19.1000 C   0  0  0  0  0  0  0  0  0  0  0  0
    2.7968    2.6109   20.3537 C   0  0  0  0  0  0  0  0  0  0  0  0
    3.4980    2.1578   21.4941 C   0  0  0  0  0  0  0  0  0  0  0  0
    4.6022    1.3520   21.3475 C   0  0  0  0  0  0  0  0  0  0  0  0
    5.0634    0.9706   20.0575 C   0  0  0  0  0  0  0  0  0  0  0  0
    5.1653    1.0589   22.2288 H   0  0  0  0  0  0  0  0  0  0  0  0
    3.1865    2.4596   22.4895 H   0  0  0  0  0  0  0  0  0  0  0  0
    1.9326    3.2560   20.4803 H   0  0  0  0  0  0  0  0  0  0  0  0
    2.6882    2.6020   18.2138 H   0  0  0  0  0  0  0  0  0  0  0  0
    4.2865    1.3787   16.7546 H   0  0  0  0  0  0  0  0  0  0  0  0
    7.4950   -0.6860   18.3340 H   0  0  0  0  0  0  0  0  0  0  0  0
    6.3763   -1.5168   21.6385 C   0  0  0  0  0  0  0  0  0  0  0  0
    7.5522   -1.9501   22.5186 C   0  0  2  0  0  0  0  0  0  0  0  0
    7.1377   -2.6868   23.7908 C   0  0  0  0  0  0  0  0  0  0  0  0
    8.3351   -3.1908   24.4343 N   0  0  0  0  0  0  0  0  0  0  0  0
    8.2851   -3.6554   25.7478 C   0  0  0  0  0  0  0  0  0  0  0  0
    7.1969   -3.8120   26.6427 C   0  0  0  0  0  0  0  0  0  0  0  0
    7.6041   -4.2695   27.8230 N   0  0  0  0  0  0  0  0  0  0  0  0
    8.9282   -4.4050   27.7077 N   0  0  0  0  0  0  0  0  0  0  0  0
    9.7170   -4.8797   28.8176 C   0  0  0  0  0  0  0  0  0  0  0  0
    9.2507   -4.5373   29.7399 H   0  0  0  0  0  0  0  0  0  0  0  0
    9.7882   -5.9740   28.8307 H   0  0  0  0  0  0  0  0  0  0  0  0
   10.7215   -4.4541   28.7555 H   0  0  0  0  0  0  0  0  0  0  0  0
    9.3871   -4.0566   26.4798 C   0  0  0  0  0  0  0  0  0  0  0  0
   10.4436   -4.1148   26.2329 H   0  0  0  0  0  0  0  0  0  0  0  0
    6.1467   -3.5889   26.4863 H   0  0  0  0  0  0  0  0  0  0  0  0
    9.1197   -2.5486   24.3393 H   0  0  0  0  0  0  0  0  0  0  0  0
    6.4739   -3.5250   23.5409 H   0  0  0  0  0  0  0  0  0  0  0  0
    6.5582   -2.0175   24.4538 H   0  0  0  0  0  0  0  0  0  0  0  0
    8.1588   -2.6470   21.9325 H   0  0  0  0  0  0  0  0  0  0  0  0
    5.4903   -1.2160   22.2226 H   0  0  0  0  0  0  0  0  0  0  0  0
    6.0471   -2.3030   20.9501 H   0  0  0  0  0  0  0  0  0  0  0  0
    9.9224   -0.9798   22.8613 C   0  0  0  0  0  0  0  0  0  0  0  0
   10.5870   -1.9260   22.0490 C   0  0  0  0  0  0  0  0  0  0  0  0
   11.9561   -2.1177   22.1817 C   0  0  0  0  0  0  0  0  0  0  0  0
   12.7918   -3.2018   21.0956 Cl  0  0  0  0  0  0  0  0  0  0  0  0
   12.7203   -1.4196   23.1215 C   0  0  0  0  0  0  0  0  0  0  0  0
   12.0745   -0.4880   23.9133 C   0  0  0  0  0  0  0  0  0  0  0  0
   10.7064   -0.2439   23.7662 C   0  0  0  0  0  0  0  0  0  0  0  0
   10.1810    0.9926   24.4358 C   0  0  0  0  0  0  0  0  0  0  0  0
   10.8892    1.6837   25.1523 O   0  0  0  0  0  0  0  0  0  0  0  0
   12.6381    0.1266   24.6101 H   0  0  0  0  0  0  0  0  0  0  0  0
   13.7973   -1.5764   23.1822 H   0  0  0  0  0  0  0  0  0  0  0  0
   10.0688   -2.4941   21.2786 H   0  0  0  0  0  0  0  0  0  0  0  0
    7.8563   -0.3777   24.7788 H   0  0  0  0  0  0  0  0  0  0  0  0
    6.9822    0.6566   23.6333 H   0  0  0  0  0  0  0  0  0  0  0  0
    9.2220    3.3297   24.3879 H   0  0  0  0  0  0  0  0  0  0  0  0
    8.0019    2.6805   25.4780 H   0  0  0  0  0  0  0  0  0  0  0  0
    8.5843    3.5862   22.0463 H   0  0  0  0  0  0  0  0  0  0  0  0
    6.1815    3.4651   20.8647 H   0  0  0  0  0  0  0  0  0  0  0  0
    7.0940    5.0042   20.8231 H   0  0  0  0  0  0  0  0  0  0  0  0
    5.8621    4.7365   22.0667 H   0  0  0  0  0  0  0  0  0  0  0  0
  1  2  1  0
  2  3  1  0
  3  4  2  0
  3  5  1  0
  5  6  1  0
  6  7  1  0
  8  7  1  1
  8  9  1  0
  9 10  2  0
  9 11  1  0
 11 12  1  0
 12 13  2  0
 13 14  1  0
 14 15  2  0
 15 16  1  0
 16 17  2  0
 17 18  1  0
 18 19  2  0
 19 20  1  0
 20 21  2  0
 20 22  1  0
 19 23  1  0
 18 24  1  0
 17 25  1  0
 15 26  1  0
 13 27  1  0
 11 28  1  0
 28 29  1  0
 29 30  1  0
 30 31  1  0
 31 32  1  0
 32 33  1  0
 33 34  2  0
 34 35  1  0
 35 36  1  0
 36 37  1  0
 36 38  1  0
 36 39  1  0
 35 40  1  0
 40 41  1  0
 33 42  1  0
 31 43  1  0
 30 44  1  0
 30 45  1  0
 29 46  1  6
 28 47  1  0
 28 48  1  0
  8 49  1  0
 49 50  2  0
 50 51  1  0
 51 52  1  0
 51 53  2  0
 53 54  1  0
 54 55  2  0
 55 56  1  0
 56 57  2  0
 54 58  1  0
 53 59  1  0
 50 60  1  0
  7 61  1  0
  7 62  1  0
  5 63  1  0
  5 64  1  0
  2 65  1  0
  1 66  1  0
  1 67  1  0
  1 68  1  0
 56  6  1  0
 29  8  1  0
 40 32  2  0
 55 49  1  0
 21 12  1  0
 21 16  1  0
M  END
>  <cnnaffinities>  (24) 
[7.56741]

>  <score>  (24) 
7.56741

>  <index>  (24) 
25

>  <Smiles>  (24) 
C(N(C(=O)C(N1C([C@@]2(C(=O)N(c3c(nc(c4c(c(c(c(c34)[H])[H])[H])[H])[H])[H])C([C@@]2(C(N(c2c(nn(C([H])([H])[H])c2[H])[H])[H])([H])[H])[H])([H])[H])c2c(c(Cl)c(c(c2C1=O)[H])[H])[H])([H])[H])([H])[H])[H])([H])([H])[H]

>  <h>  (24) 
<NA>

>  <Training>  (24) 
True

>  <Success>  (24) 
True

>  <enamine_searched>  (24) 
False

>  <enamine_id>  (24) 
nan

$$$$

     RDKit          3D

 43 47  0  0  0  0  0  0  0  0999 V2000
    8.7377    0.6527   20.6524 O   0  0  0  0  0  0  0  0  0  0  0  0
    8.1031   -0.2670   21.1053 C   0  0  0  0  0  0  0  0  0  0  0  0
    8.5253   -1.3143   21.8988 N   0  0  0  0  0  0  0  0  0  0  0  0
    7.4083   -1.9450   22.5811 C   0  0  1  0  0  0  0  0  0  0  0  0
    7.5322   -3.4550   22.8146 C   0  0  0  0  0  0  0  0  0  0  0  0
    7.8518   -3.2025   24.3091 C   0  0  2  0  0  0  0  0  0  0  0  0
    7.1630   -4.0141   25.3809 C   0  0  0  0  0  0  0  0  0  0  0  0
    7.9099   -4.5263   26.4489 C   0  0  0  0  0  0  0  0  0  0  0  0
    7.3537   -5.3467   27.4264 C   0  0  0  0  0  0  0  0  0  0  0  0
    6.0009   -5.6645   27.3814 C   0  0  0  0  0  0  0  0  0  0  0  0
    5.2184   -5.1195   26.3739 C   0  0  0  0  0  0  0  0  0  0  0  0
    5.7879   -4.2796   25.4241 C   0  0  0  0  0  0  0  0  0  0  0  0
    4.6734   -3.5141   24.3330 Cl  0  0  0  0  0  0  0  0  0  0  0  0
    4.1436   -5.2615   26.3643 H   0  0  0  0  0  0  0  0  0  0  0  0
    5.5522   -6.3310   28.1142 H   0  0  0  0  0  0  0  0  0  0  0  0
    7.9777   -5.7485   28.2218 H   0  0  0  0  0  0  0  0  0  0  0  0
    8.9518   -4.2259   26.5295 H   0  0  0  0  0  0  0  0  0  0  0  0
    7.4238   -1.7219   24.1109 C   0  0  0  0  0  0  0  0  0  0  0  0
    8.1496   -0.9681   24.4291 H   0  0  0  0  0  0  0  0  0  0  0  0
    6.4576   -1.4820   24.5475 H   0  0  0  0  0  0  0  0  0  0  0  0
    8.9332   -3.2402   24.4760 H   0  0  0  0  0  0  0  0  0  0  0  0
    6.5957   -3.9822   22.6654 H   0  0  0  0  0  0  0  0  0  0  0  0
    8.3026   -3.8972   22.1977 H   0  0  0  0  0  0  0  0  0  0  0  0
    6.2315   -1.4695   21.7520 C   0  0  0  0  0  0  0  0  0  0  0  0
    5.0941   -1.8748   21.7648 O   0  0  0  0  0  0  0  0  0  0  0  0
    6.7269   -0.4687   20.9102 N   0  0  0  0  0  0  0  0  0  0  0  0
    6.0134    0.1121   19.8247 C   0  0  0  0  0  0  0  0  0  0  0  0
    6.4083   -0.1549   18.5409 C   0  0  0  0  0  0  0  0  0  0  0  0
    5.7703    0.3184   17.4458 N   0  0  0  0  0  0  0  0  0  0  0  0
    4.7169    1.0765   17.6207 C   0  0  0  0  0  0  0  0  0  0  0  0
    4.2083    1.4557   18.8940 C   0  0  0  0  0  0  0  0  0  0  0  0
    3.0854    2.3214   19.0490 C   0  0  0  0  0  0  0  0  0  0  0  0
    2.6911    2.7092   20.3011 C   0  0  0  0  0  0  0  0  0  0  0  0
    3.3884    2.2468   21.4435 C   0  0  0  0  0  0  0  0  0  0  0  0
    4.4576    1.3944   21.3167 C   0  0  0  0  0  0  0  0  0  0  0  0
    4.8902    0.9737   20.0343 C   0  0  0  0  0  0  0  0  0  0  0  0
    5.0005    1.0287   22.1839 H   0  0  0  0  0  0  0  0  0  0  0  0
    3.0941    2.5796   22.4332 H   0  0  0  0  0  0  0  0  0  0  0  0
    1.8586    3.4011   20.4301 H   0  0  0  0  0  0  0  0  0  0  0  0
    2.5783    2.6968   18.1603 H   0  0  0  0  0  0  0  0  0  0  0  0
    4.2305    1.4483   16.7192 H   0  0  0  0  0  0  0  0  0  0  0  0
    7.2769   -0.7834   18.3507 H   0  0  0  0  0  0  0  0  0  0  0  0
    9.3917   -1.2009   22.4064 H   0  0  0  0  0  0  0  0  0  0  0  0
  1  2  2  0
  2  3  1  0
  4  3  1  6
  4  5  1  0
  5  6  1  0
  6  7  1  0
  7  8  2  0
  8  9  1  0
  9 10  2  0
 10 11  1  0
 11 12  2  0
 12 13  1  0
 11 14  1  0
 10 15  1  0
  9 16  1  0
  8 17  1  0
  6 18  1  0
 18 19  1  0
 18 20  1  0
  6 21  1  6
  5 22  1  0
  5 23  1  0
  4 24  1  0
 24 25  2  0
 24 26  1  0
 26 27  1  0
 27 28  2  0
 28 29  1  0
 29 30  2  0
 30 31  1  0
 31 32  2  0
 32 33  1  0
 33 34  2  0
 34 35  1  0
 35 36  2  0
 35 37  1  0
 34 38  1  0
 33 39  1  0
 32 40  1  0
 30 41  1  0
 28 42  1  0
  3 43  1  0
 26  2  1  0
 36 27  1  0
 18  4  1  0
 36 31  1  0
 12  7  1  0
M  END
>  <cnnaffinities>  (25) 
[5.78439]

>  <score>  (25) 
5.78439

>  <index>  (25) 
26

>  <Smiles>  (25) 
O=C1N([C@]2(C([C@](c3c(c(c(c(c3Cl)[H])[H])[H])[H])(C2([H])[H])[H])([H])[H])C(=O)N1c1c(nc(c2c(c(c(c(c12)[H])[H])[H])[H])[H])[H])[H]

>  <h>  (25) 
<NA>

>  <Training>  (25) 
True

>  <Success>  (25) 
True

>  <enamine_searched>  (25) 
False

>  <enamine_id>  (25) 
nan

$$$$

     RDKit          3D

 46 48  0  0  0  0  0  0  0  0999 V2000
    6.8165    3.9152   21.4145 C   0  0  0  0  0  0  0  0  0  0  0  0
    7.1858    3.3738   22.7989 C   0  0  0  0  0  0  0  0  0  0  0  0
    8.4581    2.4884   22.7920 C   0  0  1  0  0  0  0  0  0  0  0  0
    9.3392    2.6773   24.0307 C   0  0  0  0  0  0  0  0  0  0  0  0
    8.9087    1.8672   25.2497 C   0  0  1  0  0  0  0  0  0  0  0  0
    7.8522    2.5561   26.0884 C   0  0  0  0  0  0  0  0  0  0  0  0
    7.7465    1.9644   27.2948 F   0  0  0  0  0  0  0  0  0  0  0  0
    6.6169    2.5269   25.5427 F   0  0  0  0  0  0  0  0  0  0  0  0
    8.1514    3.8539   26.2935 F   0  0  0  0  0  0  0  0  0  0  0  0
    8.5776    0.4326   24.8866 C   0  0  0  0  0  0  0  0  0  0  0  0
    7.6327    0.2989   23.7029 C   0  0  0  0  0  0  0  0  0  0  0  0
    8.1438    1.0720   22.5785 N   0  0  0  0  0  0  0  0  0  0  0  0
    8.0256    0.6820   21.2701 C   0  0  0  0  0  0  0  0  0  0  0  0
    8.7029    1.1879   20.3878 O   0  0  0  0  0  0  0  0  0  0  0  0
    6.9836   -0.3843   20.9103 C   0  0  0  0  0  0  0  0  0  0  0  0
    6.1131    0.1006   19.7807 C   0  0  0  0  0  0  0  0  0  0  0  0
    6.4432   -0.1843   18.4783 C   0  0  0  0  0  0  0  0  0  0  0  0
    5.7891    0.2838   17.3909 N   0  0  0  0  0  0  0  0  0  0  0  0
    4.7440    1.0433   17.5931 C   0  0  0  0  0  0  0  0  0  0  0  0
    4.2798    1.4273   18.8799 C   0  0  0  0  0  0  0  0  0  0  0  0
    3.1701    2.2901   19.0520 C   0  0  0  0  0  0  0  0  0  0  0  0
    2.7695    2.6659   20.3067 C   0  0  0  0  0  0  0  0  0  0  0  0
    3.4641    2.1897   21.4410 C   0  0  0  0  0  0  0  0  0  0  0  0
    4.5428    1.3482   21.2947 C   0  0  0  0  0  0  0  0  0  0  0  0
    4.9862    0.9428   20.0098 C   0  0  0  0  0  0  0  0  0  0  0  0
    5.0651    0.9965   22.1805 H   0  0  0  0  0  0  0  0  0  0  0  0
    3.1460    2.4878   22.4355 H   0  0  0  0  0  0  0  0  0  0  0  0
    1.9226    3.3330   20.4331 H   0  0  0  0  0  0  0  0  0  0  0  0
    2.6641    2.6562   18.1619 H   0  0  0  0  0  0  0  0  0  0  0  0
    4.2085    1.3905   16.7093 H   0  0  0  0  0  0  0  0  0  0  0  0
    7.2836   -0.8381   18.2499 H   0  0  0  0  0  0  0  0  0  0  0  0
    7.5478   -1.2625   20.5802 H   0  0  0  0  0  0  0  0  0  0  0  0
    6.3823   -0.6826   21.7750 H   0  0  0  0  0  0  0  0  0  0  0  0
    6.6208    0.6264   23.9844 H   0  0  0  0  0  0  0  0  0  0  0  0
    7.6017   -0.7497   23.3884 H   0  0  0  0  0  0  0  0  0  0  0  0
    8.1744   -0.0740   25.7697 H   0  0  0  0  0  0  0  0  0  0  0  0
    9.5348   -0.0252   24.6052 H   0  0  0  0  0  0  0  0  0  0  0  0
    9.7513    1.7301   25.9184 H   0  0  0  0  0  0  0  0  0  0  0  0
    9.3619    3.7444   24.2752 H   0  0  0  0  0  0  0  0  0  0  0  0
   10.3584    2.3704   23.7784 H   0  0  0  0  0  0  0  0  0  0  0  0
    9.0524    2.7504   21.9113 H   0  0  0  0  0  0  0  0  0  0  0  0
    6.3508    2.8009   23.2270 H   0  0  0  0  0  0  0  0  0  0  0  0
    7.3742    4.2096   23.4865 H   0  0  0  0  0  0  0  0  0  0  0  0
    7.5474    4.6627   21.0995 H   0  0  0  0  0  0  0  0  0  0  0  0
    6.7953    3.1120   20.6679 H   0  0  0  0  0  0  0  0  0  0  0  0
    5.8388    4.4083   21.4034 H   0  0  0  0  0  0  0  0  0  0  0  0
  1  2  1  0
  2  3  1  0
  3  4  1  0
  4  5  1  0
  5  6  1  0
  6  7  1  0
  6  8  1  0
  6  9  1  0
  5 10  1  0
 10 11  1  0
 11 12  1  0
 12 13  1  0
 13 14  2  0
 13 15  1  0
 15 16  1  0
 16 17  2  0
 17 18  1  0
 18 19  2  0
 19 20  1  0
 20 21  2  0
 21 22  1  0
 22 23  2  0
 23 24  1  0
 24 25  2  0
 24 26  1  0
 23 27  1  0
 22 28  1  0
 21 29  1  0
 19 30  1  0
 17 31  1  0
 15 32  1  0
 15 33  1  0
 11 34  1  0
 11 35  1  0
 10 36  1  0
 10 37  1  0
  5 38  1  1
  4 39  1  0
  4 40  1  0
  3 41  1  6
  2 42  1  0
  2 43  1  0
  1 44  1  0
  1 45  1  0
  1 46  1  0
 12  3  1  0
 25 16  1  0
 25 20  1  0
M  END
>  <cnnaffinities>  (26) 
[5.75175, 5.75177, 5.84156]

>  <score>  (26) 
5.75175

>  <index>  (26) 
27

>  <Smiles>  (26) 
C(C([C@]1(C([C@@](C(F)(F)F)(C(C(N1C(=O)C(c1c(nc(c2c(c(c(c(c12)[H])[H])[H])[H])[H])[H])([H])[H])([H])[H])([H])[H])[H])([H])[H])[H])([H])[H])([H])([H])[H]

>  <h>  (26) 
<NA>

>  <Training>  (26) 
True

>  <Success>  (26) 
True

>  <enamine_searched>  (26) 
False

>  <enamine_id>  (26) 
nan

$$$$

     RDKit          3D

 70 75  0  0  0  0  0  0  0  0999 V2000
    5.4933    1.3529   28.2432 C   0  0  0  0  0  0  0  0  0  0  0  0
    5.9360    1.2339   26.8549 N   0  0  0  0  0  4  0  0  0  0  0  0
    6.3855    2.5014   26.2128 C   0  0  0  0  0  0  0  0  0  0  0  0
    6.6976    2.2270   24.7413 C   0  0  0  0  0  0  0  0  0  0  0  0
    7.7288    1.2138   24.5663 N   0  0  0  0  0  0  0  0  0  0  0  0
    7.4094   -0.1386   24.1427 C   0  0  0  0  0  0  0  0  0  0  0  0
    8.2699   -0.5442   22.8986 C   0  0  2  0  0  0  0  0  0  0  0  0
    7.8653    0.3384   21.6908 C   0  0  0  0  0  0  0  0  0  0  0  0
    8.2368    1.4605   21.4336 O   0  0  0  0  0  0  0  0  0  0  0  0
    6.9808   -0.3907   20.9185 N   0  0  0  0  0  0  0  0  0  0  0  0
    6.2227    0.1668   19.8607 C   0  0  0  0  0  0  0  0  0  0  0  0
    6.5428   -0.1635   18.5685 C   0  0  0  0  0  0  0  0  0  0  0  0
    5.8739    0.2697   17.4758 N   0  0  0  0  0  0  0  0  0  0  0  0
    4.8258    1.0273   17.6740 C   0  0  0  0  0  0  0  0  0  0  0  0
    4.3663    1.4283   18.9566 C   0  0  0  0  0  0  0  0  0  0  0  0
    3.2251    2.2575   19.0929 C   0  0  0  0  0  0  0  0  0  0  0  0
    2.7665    2.6018   20.3322 C   0  0  0  0  0  0  0  0  0  0  0  0
    3.4264    2.1245   21.4869 C   0  0  0  0  0  0  0  0  0  0  0  0
    4.5450    1.3324   21.3800 C   0  0  0  0  0  0  0  0  0  0  0  0
    5.0609    0.9761   20.1003 C   0  0  0  0  0  0  0  0  0  0  0  0
    5.0335    0.9704   22.2814 H   0  0  0  0  0  0  0  0  0  0  0  0
    3.0410    2.3927   22.4656 H   0  0  0  0  0  0  0  0  0  0  0  0
    1.8939    3.2404   20.4339 H   0  0  0  0  0  0  0  0  0  0  0  0
    2.7347    2.6041   18.1878 H   0  0  0  0  0  0  0  0  0  0  0  0
    4.2817    1.3632   16.7925 H   0  0  0  0  0  0  0  0  0  0  0  0
    7.3933   -0.8170   18.3774 H   0  0  0  0  0  0  0  0  0  0  0  0
    6.7727   -1.7560   21.3649 C   0  0  0  0  0  0  0  0  0  0  0  0
    7.9233   -1.9560   22.3580 C   0  0  2  0  0  0  0  0  0  0  0  0
    7.7097   -3.0374   23.4068 C   0  0  0  0  0  0  0  0  0  0  0  0
    6.4712   -2.8233   24.0580 O   0  0  0  0  0  0  0  0  0  0  0  0
    6.2078   -3.7948   25.0341 C   0  0  0  0  0  0  0  0  0  0  0  0
    4.9022   -3.4795   25.7185 C   0  0  0  0  0  0  0  0  0  0  0  0
    3.8934   -3.5064   24.7816 F   0  0  0  0  0  0  0  0  0  0  0  0
    4.5646   -4.2884   26.9665 C   0  0  0  0  0  0  0  0  0  0  0  0
    4.6086   -3.1173   27.7934 O   0  0  0  0  0  0  0  0  0  0  0  0
    4.8402   -2.2690   26.6599 C   0  0  0  0  0  0  0  0  0  0  0  0
    3.9928   -1.6051   26.4532 H   0  0  0  0  0  0  0  0  0  0  0  0
    5.7603   -1.6804   26.7646 H   0  0  0  0  0  0  0  0  0  0  0  0
    3.5644   -4.7350   26.9094 H   0  0  0  0  0  0  0  0  0  0  0  0
    5.2950   -5.0443   27.2803 H   0  0  0  0  0  0  0  0  0  0  0  0
    7.0178   -3.8437   25.7804 H   0  0  0  0  0  0  0  0  0  0  0  0
    6.1194   -4.7756   24.5522 H   0  0  0  0  0  0  0  0  0  0  0  0
    8.5352   -2.9844   24.1401 H   0  0  0  0  0  0  0  0  0  0  0  0
    7.7303   -4.0432   22.9521 H   0  0  0  0  0  0  0  0  0  0  0  0
    8.7785   -2.2707   21.7561 H   0  0  0  0  0  0  0  0  0  0  0  0
    6.8348   -2.4433   20.5121 H   0  0  0  0  0  0  0  0  0  0  0  0
    5.7889   -1.8828   21.8375 H   0  0  0  0  0  0  0  0  0  0  0  0
    9.7288   -0.3448   23.2761 C   0  0  0  0  0  0  0  0  0  0  0  0
   10.7720   -1.1520   22.7970 C   0  0  0  0  0  0  0  0  0  0  0  0
   12.0632   -0.9333   23.2561 C   0  0  0  0  0  0  0  0  0  0  0  0
   13.3745   -1.9090   22.6445 Cl  0  0  0  0  0  0  0  0  0  0  0  0
   12.3592    0.0529   24.1936 C   0  0  0  0  0  0  0  0  0  0  0  0
   11.3459    0.8798   24.6220 C   0  0  0  0  0  0  0  0  0  0  0  0
   10.0536    0.7037   24.1430 C   0  0  0  0  0  0  0  0  0  0  0  0
    9.0107    1.6853   24.5568 C   0  0  0  0  0  0  0  0  0  0  0  0
    9.2865    2.8332   24.8793 O   0  0  0  0  0  0  0  0  0  0  0  0
   11.5165    1.6838   25.3151 H   0  0  0  0  0  0  0  0  0  0  0  0
   13.3690    0.1479   24.5716 H   0  0  0  0  0  0  0  0  0  0  0  0
   10.6002   -1.9236   22.0532 H   0  0  0  0  0  0  0  0  0  0  0  0
    7.6143   -0.8504   24.9580 H   0  0  0  0  0  0  0  0  0  0  0  0
    6.3369   -0.1724   23.9188 H   0  0  0  0  0  0  0  0  0  0  0  0
    5.7919    1.9199   24.1952 H   0  0  0  0  0  0  0  0  0  0  0  0
    7.0873    3.1377   24.2829 H   0  0  0  0  0  0  0  0  0  0  0  0
    7.2789    2.8722   26.7230 H   0  0  0  0  0  0  0  0  0  0  0  0
    5.6144    3.2697   26.3144 H   0  0  0  0  0  0  0  0  0  0  0  0
    6.7443    0.5823   26.7886 H   0  0  0  0  0  0  0  0  0  0  0  0
    5.1444    0.8476   26.2962 H   0  0  0  0  0  0  0  0  0  0  0  0
    4.6615    2.0593   28.3148 H   0  0  0  0  0  0  0  0  0  0  0  0
    5.1625    0.3788   28.6042 H   0  0  0  0  0  0  0  0  0  0  0  0
    6.2996    1.7188   28.8833 H   0  0  0  0  0  0  0  0  0  0  0  0
  1  2  1  0
  2  3  1  0
  3  4  1  0
  4  5  1  0
  5  6  1  0
  7  6  1  1
  7  8  1  0
  8  9  2  0
  8 10  1  0
 10 11  1  0
 11 12  2  0
 12 13  1  0
 13 14  2  0
 14 15  1  0
 15 16  2  0
 16 17  1  0
 17 18  2  0
 18 19  1  0
 19 20  2  0
 19 21  1  0
 18 22  1  0
 17 23  1  0
 16 24  1  0
 14 25  1  0
 12 26  1  0
 10 27  1  0
 27 28  1  0
 28 29  1  0
 29 30  1  0
 30 31  1  0
 31 32  1  0
 32 33  1  0
 32 34  1  0
 34 35  1  0
 35 36  1  0
 36 37  1  0
 36 38  1  0
 34 39  1  0
 34 40  1  0
 31 41  1  0
 31 42  1  0
 29 43  1  0
 29 44  1  0
 28 45  1  6
 27 46  1  0
 27 47  1  0
  7 48  1  0
 48 49  2  0
 49 50  1  0
 50 51  1  0
 50 52  2  0
 52 53  1  0
 53 54  2  0
 54 55  1  0
 55 56  2  0
 53 57  1  0
 52 58  1  0
 49 59  1  0
  6 60  1  0
  6 61  1  0
  4 62  1  0
  4 63  1  0
  3 64  1  0
  3 65  1  0
  2 66  1  0
  2 67  1  0
  1 68  1  0
  1 69  1  0
  1 70  1  0
 55  5  1  0
 28  7  1  0
 36 32  1  0
 54 48  1  0
 20 11  1  0
 20 15  1  0
M  CHG  1   2   1
M  END
>  <cnnaffinities>  (27) 
[6.7137]

>  <score>  (27) 
6.7137

>  <index>  (27) 
28

>  <Smiles>  (27) 
C([N+](C(C(N1C([C@@]2(C(=O)N(c3c(nc(c4c(c(c(c(c34)[H])[H])[H])[H])[H])[H])C([C@@]2(C(OC(C2(F)C(OC2([H])[H])([H])[H])([H])[H])([H])[H])[H])([H])[H])c2c(c(Cl)c(c(c2C1=O)[H])[H])[H])([H])[H])([H])[H])([H])[H])([H])[H])([H])([H])[H]

>  <h>  (27) 
<NA>

>  <Training>  (27) 
True

>  <Success>  (27) 
True

>  <enamine_searched>  (27) 
False

>  <enamine_id>  (27) 
nan

$$$$

     RDKit          3D

 67 72  0  0  0  0  0  0  0  0999 V2000
    6.4154    4.0460   22.7556 C   0  0  0  0  0  0  0  0  0  0  0  0
    7.6175    3.3621   22.2543 N   0  0  0  0  0  4  0  0  0  0  0  0
    8.7845    3.4325   23.1714 C   0  0  0  0  0  0  0  0  0  0  0  0
    8.7816    2.4705   24.3785 C   0  0  0  0  0  0  0  0  0  0  0  0
    9.1689    1.0910   24.1189 N   0  0  0  0  0  0  0  0  0  0  0  0
    8.1606    0.0877   23.8673 C   0  0  0  0  0  0  0  0  0  0  0  0
    8.5049   -0.7765   22.6262 C   0  0  2  0  0  0  0  0  0  0  0  0
    8.0239    0.0592   21.4119 C   0  0  0  0  0  0  0  0  0  0  0  0
    8.4129    1.1716   21.0917 O   0  0  0  0  0  0  0  0  0  0  0  0
    6.9111   -0.5278   20.8755 N   0  0  0  0  0  0  0  0  0  0  0  0
    6.1874    0.1000   19.8269 C   0  0  0  0  0  0  0  0  0  0  0  0
    6.5659   -0.1504   18.5342 C   0  0  0  0  0  0  0  0  0  0  0  0
    5.8989    0.3068   17.4508 N   0  0  0  0  0  0  0  0  0  0  0  0
    4.8309    1.0306   17.6639 C   0  0  0  0  0  0  0  0  0  0  0  0
    4.3596    1.4116   18.9503 C   0  0  0  0  0  0  0  0  0  0  0  0
    3.2201    2.2442   19.1072 C   0  0  0  0  0  0  0  0  0  0  0  0
    2.7996    2.6151   20.3521 C   0  0  0  0  0  0  0  0  0  0  0  0
    3.5026    2.1689   21.4941 C   0  0  0  0  0  0  0  0  0  0  0  0
    4.6100    1.3624   21.3668 C   0  0  0  0  0  0  0  0  0  0  0  0
    5.0669    0.9497   20.0839 C   0  0  0  0  0  0  0  0  0  0  0  0
    5.1440    1.0532   22.2616 H   0  0  0  0  0  0  0  0  0  0  0  0
    3.1772    2.4890   22.4790 H   0  0  0  0  0  0  0  0  0  0  0  0
    1.9392    3.2675   20.4708 H   0  0  0  0  0  0  0  0  0  0  0  0
    2.7114    2.5855   18.2100 H   0  0  0  0  0  0  0  0  0  0  0  0
    4.2809    1.3643   16.7856 H   0  0  0  0  0  0  0  0  0  0  0  0
    7.4392   -0.7678   18.3372 H   0  0  0  0  0  0  0  0  0  0  0  0
    6.3721   -1.5955   21.6945 C   0  0  0  0  0  0  0  0  0  0  0  0
    7.5898   -2.0323   22.5145 C   0  0  2  0  0  0  0  0  0  0  0  0
    7.2295   -2.7164   23.8241 C   0  0  0  0  0  0  0  0  0  0  0  0
    8.4260   -3.1628   24.5134 N   0  0  0  0  0  0  0  0  0  0  0  0
    8.3663   -3.6475   25.7675 C   0  0  0  0  0  0  0  0  0  0  0  0
    7.1467   -3.7280   26.3326 N   0  0  0  0  0  0  0  0  0  0  0  0
    7.1567   -4.2173   27.5605 C   0  0  0  0  0  0  0  0  0  0  0  0
    8.2145   -4.6450   28.2451 N   0  0  0  0  0  0  0  0  0  0  0  0
    9.3604   -4.5177   27.5685 C   0  0  0  0  0  0  0  0  0  0  0  0
    9.5189   -4.0273   26.3500 N   0  0  0  0  0  0  0  0  0  0  0  0
   10.2660   -4.8513   28.0749 H   0  0  0  0  0  0  0  0  0  0  0  0
    6.1941   -4.2808   28.0675 H   0  0  0  0  0  0  0  0  0  0  0  0
    9.3432   -2.8791   24.2027 H   0  0  0  0  0  0  0  0  0  0  0  0
    6.6504   -2.0491   24.4718 H   0  0  0  0  0  0  0  0  0  0  0  0
    6.5724   -3.5747   23.6648 H   0  0  0  0  0  0  0  0  0  0  0  0
    8.1452   -2.7574   21.9181 H   0  0  0  0  0  0  0  0  0  0  0  0
    5.9759   -2.3882   21.0512 H   0  0  0  0  0  0  0  0  0  0  0  0
    5.5644   -1.2294   22.3494 H   0  0  0  0  0  0  0  0  0  0  0  0
    9.9891   -1.1336   22.6455 C   0  0  0  0  0  0  0  0  0  0  0  0
   10.5174   -2.0976   21.7615 C   0  0  0  0  0  0  0  0  0  0  0  0
   11.8833   -2.3152   21.6793 C   0  0  0  0  0  0  0  0  0  0  0  0
   12.5056   -3.4105   20.4735 Cl  0  0  0  0  0  0  0  0  0  0  0  0
   12.7827   -1.6529   22.5139 C   0  0  0  0  0  0  0  0  0  0  0  0
   12.2676   -0.7738   23.4477 C   0  0  0  0  0  0  0  0  0  0  0  0
   10.8986   -0.4918   23.5042 C   0  0  0  0  0  0  0  0  0  0  0  0
   10.4592    0.6698   24.3604 C   0  0  0  0  0  0  0  0  0  0  0  0
   11.2128    1.2304   25.1412 O   0  0  0  0  0  0  0  0  0  0  0  0
   12.9289   -0.2484   24.1285 H   0  0  0  0  0  0  0  0  0  0  0  0
   13.8520   -1.8122   22.4034 H   0  0  0  0  0  0  0  0  0  0  0  0
    9.8787   -2.6533   21.0845 H   0  0  0  0  0  0  0  0  0  0  0  0
    7.1989    0.5826   23.7020 H   0  0  0  0  0  0  0  0  0  0  0  0
    8.0672   -0.5377   24.7647 H   0  0  0  0  0  0  0  0  0  0  0  0
    7.8067    2.4762   24.8809 H   0  0  0  0  0  0  0  0  0  0  0  0
    9.5189    2.8321   25.0911 H   0  0  0  0  0  0  0  0  0  0  0  0
    9.6822    3.2332   22.5884 H   0  0  0  0  0  0  0  0  0  0  0  0
    8.8493    4.4606   23.5521 H   0  0  0  0  0  0  0  0  0  0  0  0
    7.8983    3.7932   21.3605 H   0  0  0  0  0  0  0  0  0  0  0  0
    7.4571    2.3798   22.0004 H   0  0  0  0  0  0  0  0  0  0  0  0
    6.6021    5.1188   22.8833 H   0  0  0  0  0  0  0  0  0  0  0  0
    5.5910    3.9233   22.0552 H   0  0  0  0  0  0  0  0  0  0  0  0
    6.0980    3.6499   23.7245 H   0  0  0  0  0  0  0  0  0  0  0  0
  1  2  1  0
  2  3  1  0
  3  4  1  0
  4  5  1  0
  5  6  1  0
  7  6  1  1
  7  8  1  0
  8  9  2  0
  8 10  1  0
 10 11  1  0
 11 12  2  0
 12 13  1  0
 13 14  2  0
 14 15  1  0
 15 16  2  0
 16 17  1  0
 17 18  2  0
 18 19  1  0
 19 20  2  0
 19 21  1  0
 18 22  1  0
 17 23  1  0
 16 24  1  0
 14 25  1  0
 12 26  1  0
 10 27  1  0
 27 28  1  0
 28 29  1  0
 29 30  1  0
 30 31  1  0
 31 32  2  0
 32 33  1  0
 33 34  2  0
 34 35  1  0
 35 36  2  0
 35 37  1  0
 33 38  1  0
 30 39  1  0
 29 40  1  0
 29 41  1  0
 28 42  1  6
 27 43  1  0
 27 44  1  0
  7 45  1  0
 45 46  2  0
 46 47  1  0
 47 48  1  0
 47 49  2  0
 49 50  1  0
 50 51  2  0
 51 52  1  0
 52 53  2  0
 50 54  1  0
 49 55  1  0
 46 56  1  0
  6 57  1  0
  6 58  1  0
  4 59  1  0
  4 60  1  0
  3 61  1  0
  3 62  1  0
  2 63  1  0
  2 64  1  0
  1 65  1  0
  1 66  1  0
  1 67  1  0
 52  5  1  0
 28  7  1  0
 36 31  1  0
 51 45  1  0
 20 11  1  0
 20 15  1  0
M  CHG  1   2   1
M  END
>  <cnnaffinities>  (28) 
[7.36037]

>  <score>  (28) 
7.36037

>  <index>  (28) 
29

>  <Smiles>  (28) 
C([N+](C(C(N1C([C@@]2(C(=O)N(c3c(nc(c4c(c(c(c(c34)[H])[H])[H])[H])[H])[H])C([C@@]2(C(N(c2nc(nc(n2)[H])[H])[H])([H])[H])[H])([H])[H])c2c(c(Cl)c(c(c2C1=O)[H])[H])[H])([H])[H])([H])[H])([H])[H])([H])[H])([H])([H])[H]

>  <h>  (28) 
<NA>

>  <Training>  (28) 
True

>  <Success>  (28) 
True

>  <enamine_searched>  (28) 
False

>  <enamine_id>  (28) 
nan

$$$$

     RDKit          3D

 66 71  0  0  0  0  0  0  0  0999 V2000
    8.1522    5.2171   22.4365 C   0  0  0  0  0  0  0  0  0  0  0  0
    8.3404    4.2674   23.5065 N   0  0  0  0  0  0  0  0  0  0  0  0
    7.3748    3.3582   23.7764 C   0  0  0  0  0  0  0  0  0  0  0  0
    6.3421    3.2401   23.1359 O   0  0  0  0  0  0  0  0  0  0  0  0
    7.7111    2.4585   24.9637 C   0  0  0  0  0  0  0  0  0  0  0  0
    8.4500    1.2934   24.4980 N   0  0  0  0  0  0  0  0  0  0  0  0
    7.7059    0.1384   24.0299 C   0  0  0  0  0  0  0  0  0  0  0  0
    8.3675   -0.5971   22.8276 C   0  0  2  0  0  0  0  0  0  0  0  0
    8.0849    0.1677   21.4981 C   0  0  0  0  0  0  0  0  0  0  0  0
    8.7051    1.0944   21.0200 O   0  0  0  0  0  0  0  0  0  0  0  0
    6.9385   -0.3746   20.9446 N   0  0  0  0  0  0  0  0  0  0  0  0
    6.2345    0.1921   19.8538 C   0  0  0  0  0  0  0  0  0  0  0  0
    6.6113   -0.0899   18.5669 C   0  0  0  0  0  0  0  0  0  0  0  0
    5.9380    0.3299   17.4677 N   0  0  0  0  0  0  0  0  0  0  0  0
    4.8479    1.0342   17.6451 C   0  0  0  0  0  0  0  0  0  0  0  0
    4.3493    1.4173   18.9228 C   0  0  0  0  0  0  0  0  0  0  0  0
    3.1902    2.2284   19.0790 C   0  0  0  0  0  0  0  0  0  0  0  0
    2.7513    2.5774   20.3262 C   0  0  0  0  0  0  0  0  0  0  0  0
    3.4503    2.1357   21.4729 C   0  0  0  0  0  0  0  0  0  0  0  0
    4.5735    1.3540   21.3476 C   0  0  0  0  0  0  0  0  0  0  0  0
    5.0549    0.9778   20.0668 C   0  0  0  0  0  0  0  0  0  0  0  0
    5.1226    1.0533   22.2347 H   0  0  0  0  0  0  0  0  0  0  0  0
    3.1068    2.4234   22.4618 H   0  0  0  0  0  0  0  0  0  0  0  0
    1.8740    3.2095   20.4468 H   0  0  0  0  0  0  0  0  0  0  0  0
    2.6690    2.5726   18.1883 H   0  0  0  0  0  0  0  0  0  0  0  0
    4.2999    1.3380   16.7511 H   0  0  0  0  0  0  0  0  0  0  0  0
    7.4996   -0.6904   18.3824 H   0  0  0  0  0  0  0  0  0  0  0  0
    6.4498   -1.5624   21.6116 C   0  0  0  0  0  0  0  0  0  0  0  0
    7.6109   -1.9222   22.5498 C   0  0  2  0  0  0  0  0  0  0  0  0
    7.1898   -2.7716   23.7644 C   0  0  0  0  0  0  0  0  0  0  0  0
    6.7585   -4.1344   23.2837 C   0  0  0  0  0  0  0  0  0  0  0  0
    5.4270   -4.4377   22.9906 C   0  0  0  0  0  0  0  0  0  0  0  0
    5.1113   -5.5780   22.2532 C   0  0  0  0  0  0  0  0  0  0  0  0
    6.1225   -6.4170   21.7895 C   0  0  0  0  0  0  0  0  0  0  0  0
    7.4429   -6.1719   22.1527 C   0  0  0  0  0  0  0  0  0  0  0  0
    7.7366   -5.0658   22.9474 C   0  0  0  0  0  0  0  0  0  0  0  0
    8.7536   -4.8746   23.2844 H   0  0  0  0  0  0  0  0  0  0  0  0
    8.2458   -6.8268   21.8186 H   0  0  0  0  0  0  0  0  0  0  0  0
    5.8796   -7.2807   21.1762 H   0  0  0  0  0  0  0  0  0  0  0  0
    4.0727   -5.7993   22.0189 H   0  0  0  0  0  0  0  0  0  0  0  0
    4.6303   -3.7819   23.3408 H   0  0  0  0  0  0  0  0  0  0  0  0
    8.0479   -2.8641   24.4437 H   0  0  0  0  0  0  0  0  0  0  0  0
    6.3786   -2.2795   24.3183 H   0  0  0  0  0  0  0  0  0  0  0  0
    8.3032   -2.5321   21.9635 H   0  0  0  0  0  0  0  0  0  0  0  0
    5.5085   -1.3761   22.1540 H   0  0  0  0  0  0  0  0  0  0  0  0
    6.2360   -2.3548   20.8832 H   0  0  0  0  0  0  0  0  0  0  0  0
    9.8487   -0.7664   23.1237 C   0  0  0  0  0  0  0  0  0  0  0  0
   10.6366   -1.7328   22.4697 C   0  0  0  0  0  0  0  0  0  0  0  0
   11.9929   -1.8229   22.7486 C   0  0  0  0  0  0  0  0  0  0  0  0
   12.9898   -2.9361   21.8382 Cl  0  0  0  0  0  0  0  0  0  0  0  0
   12.6117   -1.0049   23.6985 C   0  0  0  0  0  0  0  0  0  0  0  0
   11.8553   -0.0209   24.3063 C   0  0  0  0  0  0  0  0  0  0  0  0
   10.5008    0.1223   23.9921 C   0  0  0  0  0  0  0  0  0  0  0  0
    9.8076    1.3672   24.4448 C   0  0  0  0  0  0  0  0  0  0  0  0
   10.4197    2.3931   24.7411 O   0  0  0  0  0  0  0  0  0  0  0  0
   12.3193    0.6927   24.9827 H   0  0  0  0  0  0  0  0  0  0  0  0
   13.6728   -1.1177   23.9085 H   0  0  0  0  0  0  0  0  0  0  0  0
   10.2209   -2.3858   21.7053 H   0  0  0  0  0  0  0  0  0  0  0  0
    6.7042    0.4739   23.7393 H   0  0  0  0  0  0  0  0  0  0  0  0
    7.6019   -0.5631   24.8636 H   0  0  0  0  0  0  0  0  0  0  0  0
    6.7733    2.1722   25.4536 H   0  0  0  0  0  0  0  0  0  0  0  0
    8.3352    3.0066   25.6747 H   0  0  0  0  0  0  0  0  0  0  0  0
    9.2408    4.1263   23.9404 H   0  0  0  0  0  0  0  0  0  0  0  0
    9.1248    5.5686   22.0885 H   0  0  0  0  0  0  0  0  0  0  0  0
    7.5730    6.0749   22.7930 H   0  0  0  0  0  0  0  0  0  0  0  0
    7.6047    4.7096   21.6348 H   0  0  0  0  0  0  0  0  0  0  0  0
  1  2  1  0
  2  3  1  0
  3  4  2  0
  3  5  1  0
  5  6  1  0
  6  7  1  0
  8  7  1  1
  8  9  1  0
  9 10  2  0
  9 11  1  0
 11 12  1  0
 12 13  2  0
 13 14  1  0
 14 15  2  0
 15 16  1  0
 16 17  2  0
 17 18  1  0
 18 19  2  0
 19 20  1  0
 20 21  2  0
 20 22  1  0
 19 23  1  0
 18 24  1  0
 17 25  1  0
 15 26  1  0
 13 27  1  0
 11 28  1  0
 28 29  1  0
 29 30  1  0
 30 31  1  0
 31 32  2  0
 32 33  1  0
 33 34  2  0
 34 35  1  0
 35 36  2  0
 36 37  1  0
 35 38  1  0
 34 39  1  0
 33 40  1  0
 32 41  1  0
 30 42  1  0
 30 43  1  0
 29 44  1  6
 28 45  1  0
 28 46  1  0
  8 47  1  0
 47 48  2  0
 48 49  1  0
 49 50  1  0
 49 51  2  0
 51 52  1  0
 52 53  2  0
 53 54  1  0
 54 55  2  0
 52 56  1  0
 51 57  1  0
 48 58  1  0
  7 59  1  0
  7 60  1  0
  5 61  1  0
  5 62  1  0
  2 63  1  0
  1 64  1  0
  1 65  1  0
  1 66  1  0
 54  6  1  0
 29  8  1  0
 36 31  1  0
 53 47  1  0
 21 12  1  0
 21 16  1  0
M  END
>  <cnnaffinities>  (29) 
[7.7895, 7.69244]

>  <score>  (29) 
7.7895

>  <index>  (29) 
30

>  <Smiles>  (29) 
C(N(C(=O)C(N1C([C@@]2(C(=O)N(c3c(nc(c4c(c(c(c(c34)[H])[H])[H])[H])[H])[H])C([C@@]2(C(c2c(c(c(c(c2[H])[H])[H])[H])[H])([H])[H])[H])([H])[H])c2c(c(Cl)c(c(c2C1=O)[H])[H])[H])([H])[H])([H])[H])[H])([H])([H])[H]

>  <h>  (29) 
<NA>

>  <Training>  (29) 
True

>  <Success>  (29) 
True

>  <enamine_searched>  (29) 
False

>  <enamine_id>  (29) 
nan

$$$$

     RDKit          3D

 64 70  0  0  0  0  0  0  0  0999 V2000
   10.4710    2.4163   24.7397 O   0  0  0  0  0  0  0  0  0  0  0  0
    9.8222    1.4504   24.3645 C   0  0  0  0  0  0  0  0  0  0  0  0
   10.4980    0.1679   23.9537 C   0  0  0  0  0  0  0  0  0  0  0  0
   11.8489    0.0328   24.2907 C   0  0  0  0  0  0  0  0  0  0  0  0
   12.6362   -0.9252   23.6808 C   0  0  0  0  0  0  0  0  0  0  0  0
   12.0510   -1.7292   22.6993 C   0  0  0  0  0  0  0  0  0  0  0  0
   13.1039   -2.7798   21.7892 Cl  0  0  0  0  0  0  0  0  0  0  0  0
   10.6964   -1.6690   22.4082 C   0  0  0  0  0  0  0  0  0  0  0  0
    9.8777   -0.7161   23.0599 C   0  0  0  0  0  0  0  0  0  0  0  0
    8.3915   -0.5565   22.7824 C   0  0  1  0  0  0  0  0  0  0  0  0
    7.7332    0.2455   23.9519 C   0  0  0  0  0  0  0  0  0  0  0  0
    8.4576    1.4753   24.2494 N   0  0  0  0  0  0  0  0  0  0  0  0
    7.7722    2.7238   24.5550 C   0  0  0  0  0  0  0  0  0  0  0  0
    7.5408    3.6222   23.3750 C   0  0  0  0  0  0  0  0  0  0  0  0
    8.0391    4.7836   23.1153 N   0  0  0  0  0  0  0  0  0  0  0  0
    7.4416    5.2155   21.9364 N   0  0  0  0  0  0  0  0  0  0  0  0
    6.6277    4.2837   21.5862 C   0  0  0  0  0  0  0  0  0  0  0  0
    6.6269    3.2388   22.4540 O   0  0  0  0  0  0  0  0  0  0  0  0
    5.9537    4.2586   20.7395 H   0  0  0  0  0  0  0  0  0  0  0  0
    8.3807    3.2825   25.2679 H   0  0  0  0  0  0  0  0  0  0  0  0
    6.8029    2.5136   25.0177 H   0  0  0  0  0  0  0  0  0  0  0  0
    7.6964   -0.3868   24.8501 H   0  0  0  0  0  0  0  0  0  0  0  0
    6.7081    0.5128   23.6715 H   0  0  0  0  0  0  0  0  0  0  0  0
    8.0517    0.1986   21.4663 C   0  0  0  0  0  0  0  0  0  0  0  0
    8.5941    1.1642   20.9750 O   0  0  0  0  0  0  0  0  0  0  0  0
    6.9152   -0.3930   20.9492 N   0  0  0  0  0  0  0  0  0  0  0  0
    6.2025    0.1605   19.8616 C   0  0  0  0  0  0  0  0  0  0  0  0
    6.6167   -0.0891   18.5807 C   0  0  0  0  0  0  0  0  0  0  0  0
    5.9596    0.3474   17.4801 N   0  0  0  0  0  0  0  0  0  0  0  0
    4.8748    1.0604   17.6609 C   0  0  0  0  0  0  0  0  0  0  0  0
    4.3611    1.4312   18.9391 C   0  0  0  0  0  0  0  0  0  0  0  0
    3.2173    2.2609   19.0989 C   0  0  0  0  0  0  0  0  0  0  0  0
    2.7558    2.5774   20.3476 C   0  0  0  0  0  0  0  0  0  0  0  0
    3.4033    2.0734   21.4961 C   0  0  0  0  0  0  0  0  0  0  0  0
    4.5148    1.2734   21.3687 C   0  0  0  0  0  0  0  0  0  0  0  0
    5.0274    0.9442   20.0833 C   0  0  0  0  0  0  0  0  0  0  0  0
    5.0209    0.9155   22.2597 H   0  0  0  0  0  0  0  0  0  0  0  0
    3.0389    2.3358   22.4858 H   0  0  0  0  0  0  0  0  0  0  0  0
    1.8894    3.2236   20.4645 H   0  0  0  0  0  0  0  0  0  0  0  0
    2.7284    2.6415   18.2067 H   0  0  0  0  0  0  0  0  0  0  0  0
    4.3356    1.3805   16.7687 H   0  0  0  0  0  0  0  0  0  0  0  0
    7.5141   -0.6824   18.4080 H   0  0  0  0  0  0  0  0  0  0  0  0
    6.4607   -1.5778   21.6469 C   0  0  0  0  0  0  0  0  0  0  0  0
    7.6716   -1.9058   22.5318 C   0  0  2  0  0  0  0  0  0  0  0  0
    7.3625   -2.7590   23.7694 C   0  0  0  0  0  0  0  0  0  0  0  0
    7.1352   -4.1561   23.4514 N   0  0  0  0  0  0  0  0  0  0  0  0
    5.9422   -4.7160   23.1125 C   0  0  0  0  0  0  0  0  0  0  0  0
    4.7131   -4.2116   23.5718 C   0  0  0  0  0  0  0  0  0  0  0  0
    3.5873   -4.9077   23.1939 C   0  0  0  0  0  0  0  0  0  0  0  0
    3.6208   -6.0082   22.4310 N   0  0  0  0  0  0  0  0  0  0  0  0
    4.8369   -6.4064   22.0778 C   0  0  0  0  0  0  0  0  0  0  0  0
    5.9994   -5.8340   22.3672 N   0  0  0  0  0  0  0  0  0  0  0  0
    4.8980   -7.3086   21.4667 H   0  0  0  0  0  0  0  0  0  0  0  0
    2.6016   -4.5868   23.5334 H   0  0  0  0  0  0  0  0  0  0  0  0
    4.6619   -3.3417   24.2201 H   0  0  0  0  0  0  0  0  0  0  0  0
    7.9135   -4.6367   23.0266 H   0  0  0  0  0  0  0  0  0  0  0  0
    6.4984   -2.3519   24.3072 H   0  0  0  0  0  0  0  0  0  0  0  0
    8.2119   -2.7101   24.4623 H   0  0  0  0  0  0  0  0  0  0  0  0
    8.3714   -2.4784   21.9136 H   0  0  0  0  0  0  0  0  0  0  0  0
    6.2297   -2.3700   20.9265 H   0  0  0  0  0  0  0  0  0  0  0  0
    5.5391   -1.3772   22.2220 H   0  0  0  0  0  0  0  0  0  0  0  0
   10.3257   -2.3092   21.6105 H   0  0  0  0  0  0  0  0  0  0  0  0
   13.7046   -1.0003   23.8804 H   0  0  0  0  0  0  0  0  0  0  0  0
   12.2920    0.7761   24.9489 H   0  0  0  0  0  0  0  0  0  0  0  0
  1  2  2  0
  2  3  1  0
  3  4  2  0
  4  5  1  0
  5  6  2  0
  6  7  1  0
  6  8  1  0
  8  9  2  0
  9 10  1  0
 10 11  1  1
 11 12  1  0
 12 13  1  0
 13 14  1  0
 14 15  2  0
 15 16  1  0
 16 17  2  0
 17 18  1  0
 17 19  1  0
 13 20  1  0
 13 21  1  0
 11 22  1  0
 11 23  1  0
 10 24  1  0
 24 25  2  0
 24 26  1  0
 26 27  1  0
 27 28  2  0
 28 29  1  0
 29 30  2  0
 30 31  1  0
 31 32  2  0
 32 33  1  0
 33 34  2  0
 34 35  1  0
 35 36  2  0
 35 37  1  0
 34 38  1  0
 33 39  1  0
 32 40  1  0
 30 41  1  0
 28 42  1  0
 26 43  1  0
 43 44  1  0
 44 45  1  0
 45 46  1  0
 46 47  1  0
 47 48  2  0
 48 49  1  0
 49 50  2  0
 50 51  1  0
 51 52  2  0
 51 53  1  0
 49 54  1  0
 48 55  1  0
 46 56  1  0
 45 57  1  0
 45 58  1  0
 44 59  1  6
 43 60  1  0
 43 61  1  0
  8 62  1  0
  5 63  1  0
  4 64  1  0
 12  2  1  0
 18 14  1  0
 36 27  1  0
 52 47  1  0
  9  3  1  0
 44 10  1  0
 36 31  1  0
M  END
>  <cnnaffinities>  (30) 
[7.63354, 7.37688]

>  <score>  (30) 
7.63354

>  <index>  (30) 
31

>  <Smiles>  (30) 
O=C1c2c(c(c(Cl)c(c2[C@@]2(C(N1C(c1nnc(o1)[H])([H])[H])([H])[H])C(=O)N(c1c(nc(c3c(c(c(c(c13)[H])[H])[H])[H])[H])[H])C([C@@]2(C(N(c1c(c(nc(n1)[H])[H])[H])[H])([H])[H])[H])([H])[H])[H])[H])[H]

>  <h>  (30) 
<NA>

>  <Training>  (30) 
True

>  <Success>  (30) 
True

>  <enamine_searched>  (30) 
False

>  <enamine_id>  (30) 
nan

$$$$

     RDKit          3D

 72 77  0  0  0  0  0  0  0  0999 V2000
    7.6645   -3.0289   23.3795 C   0  0  0  0  0  0  0  0  0  0  0  0
    7.9414   -1.9902   22.3002 C   0  0  1  0  0  0  0  0  0  0  0  0
    6.8022   -1.7859   21.2929 C   0  0  0  0  0  0  0  0  0  0  0  0
    6.9825   -0.4110   20.8618 N   0  0  0  0  0  0  0  0  0  0  0  0
    6.1945    0.1489   19.8256 C   0  0  0  0  0  0  0  0  0  0  0  0
    6.4946   -0.1796   18.5284 C   0  0  0  0  0  0  0  0  0  0  0  0
    5.8247    0.2703   17.4433 N   0  0  0  0  0  0  0  0  0  0  0  0
    4.7865    1.0383   17.6520 C   0  0  0  0  0  0  0  0  0  0  0  0
    4.3377    1.4314   18.9412 C   0  0  0  0  0  0  0  0  0  0  0  0
    3.1977    2.2627   19.0944 C   0  0  0  0  0  0  0  0  0  0  0  0
    2.7618    2.6137   20.3402 C   0  0  0  0  0  0  0  0  0  0  0  0
    3.4424    2.1455   21.4850 C   0  0  0  0  0  0  0  0  0  0  0  0
    4.5534    1.3423   21.3645 C   0  0  0  0  0  0  0  0  0  0  0  0
    5.0457    0.9716   20.0796 C   0  0  0  0  0  0  0  0  0  0  0  0
    5.0469    0.9833   22.2626 H   0  0  0  0  0  0  0  0  0  0  0  0
    3.0891    2.4294   22.4723 H   0  0  0  0  0  0  0  0  0  0  0  0
    1.8813    3.2424   20.4485 H   0  0  0  0  0  0  0  0  0  0  0  0
    2.6934    2.6108   18.1967 H   0  0  0  0  0  0  0  0  0  0  0  0
    4.2369    1.3906   16.7771 H   0  0  0  0  0  0  0  0  0  0  0  0
    7.3388   -0.8379   18.3291 H   0  0  0  0  0  0  0  0  0  0  0  0
    7.8226    0.3263   21.6731 C   0  0  0  0  0  0  0  0  0  0  0  0
    8.1055    1.4933   21.4920 O   0  0  0  0  0  0  0  0  0  0  0  0
    8.2428   -0.5765   22.8617 C   0  0  1  0  0  0  0  0  0  0  0  0
    7.3248   -0.1943   24.0694 C   0  0  0  0  0  0  0  0  0  0  0  0
    7.5793    1.1745   24.4926 N   0  0  0  0  0  0  0  0  0  0  0  0
    6.5139    2.0622   24.9332 C   0  0  0  0  0  0  0  0  0  0  0  0
    6.3781    3.2692   24.0013 C   0  0  0  0  0  0  0  0  0  0  0  0
    5.1675    4.1036   24.2933 N   0  0  1  0  0  4  0  0  0  0  0  0
    5.2380    4.8549   25.6039 C   0  0  0  0  0  0  0  0  0  0  0  0
    4.0274    5.7618   25.7728 C   0  0  0  0  0  0  0  0  0  0  0  0
    3.8979    6.6775   24.7049 O   0  0  0  0  0  0  0  0  0  0  0  0
    3.7719    6.0494   23.4229 C   0  0  0  0  0  0  0  0  0  0  0  0
    2.4359    5.3105   23.3064 C   0  0  0  0  0  0  0  0  0  0  0  0
    1.6084    5.9827   23.5547 H   0  0  0  0  0  0  0  0  0  0  0  0
    2.3880    4.4363   23.9671 H   0  0  0  0  0  0  0  0  0  0  0  0
    2.2949    4.9507   22.2804 H   0  0  0  0  0  0  0  0  0  0  0  0
    3.8427    7.1957   22.4215 C   0  0  0  0  0  0  0  0  0  0  0  0
    3.0042    7.8810   22.5784 H   0  0  0  0  0  0  0  0  0  0  0  0
    3.8058    6.8248   21.3902 H   0  0  0  0  0  0  0  0  0  0  0  0
    4.7746    7.7540   22.5592 H   0  0  0  0  0  0  0  0  0  0  0  0
    4.9522    5.0948   23.1813 C   0  0  0  0  0  0  0  0  0  0  0  0
    5.8740    5.6801   23.0764 H   0  0  0  0  0  0  0  0  0  0  0  0
    4.7971    4.5425   22.2467 H   0  0  0  0  0  0  0  0  0  0  0  0
    3.1170    5.1540   25.8799 H   0  0  0  0  0  0  0  0  0  0  0  0
    4.1320    6.3647   26.6817 H   0  0  0  0  0  0  0  0  0  0  0  0
    6.1498    5.4631   25.6051 H   0  0  0  0  0  0  0  0  0  0  0  0
    5.2827    4.1476   26.4346 H   0  0  0  0  0  0  0  0  0  0  0  0
    4.3567    3.4538   24.3283 H   0  0  0  0  0  0  0  0  0  0  0  0
    7.2704    3.8972   24.0849 H   0  0  0  0  0  0  0  0  0  0  0  0
    6.3158    2.9322   22.9597 H   0  0  0  0  0  0  0  0  0  0  0  0
    6.7215    2.4060   25.9550 H   0  0  0  0  0  0  0  0  0  0  0  0
    5.5796    1.4925   24.9561 H   0  0  0  0  0  0  0  0  0  0  0  0
    8.8476    1.6443   24.6157 C   0  0  0  0  0  0  0  0  0  0  0  0
    9.0914    2.7643   25.0620 O   0  0  0  0  0  0  0  0  0  0  0  0
    9.9345    0.7123   24.1828 C   0  0  0  0  0  0  0  0  0  0  0  0
   11.2191    0.9861   24.6300 C   0  0  0  0  0  0  0  0  0  0  0  0
   12.3039    0.2326   24.2192 C   0  0  0  0  0  0  0  0  0  0  0  0
   12.0477   -0.8203   23.3376 C   0  0  0  0  0  0  0  0  0  0  0  0
   13.3704   -1.7557   22.7068 Cl  0  0  0  0  0  0  0  0  0  0  0  0
   10.7664   -1.1299   22.9098 C   0  0  0  0  0  0  0  0  0  0  0  0
    9.6721   -0.3549   23.3203 C   0  0  0  0  0  0  0  0  0  0  0  0
   10.6395   -2.0083   22.2898 H   0  0  0  0  0  0  0  0  0  0  0  0
   13.3054    0.4574   24.5703 H   0  0  0  0  0  0  0  0  0  0  0  0
   11.3131    1.7992   25.3303 H   0  0  0  0  0  0  0  0  0  0  0  0
    6.2725   -0.2602   23.7759 H   0  0  0  0  0  0  0  0  0  0  0  0
    7.4888   -0.9032   24.8991 H   0  0  0  0  0  0  0  0  0  0  0  0
    5.8150   -1.9481   21.7539 H   0  0  0  0  0  0  0  0  0  0  0  0
    6.8663   -2.4637   20.4371 H   0  0  0  0  0  0  0  0  0  0  0  0
    8.8156   -2.2924   21.7094 H   0  0  0  0  0  0  0  0  0  0  0  0
    8.4720   -3.0170   24.1212 H   0  0  0  0  0  0  0  0  0  0  0  0
    7.5805   -4.0405   22.9720 H   0  0  0  0  0  0  0  0  0  0  0  0
    6.7280   -2.7902   23.9009 H   0  0  0  0  0  0  0  0  0  0  0  0
  1  2  1  0
  2  3  1  0
  3  4  1  0
  4  5  1  0
  5  6  2  0
  6  7  1  0
  7  8  2  0
  8  9  1  0
  9 10  2  0
 10 11  1  0
 11 12  2  0
 12 13  1  0
 13 14  2  0
 13 15  1  0
 12 16  1  0
 11 17  1  0
 10 18  1  0
  8 19  1  0
  6 20  1  0
  4 21  1  0
 21 22  2  0
 21 23  1  0
 23 24  1  1
 24 25  1  0
 25 26  1  0
 26 27  1  0
 27 28  1  0
 28 29  1  0
 29 30  1  0
 30 31  1  0
 31 32  1  0
 32 33  1  0
 33 34  1  0
 33 35  1  0
 33 36  1  0
 32 37  1  0
 37 38  1  0
 37 39  1  0
 37 40  1  0
 32 41  1  0
 41 42  1  0
 41 43  1  0
 30 44  1  0
 30 45  1  0
 29 46  1  0
 29 47  1  0
 28 48  1  1
 27 49  1  0
 27 50  1  0
 26 51  1  0
 26 52  1  0
 25 53  1  0
 53 54  2  0
 53 55  1  0
 55 56  2  0
 56 57  1  0
 57 58  2  0
 58 59  1  0
 58 60  1  0
 60 61  2  0
 60 62  1  0
 57 63  1  0
 56 64  1  0
 24 65  1  0
 24 66  1  0
  3 67  1  0
  3 68  1  0
  2 69  1  6
  1 70  1  0
  1 71  1  0
  1 72  1  0
 23  2  1  0
 41 28  1  0
 61 55  1  0
 14  5  1  0
 61 23  1  0
 14  9  1  0
M  CHG  1  28   1
M  END
>  <cnnaffinities>  (31) 
[6.84792, 6.82387]

>  <score>  (31) 
6.84792

>  <index>  (31) 
32

>  <Smiles>  (31) 
C([C@]1(C(N(c2c(nc(c3c(c(c(c(c23)[H])[H])[H])[H])[H])[H])C(=O)[C@]21C(N(C(C([N@+]1(C(C(OC(C([H])([H])[H])(C([H])([H])[H])C1([H])[H])([H])[H])([H])[H])[H])([H])[H])([H])[H])C(=O)c1c(c(c(Cl)c(c21)[H])[H])[H])([H])[H])([H])[H])[H])([H])([H])[H]

>  <h>  (31) 
<NA>

>  <Training>  (31) 
True

>  <Success>  (31) 
True

>  <enamine_searched>  (31) 
False

>  <enamine_id>  (31) 
nan

$$$$

     RDKit          3D

 44 47  0  0  0  0  0  0  0  0999 V2000
    8.5161    1.3907   20.7346 O   0  0  0  0  0  0  0  0  0  0  0  0
    7.8687    0.6920   21.5018 C   0  0  0  0  0  0  0  0  0  0  0  0
    6.9535   -0.4151   20.9262 C   0  0  0  0  0  0  0  0  0  0  0  0
    6.1106    0.0888   19.7750 C   0  0  0  0  0  0  0  0  0  0  0  0
    6.4300   -0.2001   18.4738 C   0  0  0  0  0  0  0  0  0  0  0  0
    5.7704    0.2700   17.3804 N   0  0  0  0  0  0  0  0  0  0  0  0
    4.7299    1.0339   17.5842 C   0  0  0  0  0  0  0  0  0  0  0  0
    4.2809    1.4247   18.8726 C   0  0  0  0  0  0  0  0  0  0  0  0
    3.1694    2.2864   19.0482 C   0  0  0  0  0  0  0  0  0  0  0  0
    2.7635    2.6539   20.3002 C   0  0  0  0  0  0  0  0  0  0  0  0
    3.4649    2.1694   21.4302 C   0  0  0  0  0  0  0  0  0  0  0  0
    4.5443    1.3347   21.2910 C   0  0  0  0  0  0  0  0  0  0  0  0
    4.9885    0.9400   20.0029 C   0  0  0  0  0  0  0  0  0  0  0  0
    5.0709    0.9832   22.1771 H   0  0  0  0  0  0  0  0  0  0  0  0
    3.1339    2.4712   22.4189 H   0  0  0  0  0  0  0  0  0  0  0  0
    1.9122    3.3162   20.4324 H   0  0  0  0  0  0  0  0  0  0  0  0
    2.6523    2.6546   18.1632 H   0  0  0  0  0  0  0  0  0  0  0  0
    4.1982    1.3966   16.6998 H   0  0  0  0  0  0  0  0  0  0  0  0
    7.2728   -0.8530   18.2441 H   0  0  0  0  0  0  0  0  0  0  0  0
    7.6150   -1.1987   20.5367 H   0  0  0  0  0  0  0  0  0  0  0  0
    6.3229   -0.8905   21.6862 H   0  0  0  0  0  0  0  0  0  0  0  0
    7.9402    0.8595   22.8614 N   0  0  0  0  0  0  0  0  0  0  0  0
    7.4852   -0.0757   23.8821 C   0  0  0  0  0  0  0  0  0  0  0  0
    7.8296    0.5793   25.2255 C   0  0  0  0  0  0  0  0  0  0  0  0
    8.7614    1.7535   24.9076 C   0  0  0  0  0  0  0  0  0  0  0  0
    8.5830    2.0520   23.4130 C   0  0  2  0  0  0  0  0  0  0  0  0
    7.7945    3.3172   23.1439 C   0  0  0  0  0  0  0  0  0  0  0  0
    8.3949    4.4125   22.5256 C   0  0  0  0  0  0  0  0  0  0  0  0
    7.6645    5.5685   22.2704 C   0  0  0  0  0  0  0  0  0  0  0  0
    6.3282    5.6583   22.6336 C   0  0  0  0  0  0  0  0  0  0  0  0
    5.7650    4.5624   23.2651 C   0  0  0  0  0  0  0  0  0  0  0  0
    4.4671    4.6184   23.6165 F   0  0  0  0  0  0  0  0  0  0  0  0
    6.4641    3.3999   23.5353 C   0  0  0  0  0  0  0  0  0  0  0  0
    5.9551    2.5757   24.0303 H   0  0  0  0  0  0  0  0  0  0  0  0
    5.7345    6.5448   22.4320 H   0  0  0  0  0  0  0  0  0  0  0  0
    8.1382    6.4020   21.7673 H   0  0  0  0  0  0  0  0  0  0  0  0
    9.4390    4.3573   22.2284 H   0  0  0  0  0  0  0  0  0  0  0  0
    9.5528    2.1843   22.9471 H   0  0  0  0  0  0  0  0  0  0  0  0
    8.5336    2.6291   25.5193 H   0  0  0  0  0  0  0  0  0  0  0  0
    9.8009    1.5008   25.1343 H   0  0  0  0  0  0  0  0  0  0  0  0
    8.3006   -0.1293   25.9065 H   0  0  0  0  0  0  0  0  0  0  0  0
    6.9276    0.9275   25.7329 H   0  0  0  0  0  0  0  0  0  0  0  0
    7.9984   -1.0330   23.7590 H   0  0  0  0  0  0  0  0  0  0  0  0
    6.4091   -0.2690   23.8104 H   0  0  0  0  0  0  0  0  0  0  0  0
  1  2  2  0
  2  3  1  0
  3  4  1  0
  4  5  2  0
  5  6  1  0
  6  7  2  0
  7  8  1  0
  8  9  2  0
  9 10  1  0
 10 11  2  0
 11 12  1  0
 12 13  2  0
 12 14  1  0
 11 15  1  0
 10 16  1  0
  9 17  1  0
  7 18  1  0
  5 19  1  0
  3 20  1  0
  3 21  1  0
  2 22  1  0
 22 23  1  0
 23 24  1  0
 24 25  1  0
 25 26  1  0
 26 27  1  0
 27 28  2  0
 28 29  1  0
 29 30  2  0
 30 31  1  0
 31 32  1  0
 31 33  2  0
 33 34  1  0
 30 35  1  0
 29 36  1  0
 28 37  1  0
 26 38  1  6
 25 39  1  0
 25 40  1  0
 24 41  1  0
 24 42  1  0
 23 43  1  0
 23 44  1  0
 13  4  1  0
 26 22  1  0
 33 27  1  0
 13  8  1  0
M  END
>  <cnnaffinities>  (32) 
[5.67392]

>  <score>  (32) 
5.67392

>  <index>  (32) 
33

>  <Smiles>  (32) 
O=C(C(c1c(nc(c2c(c(c(c(c12)[H])[H])[H])[H])[H])[H])([H])[H])N1C(C(C([C@@]1(c1c(c(c(c(F)c1[H])[H])[H])[H])[H])([H])[H])([H])[H])([H])[H]

>  <h>  (32) 
<NA>

>  <Training>  (32) 
True

>  <Success>  (32) 
True

>  <enamine_searched>  (32) 
False

>  <enamine_id>  (32) 
nan

$$$$

     RDKit          3D

 51 54  0  0  0  0  0  0  0  0999 V2000
   13.8784    0.0435   22.3104 N   0  0  0  0  0  0  0  0  0  0  0  0
   13.2718   -0.7086   22.9466 C   0  0  0  0  0  0  0  0  0  0  0  0
   12.5145   -1.6794   23.7554 C   0  0  0  0  0  0  0  0  0  0  0  0
   11.0915   -1.8735   23.2738 C   0  0  0  0  0  0  0  0  0  0  0  0
   10.0006   -1.2638   23.8895 C   0  0  0  0  0  0  0  0  0  0  0  0
    8.7046   -1.4887   23.4317 C   0  0  0  0  0  0  0  0  0  0  0  0
    8.4778   -2.3244   22.3399 C   0  0  0  0  0  0  0  0  0  0  0  0
    7.1451   -2.6734   21.9438 N   0  0  0  0  0  0  0  0  0  0  0  0
    6.6124   -3.9839   22.2918 C   0  0  0  0  0  0  0  0  0  0  0  0
    6.0998   -4.0613   23.7119 C   0  0  0  0  0  0  0  0  0  0  0  0
    4.7363   -3.9631   23.9754 C   0  0  0  0  0  0  0  0  0  0  0  0
    4.2703   -3.9452   25.2841 C   0  0  0  0  0  0  0  0  0  0  0  0
    5.1520   -4.1206   26.3421 C   0  0  0  0  0  0  0  0  0  0  0  0
    6.5043   -4.2738   26.0703 C   0  0  0  0  0  0  0  0  0  0  0  0
    7.6033   -4.6246   27.3730 Cl  0  0  0  0  0  0  0  0  0  0  0  0
    6.9904   -4.2089   24.7710 C   0  0  0  0  0  0  0  0  0  0  0  0
    8.0558   -4.3264   24.5911 H   0  0  0  0  0  0  0  0  0  0  0  0
    4.8016   -4.1567   27.3678 H   0  0  0  0  0  0  0  0  0  0  0  0
    3.2086   -3.8330   25.4822 H   0  0  0  0  0  0  0  0  0  0  0  0
    4.0361   -3.9277   23.1464 H   0  0  0  0  0  0  0  0  0  0  0  0
    5.7964   -4.1687   21.5929 H   0  0  0  0  0  0  0  0  0  0  0  0
    7.4000   -4.7220   22.1199 H   0  0  0  0  0  0  0  0  0  0  0  0
    6.2516   -1.7783   21.3984 C   0  0  0  0  0  0  0  0  0  0  0  0
    5.0576   -2.0202   21.2934 O   0  0  0  0  0  0  0  0  0  0  0  0
    6.8856   -0.4996   20.8801 C   0  0  0  0  0  0  0  0  0  0  0  0
    6.1123    0.1111   19.7620 C   0  0  0  0  0  0  0  0  0  0  0  0
    6.4499   -0.1712   18.4662 C   0  0  0  0  0  0  0  0  0  0  0  0
    5.7989    0.3006   17.3751 N   0  0  0  0  0  0  0  0  0  0  0  0
    4.7489    1.0521   17.5896 C   0  0  0  0  0  0  0  0  0  0  0  0
    4.2837    1.4171   18.8776 C   0  0  0  0  0  0  0  0  0  0  0  0
    3.1666    2.2670   19.0538 C   0  0  0  0  0  0  0  0  0  0  0  0
    2.7499    2.6147   20.3085 C   0  0  0  0  0  0  0  0  0  0  0  0
    3.4295    2.1197   21.4446 C   0  0  0  0  0  0  0  0  0  0  0  0
    4.5114    1.2885   21.3015 C   0  0  0  0  0  0  0  0  0  0  0  0
    4.9772    0.9297   20.0079 C   0  0  0  0  0  0  0  0  0  0  0  0
    5.0143    0.8990   22.1826 H   0  0  0  0  0  0  0  0  0  0  0  0
    3.0987    2.4162   22.4372 H   0  0  0  0  0  0  0  0  0  0  0  0
    1.8995    3.2788   20.4392 H   0  0  0  0  0  0  0  0  0  0  0  0
    2.6654    2.6427   18.1653 H   0  0  0  0  0  0  0  0  0  0  0  0
    4.2054    1.4174   16.7164 H   0  0  0  0  0  0  0  0  0  0  0  0
    7.2955   -0.8261   18.2471 H   0  0  0  0  0  0  0  0  0  0  0  0
    7.0202    0.1834   21.7302 H   0  0  0  0  0  0  0  0  0  0  0  0
    7.8875   -0.7795   20.5409 H   0  0  0  0  0  0  0  0  0  0  0  0
    9.5785   -2.8570   21.6770 C   0  0  0  0  0  0  0  0  0  0  0  0
   10.8605   -2.6649   22.1562 C   0  0  0  0  0  0  0  0  0  0  0  0
   11.6832   -3.1595   21.6555 H   0  0  0  0  0  0  0  0  0  0  0  0
    9.4476   -3.4509   20.7872 H   0  0  0  0  0  0  0  0  0  0  0  0
    7.8608   -1.0471   23.9579 H   0  0  0  0  0  0  0  0  0  0  0  0
   10.1413   -0.6273   24.7621 H   0  0  0  0  0  0  0  0  0  0  0  0
   13.0543   -2.6315   23.7063 H   0  0  0  0  0  0  0  0  0  0  0  0
   12.5572   -1.3437   24.7951 H   0  0  0  0  0  0  0  0  0  0  0  0
  1  2  3  0
  2  3  1  0
  3  4  1  0
  4  5  2  0
  5  6  1  0
  6  7  2  0
  7  8  1  0
  8  9  1  0
  9 10  1  0
 10 11  2  0
 11 12  1  0
 12 13  2  0
 13 14  1  0
 14 15  1  0
 14 16  2  0
 16 17  1  0
 13 18  1  0
 12 19  1  0
 11 20  1  0
  9 21  1  0
  9 22  1  0
  8 23  1  0
 23 24  2  0
 23 25  1  0
 25 26  1  0
 26 27  2  0
 27 28  1  0
 28 29  2  0
 29 30  1  0
 30 31  2  0
 31 32  1  0
 32 33  2  0
 33 34  1  0
 34 35  2  0
 34 36  1  0
 33 37  1  0
 32 38  1  0
 31 39  1  0
 29 40  1  0
 27 41  1  0
 25 42  1  0
 25 43  1  0
  7 44  1  0
 44 45  2  0
 45 46  1  0
 44 47  1  0
  6 48  1  0
  5 49  1  0
  3 50  1  0
  3 51  1  0
 45  4  1  0
 16 10  1  0
 35 26  1  0
 35 30  1  0
M  END
>  <cnnaffinities>  (33) 
[6.93793]

>  <score>  (33) 
6.93793

>  <index>  (33) 
35

>  <Smiles>  (33) 
N#CC(c1c(c(c(N(C(c2c(c(c(c(Cl)c2[H])[H])[H])[H])([H])[H])C(=O)C(c2c(nc(c3c(c(c(c(c23)[H])[H])[H])[H])[H])[H])([H])[H])c(c1[H])[H])[H])[H])([H])[H]

>  <h>  (33) 
<NA>

>  <Training>  (33) 
True

>  <Success>  (33) 
True

>  <enamine_searched>  (33) 
False

>  <enamine_id>  (33) 
nan

$$$$

     RDKit          3D

 59 64  0  0  0  0  0  0  0  0999 V2000
    7.6173   -2.9247   23.5297 C   0  0  0  0  0  0  0  0  0  0  0  0
    7.8828   -1.9323   22.4010 C   0  0  1  0  0  0  0  0  0  0  0  0
    6.7167   -1.7054   21.4253 C   0  0  0  0  0  0  0  0  0  0  0  0
    6.9859   -0.3766   20.9119 N   0  0  0  0  0  0  0  0  0  0  0  0
    6.2378    0.1768   19.8478 C   0  0  0  0  0  0  0  0  0  0  0  0
    6.5794   -0.1393   18.5602 C   0  0  0  0  0  0  0  0  0  0  0  0
    5.9096    0.2935   17.4668 N   0  0  0  0  0  0  0  0  0  0  0  0
    4.8506    1.0399   17.6557 C   0  0  0  0  0  0  0  0  0  0  0  0
    4.3805    1.4378   18.9381 C   0  0  0  0  0  0  0  0  0  0  0  0
    3.2313    2.2547   19.0930 C   0  0  0  0  0  0  0  0  0  0  0  0
    2.7805    2.5908   20.3393 C   0  0  0  0  0  0  0  0  0  0  0  0
    3.4572    2.1235   21.4888 C   0  0  0  0  0  0  0  0  0  0  0  0
    4.5798    1.3429   21.3643 C   0  0  0  0  0  0  0  0  0  0  0  0
    5.0799    0.9891   20.0800 C   0  0  0  0  0  0  0  0  0  0  0  0
    5.0823    0.9764   22.2546 H   0  0  0  0  0  0  0  0  0  0  0  0
    3.0851    2.3849   22.4752 H   0  0  0  0  0  0  0  0  0  0  0  0
    1.9012    3.2191   20.4542 H   0  0  0  0  0  0  0  0  0  0  0  0
    2.7278    2.6055   18.1967 H   0  0  0  0  0  0  0  0  0  0  0  0
    4.2948    1.3627   16.7732 H   0  0  0  0  0  0  0  0  0  0  0  0
    7.4432   -0.7765   18.3703 H   0  0  0  0  0  0  0  0  0  0  0  0
    7.9718    0.3184   21.5881 C   0  0  0  0  0  0  0  0  0  0  0  0
    8.4105    1.3948   21.2492 O   0  0  0  0  0  0  0  0  0  0  0  0
    8.3242   -0.5172   22.8515 C   0  0  1  0  0  0  0  0  0  0  0  0
    7.4616    0.0227   24.0233 C   0  0  0  0  0  0  0  0  0  0  0  0
    7.8113    1.3970   24.3363 N   0  0  0  0  0  0  0  0  0  0  0  0
    6.8070    2.3541   24.7968 C   0  0  0  0  0  0  0  0  0  0  0  0
    6.3955    2.2008   26.2416 C   0  0  0  0  0  0  0  0  0  0  0  0
    5.5148    1.2741   26.8515 C   0  0  0  0  0  0  0  0  0  0  0  0
    5.5302    1.6135   28.1860 C   0  0  0  0  0  0  0  0  0  0  0  0
    6.3616    2.6717   28.3178 N   0  0  0  0  0  0  0  0  0  0  0  0
    6.7198    3.3892   29.5280 C   0  0  0  0  0  0  0  0  0  0  0  0
    7.6027    2.9512   30.0057 H   0  0  0  0  0  0  0  0  0  0  0  0
    5.8842    3.3569   30.2326 H   0  0  0  0  0  0  0  0  0  0  0  0
    6.9347    4.4254   29.2545 H   0  0  0  0  0  0  0  0  0  0  0  0
    6.8989    3.0325   27.1452 N   0  0  0  0  0  0  0  0  0  0  0  0
    5.0056    1.2065   29.0416 H   0  0  0  0  0  0  0  0  0  0  0  0
    4.9454    0.4768   26.3852 H   0  0  0  0  0  0  0  0  0  0  0  0
    7.2750    3.3383   24.6900 H   0  0  0  0  0  0  0  0  0  0  0  0
    5.9256    2.3129   24.1354 H   0  0  0  0  0  0  0  0  0  0  0  0
    9.1356    1.7454   24.4438 C   0  0  0  0  0  0  0  0  0  0  0  0
    9.4899    2.8749   24.7469 O   0  0  0  0  0  0  0  0  0  0  0  0
   10.1243    0.6462   24.1566 C   0  0  0  0  0  0  0  0  0  0  0  0
   11.4124    0.7509   24.6780 C   0  0  0  0  0  0  0  0  0  0  0  0
   12.4091   -0.1428   24.3410 C   0  0  0  0  0  0  0  0  0  0  0  0
   12.0592   -1.1563   23.4597 C   0  0  0  0  0  0  0  0  0  0  0  0
   13.0310   -2.0005   23.0703 F   0  0  0  0  0  0  0  0  0  0  0  0
   10.7818   -1.3284   22.9642 C   0  0  0  0  0  0  0  0  0  0  0  0
    9.7648   -0.4258   23.3239 C   0  0  0  0  0  0  0  0  0  0  0  0
   10.6346   -2.1705   22.2974 H   0  0  0  0  0  0  0  0  0  0  0  0
   13.4285   -0.0523   24.7032 H   0  0  0  0  0  0  0  0  0  0  0  0
   11.6190    1.5620   25.3535 H   0  0  0  0  0  0  0  0  0  0  0  0
    7.6411   -0.6037   24.9058 H   0  0  0  0  0  0  0  0  0  0  0  0
    6.4027   -0.0592   23.7605 H   0  0  0  0  0  0  0  0  0  0  0  0
    6.7162   -2.4264   20.6006 H   0  0  0  0  0  0  0  0  0  0  0  0
    5.7328   -1.7633   21.9192 H   0  0  0  0  0  0  0  0  0  0  0  0
    8.7059   -2.3179   21.7890 H   0  0  0  0  0  0  0  0  0  0  0  0
    8.4727   -2.9522   24.2184 H   0  0  0  0  0  0  0  0  0  0  0  0
    6.7281   -2.6502   24.1117 H   0  0  0  0  0  0  0  0  0  0  0  0
    7.4604   -3.9332   23.1325 H   0  0  0  0  0  0  0  0  0  0  0  0
  1  2  1  0
  2  3  1  0
  3  4  1  0
  4  5  1  0
  5  6  2  0
  6  7  1  0
  7  8  2  0
  8  9  1  0
  9 10  2  0
 10 11  1  0
 11 12  2  0
 12 13  1  0
 13 14  2  0
 13 15  1  0
 12 16  1  0
 11 17  1  0
 10 18  1  0
  8 19  1  0
  6 20  1  0
  4 21  1  0
 21 22  2  0
 21 23  1  0
 23 24  1  1
 24 25  1  0
 25 26  1  0
 26 27  1  0
 27 28  1  0
 28 29  2  0
 29 30  1  0
 30 31  1  0
 31 32  1  0
 31 33  1  0
 31 34  1  0
 30 35  1  0
 29 36  1  0
 28 37  1  0
 26 38  1  0
 26 39  1  0
 25 40  1  0
 40 41  2  0
 40 42  1  0
 42 43  2  0
 43 44  1  0
 44 45  2  0
 45 46  1  0
 45 47  1  0
 47 48  2  0
 47 49  1  0
 44 50  1  0
 43 51  1  0
 24 52  1  0
 24 53  1  0
  3 54  1  0
  3 55  1  0
  2 56  1  6
  1 57  1  0
  1 58  1  0
  1 59  1  0
 23  2  1  0
 35 27  2  0
 48 42  1  0
 14  5  1  0
 48 23  1  0
 14  9  1  0
M  END
>  <cnnaffinities>  (34) 
[6.95724]

>  <score>  (34) 
6.95724

>  <index>  (34) 
36

>  <Smiles>  (34) 
C([C@]1(C(N(c2c(nc(c3c(c(c(c(c23)[H])[H])[H])[H])[H])[H])C(=O)[C@]21C(N(C(c1c(c(n(C([H])([H])[H])n1)[H])[H])([H])[H])C(=O)c1c(c(c(F)c(c21)[H])[H])[H])([H])[H])([H])[H])[H])([H])([H])[H]

>  <h>  (34) 
<NA>

>  <Training>  (34) 
True

>  <Success>  (34) 
True

>  <enamine_searched>  (34) 
False

>  <enamine_id>  (34) 
nan

$$$$

     RDKit          3D

 48 51  0  0  0  0  0  0  0  0999 V2000
   13.4113   -1.3689   24.3237 N   0  0  0  0  0  0  0  0  0  0  0  0
   12.3291   -1.5908   23.9779 C   0  0  0  0  0  0  0  0  0  0  0  0
   11.0006   -1.8253   23.4831 C   0  0  0  0  0  0  0  0  0  0  0  0
    9.9078   -1.1433   24.0255 C   0  0  0  0  0  0  0  0  0  0  0  0
    8.6354   -1.3983   23.5328 C   0  0  0  0  0  0  0  0  0  0  0  0
    8.4435   -2.3020   22.4874 C   0  0  0  0  0  0  0  0  0  0  0  0
    7.1298   -2.6701   22.0618 N   0  0  0  0  0  0  0  0  0  0  0  0
    6.5849   -3.9807   22.4394 C   0  0  0  0  0  0  0  0  0  0  0  0
    6.0311   -4.0090   23.8548 C   0  0  0  0  0  0  0  0  0  0  0  0
    6.8699   -4.1707   24.9581 C   0  0  0  0  0  0  0  0  0  0  0  0
    6.3467   -4.1364   26.2498 C   0  0  0  0  0  0  0  0  0  0  0  0
    4.9885   -3.8973   26.4501 C   0  0  0  0  0  0  0  0  0  0  0  0
    4.1553   -3.7511   25.3447 C   0  0  0  0  0  0  0  0  0  0  0  0
    2.4639   -3.4099   25.6188 Cl  0  0  0  0  0  0  0  0  0  0  0  0
    4.6580   -3.8504   24.0500 C   0  0  0  0  0  0  0  0  0  0  0  0
    4.0091   -3.8324   23.1764 H   0  0  0  0  0  0  0  0  0  0  0  0
    4.5687   -3.8398   27.4530 H   0  0  0  0  0  0  0  0  0  0  0  0
    7.0014   -4.3023   27.1056 H   0  0  0  0  0  0  0  0  0  0  0  0
    7.9301   -4.3740   24.8012 H   0  0  0  0  0  0  0  0  0  0  0  0
    7.3759   -4.7338   22.3176 H   0  0  0  0  0  0  0  0  0  0  0  0
    5.7770   -4.1886   21.7324 H   0  0  0  0  0  0  0  0  0  0  0  0
    6.2680   -1.7804   21.4592 C   0  0  0  0  0  0  0  0  0  0  0  0
    5.0760   -2.0107   21.3564 O   0  0  0  0  0  0  0  0  0  0  0  0
    6.9149   -0.5149   20.8885 C   0  0  0  0  0  0  0  0  0  0  0  0
    6.1149    0.0896   19.7692 C   0  0  0  0  0  0  0  0  0  0  0  0
    6.4383   -0.1934   18.4690 C   0  0  0  0  0  0  0  0  0  0  0  0
    5.7843    0.2820   17.3797 N   0  0  0  0  0  0  0  0  0  0  0  0
    4.7420    1.0431   17.5923 C   0  0  0  0  0  0  0  0  0  0  0  0
    4.2826    1.4171   18.8804 C   0  0  0  0  0  0  0  0  0  0  0  0
    3.1623    2.2679   19.0512 C   0  0  0  0  0  0  0  0  0  0  0  0
    2.7460    2.6192   20.3054 C   0  0  0  0  0  0  0  0  0  0  0  0
    3.4322    2.1273   21.4401 C   0  0  0  0  0  0  0  0  0  0  0  0
    4.5175    1.2968   21.2981 C   0  0  0  0  0  0  0  0  0  0  0  0
    4.9801    0.9237   20.0078 C   0  0  0  0  0  0  0  0  0  0  0  0
    5.0274    0.9112   22.1763 H   0  0  0  0  0  0  0  0  0  0  0  0
    3.0962    2.4164   22.4322 H   0  0  0  0  0  0  0  0  0  0  0  0
    1.8916    3.2791   20.4327 H   0  0  0  0  0  0  0  0  0  0  0  0
    2.6636    2.6402   18.1586 H   0  0  0  0  0  0  0  0  0  0  0  0
    4.2031    1.3999   16.7143 H   0  0  0  0  0  0  0  0  0  0  0  0
    7.2788   -0.8506   18.2403 H   0  0  0  0  0  0  0  0  0  0  0  0
    7.9205   -0.7944   20.5498 H   0  0  0  0  0  0  0  0  0  0  0  0
    7.0730    0.1986   21.7107 H   0  0  0  0  0  0  0  0  0  0  0  0
    9.5495   -2.9023   21.8883 C   0  0  0  0  0  0  0  0  0  0  0  0
   10.8234   -2.6992   22.4056 C   0  0  0  0  0  0  0  0  0  0  0  0
   11.6672   -3.2751   22.0291 H   0  0  0  0  0  0  0  0  0  0  0  0
    9.3983   -3.5095   20.9997 H   0  0  0  0  0  0  0  0  0  0  0  0
    7.7829   -0.8904   23.9714 H   0  0  0  0  0  0  0  0  0  0  0  0
   10.0680   -0.3738   24.7766 H   0  0  0  0  0  0  0  0  0  0  0  0
  1  2  3  0
  2  3  1  0
  3  4  2  0
  4  5  1  0
  5  6  2  0
  6  7  1  0
  7  8  1  0
  8  9  1  0
  9 10  2  0
 10 11  1  0
 11 12  2  0
 12 13  1  0
 13 14  1  0
 13 15  2  0
 15 16  1  0
 12 17  1  0
 11 18  1  0
 10 19  1  0
  8 20  1  0
  8 21  1  0
  7 22  1  0
 22 23  2  0
 22 24  1  0
 24 25  1  0
 25 26  2  0
 26 27  1  0
 27 28  2  0
 28 29  1  0
 29 30  2  0
 30 31  1  0
 31 32  2  0
 32 33  1  0
 33 34  2  0
 33 35  1  0
 32 36  1  0
 31 37  1  0
 30 38  1  0
 28 39  1  0
 26 40  1  0
 24 41  1  0
 24 42  1  0
  6 43  1  0
 43 44  2  0
 44 45  1  0
 43 46  1  0
  5 47  1  0
  4 48  1  0
 44  3  1  0
 15  9  1  0
 34 25  1  0
 34 29  1  0
M  END
>  <cnnaffinities>  (35) 
[6.52201]

>  <score>  (35) 
6.52201

>  <index>  (35) 
37

>  <Smiles>  (35) 
N#Cc1c(c(c(N(C(c2c(c(c(c(Cl)c2[H])[H])[H])[H])([H])[H])C(=O)C(c2c(nc(c3c(c(c(c(c23)[H])[H])[H])[H])[H])[H])([H])[H])c(c1[H])[H])[H])[H]

>  <h>  (35) 
<NA>

>  <Training>  (35) 
True

>  <Success>  (35) 
True

>  <enamine_searched>  (35) 
False

>  <enamine_id>  (35) 
nan

$$$$

     RDKit          3D

 72 77  0  0  0  0  0  0  0  0999 V2000
    5.4288    5.0926   25.3440 C   0  0  0  0  0  0  0  0  0  0  0  0
    5.2477    4.2507   24.1452 N   0  0  0  0  0  4  0  0  0  0  0  0
    6.4264    3.3885   23.8417 C   0  0  0  0  0  0  0  0  0  0  0  0
    6.6689    2.3081   24.9014 C   0  0  0  0  0  0  0  0  0  0  0  0
    7.6769    1.3695   24.4478 N   0  0  0  0  0  0  0  0  0  0  0  0
    7.3042    0.0266   24.0782 C   0  0  0  0  0  0  0  0  0  0  0  0
    8.1621   -0.5308   22.9043 C   0  0  2  0  0  0  0  0  0  0  0  0
    7.8357    0.2730   21.6223 C   0  0  0  0  0  0  0  0  0  0  0  0
    8.2314    1.3744   21.3179 O   0  0  0  0  0  0  0  0  0  0  0  0
    6.9507   -0.4691   20.8648 N   0  0  0  0  0  0  0  0  0  0  0  0
    6.2041    0.1242   19.8104 C   0  0  0  0  0  0  0  0  0  0  0  0
    6.5528   -0.1314   18.5101 C   0  0  0  0  0  0  0  0  0  0  0  0
    5.8949    0.3519   17.4283 N   0  0  0  0  0  0  0  0  0  0  0  0
    4.8411    1.0991   17.6382 C   0  0  0  0  0  0  0  0  0  0  0  0
    4.3732    1.4605   18.9316 C   0  0  0  0  0  0  0  0  0  0  0  0
    3.2385    2.2987   19.1008 C   0  0  0  0  0  0  0  0  0  0  0  0
    2.8029    2.6335   20.3530 C   0  0  0  0  0  0  0  0  0  0  0  0
    3.4819    2.1420   21.4897 C   0  0  0  0  0  0  0  0  0  0  0  0
    4.5805    1.3276   21.3490 C   0  0  0  0  0  0  0  0  0  0  0  0
    5.0677    0.9656   20.0606 C   0  0  0  0  0  0  0  0  0  0  0  0
    5.0830    0.9571   22.2359 H   0  0  0  0  0  0  0  0  0  0  0  0
    3.1237    2.4019   22.4821 H   0  0  0  0  0  0  0  0  0  0  0  0
    1.9369    3.2775   20.4761 H   0  0  0  0  0  0  0  0  0  0  0  0
    2.7323    2.6687   18.2123 H   0  0  0  0  0  0  0  0  0  0  0  0
    4.2997    1.4621   16.7623 H   0  0  0  0  0  0  0  0  0  0  0  0
    7.4181   -0.7551   18.2942 H   0  0  0  0  0  0  0  0  0  0  0  0
    6.6201   -1.7689   21.4271 C   0  0  0  0  0  0  0  0  0  0  0  0
    7.6807   -1.9622   22.5306 C   0  0  2  0  0  0  0  0  0  0  0  0
    7.1823   -2.7485   23.7501 C   0  0  0  0  0  0  0  0  0  0  0  0
    6.8084   -4.0898   23.5002 O   0  0  0  0  0  0  0  0  0  0  0  0
    7.8786   -4.9043   23.2577 C   0  0  0  0  0  0  0  0  0  0  0  0
    7.8828   -7.5103   22.0442 C   0  0  0  0  0  0  0  0  0  0  0  0
    7.8873   -7.4103   22.2611 C   0  0  0  0  0  0  0  0  0  0  0  0
    6.0278   -6.3446   20.3884 S   0  0  0  0  0  0  0  0  0  0  0  0
    5.3790   -5.0571   20.2257 O   0  0  0  0  0  0  0  0  0  0  0  0
    5.9765   -7.3933   19.3886 O   0  0  0  0  0  0  0  0  0  0  0  0
    7.6031   -6.1630   21.1552 C   0  0  0  0  0  0  0  0  0  0  0  0
    7.5164   -5.0453   21.6413 H   0  0  0  0  0  0  0  0  0  0  0  0
    8.3611   -6.0064   20.3445 H   0  0  0  0  0  0  0  0  0  0  0  0
    8.1099   -8.5878   22.7909 H   0  0  0  0  0  0  0  0  0  0  0  0
    6.6211   -7.6099   22.3915 H   0  0  0  0  0  0  0  0  0  0  0  0
    9.1452   -7.2007   22.1600 H   0  0  0  0  0  0  0  0  0  0  0  0
    8.8553   -4.4155   23.3597 H   0  0  0  0  0  0  0  0  0  0  0  0
    7.8464   -5.9474   23.5758 H   0  0  0  0  0  0  0  0  0  0  0  0
    6.2783   -2.2841   24.1463 H   0  0  0  0  0  0  0  0  0  0  0  0
    7.9533   -2.7400   24.5362 H   0  0  0  0  0  0  0  0  0  0  0  0
    8.5207   -2.4985   22.0793 H   0  0  0  0  0  0  0  0  0  0  0  0
    5.6017   -1.7745   21.8427 H   0  0  0  0  0  0  0  0  0  0  0  0
    6.6549   -2.5402   20.6505 H   0  0  0  0  0  0  0  0  0  0  0  0
    9.6152   -0.3875   23.3286 C   0  0  0  0  0  0  0  0  0  0  0  0
   10.6399   -1.2243   22.8640 C   0  0  0  0  0  0  0  0  0  0  0  0
   11.9398   -1.0409   23.3113 C   0  0  0  0  0  0  0  0  0  0  0  0
   13.2056   -2.0654   22.6902 Cl  0  0  0  0  0  0  0  0  0  0  0  0
   12.2741   -0.0439   24.2271 C   0  0  0  0  0  0  0  0  0  0  0  0
   11.2772    0.8146   24.6443 C   0  0  0  0  0  0  0  0  0  0  0  0
    9.9738    0.6715   24.1791 C   0  0  0  0  0  0  0  0  0  0  0  0
    8.9817    1.7295   24.5592 C   0  0  0  0  0  0  0  0  0  0  0  0
    9.3202    2.8388   24.9536 O   0  0  0  0  0  0  0  0  0  0  0  0
   11.4759    1.6353   25.3172 H   0  0  0  0  0  0  0  0  0  0  0  0
   13.2996    0.0728   24.5614 H   0  0  0  0  0  0  0  0  0  0  0  0
   10.4499   -2.0031   22.1335 H   0  0  0  0  0  0  0  0  0  0  0  0
    7.4312   -0.6316   24.9466 H   0  0  0  0  0  0  0  0  0  0  0  0
    6.2457    0.0311   23.7944 H   0  0  0  0  0  0  0  0  0  0  0  0
    7.0152    2.7454   25.8436 H   0  0  0  0  0  0  0  0  0  0  0  0
    5.7538    1.7376   25.1094 H   0  0  0  0  0  0  0  0  0  0  0  0
    6.2471    2.9319   22.8700 H   0  0  0  0  0  0  0  0  0  0  0  0
    7.3173    4.0114   23.7625 H   0  0  0  0  0  0  0  0  0  0  0  0
    4.4274    3.6157   24.3048 H   0  0  0  0  0  0  0  0  0  0  0  0
    5.0432    4.8693   23.3340 H   0  0  0  0  0  0  0  0  0  0  0  0
    5.3794    4.4980   26.2567 H   0  0  0  0  0  0  0  0  0  0  0  0
    6.4082    5.5756   25.3183 H   0  0  0  0  0  0  0  0  0  0  0  0
    4.6581    5.8591   25.3843 H   0  0  0  0  0  0  0  0  0  0  0  0
  1  2  1  0
  2  3  1  0
  3  4  1  0
  4  5  1  0
  5  6  1  0
  7  6  1  1
  7  8  1  0
  8  9  2  0
  8 10  1  0
 10 11  1  0
 11 12  2  0
 12 13  1  0
 13 14  2  0
 14 15  1  0
 15 16  2  0
 16 17  1  0
 17 18  2  0
 18 19  1  0
 19 20  2  0
 19 21  1  0
 18 22  1  0
 17 23  1  0
 16 24  1  0
 14 25  1  0
 12 26  1  0
 10 27  1  0
 27 28  1  0
 28 29  1  0
 29 30  1  0
 30 31  1  0
 31 32  1  0
 32 33  1  0
 33 34  1  0
 34 35  2  0
 34 36  2  0
 34 37  1  0
 37 38  1  0
 37 39  1  0
 33 40  1  0
 33 41  1  0
 32 42  1  0
 31 43  1  0
 31 44  1  0
 29 45  1  0
 29 46  1  0
 28 47  1  6
 27 48  1  0
 27 49  1  0
  7 50  1  0
 50 51  2  0
 51 52  1  0
 52 53  1  0
 52 54  2  0
 54 55  1  0
 55 56  2  0
 56 57  1  0
 57 58  2  0
 55 59  1  0
 54 60  1  0
 51 61  1  0
  6 62  1  0
  6 63  1  0
  4 64  1  0
  4 65  1  0
  3 66  1  0
  3 67  1  0
  2 68  1  0
  2 69  1  0
  1 70  1  0
  1 71  1  0
  1 72  1  0
 57  5  1  0
 28  7  1  0
 37 32  1  0
 56 50  1  0
 20 11  1  0
 20 15  1  0
M  CHG  1   2   1
M  END
>  <cnnaffinities>  (36) 
[7.51993]

>  <score>  (36) 
7.51993

>  <index>  (36) 
38

>  <Smiles>  (36) 
C([N+](C(C(N1C([C@@]2(C(=O)N(c3c(nc(c4c(c(c(c(c34)[H])[H])[H])[H])[H])[H])C([C@@]2(C(OC(C2(C(S(=O)(=O)C2([H])[H])([H])[H])[H])([H])[H])([H])[H])[H])([H])[H])c2c(c(Cl)c(c(c2C1=O)[H])[H])[H])([H])[H])([H])[H])([H])[H])([H])[H])([H])([H])[H]

>  <h>  (36) 
<NA>

>  <Training>  (36) 
True

>  <Success>  (36) 
True

>  <enamine_searched>  (36) 
False

>  <enamine_id>  (36) 
nan

$$$$

     RDKit          3D

 60 64  0  0  0  0  0  0  0  0999 V2000
    8.1162   -4.5728   24.1893 C   0  0  0  0  0  0  0  0  0  0  0  0
    8.1100   -3.1026   24.5559 C   0  0  0  0  0  0  0  0  0  0  0  0
    7.1362   -2.4206   23.7820 O   0  0  0  0  0  0  0  0  0  0  0  0
    7.6177   -1.8710   22.5830 C   0  0  1  0  0  0  0  0  0  0  0  0
    6.4353   -1.4714   21.6974 C   0  0  0  0  0  0  0  0  0  0  0  0
    6.9718   -0.3507   20.9501 N   0  0  0  0  0  0  0  0  0  0  0  0
    6.2660    0.2191   19.8616 C   0  0  0  0  0  0  0  0  0  0  0  0
    6.6720   -0.0307   18.5748 C   0  0  0  0  0  0  0  0  0  0  0  0
    5.9927    0.3800   17.4787 N   0  0  0  0  0  0  0  0  0  0  0  0
    4.8850    1.0597   17.6603 C   0  0  0  0  0  0  0  0  0  0  0  0
    4.3728    1.4307   18.9371 C   0  0  0  0  0  0  0  0  0  0  0  0
    3.2112    2.2352   19.0981 C   0  0  0  0  0  0  0  0  0  0  0  0
    2.7820    2.5984   20.3474 C   0  0  0  0  0  0  0  0  0  0  0  0
    3.4875    2.1731   21.4925 C   0  0  0  0  0  0  0  0  0  0  0  0
    4.6091    1.3876   21.3602 C   0  0  0  0  0  0  0  0  0  0  0  0
    5.0818    0.9942   20.0795 C   0  0  0  0  0  0  0  0  0  0  0  0
    5.1817    1.1294   22.2440 H   0  0  0  0  0  0  0  0  0  0  0  0
    3.1735    2.4866   22.4830 H   0  0  0  0  0  0  0  0  0  0  0  0
    1.9069    3.2312   20.4624 H   0  0  0  0  0  0  0  0  0  0  0  0
    2.6881    2.5752   18.2097 H   0  0  0  0  0  0  0  0  0  0  0  0
    4.3397    1.3621   16.7667 H   0  0  0  0  0  0  0  0  0  0  0  0
    7.5759   -0.6101   18.3942 H   0  0  0  0  0  0  0  0  0  0  0  0
    8.1614    0.1573   21.4378 C   0  0  0  0  0  0  0  0  0  0  0  0
    8.7881    1.0583   20.9209 O   0  0  0  0  0  0  0  0  0  0  0  0
    8.4680   -0.5841   22.7677 C   0  0  1  0  0  0  0  0  0  0  0  0
    7.8737    0.2516   23.9462 C   0  0  0  0  0  0  0  0  0  0  0  0
    8.7077    1.3932   24.2831 N   0  0  0  0  0  0  0  0  0  0  0  0
    8.0783    2.6477   24.6675 C   0  0  0  0  0  0  0  0  0  0  0  0
    7.0206    3.1187   23.6757 C   0  0  0  0  0  0  0  0  0  0  0  0
    5.8243    2.9595   23.8867 O   0  0  0  0  0  0  0  0  0  0  0  0
    7.4969    3.7399   22.5655 N   0  0  0  0  0  0  0  0  0  0  0  0
    6.5670    4.2826   21.5881 C   0  0  0  0  0  0  0  0  0  0  0  0
    6.1525    3.4936   20.9424 H   0  0  0  0  0  0  0  0  0  0  0  0
    7.0639    5.0360   20.9700 H   0  0  0  0  0  0  0  0  0  0  0  0
    5.7405    4.7589   22.1257 H   0  0  0  0  0  0  0  0  0  0  0  0
    8.4610    3.5867   22.2987 H   0  0  0  0  0  0  0  0  0  0  0  0
    7.5972    2.5862   25.6505 H   0  0  0  0  0  0  0  0  0  0  0  0
    8.8781    3.3872   24.7309 H   0  0  0  0  0  0  0  0  0  0  0  0
   10.0525    1.2334   24.4763 C   0  0  0  0  0  0  0  0  0  0  0  0
   10.7741    2.0901   24.9683 O   0  0  0  0  0  0  0  0  0  0  0  0
   10.6256   -0.0603   23.9826 C   0  0  0  0  0  0  0  0  0  0  0  0
   11.9463   -0.3315   24.3390 C   0  0  0  0  0  0  0  0  0  0  0  0
   12.6588   -1.3240   23.6976 C   0  0  0  0  0  0  0  0  0  0  0  0
   12.0286   -2.0128   22.6618 C   0  0  0  0  0  0  0  0  0  0  0  0
   12.9907   -3.1221   21.7325 Cl  0  0  0  0  0  0  0  0  0  0  0  0
   10.6977   -1.7930   22.3272 C   0  0  0  0  0  0  0  0  0  0  0  0
    9.9446   -0.8339   23.0315 C   0  0  0  0  0  0  0  0  0  0  0  0
   10.2535   -2.3642   21.5185 H   0  0  0  0  0  0  0  0  0  0  0  0
   13.6976   -1.5277   23.9449 H   0  0  0  0  0  0  0  0  0  0  0  0
   12.4227    0.3067   25.0776 H   0  0  0  0  0  0  0  0  0  0  0  0
    7.7333   -0.3967   24.8208 H   0  0  0  0  0  0  0  0  0  0  0  0
    6.8941    0.6398   23.6521 H   0  0  0  0  0  0  0  0  0  0  0  0
    6.1333   -2.2733   21.0131 H   0  0  0  0  0  0  0  0  0  0  0  0
    5.5564   -1.2082   22.3070 H   0  0  0  0  0  0  0  0  0  0  0  0
    8.2286   -2.6092   22.0443 H   0  0  0  0  0  0  0  0  0  0  0  0
    7.8170   -2.9692   25.6047 H   0  0  0  0  0  0  0  0  0  0  0  0
    9.1090   -2.6589   24.4355 H   0  0  0  0  0  0  0  0  0  0  0  0
    8.4931   -4.7397   23.1768 H   0  0  0  0  0  0  0  0  0  0  0  0
    8.7327   -5.1444   24.8914 H   0  0  0  0  0  0  0  0  0  0  0  0
    7.0816   -4.9205   24.2188 H   0  0  0  0  0  0  0  0  0  0  0  0
  1  2  1  0
  2  3  1  0
  3  4  1  0
  4  5  1  0
  5  6  1  0
  6  7  1  0
  7  8  2  0
  8  9  1  0
  9 10  2  0
 10 11  1  0
 11 12  2  0
 12 13  1  0
 13 14  2  0
 14 15  1  0
 15 16  2  0
 15 17  1  0
 14 18  1  0
 13 19  1  0
 12 20  1  0
 10 21  1  0
  8 22  1  0
  6 23  1  0
 23 24  2  0
 23 25  1  0
 25 26  1  1
 26 27  1  0
 27 28  1  0
 28 29  1  0
 29 30  2  0
 29 31  1  0
 31 32  1  0
 32 33  1  0
 32 34  1  0
 32 35  1  0
 31 36  1  0
 28 37  1  0
 28 38  1  0
 27 39  1  0
 39 40  2  0
 39 41  1  0
 41 42  2  0
 42 43  1  0
 43 44  2  0
 44 45  1  0
 44 46  1  0
 46 47  2  0
 46 48  1  0
 43 49  1  0
 42 50  1  0
 26 51  1  0
 26 52  1  0
  5 53  1  0
  5 54  1  0
  4 55  1  6
  2 56  1  0
  2 57  1  0
  1 58  1  0
  1 59  1  0
  1 60  1  0
 25  4  1  0
 47 41  1  0
 16  7  1  0
 47 25  1  0
 16 11  1  0
M  END
>  <cnnaffinities>  (37) 
[7.13745]

>  <score>  (37) 
7.13745

>  <index>  (37) 
39

>  <Smiles>  (37) 
C(C(O[C@]1(C(N(c2c(nc(c3c(c(c(c(c23)[H])[H])[H])[H])[H])[H])C(=O)[C@]21C(N(C(C(=O)N(C([H])([H])[H])[H])([H])[H])C(=O)c1c(c(c(Cl)c(c21)[H])[H])[H])([H])[H])([H])[H])[H])([H])[H])([H])([H])[H]

>  <h>  (37) 
<NA>

>  <Training>  (37) 
True

>  <Success>  (37) 
True

>  <enamine_searched>  (37) 
False

>  <enamine_id>  (37) 
nan

$$$$

     RDKit          3D

 57 61  0  0  0  0  0  0  0  0999 V2000
    6.5649    4.3214   21.4827 C   0  0  0  0  0  0  0  0  0  0  0  0
    7.5202    3.8025   22.4436 N   0  0  0  0  0  0  0  0  0  0  0  0
    7.0744    3.2115   23.5819 C   0  0  0  0  0  0  0  0  0  0  0  0
    5.8826    3.0767   23.8321 O   0  0  0  0  0  0  0  0  0  0  0  0
    8.1625    2.7448   24.5514 C   0  0  0  0  0  0  0  0  0  0  0  0
    8.7450    1.4534   24.2148 N   0  0  0  0  0  0  0  0  0  0  0  0
    7.8707    0.3182   23.9552 C   0  0  0  0  0  0  0  0  0  0  0  0
    8.4198   -0.5851   22.8069 C   0  0  2  0  0  0  0  0  0  0  0  0
    8.1249    0.1297   21.4594 C   0  0  0  0  0  0  0  0  0  0  0  0
    8.7445    1.0409   20.9453 O   0  0  0  0  0  0  0  0  0  0  0  0
    6.9502   -0.3957   20.9488 N   0  0  0  0  0  0  0  0  0  0  0  0
    6.2518    0.1897   19.8600 C   0  0  0  0  0  0  0  0  0  0  0  0
    6.6556   -0.0490   18.5705 C   0  0  0  0  0  0  0  0  0  0  0  0
    5.9855    0.3779   17.4736 N   0  0  0  0  0  0  0  0  0  0  0  0
    4.8804    1.0582   17.6613 C   0  0  0  0  0  0  0  0  0  0  0  0
    4.3675    1.4212   18.9386 C   0  0  0  0  0  0  0  0  0  0  0  0
    3.2086    2.2300   19.0975 C   0  0  0  0  0  0  0  0  0  0  0  0
    2.7811    2.5957   20.3456 C   0  0  0  0  0  0  0  0  0  0  0  0
    3.4934    2.1772   21.4902 C   0  0  0  0  0  0  0  0  0  0  0  0
    4.6125    1.3893   21.3576 C   0  0  0  0  0  0  0  0  0  0  0  0
    5.0768    0.9789   20.0800 C   0  0  0  0  0  0  0  0  0  0  0  0
    5.1884    1.1351   22.2402 H   0  0  0  0  0  0  0  0  0  0  0  0
    3.1809    2.5000   22.4781 H   0  0  0  0  0  0  0  0  0  0  0  0
    1.9050    3.2276   20.4590 H   0  0  0  0  0  0  0  0  0  0  0  0
    2.6835    2.5675   18.2071 H   0  0  0  0  0  0  0  0  0  0  0  0
    4.3424    1.3730   16.7682 H   0  0  0  0  0  0  0  0  0  0  0  0
    7.5585   -0.6279   18.3932 H   0  0  0  0  0  0  0  0  0  0  0  0
    6.4029   -1.5020   21.7165 C   0  0  0  0  0  0  0  0  0  0  0  0
    7.5833   -1.8834   22.6206 C   0  0  2  0  0  0  0  0  0  0  0  0
    7.1955   -2.6513   23.8981 C   0  0  0  0  0  0  0  0  0  0  0  0
    6.0051   -2.1218   24.5723 C   0  0  0  0  0  0  0  0  0  0  0  0
    5.0567   -1.7022   25.0885 N   0  0  0  0  0  0  0  0  0  0  0  0
    8.0303   -2.6450   24.6059 H   0  0  0  0  0  0  0  0  0  0  0  0
    6.9837   -3.6955   23.6539 H   0  0  0  0  0  0  0  0  0  0  0  0
    8.2222   -2.5510   22.0358 H   0  0  0  0  0  0  0  0  0  0  0  0
    6.1098   -2.3258   21.0542 H   0  0  0  0  0  0  0  0  0  0  0  0
    5.5165   -1.2102   22.3008 H   0  0  0  0  0  0  0  0  0  0  0  0
    9.8981   -0.8372   23.0701 C   0  0  0  0  0  0  0  0  0  0  0  0
   10.6170   -1.8135   22.3615 C   0  0  0  0  0  0  0  0  0  0  0  0
   11.9631   -2.0113   22.6207 C   0  0  0  0  0  0  0  0  0  0  0  0
   12.8667   -3.1621   21.6810 Cl  0  0  0  0  0  0  0  0  0  0  0  0
   12.6347   -1.3097   23.6182 C   0  0  0  0  0  0  0  0  0  0  0  0
   11.9530   -0.3115   24.2735 C   0  0  0  0  0  0  0  0  0  0  0  0
   10.6160   -0.0553   23.9815 C   0  0  0  0  0  0  0  0  0  0  0  0
   10.0787    1.2568   24.4528 C   0  0  0  0  0  0  0  0  0  0  0  0
   10.8099    2.1015   24.9453 O   0  0  0  0  0  0  0  0  0  0  0  0
   12.4424    0.3346   24.9888 H   0  0  0  0  0  0  0  0  0  0  0  0
   13.6808   -1.5073   23.8155 H   0  0  0  0  0  0  0  0  0  0  0  0
   10.1504   -2.3843   21.5681 H   0  0  0  0  0  0  0  0  0  0  0  0
    7.7297   -0.2800   24.8668 H   0  0  0  0  0  0  0  0  0  0  0  0
    6.8987    0.7310   23.6732 H   0  0  0  0  0  0  0  0  0  0  0  0
    8.9876    3.4605   24.5434 H   0  0  0  0  0  0  0  0  0  0  0  0
    7.7157    2.7558   25.5543 H   0  0  0  0  0  0  0  0  0  0  0  0
    8.4774    3.6552   22.1550 H   0  0  0  0  0  0  0  0  0  0  0  0
    5.7508    4.8001   22.0309 H   0  0  0  0  0  0  0  0  0  0  0  0
    6.1434    3.5142   20.8701 H   0  0  0  0  0  0  0  0  0  0  0  0
    7.0399    5.0648   20.8401 H   0  0  0  0  0  0  0  0  0  0  0  0
  1  2  1  0
  2  3  1  0
  3  4  2  0
  3  5  1  0
  5  6  1  0
  6  7  1  0
  8  7  1  1
  8  9  1  0
  9 10  2  0
  9 11  1  0
 11 12  1  0
 12 13  2  0
 13 14  1  0
 14 15  2  0
 15 16  1  0
 16 17  2  0
 17 18  1  0
 18 19  2  0
 19 20  1  0
 20 21  2  0
 20 22  1  0
 19 23  1  0
 18 24  1  0
 17 25  1  0
 15 26  1  0
 13 27  1  0
 11 28  1  0
 28 29  1  0
 29 30  1  0
 30 31  1  0
 31 32  3  0
 30 33  1  0
 30 34  1  0
 29 35  1  6
 28 36  1  0
 28 37  1  0
  8 38  1  0
 38 39  2  0
 39 40  1  0
 40 41  1  0
 40 42  2  0
 42 43  1  0
 43 44  2  0
 44 45  1  0
 45 46  2  0
 43 47  1  0
 42 48  1  0
 39 49  1  0
  7 50  1  0
  7 51  1  0
  5 52  1  0
  5 53  1  0
  2 54  1  0
  1 55  1  0
  1 56  1  0
  1 57  1  0
 45  6  1  0
 29  8  1  0
 44 38  1  0
 21 12  1  0
 21 16  1  0
M  END
>  <cnnaffinities>  (38) 
[7.22656]

>  <score>  (38) 
7.22656

>  <index>  (38) 
40

>  <Smiles>  (38) 
C(N(C(=O)C(N1C([C@@]2(C(=O)N(c3c(nc(c4c(c(c(c(c34)[H])[H])[H])[H])[H])[H])C([C@@]2(C(C#N)([H])[H])[H])([H])[H])c2c(c(Cl)c(c(c2C1=O)[H])[H])[H])([H])[H])([H])[H])[H])([H])([H])[H]

>  <h>  (38) 
<NA>

>  <Training>  (38) 
True

>  <Success>  (38) 
True

>  <enamine_searched>  (38) 
False

>  <enamine_id>  (38) 
nan

$$$$

     RDKit          3D

 68 73  0  0  0  0  0  0  0  0999 V2000
    7.5136   -2.6446   23.7931 C   0  0  0  0  0  0  0  0  0  0  0  0
    7.7781   -1.7653   22.5755 C   0  0  1  0  0  0  0  0  0  0  0  0
    6.6051   -1.5359   21.6113 C   0  0  0  0  0  0  0  0  0  0  0  0
    6.9922   -0.3010   20.9471 N   0  0  0  0  0  0  0  0  0  0  0  0
    6.2458    0.2437   19.8778 C   0  0  0  0  0  0  0  0  0  0  0  0
    6.6120   -0.0683   18.5967 C   0  0  0  0  0  0  0  0  0  0  0  0
    5.9327    0.3294   17.4978 N   0  0  0  0  0  0  0  0  0  0  0  0
    4.8523    1.0513   17.6776 C   0  0  0  0  0  0  0  0  0  0  0  0
    4.3737    1.4689   18.9529 C   0  0  0  0  0  0  0  0  0  0  0  0
    3.2170    2.2822   19.0963 C   0  0  0  0  0  0  0  0  0  0  0  0
    2.7736    2.6561   20.3381 C   0  0  0  0  0  0  0  0  0  0  0  0
    3.4789    2.2514   21.4917 C   0  0  0  0  0  0  0  0  0  0  0  0
    4.6006    1.4617   21.3782 C   0  0  0  0  0  0  0  0  0  0  0  0
    5.0842    1.0522   20.1022 C   0  0  0  0  0  0  0  0  0  0  0  0
    5.1270    1.1545   22.2743 H   0  0  0  0  0  0  0  0  0  0  0  0
    3.1427    2.5906   22.4672 H   0  0  0  0  0  0  0  0  0  0  0  0
    1.8871    3.2779   20.4426 H   0  0  0  0  0  0  0  0  0  0  0  0
    2.6966    2.6050   18.2014 H   0  0  0  0  0  0  0  0  0  0  0  0
    4.2914    1.3417   16.7885 H   0  0  0  0  0  0  0  0  0  0  0  0
    7.4995   -0.6777   18.4273 H   0  0  0  0  0  0  0  0  0  0  0  0
    8.0704    0.3488   21.5196 C   0  0  0  0  0  0  0  0  0  0  0  0
    8.6702    1.2731   21.0140 O   0  0  0  0  0  0  0  0  0  0  0  0
    8.3005   -0.3386   22.8957 C   0  0  1  0  0  0  0  0  0  0  0  0
    7.4034    0.3752   23.9542 C   0  0  0  0  0  0  0  0  0  0  0  0
    7.8557    1.7324   24.2147 N   0  0  0  0  0  0  0  0  0  0  0  0
    6.9323    2.8431   24.3895 C   0  0  0  0  0  0  0  0  0  0  0  0
    6.8589    3.7124   23.1356 C   0  0  0  0  0  0  0  0  0  0  0  0
    5.7969    4.7476   23.1973 N   0  0  0  0  0  4  0  0  0  0  0  0
    6.1056    5.8576   24.1548 C   0  0  0  0  0  0  0  0  0  0  0  0
    4.8166    6.5435   24.6271 C   0  0  0  0  0  0  0  0  0  0  0  0
    3.5941    6.4810   23.3014 S   0  0  0  0  0  0  0  0  0  0  0  0
    3.0050    5.1302   23.3527 O   0  0  0  0  0  0  0  0  0  0  0  0
    2.7577    7.6740   23.3659 O   0  0  0  0  0  0  0  0  0  0  0  0
    4.6256    6.5272   21.8275 C   0  0  0  0  0  0  0  0  0  0  0  0
    5.5176    5.2743   21.8109 C   0  0  0  0  0  0  0  0  0  0  0  0
    5.0245    4.4699   21.2555 H   0  0  0  0  0  0  0  0  0  0  0  0
    6.4641    5.4992   21.3088 H   0  0  0  0  0  0  0  0  0  0  0  0
    3.9432    6.5412   20.9724 H   0  0  0  0  0  0  0  0  0  0  0  0
    5.2016    7.4587   21.8275 H   0  0  0  0  0  0  0  0  0  0  0  0
    4.3512    6.0124   25.4642 H   0  0  0  0  0  0  0  0  0  0  0  0
    4.9846    7.5838   24.9139 H   0  0  0  0  0  0  0  0  0  0  0  0
    6.6357    5.4521   25.0190 H   0  0  0  0  0  0  0  0  0  0  0  0
    6.7795    6.5740   23.6720 H   0  0  0  0  0  0  0  0  0  0  0  0
    4.8930    4.3273   23.4884 H   0  0  0  0  0  0  0  0  0  0  0  0
    6.6762    3.0867   22.2546 H   0  0  0  0  0  0  0  0  0  0  0  0
    7.8220    4.2128   22.9848 H   0  0  0  0  0  0  0  0  0  0  0  0
    5.9311    2.4730   24.6314 H   0  0  0  0  0  0  0  0  0  0  0  0
    7.2873    3.4306   25.2392 H   0  0  0  0  0  0  0  0  0  0  0  0
    9.1808    1.9789   24.4343 C   0  0  0  0  0  0  0  0  0  0  0  0
    9.6049    3.0833   24.7483 O   0  0  0  0  0  0  0  0  0  0  0  0
   10.0863    0.7861   24.2498 C   0  0  0  0  0  0  0  0  0  0  0  0
   11.3537    0.8302   24.8282 C   0  0  0  0  0  0  0  0  0  0  0  0
   12.3080   -0.1326   24.5602 C   0  0  0  0  0  0  0  0  0  0  0  0
   11.9624   -1.1638   23.6910 C   0  0  0  0  0  0  0  0  0  0  0  0
   13.1802   -2.3334   23.2690 Cl  0  0  0  0  0  0  0  0  0  0  0  0
   10.6876   -1.2722   23.1516 C   0  0  0  0  0  0  0  0  0  0  0  0
    9.7173   -0.2947   23.4333 C   0  0  0  0  0  0  0  0  0  0  0  0
   10.4532   -2.1123   22.5060 H   0  0  0  0  0  0  0  0  0  0  0  0
   13.3203   -0.0692   24.9559 H   0  0  0  0  0  0  0  0  0  0  0  0
   11.5667    1.6270   25.5153 H   0  0  0  0  0  0  0  0  0  0  0  0
    7.4526   -0.2042   24.8847 H   0  0  0  0  0  0  0  0  0  0  0  0
    6.3599    0.3805   23.6286 H   0  0  0  0  0  0  0  0  0  0  0  0
    6.4971   -2.3370   20.8723 H   0  0  0  0  0  0  0  0  0  0  0  0
    5.6419   -1.4465   22.1383 H   0  0  0  0  0  0  0  0  0  0  0  0
    8.5570   -2.2445   21.9728 H   0  0  0  0  0  0  0  0  0  0  0  0
    8.3835   -2.6437   24.4630 H   0  0  0  0  0  0  0  0  0  0  0  0
    7.3182   -3.6827   23.5061 H   0  0  0  0  0  0  0  0  0  0  0  0
    6.6541   -2.2851   24.3703 H   0  0  0  0  0  0  0  0  0  0  0  0
  1  2  1  0
  2  3  1  0
  3  4  1  0
  4  5  1  0
  5  6  2  0
  6  7  1  0
  7  8  2  0
  8  9  1  0
  9 10  2  0
 10 11  1  0
 11 12  2  0
 12 13  1  0
 13 14  2  0
 13 15  1  0
 12 16  1  0
 11 17  1  0
 10 18  1  0
  8 19  1  0
  6 20  1  0
  4 21  1  0
 21 22  2  0
 21 23  1  0
 23 24  1  1
 24 25  1  0
 25 26  1  0
 26 27  1  0
 27 28  1  0
 28 29  1  0
 29 30  1  0
 30 31  1  0
 31 32  2  0
 31 33  2  0
 31 34  1  0
 34 35  1  0
 35 36  1  0
 35 37  1  0
 34 38  1  0
 34 39  1  0
 30 40  1  0
 30 41  1  0
 29 42  1  0
 29 43  1  0
 28 44  1  0
 27 45  1  0
 27 46  1  0
 26 47  1  0
 26 48  1  0
 25 49  1  0
 49 50  2  0
 49 51  1  0
 51 52  2  0
 52 53  1  0
 53 54  2  0
 54 55  1  0
 54 56  1  0
 56 57  2  0
 56 58  1  0
 53 59  1  0
 52 60  1  0
 24 61  1  0
 24 62  1  0
  3 63  1  0
  3 64  1  0
  2 65  1  6
  1 66  1  0
  1 67  1  0
  1 68  1  0
 23  2  1  0
 35 28  1  0
 57 51  1  0
 14  5  1  0
 57 23  1  0
 14  9  1  0
M  CHG  1  28   1
M  END
>  <cnnaffinities>  (39) 
[7.10505]

>  <score>  (39) 
7.10505

>  <index>  (39) 
41

>  <Smiles>  (39) 
C([C@]1(C(N(c2c(nc(c3c(c(c(c(c23)[H])[H])[H])[H])[H])[H])C(=O)[C@]21C(N(C(C([N+]1(C(C(S(=O)(=O)C(C1([H])[H])([H])[H])([H])[H])([H])[H])[H])([H])[H])([H])[H])C(=O)c1c(c(c(Cl)c(c21)[H])[H])[H])([H])[H])([H])[H])[H])([H])([H])[H]

>  <h>  (39) 
<NA>

>  <Training>  (39) 
True

>  <Success>  (39) 
True

>  <enamine_searched>  (39) 
False

>  <enamine_id>  (39) 
nan

$$$$

     RDKit          3D

 60 65  0  0  0  0  0  0  0  0999 V2000
    7.9919    4.4274   22.7108 C   0  0  0  0  0  0  0  0  0  0  0  0
    6.7696    3.6830   22.9807 N   0  0  0  0  0  0  0  0  0  0  0  0
    6.5189    2.8400   24.0153 C   0  0  0  0  0  0  0  0  0  0  0  0
    5.4250    2.3169   24.1829 O   0  0  0  0  0  0  0  0  0  0  0  0
    7.6798    2.5038   24.9577 C   0  0  0  0  0  0  0  0  0  0  0  0
    8.4638    1.4078   24.4043 N   0  0  0  0  0  0  0  0  0  0  0  0
    7.8073    0.1561   24.0821 C   0  0  0  0  0  0  0  0  0  0  0  0
    8.4328   -0.5329   22.8433 C   0  0  2  0  0  0  0  0  0  0  0  0
    8.0633    0.2586   21.5541 C   0  0  0  0  0  0  0  0  0  0  0  0
    8.5556    1.2832   21.1307 O   0  0  0  0  0  0  0  0  0  0  0  0
    6.9930   -0.3785   20.9636 N   0  0  0  0  0  0  0  0  0  0  0  0
    6.2576    0.1723   19.8857 C   0  0  0  0  0  0  0  0  0  0  0  0
    6.5897   -0.1568   18.5980 C   0  0  0  0  0  0  0  0  0  0  0  0
    5.9172    0.2644   17.4993 N   0  0  0  0  0  0  0  0  0  0  0  0
    4.8580    1.0144   17.6798 C   0  0  0  0  0  0  0  0  0  0  0  0
    4.3958    1.4251   18.9616 C   0  0  0  0  0  0  0  0  0  0  0  0
    3.2472    2.2456   19.1143 C   0  0  0  0  0  0  0  0  0  0  0  0
    2.8155    2.6130   20.3608 C   0  0  0  0  0  0  0  0  0  0  0  0
    3.5117    2.1758   21.5104 C   0  0  0  0  0  0  0  0  0  0  0  0
    4.6273    1.3818   21.3867 C   0  0  0  0  0  0  0  0  0  0  0  0
    5.1049    0.9915   20.1058 C   0  0  0  0  0  0  0  0  0  0  0  0
    5.1461    1.0670   22.2862 H   0  0  0  0  0  0  0  0  0  0  0  0
    3.1775    2.4736   22.5022 H   0  0  0  0  0  0  0  0  0  0  0  0
    1.9398    3.2478   20.4693 H   0  0  0  0  0  0  0  0  0  0  0  0
    2.7293    2.5757   18.2175 H   0  0  0  0  0  0  0  0  0  0  0  0
    4.3005    1.3315   16.7948 H   0  0  0  0  0  0  0  0  0  0  0  0
    7.4488   -0.7993   18.4125 H   0  0  0  0  0  0  0  0  0  0  0  0
    6.6155   -1.6343   21.5673 C   0  0  0  0  0  0  0  0  0  0  0  0
    7.7498   -1.8944   22.5704 C   0  0  2  0  0  0  0  0  0  0  0  0
    7.3510   -2.7358   23.8016 C   0  0  0  0  0  0  0  0  0  0  0  0
    7.0086   -4.1006   23.3049 C   0  0  0  0  0  0  0  0  0  0  0  0
    7.9181   -5.0444   23.1237 N   0  0  0  0  0  0  0  0  0  0  0  0
    7.2953   -5.9852   22.4178 N   0  0  0  0  0  0  0  0  0  0  0  0
    6.0524   -5.6349   22.2222 N   0  0  0  0  0  2  0  0  0  0  0  0
    5.8382   -4.4435   22.7788 N   0  0  0  0  0  0  0  0  0  0  0  0
    6.5025   -2.3068   24.3401 H   0  0  0  0  0  0  0  0  0  0  0  0
    8.2002   -2.8095   24.4882 H   0  0  0  0  0  0  0  0  0  0  0  0
    8.4825   -2.4993   22.0323 H   0  0  0  0  0  0  0  0  0  0  0  0
    6.5572   -2.4210   20.8064 H   0  0  0  0  0  0  0  0  0  0  0  0
    5.6264   -1.5631   22.0396 H   0  0  0  0  0  0  0  0  0  0  0  0
    9.9253   -0.6422   23.1181 C   0  0  0  0  0  0  0  0  0  0  0  0
   10.7359   -1.6020   22.4914 C   0  0  0  0  0  0  0  0  0  0  0  0
   12.1075   -1.5942   22.6952 C   0  0  0  0  0  0  0  0  0  0  0  0
   13.0668   -2.6836   21.7320 Cl  0  0  0  0  0  0  0  0  0  0  0  0
   12.7221   -0.7350   23.6084 C   0  0  0  0  0  0  0  0  0  0  0  0
   11.9267    0.1997   24.2398 C   0  0  0  0  0  0  0  0  0  0  0  0
   10.5553    0.2697   23.9808 C   0  0  0  0  0  0  0  0  0  0  0  0
    9.8222    1.4979   24.4261 C   0  0  0  0  0  0  0  0  0  0  0  0
   10.4014    2.5347   24.7272 O   0  0  0  0  0  0  0  0  0  0  0  0
   12.3391    0.9368   24.9183 H   0  0  0  0  0  0  0  0  0  0  0  0
   13.7880   -0.7884   23.8156 H   0  0  0  0  0  0  0  0  0  0  0  0
   10.3590   -2.3536   21.8021 H   0  0  0  0  0  0  0  0  0  0  0  0
    6.7498    0.3557   23.9125 H   0  0  0  0  0  0  0  0  0  0  0  0
    7.8872   -0.5306   24.9326 H   0  0  0  0  0  0  0  0  0  0  0  0
    7.2522    2.2172   25.9292 H   0  0  0  0  0  0  0  0  0  0  0  0
    8.3694    3.3385   25.1075 H   0  0  0  0  0  0  0  0  0  0  0  0
    5.9722    3.8212   22.3723 H   0  0  0  0  0  0  0  0  0  0  0  0
    7.8381    4.9961   21.7913 H   0  0  0  0  0  0  0  0  0  0  0  0
    8.2362    5.1356   23.5133 H   0  0  0  0  0  0  0  0  0  0  0  0
    8.8486    3.7615   22.5612 H   0  0  0  0  0  0  0  0  0  0  0  0
  1  2  1  0
  2  3  1  0
  3  4  2  0
  3  5  1  0
  5  6  1  0
  6  7  1  0
  8  7  1  1
  8  9  1  0
  9 10  2  0
  9 11  1  0
 11 12  1  0
 12 13  2  0
 13 14  1  0
 14 15  2  0
 15 16  1  0
 16 17  2  0
 17 18  1  0
 18 19  2  0
 19 20  1  0
 20 21  2  0
 20 22  1  0
 19 23  1  0
 18 24  1  0
 17 25  1  0
 15 26  1  0
 13 27  1  0
 11 28  1  0
 28 29  1  0
 29 30  1  0
 30 31  1  0
 31 32  1  0
 32 33  2  0
 33 34  1  0
 34 35  1  0
 30 36  1  0
 30 37  1  0
 29 38  1  6
 28 39  1  0
 28 40  1  0
  8 41  1  0
 41 42  2  0
 42 43  1  0
 43 44  1  0
 43 45  2  0
 45 46  1  0
 46 47  2  0
 47 48  1  0
 48 49  2  0
 46 50  1  0
 45 51  1  0
 42 52  1  0
  7 53  1  0
  7 54  1  0
  5 55  1  0
  5 56  1  0
  2 57  1  0
  1 58  1  0
  1 59  1  0
  1 60  1  0
 48  6  1  0
 29  8  1  0
 35 31  2  0
 47 41  1  0
 21 12  1  0
 21 16  1  0
M  CHG  1  34  -1
M  END
>  <cnnaffinities>  (40) 
[7.69063]

>  <score>  (40) 
7.69063

>  <index>  (40) 
42

>  <Smiles>  (40) 
C(N(C(=O)C(N1C([C@@]2(C(=O)N(c3c(nc(c4c(c(c(c(c34)[H])[H])[H])[H])[H])[H])C([C@@]2(C(c2nn[n-]n2)([H])[H])[H])([H])[H])c2c(c(Cl)c(c(c2C1=O)[H])[H])[H])([H])[H])([H])[H])[H])([H])([H])[H]

>  <h>  (40) 
<NA>

>  <Training>  (40) 
True

>  <Success>  (40) 
True

>  <enamine_searched>  (40) 
False

>  <enamine_id>  (40) 
nan

$$$$

     RDKit          3D

 62 67  0  0  0  0  0  0  0  0999 V2000
    4.5187    3.4562   24.9149 C   0  0  0  0  0  0  0  0  0  0  0  0
    5.6925    4.3667   25.2803 C   0  0  0  0  0  0  0  0  0  0  0  0
    6.7169    3.6944   26.0753 N   0  0  0  0  0  0  0  0  0  0  0  0
    6.5815    3.7011   27.4146 N   0  0  0  0  0  0  0  0  0  0  0  0
    7.3759    2.7399   27.8575 C   0  0  0  0  0  0  0  0  0  0  0  0
    8.0123    2.0756   26.7928 C   0  0  0  0  0  0  0  0  0  0  0  0
    7.6140    2.7496   25.6700 C   0  0  0  0  0  0  0  0  0  0  0  0
    8.1921    2.6522   24.2922 C   0  0  0  0  0  0  0  0  0  0  0  0
    8.7814    1.3570   24.0097 N   0  0  0  0  0  0  0  0  0  0  0  0
    7.9099    0.2119   23.8533 C   0  0  0  0  0  0  0  0  0  0  0  0
    8.4136   -0.7090   22.7075 C   0  0  2  0  0  0  0  0  0  0  0  0
    8.0986    0.0211   21.3716 C   0  0  0  0  0  0  0  0  0  0  0  0
    8.7196    0.9123   20.8387 O   0  0  0  0  0  0  0  0  0  0  0  0
    6.8861   -0.4565   20.9209 N   0  0  0  0  0  0  0  0  0  0  0  0
    6.1945    0.1423   19.8413 C   0  0  0  0  0  0  0  0  0  0  0  0
    6.5912   -0.0973   18.5531 C   0  0  0  0  0  0  0  0  0  0  0  0
    5.9219    0.3451   17.4599 N   0  0  0  0  0  0  0  0  0  0  0  0
    4.8362    1.0530   17.6494 C   0  0  0  0  0  0  0  0  0  0  0  0
    4.3403    1.4177   18.9332 C   0  0  0  0  0  0  0  0  0  0  0  0
    3.1964    2.2433   19.0969 C   0  0  0  0  0  0  0  0  0  0  0  0
    2.7702    2.5972   20.3486 C   0  0  0  0  0  0  0  0  0  0  0  0
    3.4579    2.1357   21.4942 C   0  0  0  0  0  0  0  0  0  0  0  0
    4.5639    1.3319   21.3590 C   0  0  0  0  0  0  0  0  0  0  0  0
    5.0375    0.9547   20.0715 C   0  0  0  0  0  0  0  0  0  0  0  0
    5.0906    0.9815   22.2408 H   0  0  0  0  0  0  0  0  0  0  0  0
    3.1114    2.4186   22.4861 H   0  0  0  0  0  0  0  0  0  0  0  0
    1.9056    3.2447   20.4694 H   0  0  0  0  0  0  0  0  0  0  0  0
    2.6834    2.5999   18.2068 H   0  0  0  0  0  0  0  0  0  0  0  0
    4.2897    1.3795   16.7620 H   0  0  0  0  0  0  0  0  0  0  0  0
    7.4853   -0.6861   18.3593 H   0  0  0  0  0  0  0  0  0  0  0  0
    6.3589   -1.5859   21.6629 C   0  0  0  0  0  0  0  0  0  0  0  0
    7.5314   -1.9873   22.5851 C   0  0  2  0  0  0  0  0  0  0  0  0
    7.1046   -2.6255   23.9088 C   0  0  0  0  0  0  0  0  0  0  0  0
    6.6292   -3.5986   23.7489 H   0  0  0  0  0  0  0  0  0  0  0  0
    7.9734   -2.7781   24.5601 H   0  0  0  0  0  0  0  0  0  0  0  0
    6.3884   -2.0029   24.4597 H   0  0  0  0  0  0  0  0  0  0  0  0
    8.1304   -2.7264   22.0397 H   0  0  0  0  0  0  0  0  0  0  0  0
    5.4522   -1.3134   22.2245 H   0  0  0  0  0  0  0  0  0  0  0  0
    6.0704   -2.3814   20.9658 H   0  0  0  0  0  0  0  0  0  0  0  0
    9.9017   -0.9753   22.8982 C   0  0  0  0  0  0  0  0  0  0  0  0
   10.5935   -1.9300   22.1254 C   0  0  0  0  0  0  0  0  0  0  0  0
   11.9559   -2.1005   22.2996 C   0  0  0  0  0  0  0  0  0  0  0  0
   12.6120   -2.9831   21.5229 F   0  0  0  0  0  0  0  0  0  0  0  0
   12.6981   -1.3866   23.2384 C   0  0  0  0  0  0  0  0  0  0  0  0
   12.0325   -0.4092   23.9526 C   0  0  0  0  0  0  0  0  0  0  0  0
   10.6618   -0.1729   23.7658 C   0  0  0  0  0  0  0  0  0  0  0  0
   10.0915    1.1011   24.3462 C   0  0  0  0  0  0  0  0  0  0  0  0
   10.7811    1.8569   25.0113 O   0  0  0  0  0  0  0  0  0  0  0  0
   12.5817    0.2404   24.6291 H   0  0  0  0  0  0  0  0  0  0  0  0
   13.7636   -1.5899   23.3627 H   0  0  0  0  0  0  0  0  0  0  0  0
   10.1008   -2.5558   21.3807 H   0  0  0  0  0  0  0  0  0  0  0  0
    7.8732   -0.3562   24.7945 H   0  0  0  0  0  0  0  0  0  0  0  0
    6.8951    0.5577   23.6390 H   0  0  0  0  0  0  0  0  0  0  0  0
    7.4281    2.8830   23.5401 H   0  0  0  0  0  0  0  0  0  0  0  0
    8.9823    3.3939   24.1646 H   0  0  0  0  0  0  0  0  0  0  0  0
    8.6762    1.2249   26.7935 H   0  0  0  0  0  0  0  0  0  0  0  0
    7.4657    2.5807   28.9259 H   0  0  0  0  0  0  0  0  0  0  0  0
    5.3322    5.1980   25.8910 H   0  0  0  0  0  0  0  0  0  0  0  0
    6.1701    4.7932   24.3946 H   0  0  0  0  0  0  0  0  0  0  0  0
    3.7344    4.0404   24.4215 H   0  0  0  0  0  0  0  0  0  0  0  0
    4.8145    2.6410   24.2432 H   0  0  0  0  0  0  0  0  0  0  0  0
    4.1073    3.0175   25.8284 H   0  0  0  0  0  0  0  0  0  0  0  0
  1  2  1  0
  2  3  1  0
  3  4  1  0
  4  5  2  0
  5  6  1  0
  6  7  2  0
  7  8  1  0
  8  9  1  0
  9 10  1  0
 11 10  1  1
 11 12  1  0
 12 13  2  0
 12 14  1  0
 14 15  1  0
 15 16  2  0
 16 17  1  0
 17 18  2  0
 18 19  1  0
 19 20  2  0
 20 21  1  0
 21 22  2  0
 22 23  1  0
 23 24  2  0
 23 25  1  0
 22 26  1  0
 21 27  1  0
 20 28  1  0
 18 29  1  0
 16 30  1  0
 14 31  1  0
 31 32  1  0
 32 33  1  0
 33 34  1  0
 33 35  1  0
 33 36  1  0
 32 37  1  6
 31 38  1  0
 31 39  1  0
 11 40  1  0
 40 41  2  0
 41 42  1  0
 42 43  1  0
 42 44  2  0
 44 45  1  0
 45 46  2  0
 46 47  1  0
 47 48  2  0
 45 49  1  0
 44 50  1  0
 41 51  1  0
 10 52  1  0
 10 53  1  0
  8 54  1  0
  8 55  1  0
  6 56  1  0
  5 57  1  0
  2 58  1  0
  2 59  1  0
  1 60  1  0
  1 61  1  0
  1 62  1  0
  7  3  1  0
 47  9  1  0
 32 11  1  0
 46 40  1  0
 24 15  1  0
 24 19  1  0
M  END
>  <cnnaffinities>  (41) 
[7.23558]

>  <score>  (41) 
7.23558

>  <index>  (41) 
43

>  <Smiles>  (41) 
C(C(n1nc(c(c1C(N1C([C@@]2(C(=O)N(c3c(nc(c4c(c(c(c(c34)[H])[H])[H])[H])[H])[H])C([C@@]2(C([H])([H])[H])[H])([H])[H])c2c(c(F)c(c(c2C1=O)[H])[H])[H])([H])[H])([H])[H])[H])[H])([H])[H])([H])([H])[H]

>  <h>  (41) 
<NA>

>  <Training>  (41) 
True

>  <Success>  (41) 
True

>  <enamine_searched>  (41) 
False

>  <enamine_id>  (41) 
nan

$$$$

     RDKit          3D

 56 60  0  0  0  0  0  0  0  0999 V2000
    6.5880    4.3424   21.4627 C   0  0  0  0  0  0  0  0  0  0  0  0
    7.5266    3.8302   22.4484 N   0  0  0  0  0  0  0  0  0  0  0  0
    7.0635    3.2158   23.5678 C   0  0  0  0  0  0  0  0  0  0  0  0
    5.8718    3.0374   23.7772 O   0  0  0  0  0  0  0  0  0  0  0  0
    8.1257    2.7659   24.5715 C   0  0  0  0  0  0  0  0  0  0  0  0
    8.7194    1.4776   24.2246 N   0  0  0  0  0  0  0  0  0  0  0  0
    7.8725    0.3207   23.9586 C   0  0  0  0  0  0  0  0  0  0  0  0
    8.4185   -0.5568   22.7920 C   0  0  2  0  0  0  0  0  0  0  0  0
    8.1103    0.1670   21.4539 C   0  0  0  0  0  0  0  0  0  0  0  0
    8.7110    1.0875   20.9374 O   0  0  0  0  0  0  0  0  0  0  0  0
    6.9575   -0.3895   20.9341 N   0  0  0  0  0  0  0  0  0  0  0  0
    6.2447    0.1823   19.8532 C   0  0  0  0  0  0  0  0  0  0  0  0
    6.6435   -0.0753   18.5678 C   0  0  0  0  0  0  0  0  0  0  0  0
    5.9686    0.3466   17.4733 N   0  0  0  0  0  0  0  0  0  0  0  0
    4.8759    1.0496   17.6551 C   0  0  0  0  0  0  0  0  0  0  0  0
    4.3719    1.4243   18.9343 C   0  0  0  0  0  0  0  0  0  0  0  0
    3.2185    2.2370   19.1029 C   0  0  0  0  0  0  0  0  0  0  0  0
    2.7914    2.5951   20.3548 C   0  0  0  0  0  0  0  0  0  0  0  0
    3.4903    2.1531   21.5007 C   0  0  0  0  0  0  0  0  0  0  0  0
    4.6015    1.3558   21.3635 C   0  0  0  0  0  0  0  0  0  0  0  0
    5.0747    0.9750   20.0775 C   0  0  0  0  0  0  0  0  0  0  0  0
    5.1605    1.0577   22.2468 H   0  0  0  0  0  0  0  0  0  0  0  0
    3.1737    2.4574   22.4946 H   0  0  0  0  0  0  0  0  0  0  0  0
    1.9203    3.2333   20.4756 H   0  0  0  0  0  0  0  0  0  0  0  0
    2.6960    2.5835   18.2160 H   0  0  0  0  0  0  0  0  0  0  0  0
    4.3201    1.3569   16.7667 H   0  0  0  0  0  0  0  0  0  0  0  0
    7.5392   -0.6676   18.3841 H   0  0  0  0  0  0  0  0  0  0  0  0
    6.4341   -1.5209   21.6707 C   0  0  0  0  0  0  0  0  0  0  0  0
    7.5963   -1.8679   22.6118 C   0  0  2  0  0  0  0  0  0  0  0  0
    7.2552   -2.6760   23.8675 C   0  0  0  0  0  0  0  0  0  0  0  0
    5.7612   -2.1767   24.7414 Cl  0  0  0  0  0  0  0  0  0  0  0  0
    8.0725   -2.6124   24.5933 H   0  0  0  0  0  0  0  0  0  0  0  0
    7.1045   -3.7260   23.6123 H   0  0  0  0  0  0  0  0  0  0  0  0
    8.2720   -2.5145   22.0453 H   0  0  0  0  0  0  0  0  0  0  0  0
    6.1936   -2.3422   20.9866 H   0  0  0  0  0  0  0  0  0  0  0  0
    5.5110   -1.2782   22.2130 H   0  0  0  0  0  0  0  0  0  0  0  0
    9.9065   -0.8040   23.0141 C   0  0  0  0  0  0  0  0  0  0  0  0
   10.6202   -1.7950   22.3038 C   0  0  0  0  0  0  0  0  0  0  0  0
   11.9851   -1.9483   22.5272 C   0  0  0  0  0  0  0  0  0  0  0  0
   12.9029   -3.0796   21.5650 Cl  0  0  0  0  0  0  0  0  0  0  0  0
   12.6742   -1.1939   23.4794 C   0  0  0  0  0  0  0  0  0  0  0  0
   11.9876   -0.2012   24.1468 C   0  0  0  0  0  0  0  0  0  0  0  0
   10.6271    0.0082   23.8991 C   0  0  0  0  0  0  0  0  0  0  0  0
   10.0621    1.2980   24.4213 C   0  0  0  0  0  0  0  0  0  0  0  0
   10.7947    2.1411   24.9096 O   0  0  0  0  0  0  0  0  0  0  0  0
   12.4976    0.4959   24.8033 H   0  0  0  0  0  0  0  0  0  0  0  0
   13.7376   -1.3632   23.6493 H   0  0  0  0  0  0  0  0  0  0  0  0
   10.1548   -2.3884   21.5154 H   0  0  0  0  0  0  0  0  0  0  0  0
    7.7864   -0.2909   24.8662 H   0  0  0  0  0  0  0  0  0  0  0  0
    6.8766    0.6956   23.7109 H   0  0  0  0  0  0  0  0  0  0  0  0
    7.6529    2.7558   25.5640 H   0  0  0  0  0  0  0  0  0  0  0  0
    8.9421    3.4925   24.6022 H   0  0  0  0  0  0  0  0  0  0  0  0
    8.5050    3.7430   22.2109 H   0  0  0  0  0  0  0  0  0  0  0  0
    5.7894    4.8798   21.9820 H   0  0  0  0  0  0  0  0  0  0  0  0
    6.1350    3.5305   20.8752 H   0  0  0  0  0  0  0  0  0  0  0  0
    7.0972    5.0363   20.7910 H   0  0  0  0  0  0  0  0  0  0  0  0
  1  2  1  0
  2  3  1  0
  3  4  2  0
  3  5  1  0
  5  6  1  0
  6  7  1  0
  8  7  1  1
  8  9  1  0
  9 10  2  0
  9 11  1  0
 11 12  1  0
 12 13  2  0
 13 14  1  0
 14 15  2  0
 15 16  1  0
 16 17  2  0
 17 18  1  0
 18 19  2  0
 19 20  1  0
 20 21  2  0
 20 22  1  0
 19 23  1  0
 18 24  1  0
 17 25  1  0
 15 26  1  0
 13 27  1  0
 11 28  1  0
 28 29  1  0
 29 30  1  0
 30 31  1  0
 30 32  1  0
 30 33  1  0
 29 34  1  6
 28 35  1  0
 28 36  1  0
  8 37  1  0
 37 38  2  0
 38 39  1  0
 39 40  1  0
 39 41  2  0
 41 42  1  0
 42 43  2  0
 43 44  1  0
 44 45  2  0
 42 46  1  0
 41 47  1  0
 38 48  1  0
  7 49  1  0
  7 50  1  0
  5 51  1  0
  5 52  1  0
  2 53  1  0
  1 54  1  0
  1 55  1  0
  1 56  1  0
 44  6  1  0
 29  8  1  0
 43 37  1  0
 21 12  1  0
 21 16  1  0
M  END
>  <cnnaffinities>  (42) 
[7.22548]

>  <score>  (42) 
7.22548

>  <index>  (42) 
44

>  <Smiles>  (42) 
C(N(C(=O)C(N1C([C@@]2(C(=O)N(c3c(nc(c4c(c(c(c(c34)[H])[H])[H])[H])[H])[H])C([C@@]2(C(Cl)([H])[H])[H])([H])[H])c2c(c(Cl)c(c(c2C1=O)[H])[H])[H])([H])[H])([H])[H])[H])([H])([H])[H]

>  <h>  (42) 
<NA>

>  <Training>  (42) 
True

>  <Success>  (42) 
True

>  <enamine_searched>  (42) 
False

>  <enamine_id>  (42) 
nan

$$$$

     RDKit          3D

 60 64  0  0  0  0  0  0  0  0999 V2000
    6.6355    4.2416   21.4385 C   0  0  0  0  0  0  0  0  0  0  0  0
    7.6185    3.6766   22.3472 N   0  0  0  0  0  0  0  0  0  0  0  0
    7.1711    3.1337   23.5129 C   0  0  0  0  0  0  0  0  0  0  0  0
    5.9743    3.0601   23.7685 O   0  0  0  0  0  0  0  0  0  0  0  0
    8.2088    2.6600   24.5272 C   0  0  0  0  0  0  0  0  0  0  0  0
    8.7947    1.3792   24.1609 N   0  0  0  0  0  0  0  0  0  0  0  0
    7.9398    0.2220   23.9158 C   0  0  0  0  0  0  0  0  0  0  0  0
    8.4539   -0.6289   22.7183 C   0  0  2  0  0  0  0  0  0  0  0  0
    8.1089    0.1174   21.4047 C   0  0  0  0  0  0  0  0  0  0  0  0
    8.6943    1.0536   20.9001 O   0  0  0  0  0  0  0  0  0  0  0  0
    6.9467   -0.4327   20.9000 N   0  0  0  0  0  0  0  0  0  0  0  0
    6.2395    0.1663   19.8265 C   0  0  0  0  0  0  0  0  0  0  0  0
    6.6530   -0.0385   18.5338 C   0  0  0  0  0  0  0  0  0  0  0  0
    5.9897    0.4151   17.4443 N   0  0  0  0  0  0  0  0  0  0  0  0
    4.8865    1.0964   17.6401 C   0  0  0  0  0  0  0  0  0  0  0  0
    4.3733    1.4305   18.9253 C   0  0  0  0  0  0  0  0  0  0  0  0
    3.2139    2.2358   19.0924 C   0  0  0  0  0  0  0  0  0  0  0  0
    2.7852    2.5893   20.3441 C   0  0  0  0  0  0  0  0  0  0  0  0
    3.4957    2.1565   21.4860 C   0  0  0  0  0  0  0  0  0  0  0  0
    4.6091    1.3583   21.3479 C   0  0  0  0  0  0  0  0  0  0  0  0
    5.0731    0.9616   20.0626 C   0  0  0  0  0  0  0  0  0  0  0  0
    5.1810    1.0925   22.2308 H   0  0  0  0  0  0  0  0  0  0  0  0
    3.1830    2.4715   22.4778 H   0  0  0  0  0  0  0  0  0  0  0  0
    1.9069    3.2187   20.4645 H   0  0  0  0  0  0  0  0  0  0  0  0
    2.6877    2.5801   18.2052 H   0  0  0  0  0  0  0  0  0  0  0  0
    4.3433    1.4323   16.7555 H   0  0  0  0  0  0  0  0  0  0  0  0
    7.5585   -0.6097   18.3446 H   0  0  0  0  0  0  0  0  0  0  0  0
    6.4228   -1.5319   21.6920 C   0  0  0  0  0  0  0  0  0  0  0  0
    7.6340   -1.9404   22.5389 C   0  0  2  0  0  0  0  0  0  0  0  0
    7.2853   -2.6597   23.8317 C   0  0  0  0  0  0  0  0  0  0  0  0
    8.4960   -2.9063   24.5061 O   0  0  0  0  0  0  0  0  0  0  0  0
    8.3309   -3.3764   25.8179 C   0  0  0  0  0  0  0  0  0  0  0  0
    7.7796   -4.3284   25.8453 H   0  0  0  0  0  0  0  0  0  0  0  0
    7.7953   -2.6532   26.4545 H   0  0  0  0  0  0  0  0  0  0  0  0
    9.3317   -3.5280   26.2299 H   0  0  0  0  0  0  0  0  0  0  0  0
    6.7490   -3.6047   23.6363 H   0  0  0  0  0  0  0  0  0  0  0  0
    6.6177   -2.0225   24.4378 H   0  0  0  0  0  0  0  0  0  0  0  0
    8.2510   -2.6230   21.9483 H   0  0  0  0  0  0  0  0  0  0  0  0
    5.5804   -1.2105   22.3256 H   0  0  0  0  0  0  0  0  0  0  0  0
    6.0577   -2.3345   21.0432 H   0  0  0  0  0  0  0  0  0  0  0  0
    9.9369   -0.8515   22.9240 C   0  0  0  0  0  0  0  0  0  0  0  0
   10.6325   -1.7934   22.1475 C   0  0  0  0  0  0  0  0  0  0  0  0
   11.9992   -1.9517   22.2916 C   0  0  0  0  0  0  0  0  0  0  0  0
   12.8351   -3.0738   21.2565 Cl  0  0  0  0  0  0  0  0  0  0  0  0
   12.7345   -1.2158   23.2254 C   0  0  0  0  0  0  0  0  0  0  0  0
   12.0633   -0.2591   23.9597 C   0  0  0  0  0  0  0  0  0  0  0  0
   10.6935   -0.0709   23.8078 C   0  0  0  0  0  0  0  0  0  0  0  0
   10.1265    1.1829   24.3992 C   0  0  0  0  0  0  0  0  0  0  0  0
   10.8376    1.9874   24.9845 O   0  0  0  0  0  0  0  0  0  0  0  0
   12.5751    0.4611   24.5945 H   0  0  0  0  0  0  0  0  0  0  0  0
   13.8119   -1.3405   23.3089 H   0  0  0  0  0  0  0  0  0  0  0  0
   10.1382   -2.3436   21.3564 H   0  0  0  0  0  0  0  0  0  0  0  0
    6.9282    0.5875   23.7265 H   0  0  0  0  0  0  0  0  0  0  0  0
    7.9116   -0.4174   24.8084 H   0  0  0  0  0  0  0  0  0  0  0  0
    7.7006    2.6427   25.5042 H   0  0  0  0  0  0  0  0  0  0  0  0
    9.0325    3.3778   24.5958 H   0  0  0  0  0  0  0  0  0  0  0  0
    8.5185    3.4193   21.9680 H   0  0  0  0  0  0  0  0  0  0  0  0
    7.0984    4.9720   20.7692 H   0  0  0  0  0  0  0  0  0  0  0  0
    6.1313    3.4588   20.8556 H   0  0  0  0  0  0  0  0  0  0  0  0
    5.8773    4.7466   22.0403 H   0  0  0  0  0  0  0  0  0  0  0  0
  1  2  1  0
  2  3  1  0
  3  4  2  0
  3  5  1  0
  5  6  1  0
  6  7  1  0
  8  7  1  1
  8  9  1  0
  9 10  2  0
  9 11  1  0
 11 12  1  0
 12 13  2  0
 13 14  1  0
 14 15  2  0
 15 16  1  0
 16 17  2  0
 17 18  1  0
 18 19  2  0
 19 20  1  0
 20 21  2  0
 20 22  1  0
 19 23  1  0
 18 24  1  0
 17 25  1  0
 15 26  1  0
 13 27  1  0
 11 28  1  0
 28 29  1  0
 29 30  1  0
 30 31  1  0
 31 32  1  0
 32 33  1  0
 32 34  1  0
 32 35  1  0
 30 36  1  0
 30 37  1  0
 29 38  1  6
 28 39  1  0
 28 40  1  0
  8 41  1  0
 41 42  2  0
 42 43  1  0
 43 44  1  0
 43 45  2  0
 45 46  1  0
 46 47  2  0
 47 48  1  0
 48 49  2  0
 46 50  1  0
 45 51  1  0
 42 52  1  0
  7 53  1  0
  7 54  1  0
  5 55  1  0
  5 56  1  0
  2 57  1  0
  1 58  1  0
  1 59  1  0
  1 60  1  0
 48  6  1  0
 29  8  1  0
 47 41  1  0
 21 12  1  0
 21 16  1  0
M  END
>  <cnnaffinities>  (43) 
[7.15008]

>  <score>  (43) 
7.15008

>  <index>  (43) 
45

>  <Smiles>  (43) 
C(N(C(=O)C(N1C([C@@]2(C(=O)N(c3c(nc(c4c(c(c(c(c34)[H])[H])[H])[H])[H])[H])C([C@@]2(C(OC([H])([H])[H])([H])[H])[H])([H])[H])c2c(c(Cl)c(c(c2C1=O)[H])[H])[H])([H])[H])([H])[H])[H])([H])([H])[H]

>  <h>  (43) 
<NA>

>  <Training>  (43) 
True

>  <Success>  (43) 
True

>  <enamine_searched>  (43) 
False

>  <enamine_id>  (43) 
nan

$$$$

     RDKit          3D

 64 68  0  0  0  0  0  0  0  0999 V2000
    6.9267   -2.7503   27.0187 C   0  0  0  0  0  0  0  0  0  0  0  0
    7.6274   -3.8916   26.3019 C   0  0  0  0  0  0  0  0  0  0  0  0
    8.4394   -3.3647   24.7887 S   0  0  0  0  0  0  0  0  0  0  0  0
    9.4496   -2.4056   25.2029 O   0  0  0  0  0  0  0  0  0  0  0  0
    8.8157   -4.5544   24.0324 O   0  0  0  0  0  0  0  0  0  0  0  0
    7.2118   -2.5472   23.8974 N   0  0  0  0  0  0  0  0  0  0  0  0
    7.6586   -1.9005   22.6314 C   0  0  1  0  0  0  0  0  0  0  0  0
    6.4649   -1.5531   21.7267 C   0  0  0  0  0  0  0  0  0  0  0  0
    6.9474   -0.4178   20.9685 N   0  0  0  0  0  0  0  0  0  0  0  0
    6.2298    0.1439   19.8810 C   0  0  0  0  0  0  0  0  0  0  0  0
    6.6317   -0.1103   18.5939 C   0  0  0  0  0  0  0  0  0  0  0  0
    5.9663    0.3197   17.4963 N   0  0  0  0  0  0  0  0  0  0  0  0
    4.8773    1.0268   17.6759 C   0  0  0  0  0  0  0  0  0  0  0  0
    4.3718    1.4018   18.9525 C   0  0  0  0  0  0  0  0  0  0  0  0
    3.2254    2.2271   19.1075 C   0  0  0  0  0  0  0  0  0  0  0  0
    2.7966    2.5970   20.3547 C   0  0  0  0  0  0  0  0  0  0  0  0
    3.4886    2.1560   21.5057 C   0  0  0  0  0  0  0  0  0  0  0  0
    4.5938    1.3461   21.3799 C   0  0  0  0  0  0  0  0  0  0  0  0
    5.0661    0.9478   20.0995 C   0  0  0  0  0  0  0  0  0  0  0  0
    5.1500    1.0616   22.2679 H   0  0  0  0  0  0  0  0  0  0  0  0
    3.1729    2.4766   22.4949 H   0  0  0  0  0  0  0  0  0  0  0  0
    1.9298    3.2438   20.4676 H   0  0  0  0  0  0  0  0  0  0  0  0
    2.7106    2.5701   18.2137 H   0  0  0  0  0  0  0  0  0  0  0  0
    4.3316    1.3447   16.7858 H   0  0  0  0  0  0  0  0  0  0  0  0
    7.5292   -0.6975   18.4100 H   0  0  0  0  0  0  0  0  0  0  0  0
    8.1105    0.1424   21.4514 C   0  0  0  0  0  0  0  0  0  0  0  0
    8.6787    1.0799   20.9282 O   0  0  0  0  0  0  0  0  0  0  0  0
    8.4589   -0.5818   22.7816 C   0  0  1  0  0  0  0  0  0  0  0  0
    7.9088    0.2720   23.9637 C   0  0  0  0  0  0  0  0  0  0  0  0
    8.7267    1.4477   24.2253 N   0  0  0  0  0  0  0  0  0  0  0  0
    8.1009    2.7162   24.6050 C   0  0  0  0  0  0  0  0  0  0  0  0
    7.0493    3.1810   23.5838 C   0  0  0  0  0  0  0  0  0  0  0  0
    5.8534    3.0132   23.7784 O   0  0  0  0  0  0  0  0  0  0  0  0
    7.5164    3.8052   22.4698 N   0  0  0  0  0  0  0  0  0  0  0  0
    6.5772    4.3196   21.4870 C   0  0  0  0  0  0  0  0  0  0  0  0
    6.1194    3.5147   20.8977 H   0  0  0  0  0  0  0  0  0  0  0  0
    5.7798    4.8473   22.0127 H   0  0  0  0  0  0  0  0  0  0  0  0
    7.0811    5.0188   20.8184 H   0  0  0  0  0  0  0  0  0  0  0  0
    8.4832    3.6795   22.2129 H   0  0  0  0  0  0  0  0  0  0  0  0
    7.5963    2.6606   25.5836 H   0  0  0  0  0  0  0  0  0  0  0  0
    8.9024    3.4582   24.6951 H   0  0  0  0  0  0  0  0  0  0  0  0
   10.0722    1.2751   24.4293 C   0  0  0  0  0  0  0  0  0  0  0  0
   10.7842    2.1219   24.9412 O   0  0  0  0  0  0  0  0  0  0  0  0
   10.6585    0.0041   23.8874 C   0  0  0  0  0  0  0  0  0  0  0  0
   12.0108   -0.2243   24.1577 C   0  0  0  0  0  0  0  0  0  0  0  0
   12.7141   -1.1953   23.4705 C   0  0  0  0  0  0  0  0  0  0  0  0
   12.0420   -1.8939   22.4622 C   0  0  0  0  0  0  0  0  0  0  0  0
   12.9747   -2.9856   21.4716 Cl  0  0  0  0  0  0  0  0  0  0  0  0
   10.6776   -1.7419   22.2326 C   0  0  0  0  0  0  0  0  0  0  0  0
    9.9515   -0.7860   22.9726 C   0  0  0  0  0  0  0  0  0  0  0  0
   10.2279   -2.3119   21.4208 H   0  0  0  0  0  0  0  0  0  0  0  0
   13.7847   -1.3385   23.6278 H   0  0  0  0  0  0  0  0  0  0  0  0
   12.5022    0.4239   24.8761 H   0  0  0  0  0  0  0  0  0  0  0  0
    7.8786   -0.3591   24.8566 H   0  0  0  0  0  0  0  0  0  0  0  0
    6.8903    0.5969   23.7414 H   0  0  0  0  0  0  0  0  0  0  0  0
    6.1956   -2.3750   21.0529 H   0  0  0  0  0  0  0  0  0  0  0  0
    5.5765   -1.3002   22.3232 H   0  0  0  0  0  0  0  0  0  0  0  0
    8.3086   -2.5933   22.0904 H   0  0  0  0  0  0  0  0  0  0  0  0
    6.5121   -3.2529   23.6647 H   0  0  0  0  0  0  0  0  0  0  0  0
    8.4414   -4.3295   26.8932 H   0  0  0  0  0  0  0  0  0  0  0  0
    6.9402   -4.6943   26.0358 H   0  0  0  0  0  0  0  0  0  0  0  0
    7.5959   -1.8927   27.1307 H   0  0  0  0  0  0  0  0  0  0  0  0
    6.6011   -3.0825   28.0087 H   0  0  0  0  0  0  0  0  0  0  0  0
    6.0503   -2.4353   26.4459 H   0  0  0  0  0  0  0  0  0  0  0  0
  1  2  1  0
  2  3  1  0
  3  4  2  0
  3  5  2  0
  3  6  1  0
  6  7  1  0
  7  8  1  0
  8  9  1  0
  9 10  1  0
 10 11  2  0
 11 12  1  0
 12 13  2  0
 13 14  1  0
 14 15  2  0
 15 16  1  0
 16 17  2  0
 17 18  1  0
 18 19  2  0
 18 20  1  0
 17 21  1  0
 16 22  1  0
 15 23  1  0
 13 24  1  0
 11 25  1  0
  9 26  1  0
 26 27  2  0
 26 28  1  0
 28 29  1  1
 29 30  1  0
 30 31  1  0
 31 32  1  0
 32 33  2  0
 32 34  1  0
 34 35  1  0
 35 36  1  0
 35 37  1  0
 35 38  1  0
 34 39  1  0
 31 40  1  0
 31 41  1  0
 30 42  1  0
 42 43  2  0
 42 44  1  0
 44 45  2  0
 45 46  1  0
 46 47  2  0
 47 48  1  0
 47 49  1  0
 49 50  2  0
 49 51  1  0
 46 52  1  0
 45 53  1  0
 29 54  1  0
 29 55  1  0
  8 56  1  0
  8 57  1  0
  7 58  1  6
  6 59  1  0
  2 60  1  0
  2 61  1  0
  1 62  1  0
  1 63  1  0
  1 64  1  0
 28  7  1  0
 50 44  1  0
 19 10  1  0
 50 28  1  0
 19 14  1  0
M  END
>  <cnnaffinities>  (44) 
[7.36576]

>  <score>  (44) 
7.36576

>  <index>  (44) 
46

>  <Smiles>  (44) 
C(C(S(=O)(=O)N([C@]1(C(N(c2c(nc(c3c(c(c(c(c23)[H])[H])[H])[H])[H])[H])C(=O)[C@]21C(N(C(C(=O)N(C([H])([H])[H])[H])([H])[H])C(=O)c1c(c(c(Cl)c(c21)[H])[H])[H])([H])[H])([H])[H])[H])[H])([H])[H])([H])([H])[H]

>  <h>  (44) 
<NA>

>  <Training>  (44) 
True

>  <Success>  (44) 
True

>  <enamine_searched>  (44) 
False

>  <enamine_id>  (44) 
nan

$$$$

     RDKit          3D

 56 60  0  0  0  0  0  0  0  0999 V2000
    6.5932    4.3073   21.4968 C   0  0  0  0  0  0  0  0  0  0  0  0
    7.5638    3.8013   22.4543 N   0  0  0  0  0  0  0  0  0  0  0  0
    7.0984    3.1654   23.5636 C   0  0  0  0  0  0  0  0  0  0  0  0
    5.9011    2.9914   23.7432 O   0  0  0  0  0  0  0  0  0  0  0  0
    8.1403    2.7086   24.5914 C   0  0  0  0  0  0  0  0  0  0  0  0
    8.7128    1.4125   24.2471 N   0  0  0  0  0  0  0  0  0  0  0  0
    7.8680    0.2681   23.9470 C   0  0  0  0  0  0  0  0  0  0  0  0
    8.4328   -0.5892   22.7740 C   0  0  2  0  0  0  0  0  0  0  0  0
    8.1340    0.1360   21.4277 C   0  0  0  0  0  0  0  0  0  0  0  0
    8.7558    1.0366   20.9028 O   0  0  0  0  0  0  0  0  0  0  0  0
    6.9596   -0.3915   20.9281 N   0  0  0  0  0  0  0  0  0  0  0  0
    6.2507    0.1859   19.8500 C   0  0  0  0  0  0  0  0  0  0  0  0
    6.6486   -0.0646   18.5624 C   0  0  0  0  0  0  0  0  0  0  0  0
    5.9696    0.3546   17.4698 N   0  0  0  0  0  0  0  0  0  0  0  0
    4.8717    1.0459   17.6610 C   0  0  0  0  0  0  0  0  0  0  0  0
    4.3754    1.4216   18.9419 C   0  0  0  0  0  0  0  0  0  0  0  0
    3.2220    2.2341   19.1057 C   0  0  0  0  0  0  0  0  0  0  0  0
    2.7963    2.5981   20.3550 C   0  0  0  0  0  0  0  0  0  0  0  0
    3.5000    2.1634   21.4999 C   0  0  0  0  0  0  0  0  0  0  0  0
    4.6122    1.3646   21.3678 C   0  0  0  0  0  0  0  0  0  0  0  0
    5.0817    0.9752   20.0829 C   0  0  0  0  0  0  0  0  0  0  0  0
    5.1725    1.0882   22.2556 H   0  0  0  0  0  0  0  0  0  0  0  0
    3.1851    2.4819   22.4891 H   0  0  0  0  0  0  0  0  0  0  0  0
    1.9206    3.2313   20.4710 H   0  0  0  0  0  0  0  0  0  0  0  0
    2.6998    2.5730   18.2154 H   0  0  0  0  0  0  0  0  0  0  0  0
    4.3140    1.3516   16.7746 H   0  0  0  0  0  0  0  0  0  0  0  0
    7.5469   -0.6512   18.3805 H   0  0  0  0  0  0  0  0  0  0  0  0
    6.4310   -1.5211   21.6654 C   0  0  0  0  0  0  0  0  0  0  0  0
    7.6050   -1.8958   22.5834 C   0  0  2  0  0  0  0  0  0  0  0  0
    7.2263   -2.6166   23.8696 C   0  0  0  0  0  0  0  0  0  0  0  0
    6.8120   -3.6073   23.6651 H   0  0  0  0  0  0  0  0  0  0  0  0
    6.4713   -2.0560   24.4305 H   0  0  0  0  0  0  0  0  0  0  0  0
    8.1071   -2.7275   24.5133 H   0  0  0  0  0  0  0  0  0  0  0  0
    8.2455   -2.5566   21.9954 H   0  0  0  0  0  0  0  0  0  0  0  0
    5.5220   -1.2527   22.2226 H   0  0  0  0  0  0  0  0  0  0  0  0
    6.1499   -2.3323   20.9811 H   0  0  0  0  0  0  0  0  0  0  0  0
    9.9152   -0.8385   23.0316 C   0  0  0  0  0  0  0  0  0  0  0  0
   10.6433   -1.8203   22.3405 C   0  0  0  0  0  0  0  0  0  0  0  0
   12.0027   -1.9468   22.5659 C   0  0  0  0  0  0  0  0  0  0  0  0
   12.7052   -2.7901   21.7879 F   0  0  0  0  0  0  0  0  0  0  0  0
   12.6929   -1.2348   23.5488 C   0  0  0  0  0  0  0  0  0  0  0  0
   11.9728   -0.2873   24.2462 C   0  0  0  0  0  0  0  0  0  0  0  0
   10.6308   -0.0477   23.9422 C   0  0  0  0  0  0  0  0  0  0  0  0
   10.0418    1.2139   24.4777 C   0  0  0  0  0  0  0  0  0  0  0  0
   10.7436    2.0376   25.0459 O   0  0  0  0  0  0  0  0  0  0  0  0
   12.4335    0.3476   24.9956 H   0  0  0  0  0  0  0  0  0  0  0  0
   13.7610   -1.3704   23.6962 H   0  0  0  0  0  0  0  0  0  0  0  0
   10.1821   -2.4935   21.6167 H   0  0  0  0  0  0  0  0  0  0  0  0
    6.8699    0.6296   23.6978 H   0  0  0  0  0  0  0  0  0  0  0  0
    7.7833   -0.3509   24.8489 H   0  0  0  0  0  0  0  0  0  0  0  0
    7.6464    2.6772   25.5727 H   0  0  0  0  0  0  0  0  0  0  0  0
    8.9731    3.4228   24.6569 H   0  0  0  0  0  0  0  0  0  0  0  0
    8.5097    3.6308   22.1380 H   0  0  0  0  0  0  0  0  0  0  0  0
    7.0518    5.0331   20.8196 H   0  0  0  0  0  0  0  0  0  0  0  0
    6.1396    3.4875   20.9222 H   0  0  0  0  0  0  0  0  0  0  0  0
    5.7987    4.8034   22.0590 H   0  0  0  0  0  0  0  0  0  0  0  0
  1  2  1  0
  2  3  1  0
  3  4  2  0
  3  5  1  0
  5  6  1  0
  6  7  1  0
  8  7  1  1
  8  9  1  0
  9 10  2  0
  9 11  1  0
 11 12  1  0
 12 13  2  0
 13 14  1  0
 14 15  2  0
 15 16  1  0
 16 17  2  0
 17 18  1  0
 18 19  2  0
 19 20  1  0
 20 21  2  0
 20 22  1  0
 19 23  1  0
 18 24  1  0
 17 25  1  0
 15 26  1  0
 13 27  1  0
 11 28  1  0
 28 29  1  0
 29 30  1  0
 30 31  1  0
 30 32  1  0
 30 33  1  0
 29 34  1  6
 28 35  1  0
 28 36  1  0
  8 37  1  0
 37 38  2  0
 38 39  1  0
 39 40  1  0
 39 41  2  0
 41 42  1  0
 42 43  2  0
 43 44  1  0
 44 45  2  0
 42 46  1  0
 41 47  1  0
 38 48  1  0
  7 49  1  0
  7 50  1  0
  5 51  1  0
  5 52  1  0
  2 53  1  0
  1 54  1  0
  1 55  1  0
  1 56  1  0
 44  6  1  0
 29  8  1  0
 43 37  1  0
 21 12  1  0
 21 16  1  0
M  END
>  <cnnaffinities>  (45) 
[7.05122]

>  <score>  (45) 
7.05122

>  <index>  (45) 
47

>  <Smiles>  (45) 
C(N(C(=O)C(N1C([C@@]2(C(=O)N(c3c(nc(c4c(c(c(c(c34)[H])[H])[H])[H])[H])[H])C([C@@]2(C([H])([H])[H])[H])([H])[H])c2c(c(F)c(c(c2C1=O)[H])[H])[H])([H])[H])([H])[H])[H])([H])([H])[H]

>  <h>  (45) 
<NA>

>  <Training>  (45) 
True

>  <Success>  (45) 
True

>  <enamine_searched>  (45) 
False

>  <enamine_id>  (45) 
nan

$$$$

     RDKit          3D

 41 43  0  0  0  0  0  0  0  0999 V2000
    5.4617    0.8528   26.2671 C   0  0  0  0  0  0  0  0  0  0  0  0
    6.6454    0.8163   25.3241 C   0  0  1  0  0  0  0  0  0  0  0  0
    6.7306   -0.5057   24.5636 C   0  0  0  0  0  0  0  0  0  0  0  0
    7.9924   -0.6544   23.7074 C   0  0  0  0  0  0  0  0  0  0  0  0
    8.3129    0.4770   22.8483 N   0  0  0  0  0  0  0  0  0  0  0  0
    7.8617    0.6315   21.5557 C   0  0  0  0  0  0  0  0  0  0  0  0
    8.1993    1.5931   20.8854 O   0  0  0  0  0  0  0  0  0  0  0  0
    6.9448   -0.4465   20.9224 C   0  0  0  0  0  0  0  0  0  0  0  0
    6.1154    0.0876   19.7761 C   0  0  0  0  0  0  0  0  0  0  0  0
    6.4303   -0.2009   18.4730 C   0  0  0  0  0  0  0  0  0  0  0  0
    5.7714    0.2672   17.3798 N   0  0  0  0  0  0  0  0  0  0  0  0
    4.7304    1.0331   17.5821 C   0  0  0  0  0  0  0  0  0  0  0  0
    4.2847    1.4241   18.8727 C   0  0  0  0  0  0  0  0  0  0  0  0
    3.1688    2.2829   19.0458 C   0  0  0  0  0  0  0  0  0  0  0  0
    2.7654    2.6484   20.3010 C   0  0  0  0  0  0  0  0  0  0  0  0
    3.4638    2.1694   21.4325 C   0  0  0  0  0  0  0  0  0  0  0  0
    4.5477    1.3375   21.2901 C   0  0  0  0  0  0  0  0  0  0  0  0
    4.9940    0.9431   20.0007 C   0  0  0  0  0  0  0  0  0  0  0  0
    5.0758    0.9951   22.1767 H   0  0  0  0  0  0  0  0  0  0  0  0
    3.1410    2.4686   22.4243 H   0  0  0  0  0  0  0  0  0  0  0  0
    1.9138    3.3096   20.4357 H   0  0  0  0  0  0  0  0  0  0  0  0
    2.6467    2.6502   18.1644 H   0  0  0  0  0  0  0  0  0  0  0  0
    4.1978    1.3969   16.7003 H   0  0  0  0  0  0  0  0  0  0  0  0
    7.2726   -0.8542   18.2449 H   0  0  0  0  0  0  0  0  0  0  0  0
    7.5994   -1.2392   20.5361 H   0  0  0  0  0  0  0  0  0  0  0  0
    6.2876   -0.9187   21.6648 H   0  0  0  0  0  0  0  0  0  0  0  0
    8.8056    1.6727   23.5322 C   0  0  0  0  0  0  0  0  0  0  0  0
    7.7055    2.5826   24.1209 C   0  0  0  0  0  0  0  0  0  0  0  0
    6.5059    1.9065   24.4206 O   0  0  0  0  0  0  0  0  0  0  0  0
    7.4439    3.3652   23.4015 H   0  0  0  0  0  0  0  0  0  0  0  0
    8.0784    3.0923   25.0311 H   0  0  0  0  0  0  0  0  0  0  0  0
    9.4573    1.3434   24.3455 H   0  0  0  0  0  0  0  0  0  0  0  0
    9.4157    2.2531   22.8421 H   0  0  0  0  0  0  0  0  0  0  0  0
    7.9483   -1.5606   23.1013 H   0  0  0  0  0  0  0  0  0  0  0  0
    8.8451   -0.7800   24.3790 H   0  0  0  0  0  0  0  0  0  0  0  0
    5.8456   -0.5841   23.9245 H   0  0  0  0  0  0  0  0  0  0  0  0
    6.6755   -1.3371   25.2828 H   0  0  0  0  0  0  0  0  0  0  0  0
    7.5628    0.9549   25.9108 H   0  0  0  0  0  0  0  0  0  0  0  0
    5.4183    1.8134   26.7873 H   0  0  0  0  0  0  0  0  0  0  0  0
    5.5436    0.0578   27.0146 H   0  0  0  0  0  0  0  0  0  0  0  0
    4.5300    0.7193   25.7109 H   0  0  0  0  0  0  0  0  0  0  0  0
  1  2  1  0
  2  3  1  0
  3  4  1  0
  4  5  1  0
  5  6  1  0
  6  7  2  0
  6  8  1  0
  8  9  1  0
  9 10  2  0
 10 11  1  0
 11 12  2  0
 12 13  1  0
 13 14  2  0
 14 15  1  0
 15 16  2  0
 16 17  1  0
 17 18  2  0
 17 19  1  0
 16 20  1  0
 15 21  1  0
 14 22  1  0
 12 23  1  0
 10 24  1  0
  8 25  1  0
  8 26  1  0
  5 27  1  0
 27 28  1  0
 28 29  1  0
 28 30  1  0
 28 31  1  0
 27 32  1  0
 27 33  1  0
  4 34  1  0
  4 35  1  0
  3 36  1  0
  3 37  1  0
  2 38  1  1
  1 39  1  0
  1 40  1  0
  1 41  1  0
 29  2  1  0
 18  9  1  0
 18 13  1  0
M  END
>  <cnnaffinities>  (46) 
[5.1295]

>  <score>  (46) 
5.1295

>  <index>  (46) 
48

>  <Smiles>  (46) 
C([C@]1(C(C(N(C(=O)C(c2c(nc(c3c(c(c(c(c23)[H])[H])[H])[H])[H])[H])([H])[H])C(C(O1)([H])[H])([H])[H])([H])[H])([H])[H])[H])([H])([H])[H]

>  <h>  (46) 
<NA>

>  <Training>  (46) 
True

>  <Success>  (46) 
True

>  <enamine_searched>  (46) 
False

>  <enamine_id>  (46) 
nan

$$$$

     RDKit          3D

 42 45  0  0  0  0  0  0  0  0999 V2000
    6.7059   -4.4285   21.6469 C   0  0  0  0  0  0  0  0  0  0  0  0
    7.3129   -3.2945   22.3434 N   0  0  0  0  0  0  0  0  0  0  0  0
    8.6150   -2.7738   21.9243 C   0  0  0  0  0  0  0  0  0  0  0  0
    8.7820   -1.2675   22.1575 C   0  0  1  0  0  0  0  0  0  0  0  0
    8.1231   -0.3330   21.1238 C   0  0  0  0  0  0  0  0  0  0  0  0
    8.7089    0.5823   20.5801 O   0  0  0  0  0  0  0  0  0  0  0  0
    6.7864   -0.5407   20.9116 N   0  0  0  0  0  0  0  0  0  0  0  0
    6.1041    0.0614   19.8293 C   0  0  0  0  0  0  0  0  0  0  0  0
    6.4943   -0.1722   18.5352 C   0  0  0  0  0  0  0  0  0  0  0  0
    5.8510    0.3125   17.4486 N   0  0  0  0  0  0  0  0  0  0  0  0
    4.7856    1.0421   17.6533 C   0  0  0  0  0  0  0  0  0  0  0  0
    4.2823    1.3777   18.9383 C   0  0  0  0  0  0  0  0  0  0  0  0
    3.1667    2.2340   19.0971 C   0  0  0  0  0  0  0  0  0  0  0  0
    2.7688    2.6088   20.3513 C   0  0  0  0  0  0  0  0  0  0  0  0
    3.4606    2.1376   21.4902 C   0  0  0  0  0  0  0  0  0  0  0  0
    4.5287    1.2851   21.3639 C   0  0  0  0  0  0  0  0  0  0  0  0
    4.9646    0.8867   20.0725 C   0  0  0  0  0  0  0  0  0  0  0  0
    5.0651    0.9266   22.2405 H   0  0  0  0  0  0  0  0  0  0  0  0
    3.1531    2.4819   22.4735 H   0  0  0  0  0  0  0  0  0  0  0  0
    1.9462    3.3055   20.4723 H   0  0  0  0  0  0  0  0  0  0  0  0
    2.6765    2.6157   18.2066 H   0  0  0  0  0  0  0  0  0  0  0  0
    4.2775    1.4307   16.7725 H   0  0  0  0  0  0  0  0  0  0  0  0
    7.3760   -0.7737   18.3261 H   0  0  0  0  0  0  0  0  0  0  0  0
    6.3698   -1.3659   21.3160 H   0  0  0  0  0  0  0  0  0  0  0  0
    8.2848   -0.9223   23.5306 C   0  0  0  0  0  0  0  0  0  0  0  0
    8.6360    0.3110   24.0737 C   0  0  0  0  0  0  0  0  0  0  0  0
    8.1102    0.6735   25.2988 C   0  0  0  0  0  0  0  0  0  0  0  0
    8.4380    2.2703   25.8904 Cl  0  0  0  0  0  0  0  0  0  0  0  0
    7.2957   -0.1881   26.0317 C   0  0  0  0  0  0  0  0  0  0  0  0
    6.9738   -1.4241   25.5039 C   0  0  0  0  0  0  0  0  0  0  0  0
    7.4032   -1.7547   24.2198 C   0  0  0  0  0  0  0  0  0  0  0  0
    6.8285   -2.9929   23.5957 C   0  0  0  0  0  0  0  0  0  0  0  0
    5.9646   -3.6484   24.1578 O   0  0  0  0  0  0  0  0  0  0  0  0
    6.3888   -2.1479   26.0681 H   0  0  0  0  0  0  0  0  0  0  0  0
    6.9142    0.1127   26.9977 H   0  0  0  0  0  0  0  0  0  0  0  0
    9.3044    0.9884   23.5498 H   0  0  0  0  0  0  0  0  0  0  0  0
    9.8479   -1.0439   22.0617 H   0  0  0  0  0  0  0  0  0  0  0  0
    9.4310   -3.2960   22.4522 H   0  0  0  0  0  0  0  0  0  0  0  0
    8.7494   -2.9619   20.8661 H   0  0  0  0  0  0  0  0  0  0  0  0
    7.4604   -5.0535   21.1595 H   0  0  0  0  0  0  0  0  0  0  0  0
    6.1736   -5.0282   22.3886 H   0  0  0  0  0  0  0  0  0  0  0  0
    5.9638   -4.1440   20.8840 H   0  0  0  0  0  0  0  0  0  0  0  0
  1  2  1  0
  2  3  1  0
  3  4  1  0
  4  5  1  0
  5  6  2  0
  5  7  1  0
  7  8  1  0
  8  9  2  0
  9 10  1  0
 10 11  2  0
 11 12  1  0
 12 13  2  0
 13 14  1  0
 14 15  2  0
 15 16  1  0
 16 17  2  0
 16 18  1  0
 15 19  1  0
 14 20  1  0
 13 21  1  0
 11 22  1  0
  9 23  1  0
  7 24  1  0
  4 25  1  0
 25 26  2  0
 26 27  1  0
 27 28  1  0
 27 29  2  0
 29 30  1  0
 30 31  2  0
 31 32  1  0
 32 33  2  0
 30 34  1  0
 29 35  1  0
 26 36  1  0
  4 37  1  1
  3 38  1  0
  3 39  1  0
  1 40  1  0
  1 41  1  0
  1 42  1  0
 32  2  1  0
 17  8  1  0
 31 25  1  0
 17 12  1  0
M  END
>  <cnnaffinities>  (47) 
[5.7933]

>  <score>  (47) 
5.7933

>  <index>  (47) 
49

>  <Smiles>  (47) 
C(N1C([C@@](C(=O)N(c2c(nc(c3c(c(c(c(c23)[H])[H])[H])[H])[H])[H])[H])(c2c(c(Cl)c(c(c2C1=O)[H])[H])[H])[H])([H])[H])([H])([H])[H]

>  <h>  (47) 
<NA>

>  <Training>  (47) 
True

>  <Success>  (47) 
True

>  <enamine_searched>  (47) 
False

>  <enamine_id>  (47) 
nan

$$$$

     RDKit          3D

 38 41  0  0  0  0  0  0  0  0999 V2000
    8.6107    1.2636   20.7274 O   0  0  0  0  0  0  0  0  0  0  0  0
    7.8636    0.6707   21.4849 C   0  0  0  0  0  0  0  0  0  0  0  0
    6.9473   -0.4383   20.9214 C   0  0  0  0  0  0  0  0  0  0  0  0
    6.1074    0.0822   19.7723 C   0  0  0  0  0  0  0  0  0  0  0  0
    6.4286   -0.2021   18.4698 C   0  0  0  0  0  0  0  0  0  0  0  0
    5.7701    0.2683   17.3775 N   0  0  0  0  0  0  0  0  0  0  0  0
    4.7289    1.0333   17.5815 C   0  0  0  0  0  0  0  0  0  0  0  0
    4.2813    1.4237   18.8718 C   0  0  0  0  0  0  0  0  0  0  0  0
    3.1676    2.2842   19.0442 C   0  0  0  0  0  0  0  0  0  0  0  0
    2.7641    2.6498   20.2994 C   0  0  0  0  0  0  0  0  0  0  0  0
    3.4613    2.1699   21.4304 C   0  0  0  0  0  0  0  0  0  0  0  0
    4.5445    1.3365   21.2880 C   0  0  0  0  0  0  0  0  0  0  0  0
    4.9883    0.9408   19.9982 C   0  0  0  0  0  0  0  0  0  0  0  0
    5.0714    0.9874   22.1709 H   0  0  0  0  0  0  0  0  0  0  0  0
    3.1354    2.4672   22.4213 H   0  0  0  0  0  0  0  0  0  0  0  0
    1.9130    3.3110   20.4339 H   0  0  0  0  0  0  0  0  0  0  0  0
    2.6469    2.6514   18.1625 H   0  0  0  0  0  0  0  0  0  0  0  0
    4.1976    1.3974   16.6998 H   0  0  0  0  0  0  0  0  0  0  0  0
    7.2718   -0.8549   18.2449 H   0  0  0  0  0  0  0  0  0  0  0  0
    6.3030   -0.8993   21.6776 H   0  0  0  0  0  0  0  0  0  0  0  0
    7.6000   -1.2280   20.5334 H   0  0  0  0  0  0  0  0  0  0  0  0
    7.7612    1.0127   22.8216 N   0  0  0  0  0  0  0  0  0  0  0  0
    8.3093    2.3199   23.2099 C   0  0  0  0  0  0  0  0  0  0  0  0
    7.6741    2.8463   24.4935 C   0  0  0  0  0  0  0  0  0  0  0  0
    7.7377    1.7983   25.5535 C   0  0  0  0  0  0  0  0  0  0  0  0
    7.7854    2.0749   27.2601 S   0  0  0  0  0  0  0  0  0  0  0  0
    7.7567    0.3753   27.5650 C   0  0  0  0  0  0  0  0  0  0  0  0
    7.7083   -0.3545   26.4134 C   0  0  0  0  0  0  0  0  0  0  0  0
    7.6952    0.4764   25.2525 C   0  0  0  0  0  0  0  0  0  0  0  0
    7.5145   -0.0058   23.8386 C   0  0  0  0  0  0  0  0  0  0  0  0
    8.1573   -0.8826   23.6946 H   0  0  0  0  0  0  0  0  0  0  0  0
    6.4913   -0.3922   23.7462 H   0  0  0  0  0  0  0  0  0  0  0  0
    7.6689   -1.4416   26.3966 H   0  0  0  0  0  0  0  0  0  0  0  0
    7.8216    0.0058   28.5802 H   0  0  0  0  0  0  0  0  0  0  0  0
    8.1603    3.7689   24.8180 H   0  0  0  0  0  0  0  0  0  0  0  0
    6.6233    3.1051   24.3130 H   0  0  0  0  0  0  0  0  0  0  0  0
    9.3970    2.2732   23.3354 H   0  0  0  0  0  0  0  0  0  0  0  0
    8.1198    3.0139   22.3902 H   0  0  0  0  0  0  0  0  0  0  0  0
  1  2  2  0
  2  3  1  0
  3  4  1  0
  4  5  2  0
  5  6  1  0
  6  7  2  0
  7  8  1  0
  8  9  2  0
  9 10  1  0
 10 11  2  0
 11 12  1  0
 12 13  2  0
 12 14  1  0
 11 15  1  0
 10 16  1  0
  9 17  1  0
  7 18  1  0
  5 19  1  0
  3 20  1  0
  3 21  1  0
  2 22  1  0
 22 23  1  0
 23 24  1  0
 24 25  1  0
 25 26  1  0
 26 27  1  0
 27 28  2  0
 28 29  1  0
 29 30  1  0
 30 31  1  0
 30 32  1  0
 28 33  1  0
 27 34  1  0
 24 35  1  0
 24 36  1  0
 23 37  1  0
 23 38  1  0
 13  4  1  0
 30 22  1  0
 13  8  1  0
 29 25  2  0
M  END
>  <cnnaffinities>  (48) 
[5.22171, 5.37123, 5.2982]

>  <score>  (48) 
5.22171

>  <index>  (48) 
50

>  <Smiles>  (48) 
O=C(C(c1c(nc(c2c(c(c(c(c12)[H])[H])[H])[H])[H])[H])([H])[H])N1C(C(c2sc(c(c2C1([H])[H])[H])[H])([H])[H])([H])[H]

>  <h>  (48) 
<NA>

>  <Training>  (48) 
True

>  <Success>  (48) 
True

>  <enamine_searched>  (48) 
False

>  <enamine_id>  (48) 
nan

$$$$

     RDKit          3D

 67 73  0  0  0  0  0  0  0  0999 V2000
    7.1255    3.3439   29.5503 C   0  0  0  0  0  0  0  0  0  0  0  0
    6.7045    2.7338   28.2627 C   0  0  0  0  0  0  0  0  0  0  0  0
    5.7113    1.9451   28.0361 N   0  0  0  0  0  0  0  0  0  0  0  0
    5.7129    1.6951   26.6677 N   0  0  0  0  0  0  0  0  0  0  0  0
    6.7018    2.3562   26.1786 C   0  0  0  0  0  0  0  0  0  0  0  0
    7.1177    2.4581   24.7422 C   0  0  0  0  0  0  0  0  0  0  0  0
    8.0338    1.4132   24.3315 N   0  0  0  0  0  0  0  0  0  0  0  0
    7.5609    0.0722   24.0560 C   0  0  0  0  0  0  0  0  0  0  0  0
    8.3339   -0.5316   22.8460 C   0  0  2  0  0  0  0  0  0  0  0  0
    7.9673    0.3011   21.5830 C   0  0  0  0  0  0  0  0  0  0  0  0
    8.4164    1.3593   21.2137 O   0  0  0  0  0  0  0  0  0  0  0  0
    6.9520   -0.3821   20.9287 N   0  0  0  0  0  0  0  0  0  0  0  0
    6.2089    0.1683   19.8542 C   0  0  0  0  0  0  0  0  0  0  0  0
    6.5478   -0.1484   18.5651 C   0  0  0  0  0  0  0  0  0  0  0  0
    5.8797    0.2839   17.4678 N   0  0  0  0  0  0  0  0  0  0  0  0
    4.8232    1.0329   17.6541 C   0  0  0  0  0  0  0  0  0  0  0  0
    4.3540    1.4348   18.9349 C   0  0  0  0  0  0  0  0  0  0  0  0
    3.2103    2.2598   19.0828 C   0  0  0  0  0  0  0  0  0  0  0  0
    2.7692    2.6090   20.3283 C   0  0  0  0  0  0  0  0  0  0  0  0
    3.4434    2.1461   21.4805 C   0  0  0  0  0  0  0  0  0  0  0  0
    4.5592    1.3548   21.3610 C   0  0  0  0  0  0  0  0  0  0  0  0
    5.0530    0.9876   20.0784 C   0  0  0  0  0  0  0  0  0  0  0  0
    5.0695    0.9989   22.2520 H   0  0  0  0  0  0  0  0  0  0  0  0
    3.0781    2.4243   22.4643 H   0  0  0  0  0  0  0  0  0  0  0  0
    1.8955    3.2438   20.4400 H   0  0  0  0  0  0  0  0  0  0  0  0
    2.7070    2.6061   18.1835 H   0  0  0  0  0  0  0  0  0  0  0  0
    4.2829    1.3653   16.7662 H   0  0  0  0  0  0  0  0  0  0  0  0
    7.4074   -0.7904   18.3773 H   0  0  0  0  0  0  0  0  0  0  0  0
    6.6138   -1.6721   21.4956 C   0  0  0  0  0  0  0  0  0  0  0  0
    7.7929   -1.9182   22.4454 C   0  0  2  0  0  0  0  0  0  0  0  0
    7.5351   -2.8272   23.6435 C   0  0  0  0  0  0  0  0  0  0  0  0
    7.3686   -4.2190   23.3046 N   0  0  0  0  0  0  0  0  0  0  0  0
    6.2077   -4.7769   22.8600 C   0  0  0  0  0  0  0  0  0  0  0  0
    4.9423   -4.2253   23.1283 C   0  0  0  0  0  0  0  0  0  0  0  0
    3.8538   -4.9728   22.7314 C   0  0  0  0  0  0  0  0  0  0  0  0
    3.9506   -6.1416   22.0903 N   0  0  0  0  0  0  0  0  0  0  0  0
    5.1920   -6.5446   21.8566 C   0  0  0  0  0  0  0  0  0  0  0  0
    6.3241   -5.9434   22.2052 N   0  0  0  0  0  0  0  0  0  0  0  0
    5.2961   -7.4771   21.3010 H   0  0  0  0  0  0  0  0  0  0  0  0
    2.8435   -4.6224   22.9281 H   0  0  0  0  0  0  0  0  0  0  0  0
    4.8189   -3.2688   23.6253 H   0  0  0  0  0  0  0  0  0  0  0  0
    8.1913   -4.6712   22.9400 H   0  0  0  0  0  0  0  0  0  0  0  0
    6.6704   -2.4825   24.2147 H   0  0  0  0  0  0  0  0  0  0  0  0
    8.3963   -2.7359   24.3156 H   0  0  0  0  0  0  0  0  0  0  0  0
    8.5634   -2.3961   21.8313 H   0  0  0  0  0  0  0  0  0  0  0  0
    5.6353   -1.6619   22.0054 H   0  0  0  0  0  0  0  0  0  0  0  0
    6.5542   -2.4219   20.6988 H   0  0  0  0  0  0  0  0  0  0  0  0
    9.8058   -0.5321   23.2379 C   0  0  0  0  0  0  0  0  0  0  0  0
   10.7468   -1.4769   22.7770 C   0  0  0  0  0  0  0  0  0  0  0  0
   12.0742   -1.3916   23.1683 C   0  0  0  0  0  0  0  0  0  0  0  0
   13.2442   -2.4839   22.4730 Cl  0  0  0  0  0  0  0  0  0  0  0  0
   12.5134   -0.4286   24.0730 C   0  0  0  0  0  0  0  0  0  0  0  0
   11.5913    0.5017   24.5231 C   0  0  0  0  0  0  0  0  0  0  0  0
   10.2657    0.4875   24.0854 C   0  0  0  0  0  0  0  0  0  0  0  0
    9.3798    1.6597   24.4213 C   0  0  0  0  0  0  0  0  0  0  0  0
    9.8211    2.7576   24.7306 O   0  0  0  0  0  0  0  0  0  0  0  0
   11.8949    1.2756   25.2108 H   0  0  0  0  0  0  0  0  0  0  0  0
   13.5507   -0.4245   24.4047 H   0  0  0  0  0  0  0  0  0  0  0  0
   10.4689   -2.2850   22.1103 H   0  0  0  0  0  0  0  0  0  0  0  0
    7.7228   -0.5673   24.9345 H   0  0  0  0  0  0  0  0  0  0  0  0
    6.4816    0.0978   23.8642 H   0  0  0  0  0  0  0  0  0  0  0  0
    7.6350    3.4061   24.5815 H   0  0  0  0  0  0  0  0  0  0  0  0
    6.2080    2.4225   24.1286 H   0  0  0  0  0  0  0  0  0  0  0  0
    7.3939    3.0336   27.1288 O   0  0  0  0  0  0  0  0  0  0  0  0
    7.4850    4.3606   29.3840 H   0  0  0  0  0  0  0  0  0  0  0  0
    6.2732    3.3654   30.2300 H   0  0  0  0  0  0  0  0  0  0  0  0
    7.9273    2.7724   30.0301 H   0  0  0  0  0  0  0  0  0  0  0  0
  1  2  1  0
  2  3  2  0
  3  4  1  0
  4  5  2  0
  5  6  1  0
  6  7  1  0
  7  8  1  0
  9  8  1  1
  9 10  1  0
 10 11  2  0
 10 12  1  0
 12 13  1  0
 13 14  2  0
 14 15  1  0
 15 16  2  0
 16 17  1  0
 17 18  2  0
 18 19  1  0
 19 20  2  0
 20 21  1  0
 21 22  2  0
 21 23  1  0
 20 24  1  0
 19 25  1  0
 18 26  1  0
 16 27  1  0
 14 28  1  0
 12 29  1  0
 29 30  1  0
 30 31  1  0
 31 32  1  0
 32 33  1  0
 33 34  2  0
 34 35  1  0
 35 36  2  0
 36 37  1  0
 37 38  2  0
 37 39  1  0
 35 40  1  0
 34 41  1  0
 32 42  1  0
 31 43  1  0
 31 44  1  0
 30 45  1  6
 29 46  1  0
 29 47  1  0
  9 48  1  0
 48 49  2  0
 49 50  1  0
 50 51  1  0
 50 52  2  0
 52 53  1  0
 53 54  2  0
 54 55  1  0
 55 56  2  0
 53 57  1  0
 52 58  1  0
 49 59  1  0
  8 60  1  0
  8 61  1  0
  6 62  1  0
  6 63  1  0
  5 64  1  0
  1 65  1  0
  1 66  1  0
  1 67  1  0
 64  2  1  0
 55  7  1  0
 30  9  1  0
 38 33  1  0
 54 48  1  0
 22 13  1  0
 22 17  1  0
M  END
>  <cnnaffinities>  (49) 
[7.26749]

>  <score>  (49) 
7.26749

>  <index>  (49) 
51

>  <Smiles>  (49) 
C(c1nnc(C(N2C([C@@]3(C(=O)N(c4c(nc(c5c(c(c(c(c45)[H])[H])[H])[H])[H])[H])C([C@@]3(C(N(c3c(c(nc(n3)[H])[H])[H])[H])([H])[H])[H])([H])[H])c3c(c(Cl)c(c(c3C2=O)[H])[H])[H])([H])[H])([H])[H])o1)([H])([H])[H]

>  <h>  (49) 
<NA>

>  <Training>  (49) 
True

>  <Success>  (49) 
True

>  <enamine_searched>  (49) 
False

>  <enamine_id>  (49) 
nan

$$$$

     RDKit          3D

 66 71  0  0  0  0  0  0  0  0999 V2000
    8.0366    5.6192   22.8079 C   0  0  0  0  0  0  0  0  0  0  0  0
    8.0454    4.5810   23.8203 N   0  0  0  0  0  0  0  0  0  0  0  0
    7.1418    3.5625   23.7365 C   0  0  0  0  0  0  0  0  0  0  0  0
    6.2783    3.5033   22.8769 O   0  0  0  0  0  0  0  0  0  0  0  0
    7.2898    2.4822   24.8176 C   0  0  0  0  0  0  0  0  0  0  0  0
    8.1360    1.3919   24.3426 N   0  0  0  0  0  0  0  0  0  0  0  0
    7.5883    0.0853   24.0131 C   0  0  0  0  0  0  0  0  0  0  0  0
    8.3513   -0.5854   22.8313 C   0  0  2  0  0  0  0  0  0  0  0  0
    8.0359    0.2049   21.5194 C   0  0  0  0  0  0  0  0  0  0  0  0
    8.5855    1.1782   21.0579 O   0  0  0  0  0  0  0  0  0  0  0  0
    6.9305   -0.4049   20.9448 N   0  0  0  0  0  0  0  0  0  0  0  0
    6.2046    0.1526   19.8604 C   0  0  0  0  0  0  0  0  0  0  0  0
    6.5622   -0.1500   18.5733 C   0  0  0  0  0  0  0  0  0  0  0  0
    5.8992    0.2783   17.4725 N   0  0  0  0  0  0  0  0  0  0  0  0
    4.8308    1.0149   17.6552 C   0  0  0  0  0  0  0  0  0  0  0  0
    4.3458    1.4125   18.9319 C   0  0  0  0  0  0  0  0  0  0  0  0
    3.1990    2.2370   19.0797 C   0  0  0  0  0  0  0  0  0  0  0  0
    2.7615    2.5948   20.3256 C   0  0  0  0  0  0  0  0  0  0  0  0
    3.4467    2.1421   21.4735 C   0  0  0  0  0  0  0  0  0  0  0  0
    4.5619    1.3499   21.3549 C   0  0  0  0  0  0  0  0  0  0  0  0
    5.0438    0.9678   20.0766 C   0  0  0  0  0  0  0  0  0  0  0  0
    5.1012    1.0334   22.2425 H   0  0  0  0  0  0  0  0  0  0  0  0
    3.0994    2.4383   22.4579 H   0  0  0  0  0  0  0  0  0  0  0  0
    1.8913    3.2345   20.4354 H   0  0  0  0  0  0  0  0  0  0  0  0
    2.6920    2.5801   18.1827 H   0  0  0  0  0  0  0  0  0  0  0  0
    4.2976    1.3396   16.7635 H   0  0  0  0  0  0  0  0  0  0  0  0
    7.4340   -0.7789   18.3985 H   0  0  0  0  0  0  0  0  0  0  0  0
    6.5792   -1.6952   21.5036 C   0  0  0  0  0  0  0  0  0  0  0  0
    7.7476   -1.9668   22.4622 C   0  0  2  0  0  0  0  0  0  0  0  0
    7.3843   -2.8954   23.6272 C   0  0  0  0  0  0  0  0  0  0  0  0
    7.1917   -4.2709   23.2012 N   0  0  0  0  0  0  0  0  0  0  0  0
    5.9887   -4.8509   22.9422 C   0  0  0  0  0  0  0  0  0  0  0  0
    5.9291   -6.0630   22.2105 C   0  0  0  0  0  0  0  0  0  0  0  0
    4.6858   -6.6309   22.0577 C   0  0  0  0  0  0  0  0  0  0  0  0
    3.5595   -6.0842   22.5421 N   0  0  0  0  0  0  0  0  0  0  0  0
    3.7332   -4.9452   23.1950 C   0  0  0  0  0  0  0  0  0  0  0  0
    4.8713   -4.2851   23.4148 N   0  0  0  0  0  0  0  0  0  0  0  0
    2.8359   -4.4928   23.6139 H   0  0  0  0  0  0  0  0  0  0  0  0
    4.5623   -7.5742   21.5251 H   0  0  0  0  0  0  0  0  0  0  0  0
    6.8258   -6.5243   21.8047 H   0  0  0  0  0  0  0  0  0  0  0  0
    8.0047   -4.7547   22.8558 H   0  0  0  0  0  0  0  0  0  0  0  0
    6.4609   -2.5685   24.1135 H   0  0  0  0  0  0  0  0  0  0  0  0
    8.1817   -2.8652   24.3787 H   0  0  0  0  0  0  0  0  0  0  0  0
    8.5156   -2.4667   21.8653 H   0  0  0  0  0  0  0  0  0  0  0  0
    6.5108   -2.4447   20.7036 H   0  0  0  0  0  0  0  0  0  0  0  0
    5.6051   -1.6783   22.0222 H   0  0  0  0  0  0  0  0  0  0  0  0
    9.8225   -0.6223   23.2191 C   0  0  0  0  0  0  0  0  0  0  0  0
   10.7296   -1.5728   22.7225 C   0  0  0  0  0  0  0  0  0  0  0  0
   12.0656   -1.5206   23.0802 C   0  0  0  0  0  0  0  0  0  0  0  0
   13.1985   -2.6201   22.3482 Cl  0  0  0  0  0  0  0  0  0  0  0  0
   12.5492   -0.5679   23.9756 C   0  0  0  0  0  0  0  0  0  0  0  0
   11.6685    0.3839   24.4590 C   0  0  0  0  0  0  0  0  0  0  0  0
   10.3280    0.3832   24.0578 C   0  0  0  0  0  0  0  0  0  0  0  0
    9.4828    1.5715   24.4137 C   0  0  0  0  0  0  0  0  0  0  0  0
    9.9820    2.6491   24.7395 O   0  0  0  0  0  0  0  0  0  0  0  0
   12.0173    1.1748   25.1134 H   0  0  0  0  0  0  0  0  0  0  0  0
   13.5973   -0.5707   24.2655 H   0  0  0  0  0  0  0  0  0  0  0  0
   10.4144   -2.3590   22.0496 H   0  0  0  0  0  0  0  0  0  0  0  0
    7.6785   -0.5609   24.8956 H   0  0  0  0  0  0  0  0  0  0  0  0
    6.5288    0.1975   23.7548 H   0  0  0  0  0  0  0  0  0  0  0  0
    7.7447    2.8995   25.7225 H   0  0  0  0  0  0  0  0  0  0  0  0
    6.2948    2.1008   25.0727 H   0  0  0  0  0  0  0  0  0  0  0  0
    8.9213    4.3595   24.2765 H   0  0  0  0  0  0  0  0  0  0  0  0
    8.2734    5.2261   21.8139 H   0  0  0  0  0  0  0  0  0  0  0  0
    7.0419    6.0680   22.7573 H   0  0  0  0  0  0  0  0  0  0  0  0
    8.7656    6.3886   23.0798 H   0  0  0  0  0  0  0  0  0  0  0  0
  1  2  1  0
  2  3  1  0
  3  4  2  0
  3  5  1  0
  5  6  1  0
  6  7  1  0
  8  7  1  1
  8  9  1  0
  9 10  2  0
  9 11  1  0
 11 12  1  0
 12 13  2  0
 13 14  1  0
 14 15  2  0
 15 16  1  0
 16 17  2  0
 17 18  1  0
 18 19  2  0
 19 20  1  0
 20 21  2  0
 20 22  1  0
 19 23  1  0
 18 24  1  0
 17 25  1  0
 15 26  1  0
 13 27  1  0
 11 28  1  0
 28 29  1  0
 29 30  1  0
 30 31  1  0
 31 32  1  0
 32 33  2  0
 33 34  1  0
 34 35  2  0
 35 36  1  0
 36 37  2  0
 36 38  1  0
 34 39  1  0
 33 40  1  0
 31 41  1  0
 30 42  1  0
 30 43  1  0
 29 44  1  6
 28 45  1  0
 28 46  1  0
  8 47  1  0
 47 48  2  0
 48 49  1  0
 49 50  1  0
 49 51  2  0
 51 52  1  0
 52 53  2  0
 53 54  1  0
 54 55  2  0
 52 56  1  0
 51 57  1  0
 48 58  1  0
  7 59  1  0
  7 60  1  0
  5 61  1  0
  5 62  1  0
  2 63  1  0
  1 64  1  0
  1 65  1  0
  1 66  1  0
 54  6  1  0
 29  8  1  0
 37 32  1  0
 53 47  1  0
 21 12  1  0
 21 16  1  0
M  END
>  <cnnaffinities>  (50) 
[7.52645]

>  <score>  (50) 
7.52645

>  <index>  (50) 
52

>  <Smiles>  (50) 
C(N(C(=O)C(N1C([C@@]2(C(=O)N(c3c(nc(c4c(c(c(c(c34)[H])[H])[H])[H])[H])[H])C([C@@]2(C(N(c2c(c(nc(n2)[H])[H])[H])[H])([H])[H])[H])([H])[H])c2c(c(Cl)c(c(c2C1=O)[H])[H])[H])([H])[H])([H])[H])[H])([H])([H])[H]

>  <h>  (50) 
<NA>

>  <Training>  (50) 
True

>  <Success>  (50) 
True

>  <enamine_searched>  (50) 
False

>  <enamine_id>  (50) 
nan

$$$$

     RDKit          3D

 77 84  0  0  0  0  0  0  0  0999 V2000
   11.1805    1.1108   24.8833 O   0  0  0  0  0  0  0  0  0  0  0  0
   10.4057    0.4811   24.1816 C   0  0  0  0  0  0  0  0  0  0  0  0
   10.8581   -0.6840   23.3422 C   0  0  0  0  0  0  0  0  0  0  0  0
   12.2321   -0.9183   23.2791 C   0  0  0  0  0  0  0  0  0  0  0  0
   12.7500   -1.8090   22.3641 C   0  0  0  0  0  0  0  0  0  0  0  0
   11.8681   -2.5107   21.5410 C   0  0  0  0  0  0  0  0  0  0  0  0
   12.5374   -3.5851   20.3430 Cl  0  0  0  0  0  0  0  0  0  0  0  0
   10.4974   -2.3328   21.6269 C   0  0  0  0  0  0  0  0  0  0  0  0
    9.9649   -1.3842   22.5160 C   0  0  0  0  0  0  0  0  0  0  0  0
    8.4851   -1.0430   22.4786 C   0  0  1  0  0  0  0  0  0  0  0  0
    8.1274   -0.2435   23.7577 C   0  0  0  0  0  0  0  0  0  0  0  0
    9.0837    0.8086   24.0159 N   0  0  0  0  0  0  0  0  0  0  0  0
    8.6258    2.1702   24.2041 C   0  0  0  0  0  0  0  0  0  0  0  0
    8.1781    2.7954   22.8843 C   0  0  0  0  0  0  0  0  0  0  0  0
    7.6445    4.1623   23.1610 N   0  0  0  0  0  4  0  0  0  0  0  0
    8.6429    5.2310   23.6174 C   0  0  0  0  0  0  0  0  0  0  0  0
    8.1683    6.1943   22.5178 C   0  0  0  0  0  0  0  0  0  0  0  0
    9.2110    6.8055   21.6022 C   0  0  0  0  0  0  0  0  0  0  0  0
    9.0744    8.0693   22.2632 O   0  0  0  0  0  0  0  0  0  0  0  0
    7.8189    7.6484   22.8079 C   0  0  0  0  0  0  0  0  0  0  0  0
    6.9759    7.9925   22.1878 H   0  0  0  0  0  0  0  0  0  0  0  0
    7.6883    7.9814   23.8432 H   0  0  0  0  0  0  0  0  0  0  0  0
    8.8564    6.8536   20.5628 H   0  0  0  0  0  0  0  0  0  0  0  0
   10.2208    6.3821   21.6409 H   0  0  0  0  0  0  0  0  0  0  0  0
    7.2060    5.0895   22.0393 C   0  0  0  0  0  0  0  0  0  0  0  0
    7.4417    4.6795   21.0583 H   0  0  0  0  0  0  0  0  0  0  0  0
    6.1395    5.2968   22.1147 H   0  0  0  0  0  0  0  0  0  0  0  0
    8.4690    5.5148   24.6508 H   0  0  0  0  0  0  0  0  0  0  0  0
    9.6638    4.8766   23.4846 H   0  0  0  0  0  0  0  0  0  0  0  0
    6.8601    4.0550   23.8282 H   0  0  0  0  0  0  0  0  0  0  0  0
    7.3781    2.2318   22.3983 H   0  0  0  0  0  0  0  0  0  0  0  0
    9.0160    2.8671   22.1867 H   0  0  0  0  0  0  0  0  0  0  0  0
    9.4545    2.7221   24.6634 H   0  0  0  0  0  0  0  0  0  0  0  0
    7.7774    2.1844   24.9070 H   0  0  0  0  0  0  0  0  0  0  0  0
    8.1271   -0.9271   24.6161 H   0  0  0  0  0  0  0  0  0  0  0  0
    7.1150    0.1726   23.6731 H   0  0  0  0  0  0  0  0  0  0  0  0
    8.0883   -0.1941   21.2380 C   0  0  0  0  0  0  0  0  0  0  0  0
    8.7191    0.6938   20.7015 O   0  0  0  0  0  0  0  0  0  0  0  0
    6.8173   -0.5625   20.8596 N   0  0  0  0  0  0  0  0  0  0  0  0
    6.1380    0.0745   19.7954 C   0  0  0  0  0  0  0  0  0  0  0  0
    6.5351   -0.1475   18.5020 C   0  0  0  0  0  0  0  0  0  0  0  0
    5.8797    0.3352   17.4198 N   0  0  0  0  0  0  0  0  0  0  0  0
    4.8084    1.0594   17.6250 C   0  0  0  0  0  0  0  0  0  0  0  0
    4.3276    1.4207   18.9138 C   0  0  0  0  0  0  0  0  0  0  0  0
    3.2070    2.2752   19.0861 C   0  0  0  0  0  0  0  0  0  0  0  0
    2.8095    2.6490   20.3400 C   0  0  0  0  0  0  0  0  0  0  0  0
    3.5103    2.1867   21.4764 C   0  0  0  0  0  0  0  0  0  0  0  0
    4.5901    1.3467   21.3366 C   0  0  0  0  0  0  0  0  0  0  0  0
    5.0188    0.9325   20.0451 C   0  0  0  0  0  0  0  0  0  0  0  0
    5.1293    1.0085   22.2177 H   0  0  0  0  0  0  0  0  0  0  0  0
    3.1927    2.4980   22.4668 H   0  0  0  0  0  0  0  0  0  0  0  0
    1.9594    3.3133   20.4698 H   0  0  0  0  0  0  0  0  0  0  0  0
    2.6895    2.6350   18.2011 H   0  0  0  0  0  0  0  0  0  0  0  0
    4.2701    1.4145   16.7446 H   0  0  0  0  0  0  0  0  0  0  0  0
    7.4136   -0.7553   18.2937 H   0  0  0  0  0  0  0  0  0  0  0  0
    6.2668   -1.6512   21.6395 C   0  0  0  0  0  0  0  0  0  0  0  0
    7.5191   -2.2423   22.3126 C   0  0  2  0  0  0  0  0  0  0  0  0
    7.2133   -3.0329   23.5904 C   0  0  0  0  0  0  0  0  0  0  0  0
    6.3449   -4.1588   23.3372 N   0  0  0  0  0  0  0  0  0  0  0  0
    6.8456   -5.3266   22.8551 C   0  0  0  0  0  0  0  0  0  0  0  0
    5.9489   -6.0823   22.1914 N   0  0  0  0  0  0  0  0  0  0  0  0
    6.3513   -7.2966   21.8670 C   0  0  0  0  0  0  0  0  0  0  0  0
    7.6314   -7.7789   22.1557 C   0  0  0  0  0  0  0  0  0  0  0  0
    8.4936   -6.8879   22.7791 C   0  0  0  0  0  0  0  0  0  0  0  0
    8.1164   -5.6530   23.1247 N   0  0  0  0  0  0  0  0  0  0  0  0
    9.4980   -7.1708   23.0874 H   0  0  0  0  0  0  0  0  0  0  0  0
    7.8929   -8.8155   22.0049 H   0  0  0  0  0  0  0  0  0  0  0  0
    5.6015   -7.8923   21.3530 H   0  0  0  0  0  0  0  0  0  0  0  0
    5.4224   -3.9550   22.9720 H   0  0  0  0  0  0  0  0  0  0  0  0
    6.7104   -2.4030   24.3327 H   0  0  0  0  0  0  0  0  0  0  0  0
    8.1367   -3.4074   24.0442 H   0  0  0  0  0  0  0  0  0  0  0  0
    7.9731   -2.9355   21.5984 H   0  0  0  0  0  0  0  0  0  0  0  0
    5.7565   -2.3664   20.9838 H   0  0  0  0  0  0  0  0  0  0  0  0
    5.5399   -1.2903   22.3885 H   0  0  0  0  0  0  0  0  0  0  0  0
    9.8423   -2.8861   20.9615 H   0  0  0  0  0  0  0  0  0  0  0  0
   13.8206   -1.9253   22.2328 H   0  0  0  0  0  0  0  0  0  0  0  0
   12.8857   -0.3463   23.9299 H   0  0  0  0  0  0  0  0  0  0  0  0
  1  2  2  0
  2  3  1  0
  3  4  2  0
  4  5  1  0
  5  6  2  0
  6  7  1  0
  6  8  1  0
  8  9  2  0
  9 10  1  0
 10 11  1  1
 11 12  1  0
 12 13  1  0
 13 14  1  0
 14 15  1  0
 15 16  1  0
 16 17  1  0
 17 18  1  0
 18 19  1  0
 19 20  1  0
 20 21  1  0
 20 22  1  0
 18 23  1  0
 18 24  1  0
 17 25  1  0
 25 26  1  0
 25 27  1  0
 16 28  1  0
 16 29  1  0
 15 30  1  0
 14 31  1  0
 14 32  1  0
 13 33  1  0
 13 34  1  0
 11 35  1  0
 11 36  1  0
 10 37  1  0
 37 38  2  0
 37 39  1  0
 39 40  1  0
 40 41  2  0
 41 42  1  0
 42 43  2  0
 43 44  1  0
 44 45  2  0
 45 46  1  0
 46 47  2  0
 47 48  1  0
 48 49  2  0
 48 50  1  0
 47 51  1  0
 46 52  1  0
 45 53  1  0
 43 54  1  0
 41 55  1  0
 39 56  1  0
 56 57  1  0
 57 58  1  0
 58 59  1  0
 59 60  1  0
 60 61  2  0
 61 62  1  0
 62 63  2  0
 63 64  1  0
 64 65  2  0
 64 66  1  0
 63 67  1  0
 62 68  1  0
 59 69  1  0
 58 70  1  0
 58 71  1  0
 57 72  1  6
 56 73  1  0
 56 74  1  0
  8 75  1  0
  5 76  1  0
  4 77  1  0
 12  2  1  0
 25 15  1  0
 49 40  1  0
 65 60  1  0
  9  3  1  0
 57 10  1  0
 20 17  1  0
 49 44  1  0
M  CHG  1  15   1
M  END
>  <cnnaffinities>  (51) 
[7.57305]

>  <score>  (51) 
7.57305

>  <index>  (51) 
53

>  <Smiles>  (51) 
O=C1c2c(c(c(Cl)c(c2[C@@]2(C(N1C(C([N+]1(C(C3(C(OC3([H])[H])([H])[H])C1([H])[H])([H])[H])[H])([H])[H])([H])[H])([H])[H])C(=O)N(c1c(nc(c3c(c(c(c(c13)[H])[H])[H])[H])[H])[H])C([C@@]2(C(N(c1nc(c(c(n1)[H])[H])[H])[H])([H])[H])[H])([H])[H])[H])[H])[H]

>  <h>  (51) 
<NA>

>  <Training>  (51) 
True

>  <Success>  (51) 
True

>  <enamine_searched>  (51) 
False

>  <enamine_id>  (51) 
nan

$$$$

     RDKit          3D

 66 71  0  0  0  0  0  0  0  0999 V2000
    6.1628    1.6990   28.8100 C   0  0  0  0  0  0  0  0  0  0  0  0
    6.5294    2.0810   27.4620 N   0  0  0  0  0  0  0  0  0  0  0  0
    5.9928    1.3909   26.4204 C   0  0  0  0  0  0  0  0  0  0  0  0
    5.2180    0.4623   26.5660 O   0  0  0  0  0  0  0  0  0  0  0  0
    6.4508    1.8569   25.0394 C   0  0  0  0  0  0  0  0  0  0  0  0
    7.5540    1.0572   24.5642 N   0  0  0  0  0  0  0  0  0  0  0  0
    7.3359   -0.3032   24.1055 C   0  0  0  0  0  0  0  0  0  0  0  0
    8.2445   -0.6024   22.8728 C   0  0  2  0  0  0  0  0  0  0  0  0
    7.8109    0.3213   21.7025 C   0  0  0  0  0  0  0  0  0  0  0  0
    8.1033    1.4813   21.5366 O   0  0  0  0  0  0  0  0  0  0  0  0
    6.9990   -0.4193   20.8586 N   0  0  0  0  0  0  0  0  0  0  0  0
    6.2045    0.1404   19.8251 C   0  0  0  0  0  0  0  0  0  0  0  0
    6.5075   -0.1794   18.5259 C   0  0  0  0  0  0  0  0  0  0  0  0
    5.8398    0.2712   17.4386 N   0  0  0  0  0  0  0  0  0  0  0  0
    4.7966    1.0333   17.6425 C   0  0  0  0  0  0  0  0  0  0  0  0
    4.3421    1.4175   18.9320 C   0  0  0  0  0  0  0  0  0  0  0  0
    3.2050    2.2531   19.0786 C   0  0  0  0  0  0  0  0  0  0  0  0
    2.7558    2.5975   20.3211 C   0  0  0  0  0  0  0  0  0  0  0  0
    3.4198    2.1122   21.4701 C   0  0  0  0  0  0  0  0  0  0  0  0
    4.5293    1.3093   21.3532 C   0  0  0  0  0  0  0  0  0  0  0  0
    5.0411    0.9521   20.0720 C   0  0  0  0  0  0  0  0  0  0  0  0
    5.0168    0.9426   22.2530 H   0  0  0  0  0  0  0  0  0  0  0  0
    3.0440    2.3837   22.4518 H   0  0  0  0  0  0  0  0  0  0  0  0
    1.8908    3.2452   20.4313 H   0  0  0  0  0  0  0  0  0  0  0  0
    2.7108    2.6119   18.1790 H   0  0  0  0  0  0  0  0  0  0  0  0
    4.2465    1.3866   16.7681 H   0  0  0  0  0  0  0  0  0  0  0  0
    7.3546   -0.8337   18.3254 H   0  0  0  0  0  0  0  0  0  0  0  0
    6.8185   -1.7985   21.2810 C   0  0  0  0  0  0  0  0  0  0  0  0
    7.9825   -1.9991   22.2605 C   0  0  2  0  0  0  0  0  0  0  0  0
    7.8607   -3.1352   23.2849 C   0  0  0  0  0  0  0  0  0  0  0  0
    6.5608   -3.2871   23.8989 N   0  0  0  0  0  0  0  0  0  0  0  0
    5.5716   -4.1033   23.4248 C   0  0  0  0  0  0  0  0  0  0  0  0
    5.6722   -4.7769   22.1837 C   0  0  0  0  0  0  0  0  0  0  0  0
    4.7027   -5.5477   21.7190 N   0  0  0  0  0  0  0  0  0  0  0  0
    3.6103   -5.6635   22.4807 C   0  0  0  0  0  0  0  0  0  0  0  0
    3.5123   -5.0054   23.6954 C   0  0  0  0  0  0  0  0  0  0  0  0
    4.4835   -4.2325   24.1804 N   0  0  0  0  0  0  0  0  0  0  0  0
    2.6134   -5.0863   24.3028 H   0  0  0  0  0  0  0  0  0  0  0  0
    2.8028   -6.2871   22.1044 H   0  0  0  0  0  0  0  0  0  0  0  0
    6.5575   -4.6679   21.5596 H   0  0  0  0  0  0  0  0  0  0  0  0
    6.3368   -2.8152   24.7661 H   0  0  0  0  0  0  0  0  0  0  0  0
    8.1224   -4.0915   22.8249 H   0  0  0  0  0  0  0  0  0  0  0  0
    8.6051   -2.9632   24.0748 H   0  0  0  0  0  0  0  0  0  0  0  0
    8.8513   -2.2243   21.6321 H   0  0  0  0  0  0  0  0  0  0  0  0
    5.8309   -1.9335   21.7384 H   0  0  0  0  0  0  0  0  0  0  0  0
    6.8616   -2.4762   20.4232 H   0  0  0  0  0  0  0  0  0  0  0  0
    9.6713   -0.3538   23.3413 C   0  0  0  0  0  0  0  0  0  0  0  0
   10.7858   -1.1023   22.9289 C   0  0  0  0  0  0  0  0  0  0  0  0
   12.0544   -0.7927   23.3902 C   0  0  0  0  0  0  0  0  0  0  0  0
   13.4046   -1.7126   22.7726 Cl  0  0  0  0  0  0  0  0  0  0  0  0
   12.2854    0.2652   24.2727 C   0  0  0  0  0  0  0  0  0  0  0  0
   11.1923    1.0089   24.6725 C   0  0  0  0  0  0  0  0  0  0  0  0
    9.9107    0.6991   24.2344 C   0  0  0  0  0  0  0  0  0  0  0  0
    8.8013    1.5710   24.7224 C   0  0  0  0  0  0  0  0  0  0  0  0
    8.9913    2.6729   25.2313 O   0  0  0  0  0  0  0  0  0  0  0  0
   11.2644    1.8366   25.3609 H   0  0  0  0  0  0  0  0  0  0  0  0
   13.2842    0.5233   24.6112 H   0  0  0  0  0  0  0  0  0  0  0  0
   10.6820   -1.9381   22.2524 H   0  0  0  0  0  0  0  0  0  0  0  0
    7.5590   -1.0270   24.9052 H   0  0  0  0  0  0  0  0  0  0  0  0
    6.2762   -0.4005   23.8511 H   0  0  0  0  0  0  0  0  0  0  0  0
    5.6207    1.7709   24.3335 H   0  0  0  0  0  0  0  0  0  0  0  0
    6.7946    2.8929   25.0671 H   0  0  0  0  0  0  0  0  0  0  0  0
    7.3484    2.6477   27.2984 H   0  0  0  0  0  0  0  0  0  0  0  0
    6.6689    2.3497   29.5258 H   0  0  0  0  0  0  0  0  0  0  0  0
    6.4241    0.6536   29.0101 H   0  0  0  0  0  0  0  0  0  0  0  0
    5.0811    1.8062   28.9318 H   0  0  0  0  0  0  0  0  0  0  0  0
  1  2  1  0
  2  3  1  0
  3  4  2  0
  3  5  1  0
  5  6  1  0
  6  7  1  0
  8  7  1  1
  8  9  1  0
  9 10  2  0
  9 11  1  0
 11 12  1  0
 12 13  2  0
 13 14  1  0
 14 15  2  0
 15 16  1  0
 16 17  2  0
 17 18  1  0
 18 19  2  0
 19 20  1  0
 20 21  2  0
 20 22  1  0
 19 23  1  0
 18 24  1  0
 17 25  1  0
 15 26  1  0
 13 27  1  0
 11 28  1  0
 28 29  1  0
 29 30  1  0
 30 31  1  0
 31 32  1  0
 32 33  2  0
 33 34  1  0
 34 35  2  0
 35 36  1  0
 36 37  2  0
 36 38  1  0
 35 39  1  0
 33 40  1  0
 31 41  1  0
 30 42  1  0
 30 43  1  0
 29 44  1  6
 28 45  1  0
 28 46  1  0
  8 47  1  0
 47 48  2  0
 48 49  1  0
 49 50  1  0
 49 51  2  0
 51 52  1  0
 52 53  2  0
 53 54  1  0
 54 55  2  0
 52 56  1  0
 51 57  1  0
 48 58  1  0
  7 59  1  0
  7 60  1  0
  5 61  1  0
  5 62  1  0
  2 63  1  0
  1 64  1  0
  1 65  1  0
  1 66  1  0
 54  6  1  0
 29  8  1  0
 37 32  1  0
 53 47  1  0
 21 12  1  0
 21 16  1  0
M  END
>  <cnnaffinities>  (52) 
[7.18332, 7.40033]

>  <score>  (52) 
7.18332

>  <index>  (52) 
54

>  <Smiles>  (52) 
C(N(C(=O)C(N1C([C@@]2(C(=O)N(c3c(nc(c4c(c(c(c(c34)[H])[H])[H])[H])[H])[H])C([C@@]2(C(N(c2c(nc(c(n2)[H])[H])[H])[H])([H])[H])[H])([H])[H])c2c(c(Cl)c(c(c2C1=O)[H])[H])[H])([H])[H])([H])[H])[H])([H])([H])[H]

>  <h>  (52) 
<NA>

>  <Training>  (52) 
True

>  <Success>  (52) 
True

>  <enamine_searched>  (52) 
False

>  <enamine_id>  (52) 
nan

$$$$

     RDKit          3D

 41 43  0  0  0  0  0  0  0  0999 V2000
    5.3104   -2.3580   20.9863 O   0  0  0  0  0  0  0  0  0  0  0  0
    6.1501   -1.7187   21.5887 C   0  0  0  0  0  0  0  0  0  0  0  0
    6.8872   -0.5515   20.9346 C   0  0  0  0  0  0  0  0  0  0  0  0
    6.1201    0.0649   19.7985 C   0  0  0  0  0  0  0  0  0  0  0  0
    6.4541   -0.2050   18.4996 C   0  0  0  0  0  0  0  0  0  0  0  0
    5.8125    0.2794   17.4052 N   0  0  0  0  0  0  0  0  0  0  0  0
    4.7626    1.0357   17.6141 C   0  0  0  0  0  0  0  0  0  0  0  0
    4.2964    1.4024   18.9037 C   0  0  0  0  0  0  0  0  0  0  0  0
    3.1764    2.2536   19.0680 C   0  0  0  0  0  0  0  0  0  0  0  0
    2.7551    2.6110   20.3205 C   0  0  0  0  0  0  0  0  0  0  0  0
    3.4447    2.1291   21.4592 C   0  0  0  0  0  0  0  0  0  0  0  0
    4.5344    1.3015   21.3222 C   0  0  0  0  0  0  0  0  0  0  0  0
    4.9930    0.9127   20.0353 C   0  0  0  0  0  0  0  0  0  0  0  0
    5.0619    0.9571   22.2119 H   0  0  0  0  0  0  0  0  0  0  0  0
    3.1104    2.4318   22.4472 H   0  0  0  0  0  0  0  0  0  0  0  0
    1.9026    3.2704   20.4477 H   0  0  0  0  0  0  0  0  0  0  0  0
    2.6723    2.6256   18.1780 H   0  0  0  0  0  0  0  0  0  0  0  0
    4.2269    1.4035   16.7383 H   0  0  0  0  0  0  0  0  0  0  0  0
    7.3021   -0.8557   18.2864 H   0  0  0  0  0  0  0  0  0  0  0  0
    7.0838    0.1908   21.7166 H   0  0  0  0  0  0  0  0  0  0  0  0
    7.8570   -0.9377   20.5912 H   0  0  0  0  0  0  0  0  0  0  0  0
    6.4373   -1.9578   22.9253 N   0  0  0  0  0  0  0  0  0  0  0  0
    5.3964   -2.5927   23.7203 C   0  0  0  0  0  0  0  0  0  0  0  0
    4.4978   -1.5818   24.4305 C   0  0  0  0  0  0  0  0  0  0  0  0
    5.0343   -0.6908   25.5513 C   0  0  0  0  0  0  0  0  0  0  0  0
    6.5029    0.2950   25.1547 S   0  0  0  0  0  0  0  0  0  0  0  0
    7.6223   -1.1116   24.9742 C   0  0  0  0  0  0  0  0  0  0  0  0
    7.7131   -1.6666   23.5495 C   0  0  1  0  0  0  0  0  0  0  0  0
    8.5531   -2.9333   23.5626 C   0  0  0  0  0  0  0  0  0  0  0  0
    9.7624   -2.7246   24.1082 F   0  0  0  0  0  0  0  0  0  0  0  0
    7.9758   -3.9227   24.2758 F   0  0  0  0  0  0  0  0  0  0  0  0
    8.7270   -3.3767   22.3173 F   0  0  0  0  0  0  0  0  0  0  0  0
    8.2622   -0.9593   22.9234 H   0  0  0  0  0  0  0  0  0  0  0  0
    7.2329   -1.8811   25.6413 H   0  0  0  0  0  0  0  0  0  0  0  0
    8.6200   -0.8509   25.3404 H   0  0  0  0  0  0  0  0  0  0  0  0
    4.2479    0.0332   25.8010 H   0  0  0  0  0  0  0  0  0  0  0  0
    5.2350   -1.2514   26.4718 H   0  0  0  0  0  0  0  0  0  0  0  0
    3.6563   -2.1538   24.8469 H   0  0  0  0  0  0  0  0  0  0  0  0
    4.1274   -0.9144   23.6413 H   0  0  0  0  0  0  0  0  0  0  0  0
    4.7912   -3.1714   23.0166 H   0  0  0  0  0  0  0  0  0  0  0  0
    5.8430   -3.3192   24.3938 H   0  0  0  0  0  0  0  0  0  0  0  0
  1  2  2  0
  2  3  1  0
  3  4  1  0
  4  5  2  0
  5  6  1  0
  6  7  2  0
  7  8  1  0
  8  9  2  0
  9 10  1  0
 10 11  2  0
 11 12  1  0
 12 13  2  0
 12 14  1  0
 11 15  1  0
 10 16  1  0
  9 17  1  0
  7 18  1  0
  5 19  1  0
  3 20  1  0
  3 21  1  0
  2 22  1  0
 22 23  1  0
 23 24  1  0
 24 25  1  0
 25 26  1  0
 26 27  1  0
 27 28  1  0
 28 29  1  0
 29 30  1  0
 29 31  1  0
 29 32  1  0
 28 33  1  6
 27 34  1  0
 27 35  1  0
 25 36  1  0
 25 37  1  0
 24 38  1  0
 24 39  1  0
 23 40  1  0
 23 41  1  0
 13  4  1  0
 28 22  1  0
 13  8  1  0
M  END
>  <cnnaffinities>  (53) 
[5.35125, 5.35131, 5.21394, 5.2168, 5.21312]

>  <score>  (53) 
5.35125

>  <index>  (53) 
56

>  <Smiles>  (53) 
O=C(C(c1c(nc(c2c(c(c(c(c12)[H])[H])[H])[H])[H])[H])([H])[H])N1C(C(C(SC([C@]1(C(F)(F)F)[H])([H])[H])([H])[H])([H])[H])([H])[H]

>  <h>  (53) 
<NA>

>  <Training>  (53) 
True

>  <Success>  (53) 
True

>  <enamine_searched>  (53) 
False

>  <enamine_id>  (53) 
nan

$$$$

     RDKit          3D

 67 72  0  0  0  0  0  0  0  0999 V2000
    7.6141    5.6991   23.5045 C   0  0  0  0  0  0  0  0  0  0  0  0
    7.5014    4.5819   24.4226 N   0  0  0  0  0  0  0  0  0  0  0  0
    6.8228    3.4671   24.0121 C   0  0  0  0  0  0  0  0  0  0  0  0
    6.1163    3.4376   23.0193 O   0  0  0  0  0  0  0  0  0  0  0  0
    6.9799    2.2529   24.9244 C   0  0  0  0  0  0  0  0  0  0  0  0
    7.9312    1.2946   24.3891 N   0  0  0  0  0  0  0  0  0  0  0  0
    7.5211   -0.0584   24.0445 C   0  0  0  0  0  0  0  0  0  0  0  0
    8.3268   -0.5950   22.8182 C   0  0  2  0  0  0  0  0  0  0  0  0
    7.9369    0.2690   21.5889 C   0  0  0  0  0  0  0  0  0  0  0  0
    8.3558    1.3674   21.2998 O   0  0  0  0  0  0  0  0  0  0  0  0
    6.9632   -0.4260   20.8860 N   0  0  0  0  0  0  0  0  0  0  0  0
    6.1946    0.1289   19.8288 C   0  0  0  0  0  0  0  0  0  0  0  0
    6.5078   -0.1924   18.5317 C   0  0  0  0  0  0  0  0  0  0  0  0
    5.8416    0.2585   17.4425 N   0  0  0  0  0  0  0  0  0  0  0  0
    4.7954    1.0194   17.6400 C   0  0  0  0  0  0  0  0  0  0  0  0
    4.3322    1.4043   18.9264 C   0  0  0  0  0  0  0  0  0  0  0  0
    3.1960    2.2427   19.0809 C   0  0  0  0  0  0  0  0  0  0  0  0
    2.7614    2.5973   20.3259 C   0  0  0  0  0  0  0  0  0  0  0  0
    3.4451    2.1312   21.4718 C   0  0  0  0  0  0  0  0  0  0  0  0
    4.5514    1.3243   21.3467 C   0  0  0  0  0  0  0  0  0  0  0  0
    5.0349    0.9446   20.0663 C   0  0  0  0  0  0  0  0  0  0  0  0
    5.0744    0.9991   22.2418 H   0  0  0  0  0  0  0  0  0  0  0  0
    3.1099    2.4320   22.4588 H   0  0  0  0  0  0  0  0  0  0  0  0
    1.8980    3.2480   20.4402 H   0  0  0  0  0  0  0  0  0  0  0  0
    2.6954    2.6014   18.1842 H   0  0  0  0  0  0  0  0  0  0  0  0
    4.2534    1.3753   16.7620 H   0  0  0  0  0  0  0  0  0  0  0  0
    7.3537   -0.8483   18.3312 H   0  0  0  0  0  0  0  0  0  0  0  0
    6.7197   -1.7723   21.3697 C   0  0  0  0  0  0  0  0  0  0  0  0
    7.8817   -1.9977   22.3445 C   0  0  2  0  0  0  0  0  0  0  0  0
    7.5832   -2.9807   23.4789 C   0  0  0  0  0  0  0  0  0  0  0  0
    7.4373   -4.3320   23.0111 N   0  0  0  0  0  0  0  0  0  0  0  0
    6.2401   -4.9301   22.7129 C   0  0  0  0  0  0  0  0  0  0  0  0
    6.0392   -6.0913   22.0283 C   0  0  0  0  0  0  0  0  0  0  0  0
    4.7302   -6.4890   21.8777 N   0  0  0  0  0  0  0  0  0  0  0  0
    3.9159   -5.6617   22.4541 C   0  0  0  0  0  0  0  0  0  0  0  0
    2.4311   -5.8329   22.5096 C   0  0  0  0  0  0  0  0  0  0  0  0
    2.1273   -6.5316   21.7257 H   0  0  0  0  0  0  0  0  0  0  0  0
    1.9110   -4.8779   22.3819 H   0  0  0  0  0  0  0  0  0  0  0  0
    2.1313   -6.2574   23.4774 H   0  0  0  0  0  0  0  0  0  0  0  0
    4.6986   -4.2959   23.2284 S   0  0  0  0  0  0  0  0  0  0  0  0
    6.8376   -6.7048   21.6266 H   0  0  0  0  0  0  0  0  0  0  0  0
    8.2599   -4.8158   22.6909 H   0  0  0  0  0  0  0  0  0  0  0  0
    8.4041   -2.9469   24.2064 H   0  0  0  0  0  0  0  0  0  0  0  0
    6.6611   -2.6828   23.9938 H   0  0  0  0  0  0  0  0  0  0  0  0
    8.7018   -2.3951   21.7358 H   0  0  0  0  0  0  0  0  0  0  0  0
    5.7390   -1.8656   21.8563 H   0  0  0  0  0  0  0  0  0  0  0  0
    6.7302   -2.4866   20.5400 H   0  0  0  0  0  0  0  0  0  0  0  0
    9.7906   -0.4931   23.2081 C   0  0  0  0  0  0  0  0  0  0  0  0
   10.7932   -1.3447   22.7226 C   0  0  0  0  0  0  0  0  0  0  0  0
   12.1270   -1.1245   23.0359 C   0  0  0  0  0  0  0  0  0  0  0  0
   13.3386   -2.1142   22.2664 Cl  0  0  0  0  0  0  0  0  0  0  0  0
   12.5138   -0.1481   23.9571 C   0  0  0  0  0  0  0  0  0  0  0  0
   11.5182    0.6730   24.4600 C   0  0  0  0  0  0  0  0  0  0  0  0
   10.1968    0.5576   24.0394 C   0  0  0  0  0  0  0  0  0  0  0  0
    9.2431    1.6323   24.4405 C   0  0  0  0  0  0  0  0  0  0  0  0
    9.6177    2.7458   24.8122 O   0  0  0  0  0  0  0  0  0  0  0  0
   11.7133    1.4622   25.1717 H   0  0  0  0  0  0  0  0  0  0  0  0
   13.5545   -0.0010   24.2377 H   0  0  0  0  0  0  0  0  0  0  0  0
   10.5511   -2.2017   22.1078 H   0  0  0  0  0  0  0  0  0  0  0  0
    7.6657   -0.7229   24.9086 H   0  0  0  0  0  0  0  0  0  0  0  0
    6.4492   -0.0236   23.8275 H   0  0  0  0  0  0  0  0  0  0  0  0
    7.2932    2.5879   25.9167 H   0  0  0  0  0  0  0  0  0  0  0  0
    6.0160    1.7506   25.0149 H   0  0  0  0  0  0  0  0  0  0  0  0
    8.3389    4.3673   24.9485 H   0  0  0  0  0  0  0  0  0  0  0  0
    8.2269    6.4740   23.9735 H   0  0  0  0  0  0  0  0  0  0  0  0
    8.0700    5.3922   22.5554 H   0  0  0  0  0  0  0  0  0  0  0  0
    6.6262    6.1148   23.2928 H   0  0  0  0  0  0  0  0  0  0  0  0
  1  2  1  0
  2  3  1  0
  3  4  2  0
  3  5  1  0
  5  6  1  0
  6  7  1  0
  8  7  1  1
  8  9  1  0
  9 10  2  0
  9 11  1  0
 11 12  1  0
 12 13  2  0
 13 14  1  0
 14 15  2  0
 15 16  1  0
 16 17  2  0
 17 18  1  0
 18 19  2  0
 19 20  1  0
 20 21  2  0
 20 22  1  0
 19 23  1  0
 18 24  1  0
 17 25  1  0
 15 26  1  0
 13 27  1  0
 11 28  1  0
 28 29  1  0
 29 30  1  0
 30 31  1  0
 31 32  1  0
 32 33  2  0
 33 34  1  0
 34 35  2  0
 35 36  1  0
 36 37  1  0
 36 38  1  0
 36 39  1  0
 35 40  1  0
 33 41  1  0
 31 42  1  0
 30 43  1  0
 30 44  1  0
 29 45  1  6
 28 46  1  0
 28 47  1  0
  8 48  1  0
 48 49  2  0
 49 50  1  0
 50 51  1  0
 50 52  2  0
 52 53  1  0
 53 54  2  0
 54 55  1  0
 55 56  2  0
 53 57  1  0
 52 58  1  0
 49 59  1  0
  7 60  1  0
  7 61  1  0
  5 62  1  0
  5 63  1  0
  2 64  1  0
  1 65  1  0
  1 66  1  0
  1 67  1  0
 55  6  1  0
 29  8  1  0
 40 32  1  0
 54 48  1  0
 21 12  1  0
 21 16  1  0
M  END
>  <cnnaffinities>  (54) 
[7.58884]

>  <score>  (54) 
7.58884

>  <index>  (54) 
57

>  <Smiles>  (54) 
C(N(C(=O)C(N1C([C@@]2(C(=O)N(c3c(nc(c4c(c(c(c(c34)[H])[H])[H])[H])[H])[H])C([C@@]2(C(N(c2c(nc(C([H])([H])[H])s2)[H])[H])([H])[H])[H])([H])[H])c2c(c(Cl)c(c(c2C1=O)[H])[H])[H])([H])[H])([H])[H])[H])([H])([H])[H]

>  <h>  (54) 
<NA>

>  <Training>  (54) 
True

>  <Success>  (54) 
True

>  <enamine_searched>  (54) 
False

>  <enamine_id>  (54) 
nan

$$$$

     RDKit          3D

 38 41  0  0  0  0  0  0  0  0999 V2000
    8.6107    1.2636   20.7274 O   0  0  0  0  0  0  0  0  0  0  0  0
    7.8636    0.6707   21.4849 C   0  0  0  0  0  0  0  0  0  0  0  0
    6.9473   -0.4383   20.9214 C   0  0  0  0  0  0  0  0  0  0  0  0
    6.1074    0.0822   19.7723 C   0  0  0  0  0  0  0  0  0  0  0  0
    6.4286   -0.2021   18.4698 C   0  0  0  0  0  0  0  0  0  0  0  0
    5.7701    0.2683   17.3775 N   0  0  0  0  0  0  0  0  0  0  0  0
    4.7289    1.0333   17.5815 C   0  0  0  0  0  0  0  0  0  0  0  0
    4.2813    1.4237   18.8718 C   0  0  0  0  0  0  0  0  0  0  0  0
    3.1676    2.2842   19.0442 C   0  0  0  0  0  0  0  0  0  0  0  0
    2.7641    2.6498   20.2994 C   0  0  0  0  0  0  0  0  0  0  0  0
    3.4613    2.1699   21.4304 C   0  0  0  0  0  0  0  0  0  0  0  0
    4.5445    1.3365   21.2880 C   0  0  0  0  0  0  0  0  0  0  0  0
    4.9883    0.9408   19.9982 C   0  0  0  0  0  0  0  0  0  0  0  0
    5.0714    0.9874   22.1709 H   0  0  0  0  0  0  0  0  0  0  0  0
    3.1354    2.4672   22.4213 H   0  0  0  0  0  0  0  0  0  0  0  0
    1.9130    3.3110   20.4339 H   0  0  0  0  0  0  0  0  0  0  0  0
    2.6469    2.6514   18.1625 H   0  0  0  0  0  0  0  0  0  0  0  0
    4.1976    1.3974   16.6998 H   0  0  0  0  0  0  0  0  0  0  0  0
    7.2718   -0.8549   18.2449 H   0  0  0  0  0  0  0  0  0  0  0  0
    6.3030   -0.8993   21.6776 H   0  0  0  0  0  0  0  0  0  0  0  0
    7.6000   -1.2280   20.5334 H   0  0  0  0  0  0  0  0  0  0  0  0
    7.7612    1.0127   22.8216 N   0  0  0  0  0  0  0  0  0  0  0  0
    8.3093    2.3199   23.2099 C   0  0  0  0  0  0  0  0  0  0  0  0
    7.6741    2.8463   24.4935 C   0  0  0  0  0  0  0  0  0  0  0  0
    7.7377    1.7983   25.5535 C   0  0  0  0  0  0  0  0  0  0  0  0
    7.7854    2.0749   27.2601 S   0  0  0  0  0  0  0  0  0  0  0  0
    7.7567    0.3753   27.5650 C   0  0  0  0  0  0  0  0  0  0  0  0
    7.7083   -0.3545   26.4134 C   0  0  0  0  0  0  0  0  0  0  0  0
    7.6952    0.4764   25.2525 C   0  0  0  0  0  0  0  0  0  0  0  0
    7.5145   -0.0058   23.8386 C   0  0  0  0  0  0  0  0  0  0  0  0
    8.1573   -0.8826   23.6946 H   0  0  0  0  0  0  0  0  0  0  0  0
    6.4913   -0.3922   23.7462 H   0  0  0  0  0  0  0  0  0  0  0  0
    7.6689   -1.4416   26.3966 H   0  0  0  0  0  0  0  0  0  0  0  0
    7.8216    0.0058   28.5802 H   0  0  0  0  0  0  0  0  0  0  0  0
    8.1603    3.7689   24.8180 H   0  0  0  0  0  0  0  0  0  0  0  0
    6.6233    3.1051   24.3130 H   0  0  0  0  0  0  0  0  0  0  0  0
    9.3970    2.2732   23.3354 H   0  0  0  0  0  0  0  0  0  0  0  0
    8.1198    3.0139   22.3902 H   0  0  0  0  0  0  0  0  0  0  0  0
  1  2  2  0
  2  3  1  0
  3  4  1  0
  4  5  2  0
  5  6  1  0
  6  7  2  0
  7  8  1  0
  8  9  2  0
  9 10  1  0
 10 11  2  0
 11 12  1  0
 12 13  2  0
 12 14  1  0
 11 15  1  0
 10 16  1  0
  9 17  1  0
  7 18  1  0
  5 19  1  0
  3 20  1  0
  3 21  1  0
  2 22  1  0
 22 23  1  0
 23 24  1  0
 24 25  1  0
 25 26  1  0
 26 27  1  0
 27 28  2  0
 28 29  1  0
 29 30  1  0
 30 31  1  0
 30 32  1  0
 28 33  1  0
 27 34  1  0
 24 35  1  0
 24 36  1  0
 23 37  1  0
 23 38  1  0
 13  4  1  0
 30 22  1  0
 13  8  1  0
 29 25  2  0
M  END
>  <cnnaffinities>  (55) 
[5.22171, 5.37121, 5.2982]

>  <score>  (55) 
5.22171

>  <index>  (55) 
60

>  <Smiles>  (55) 
O=C(C(c1c(nc(c2c(c(c(c(c12)[H])[H])[H])[H])[H])[H])([H])[H])N1C(C(c2sc(c(c2C1([H])[H])[H])[H])([H])[H])([H])[H]

>  <h>  (55) 
<NA>

>  <Training>  (55) 
True

>  <Success>  (55) 
True

>  <enamine_searched>  (55) 
False

>  <enamine_id>  (55) 
nan

$$$$

     RDKit          3D

 64 70  0  0  0  0  0  0  0  0999 V2000
    9.3257    2.8344   24.8557 O   0  0  0  0  0  0  0  0  0  0  0  0
    9.0121    1.6967   24.5160 C   0  0  0  0  0  0  0  0  0  0  0  0
   10.0330    0.6842   24.1147 C   0  0  0  0  0  0  0  0  0  0  0  0
   11.3355    0.8967   24.5543 C   0  0  0  0  0  0  0  0  0  0  0  0
   12.3842    0.1170   24.0958 C   0  0  0  0  0  0  0  0  0  0  0  0
   12.0703   -0.8979   23.1870 C   0  0  0  0  0  0  0  0  0  0  0  0
   13.3424   -1.8360   22.4618 Cl  0  0  0  0  0  0  0  0  0  0  0  0
   10.7626   -1.1799   22.8155 C   0  0  0  0  0  0  0  0  0  0  0  0
    9.7026   -0.3820   23.2730 C   0  0  0  0  0  0  0  0  0  0  0  0
    8.2525   -0.5539   22.8572 C   0  0  1  0  0  0  0  0  0  0  0  0
    7.4044   -0.1068   24.0930 C   0  0  0  0  0  0  0  0  0  0  0  0
    7.7273    1.2551   24.4871 N   0  0  0  0  0  0  0  0  0  0  0  0
    6.6611    2.2023   24.7406 C   0  0  0  0  0  0  0  0  0  0  0  0
    5.8608    1.8605   25.9766 C   0  0  0  0  0  0  0  0  0  0  0  0
    6.3646    2.0603   27.2439 C   0  0  0  0  0  0  0  0  0  0  0  0
    5.5750    1.6524   28.3170 C   0  0  0  0  0  0  0  0  0  0  0  0
    4.3775    1.0844   28.1859 N   0  0  0  0  0  0  0  0  0  0  0  0
    3.8852    0.8915   26.9714 N   0  0  0  0  0  0  0  0  0  0  0  0
    4.5945    1.2692   25.9105 C   0  0  0  0  0  0  0  0  0  0  0  0
    4.1211    1.0789   24.9486 H   0  0  0  0  0  0  0  0  0  0  0  0
    5.9214    1.7948   29.3400 H   0  0  0  0  0  0  0  0  0  0  0  0
    7.3403    2.5238   27.4088 H   0  0  0  0  0  0  0  0  0  0  0  0
    7.1412    3.1788   24.8505 H   0  0  0  0  0  0  0  0  0  0  0  0
    6.0216    2.2346   23.8495 H   0  0  0  0  0  0  0  0  0  0  0  0
    7.5776   -0.7895   24.9366 H   0  0  0  0  0  0  0  0  0  0  0  0
    6.3365   -0.1481   23.8652 H   0  0  0  0  0  0  0  0  0  0  0  0
    7.8138    0.3269   21.6584 C   0  0  0  0  0  0  0  0  0  0  0  0
    8.0895    1.4903   21.4601 O   0  0  0  0  0  0  0  0  0  0  0  0
    6.9559   -0.4239   20.8732 N   0  0  0  0  0  0  0  0  0  0  0  0
    6.1791    0.1258   19.8218 C   0  0  0  0  0  0  0  0  0  0  0  0
    6.4910   -0.1937   18.5250 C   0  0  0  0  0  0  0  0  0  0  0  0
    5.8287    0.2634   17.4363 N   0  0  0  0  0  0  0  0  0  0  0  0
    4.7880    1.0311   17.6392 C   0  0  0  0  0  0  0  0  0  0  0  0
    4.3322    1.4205   18.9283 C   0  0  0  0  0  0  0  0  0  0  0  0
    3.1991    2.2621   19.0821 C   0  0  0  0  0  0  0  0  0  0  0  0
    2.7591    2.6082   20.3293 C   0  0  0  0  0  0  0  0  0  0  0  0
    3.4266    2.1191   21.4741 C   0  0  0  0  0  0  0  0  0  0  0  0
    4.5280    1.3062   21.3515 C   0  0  0  0  0  0  0  0  0  0  0  0
    5.0266    0.9476   20.0660 C   0  0  0  0  0  0  0  0  0  0  0  0
    5.0156    0.9220   22.2423 H   0  0  0  0  0  0  0  0  0  0  0  0
    3.0586    2.3952   22.4581 H   0  0  0  0  0  0  0  0  0  0  0  0
    1.8964    3.2586   20.4425 H   0  0  0  0  0  0  0  0  0  0  0  0
    2.7005    2.6238   18.1863 H   0  0  0  0  0  0  0  0  0  0  0  0
    4.2441    1.3857   16.7628 H   0  0  0  0  0  0  0  0  0  0  0  0
    7.3379   -0.8494   18.3276 H   0  0  0  0  0  0  0  0  0  0  0  0
    6.7629   -1.7867   21.3314 C   0  0  0  0  0  0  0  0  0  0  0  0
    7.9023   -1.9665   22.3410 C   0  0  2  0  0  0  0  0  0  0  0  0
    7.5963   -2.9632   23.4599 C   0  0  0  0  0  0  0  0  0  0  0  0
    7.5218   -4.3278   22.9847 N   0  0  0  0  0  0  0  0  0  0  0  0
    6.3390   -4.8770   22.6194 C   0  0  0  0  0  0  0  0  0  0  0  0
    5.1707   -4.3259   22.8279 N   0  0  0  0  0  0  0  0  0  0  0  0
    4.1335   -5.1418   22.4592 N   0  0  0  0  0  0  0  0  0  0  0  0
    4.5285   -6.2672   21.9690 C   0  0  0  0  0  0  0  0  0  0  0  0
    6.2515   -6.4442   21.8590 S   0  0  0  0  0  0  0  0  0  0  0  0
    3.8538   -7.0542   21.6545 H   0  0  0  0  0  0  0  0  0  0  0  0
    8.3818   -4.7923   22.7415 H   0  0  0  0  0  0  0  0  0  0  0  0
    6.6335   -2.7126   23.9211 H   0  0  0  0  0  0  0  0  0  0  0  0
    8.3762   -2.8883   24.2293 H   0  0  0  0  0  0  0  0  0  0  0  0
    8.7629   -2.3242   21.7607 H   0  0  0  0  0  0  0  0  0  0  0  0
    5.7765   -1.9305   21.7949 H   0  0  0  0  0  0  0  0  0  0  0  0
    6.8209   -2.4882   20.4930 H   0  0  0  0  0  0  0  0  0  0  0  0
   10.5978   -2.0353   22.1772 H   0  0  0  0  0  0  0  0  0  0  0  0
   13.4076    0.3308   24.3976 H   0  0  0  0  0  0  0  0  0  0  0  0
   11.4510    1.7310   25.2321 H   0  0  0  0  0  0  0  0  0  0  0  0
  1  2  2  0
  2  3  1  0
  3  4  2  0
  4  5  1  0
  5  6  2  0
  6  7  1  0
  6  8  1  0
  8  9  2  0
  9 10  1  0
 10 11  1  1
 11 12  1  0
 12 13  1  0
 13 14  1  0
 14 15  2  0
 15 16  1  0
 16 17  2  0
 17 18  1  0
 18 19  2  0
 19 20  1  0
 16 21  1  0
 15 22  1  0
 13 23  1  0
 13 24  1  0
 11 25  1  0
 11 26  1  0
 10 27  1  0
 27 28  2  0
 27 29  1  0
 29 30  1  0
 30 31  2  0
 31 32  1  0
 32 33  2  0
 33 34  1  0
 34 35  2  0
 35 36  1  0
 36 37  2  0
 37 38  1  0
 38 39  2  0
 38 40  1  0
 37 41  1  0
 36 42  1  0
 35 43  1  0
 33 44  1  0
 31 45  1  0
 29 46  1  0
 46 47  1  0
 47 48  1  0
 48 49  1  0
 49 50  1  0
 50 51  2  0
 51 52  1  0
 52 53  2  0
 53 54  1  0
 53 55  1  0
 49 56  1  0
 48 57  1  0
 48 58  1  0
 47 59  1  6
 46 60  1  0
 46 61  1  0
  8 62  1  0
  5 63  1  0
  4 64  1  0
 12  2  1  0
 19 14  1  0
 39 30  1  0
 54 50  1  0
  9  3  1  0
 47 10  1  0
 39 34  1  0
M  END
>  <cnnaffinities>  (56) 
[7.53348, 7.5059]

>  <score>  (56) 
7.53348

>  <index>  (56) 
61

>  <Smiles>  (56) 
O=C1c2c(c(c(Cl)c(c2[C@@]2(C(N1C(c1c(c(nnc1[H])[H])[H])([H])[H])([H])[H])C(=O)N(c1c(nc(c3c(c(c(c(c13)[H])[H])[H])[H])[H])[H])C([C@@]2(C(N(c1nnc(s1)[H])[H])([H])[H])[H])([H])[H])[H])[H])[H]

>  <h>  (56) 
<NA>

>  <Training>  (56) 
True

>  <Success>  (56) 
True

>  <enamine_searched>  (56) 
False

>  <enamine_id>  (56) 
nan

$$$$

     RDKit          3D

 70 76  0  0  0  0  0  0  0  0999 V2000
    7.3071   -3.0315   23.5385 C   0  0  0  0  0  0  0  0  0  0  0  0
    7.6018   -2.2196   22.2845 C   0  0  1  0  0  0  0  0  0  0  0  0
    6.3579   -1.6971   21.5525 C   0  0  0  0  0  0  0  0  0  0  0  0
    6.8620   -0.5364   20.8431 N   0  0  0  0  0  0  0  0  0  0  0  0
    6.1568    0.0933   19.7885 C   0  0  0  0  0  0  0  0  0  0  0  0
    6.5125   -0.1584   18.4888 C   0  0  0  0  0  0  0  0  0  0  0  0
    5.8436    0.3113   17.4084 N   0  0  0  0  0  0  0  0  0  0  0  0
    4.7862    1.0504   17.6232 C   0  0  0  0  0  0  0  0  0  0  0  0
    4.3237    1.4179   18.9170 C   0  0  0  0  0  0  0  0  0  0  0  0
    3.1996    2.2649   19.0863 C   0  0  0  0  0  0  0  0  0  0  0  0
    2.7903    2.6269   20.3403 C   0  0  0  0  0  0  0  0  0  0  0  0
    3.4857    2.1535   21.4770 C   0  0  0  0  0  0  0  0  0  0  0  0
    4.5747    1.3261   21.3400 C   0  0  0  0  0  0  0  0  0  0  0  0
    5.0257    0.9318   20.0473 C   0  0  0  0  0  0  0  0  0  0  0  0
    5.0926    0.9723   22.2281 H   0  0  0  0  0  0  0  0  0  0  0  0
    3.1655    2.4699   22.4673 H   0  0  0  0  0  0  0  0  0  0  0  0
    1.9387    3.2882   20.4711 H   0  0  0  0  0  0  0  0  0  0  0  0
    2.6887    2.6286   18.1981 H   0  0  0  0  0  0  0  0  0  0  0  0
    4.2385    1.4112   16.7502 H   0  0  0  0  0  0  0  0  0  0  0  0
    7.3750   -0.7870   18.2823 H   0  0  0  0  0  0  0  0  0  0  0  0
    8.1060   -0.1174   21.2597 C   0  0  0  0  0  0  0  0  0  0  0  0
    8.7346    0.7790   20.7312 O   0  0  0  0  0  0  0  0  0  0  0  0
    8.4846   -0.9586   22.5098 C   0  0  1  0  0  0  0  0  0  0  0  0
    8.0541   -0.1943   23.7891 C   0  0  0  0  0  0  0  0  0  0  0  0
    8.9297    0.9350   24.0440 N   0  0  0  0  0  0  0  0  0  0  0  0
    8.3589    2.2430   24.3335 C   0  0  0  0  0  0  0  0  0  0  0  0
    7.8792    2.9396   23.0532 C   0  0  0  0  0  0  0  0  0  0  0  0
    7.1454    4.2061   23.3263 N   0  0  2  0  0  4  0  0  0  0  0  0
    6.4376    4.7877   22.1305 C   0  0  0  0  0  0  0  0  0  0  0  0
    6.2323    6.2564   22.4696 C   0  0  0  0  0  0  0  0  0  0  0  0
    7.4626    6.6523   23.2945 C   0  0  0  0  0  0  0  0  0  0  0  0
    8.5139    7.5355   22.5925 C   0  0  0  0  0  0  0  0  0  0  0  0
    8.3176    8.6166   23.5092 O   0  0  0  0  0  0  0  0  0  0  0  0
    7.3204    7.8748   24.2206 C   0  0  0  0  0  0  0  0  0  0  0  0
    7.6084    7.7147   25.2672 H   0  0  0  0  0  0  0  0  0  0  0  0
    6.3435    8.3758   24.1770 H   0  0  0  0  0  0  0  0  0  0  0  0
    9.5448    7.1613   22.6217 H   0  0  0  0  0  0  0  0  0  0  0  0
    8.2473    7.8172   21.5681 H   0  0  0  0  0  0  0  0  0  0  0  0
    7.9861    5.3371   23.8946 C   0  0  0  0  0  0  0  0  0  0  0  0
    9.0266    5.1502   23.6114 H   0  0  0  0  0  0  0  0  0  0  0  0
    7.9139    5.3123   24.9858 H   0  0  0  0  0  0  0  0  0  0  0  0
    5.3196    6.3806   23.0675 H   0  0  0  0  0  0  0  0  0  0  0  0
    6.1190    6.8638   21.5644 H   0  0  0  0  0  0  0  0  0  0  0  0
    7.0855    4.6755   21.2570 H   0  0  0  0  0  0  0  0  0  0  0  0
    5.5044    4.2523   21.9422 H   0  0  0  0  0  0  0  0  0  0  0  0
    6.4043    3.9702   24.0182 H   0  0  0  0  0  0  0  0  0  0  0  0
    8.7277    3.1452   22.3863 H   0  0  0  0  0  0  0  0  0  0  0  0
    7.2063    2.2647   22.5116 H   0  0  0  0  0  0  0  0  0  0  0  0
    7.5039    2.1209   25.0189 H   0  0  0  0  0  0  0  0  0  0  0  0
    9.1247    2.8227   24.8579 H   0  0  0  0  0  0  0  0  0  0  0  0
   10.2516    0.6566   24.2946 C   0  0  0  0  0  0  0  0  0  0  0  0
   10.9542    1.3024   25.0562 O   0  0  0  0  0  0  0  0  0  0  0  0
   10.7974   -0.4913   23.4724 C   0  0  0  0  0  0  0  0  0  0  0  0
   12.1832   -0.6579   23.4312 C   0  0  0  0  0  0  0  0  0  0  0  0
   12.7736   -1.5186   22.5220 C   0  0  0  0  0  0  0  0  0  0  0  0
   11.9497   -2.2721   21.6814 C   0  0  0  0  0  0  0  0  0  0  0  0
   12.6478   -3.4114   20.5562 Cl  0  0  0  0  0  0  0  0  0  0  0  0
   10.5752   -2.1546   21.7411 C   0  0  0  0  0  0  0  0  0  0  0  0
    9.9715   -1.2301   22.6096 C   0  0  0  0  0  0  0  0  0  0  0  0
    9.9868   -2.8175   21.1155 H   0  0  0  0  0  0  0  0  0  0  0  0
   13.8516   -1.6081   22.4522 H   0  0  0  0  0  0  0  0  0  0  0  0
   12.7812   -0.0459   24.0992 H   0  0  0  0  0  0  0  0  0  0  0  0
    8.1241   -0.8901   24.6395 H   0  0  0  0  0  0  0  0  0  0  0  0
    7.0172    0.1569   23.7218 H   0  0  0  0  0  0  0  0  0  0  0  0
    5.5536   -1.4359   22.2567 H   0  0  0  0  0  0  0  0  0  0  0  0
    5.9520   -2.4297   20.8480 H   0  0  0  0  0  0  0  0  0  0  0  0
    8.1231   -2.8644   21.5690 H   0  0  0  0  0  0  0  0  0  0  0  0
    6.6795   -2.4584   24.2332 H   0  0  0  0  0  0  0  0  0  0  0  0
    8.2424   -3.2820   24.0537 H   0  0  0  0  0  0  0  0  0  0  0  0
    6.7815   -3.9608   23.2957 H   0  0  0  0  0  0  0  0  0  0  0  0
  1  2  1  0
  2  3  1  0
  3  4  1  0
  4  5  1  0
  5  6  2  0
  6  7  1  0
  7  8  2  0
  8  9  1  0
  9 10  2  0
 10 11  1  0
 11 12  2  0
 12 13  1  0
 13 14  2  0
 13 15  1  0
 12 16  1  0
 11 17  1  0
 10 18  1  0
  8 19  1  0
  6 20  1  0
  4 21  1  0
 21 22  2  0
 21 23  1  0
 23 24  1  1
 24 25  1  0
 25 26  1  0
 26 27  1  0
 27 28  1  0
 28 29  1  0
 29 30  1  0
 30 31  1  0
 31 32  1  0
 32 33  1  0
 33 34  1  0
 34 35  1  0
 34 36  1  0
 32 37  1  0
 32 38  1  0
 31 39  1  0
 39 40  1  0
 39 41  1  0
 30 42  1  0
 30 43  1  0
 29 44  1  0
 29 45  1  0
 28 46  1  1
 27 47  1  0
 27 48  1  0
 26 49  1  0
 26 50  1  0
 25 51  1  0
 51 52  2  0
 51 53  1  0
 53 54  2  0
 54 55  1  0
 55 56  2  0
 56 57  1  0
 56 58  1  0
 58 59  2  0
 58 60  1  0
 55 61  1  0
 54 62  1  0
 24 63  1  0
 24 64  1  0
  3 65  1  0
  3 66  1  0
  2 67  1  6
  1 68  1  0
  1 69  1  0
  1 70  1  0
 23  2  1  0
 39 28  1  0
 59 53  1  0
 14  5  1  0
 59 23  1  0
 14  9  1  0
 34 31  1  0
M  CHG  1  28   1
M  END
>  <cnnaffinities>  (57) 
[7.424]

>  <score>  (57) 
7.424

>  <index>  (57) 
62

>  <Smiles>  (57) 
C([C@]1(C(N(c2c(nc(c3c(c(c(c(c23)[H])[H])[H])[H])[H])[H])C(=O)[C@]21C(N(C(C([N@@+]1(C(C(C3(C(OC3([H])[H])([H])[H])C1([H])[H])([H])[H])([H])[H])[H])([H])[H])([H])[H])C(=O)c1c(c(c(Cl)c(c21)[H])[H])[H])([H])[H])([H])[H])[H])([H])([H])[H]

>  <h>  (57) 
<NA>

>  <Training>  (57) 
True

>  <Success>  (57) 
True

>  <enamine_searched>  (57) 
False

>  <enamine_id>  (57) 
nan

$$$$

     RDKit          3D

 66 71  0  0  0  0  0  0  0  0999 V2000
    7.4722   -2.5322   23.8718 C   0  0  0  0  0  0  0  0  0  0  0  0
    7.7509   -1.7439   22.6003 C   0  0  1  0  0  0  0  0  0  0  0  0
    6.5482   -1.4973   21.6790 C   0  0  0  0  0  0  0  0  0  0  0  0
    6.9890   -0.3514   20.9075 N   0  0  0  0  0  0  0  0  0  0  0  0
    6.2339    0.1916   19.8418 C   0  0  0  0  0  0  0  0  0  0  0  0
    6.6031   -0.0927   18.5565 C   0  0  0  0  0  0  0  0  0  0  0  0
    5.9222    0.3159   17.4615 N   0  0  0  0  0  0  0  0  0  0  0  0
    4.8429    1.0335   17.6551 C   0  0  0  0  0  0  0  0  0  0  0  0
    4.3716    1.4409   18.9328 C   0  0  0  0  0  0  0  0  0  0  0  0
    3.2345    2.2761   19.0827 C   0  0  0  0  0  0  0  0  0  0  0  0
    2.8101    2.6584   20.3258 C   0  0  0  0  0  0  0  0  0  0  0  0
    3.4902    2.2093   21.4756 C   0  0  0  0  0  0  0  0  0  0  0  0
    4.5923    1.3957   21.3577 C   0  0  0  0  0  0  0  0  0  0  0  0
    5.0768    1.0009   20.0793 C   0  0  0  0  0  0  0  0  0  0  0  0
    5.0930    1.0594   22.2586 H   0  0  0  0  0  0  0  0  0  0  0  0
    3.1389    2.5080   22.4596 H   0  0  0  0  0  0  0  0  0  0  0  0
    1.9458    3.3083   20.4333 H   0  0  0  0  0  0  0  0  0  0  0  0
    2.7127    2.6025   18.1899 H   0  0  0  0  0  0  0  0  0  0  0  0
    4.2798    1.3369   16.7715 H   0  0  0  0  0  0  0  0  0  0  0  0
    7.4914   -0.6961   18.3816 H   0  0  0  0  0  0  0  0  0  0  0  0
    8.1168    0.2729   21.4069 C   0  0  0  0  0  0  0  0  0  0  0  0
    8.7298    1.1324   20.8107 O   0  0  0  0  0  0  0  0  0  0  0  0
    8.3710   -0.3387   22.8180 C   0  0  1  0  0  0  0  0  0  0  0  0
    7.5903    0.4787   23.8875 C   0  0  0  0  0  0  0  0  0  0  0  0
    8.1817    1.7872   24.0775 N   0  0  0  0  0  0  0  0  0  0  0  0
    7.3614    2.9878   24.1163 C   0  0  0  0  0  0  0  0  0  0  0  0
    7.1419    3.6221   22.7379 C   0  0  0  0  0  0  0  0  0  0  0  0
    6.0347    4.6060   22.7495 N   0  0  0  0  0  4  0  0  0  0  0  0
    6.2734    5.7486   23.7046 C   0  0  0  0  0  0  0  0  0  0  0  0
    5.2479    6.8576   23.4285 C   0  0  0  0  0  0  0  0  0  0  0  0
    4.1148    6.3072   22.7891 O   0  0  0  0  0  0  0  0  0  0  0  0
    4.4335    5.9871   21.4480 C   0  0  0  0  0  0  0  0  0  0  0  0
    5.6897    5.0948   21.3723 C   0  0  0  0  0  0  0  0  0  0  0  0
    6.5425    5.6441   20.9579 H   0  0  0  0  0  0  0  0  0  0  0  0
    5.5036    4.2262   20.7320 H   0  0  0  0  0  0  0  0  0  0  0  0
    4.5925    6.9124   20.8731 H   0  0  0  0  0  0  0  0  0  0  0  0
    3.5628    5.4763   21.0285 H   0  0  0  0  0  0  0  0  0  0  0  0
    5.6886    7.6474   22.8015 H   0  0  0  0  0  0  0  0  0  0  0  0
    4.9135    7.3174   24.3624 H   0  0  0  0  0  0  0  0  0  0  0  0
    6.1586    5.3712   24.7240 H   0  0  0  0  0  0  0  0  0  0  0  0
    7.2961    6.1206   23.5838 H   0  0  0  0  0  0  0  0  0  0  0  0
    5.1794    4.1224   23.0764 H   0  0  0  0  0  0  0  0  0  0  0  0
    6.9089    2.8552   21.9935 H   0  0  0  0  0  0  0  0  0  0  0  0
    8.0598    4.1252   22.4044 H   0  0  0  0  0  0  0  0  0  0  0  0
    7.8637    3.6938   24.7809 H   0  0  0  0  0  0  0  0  0  0  0  0
    6.3744    2.7593   24.5424 H   0  0  0  0  0  0  0  0  0  0  0  0
    9.5108    1.8712   24.3860 C   0  0  0  0  0  0  0  0  0  0  0  0
   10.0322    2.9062   24.7680 O   0  0  0  0  0  0  0  0  0  0  0  0
   10.3182    0.6239   24.1180 C   0  0  0  0  0  0  0  0  0  0  0  0
   11.6422    0.5928   24.5631 C   0  0  0  0  0  0  0  0  0  0  0  0
   12.5385   -0.3228   24.0508 C   0  0  0  0  0  0  0  0  0  0  0  0
   12.0725   -1.2266   23.0921 C   0  0  0  0  0  0  0  0  0  0  0  0
   13.2213   -2.2424   22.2699 Cl  0  0  0  0  0  0  0  0  0  0  0  0
   10.7383   -1.2929   22.7249 C   0  0  0  0  0  0  0  0  0  0  0  0
    9.8229   -0.3672   23.2505 C   0  0  0  0  0  0  0  0  0  0  0  0
   10.4338   -2.0498   22.0055 H   0  0  0  0  0  0  0  0  0  0  0  0
   13.5910   -0.3084   24.3266 H   0  0  0  0  0  0  0  0  0  0  0  0
   11.9821    1.3339   25.2733 H   0  0  0  0  0  0  0  0  0  0  0  0
    7.6250   -0.0750   24.8367 H   0  0  0  0  0  0  0  0  0  0  0  0
    6.5385    0.5865   23.6128 H   0  0  0  0  0  0  0  0  0  0  0  0
    5.6300   -1.2864   22.2494 H   0  0  0  0  0  0  0  0  0  0  0  0
    6.3370   -2.3449   21.0174 H   0  0  0  0  0  0  0  0  0  0  0  0
    8.4819   -2.2982   22.0017 H   0  0  0  0  0  0  0  0  0  0  0  0
    7.1680   -3.5591   23.6448 H   0  0  0  0  0  0  0  0  0  0  0  0
    8.3717   -2.5659   24.5008 H   0  0  0  0  0  0  0  0  0  0  0  0
    6.6707   -2.0669   24.4566 H   0  0  0  0  0  0  0  0  0  0  0  0
  1  2  1  0
  2  3  1  0
  3  4  1  0
  4  5  1  0
  5  6  2  0
  6  7  1  0
  7  8  2  0
  8  9  1  0
  9 10  2  0
 10 11  1  0
 11 12  2  0
 12 13  1  0
 13 14  2  0
 13 15  1  0
 12 16  1  0
 11 17  1  0
 10 18  1  0
  8 19  1  0
  6 20  1  0
  4 21  1  0
 21 22  2  0
 21 23  1  0
 23 24  1  1
 24 25  1  0
 25 26  1  0
 26 27  1  0
 27 28  1  0
 28 29  1  0
 29 30  1  0
 30 31  1  0
 31 32  1  0
 32 33  1  0
 33 34  1  0
 33 35  1  0
 32 36  1  0
 32 37  1  0
 30 38  1  0
 30 39  1  0
 29 40  1  0
 29 41  1  0
 28 42  1  0
 27 43  1  0
 27 44  1  0
 26 45  1  0
 26 46  1  0
 25 47  1  0
 47 48  2  0
 47 49  1  0
 49 50  2  0
 50 51  1  0
 51 52  2  0
 52 53  1  0
 52 54  1  0
 54 55  2  0
 54 56  1  0
 51 57  1  0
 50 58  1  0
 24 59  1  0
 24 60  1  0
  3 61  1  0
  3 62  1  0
  2 63  1  6
  1 64  1  0
  1 65  1  0
  1 66  1  0
 23  2  1  0
 33 28  1  0
 55 49  1  0
 14  5  1  0
 55 23  1  0
 14  9  1  0
M  CHG  1  28   1
M  END
>  <cnnaffinities>  (58) 
[7.07536, 7.2153, 7.28498]

>  <score>  (58) 
7.07536

>  <index>  (58) 
64

>  <Smiles>  (58) 
C([C@]1(C(N(c2c(nc(c3c(c(c(c(c23)[H])[H])[H])[H])[H])[H])C(=O)[C@]21C(N(C(C([N+]1(C(C(OC(C1([H])[H])([H])[H])([H])[H])([H])[H])[H])([H])[H])([H])[H])C(=O)c1c(c(c(Cl)c(c21)[H])[H])[H])([H])[H])([H])[H])[H])([H])([H])[H]

>  <h>  (58) 
<NA>

>  <Training>  (58) 
True

>  <Success>  (58) 
True

>  <enamine_searched>  (58) 
False

>  <enamine_id>  (58) 
nan

$$$$

     RDKit          3D

 54 59  0  0  0  0  0  0  0  0999 V2000
   12.6748   -2.6212   20.9463 C   0  0  0  0  0  0  0  0  0  0  0  0
   12.1288   -2.1922   22.2166 N   0  0  0  0  0  0  0  0  0  0  0  0
   12.4704   -1.0138   22.7980 C   0  0  0  0  0  0  0  0  0  0  0  0
   13.3465   -0.2901   22.3587 O   0  0  0  0  0  0  0  0  0  0  0  0
   11.7637   -0.7129   24.1258 C   0  0  0  0  0  0  0  0  0  0  0  0
   10.3145   -0.8228   24.1479 N   0  0  0  0  0  0  0  0  0  0  0  0
    9.6373   -1.5880   25.1070 C   0  0  0  0  0  0  0  0  0  0  0  0
   10.0779   -2.5757   25.6629 O   0  0  0  0  0  0  0  0  0  0  0  0
    8.2653   -1.0139   25.2343 C   0  0  0  0  0  0  0  0  0  0  0  0
    7.2697   -1.3537   26.1152 C   0  0  0  0  0  0  0  0  0  0  0  0
    6.0861   -0.5747   26.1312 C   0  0  0  0  0  0  0  0  0  0  0  0
    5.9964    0.5638   25.3734 C   0  0  0  0  0  0  0  0  0  0  0  0
    4.5414    1.5124   25.4167 Cl  0  0  0  0  0  0  0  0  0  0  0  0
    7.1122    1.1066   24.5533 C   0  0  0  0  0  0  0  0  0  0  0  0
    8.0937    0.0014   24.2136 C   0  0  1  0  0  0  0  0  0  0  0  0
    9.4308    0.1426   23.5575 C   0  0  2  0  0  0  0  0  0  0  0  0
    8.2947   -0.3828   22.7183 C   0  0  2  0  0  0  0  0  0  0  0  0
    7.7577    0.5172   21.6198 C   0  0  0  0  0  0  0  0  0  0  0  0
    7.9496    1.7001   21.4307 O   0  0  0  0  0  0  0  0  0  0  0  0
    6.9358   -0.2667   20.8352 N   0  0  0  0  0  0  0  0  0  0  0  0
    6.1696    0.2410   19.7621 C   0  0  0  0  0  0  0  0  0  0  0  0
    6.5029   -0.0645   18.4664 C   0  0  0  0  0  0  0  0  0  0  0  0
    5.8208    0.3757   17.3842 N   0  0  0  0  0  0  0  0  0  0  0  0
    4.7605    1.1145   17.6005 C   0  0  0  0  0  0  0  0  0  0  0  0
    4.2978    1.4896   18.8932 C   0  0  0  0  0  0  0  0  0  0  0  0
    3.1556    2.3091   19.0827 C   0  0  0  0  0  0  0  0  0  0  0  0
    2.7244    2.6156   20.3431 C   0  0  0  0  0  0  0  0  0  0  0  0
    3.4005    2.1132   21.4775 C   0  0  0  0  0  0  0  0  0  0  0  0
    4.5127    1.3255   21.3200 C   0  0  0  0  0  0  0  0  0  0  0  0
    5.0043    1.0235   20.0192 C   0  0  0  0  0  0  0  0  0  0  0  0
    5.0125    0.9289   22.1984 H   0  0  0  0  0  0  0  0  0  0  0  0
    3.0543    2.3551   22.4784 H   0  0  0  0  0  0  0  0  0  0  0  0
    1.8579    3.2542   20.4800 H   0  0  0  0  0  0  0  0  0  0  0  0
    2.6471    2.6936   18.2044 H   0  0  0  0  0  0  0  0  0  0  0  0
    4.2117    1.4597   16.7268 H   0  0  0  0  0  0  0  0  0  0  0  0
    7.3733   -0.6875   18.2616 H   0  0  0  0  0  0  0  0  0  0  0  0
    7.0186   -1.6820   21.1103 C   0  0  0  0  0  0  0  0  0  0  0  0
    7.9933   -1.7660   22.2618 C   0  0  0  0  0  0  0  0  0  0  0  0
    8.3342   -2.9576   22.7610 C   0  0  0  0  0  0  0  0  0  0  0  0
    7.6855   -4.0593   22.3238 F   0  0  0  0  0  0  0  0  0  0  0  0
    9.0923   -3.1993   23.4978 H   0  0  0  0  0  0  0  0  0  0  0  0
    7.3535   -2.2357   20.2311 H   0  0  0  0  0  0  0  0  0  0  0  0
    6.0313   -2.0643   21.3865 H   0  0  0  0  0  0  0  0  0  0  0  0
    9.8028    1.1428   23.3719 H   0  0  0  0  0  0  0  0  0  0  0  0
    7.6454    1.9180   25.0876 H   0  0  0  0  0  0  0  0  0  0  0  0
    6.7069    1.5916   23.6541 H   0  0  0  0  0  0  0  0  0  0  0  0
    5.2448   -0.8579   26.7623 H   0  0  0  0  0  0  0  0  0  0  0  0
    7.3782   -2.2037   26.7816 H   0  0  0  0  0  0  0  0  0  0  0  0
   12.1221    0.2636   24.4792 H   0  0  0  0  0  0  0  0  0  0  0  0
   12.1234   -1.4816   24.8069 H   0  0  0  0  0  0  0  0  0  0  0  0
   11.2888   -2.6390   22.5392 H   0  0  0  0  0  0  0  0  0  0  0  0
   13.7233   -2.3262   20.8665 H   0  0  0  0  0  0  0  0  0  0  0  0
   12.6025   -3.7105   20.8957 H   0  0  0  0  0  0  0  0  0  0  0  0
   12.1397   -2.1735   20.1033 H   0  0  0  0  0  0  0  0  0  0  0  0
  1  2  1  0
  2  3  1  0
  3  4  2  0
  3  5  1  0
  5  6  1  0
  6  7  1  0
  7  8  2  0
  7  9  1  0
  9 10  2  0
 10 11  1  0
 11 12  2  0
 12 13  1  0
 12 14  1  0
 15 14  1  6
 15 16  1  0
 16 17  1  0
 17 18  1  6
 18 19  2  0
 18 20  1  0
 20 21  1  0
 21 22  2  0
 22 23  1  0
 23 24  2  0
 24 25  1  0
 25 26  2  0
 26 27  1  0
 27 28  2  0
 28 29  1  0
 29 30  2  0
 29 31  1  0
 28 32  1  0
 27 33  1  0
 26 34  1  0
 24 35  1  0
 22 36  1  0
 20 37  1  0
 37 38  1  0
 38 39  2  0
 39 40  1  0
 39 41  1  0
 37 42  1  0
 37 43  1  0
 16 44  1  6
 14 45  1  0
 14 46  1  0
 11 47  1  0
 10 48  1  0
  5 49  1  0
  5 50  1  0
  2 51  1  0
  1 52  1  0
  1 53  1  0
  1 54  1  0
 16  6  1  0
 38 17  1  0
 15  9  1  0
 30 21  1  0
 17 15  1  0
 30 25  1  0
M  END
>  <cnnaffinities>  (59) 
[6.72092]

>  <score>  (59) 
6.72092

>  <index>  (59) 
65

>  <Smiles>  (59) 
C(N(C(=O)C(N1C(=O)C2=C(C(=C(Cl)C([C@]32[C@@]1([C@@]13C(=O)N(c2c(nc(c3c(c(c(c(c23)[H])[H])[H])[H])[H])[H])C(/C/1=C(\F)/[H])([H])[H])[H])([H])[H])[H])[H])([H])[H])[H])([H])([H])[H]

>  <h>  (59) 
<NA>

>  <Training>  (59) 
True

>  <Success>  (59) 
True

>  <enamine_searched>  (59) 
False

>  <enamine_id>  (59) 
nan

$$$$

     RDKit          3D

 47 50  0  0  0  0  0  0  0  0999 V2000
    8.6940    1.2014   20.6363 O   0  0  0  0  0  0  0  0  0  0  0  0
    7.8925    0.6967   21.3902 C   0  0  0  0  0  0  0  0  0  0  0  0
    6.9649   -0.4343   20.9094 C   0  0  0  0  0  0  0  0  0  0  0  0
    6.1067    0.0800   19.7720 C   0  0  0  0  0  0  0  0  0  0  0  0
    6.4303   -0.2001   18.4715 C   0  0  0  0  0  0  0  0  0  0  0  0
    5.7737    0.2734   17.3812 N   0  0  0  0  0  0  0  0  0  0  0  0
    4.7310    1.0370   17.5860 C   0  0  0  0  0  0  0  0  0  0  0  0
    4.2825    1.4241   18.8735 C   0  0  0  0  0  0  0  0  0  0  0  0
    3.1717    2.2860   19.0471 C   0  0  0  0  0  0  0  0  0  0  0  0
    2.7684    2.6553   20.3012 C   0  0  0  0  0  0  0  0  0  0  0  0
    3.4645    2.1732   21.4316 C   0  0  0  0  0  0  0  0  0  0  0  0
    4.5445    1.3362   21.2873 C   0  0  0  0  0  0  0  0  0  0  0  0
    4.9909    0.9404   20.0007 C   0  0  0  0  0  0  0  0  0  0  0  0
    5.0615    0.9732   22.1679 H   0  0  0  0  0  0  0  0  0  0  0  0
    3.1349    2.4699   22.4230 H   0  0  0  0  0  0  0  0  0  0  0  0
    1.9193    3.3213   20.4319 H   0  0  0  0  0  0  0  0  0  0  0  0
    2.6558    2.6533   18.1633 H   0  0  0  0  0  0  0  0  0  0  0  0
    4.1990    1.3949   16.7020 H   0  0  0  0  0  0  0  0  0  0  0  0
    7.2713   -0.8530   18.2393 H   0  0  0  0  0  0  0  0  0  0  0  0
    6.3435   -0.8176   21.7279 H   0  0  0  0  0  0  0  0  0  0  0  0
    7.5908   -1.2534   20.5342 H   0  0  0  0  0  0  0  0  0  0  0  0
    7.6776    1.1691   22.6910 N   0  0  0  0  0  0  0  0  0  0  0  0
    7.7792    0.3111   23.8640 C   0  0  0  0  0  0  0  0  0  0  0  0
    6.7864    0.7562   24.9309 C   0  0  0  0  0  0  0  0  0  0  0  0
    6.9165    2.2422   25.2692 C   0  0  1  0  0  0  0  0  0  0  0  0
    8.1451    2.5516   26.1326 C   0  0  0  0  0  0  0  0  0  0  0  0
    8.2093    4.0348   26.4949 C   0  0  0  0  0  0  0  0  0  0  0  0
    8.1952    4.8983   25.2554 C   0  0  0  0  0  0  0  0  0  0  0  0
    9.3951    4.7405   24.5962 F   0  0  0  0  0  0  0  0  0  0  0  0
    8.1433    6.2197   25.6219 F   0  0  0  0  0  0  0  0  0  0  0  0
    7.0475    4.5853   24.3133 C   0  0  0  0  0  0  0  0  0  0  0  0
    6.8927    3.0907   23.9865 C   0  0  1  0  0  0  0  0  0  0  0  0
    7.9062    2.5827   22.9509 C   0  0  0  0  0  0  0  0  0  0  0  0
    7.7567    3.1050   22.0055 H   0  0  0  0  0  0  0  0  0  0  0  0
    8.9352    2.8021   23.2619 H   0  0  0  0  0  0  0  0  0  0  0  0
    5.9054    2.9589   23.5225 H   0  0  0  0  0  0  0  0  0  0  0  0
    6.1467    4.9570   24.8131 H   0  0  0  0  0  0  0  0  0  0  0  0
    7.1770    5.1819   23.4063 H   0  0  0  0  0  0  0  0  0  0  0  0
    7.3438    4.3164   27.1012 H   0  0  0  0  0  0  0  0  0  0  0  0
    9.0997    4.2965   27.0680 H   0  0  0  0  0  0  0  0  0  0  0  0
    9.0513    2.2570   25.5957 H   0  0  0  0  0  0  0  0  0  0  0  0
    8.1130    1.9496   27.0462 H   0  0  0  0  0  0  0  0  0  0  0  0
    6.0443    2.5308   25.8701 H   0  0  0  0  0  0  0  0  0  0  0  0
    6.9171    0.1538   25.8370 H   0  0  0  0  0  0  0  0  0  0  0  0
    5.7746    0.5559   24.5614 H   0  0  0  0  0  0  0  0  0  0  0  0
    7.5873   -0.7176   23.5591 H   0  0  0  0  0  0  0  0  0  0  0  0
    8.8000    0.3202   24.2866 H   0  0  0  0  0  0  0  0  0  0  0  0
  1  2  2  0
  2  3  1  0
  3  4  1  0
  4  5  2  0
  5  6  1  0
  6  7  2  0
  7  8  1  0
  8  9  2  0
  9 10  1  0
 10 11  2  0
 11 12  1  0
 12 13  2  0
 12 14  1  0
 11 15  1  0
 10 16  1  0
  9 17  1  0
  7 18  1  0
  5 19  1  0
  3 20  1  0
  3 21  1  0
  2 22  1  0
 22 23  1  0
 23 24  1  0
 24 25  1  0
 25 26  1  0
 26 27  1  0
 27 28  1  0
 28 29  1  0
 28 30  1  0
 28 31  1  0
 31 32  1  0
 32 33  1  0
 33 34  1  0
 33 35  1  0
 32 36  1  6
 31 37  1  0
 31 38  1  0
 27 39  1  0
 27 40  1  0
 26 41  1  0
 26 42  1  0
 25 43  1  1
 24 44  1  0
 24 45  1  0
 23 46  1  0
 23 47  1  0
 13  4  1  0
 33 22  1  0
 13  8  1  0
 32 25  1  0
M  END
>  <cnnaffinities>  (60) 
[5.57846, 5.57846, 5.77467, 5.7747]

>  <score>  (60) 
5.57846

>  <index>  (60) 
66

>  <Smiles>  (60) 
O=C(C(c1c(nc(c2c(c(c(c(c12)[H])[H])[H])[H])[H])[H])([H])[H])N1C(C([C@]2(C(C(C(F)(F)C([C@]2(C1([H])[H])[H])([H])[H])([H])[H])([H])[H])[H])([H])[H])([H])[H]

>  <h>  (60) 
<NA>

>  <Training>  (60) 
True

>  <Success>  (60) 
True

>  <enamine_searched>  (60) 
False

>  <enamine_id>  (60) 
nan

$$$$

     RDKit          3D

 69 74  0  0  0  0  0  0  0  0999 V2000
    9.1381    4.9153   22.7798 C   0  0  0  0  0  0  0  0  0  0  0  0
    8.3600    3.7361   22.3361 N   0  0  0  0  0  4  0  0  0  0  0  0
    7.2363    3.4382   23.2567 C   0  0  0  0  0  0  0  0  0  0  0  0
    7.7269    2.8571   24.5880 C   0  0  0  0  0  0  0  0  0  0  0  0
    8.4863    1.6332   24.3874 N   0  0  0  0  0  0  0  0  0  0  0  0
    7.7593    0.3968   24.1891 C   0  0  0  0  0  0  0  0  0  0  0  0
    8.3382   -0.4306   23.0081 C   0  0  2  0  0  0  0  0  0  0  0  0
    8.0773    0.3174   21.6763 C   0  0  0  0  0  0  0  0  0  0  0  0
    8.6442    1.3304   21.2866 O   0  0  0  0  0  0  0  0  0  0  0  0
    7.0188   -0.2820   21.0336 N   0  0  0  0  0  0  0  0  0  0  0  0
    6.3318    0.2934   19.9298 C   0  0  0  0  0  0  0  0  0  0  0  0
    6.7716    0.0663   18.6508 C   0  0  0  0  0  0  0  0  0  0  0  0
    6.1098    0.4652   17.5348 N   0  0  0  0  0  0  0  0  0  0  0  0
    4.9863    1.1173   17.6994 C   0  0  0  0  0  0  0  0  0  0  0  0
    4.4398    1.4659   18.9670 C   0  0  0  0  0  0  0  0  0  0  0  0
    3.2538    2.2391   19.0891 C   0  0  0  0  0  0  0  0  0  0  0  0
    2.7759    2.5898   20.3194 C   0  0  0  0  0  0  0  0  0  0  0  0
    3.4463    2.1610   21.4868 C   0  0  0  0  0  0  0  0  0  0  0  0
    4.5825    1.3927   21.3934 C   0  0  0  0  0  0  0  0  0  0  0  0
    5.1237    1.0397   20.1247 C   0  0  0  0  0  0  0  0  0  0  0  0
    5.0794    1.0681   22.3030 H   0  0  0  0  0  0  0  0  0  0  0  0
    3.0659    2.4471   22.4600 H   0  0  0  0  0  0  0  0  0  0  0  0
    1.8819    3.2020   20.4076 H   0  0  0  0  0  0  0  0  0  0  0  0
    2.7526    2.5521   18.1772 H   0  0  0  0  0  0  0  0  0  0  0  0
    4.4494    1.4206   16.8002 H   0  0  0  0  0  0  0  0  0  0  0  0
    7.6967   -0.4833   18.4938 H   0  0  0  0  0  0  0  0  0  0  0  0
    6.4279   -1.3766   21.7863 C   0  0  0  0  0  0  0  0  0  0  0  0
    7.5439   -1.7495   22.7642 C   0  0  2  0  0  0  0  0  0  0  0  0
    7.0379   -2.4909   23.9955 C   0  0  0  0  0  0  0  0  0  0  0  0
    5.9748   -1.7509   24.5681 O   0  0  0  0  0  0  0  0  0  0  0  0
    5.6925   -2.0352   25.9176 C   0  0  0  0  0  0  0  0  0  0  0  0
    4.5092   -2.9643   26.0411 C   0  0  0  0  0  0  0  0  0  0  0  0
    3.3319   -2.3098   25.7545 F   0  0  0  0  0  0  0  0  0  0  0  0
    4.6133   -4.3957   25.6265 C   0  0  0  0  0  0  0  0  0  0  0  0
    4.4761   -4.0166   27.0926 C   0  0  0  0  0  0  0  0  0  0  0  0
    3.5271   -4.2357   27.5684 H   0  0  0  0  0  0  0  0  0  0  0  0
    5.3430   -4.1238   27.7402 H   0  0  0  0  0  0  0  0  0  0  0  0
    3.7528   -4.8541   25.1433 H   0  0  0  0  0  0  0  0  0  0  0  0
    5.5808   -4.7392   25.2719 H   0  0  0  0  0  0  0  0  0  0  0  0
    6.5773   -2.4550   26.4291 H   0  0  0  0  0  0  0  0  0  0  0  0
    5.4551   -1.0804   26.4029 H   0  0  0  0  0  0  0  0  0  0  0  0
    7.8582   -2.6154   24.7213 H   0  0  0  0  0  0  0  0  0  0  0  0
    6.6712   -3.4949   23.7348 H   0  0  0  0  0  0  0  0  0  0  0  0
    8.2210   -2.4183   22.2300 H   0  0  0  0  0  0  0  0  0  0  0  0
    5.5250   -1.0635   22.3241 H   0  0  0  0  0  0  0  0  0  0  0  0
    6.1451   -2.1931   21.1104 H   0  0  0  0  0  0  0  0  0  0  0  0
    9.8122   -0.6097   23.3026 C   0  0  0  0  0  0  0  0  0  0  0  0
   10.5546   -1.6566   22.7428 C   0  0  0  0  0  0  0  0  0  0  0  0
   11.8422   -1.8851   23.1894 C   0  0  0  0  0  0  0  0  0  0  0  0
   12.7492   -3.2024   22.5099 Cl  0  0  0  0  0  0  0  0  0  0  0  0
   12.4502   -1.0813   24.1513 C   0  0  0  0  0  0  0  0  0  0  0  0
   11.7689    0.0345   24.6010 C   0  0  0  0  0  0  0  0  0  0  0  0
   10.4805    0.2981   24.1368 C   0  0  0  0  0  0  0  0  0  0  0  0
    9.8469    1.6222   24.4504 C   0  0  0  0  0  0  0  0  0  0  0  0
   10.5219    2.6137   24.7079 O   0  0  0  0  0  0  0  0  0  0  0  0
   12.2272    0.7241   25.2980 H   0  0  0  0  0  0  0  0  0  0  0  0
   13.4397   -1.3308   24.5207 H   0  0  0  0  0  0  0  0  0  0  0  0
   10.1501   -2.3132   21.9827 H   0  0  0  0  0  0  0  0  0  0  0  0
    6.7097    0.6218   23.9955 H   0  0  0  0  0  0  0  0  0  0  0  0
    7.8175   -0.2053   25.1064 H   0  0  0  0  0  0  0  0  0  0  0  0
    6.8616    2.6222   25.2179 H   0  0  0  0  0  0  0  0  0  0  0  0
    8.3647    3.5510   25.1395 H   0  0  0  0  0  0  0  0  0  0  0  0
    6.5861    2.7182   22.7582 H   0  0  0  0  0  0  0  0  0  0  0  0
    6.6494    4.3499   23.4177 H   0  0  0  0  0  0  0  0  0  0  0  0
    7.9986    3.9078   21.3831 H   0  0  0  0  0  0  0  0  0  0  0  0
    8.9416    2.8847   22.2434 H   0  0  0  0  0  0  0  0  0  0  0  0
    9.6697    5.3711   21.9443 H   0  0  0  0  0  0  0  0  0  0  0  0
    8.4537    5.6616   23.2010 H   0  0  0  0  0  0  0  0  0  0  0  0
    9.8519    4.6364   23.5547 H   0  0  0  0  0  0  0  0  0  0  0  0
  1  2  1  0
  2  3  1  0
  3  4  1  0
  4  5  1  0
  5  6  1  0
  7  6  1  1
  7  8  1  0
  8  9  2  0
  8 10  1  0
 10 11  1  0
 11 12  2  0
 12 13  1  0
 13 14  2  0
 14 15  1  0
 15 16  2  0
 16 17  1  0
 17 18  2  0
 18 19  1  0
 19 20  2  0
 19 21  1  0
 18 22  1  0
 17 23  1  0
 16 24  1  0
 14 25  1  0
 12 26  1  0
 10 27  1  0
 27 28  1  0
 28 29  1  0
 29 30  1  0
 30 31  1  0
 31 32  1  0
 32 33  1  0
 32 34  1  0
 34 35  1  0
 35 36  1  0
 35 37  1  0
 34 38  1  0
 34 39  1  0
 31 40  1  0
 31 41  1  0
 29 42  1  0
 29 43  1  0
 28 44  1  6
 27 45  1  0
 27 46  1  0
  7 47  1  0
 47 48  2  0
 48 49  1  0
 49 50  1  0
 49 51  2  0
 51 52  1  0
 52 53  2  0
 53 54  1  0
 54 55  2  0
 52 56  1  0
 51 57  1  0
 48 58  1  0
  6 59  1  0
  6 60  1  0
  4 61  1  0
  4 62  1  0
  3 63  1  0
  3 64  1  0
  2 65  1  0
  2 66  1  0
  1 67  1  0
  1 68  1  0
  1 69  1  0
 54  5  1  0
 28  7  1  0
 35 32  1  0
 53 47  1  0
 20 11  1  0
 20 15  1  0
M  CHG  1   2   1
M  END
>  <cnnaffinities>  (61) 
[7.21223, 7.18989]

>  <score>  (61) 
7.21223

>  <index>  (61) 
67

>  <Smiles>  (61) 
C([N+](C(C(N1C([C@@]2(C(=O)N(c3c(nc(c4c(c(c(c(c34)[H])[H])[H])[H])[H])[H])C([C@@]2(C(OC(C2(F)C(C2([H])[H])([H])[H])([H])[H])([H])[H])[H])([H])[H])c2c(c(Cl)c(c(c2C1=O)[H])[H])[H])([H])[H])([H])[H])([H])[H])([H])[H])([H])([H])[H]

>  <h>  (61) 
<NA>

>  <Training>  (61) 
True

>  <Success>  (61) 
True

>  <enamine_searched>  (61) 
False

>  <enamine_id>  (61) 
nan

$$$$

     RDKit          3D

 57 62  0  0  0  0  0  0  0  0999 V2000
    8.0190   -9.0034   22.9935 C   0  0  0  0  0  0  0  0  0  0  0  0
    7.6244   -7.8261   22.1709 C   0  0  0  0  0  0  0  0  0  0  0  0
    6.4263   -7.3186   22.1168 N   0  0  0  0  0  0  0  0  0  0  0  0
    6.6332   -6.1813   21.3893 C   0  0  0  0  0  0  0  0  0  0  0  0
    5.8243   -4.9428   21.6128 C   0  0  0  0  0  0  0  0  0  0  0  0
    6.5513   -4.2078   22.6536 N   0  0  0  0  0  0  0  0  0  0  0  0
    7.7165   -3.3679   22.3699 C   0  0  0  0  0  0  0  0  0  0  0  0
    7.3835   -1.8703   22.6952 C   0  0  2  0  0  0  0  0  0  0  0  0
    6.3070   -1.4181   21.6885 C   0  0  0  0  0  0  0  0  0  0  0  0
    5.1765   -1.8527   21.5979 O   0  0  0  0  0  0  0  0  0  0  0  0
    6.8483   -0.4553   20.8671 N   0  0  0  0  0  0  0  0  0  0  0  0
    6.1132    0.0927   19.7989 C   0  0  0  0  0  0  0  0  0  0  0  0
    6.4762   -0.1812   18.5070 C   0  0  0  0  0  0  0  0  0  0  0  0
    5.8243    0.2824   17.4166 N   0  0  0  0  0  0  0  0  0  0  0  0
    4.7711    1.0343   17.6199 C   0  0  0  0  0  0  0  0  0  0  0  0
    4.3043    1.4173   18.9081 C   0  0  0  0  0  0  0  0  0  0  0  0
    3.1829    2.2731   19.0645 C   0  0  0  0  0  0  0  0  0  0  0  0
    2.7768    2.6574   20.3125 C   0  0  0  0  0  0  0  0  0  0  0  0
    3.4686    2.2053   21.4589 C   0  0  0  0  0  0  0  0  0  0  0  0
    4.5502    1.3686   21.3334 C   0  0  0  0  0  0  0  0  0  0  0  0
    4.9918    0.9463   20.0455 C   0  0  0  0  0  0  0  0  0  0  0  0
    5.0753    1.0187   22.2171 H   0  0  0  0  0  0  0  0  0  0  0  0
    3.1435    2.5349   22.4421 H   0  0  0  0  0  0  0  0  0  0  0  0
    1.9256    3.3226   20.4288 H   0  0  0  0  0  0  0  0  0  0  0  0
    2.6720    2.6236   18.1713 H   0  0  0  0  0  0  0  0  0  0  0  0
    4.2365    1.3914   16.7401 H   0  0  0  0  0  0  0  0  0  0  0  0
    7.3234   -0.8402   18.3200 H   0  0  0  0  0  0  0  0  0  0  0  0
    8.2941   -0.3768   20.9646 C   0  0  0  0  0  0  0  0  0  0  0  0
    8.5950   -0.9424   22.3685 C   0  0  2  0  0  0  0  0  0  0  0  0
    9.9887   -1.5751   22.4709 C   0  0  0  0  0  0  0  0  0  0  0  0
   10.1495   -2.3216   21.6838 H   0  0  0  0  0  0  0  0  0  0  0  0
   10.7804   -0.8270   22.3763 H   0  0  0  0  0  0  0  0  0  0  0  0
   10.1432   -2.0696   23.4354 H   0  0  0  0  0  0  0  0  0  0  0  0
    8.5639   -0.0989   23.0616 H   0  0  0  0  0  0  0  0  0  0  0  0
    8.7830   -0.9745   20.1801 H   0  0  0  0  0  0  0  0  0  0  0  0
    8.6185    0.6624   20.8533 H   0  0  0  0  0  0  0  0  0  0  0  0
    6.7818   -1.7225   24.0842 C   0  0  0  0  0  0  0  0  0  0  0  0
    6.8121   -0.5498   24.8231 C   0  0  0  0  0  0  0  0  0  0  0  0
    6.3753   -0.5421   26.1339 C   0  0  0  0  0  0  0  0  0  0  0  0
    6.3959    0.6156   26.8088 F   0  0  0  0  0  0  0  0  0  0  0  0
    6.0368   -1.7164   26.8216 C   0  0  0  0  0  0  0  0  0  0  0  0
    5.9638   -2.8960   26.1237 C   0  0  0  0  0  0  0  0  0  0  0  0
    6.0731   -2.8610   24.6901 C   0  0  0  0  0  0  0  0  0  0  0  0
    5.9677   -3.9616   23.8064 C   0  0  0  0  0  0  0  0  0  0  0  0
    4.7685   -3.4740   24.0042 O   0  0  0  0  0  0  0  0  0  0  0  0
    5.7184   -3.8393   26.5983 H   0  0  0  0  0  0  0  0  0  0  0  0
    5.8098   -1.6661   27.8799 H   0  0  0  0  0  0  0  0  0  0  0  0
    7.2426    0.3612   24.4240 H   0  0  0  0  0  0  0  0  0  0  0  0
    7.9706   -3.5056   21.3168 H   0  0  0  0  0  0  0  0  0  0  0  0
    8.5663   -3.7091   22.9724 H   0  0  0  0  0  0  0  0  0  0  0  0
    4.8350   -5.1788   22.0122 H   0  0  0  0  0  0  0  0  0  0  0  0
    5.7405   -4.3219   20.7114 H   0  0  0  0  0  0  0  0  0  0  0  0
    7.8321   -6.0743   20.8894 N   0  0  0  0  0  0  0  0  0  0  0  0
    8.4981   -7.1642   21.4171 O   0  0  0  0  0  0  0  0  0  0  0  0
    7.7629   -9.9188   22.4607 H   0  0  0  0  0  0  0  0  0  0  0  0
    7.4011   -9.0187   23.8892 H   0  0  0  0  0  0  0  0  0  0  0  0
    9.0796   -8.9896   23.2708 H   0  0  0  0  0  0  0  0  0  0  0  0
  1  2  1  0
  2  3  2  0
  3  4  1  0
  4  5  1  0
  5  6  1  0
  6  7  1  0
  8  7  1  6
  8  9  1  0
  9 10  2  0
  9 11  1  0
 11 12  1  0
 12 13  2  0
 13 14  1  0
 14 15  2  0
 15 16  1  0
 16 17  2  0
 17 18  1  0
 18 19  2  0
 19 20  1  0
 20 21  2  0
 20 22  1  0
 19 23  1  0
 18 24  1  0
 17 25  1  0
 15 26  1  0
 13 27  1  0
 11 28  1  0
 28 29  1  0
 29 30  1  0
 30 31  1  0
 30 32  1  0
 30 33  1  0
 29 34  1  1
 28 35  1  0
 28 36  1  0
  8 37  1  0
 37 38  2  0
 38 39  1  0
 39 40  1  0
 39 41  2  0
 41 42  1  0
 42 43  2  0
 43 44  1  0
 44 45  2  0
 42 46  1  0
 41 47  1  0
 38 48  1  0
  7 49  1  0
  7 50  1  0
  5 51  1  0
  5 52  1  0
  4 53  2  0
 53 54  1  0
  1 55  1  0
  1 56  1  0
  1 57  1  0
 54  2  1  0
 44  6  1  0
 29  8  1  0
 43 37  1  0
 21 12  1  0
 21 16  1  0
M  END
>  <cnnaffinities>  (62) 
[6.80011]

>  <score>  (62) 
6.80011

>  <index>  (62) 
68

>  <Smiles>  (62) 
C(c1nc(C(N2C([C@@]3(C(=O)N(c4c(nc(c5c(c(c(c(c45)[H])[H])[H])[H])[H])[H])C([C@@]3(C([H])([H])[H])[H])([H])[H])c3c(c(F)c(c(c3C2=O)[H])[H])[H])([H])[H])([H])[H])no1)([H])([H])[H]

>  <h>  (62) 
<NA>

>  <Training>  (62) 
True

>  <Success>  (62) 
True

>  <enamine_searched>  (62) 
False

>  <enamine_id>  (62) 
nan

$$$$

     RDKit          3D

 64 68  0  0  0  0  0  0  0  0999 V2000
    2.4400   -0.3260   29.2816 C   0  0  0  0  0  0  0  0  0  0  0  0
    2.6654   -0.2432   27.7636 C   0  0  0  0  0  0  0  0  0  0  0  0
    3.6408   -1.2849   27.2279 C   0  0  0  0  0  0  0  0  0  0  0  0
    4.8392   -1.1373   27.3707 O   0  0  0  0  0  0  0  0  0  0  0  0
    3.1062   -2.3835   26.5461 N   0  0  0  0  0  0  0  0  0  0  0  0
    2.0105   -3.1178   27.1989 C   0  0  0  0  0  0  0  0  0  0  0  0
    1.4475   -4.2257   26.3182 C   0  0  0  0  0  0  0  0  0  0  0  0
    2.5920   -5.1120   25.8278 C   0  0  0  0  0  0  0  0  0  0  0  0
    3.6188   -4.2708   25.1048 C   0  0  0  0  0  0  0  0  0  0  0  0
    4.3234   -4.7858   24.0263 C   0  0  0  0  0  0  0  0  0  0  0  0
    5.2404   -4.0359   23.3068 C   0  0  0  0  0  0  0  0  0  0  0  0
    5.4441   -2.7054   23.6680 C   0  0  0  0  0  0  0  0  0  0  0  0
    6.3948   -1.9087   22.9575 N   0  0  0  0  0  0  0  0  0  0  0  0
    7.5224   -1.3420   23.7060 C   0  0  0  0  0  0  0  0  0  0  0  0
    8.0745   -2.2954   24.7614 C   0  0  0  0  0  0  0  0  0  0  0  0
    7.8776   -2.0288   26.1187 C   0  0  0  0  0  0  0  0  0  0  0  0
    8.3235   -2.9226   27.0911 C   0  0  0  0  0  0  0  0  0  0  0  0
    8.9829   -4.0846   26.7220 C   0  0  0  0  0  0  0  0  0  0  0  0
    9.1545   -4.3590   25.3728 C   0  0  0  0  0  0  0  0  0  0  0  0
    9.8940   -5.8830   24.9617 Cl  0  0  0  0  0  0  0  0  0  0  0  0
    8.7203   -3.4767   24.3879 C   0  0  0  0  0  0  0  0  0  0  0  0
    8.8632   -3.7131   23.3360 H   0  0  0  0  0  0  0  0  0  0  0  0
    9.3852   -4.7756   27.4567 H   0  0  0  0  0  0  0  0  0  0  0  0
    8.2094   -2.6880   28.1492 H   0  0  0  0  0  0  0  0  0  0  0  0
    7.3837   -1.1079   26.4277 H   0  0  0  0  0  0  0  0  0  0  0  0
    7.2135   -0.4107   24.2096 H   0  0  0  0  0  0  0  0  0  0  0  0
    8.2946   -1.0961   22.9666 H   0  0  0  0  0  0  0  0  0  0  0  0
    6.1601   -1.6814   21.6087 C   0  0  0  0  0  0  0  0  0  0  0  0
    5.3986   -2.3767   20.9673 O   0  0  0  0  0  0  0  0  0  0  0  0
    6.8962   -0.5014   20.9289 C   0  0  0  0  0  0  0  0  0  0  0  0
    6.1098    0.0890   19.7848 C   0  0  0  0  0  0  0  0  0  0  0  0
    6.4276   -0.1900   18.4803 C   0  0  0  0  0  0  0  0  0  0  0  0
    5.7787    0.2848   17.3880 N   0  0  0  0  0  0  0  0  0  0  0  0
    4.7337    1.0483   17.5856 C   0  0  0  0  0  0  0  0  0  0  0  0
    4.2864    1.4166   18.8818 C   0  0  0  0  0  0  0  0  0  0  0  0
    3.1695    2.2545   19.0825 C   0  0  0  0  0  0  0  0  0  0  0  0
    2.5324    2.6918   17.9837 F   0  0  0  0  0  0  0  0  0  0  0  0
    2.7351    2.6182   20.3232 C   0  0  0  0  0  0  0  0  0  0  0  0
    3.4277    2.1255   21.4496 C   0  0  0  0  0  0  0  0  0  0  0  0
    4.5200    1.3041   21.3038 C   0  0  0  0  0  0  0  0  0  0  0  0
    4.9795    0.9333   20.0123 C   0  0  0  0  0  0  0  0  0  0  0  0
    5.0498    0.9263   22.1704 H   0  0  0  0  0  0  0  0  0  0  0  0
    3.0940    2.4049   22.4466 H   0  0  0  0  0  0  0  0  0  0  0  0
    1.8775    3.2746   20.4150 H   0  0  0  0  0  0  0  0  0  0  0  0
    4.1952    1.4007   16.7104 H   0  0  0  0  0  0  0  0  0  0  0  0
    7.2613   -0.8513   18.2478 H   0  0  0  0  0  0  0  0  0  0  0  0
    7.8477   -0.8882   20.5382 H   0  0  0  0  0  0  0  0  0  0  0  0
    7.1493    0.2697   21.6667 H   0  0  0  0  0  0  0  0  0  0  0  0
    4.7667   -2.1603   24.7552 C   0  0  0  0  0  0  0  0  0  0  0  0
    3.8530   -2.9412   25.4848 C   0  0  0  0  0  0  0  0  0  0  0  0
    4.9488   -1.1236   25.0230 H   0  0  0  0  0  0  0  0  0  0  0  0
    5.7930   -4.4842   22.4865 H   0  0  0  0  0  0  0  0  0  0  0  0
    4.1208   -5.8126   23.7313 H   0  0  0  0  0  0  0  0  0  0  0  0
    3.0579   -5.6381   26.6779 H   0  0  0  0  0  0  0  0  0  0  0  0
    2.2207   -5.8958   25.1545 H   0  0  0  0  0  0  0  0  0  0  0  0
    0.7247   -4.8087   26.9019 H   0  0  0  0  0  0  0  0  0  0  0  0
    0.9092   -3.7943   25.4639 H   0  0  0  0  0  0  0  0  0  0  0  0
    1.2364   -2.3916   27.4637 H   0  0  0  0  0  0  0  0  0  0  0  0
    2.3780   -3.5659   28.1391 H   0  0  0  0  0  0  0  0  0  0  0  0
    3.1481    0.7117   27.5228 H   0  0  0  0  0  0  0  0  0  0  0  0
    1.7201   -0.2770   27.2063 H   0  0  0  0  0  0  0  0  0  0  0  0
    1.9813   -1.2764   29.5824 H   0  0  0  0  0  0  0  0  0  0  0  0
    3.3905   -0.2189   29.8156 H   0  0  0  0  0  0  0  0  0  0  0  0
    1.7824    0.4874   29.6109 H   0  0  0  0  0  0  0  0  0  0  0  0
  1  2  1  0
  2  3  1  0
  3  4  2  0
  3  5  1  0
  5  6  1  0
  6  7  1  0
  7  8  1  0
  8  9  1  0
  9 10  2  0
 10 11  1  0
 11 12  2  0
 12 13  1  0
 13 14  1  0
 14 15  1  0
 15 16  2  0
 16 17  1  0
 17 18  2  0
 18 19  1  0
 19 20  1  0
 19 21  2  0
 21 22  1  0
 18 23  1  0
 17 24  1  0
 16 25  1  0
 14 26  1  0
 14 27  1  0
 13 28  1  0
 28 29  2  0
 28 30  1  0
 30 31  1  0
 31 32  2  0
 32 33  1  0
 33 34  2  0
 34 35  1  0
 35 36  2  0
 36 37  1  0
 36 38  1  0
 38 39  2  0
 39 40  1  0
 40 41  2  0
 40 42  1  0
 39 43  1  0
 38 44  1  0
 34 45  1  0
 32 46  1  0
 30 47  1  0
 30 48  1  0
 12 49  1  0
 49 50  2  0
 49 51  1  0
 11 52  1  0
 10 53  1  0
  8 54  1  0
  8 55  1  0
  7 56  1  0
  7 57  1  0
  6 58  1  0
  6 59  1  0
  2 60  1  0
  2 61  1  0
  1 62  1  0
  1 63  1  0
  1 64  1  0
 50  5  1  0
 50  9  1  0
 21 15  1  0
 41 31  1  0
 41 35  1  0
M  END
>  <cnnaffinities>  (63) 
[6.24555, 6.58442]

>  <score>  (63) 
6.24555

>  <index>  (63) 
69

>  <Smiles>  (63) 
C(C(C(=O)N1C(C(C(c2c(c(c(N(C(c3c(c(c(c(Cl)c3[H])[H])[H])[H])([H])[H])C(=O)C(c3c(nc(c4c(F)c(c(c(c34)[H])[H])[H])[H])[H])([H])[H])c(c12)[H])[H])[H])([H])[H])([H])[H])([H])[H])([H])[H])([H])([H])[H]

>  <h>  (63) 
<NA>

>  <Training>  (63) 
True

>  <Success>  (63) 
True

>  <enamine_searched>  (63) 
False

>  <enamine_id>  (63) 
nan

$$$$

     RDKit          3D

 57 62  0  0  0  0  0  0  0  0999 V2000
    9.7691   -1.1628   22.8650 C   0  0  0  0  0  0  0  0  0  0  0  0
    8.4177   -0.6582   22.3843 C   0  0  1  0  0  0  0  0  0  0  0  0
    8.2808   -0.4373   20.8751 C   0  0  0  0  0  0  0  0  0  0  0  0
    6.8413   -0.5091   20.6891 N   0  0  0  0  0  0  0  0  0  0  0  0
    6.1627    0.1542   19.6505 C   0  0  0  0  0  0  0  0  0  0  0  0
    6.6341    0.0942   18.3609 C   0  0  0  0  0  0  0  0  0  0  0  0
    6.0059    0.6330   17.2891 N   0  0  0  0  0  0  0  0  0  0  0  0
    4.8890    1.2825   17.5092 C   0  0  0  0  0  0  0  0  0  0  0  0
    4.3461    1.5100   18.8025 C   0  0  0  0  0  0  0  0  0  0  0  0
    3.1838    2.3058   18.9846 C   0  0  0  0  0  0  0  0  0  0  0  0
    2.7270    2.5824   20.2436 C   0  0  0  0  0  0  0  0  0  0  0  0
    3.4077    2.0723   21.3730 C   0  0  0  0  0  0  0  0  0  0  0  0
    4.5183    1.2822   21.2198 C   0  0  0  0  0  0  0  0  0  0  0  0
    5.0066    0.9618   19.9200 C   0  0  0  0  0  0  0  0  0  0  0  0
    5.0346    0.8954   22.0917 H   0  0  0  0  0  0  0  0  0  0  0  0
    3.0487    2.3133   22.3697 H   0  0  0  0  0  0  0  0  0  0  0  0
    1.8491    3.2083   20.3842 H   0  0  0  0  0  0  0  0  0  0  0  0
    2.6880    2.7076   18.1035 H   0  0  0  0  0  0  0  0  0  0  0  0
    4.3661    1.6921   16.6443 H   0  0  0  0  0  0  0  0  0  0  0  0
    7.5575   -0.4403   18.1423 H   0  0  0  0  0  0  0  0  0  0  0  0
    6.2345   -1.3427   21.6190 C   0  0  0  0  0  0  0  0  0  0  0  0
    5.1311   -1.8301   21.4819 O   0  0  0  0  0  0  0  0  0  0  0  0
    7.2504   -1.6045   22.7645 C   0  0  1  0  0  0  0  0  0  0  0  0
    7.6982   -3.1040   22.6341 C   0  0  0  0  0  0  0  0  0  0  0  0
    6.5715   -4.0196   22.8436 N   0  0  0  0  0  0  0  0  0  0  0  0
    5.8919   -4.6985   21.7419 C   0  0  0  0  0  0  0  0  0  0  0  0
    6.0454   -6.1495   21.7700 C   0  0  0  0  0  0  0  0  0  0  0  0
    7.4025   -6.6462   21.7354 N   0  0  0  0  0  0  0  0  0  0  0  0
    7.3779   -6.7399   21.8612 N   0  0  0  0  0  0  0  0  0  0  0  0
    6.6072   -7.9147   22.1390 N   0  0  0  0  0  0  0  0  0  0  0  0
    7.2887   -8.9848   22.9938 C   0  0  0  0  0  0  0  0  0  0  0  0
    7.3256   -9.9376   22.4504 H   0  0  0  0  0  0  0  0  0  0  0  0
    6.7710   -9.1439   23.9480 H   0  0  0  0  0  0  0  0  0  0  0  0
    8.3041   -8.5841   23.1371 H   0  0  0  0  0  0  0  0  0  0  0  0
    5.3216   -7.1885   22.1344 N   0  0  0  0  0  0  0  0  0  0  0  0
    6.3029   -4.2817   20.8142 H   0  0  0  0  0  0  0  0  0  0  0  0
    4.8370   -4.4195   21.7685 H   0  0  0  0  0  0  0  0  0  0  0  0
    5.8393   -3.6714   23.8933 C   0  0  0  0  0  0  0  0  0  0  0  0
    4.7091   -3.0044   23.9889 O   0  0  0  0  0  0  0  0  0  0  0  0
    5.9468   -2.5370   24.7559 C   0  0  0  0  0  0  0  0  0  0  0  0
    5.8267   -2.6630   26.1780 C   0  0  0  0  0  0  0  0  0  0  0  0
    6.4045   -1.7355   27.0155 C   0  0  0  0  0  0  0  0  0  0  0  0
    7.0529   -0.6389   26.4552 C   0  0  0  0  0  0  0  0  0  0  0  0
    7.5814    0.2807   27.2775 F   0  0  0  0  0  0  0  0  0  0  0  0
    7.1967   -0.4635   25.0868 C   0  0  0  0  0  0  0  0  0  0  0  0
    6.7487   -1.4276   24.1908 C   0  0  0  0  0  0  0  0  0  0  0  0
    7.6969    0.4404   24.7527 H   0  0  0  0  0  0  0  0  0  0  0  0
    6.3425   -1.8403   28.0914 H   0  0  0  0  0  0  0  0  0  0  0  0
    5.2395   -3.5005   26.5394 H   0  0  0  0  0  0  0  0  0  0  0  0
    8.1448   -3.2926   21.6567 H   0  0  0  0  0  0  0  0  0  0  0  0
    8.4266   -3.3067   23.4248 H   0  0  0  0  0  0  0  0  0  0  0  0
    8.8049   -1.2160   20.2985 H   0  0  0  0  0  0  0  0  0  0  0  0
    8.6421    0.5418   20.5529 H   0  0  0  0  0  0  0  0  0  0  0  0
    8.2022    0.3186   22.8282 H   0  0  0  0  0  0  0  0  0  0  0  0
    9.7271   -1.3852   23.9377 H   0  0  0  0  0  0  0  0  0  0  0  0
   10.0427   -2.0850   22.3425 H   0  0  0  0  0  0  0  0  0  0  0  0
   10.5734   -0.4488   22.7072 H   0  0  0  0  0  0  0  0  0  0  0  0
  1  2  1  0
  2  3  1  0
  3  4  1  0
  4  5  1  0
  5  6  2  0
  6  7  1  0
  7  8  2  0
  8  9  1  0
  9 10  2  0
 10 11  1  0
 11 12  2  0
 12 13  1  0
 13 14  2  0
 13 15  1  0
 12 16  1  0
 11 17  1  0
 10 18  1  0
  8 19  1  0
  6 20  1  0
  4 21  1  0
 21 22  2  0
 21 23  1  0
 23 24  1  1
 24 25  1  0
 25 26  1  0
 26 27  1  0
 27 28  1  0
 28 29  2  0
 29 30  1  0
 30 31  1  0
 31 32  1  0
 31 33  1  0
 31 34  1  0
 30 35  1  0
 26 36  1  0
 26 37  1  0
 25 38  1  0
 38 39  2  0
 38 40  1  0
 40 41  2  0
 41 42  1  0
 42 43  2  0
 43 44  1  0
 43 45  1  0
 45 46  2  0
 45 47  1  0
 42 48  1  0
 41 49  1  0
 24 50  1  0
 24 51  1  0
  3 52  1  0
  3 53  1  0
  2 54  1  1
  1 55  1  0
  1 56  1  0
  1 57  1  0
 23  2  1  0
 35 27  2  0
 46 40  1  0
 14  5  1  0
 46 23  1  0
 14  9  1  0
M  END
>  <cnnaffinities>  (64) 
[6.57253]

>  <score>  (64) 
6.57253

>  <index>  (64) 
70

>  <Smiles>  (64) 
C([C@]1(C(N(c2c(nc(c3c(c(c(c(c23)[H])[H])[H])[H])[H])[H])C(=O)[C@]21C(N(C(c1nnn(C([H])([H])[H])n1)([H])[H])C(=O)c1c(c(c(F)c(c21)[H])[H])[H])([H])[H])([H])[H])[H])([H])([H])[H]

>  <h>  (64) 
<NA>

>  <Training>  (64) 
True

>  <Success>  (64) 
True

>  <enamine_searched>  (64) 
False

>  <enamine_id>  (64) 
nan

$$$$

     RDKit          3D

 59 64  0  0  0  0  0  0  0  0999 V2000
    7.2827   -2.6597   23.8732 C   0  0  0  0  0  0  0  0  0  0  0  0
    7.6402   -1.9105   22.5982 C   0  0  1  0  0  0  0  0  0  0  0  0
    6.4602   -1.5372   21.6843 C   0  0  0  0  0  0  0  0  0  0  0  0
    6.9830   -0.3885   20.9658 N   0  0  0  0  0  0  0  0  0  0  0  0
    6.2731    0.1970   19.8925 C   0  0  0  0  0  0  0  0  0  0  0  0
    6.6489   -0.0735   18.6030 C   0  0  0  0  0  0  0  0  0  0  0  0
    5.9631    0.3344   17.5063 N   0  0  0  0  0  0  0  0  0  0  0  0
    4.8712    1.0316   17.6975 C   0  0  0  0  0  0  0  0  0  0  0  0
    4.3933    1.4258   18.9803 C   0  0  0  0  0  0  0  0  0  0  0  0
    3.2432    2.2459   19.1346 C   0  0  0  0  0  0  0  0  0  0  0  0
    2.8173    2.6170   20.3782 C   0  0  0  0  0  0  0  0  0  0  0  0
    3.5178    2.1843   21.5271 C   0  0  0  0  0  0  0  0  0  0  0  0
    4.6352    1.3926   21.4080 C   0  0  0  0  0  0  0  0  0  0  0  0
    5.1048    0.9944   20.1241 C   0  0  0  0  0  0  0  0  0  0  0  0
    5.1721    1.0951   22.3061 H   0  0  0  0  0  0  0  0  0  0  0  0
    3.1809    2.4869   22.5129 H   0  0  0  0  0  0  0  0  0  0  0  0
    1.9435    3.2549   20.4901 H   0  0  0  0  0  0  0  0  0  0  0  0
    2.7244    2.5805   18.2392 H   0  0  0  0  0  0  0  0  0  0  0  0
    4.3064    1.3313   16.8120 H   0  0  0  0  0  0  0  0  0  0  0  0
    7.5433   -0.6647   18.4192 H   0  0  0  0  0  0  0  0  0  0  0  0
    8.1414    0.1487   21.4922 C   0  0  0  0  0  0  0  0  0  0  0  0
    8.7632    1.0601   20.9878 O   0  0  0  0  0  0  0  0  0  0  0  0
    8.4084   -0.5825   22.8364 C   0  0  1  0  0  0  0  0  0  0  0  0
    7.7439    0.2244   23.9874 C   0  0  0  0  0  0  0  0  0  0  0  0
    8.4676    1.4526   24.2428 N   0  0  0  0  0  0  0  0  0  0  0  0
    7.7804    2.7316   24.0574 C   0  0  0  0  0  0  0  0  0  0  0  0
    6.6129    2.8559   24.9889 C   0  0  0  0  0  0  0  0  0  0  0  0
    5.3399    2.7289   24.6754 N   0  0  0  0  0  0  0  0  0  0  0  0
    4.6687    2.8055   25.8715 C   0  0  0  0  0  0  0  0  0  0  0  0
    5.5510    2.9732   26.9047 C   0  0  0  0  0  0  0  0  0  0  0  0
    6.7963    3.0097   26.3254 N   0  0  0  0  0  0  0  0  0  0  0  0
    8.0819    3.0536   26.9817 C   0  0  0  0  0  0  0  0  0  0  0  0
    7.9426    3.0015   28.0612 H   0  0  0  0  0  0  0  0  0  0  0  0
    8.6751    2.1963   26.6554 H   0  0  0  0  0  0  0  0  0  0  0  0
    8.6170    3.9747   26.7342 H   0  0  0  0  0  0  0  0  0  0  0  0
    5.4303    3.0637   27.9722 H   0  0  0  0  0  0  0  0  0  0  0  0
    3.5924    2.7312   25.9291 H   0  0  0  0  0  0  0  0  0  0  0  0
    7.4312    2.8322   23.0223 H   0  0  0  0  0  0  0  0  0  0  0  0
    8.5306    3.5087   24.2302 H   0  0  0  0  0  0  0  0  0  0  0  0
    9.8179    1.4198   24.4359 C   0  0  0  0  0  0  0  0  0  0  0  0
   10.4567    2.3941   24.8191 O   0  0  0  0  0  0  0  0  0  0  0  0
   10.5053    0.1341   24.0841 C   0  0  0  0  0  0  0  0  0  0  0  0
   11.8275   -0.0673   24.5021 C   0  0  0  0  0  0  0  0  0  0  0  0
   12.6018   -1.0410   23.9002 C   0  0  0  0  0  0  0  0  0  0  0  0
   12.0334   -1.7967   22.8836 C   0  0  0  0  0  0  0  0  0  0  0  0
   12.8222   -2.6337   22.1852 F   0  0  0  0  0  0  0  0  0  0  0  0
   10.6940   -1.7024   22.5550 C   0  0  0  0  0  0  0  0  0  0  0  0
    9.8864   -0.7349   23.1706 C   0  0  0  0  0  0  0  0  0  0  0  0
   10.3219   -2.3742   21.7962 H   0  0  0  0  0  0  0  0  0  0  0  0
   13.6501   -1.1854   24.1361 H   0  0  0  0  0  0  0  0  0  0  0  0
   12.2464    0.5783   25.2715 H   0  0  0  0  0  0  0  0  0  0  0  0
    7.7320   -0.3726   24.9103 H   0  0  0  0  0  0  0  0  0  0  0  0
    6.7089    0.4786   23.7416 H   0  0  0  0  0  0  0  0  0  0  0  0
    5.5449   -1.2800   22.2417 H   0  0  0  0  0  0  0  0  0  0  0  0
    6.1928   -2.3315   20.9768 H   0  0  0  0  0  0  0  0  0  0  0  0
    8.3161   -2.5203   21.9920 H   0  0  0  0  0  0  0  0  0  0  0  0
    6.9234   -3.6689   23.6616 H   0  0  0  0  0  0  0  0  0  0  0  0
    8.1690   -2.7261   24.5150 H   0  0  0  0  0  0  0  0  0  0  0  0
    6.5013   -2.1337   24.4349 H   0  0  0  0  0  0  0  0  0  0  0  0
  1  2  1  0
  2  3  1  0
  3  4  1  0
  4  5  1  0
  5  6  2  0
  6  7  1  0
  7  8  2  0
  8  9  1  0
  9 10  2  0
 10 11  1  0
 11 12  2  0
 12 13  1  0
 13 14  2  0
 13 15  1  0
 12 16  1  0
 11 17  1  0
 10 18  1  0
  8 19  1  0
  6 20  1  0
  4 21  1  0
 21 22  2  0
 21 23  1  0
 23 24  1  1
 24 25  1  0
 25 26  1  0
 26 27  1  0
 27 28  2  0
 28 29  1  0
 29 30  2  0
 30 31  1  0
 31 32  1  0
 32 33  1  0
 32 34  1  0
 32 35  1  0
 30 36  1  0
 29 37  1  0
 26 38  1  0
 26 39  1  0
 25 40  1  0
 40 41  2  0
 40 42  1  0
 42 43  2  0
 43 44  1  0
 44 45  2  0
 45 46  1  0
 45 47  1  0
 47 48  2  0
 47 49  1  0
 44 50  1  0
 43 51  1  0
 24 52  1  0
 24 53  1  0
  3 54  1  0
  3 55  1  0
  2 56  1  6
  1 57  1  0
  1 58  1  0
  1 59  1  0
 23  2  1  0
 31 27  1  0
 48 42  1  0
 14  5  1  0
 48 23  1  0
 14  9  1  0
M  END
>  <cnnaffinities>  (65) 
[7.11272]

>  <score>  (65) 
7.11272

>  <index>  (65) 
71

>  <Smiles>  (65) 
C([C@]1(C(N(c2c(nc(c3c(c(c(c(c23)[H])[H])[H])[H])[H])[H])C(=O)[C@]21C(N(C(c1nc(c(n1C([H])([H])[H])[H])[H])([H])[H])C(=O)c1c(c(c(F)c(c21)[H])[H])[H])([H])[H])([H])[H])[H])([H])([H])[H]

>  <h>  (65) 
<NA>

>  <Training>  (65) 
True

>  <Success>  (65) 
True

>  <enamine_searched>  (65) 
False

>  <enamine_id>  (65) 
nan

$$$$

     RDKit          3D

 60 64  0  0  0  0  0  0  0  0999 V2000
    6.5518    4.2497   21.5461 C   0  0  0  0  0  0  0  0  0  0  0  0
    7.5013    3.7105   22.5047 N   0  0  0  0  0  0  0  0  0  0  0  0
    7.0518    3.1089   23.6387 C   0  0  0  0  0  0  0  0  0  0  0  0
    5.8640    2.9724   23.8943 O   0  0  0  0  0  0  0  0  0  0  0  0
    8.1356    2.6499   24.6121 C   0  0  0  0  0  0  0  0  0  0  0  0
    8.7392    1.3715   24.2614 N   0  0  0  0  0  0  0  0  0  0  0  0
    7.8986    0.2199   23.9655 C   0  0  0  0  0  0  0  0  0  0  0  0
    8.4792   -0.6378   22.7963 C   0  0  2  0  0  0  0  0  0  0  0  0
    8.1545    0.0982   21.4695 C   0  0  0  0  0  0  0  0  0  0  0  0
    8.7497    1.0179   20.9486 O   0  0  0  0  0  0  0  0  0  0  0  0
    6.9754   -0.4347   20.9884 N   0  0  0  0  0  0  0  0  0  0  0  0
    6.2706    0.1397   19.9035 C   0  0  0  0  0  0  0  0  0  0  0  0
    6.6918   -0.0971   18.6207 C   0  0  0  0  0  0  0  0  0  0  0  0
    6.0299    0.3296   17.5208 N   0  0  0  0  0  0  0  0  0  0  0  0
    4.9263    1.0165   17.6975 C   0  0  0  0  0  0  0  0  0  0  0  0
    4.4067    1.3822   18.9725 C   0  0  0  0  0  0  0  0  0  0  0  0
    3.2538    2.1984   19.1255 C   0  0  0  0  0  0  0  0  0  0  0  0
    2.8212    2.5687   20.3710 C   0  0  0  0  0  0  0  0  0  0  0  0
    3.5120    2.1334   21.5220 C   0  0  0  0  0  0  0  0  0  0  0  0
    4.6191    1.3270   21.3982 C   0  0  0  0  0  0  0  0  0  0  0  0
    5.0970    0.9286   20.1208 C   0  0  0  0  0  0  0  0  0  0  0  0
    5.1753    1.0540   22.2880 H   0  0  0  0  0  0  0  0  0  0  0  0
    3.1972    2.4595   22.5087 H   0  0  0  0  0  0  0  0  0  0  0  0
    1.9529    3.2122   20.4788 H   0  0  0  0  0  0  0  0  0  0  0  0
    2.7400    2.5424   18.2325 H   0  0  0  0  0  0  0  0  0  0  0  0
    4.3932    1.3384   16.8020 H   0  0  0  0  0  0  0  0  0  0  0  0
    7.5962   -0.6775   18.4475 H   0  0  0  0  0  0  0  0  0  0  0  0
    6.4661   -1.5670   21.7345 C   0  0  0  0  0  0  0  0  0  0  0  0
    7.6720   -1.9596   22.6004 C   0  0  2  0  0  0  0  0  0  0  0  0
    7.2911   -2.6694   23.7995 N   0  0  0  0  0  0  0  0  0  0  0  0
    8.1621   -3.4749   24.4976 C   0  0  0  0  0  0  0  0  0  0  0  0
    9.1433   -3.9823   23.9863 O   0  0  0  0  0  0  0  0  0  0  0  0
    7.7530   -3.6832   25.9443 C   0  0  0  0  0  0  0  0  0  0  0  0
    6.8488   -4.3007   25.9997 H   0  0  0  0  0  0  0  0  0  0  0  0
    8.5600   -4.1758   26.4885 H   0  0  0  0  0  0  0  0  0  0  0  0
    7.5310   -2.7219   26.4263 H   0  0  0  0  0  0  0  0  0  0  0  0
    6.5126   -2.2832   24.3135 H   0  0  0  0  0  0  0  0  0  0  0  0
    8.3119   -2.6369   22.0343 H   0  0  0  0  0  0  0  0  0  0  0  0
    6.1667   -2.3654   21.0494 H   0  0  0  0  0  0  0  0  0  0  0  0
    5.5827   -1.3050   22.3438 H   0  0  0  0  0  0  0  0  0  0  0  0
    9.9581   -0.8672   23.0473 C   0  0  0  0  0  0  0  0  0  0  0  0
   10.7042   -1.8068   22.3181 C   0  0  0  0  0  0  0  0  0  0  0  0
   12.0434   -2.0053   22.6069 C   0  0  0  0  0  0  0  0  0  0  0  0
   12.9784   -3.1152   21.6455 Cl  0  0  0  0  0  0  0  0  0  0  0  0
   12.6974   -1.3077   23.6285 C   0  0  0  0  0  0  0  0  0  0  0  0
   11.9885   -0.3320   24.2978 C   0  0  0  0  0  0  0  0  0  0  0  0
   10.6530   -0.0874   23.9800 C   0  0  0  0  0  0  0  0  0  0  0  0
   10.0763    1.1924   24.4883 C   0  0  0  0  0  0  0  0  0  0  0  0
   10.7929    2.0290   25.0151 O   0  0  0  0  0  0  0  0  0  0  0  0
   12.4747    0.2972   25.0373 H   0  0  0  0  0  0  0  0  0  0  0  0
   13.7300   -1.5285   23.8753 H   0  0  0  0  0  0  0  0  0  0  0  0
   10.2391   -2.3929   21.5307 H   0  0  0  0  0  0  0  0  0  0  0  0
    6.9153    0.6073   23.6878 H   0  0  0  0  0  0  0  0  0  0  0  0
    7.7897   -0.4038   24.8605 H   0  0  0  0  0  0  0  0  0  0  0  0
    8.9454    3.3817   24.6280 H   0  0  0  0  0  0  0  0  0  0  0  0
    7.6937    2.6424   25.6156 H   0  0  0  0  0  0  0  0  0  0  0  0
    8.4532    3.5361   22.2091 H   0  0  0  0  0  0  0  0  0  0  0  0
    5.7362    4.7178   22.1040 H   0  0  0  0  0  0  0  0  0  0  0  0
    7.0332    5.0137   20.9314 H   0  0  0  0  0  0  0  0  0  0  0  0
    6.1325    3.4649   20.8981 H   0  0  0  0  0  0  0  0  0  0  0  0
  1  2  1  0
  2  3  1  0
  3  4  2  0
  3  5  1  0
  5  6  1  0
  6  7  1  0
  8  7  1  1
  8  9  1  0
  9 10  2  0
  9 11  1  0
 11 12  1  0
 12 13  2  0
 13 14  1  0
 14 15  2  0
 15 16  1  0
 16 17  2  0
 17 18  1  0
 18 19  2  0
 19 20  1  0
 20 21  2  0
 20 22  1  0
 19 23  1  0
 18 24  1  0
 17 25  1  0
 15 26  1  0
 13 27  1  0
 11 28  1  0
 28 29  1  0
 29 30  1  0
 30 31  1  0
 31 32  2  0
 31 33  1  0
 33 34  1  0
 33 35  1  0
 33 36  1  0
 30 37  1  0
 29 38  1  6
 28 39  1  0
 28 40  1  0
  8 41  1  0
 41 42  2  0
 42 43  1  0
 43 44  1  0
 43 45  2  0
 45 46  1  0
 46 47  2  0
 47 48  1  0
 48 49  2  0
 46 50  1  0
 45 51  1  0
 42 52  1  0
  7 53  1  0
  7 54  1  0
  5 55  1  0
  5 56  1  0
  2 57  1  0
  1 58  1  0
  1 59  1  0
  1 60  1  0
 48  6  1  0
 29  8  1  0
 47 41  1  0
 21 12  1  0
 21 16  1  0
M  END
>  <cnnaffinities>  (66) 
[7.21682]

>  <score>  (66) 
7.21682

>  <index>  (66) 
72

>  <Smiles>  (66) 
C(N(C(=O)C(N1C([C@@]2(C(=O)N(c3c(nc(c4c(c(c(c(c34)[H])[H])[H])[H])[H])[H])C([C@@]2(N(C(=O)C([H])([H])[H])[H])[H])([H])[H])c2c(c(Cl)c(c(c2C1=O)[H])[H])[H])([H])[H])([H])[H])[H])([H])([H])[H]

>  <h>  (66) 
<NA>

>  <Training>  (66) 
True

>  <Success>  (66) 
True

>  <enamine_searched>  (66) 
False

>  <enamine_id>  (66) 
nan

$$$$

     RDKit          3D

 56 61  0  0  0  0  0  0  0  0999 V2000
    7.1100   -2.5615   23.9650 C   0  0  0  0  0  0  0  0  0  0  0  0
    7.5403   -1.9235   22.6440 C   0  0  1  0  0  0  0  0  0  0  0  0
    6.3782   -1.5485   21.7007 C   0  0  0  0  0  0  0  0  0  0  0  0
    6.9227   -0.4441   20.9338 N   0  0  0  0  0  0  0  0  0  0  0  0
    6.2193    0.1464   19.8528 C   0  0  0  0  0  0  0  0  0  0  0  0
    6.6077   -0.0911   18.5597 C   0  0  0  0  0  0  0  0  0  0  0  0
    5.9242    0.3435   17.4710 N   0  0  0  0  0  0  0  0  0  0  0  0
    4.8384    1.0488   17.6708 C   0  0  0  0  0  0  0  0  0  0  0  0
    4.3581    1.4268   18.9580 C   0  0  0  0  0  0  0  0  0  0  0  0
    3.2208    2.2604   19.1367 C   0  0  0  0  0  0  0  0  0  0  0  0
    2.8220    2.6308   20.3917 C   0  0  0  0  0  0  0  0  0  0  0  0
    3.5208    2.1690   21.5293 C   0  0  0  0  0  0  0  0  0  0  0  0
    4.6061    1.3402   21.3819 C   0  0  0  0  0  0  0  0  0  0  0  0
    5.0635    0.9602   20.0896 C   0  0  0  0  0  0  0  0  0  0  0  0
    5.1246    0.9693   22.2608 H   0  0  0  0  0  0  0  0  0  0  0  0
    3.2031    2.4697   22.5239 H   0  0  0  0  0  0  0  0  0  0  0  0
    1.9676    3.2887   20.5214 H   0  0  0  0  0  0  0  0  0  0  0  0
    2.6929    2.6108   18.2535 H   0  0  0  0  0  0  0  0  0  0  0  0
    4.2813    1.3661   16.7882 H   0  0  0  0  0  0  0  0  0  0  0  0
    7.5030   -0.6773   18.3631 H   0  0  0  0  0  0  0  0  0  0  0  0
    8.1191    0.0543   21.4079 C   0  0  0  0  0  0  0  0  0  0  0  0
    8.7539    0.9268   20.8520 O   0  0  0  0  0  0  0  0  0  0  0  0
    8.4142   -0.6364   22.7653 C   0  0  1  0  0  0  0  0  0  0  0  0
    7.9036    0.2850   23.9129 C   0  0  0  0  0  0  0  0  0  0  0  0
    8.7819    1.4231   24.1512 N   0  0  0  0  0  0  0  0  0  0  0  0
    8.2713    2.7712   24.3781 C   0  0  0  0  0  0  0  0  0  0  0  0
    7.1316    2.9396   25.4273 C   0  0  0  0  0  0  0  0  0  0  0  0
    6.1231    3.3224   24.3435 N   0  0  0  0  0  4  0  0  0  0  0  0
    7.2540    3.2721   23.3180 C   0  0  0  0  0  0  0  0  0  0  0  0
    7.0611    2.5582   22.5215 H   0  0  0  0  0  0  0  0  0  0  0  0
    7.4384    4.2445   22.8718 H   0  0  0  0  0  0  0  0  0  0  0  0
    5.3772    2.6171   24.1980 H   0  0  0  0  0  0  0  0  0  0  0  0
    5.6639    4.2372   24.4475 H   0  0  0  0  0  0  0  0  0  0  0  0
    7.2647    3.7435   26.1468 H   0  0  0  0  0  0  0  0  0  0  0  0
    6.8545    2.0363   25.9666 H   0  0  0  0  0  0  0  0  0  0  0  0
    9.1513    3.3981   24.5447 H   0  0  0  0  0  0  0  0  0  0  0  0
   10.0984    1.1551   24.4337 C   0  0  0  0  0  0  0  0  0  0  0  0
   10.8324    1.9126   25.0480 O   0  0  0  0  0  0  0  0  0  0  0  0
   10.6377   -0.1256   23.8645 C   0  0  0  0  0  0  0  0  0  0  0  0
   11.9962   -0.3743   24.0887 C   0  0  0  0  0  0  0  0  0  0  0  0
   12.6653   -1.3427   23.3707 C   0  0  0  0  0  0  0  0  0  0  0  0
   11.9483   -2.0510   22.4025 C   0  0  0  0  0  0  0  0  0  0  0  0
   12.8279   -3.1488   21.3771 Cl  0  0  0  0  0  0  0  0  0  0  0  0
   10.5841   -1.8681   22.2111 C   0  0  0  0  0  0  0  0  0  0  0  0
    9.8931   -0.9098   22.9767 C   0  0  0  0  0  0  0  0  0  0  0  0
   10.0897   -2.4406   21.4319 H   0  0  0  0  0  0  0  0  0  0  0  0
   13.7341   -1.5154   23.5085 H   0  0  0  0  0  0  0  0  0  0  0  0
   12.5234    0.2735   24.7842 H   0  0  0  0  0  0  0  0  0  0  0  0
    6.8935    0.6294   23.6794 H   0  0  0  0  0  0  0  0  0  0  0  0
    7.8409   -0.3043   24.8360 H   0  0  0  0  0  0  0  0  0  0  0  0
    5.4660   -1.2602   22.2471 H   0  0  0  0  0  0  0  0  0  0  0  0
    6.0950   -2.3638   21.0224 H   0  0  0  0  0  0  0  0  0  0  0  0
    8.1605   -2.6513   22.1094 H   0  0  0  0  0  0  0  0  0  0  0  0
    6.3754   -1.9450   24.4988 H   0  0  0  0  0  0  0  0  0  0  0  0
    7.9744   -2.6935   24.6272 H   0  0  0  0  0  0  0  0  0  0  0  0
    6.6555   -3.5446   23.8032 H   0  0  0  0  0  0  0  0  0  0  0  0
  1  2  1  0
  2  3  1  0
  3  4  1  0
  4  5  1  0
  5  6  2  0
  6  7  1  0
  7  8  2  0
  8  9  1  0
  9 10  2  0
 10 11  1  0
 11 12  2  0
 12 13  1  0
 13 14  2  0
 13 15  1  0
 12 16  1  0
 11 17  1  0
 10 18  1  0
  8 19  1  0
  6 20  1  0
  4 21  1  0
 21 22  2  0
 21 23  1  0
 23 24  1  1
 24 25  1  0
 25 26  1  0
 26 27  1  0
 27 28  1  0
 28 29  1  0
 29 30  1  0
 29 31  1  0
 28 32  1  0
 28 33  1  0
 27 34  1  0
 27 35  1  0
 26 36  1  0
 25 37  1  0
 37 38  2  0
 37 39  1  0
 39 40  2  0
 40 41  1  0
 41 42  2  0
 42 43  1  0
 42 44  1  0
 44 45  2  0
 44 46  1  0
 41 47  1  0
 40 48  1  0
 24 49  1  0
 24 50  1  0
  3 51  1  0
  3 52  1  0
  2 53  1  6
  1 54  1  0
  1 55  1  0
  1 56  1  0
 23  2  1  0
 29 26  1  0
 45 39  1  0
 14  5  1  0
 45 23  1  0
 14  9  1  0
M  CHG  1  28   1
M  END
>  <cnnaffinities>  (67) 
[6.87932, 6.87946, 7.08374, 7.08346]

>  <score>  (67) 
6.87932

>  <index>  (67) 
73

>  <Smiles>  (67) 
C([C@]1(C(N(c2c(nc(c3c(c(c(c(c23)[H])[H])[H])[H])[H])[H])C(=O)[C@]21C(N(C1(C([N+](C1([H])[H])([H])[H])([H])[H])[H])C(=O)c1c(c(c(Cl)c(c21)[H])[H])[H])([H])[H])([H])[H])[H])([H])([H])[H]

>  <h>  (67) 
<NA>

>  <Training>  (67) 
True

>  <Success>  (67) 
True

>  <enamine_searched>  (67) 
False

>  <enamine_id>  (67) 
nan

$$$$

     RDKit          3D

 55 60  0  0  0  0  0  0  0  0999 V2000
    7.2604   -2.7421   23.7807 C   0  0  0  0  0  0  0  0  0  0  0  0
    7.6679   -1.9406   22.5449 C   0  0  1  0  0  0  0  0  0  0  0  0
    6.5054   -1.6055   21.5903 C   0  0  0  0  0  0  0  0  0  0  0  0
    6.9573   -0.3937   20.9408 N   0  0  0  0  0  0  0  0  0  0  0  0
    6.2365    0.1697   19.8591 C   0  0  0  0  0  0  0  0  0  0  0  0
    6.6096   -0.1124   18.5720 C   0  0  0  0  0  0  0  0  0  0  0  0
    5.9366    0.3111   17.4746 N   0  0  0  0  0  0  0  0  0  0  0  0
    4.8602    1.0332   17.6587 C   0  0  0  0  0  0  0  0  0  0  0  0
    4.3655    1.4137   18.9377 C   0  0  0  0  0  0  0  0  0  0  0  0
    3.2261    2.2499   19.0925 C   0  0  0  0  0  0  0  0  0  0  0  0
    2.7692    2.5790   20.3377 C   0  0  0  0  0  0  0  0  0  0  0  0
    3.4126    2.0617   21.4857 C   0  0  0  0  0  0  0  0  0  0  0  0
    4.5188    1.2548   21.3605 C   0  0  0  0  0  0  0  0  0  0  0  0
    5.0490    0.9403   20.0818 C   0  0  0  0  0  0  0  0  0  0  0  0
    5.0154    0.8921   22.2564 H   0  0  0  0  0  0  0  0  0  0  0  0
    3.0476    2.3277   22.4742 H   0  0  0  0  0  0  0  0  0  0  0  0
    1.9183    3.2465   20.4549 H   0  0  0  0  0  0  0  0  0  0  0  0
    2.7378    2.6252   18.1954 H   0  0  0  0  0  0  0  0  0  0  0  0
    4.3134    1.3478   16.7685 H   0  0  0  0  0  0  0  0  0  0  0  0
    7.4933   -0.7200   18.3887 H   0  0  0  0  0  0  0  0  0  0  0  0
    8.1067    0.1582   21.4681 C   0  0  0  0  0  0  0  0  0  0  0  0
    8.7044    1.0914   20.9781 O   0  0  0  0  0  0  0  0  0  0  0  0
    8.4017   -0.5895   22.8060 C   0  0  1  0  0  0  0  0  0  0  0  0
    7.7367    0.1978   23.9820 C   0  0  0  0  0  0  0  0  0  0  0  0
    8.4468    1.4233   24.3156 N   0  0  0  0  0  0  0  0  0  0  0  0
    7.7392    2.6484   24.6922 C   0  0  0  0  0  0  0  0  0  0  0  0
    7.5028    3.5943   23.5308 C   0  0  0  0  0  0  0  0  0  0  0  0
    8.3435    4.5826   22.9405 C   0  0  0  0  0  0  0  0  0  0  0  0
    7.5652    5.1346   21.9799 C   0  0  0  0  0  0  0  0  0  0  0  0
    6.3670    4.5421   21.9598 O   0  0  0  0  0  0  0  0  0  0  0  0
    6.3250    3.5859   22.9458 N   0  0  0  0  0  0  0  0  0  0  0  0
    7.6938    5.9366   21.2662 H   0  0  0  0  0  0  0  0  0  0  0  0
    9.3718    4.8030   23.1757 H   0  0  0  0  0  0  0  0  0  0  0  0
    6.7653    2.3922   25.1254 H   0  0  0  0  0  0  0  0  0  0  0  0
    8.3282    3.1296   25.4821 H   0  0  0  0  0  0  0  0  0  0  0  0
    9.8132    1.4259   24.3970 C   0  0  0  0  0  0  0  0  0  0  0  0
   10.4434    2.4013   24.7786 O   0  0  0  0  0  0  0  0  0  0  0  0
   10.5124    0.1653   23.9836 C   0  0  0  0  0  0  0  0  0  0  0  0
   11.8714    0.0597   24.2985 C   0  0  0  0  0  0  0  0  0  0  0  0
   12.6548   -0.9229   23.7257 C   0  0  0  0  0  0  0  0  0  0  0  0
   12.0456   -1.7591   22.7916 C   0  0  0  0  0  0  0  0  0  0  0  0
   12.8344   -2.6184   22.1229 F   0  0  0  0  0  0  0  0  0  0  0  0
   10.6941   -1.7231   22.5116 C   0  0  0  0  0  0  0  0  0  0  0  0
    9.8823   -0.7454   23.1232 C   0  0  0  0  0  0  0  0  0  0  0  0
   10.3211   -2.4284   21.7741 H   0  0  0  0  0  0  0  0  0  0  0  0
   13.7124   -1.0196   23.9422 H   0  0  0  0  0  0  0  0  0  0  0  0
   12.3051    0.8048   24.9576 H   0  0  0  0  0  0  0  0  0  0  0  0
    7.7184   -0.4513   24.8676 H   0  0  0  0  0  0  0  0  0  0  0  0
    6.7052    0.4561   23.7191 H   0  0  0  0  0  0  0  0  0  0  0  0
    6.3253   -2.3806   20.8324 H   0  0  0  0  0  0  0  0  0  0  0  0
    5.5546   -1.4381   22.1183 H   0  0  0  0  0  0  0  0  0  0  0  0
    8.3721   -2.5470   21.9679 H   0  0  0  0  0  0  0  0  0  0  0  0
    8.1051   -2.8528   24.4714 H   0  0  0  0  0  0  0  0  0  0  0  0
    6.9128   -3.7454   23.5068 H   0  0  0  0  0  0  0  0  0  0  0  0
    6.4453   -2.2530   24.3291 H   0  0  0  0  0  0  0  0  0  0  0  0
  1  2  1  0
  2  3  1  0
  3  4  1  0
  4  5  1  0
  5  6  2  0
  6  7  1  0
  7  8  2  0
  8  9  1  0
  9 10  2  0
 10 11  1  0
 11 12  2  0
 12 13  1  0
 13 14  2  0
 13 15  1  0
 12 16  1  0
 11 17  1  0
 10 18  1  0
  8 19  1  0
  6 20  1  0
  4 21  1  0
 21 22  2  0
 21 23  1  0
 23 24  1  1
 24 25  1  0
 25 26  1  0
 26 27  1  0
 27 28  1  0
 28 29  2  0
 29 30  1  0
 30 31  1  0
 29 32  1  0
 28 33  1  0
 26 34  1  0
 26 35  1  0
 25 36  1  0
 36 37  2  0
 36 38  1  0
 38 39  2  0
 39 40  1  0
 40 41  2  0
 41 42  1  0
 41 43  1  0
 43 44  2  0
 43 45  1  0
 40 46  1  0
 39 47  1  0
 24 48  1  0
 24 49  1  0
  3 50  1  0
  3 51  1  0
  2 52  1  6
  1 53  1  0
  1 54  1  0
  1 55  1  0
 23  2  1  0
 31 27  2  0
 44 38  1  0
 14  5  1  0
 44 23  1  0
 14  9  1  0
M  END
>  <cnnaffinities>  (68) 
[7.11465]

>  <score>  (68) 
7.11465

>  <index>  (68) 
74

>  <Smiles>  (68) 
C([C@]1(C(N(c2c(nc(c3c(c(c(c(c23)[H])[H])[H])[H])[H])[H])C(=O)[C@]21C(N(C(c1c(c(on1)[H])[H])([H])[H])C(=O)c1c(c(c(F)c(c21)[H])[H])[H])([H])[H])([H])[H])[H])([H])([H])[H]

>  <h>  (68) 
<NA>

>  <Training>  (68) 
True

>  <Success>  (68) 
True

>  <enamine_searched>  (68) 
False

>  <enamine_id>  (68) 
nan

$$$$

     RDKit          3D

 70 75  0  0  0  0  0  0  0  0999 V2000
    3.5697    6.2137   31.0934 C   0  0  0  0  0  0  0  0  0  0  0  0
    4.5927    5.3414   30.6645 O   0  0  0  0  0  0  0  0  0  0  0  0
    4.2096    4.1287   30.1815 C   0  0  0  0  0  0  0  0  0  0  0  0
    2.8832    3.7007   30.1320 C   0  0  0  0  0  0  0  0  0  0  0  0
    2.5847    2.4413   29.6182 C   0  0  0  0  0  0  0  0  0  0  0  0
    3.5957    1.6139   29.1541 C   0  0  0  0  0  0  0  0  0  0  0  0
    4.9283    2.0361   29.2156 C   0  0  0  0  0  0  0  0  0  0  0  0
    6.0416    1.1547   28.6843 C   0  0  0  0  0  0  0  0  0  0  0  0
    6.5582    1.6108   27.4048 N   0  0  0  0  0  0  0  0  0  0  0  0
    5.8728    1.3200   26.2680 C   0  0  0  0  0  0  0  0  0  0  0  0
    4.8450    0.6561   26.2574 O   0  0  0  0  0  0  0  0  0  0  0  0
    6.5106    1.8395   24.9862 C   0  0  0  0  0  0  0  0  0  0  0  0
    7.6242    1.0171   24.5710 N   0  0  0  0  0  0  0  0  0  0  0  0
    7.3562   -0.3206   24.0915 C   0  0  0  0  0  0  0  0  0  0  0  0
    8.2340   -0.6644   22.8516 C   0  0  2  0  0  0  0  0  0  0  0  0
    7.8255    0.2654   21.6783 C   0  0  0  0  0  0  0  0  0  0  0  0
    8.1634    1.4106   21.4793 O   0  0  0  0  0  0  0  0  0  0  0  0
    6.9322   -0.4382   20.8969 N   0  0  0  0  0  0  0  0  0  0  0  0
    6.2051    0.1445   19.8351 C   0  0  0  0  0  0  0  0  0  0  0  0
    6.5456   -0.1568   18.5408 C   0  0  0  0  0  0  0  0  0  0  0  0
    5.8899    0.3019   17.4494 N   0  0  0  0  0  0  0  0  0  0  0  0
    4.8361    1.0518   17.6527 C   0  0  0  0  0  0  0  0  0  0  0  0
    4.3672    1.4344   18.9390 C   0  0  0  0  0  0  0  0  0  0  0  0
    3.2214    2.2566   19.0894 C   0  0  0  0  0  0  0  0  0  0  0  0
    2.7639    2.5886   20.3336 C   0  0  0  0  0  0  0  0  0  0  0  0
    3.4326    2.1096   21.4834 C   0  0  0  0  0  0  0  0  0  0  0  0
    4.5519    1.3217   21.3622 C   0  0  0  0  0  0  0  0  0  0  0  0
    5.0576    0.9681   20.0783 C   0  0  0  0  0  0  0  0  0  0  0  0
    5.0497    0.9569   22.2568 H   0  0  0  0  0  0  0  0  0  0  0  0
    3.0543    2.3731   22.4668 H   0  0  0  0  0  0  0  0  0  0  0  0
    1.8875    3.2220   20.4430 H   0  0  0  0  0  0  0  0  0  0  0  0
    2.7264    2.6084   18.1884 H   0  0  0  0  0  0  0  0  0  0  0  0
    4.2878    1.3946   16.7758 H   0  0  0  0  0  0  0  0  0  0  0  0
    7.4045   -0.7988   18.3457 H   0  0  0  0  0  0  0  0  0  0  0  0
    6.7483   -1.8219   21.2842 C   0  0  0  0  0  0  0  0  0  0  0  0
    7.8982   -2.0633   22.2685 C   0  0  2  0  0  0  0  0  0  0  0  0
    7.6466   -3.1636   23.2936 C   0  0  0  0  0  0  0  0  0  0  0  0
    8.4698   -3.2242   24.0161 H   0  0  0  0  0  0  0  0  0  0  0  0
    7.5428   -4.1360   22.8034 H   0  0  0  0  0  0  0  0  0  0  0  0
    6.7262   -2.9740   23.8578 H   0  0  0  0  0  0  0  0  0  0  0  0
    8.7534   -2.3474   21.6498 H   0  0  0  0  0  0  0  0  0  0  0  0
    5.7659   -1.9782   21.7508 H   0  0  0  0  0  0  0  0  0  0  0  0
    6.8094   -2.4748   20.4081 H   0  0  0  0  0  0  0  0  0  0  0  0
    9.6741   -0.4688   23.2905 C   0  0  0  0  0  0  0  0  0  0  0  0
   10.7469   -1.2315   22.7986 C   0  0  0  0  0  0  0  0  0  0  0  0
   12.0297   -1.0118   23.2706 C   0  0  0  0  0  0  0  0  0  0  0  0
   13.3816   -1.9007   22.6227 Cl  0  0  0  0  0  0  0  0  0  0  0  0
   12.3065   -0.0434   24.2303 C   0  0  0  0  0  0  0  0  0  0  0  0
   11.2694    0.7570   24.6666 C   0  0  0  0  0  0  0  0  0  0  0  0
    9.9696    0.5600   24.2014 C   0  0  0  0  0  0  0  0  0  0  0  0
    8.8930    1.5067   24.6509 C   0  0  0  0  0  0  0  0  0  0  0  0
    9.1286    2.6277   25.0861 O   0  0  0  0  0  0  0  0  0  0  0  0
   11.4538    1.5480   25.3779 H   0  0  0  0  0  0  0  0  0  0  0  0
   13.3266    0.0790   24.5754 H   0  0  0  0  0  0  0  0  0  0  0  0
   10.6193   -1.9828   22.0259 H   0  0  0  0  0  0  0  0  0  0  0  0
    7.5606   -1.0432   24.8944 H   0  0  0  0  0  0  0  0  0  0  0  0
    6.2925   -0.3800   23.8452 H   0  0  0  0  0  0  0  0  0  0  0  0
    6.9193    2.8410   25.1202 H   0  0  0  0  0  0  0  0  0  0  0  0
    5.7463    1.8481   24.2018 H   0  0  0  0  0  0  0  0  0  0  0  0
    7.4672    2.0502   27.3498 H   0  0  0  0  0  0  0  0  0  0  0  0
    6.8696    1.1046   29.3964 H   0  0  0  0  0  0  0  0  0  0  0  0
    5.6597    0.1417   28.5503 H   0  0  0  0  0  0  0  0  0  0  0  0
    5.2303    3.2939   29.7175 C   0  0  0  0  0  0  0  0  0  0  0  0
    6.2597    3.6467   29.7399 H   0  0  0  0  0  0  0  0  0  0  0  0
    3.3602    0.6491   28.7107 H   0  0  0  0  0  0  0  0  0  0  0  0
    1.5460    2.1134   29.5856 H   0  0  0  0  0  0  0  0  0  0  0  0
    2.0814    4.3361   30.4904 H   0  0  0  0  0  0  0  0  0  0  0  0
    2.8779    6.4532   30.2755 H   0  0  0  0  0  0  0  0  0  0  0  0
    4.0677    7.1251   31.4238 H   0  0  0  0  0  0  0  0  0  0  0  0
    2.9987    5.7898   31.9300 H   0  0  0  0  0  0  0  0  0  0  0  0
  1  2  1  0
  2  3  1  0
  3  4  2  0
  4  5  1  0
  5  6  2  0
  6  7  1  0
  7  8  1  0
  8  9  1  0
  9 10  1  0
 10 11  2  0
 10 12  1  0
 12 13  1  0
 13 14  1  0
 15 14  1  1
 15 16  1  0
 16 17  2  0
 16 18  1  0
 18 19  1  0
 19 20  2  0
 20 21  1  0
 21 22  2  0
 22 23  1  0
 23 24  2  0
 24 25  1  0
 25 26  2  0
 26 27  1  0
 27 28  2  0
 27 29  1  0
 26 30  1  0
 25 31  1  0
 24 32  1  0
 22 33  1  0
 20 34  1  0
 18 35  1  0
 35 36  1  0
 36 37  1  0
 37 38  1  0
 37 39  1  0
 37 40  1  0
 36 41  1  6
 35 42  1  0
 35 43  1  0
 15 44  1  0
 44 45  2  0
 45 46  1  0
 46 47  1  0
 46 48  2  0
 48 49  1  0
 49 50  2  0
 50 51  1  0
 51 52  2  0
 49 53  1  0
 48 54  1  0
 45 55  1  0
 14 56  1  0
 14 57  1  0
 12 58  1  0
 12 59  1  0
  9 60  1  0
  8 61  1  0
  8 62  1  0
  7 63  2  0
 63 64  1  0
  6 65  1  0
  5 66  1  0
  4 67  1  0
  1 68  1  0
  1 69  1  0
  1 70  1  0
 63  3  1  0
 51 13  1  0
 36 15  1  0
 50 44  1  0
 28 19  1  0
 28 23  1  0
M  END
>  <cnnaffinities>  (69) 
[7.03508]

>  <score>  (69) 
7.03508

>  <index>  (69) 
75

>  <Smiles>  (69) 
C(Oc1c(c(c(c(C(N(C(=O)C(N2C([C@@]3(C(=O)N(c4c(nc(c5c(c(c(c(c45)[H])[H])[H])[H])[H])[H])C([C@@]3(C([H])([H])[H])[H])([H])[H])c3c(c(Cl)c(c(c3C2=O)[H])[H])[H])([H])[H])([H])[H])[H])([H])[H])c1[H])[H])[H])[H])([H])([H])[H]

>  <h>  (69) 
<NA>

>  <Training>  (69) 
True

>  <Success>  (69) 
True

>  <enamine_searched>  (69) 
False

>  <enamine_id>  (69) 
nan

$$$$

     RDKit          3D

 61 65  0  0  0  0  0  0  0  0999 V2000
    7.4105   -2.6556   23.7838 C   0  0  0  0  0  0  0  0  0  0  0  0
    7.7720   -1.8096   22.5682 C   0  0  1  0  0  0  0  0  0  0  0  0
    6.6294   -1.4893   21.5965 C   0  0  0  0  0  0  0  0  0  0  0  0
    7.0970   -0.2778   20.9468 N   0  0  0  0  0  0  0  0  0  0  0  0
    6.3358    0.2608   19.8792 C   0  0  0  0  0  0  0  0  0  0  0  0
    6.6567   -0.0859   18.5942 C   0  0  0  0  0  0  0  0  0  0  0  0
    5.9578    0.3002   17.5028 N   0  0  0  0  0  0  0  0  0  0  0  0
    4.8912    1.0332   17.7009 C   0  0  0  0  0  0  0  0  0  0  0  0
    4.4365    1.4589   18.9792 C   0  0  0  0  0  0  0  0  0  0  0  0
    3.2859    2.2777   19.1295 C   0  0  0  0  0  0  0  0  0  0  0  0
    2.8401    2.6244   20.3735 C   0  0  0  0  0  0  0  0  0  0  0  0
    3.5134    2.1559   21.5231 C   0  0  0  0  0  0  0  0  0  0  0  0
    4.6323    1.3651   21.3999 C   0  0  0  0  0  0  0  0  0  0  0  0
    5.1501    1.0267   20.1187 C   0  0  0  0  0  0  0  0  0  0  0  0
    5.1253    1.0074   22.2978 H   0  0  0  0  0  0  0  0  0  0  0  0
    3.1391    2.4214   22.5066 H   0  0  0  0  0  0  0  0  0  0  0  0
    1.9624    3.2549   20.4818 H   0  0  0  0  0  0  0  0  0  0  0  0
    2.7758    2.6159   18.2315 H   0  0  0  0  0  0  0  0  0  0  0  0
    4.3206    1.3178   16.8187 H   0  0  0  0  0  0  0  0  0  0  0  0
    7.5235   -0.7204   18.4196 H   0  0  0  0  0  0  0  0  0  0  0  0
    8.0845    0.3987   21.6358 C   0  0  0  0  0  0  0  0  0  0  0  0
    8.5307    1.4925   21.3383 O   0  0  0  0  0  0  0  0  0  0  0  0
    8.4152   -0.4368   22.9047 C   0  0  1  0  0  0  0  0  0  0  0  0
    7.7054    0.2696   24.0963 C   0  0  0  0  0  0  0  0  0  0  0  0
    8.3435    1.5309   24.4235 N   0  0  0  0  0  0  0  0  0  0  0  0
    7.5420    2.6700   24.8269 C   0  0  0  0  0  0  0  0  0  0  0  0
    6.8925    3.3964   23.6571 C   0  0  0  0  0  0  0  0  0  0  0  0
    7.8537    4.1791   22.8117 N   0  0  0  0  0  4  0  0  0  0  0  0
    8.4644    5.3185   23.5616 C   0  0  0  0  0  0  0  0  0  0  0  0
    9.1177    4.9535   24.3527 H   0  0  0  0  0  0  0  0  0  0  0  0
    7.6641    5.9359   23.9920 H   0  0  0  0  0  0  0  0  0  0  0  0
    9.0486    5.9411   22.8774 H   0  0  0  0  0  0  0  0  0  0  0  0
    7.1385    4.7206   21.6257 C   0  0  0  0  0  0  0  0  0  0  0  0
    6.9668    3.9241   20.8995 H   0  0  0  0  0  0  0  0  0  0  0  0
    7.7240    5.5194   21.1651 H   0  0  0  0  0  0  0  0  0  0  0  0
    6.1757    5.1447   21.9371 H   0  0  0  0  0  0  0  0  0  0  0  0
    8.5719    3.5228   22.4686 H   0  0  0  0  0  0  0  0  0  0  0  0
    6.1279    4.0919   24.0220 H   0  0  0  0  0  0  0  0  0  0  0  0
    6.4027    2.6746   23.0022 H   0  0  0  0  0  0  0  0  0  0  0  0
    6.7685    2.3443   25.5302 H   0  0  0  0  0  0  0  0  0  0  0  0
    8.2164    3.3260   25.3694 H   0  0  0  0  0  0  0  0  0  0  0  0
    9.7005    1.6454   24.4433 C   0  0  0  0  0  0  0  0  0  0  0  0
   10.2760    2.6987   24.7038 O   0  0  0  0  0  0  0  0  0  0  0  0
   10.4620    0.3964   24.1155 C   0  0  0  0  0  0  0  0  0  0  0  0
   11.7774    0.2537   24.5584 C   0  0  0  0  0  0  0  0  0  0  0  0
   12.6119   -0.6936   24.0046 C   0  0  0  0  0  0  0  0  0  0  0  0
   12.0955   -1.4925   22.9841 C   0  0  0  0  0  0  0  0  0  0  0  0
   13.1972   -2.4867   22.0733 Cl  0  0  0  0  0  0  0  0  0  0  0  0
   10.7543   -1.4712   22.6534 C   0  0  0  0  0  0  0  0  0  0  0  0
    9.8911   -0.5382   23.2403 C   0  0  0  0  0  0  0  0  0  0  0  0
   10.4135   -2.1468   21.8759 H   0  0  0  0  0  0  0  0  0  0  0  0
   13.6587   -0.7879   24.2833 H   0  0  0  0  0  0  0  0  0  0  0  0
   12.1765    0.9547   25.2798 H   0  0  0  0  0  0  0  0  0  0  0  0
    6.6560    0.4521   23.8405 H   0  0  0  0  0  0  0  0  0  0  0  0
    7.7251   -0.3872   24.9740 H   0  0  0  0  0  0  0  0  0  0  0  0
    6.4637   -2.2665   20.8412 H   0  0  0  0  0  0  0  0  0  0  0  0
    5.6702   -1.3307   22.1153 H   0  0  0  0  0  0  0  0  0  0  0  0
    8.5127   -2.3575   21.9822 H   0  0  0  0  0  0  0  0  0  0  0  0
    6.5914   -2.2023   24.3509 H   0  0  0  0  0  0  0  0  0  0  0  0
    7.0952   -3.6648   23.5044 H   0  0  0  0  0  0  0  0  0  0  0  0
    8.2742   -2.7377   24.4557 H   0  0  0  0  0  0  0  0  0  0  0  0
  1  2  1  0
  2  3  1  0
  3  4  1  0
  4  5  1  0
  5  6  2  0
  6  7  1  0
  7  8  2  0
  8  9  1  0
  9 10  2  0
 10 11  1  0
 11 12  2  0
 12 13  1  0
 13 14  2  0
 13 15  1  0
 12 16  1  0
 11 17  1  0
 10 18  1  0
  8 19  1  0
  6 20  1  0
  4 21  1  0
 21 22  2  0
 21 23  1  0
 23 24  1  1
 24 25  1  0
 25 26  1  0
 26 27  1  0
 27 28  1  0
 28 29  1  0
 29 30  1  0
 29 31  1  0
 29 32  1  0
 28 33  1  0
 33 34  1  0
 33 35  1  0
 33 36  1  0
 28 37  1  0
 27 38  1  0
 27 39  1  0
 26 40  1  0
 26 41  1  0
 25 42  1  0
 42 43  2  0
 42 44  1  0
 44 45  2  0
 45 46  1  0
 46 47  2  0
 47 48  1  0
 47 49  1  0
 49 50  2  0
 49 51  1  0
 46 52  1  0
 45 53  1  0
 24 54  1  0
 24 55  1  0
  3 56  1  0
  3 57  1  0
  2 58  1  6
  1 59  1  0
  1 60  1  0
  1 61  1  0
 23  2  1  0
 50 44  1  0
 14  5  1  0
 50 23  1  0
 14  9  1  0
M  CHG  1  28   1
M  END
>  <cnnaffinities>  (70) 
[7.09731]

>  <score>  (70) 
7.09731

>  <index>  (70) 
76

>  <Smiles>  (70) 
C([C@]1(C(N(c2c(nc(c3c(c(c(c(c23)[H])[H])[H])[H])[H])[H])C(=O)[C@]21C(N(C(C([N+](C([H])([H])[H])(C([H])([H])[H])[H])([H])[H])([H])[H])C(=O)c1c(c(c(Cl)c(c21)[H])[H])[H])([H])[H])([H])[H])[H])([H])([H])[H]

>  <h>  (70) 
<NA>

>  <Training>  (70) 
True

>  <Success>  (70) 
True

>  <enamine_searched>  (70) 
False

>  <enamine_id>  (70) 
nan

$$$$

     RDKit          3D

 57 60  0  0  0  0  0  0  0  0999 V2000
   10.6611    6.6065   23.9975 C   0  0  0  0  0  0  0  0  0  0  0  0
    9.3403    6.1756   24.6776 C   0  0  0  0  0  0  0  0  0  0  0  0
    8.2689    7.2547   24.4386 C   0  0  0  0  0  0  0  0  0  0  0  0
    8.5883    8.1919   24.9034 H   0  0  0  0  0  0  0  0  0  0  0  0
    7.3055    6.9650   24.8697 H   0  0  0  0  0  0  0  0  0  0  0  0
    8.1424    7.4320   23.3669 H   0  0  0  0  0  0  0  0  0  0  0  0
    9.5809    6.1399   26.1443 C   0  0  0  0  0  0  0  0  0  0  0  0
    9.7600    6.1880   27.2867 N   0  0  0  0  0  0  0  0  0  0  0  0
    8.9215    4.7765   24.1986 C   0  0  0  0  0  0  0  0  0  0  0  0
    9.6897    3.6769   24.5828 C   0  0  0  0  0  0  0  0  0  0  0  0
    9.3642    2.3882   24.1778 C   0  0  0  0  0  0  0  0  0  0  0  0
    8.3078    2.1768   23.2893 C   0  0  0  0  0  0  0  0  0  0  0  0
    7.9803    0.8606   22.8384 N   0  0  0  0  0  0  0  0  0  0  0  0
    7.6702   -0.1609   23.8365 C   0  0  0  0  0  0  0  0  0  0  0  0
    6.2401   -0.0973   24.3648 C   0  0  0  0  0  0  0  0  0  0  0  0
    5.3830   -1.1972   24.2655 C   0  0  0  0  0  0  0  0  0  0  0  0
    4.1155   -1.1681   24.8365 C   0  0  0  0  0  0  0  0  0  0  0  0
    3.6226    0.0226   25.3560 C   0  0  0  0  0  0  0  0  0  0  0  0
    4.4874    1.1075   25.4858 C   0  0  0  0  0  0  0  0  0  0  0  0
    3.9267    2.5360   26.3220 Cl  0  0  0  0  0  0  0  0  0  0  0  0
    5.8046    1.0472   25.0406 C   0  0  0  0  0  0  0  0  0  0  0  0
    6.5019    1.8648   25.2395 H   0  0  0  0  0  0  0  0  0  0  0  0
    2.5885    0.1109   25.6654 H   0  0  0  0  0  0  0  0  0  0  0  0
    3.5238   -2.0825   24.9027 H   0  0  0  0  0  0  0  0  0  0  0  0
    5.7057   -2.0858   23.7281 H   0  0  0  0  0  0  0  0  0  0  0  0
    7.8789   -1.1473   23.4094 H   0  0  0  0  0  0  0  0  0  0  0  0
    8.3686   -0.0125   24.6721 H   0  0  0  0  0  0  0  0  0  0  0  0
    7.8844    0.6683   21.4584 C   0  0  0  0  0  0  0  0  0  0  0  0
    8.5229    1.3469   20.6775 O   0  0  0  0  0  0  0  0  0  0  0  0
    6.9496   -0.4310   20.9214 C   0  0  0  0  0  0  0  0  0  0  0  0
    6.1116    0.0890   19.7756 C   0  0  0  0  0  0  0  0  0  0  0  0
    6.4385   -0.1901   18.4756 C   0  0  0  0  0  0  0  0  0  0  0  0
    5.7831    0.2819   17.3831 N   0  0  0  0  0  0  0  0  0  0  0  0
    4.7402    1.0423   17.5902 C   0  0  0  0  0  0  0  0  0  0  0  0
    4.2823    1.4243   18.8774 C   0  0  0  0  0  0  0  0  0  0  0  0
    3.1666    2.2799   19.0506 C   0  0  0  0  0  0  0  0  0  0  0  0
    2.7646    2.6454   20.3025 C   0  0  0  0  0  0  0  0  0  0  0  0
    3.4643    2.1685   21.4365 C   0  0  0  0  0  0  0  0  0  0  0  0
    4.5508    1.3413   21.2960 C   0  0  0  0  0  0  0  0  0  0  0  0
    4.9901    0.9423   20.0071 C   0  0  0  0  0  0  0  0  0  0  0  0
    5.0705    0.9889   22.1851 H   0  0  0  0  0  0  0  0  0  0  0  0
    3.1374    2.4627   22.4286 H   0  0  0  0  0  0  0  0  0  0  0  0
    1.9148    3.3058   20.4370 H   0  0  0  0  0  0  0  0  0  0  0  0
    2.6558    2.6452   18.1616 H   0  0  0  0  0  0  0  0  0  0  0  0
    4.2010    1.3942   16.7088 H   0  0  0  0  0  0  0  0  0  0  0  0
    7.2756   -0.8474   18.2446 H   0  0  0  0  0  0  0  0  0  0  0  0
    7.5956   -1.2333   20.5434 H   0  0  0  0  0  0  0  0  0  0  0  0
    6.3204   -0.8613   21.7064 H   0  0  0  0  0  0  0  0  0  0  0  0
    7.5553    3.2782   22.8682 C   0  0  0  0  0  0  0  0  0  0  0  0
    7.8581    4.5553   23.3257 C   0  0  0  0  0  0  0  0  0  0  0  0
    7.2712    5.3957   22.9693 H   0  0  0  0  0  0  0  0  0  0  0  0
    6.7234    3.1375   22.1789 H   0  0  0  0  0  0  0  0  0  0  0  0
    9.9608    1.5446   24.5198 H   0  0  0  0  0  0  0  0  0  0  0  0
   10.5692    3.8551   25.1936 H   0  0  0  0  0  0  0  0  0  0  0  0
   10.9609    7.6021   24.3387 H   0  0  0  0  0  0  0  0  0  0  0  0
   10.5138    6.6392   22.9147 H   0  0  0  0  0  0  0  0  0  0  0  0
   11.4727    5.9041   24.2133 H   0  0  0  0  0  0  0  0  0  0  0  0
  1  2  1  0
  2  3  1  0
  3  4  1  0
  3  5  1  0
  3  6  1  0
  2  7  1  0
  7  8  3  0
  2  9  1  0
  9 10  2  0
 10 11  1  0
 11 12  2  0
 12 13  1  0
 13 14  1  0
 14 15  1  0
 15 16  2  0
 16 17  1  0
 17 18  2  0
 18 19  1  0
 19 20  1  0
 19 21  2  0
 21 22  1  0
 18 23  1  0
 17 24  1  0
 16 25  1  0
 14 26  1  0
 14 27  1  0
 13 28  1  0
 28 29  2  0
 28 30  1  0
 30 31  1  0
 31 32  2  0
 32 33  1  0
 33 34  2  0
 34 35  1  0
 35 36  2  0
 36 37  1  0
 37 38  2  0
 38 39  1  0
 39 40  2  0
 39 41  1  0
 38 42  1  0
 37 43  1  0
 36 44  1  0
 34 45  1  0
 32 46  1  0
 30 47  1  0
 30 48  1  0
 12 49  1  0
 49 50  2  0
 50 51  1  0
 49 52  1  0
 11 53  1  0
 10 54  1  0
  1 55  1  0
  1 56  1  0
  1 57  1  0
 50  9  1  0
 21 15  1  0
 40 31  1  0
 40 35  1  0
M  END
>  <cnnaffinities>  (71) 
[6.41284, 6.4135, 6.41475, 6.41485, 6.55644, 6.51806, 6.55458, 6.50787, 6.51456, 6.91398, 6.56287, 6.56441]

>  <score>  (71) 
6.41284

>  <index>  (71) 
77

>  <Smiles>  (71) 
C(C(C([H])([H])[H])(C#N)c1c(c(c(N(C(c2c(c(c(c(Cl)c2[H])[H])[H])[H])([H])[H])C(=O)C(c2c(nc(c3c(c(c(c(c23)[H])[H])[H])[H])[H])[H])([H])[H])c(c1[H])[H])[H])[H])([H])([H])[H]

>  <h>  (71) 
<NA>

>  <Training>  (71) 
True

>  <Success>  (71) 
True

>  <enamine_searched>  (71) 
False

>  <enamine_id>  (71) 
nan

$$$$

     RDKit          3D

 40 42  0  0  0  0  0  0  0  0999 V2000
    5.9609    2.7187   26.3091 C   0  0  0  0  0  0  0  0  0  0  0  0
    6.9764    2.2434   25.2723 C   0  0  0  0  0  0  0  0  0  0  0  0
    6.9158    3.0748   23.9958 C   0  0  0  0  0  0  0  0  0  0  0  0
    7.9029    2.5772   22.9441 C   0  0  0  0  0  0  0  0  0  0  0  0
    7.6798    1.1596   22.6881 N   0  0  0  0  0  0  0  0  0  0  0  0
    7.8936    0.6888   21.3901 C   0  0  0  0  0  0  0  0  0  0  0  0
    8.6963    1.1950   20.6363 O   0  0  0  0  0  0  0  0  0  0  0  0
    6.9623   -0.4383   20.9098 C   0  0  0  0  0  0  0  0  0  0  0  0
    6.1058    0.0790   19.7725 C   0  0  0  0  0  0  0  0  0  0  0  0
    6.4301   -0.2006   18.4718 C   0  0  0  0  0  0  0  0  0  0  0  0
    5.7734    0.2741   17.3813 N   0  0  0  0  0  0  0  0  0  0  0  0
    4.7309    1.0364   17.5861 C   0  0  0  0  0  0  0  0  0  0  0  0
    4.2826    1.4238   18.8737 C   0  0  0  0  0  0  0  0  0  0  0  0
    3.1711    2.2850   19.0474 C   0  0  0  0  0  0  0  0  0  0  0  0
    2.7670    2.6544   20.3009 C   0  0  0  0  0  0  0  0  0  0  0  0
    3.4648    2.1728   21.4327 C   0  0  0  0  0  0  0  0  0  0  0  0
    4.5457    1.3382   21.2879 C   0  0  0  0  0  0  0  0  0  0  0  0
    4.9916    0.9415   20.0016 C   0  0  0  0  0  0  0  0  0  0  0  0
    5.0625    0.9750   22.1689 H   0  0  0  0  0  0  0  0  0  0  0  0
    3.1364    2.4695   22.4239 H   0  0  0  0  0  0  0  0  0  0  0  0
    1.9177    3.3191   20.4319 H   0  0  0  0  0  0  0  0  0  0  0  0
    2.6546    2.6522   18.1632 H   0  0  0  0  0  0  0  0  0  0  0  0
    4.1991    1.3949   16.7016 H   0  0  0  0  0  0  0  0  0  0  0  0
    7.2707   -0.8533   18.2394 H   0  0  0  0  0  0  0  0  0  0  0  0
    6.3384   -0.8235   21.7263 H   0  0  0  0  0  0  0  0  0  0  0  0
    7.5870   -1.2567   20.5335 H   0  0  0  0  0  0  0  0  0  0  0  0
    7.7588    0.3052   23.8675 C   0  0  0  0  0  0  0  0  0  0  0  0
    6.7794    0.7701   24.9343 C   0  0  0  0  0  0  0  0  0  0  0  0
    5.7581    0.6150   24.5702 H   0  0  0  0  0  0  0  0  0  0  0  0
    6.8851    0.1588   25.8373 H   0  0  0  0  0  0  0  0  0  0  0  0
    7.5575   -0.7210   23.5672 H   0  0  0  0  0  0  0  0  0  0  0  0
    8.7757    0.3098   24.2986 H   0  0  0  0  0  0  0  0  0  0  0  0
    8.9336    2.7864   23.2691 H   0  0  0  0  0  0  0  0  0  0  0  0
    7.7620    3.1047   22.0016 H   0  0  0  0  0  0  0  0  0  0  0  0
    5.9000    3.0354   23.5820 H   0  0  0  0  0  0  0  0  0  0  0  0
    7.1061    4.1281   24.2242 H   0  0  0  0  0  0  0  0  0  0  0  0
    7.9822    2.3603   25.6982 H   0  0  0  0  0  0  0  0  0  0  0  0
    4.9391    2.6178   25.9243 H   0  0  0  0  0  0  0  0  0  0  0  0
    6.1102    3.7727   26.5692 H   0  0  0  0  0  0  0  0  0  0  0  0
    6.0214    2.1294   27.2313 H   0  0  0  0  0  0  0  0  0  0  0  0
  1  2  1  0
  2  3  1  0
  3  4  1  0
  4  5  1  0
  5  6  1  0
  6  7  2  0
  6  8  1  0
  8  9  1  0
  9 10  2  0
 10 11  1  0
 11 12  2  0
 12 13  1  0
 13 14  2  0
 14 15  1  0
 15 16  2  0
 16 17  1  0
 17 18  2  0
 17 19  1  0
 16 20  1  0
 15 21  1  0
 14 22  1  0
 12 23  1  0
 10 24  1  0
  8 25  1  0
  8 26  1  0
  5 27  1  0
 27 28  1  0
 28 29  1  0
 28 30  1  0
 27 31  1  0
 27 32  1  0
  4 33  1  0
  4 34  1  0
  3 35  1  0
  3 36  1  0
  2 37  1  0
  1 38  1  0
  1 39  1  0
  1 40  1  0
 28  2  1  0
 18  9  1  0
 18 13  1  0
M  END
>  <cnnaffinities>  (72) 
[5.30636, 5.30644]

>  <score>  (72) 
5.30636

>  <index>  (72) 
79

>  <Smiles>  (72) 
C(C1(C(C(N(C(=O)C(c2c(nc(c3c(c(c(c(c23)[H])[H])[H])[H])[H])[H])([H])[H])C(C1([H])[H])([H])[H])([H])[H])([H])[H])[H])([H])([H])[H]

>  <h>  (72) 
<NA>

>  <Training>  (72) 
True

>  <Success>  (72) 
True

>  <enamine_searched>  (72) 
False

>  <enamine_id>  (72) 
nan

$$$$

     RDKit          3D

 59 64  0  0  0  0  0  0  0  0999 V2000
    7.3477   -2.7279   23.7795 C   0  0  0  0  0  0  0  0  0  0  0  0
    7.7121   -1.9103   22.5452 C   0  0  1  0  0  0  0  0  0  0  0  0
    6.5373   -1.5840   21.6057 C   0  0  0  0  0  0  0  0  0  0  0  0
    6.9801   -0.3727   20.9490 N   0  0  0  0  0  0  0  0  0  0  0  0
    6.2547    0.1883   19.8679 C   0  0  0  0  0  0  0  0  0  0  0  0
    6.6064   -0.1183   18.5807 C   0  0  0  0  0  0  0  0  0  0  0  0
    5.9253    0.2968   17.4848 N   0  0  0  0  0  0  0  0  0  0  0  0
    4.8554    1.0254   17.6749 C   0  0  0  0  0  0  0  0  0  0  0  0
    4.3809    1.4305   18.9543 C   0  0  0  0  0  0  0  0  0  0  0  0
    3.2346    2.2533   19.1073 C   0  0  0  0  0  0  0  0  0  0  0  0
    2.7942    2.6084   20.3513 C   0  0  0  0  0  0  0  0  0  0  0  0
    3.4741    2.1465   21.5017 C   0  0  0  0  0  0  0  0  0  0  0  0
    4.5864    1.3487   21.3772 C   0  0  0  0  0  0  0  0  0  0  0  0
    5.0870    0.9863   20.0974 C   0  0  0  0  0  0  0  0  0  0  0  0
    5.0893    0.9964   22.2732 H   0  0  0  0  0  0  0  0  0  0  0  0
    3.1177    2.4303   22.4871 H   0  0  0  0  0  0  0  0  0  0  0  0
    1.9249    3.2508   20.4648 H   0  0  0  0  0  0  0  0  0  0  0  0
    2.7254    2.5967   18.2089 H   0  0  0  0  0  0  0  0  0  0  0  0
    4.3020    1.3361   16.7871 H   0  0  0  0  0  0  0  0  0  0  0  0
    7.4807   -0.7405   18.3976 H   0  0  0  0  0  0  0  0  0  0  0  0
    8.1214    0.1916   21.4808 C   0  0  0  0  0  0  0  0  0  0  0  0
    8.7206    1.1138   20.9745 O   0  0  0  0  0  0  0  0  0  0  0  0
    8.4118   -0.5500   22.8224 C   0  0  1  0  0  0  0  0  0  0  0  0
    7.7033    0.2041   23.9886 C   0  0  0  0  0  0  0  0  0  0  0  0
    8.3546    1.4531   24.3285 N   0  0  0  0  0  0  0  0  0  0  0  0
    7.6070    2.5972   24.8462 C   0  0  0  0  0  0  0  0  0  0  0  0
    7.5421    3.7600   23.8930 C   0  0  0  0  0  0  0  0  0  0  0  0
    7.0286    3.8575   22.6147 C   0  0  0  0  0  0  0  0  0  0  0  0
    7.1707    5.2149   22.2758 C   0  0  0  0  0  0  0  0  0  0  0  0
    7.7379    5.9068   23.2577 N   0  0  0  0  0  0  0  0  0  0  0  0
    7.9697    5.0078   24.2235 N   0  0  0  0  0  0  0  0  0  0  0  0
    8.5720    5.4354   25.4731 C   0  0  0  0  0  0  0  0  0  0  0  0
    9.4554    4.8320   25.6942 H   0  0  0  0  0  0  0  0  0  0  0  0
    8.8491    6.4813   25.3469 H   0  0  0  0  0  0  0  0  0  0  0  0
    7.8602    5.3560   26.3032 H   0  0  0  0  0  0  0  0  0  0  0  0
    6.8592    5.7188   21.3699 H   0  0  0  0  0  0  0  0  0  0  0  0
    6.6165    3.0611   22.0056 H   0  0  0  0  0  0  0  0  0  0  0  0
    8.0880    2.9181   25.7747 H   0  0  0  0  0  0  0  0  0  0  0  0
    6.5868    2.2795   25.1068 H   0  0  0  0  0  0  0  0  0  0  0  0
    9.7181    1.5228   24.4000 C   0  0  0  0  0  0  0  0  0  0  0  0
   10.2866    2.5506   24.7424 O   0  0  0  0  0  0  0  0  0  0  0  0
   10.4770    0.2779   24.0192 C   0  0  0  0  0  0  0  0  0  0  0  0
   11.8316    0.1921   24.3643 C   0  0  0  0  0  0  0  0  0  0  0  0
   12.6472   -0.7735   23.8078 C   0  0  0  0  0  0  0  0  0  0  0  0
   12.0799   -1.6445   22.8806 C   0  0  0  0  0  0  0  0  0  0  0  0
   12.8939   -2.4925   22.2217 F   0  0  0  0  0  0  0  0  0  0  0  0
   10.7347   -1.6263   22.5637 C   0  0  0  0  0  0  0  0  0  0  0  0
    9.8911   -0.6700   23.1614 C   0  0  0  0  0  0  0  0  0  0  0  0
   10.3805   -2.3727   21.8558 H   0  0  0  0  0  0  0  0  0  0  0  0
   13.7095   -0.8487   24.0339 H   0  0  0  0  0  0  0  0  0  0  0  0
   12.2416    0.9413   25.0399 H   0  0  0  0  0  0  0  0  0  0  0  0
    7.7070   -0.4460   24.8695 H   0  0  0  0  0  0  0  0  0  0  0  0
    6.6577    0.4019   23.7274 H   0  0  0  0  0  0  0  0  0  0  0  0
    6.3558   -2.3681   20.8587 H   0  0  0  0  0  0  0  0  0  0  0  0
    5.5957   -1.4182   22.1510 H   0  0  0  0  0  0  0  0  0  0  0  0
    8.4250   -2.4924   21.9551 H   0  0  0  0  0  0  0  0  0  0  0  0
    6.5310   -2.2671   24.3456 H   0  0  0  0  0  0  0  0  0  0  0  0
    8.2066   -2.8187   24.4551 H   0  0  0  0  0  0  0  0  0  0  0  0
    7.0219   -3.7354   23.5065 H   0  0  0  0  0  0  0  0  0  0  0  0
  1  2  1  0
  2  3  1  0
  3  4  1  0
  4  5  1  0
  5  6  2  0
  6  7  1  0
  7  8  2  0
  8  9  1  0
  9 10  2  0
 10 11  1  0
 11 12  2  0
 12 13  1  0
 13 14  2  0
 13 15  1  0
 12 16  1  0
 11 17  1  0
 10 18  1  0
  8 19  1  0
  6 20  1  0
  4 21  1  0
 21 22  2  0
 21 23  1  0
 23 24  1  1
 24 25  1  0
 25 26  1  0
 26 27  1  0
 27 28  2  0
 28 29  1  0
 29 30  2  0
 30 31  1  0
 31 32  1  0
 32 33  1  0
 32 34  1  0
 32 35  1  0
 29 36  1  0
 28 37  1  0
 26 38  1  0
 26 39  1  0
 25 40  1  0
 40 41  2  0
 40 42  1  0
 42 43  2  0
 43 44  1  0
 44 45  2  0
 45 46  1  0
 45 47  1  0
 47 48  2  0
 47 49  1  0
 44 50  1  0
 43 51  1  0
 24 52  1  0
 24 53  1  0
  3 54  1  0
  3 55  1  0
  2 56  1  6
  1 57  1  0
  1 58  1  0
  1 59  1  0
 23  2  1  0
 31 27  1  0
 48 42  1  0
 14  5  1  0
 48 23  1  0
 14  9  1  0
M  END
>  <cnnaffinities>  (73) 
[7.32695]

>  <score>  (73) 
7.32695

>  <index>  (73) 
80

>  <Smiles>  (73) 
C([C@]1(C(N(c2c(nc(c3c(c(c(c(c23)[H])[H])[H])[H])[H])[H])C(=O)[C@]21C(N(C(c1c(c(nn1C([H])([H])[H])[H])[H])([H])[H])C(=O)c1c(c(c(F)c(c21)[H])[H])[H])([H])[H])([H])[H])[H])([H])([H])[H]

>  <h>  (73) 
<NA>

>  <Training>  (73) 
True

>  <Success>  (73) 
True

>  <enamine_searched>  (73) 
False

>  <enamine_id>  (73) 
nan

$$$$

     RDKit          3D

 55 60  0  0  0  0  0  0  0  0999 V2000
    7.3594   -2.6830   23.7654 C   0  0  0  0  0  0  0  0  0  0  0  0
    7.7523   -1.8834   22.5259 C   0  0  1  0  0  0  0  0  0  0  0  0
    6.6087   -1.6106   21.5392 C   0  0  0  0  0  0  0  0  0  0  0  0
    7.0031   -0.3704   20.8978 N   0  0  0  0  0  0  0  0  0  0  0  0
    6.2276    0.1699   19.8321 C   0  0  0  0  0  0  0  0  0  0  0  0
    6.5360   -0.1590   18.5375 C   0  0  0  0  0  0  0  0  0  0  0  0
    5.8509    0.2693   17.4498 N   0  0  0  0  0  0  0  0  0  0  0  0
    4.8039    1.0279   17.6456 C   0  0  0  0  0  0  0  0  0  0  0  0
    4.3460    1.4227   18.9321 C   0  0  0  0  0  0  0  0  0  0  0  0
    3.2121    2.2626   19.0905 C   0  0  0  0  0  0  0  0  0  0  0  0
    2.7810    2.6089   20.3392 C   0  0  0  0  0  0  0  0  0  0  0  0
    3.4517    2.1186   21.4808 C   0  0  0  0  0  0  0  0  0  0  0  0
    4.5527    1.3040   21.3515 C   0  0  0  0  0  0  0  0  0  0  0  0
    5.0502    0.9565   20.0670 C   0  0  0  0  0  0  0  0  0  0  0  0
    5.0646    0.9505   22.2410 H   0  0  0  0  0  0  0  0  0  0  0  0
    3.1009    2.4058   22.4671 H   0  0  0  0  0  0  0  0  0  0  0  0
    1.9191    3.2602   20.4590 H   0  0  0  0  0  0  0  0  0  0  0  0
    2.7065    2.6193   18.1962 H   0  0  0  0  0  0  0  0  0  0  0  0
    4.2544    1.3709   16.7669 H   0  0  0  0  0  0  0  0  0  0  0  0
    7.3826   -0.8111   18.3325 H   0  0  0  0  0  0  0  0  0  0  0  0
    8.0196    0.3146   21.5482 C   0  0  0  0  0  0  0  0  0  0  0  0
    8.4588    1.3867   21.2024 O   0  0  0  0  0  0  0  0  0  0  0  0
    8.3896   -0.4994   22.8252 C   0  0  1  0  0  0  0  0  0  0  0  0
    7.7143    0.2091   24.0457 C   0  0  0  0  0  0  0  0  0  0  0  0
    8.3491    1.4813   24.3285 N   0  0  0  0  0  0  0  0  0  0  0  0
    7.5937    2.6910   24.5700 C   0  0  0  0  0  0  0  0  0  0  0  0
    7.4722    3.5783   23.3674 C   0  0  0  0  0  0  0  0  0  0  0  0
    8.1901    4.5968   23.0379 N   0  0  0  0  0  0  0  0  0  0  0  0
    7.5446    5.1230   21.9266 C   0  0  0  0  0  0  0  0  0  0  0  0
    6.4550    4.3815   21.6546 C   0  0  0  0  0  0  0  0  0  0  0  0
    6.3987    3.3745   22.5742 O   0  0  0  0  0  0  0  0  0  0  0  0
    5.6354    4.4722   20.9598 H   0  0  0  0  0  0  0  0  0  0  0  0
    7.8918    6.0226   21.4341 H   0  0  0  0  0  0  0  0  0  0  0  0
    8.1102    3.2499   25.3528 H   0  0  0  0  0  0  0  0  0  0  0  0
    6.5937    2.4297   24.9146 H   0  0  0  0  0  0  0  0  0  0  0  0
    9.7051    1.5765   24.4132 C   0  0  0  0  0  0  0  0  0  0  0  0
   10.2685    2.5982   24.7752 O   0  0  0  0  0  0  0  0  0  0  0  0
   10.4601    0.3558   23.9989 C   0  0  0  0  0  0  0  0  0  0  0  0
   11.8224    0.3048   24.3037 C   0  0  0  0  0  0  0  0  0  0  0  0
   12.6754   -0.5652   23.6558 C   0  0  0  0  0  0  0  0  0  0  0  0
   12.1020   -1.4647   22.7649 C   0  0  0  0  0  0  0  0  0  0  0  0
   12.8971   -2.3547   22.1451 F   0  0  0  0  0  0  0  0  0  0  0  0
   10.7387   -1.5213   22.5462 C   0  0  0  0  0  0  0  0  0  0  0  0
    9.8798   -0.5758   23.1258 C   0  0  0  0  0  0  0  0  0  0  0  0
   10.3852   -2.3221   21.9106 H   0  0  0  0  0  0  0  0  0  0  0  0
   13.7489   -0.5623   23.8121 H   0  0  0  0  0  0  0  0  0  0  0  0
   12.2021    1.0302   25.0128 H   0  0  0  0  0  0  0  0  0  0  0  0
    7.7843   -0.4341   24.9357 H   0  0  0  0  0  0  0  0  0  0  0  0
    6.6561    0.4042   23.8422 H   0  0  0  0  0  0  0  0  0  0  0  0
    5.6295   -1.5233   22.0372 H   0  0  0  0  0  0  0  0  0  0  0  0
    6.5141   -2.4076   20.7933 H   0  0  0  0  0  0  0  0  0  0  0  0
    8.4905   -2.4661   21.9653 H   0  0  0  0  0  0  0  0  0  0  0  0
    8.2154   -2.7499   24.4482 H   0  0  0  0  0  0  0  0  0  0  0  0
    6.5361   -2.1955   24.3051 H   0  0  0  0  0  0  0  0  0  0  0  0
    7.0454   -3.7008   23.5072 H   0  0  0  0  0  0  0  0  0  0  0  0
  1  2  1  0
  2  3  1  0
  3  4  1  0
  4  5  1  0
  5  6  2  0
  6  7  1  0
  7  8  2  0
  8  9  1  0
  9 10  2  0
 10 11  1  0
 11 12  2  0
 12 13  1  0
 13 14  2  0
 13 15  1  0
 12 16  1  0
 11 17  1  0
 10 18  1  0
  8 19  1  0
  6 20  1  0
  4 21  1  0
 21 22  2  0
 21 23  1  0
 23 24  1  1
 24 25  1  0
 25 26  1  0
 26 27  1  0
 27 28  2  0
 28 29  1  0
 29 30  2  0
 30 31  1  0
 30 32  1  0
 29 33  1  0
 26 34  1  0
 26 35  1  0
 25 36  1  0
 36 37  2  0
 36 38  1  0
 38 39  2  0
 39 40  1  0
 40 41  2  0
 41 42  1  0
 41 43  1  0
 43 44  2  0
 43 45  1  0
 40 46  1  0
 39 47  1  0
 24 48  1  0
 24 49  1  0
  3 50  1  0
  3 51  1  0
  2 52  1  6
  1 53  1  0
  1 54  1  0
  1 55  1  0
 23  2  1  0
 31 27  1  0
 44 38  1  0
 14  5  1  0
 44 23  1  0
 14  9  1  0
M  END
>  <cnnaffinities>  (74) 
[7.01053]

>  <score>  (74) 
7.01053

>  <index>  (74) 
82

>  <Smiles>  (74) 
C([C@]1(C(N(c2c(nc(c3c(c(c(c(c23)[H])[H])[H])[H])[H])[H])C(=O)[C@]21C(N(C(c1nc(c(o1)[H])[H])([H])[H])C(=O)c1c(c(c(F)c(c21)[H])[H])[H])([H])[H])([H])[H])[H])([H])([H])[H]

>  <h>  (74) 
<NA>

>  <Training>  (74) 
True

>  <Success>  (74) 
True

>  <enamine_searched>  (74) 
False

>  <enamine_id>  (74) 
nan

$$$$

     RDKit          3D

 72 77  0  0  0  0  0  0  0  0999 V2000
    5.2094    4.3889   23.5424 C   0  0  0  0  0  0  0  0  0  0  0  0
    6.4162    5.2069   23.9784 C   0  0  2  0  0  0  0  0  0  0  0  0
    6.0442    6.6902   23.9995 C   0  0  0  0  0  0  0  0  0  0  0  0
    7.1464    7.5454   24.2066 O   0  0  0  0  0  0  0  0  0  0  0  0
    8.0525    7.4087   23.1331 C   0  0  0  0  0  0  0  0  0  0  0  0
    8.6919    6.0254   23.1162 C   0  0  1  0  0  0  0  0  0  0  0  0
    9.5918    5.8340   24.3333 C   0  0  0  0  0  0  0  0  0  0  0  0
   10.1958    4.9239   24.2588 H   0  0  0  0  0  0  0  0  0  0  0  0
   10.2763    6.6836   24.4172 H   0  0  0  0  0  0  0  0  0  0  0  0
    9.0012    5.7953   25.2538 H   0  0  0  0  0  0  0  0  0  0  0  0
    7.5811    4.9858   23.0144 N   0  0  0  0  0  4  0  0  0  0  0  0
    8.0944    3.5715   22.8748 C   0  0  0  0  0  0  0  0  0  0  0  0
    8.2648    2.8138   24.2024 C   0  0  0  0  0  0  0  0  0  0  0  0
    8.8140    1.4788   24.0147 N   0  0  0  0  0  0  0  0  0  0  0  0
    7.9277    0.3376   23.8444 C   0  0  0  0  0  0  0  0  0  0  0  0
    8.4261   -0.5928   22.7013 C   0  0  2  0  0  0  0  0  0  0  0  0
    8.1233    0.0841   21.3448 C   0  0  0  0  0  0  0  0  0  0  0  0
    8.7641    0.9434   20.7737 O   0  0  0  0  0  0  0  0  0  0  0  0
    6.9334   -0.4346   20.8811 N   0  0  0  0  0  0  0  0  0  0  0  0
    6.1957    0.1481   19.8226 C   0  0  0  0  0  0  0  0  0  0  0  0
    6.5399   -0.1342   18.5285 C   0  0  0  0  0  0  0  0  0  0  0  0
    5.8537    0.2964   17.4423 N   0  0  0  0  0  0  0  0  0  0  0  0
    4.7902    1.0307   17.6458 C   0  0  0  0  0  0  0  0  0  0  0  0
    4.3321    1.4187   18.9341 C   0  0  0  0  0  0  0  0  0  0  0  0
    3.1981    2.2531   19.0915 C   0  0  0  0  0  0  0  0  0  0  0  0
    2.7836    2.6294   20.3370 C   0  0  0  0  0  0  0  0  0  0  0  0
    3.4821    2.1820   21.4795 C   0  0  0  0  0  0  0  0  0  0  0  0
    4.5815    1.3668   21.3568 C   0  0  0  0  0  0  0  0  0  0  0  0
    5.0453    0.9673   20.0713 C   0  0  0  0  0  0  0  0  0  0  0  0
    5.1030    1.0351   22.2506 H   0  0  0  0  0  0  0  0  0  0  0  0
    3.1503    2.5013   22.4633 H   0  0  0  0  0  0  0  0  0  0  0  0
    1.9193    3.2756   20.4530 H   0  0  0  0  0  0  0  0  0  0  0  0
    2.6842    2.5942   18.1979 H   0  0  0  0  0  0  0  0  0  0  0  0
    4.2383    1.3714   16.7673 H   0  0  0  0  0  0  0  0  0  0  0  0
    7.4027   -0.7659   18.3284 H   0  0  0  0  0  0  0  0  0  0  0  0
    6.4107   -1.5387   21.6620 C   0  0  0  0  0  0  0  0  0  0  0  0
    7.5823   -1.8959   22.5868 C   0  0  2  0  0  0  0  0  0  0  0  0
    7.1940   -2.5287   23.9164 C   0  0  0  0  0  0  0  0  0  0  0  0
    6.4961   -1.8864   24.4699 H   0  0  0  0  0  0  0  0  0  0  0  0
    6.7255   -3.5083   23.7685 H   0  0  0  0  0  0  0  0  0  0  0  0
    8.0914   -2.6616   24.5330 H   0  0  0  0  0  0  0  0  0  0  0  0
    8.1834   -2.6279   22.0365 H   0  0  0  0  0  0  0  0  0  0  0  0
    6.1454   -2.3705   20.9996 H   0  0  0  0  0  0  0  0  0  0  0  0
    5.5038   -1.2654   22.2234 H   0  0  0  0  0  0  0  0  0  0  0  0
    9.9028   -0.8417   22.8933 C   0  0  0  0  0  0  0  0  0  0  0  0
   10.5484   -1.8251   22.1307 C   0  0  0  0  0  0  0  0  0  0  0  0
   11.9232   -1.9567   22.1837 C   0  0  0  0  0  0  0  0  0  0  0  0
   12.6848   -3.0557   21.0588 Cl  0  0  0  0  0  0  0  0  0  0  0  0
   12.6998   -1.2038   23.0723 C   0  0  0  0  0  0  0  0  0  0  0  0
   12.0473   -0.3000   23.8935 C   0  0  0  0  0  0  0  0  0  0  0  0
   10.6728   -0.0655   23.7661 C   0  0  0  0  0  0  0  0  0  0  0  0
   10.1120    1.2052   24.3656 C   0  0  0  0  0  0  0  0  0  0  0  0
   10.8111    1.9468   25.0387 O   0  0  0  0  0  0  0  0  0  0  0  0
   12.6002    0.2692   24.6366 H   0  0  0  0  0  0  0  0  0  0  0  0
   13.7870   -1.3172   23.1042 H   0  0  0  0  0  0  0  0  0  0  0  0
    9.9832   -2.4958   21.4921 H   0  0  0  0  0  0  0  0  0  0  0  0
    6.9153    0.7045   23.6406 H   0  0  0  0  0  0  0  0  0  0  0  0
    7.8990   -0.2410   24.7819 H   0  0  0  0  0  0  0  0  0  0  0  0
    7.2886    2.7255   24.6898 H   0  0  0  0  0  0  0  0  0  0  0  0
    8.9238    3.3438   24.8936 H   0  0  0  0  0  0  0  0  0  0  0  0
    7.4085    3.0063   22.2267 H   0  0  0  0  0  0  0  0  0  0  0  0
    9.0579    3.6162   22.3504 H   0  0  0  0  0  0  0  0  0  0  0  0
    7.1442    5.1873   22.0933 H   0  0  0  0  0  0  0  0  0  0  0  0
    9.2914    5.9349   22.2014 H   0  0  0  0  0  0  0  0  0  0  0  0
    7.5305    7.5976   22.1806 H   0  0  0  0  0  0  0  0  0  0  0  0
    8.8206    8.1784   23.2566 H   0  0  0  0  0  0  0  0  0  0  0  0
    5.5572    6.9471   23.0424 H   0  0  0  0  0  0  0  0  0  0  0  0
    5.3311    6.8833   24.8081 H   0  0  0  0  0  0  0  0  0  0  0  0
    6.7429    4.9222   24.9813 H   0  0  0  0  0  0  0  0  0  0  0  0
    4.3597    4.5621   24.2109 H   0  0  0  0  0  0  0  0  0  0  0  0
    5.4093    3.3140   23.5245 H   0  0  0  0  0  0  0  0  0  0  0  0
    4.9216    4.6911   22.5257 H   0  0  0  0  0  0  0  0  0  0  0  0
  1  2  1  0
  2  3  1  0
  3  4  1  0
  4  5  1  0
  5  6  1  0
  6  7  1  0
  7  8  1  0
  7  9  1  0
  7 10  1  0
  6 11  1  0
 11 12  1  0
 12 13  1  0
 13 14  1  0
 14 15  1  0
 16 15  1  1
 16 17  1  0
 17 18  2  0
 17 19  1  0
 19 20  1  0
 20 21  2  0
 21 22  1  0
 22 23  2  0
 23 24  1  0
 24 25  2  0
 25 26  1  0
 26 27  2  0
 27 28  1  0
 28 29  2  0
 28 30  1  0
 27 31  1  0
 26 32  1  0
 25 33  1  0
 23 34  1  0
 21 35  1  0
 19 36  1  0
 36 37  1  0
 37 38  1  0
 38 39  1  0
 38 40  1  0
 38 41  1  0
 37 42  1  6
 36 43  1  0
 36 44  1  0
 16 45  1  0
 45 46  2  0
 46 47  1  0
 47 48  1  0
 47 49  2  0
 49 50  1  0
 50 51  2  0
 51 52  1  0
 52 53  2  0
 50 54  1  0
 49 55  1  0
 46 56  1  0
 15 57  1  0
 15 58  1  0
 13 59  1  0
 13 60  1  0
 12 61  1  0
 12 62  1  0
 11 63  1  0
  6 64  1  6
  5 65  1  0
  5 66  1  0
  3 67  1  0
  3 68  1  0
  2 69  1  1
  1 70  1  0
  1 71  1  0
  1 72  1  0
 11  2  1  0
 52 14  1  0
 37 16  1  0
 51 45  1  0
 29 20  1  0
 29 24  1  0
M  CHG  1  11   1
M  END
>  <cnnaffinities>  (75) 
[7.58145]

>  <score>  (75) 
7.58145

>  <index>  (75) 
83

>  <Smiles>  (75) 
C([C@@]1(C(OC([C@@](C([H])([H])[H])([N+]1(C(C(N1C([C@@]2(C(=O)N(c3c(nc(c4c(c(c(c(c34)[H])[H])[H])[H])[H])[H])C([C@@]2(C([H])([H])[H])[H])([H])[H])c2c(c(Cl)c(c(c2C1=O)[H])[H])[H])([H])[H])([H])[H])([H])[H])[H])[H])([H])[H])([H])[H])[H])([H])([H])[H]

>  <h>  (75) 
<NA>

>  <Training>  (75) 
True

>  <Success>  (75) 
True

>  <enamine_searched>  (75) 
False

>  <enamine_id>  (75) 
nan

$$$$

     RDKit          3D

 60 65  0  0  0  0  0  0  0  0999 V2000
    7.2415    1.8595   28.6218 C   0  0  0  0  0  0  0  0  0  0  0  0
    7.6503    1.8447   27.2277 N   0  0  0  0  0  0  0  0  0  0  0  0
    6.8632    2.4354   26.2944 C   0  0  0  0  0  0  0  0  0  0  0  0
    5.7936    2.9582   26.5743 O   0  0  0  0  0  0  0  0  0  0  0  0
    7.3968    2.4815   24.8735 C   0  0  0  0  0  0  0  0  0  0  0  0
    8.2334    1.4147   24.3996 N   0  0  0  0  0  0  0  0  0  0  0  0
    7.6031    0.1415   24.0811 C   0  0  0  0  0  0  0  0  0  0  0  0
    8.2966   -0.5505   22.8734 C   0  0  2  0  0  0  0  0  0  0  0  0
    7.9401    0.2765   21.6031 C   0  0  0  0  0  0  0  0  0  0  0  0
    8.3737    1.3561   21.2711 O   0  0  0  0  0  0  0  0  0  0  0  0
    6.9666   -0.4110   20.9010 N   0  0  0  0  0  0  0  0  0  0  0  0
    6.2140    0.1527   19.8374 C   0  0  0  0  0  0  0  0  0  0  0  0
    6.5511   -0.1493   18.5451 C   0  0  0  0  0  0  0  0  0  0  0  0
    5.8769    0.2903   17.4558 N   0  0  0  0  0  0  0  0  0  0  0  0
    4.8215    1.0395   17.6494 C   0  0  0  0  0  0  0  0  0  0  0  0
    4.3551    1.4258   18.9364 C   0  0  0  0  0  0  0  0  0  0  0  0
    3.2228    2.2653   19.0954 C   0  0  0  0  0  0  0  0  0  0  0  0
    2.7882    2.6109   20.3443 C   0  0  0  0  0  0  0  0  0  0  0  0
    3.4483    2.1108   21.4880 C   0  0  0  0  0  0  0  0  0  0  0  0
    4.5372    1.2834   21.3594 C   0  0  0  0  0  0  0  0  0  0  0  0
    5.0477    0.9514   20.0734 C   0  0  0  0  0  0  0  0  0  0  0  0
    5.0158    0.8851   22.2487 H   0  0  0  0  0  0  0  0  0  0  0  0
    3.0932    2.3888   22.4760 H   0  0  0  0  0  0  0  0  0  0  0  0
    1.9309    3.2656   20.4627 H   0  0  0  0  0  0  0  0  0  0  0  0
    2.7239    2.6283   18.2009 H   0  0  0  0  0  0  0  0  0  0  0  0
    4.2792    1.3846   16.7659 H   0  0  0  0  0  0  0  0  0  0  0  0
    7.4109   -0.7878   18.3483 H   0  0  0  0  0  0  0  0  0  0  0  0
    6.5474   -1.6525   21.5109 C   0  0  0  0  0  0  0  0  0  0  0  0
    7.6578   -1.9292   22.5364 C   0  0  2  0  0  0  0  0  0  0  0  0
    7.2327   -2.7645   23.7375 C   0  0  0  0  0  0  0  0  0  0  0  0
    6.3821   -2.3200   24.2657 H   0  0  0  0  0  0  0  0  0  0  0  0
    6.9397   -3.7711   23.4277 H   0  0  0  0  0  0  0  0  0  0  0  0
    8.0588   -2.8507   24.4518 H   0  0  0  0  0  0  0  0  0  0  0  0
    8.4176   -2.4968   21.9952 H   0  0  0  0  0  0  0  0  0  0  0  0
    5.5490   -1.5656   21.9706 H   0  0  0  0  0  0  0  0  0  0  0  0
    6.4899   -2.4333   20.7444 H   0  0  0  0  0  0  0  0  0  0  0  0
    9.7919   -0.6242   23.1806 C   0  0  0  0  0  0  0  0  0  0  0  0
   10.6507   -1.5697   22.5899 C   0  0  0  0  0  0  0  0  0  0  0  0
   12.0062   -1.5698   22.8718 C   0  0  0  0  0  0  0  0  0  0  0  0
   13.0427   -2.6933   22.0309 Cl  0  0  0  0  0  0  0  0  0  0  0  0
   12.5611   -0.6992   23.8070 C   0  0  0  0  0  0  0  0  0  0  0  0
   11.7287    0.2476   24.3719 C   0  0  0  0  0  0  0  0  0  0  0  0
   10.3746    0.3250   24.0335 C   0  0  0  0  0  0  0  0  0  0  0  0
    9.6027    1.5337   24.4596 C   0  0  0  0  0  0  0  0  0  0  0  0
   10.1484    2.5697   24.8044 O   0  0  0  0  0  0  0  0  0  0  0  0
   12.1174    0.9690   25.0751 H   0  0  0  0  0  0  0  0  0  0  0  0
   13.6175   -0.7676   24.0569 H   0  0  0  0  0  0  0  0  0  0  0  0
   10.3003   -2.3081   21.8775 H   0  0  0  0  0  0  0  0  0  0  0  0
    6.5476    0.3193   23.8600 H   0  0  0  0  0  0  0  0  0  0  0  0
    7.6494   -0.5208   24.9521 H   0  0  0  0  0  0  0  0  0  0  0  0
    7.5778    3.8841   24.3603 C   0  0  0  0  0  0  0  0  0  0  0  0
    6.4395    3.0634   23.8575 C   0  0  0  0  0  0  0  0  0  0  0  0
    6.5607    2.6768   22.8500 H   0  0  0  0  0  0  0  0  0  0  0  0
    5.4366    3.2935   24.2125 H   0  0  0  0  0  0  0  0  0  0  0  0
    7.3750    4.6752   25.0770 H   0  0  0  0  0  0  0  0  0  0  0  0
    8.4206    4.0445   23.6968 H   0  0  0  0  0  0  0  0  0  0  0  0
    8.6117    1.6342   27.0042 H   0  0  0  0  0  0  0  0  0  0  0  0
    6.3103    1.3010   28.7465 H   0  0  0  0  0  0  0  0  0  0  0  0
    8.0177    1.4006   29.2377 H   0  0  0  0  0  0  0  0  0  0  0  0
    7.0525    2.8777   28.9784 H   0  0  0  0  0  0  0  0  0  0  0  0
  1  2  1  0
  2  3  1  0
  3  4  2  0
  3  5  1  0
  5  6  1  0
  6  7  1  0
  8  7  1  1
  8  9  1  0
  9 10  2  0
  9 11  1  0
 11 12  1  0
 12 13  2  0
 13 14  1  0
 14 15  2  0
 15 16  1  0
 16 17  2  0
 17 18  1  0
 18 19  2  0
 19 20  1  0
 20 21  2  0
 20 22  1  0
 19 23  1  0
 18 24  1  0
 17 25  1  0
 15 26  1  0
 13 27  1  0
 11 28  1  0
 28 29  1  0
 29 30  1  0
 30 31  1  0
 30 32  1  0
 30 33  1  0
 29 34  1  6
 28 35  1  0
 28 36  1  0
  8 37  1  0
 37 38  2  0
 38 39  1  0
 39 40  1  0
 39 41  2  0
 41 42  1  0
 42 43  2  0
 43 44  1  0
 44 45  2  0
 42 46  1  0
 41 47  1  0
 38 48  1  0
  7 49  1  0
  7 50  1  0
  5 51  1  0
 51 52  1  0
 52 53  1  0
 52 54  1  0
 51 55  1  0
 51 56  1  0
  2 57  1  0
  1 58  1  0
  1 59  1  0
  1 60  1  0
 52  5  1  0
 44  6  1  0
 29  8  1  0
 43 37  1  0
 21 12  1  0
 21 16  1  0
M  END
>  <cnnaffinities>  (76) 
[7.07862]

>  <score>  (76) 
7.07862

>  <index>  (76) 
84

>  <Smiles>  (76) 
C(N(C(=O)C1(N2C([C@@]3(C(=O)N(c4c(nc(c5c(c(c(c(c45)[H])[H])[H])[H])[H])[H])C([C@@]3(C([H])([H])[H])[H])([H])[H])c3c(c(Cl)c(c(c3C2=O)[H])[H])[H])([H])[H])C(C1([H])[H])([H])[H])[H])([H])([H])[H]

>  <h>  (76) 
<NA>

>  <Training>  (76) 
True

>  <Success>  (76) 
True

>  <enamine_searched>  (76) 
False

>  <enamine_id>  (76) 
nan

$$$$

     RDKit          3D

 55 60  0  0  0  0  0  0  0  0999 V2000
    7.2307   -2.6746   23.8469 C   0  0  0  0  0  0  0  0  0  0  0  0
    7.6116   -1.9225   22.5792 C   0  0  1  0  0  0  0  0  0  0  0  0
    6.4322   -1.5319   21.6758 C   0  0  0  0  0  0  0  0  0  0  0  0
    6.9478   -0.3831   20.9609 N   0  0  0  0  0  0  0  0  0  0  0  0
    6.2454    0.1804   19.8699 C   0  0  0  0  0  0  0  0  0  0  0  0
    6.6506   -0.0661   18.5839 C   0  0  0  0  0  0  0  0  0  0  0  0
    5.9802    0.3565   17.4843 N   0  0  0  0  0  0  0  0  0  0  0  0
    4.8817    1.0494   17.6599 C   0  0  0  0  0  0  0  0  0  0  0  0
    4.3692    1.4124   18.9393 C   0  0  0  0  0  0  0  0  0  0  0  0
    3.2161    2.2318   19.0925 C   0  0  0  0  0  0  0  0  0  0  0  0
    2.7527    2.5530   20.3394 C   0  0  0  0  0  0  0  0  0  0  0  0
    3.4070    2.0537   21.4879 C   0  0  0  0  0  0  0  0  0  0  0  0
    4.5218    1.2563   21.3649 C   0  0  0  0  0  0  0  0  0  0  0  0
    5.0488    0.9379   20.0844 C   0  0  0  0  0  0  0  0  0  0  0  0
    5.0283    0.9100   22.2609 H   0  0  0  0  0  0  0  0  0  0  0  0
    3.0432    2.3221   22.4766 H   0  0  0  0  0  0  0  0  0  0  0  0
    1.8895    3.2046   20.4563 H   0  0  0  0  0  0  0  0  0  0  0  0
    2.7249    2.6101   18.1992 H   0  0  0  0  0  0  0  0  0  0  0  0
    4.3375    1.3651   16.7664 H   0  0  0  0  0  0  0  0  0  0  0  0
    7.5523   -0.6459   18.3983 H   0  0  0  0  0  0  0  0  0  0  0  0
    8.1508    0.1082   21.4322 C   0  0  0  0  0  0  0  0  0  0  0  0
    8.7934    0.9759   20.8905 O   0  0  0  0  0  0  0  0  0  0  0  0
    8.4283   -0.6109   22.7917 C   0  0  1  0  0  0  0  0  0  0  0  0
    7.8275    0.2542   23.9501 C   0  0  0  0  0  0  0  0  0  0  0  0
    8.6464    1.4104   24.2847 N   0  0  0  0  0  0  0  0  0  0  0  0
    8.0452    2.7105   24.5900 C   0  0  0  0  0  0  0  0  0  0  0  0
    7.6817    3.5559   23.4044 C   0  0  0  0  0  0  0  0  0  0  0  0
    8.3215    4.5808   22.7843 C   0  0  0  0  0  0  0  0  0  0  0  0
    7.5074    5.0323   21.7850 O   0  0  0  0  0  0  0  0  0  0  0  0
    6.4042    4.2675   21.8603 C   0  0  0  0  0  0  0  0  0  0  0  0
    6.4388    3.3835   22.8048 N   0  0  0  0  0  0  0  0  0  0  0  0
    5.6101    4.4533   21.1479 H   0  0  0  0  0  0  0  0  0  0  0  0
    9.2711    5.0825   22.8985 H   0  0  0  0  0  0  0  0  0  0  0  0
    8.7564    3.2258   25.2450 H   0  0  0  0  0  0  0  0  0  0  0  0
    7.1125    2.5514   25.1422 H   0  0  0  0  0  0  0  0  0  0  0  0
    9.9914    1.2500   24.4804 C   0  0  0  0  0  0  0  0  0  0  0  0
   10.6974    2.1188   24.9670 O   0  0  0  0  0  0  0  0  0  0  0  0
   10.5928   -0.0295   23.9927 C   0  0  0  0  0  0  0  0  0  0  0  0
   11.9368   -0.2433   24.3282 C   0  0  0  0  0  0  0  0  0  0  0  0
   12.6707   -1.2121   23.6698 C   0  0  0  0  0  0  0  0  0  0  0  0
   12.0198   -1.9559   22.6896 C   0  0  0  0  0  0  0  0  0  0  0  0
   12.7536   -2.8219   21.9630 F   0  0  0  0  0  0  0  0  0  0  0  0
   10.6661   -1.8331   22.4184 C   0  0  0  0  0  0  0  0  0  0  0  0
    9.9076   -0.8480   23.0834 C   0  0  0  0  0  0  0  0  0  0  0  0
   10.2503   -2.4843   21.6558 H   0  0  0  0  0  0  0  0  0  0  0  0
   13.7326   -1.3643   23.8444 H   0  0  0  0  0  0  0  0  0  0  0  0
   12.4002    0.4350   25.0446 H   0  0  0  0  0  0  0  0  0  0  0  0
    6.8406    0.6155   23.6513 H   0  0  0  0  0  0  0  0  0  0  0  0
    7.7135   -0.3682   24.8489 H   0  0  0  0  0  0  0  0  0  0  0  0
    5.5205   -1.2867   22.2398 H   0  0  0  0  0  0  0  0  0  0  0  0
    6.1572   -2.3214   20.9677 H   0  0  0  0  0  0  0  0  0  0  0  0
    8.2676   -2.5566   21.9743 H   0  0  0  0  0  0  0  0  0  0  0  0
    8.1020   -2.7880   24.5020 H   0  0  0  0  0  0  0  0  0  0  0  0
    6.4566   -2.1399   24.4089 H   0  0  0  0  0  0  0  0  0  0  0  0
    6.8427   -3.6694   23.6121 H   0  0  0  0  0  0  0  0  0  0  0  0
  1  2  1  0
  2  3  1  0
  3  4  1  0
  4  5  1  0
  5  6  2  0
  6  7  1  0
  7  8  2  0
  8  9  1  0
  9 10  2  0
 10 11  1  0
 11 12  2  0
 12 13  1  0
 13 14  2  0
 13 15  1  0
 12 16  1  0
 11 17  1  0
 10 18  1  0
  8 19  1  0
  6 20  1  0
  4 21  1  0
 21 22  2  0
 21 23  1  0
 23 24  1  1
 24 25  1  0
 25 26  1  0
 26 27  1  0
 27 28  2  0
 28 29  1  0
 29 30  1  0
 30 31  2  0
 30 32  1  0
 28 33  1  0
 26 34  1  0
 26 35  1  0
 25 36  1  0
 36 37  2  0
 36 38  1  0
 38 39  2  0
 39 40  1  0
 40 41  2  0
 41 42  1  0
 41 43  1  0
 43 44  2  0
 43 45  1  0
 40 46  1  0
 39 47  1  0
 24 48  1  0
 24 49  1  0
  3 50  1  0
  3 51  1  0
  2 52  1  6
  1 53  1  0
  1 54  1  0
  1 55  1  0
 23  2  1  0
 31 27  1  0
 44 38  1  0
 14  5  1  0
 44 23  1  0
 14  9  1  0
M  END
>  <cnnaffinities>  (77) 
[7.0941]

>  <score>  (77) 
7.0941

>  <index>  (77) 
85

>  <Smiles>  (77) 
C([C@]1(C(N(c2c(nc(c3c(c(c(c(c23)[H])[H])[H])[H])[H])[H])C(=O)[C@]21C(N(C(c1c(oc(n1)[H])[H])([H])[H])C(=O)c1c(c(c(F)c(c21)[H])[H])[H])([H])[H])([H])[H])[H])([H])([H])[H]

>  <h>  (77) 
<NA>

>  <Training>  (77) 
True

>  <Success>  (77) 
True

>  <enamine_searched>  (77) 
False

>  <enamine_id>  (77) 
nan

$$$$

     RDKit          3D

 65 70  0  0  0  0  0  0  0  0999 V2000
    6.5732    4.2824   21.4398 C   0  0  0  0  0  0  0  0  0  0  0  0
    7.4981    3.7238   22.4207 N   0  0  0  0  0  0  0  0  0  0  0  0
    7.0150    3.1439   23.5562 C   0  0  0  0  0  0  0  0  0  0  0  0
    5.8135    3.0352   23.7726 O   0  0  0  0  0  0  0  0  0  0  0  0
    8.0618    2.6578   24.5739 C   0  0  0  0  0  0  0  0  0  0  0  0
    8.7013    1.4121   24.1584 N   0  0  0  0  0  0  0  0  0  0  0  0
    7.8829    0.2341   23.9148 C   0  0  0  0  0  0  0  0  0  0  0  0
    8.4307   -0.6206   22.7302 C   0  0  2  0  0  0  0  0  0  0  0  0
    8.0839    0.1110   21.4064 C   0  0  0  0  0  0  0  0  0  0  0  0
    8.6705    1.0342   20.8799 O   0  0  0  0  0  0  0  0  0  0  0  0
    6.9043   -0.4271   20.9298 N   0  0  0  0  0  0  0  0  0  0  0  0
    6.2042    0.1445   19.8427 C   0  0  0  0  0  0  0  0  0  0  0  0
    6.6070   -0.1046   18.5565 C   0  0  0  0  0  0  0  0  0  0  0  0
    5.9397    0.3341   17.4632 N   0  0  0  0  0  0  0  0  0  0  0  0
    4.8541    1.0442   17.6508 C   0  0  0  0  0  0  0  0  0  0  0  0
    4.3562    1.4183   18.9298 C   0  0  0  0  0  0  0  0  0  0  0  0
    3.2133    2.2436   19.0966 C   0  0  0  0  0  0  0  0  0  0  0  0
    2.7881    2.6042   20.3477 C   0  0  0  0  0  0  0  0  0  0  0  0
    3.4794    2.1489   21.4939 C   0  0  0  0  0  0  0  0  0  0  0  0
    4.5798    1.3373   21.3554 C   0  0  0  0  0  0  0  0  0  0  0  0
    5.0499    0.9531   20.0712 C   0  0  0  0  0  0  0  0  0  0  0  0
    5.1321    1.0284   22.2377 H   0  0  0  0  0  0  0  0  0  0  0  0
    3.1664    2.4602   22.4867 H   0  0  0  0  0  0  0  0  0  0  0  0
    1.9229    3.2507   20.4668 H   0  0  0  0  0  0  0  0  0  0  0  0
    2.6954    2.5896   18.2055 H   0  0  0  0  0  0  0  0  0  0  0  0
    4.3074    1.3709   16.7633 H   0  0  0  0  0  0  0  0  0  0  0  0
    7.4976   -0.7013   18.3689 H   0  0  0  0  0  0  0  0  0  0  0  0
    6.4071   -1.5654   21.6792 C   0  0  0  0  0  0  0  0  0  0  0  0
    7.6334   -1.9365   22.5244 C   0  0  2  0  0  0  0  0  0  0  0  0
    7.3624   -2.7865   23.7702 C   0  0  0  0  0  0  0  0  0  0  0  0
    6.1769   -2.4120   24.5362 N   0  0  0  0  0  0  0  0  0  0  0  0
    5.0536   -3.1698   24.5906 C   0  0  0  0  0  0  0  0  0  0  0  0
    4.1695   -2.9027   25.5736 N   0  0  0  0  0  0  0  0  0  0  0  0
    3.1346   -3.7263   25.6102 C   0  0  0  0  0  0  0  0  0  0  0  0
    2.8720   -4.7288   24.7654 N   0  0  0  0  0  0  0  0  0  0  0  0
    3.7737   -4.8297   23.7889 C   0  0  0  0  0  0  0  0  0  0  0  0
    4.8769   -4.1112   23.6426 N   0  0  0  0  0  0  0  0  0  0  0  0
    3.5978   -5.5883   23.0258 H   0  0  0  0  0  0  0  0  0  0  0  0
    2.4092   -3.5606   26.4124 H   0  0  0  0  0  0  0  0  0  0  0  0
    6.2572   -1.7262   25.2742 H   0  0  0  0  0  0  0  0  0  0  0  0
    7.2227   -3.8239   23.4691 H   0  0  0  0  0  0  0  0  0  0  0  0
    8.2379   -2.7518   24.4314 H   0  0  0  0  0  0  0  0  0  0  0  0
    8.2710   -2.5433   21.8738 H   0  0  0  0  0  0  0  0  0  0  0  0
    5.5367   -1.3027   22.2953 H   0  0  0  0  0  0  0  0  0  0  0  0
    6.0983   -2.3662   20.9947 H   0  0  0  0  0  0  0  0  0  0  0  0
    9.9177   -0.8517   22.9556 C   0  0  0  0  0  0  0  0  0  0  0  0
   10.6515   -1.8124   22.2297 C   0  0  0  0  0  0  0  0  0  0  0  0
   12.0188   -1.9355   22.4115 C   0  0  0  0  0  0  0  0  0  0  0  0
   12.9282   -3.0057   21.3781 Cl  0  0  0  0  0  0  0  0  0  0  0  0
   12.7127   -1.1781   23.3568 C   0  0  0  0  0  0  0  0  0  0  0  0
   11.9981   -0.2424   24.0750 C   0  0  0  0  0  0  0  0  0  0  0  0
   10.6364   -0.0384   23.8406 C   0  0  0  0  0  0  0  0  0  0  0  0
   10.0335    1.2114   24.4197 C   0  0  0  0  0  0  0  0  0  0  0  0
   10.7347    2.0068   25.0215 O   0  0  0  0  0  0  0  0  0  0  0  0
   12.4991    0.4131   24.7801 H   0  0  0  0  0  0  0  0  0  0  0  0
   13.7850   -1.3076   23.4903 H   0  0  0  0  0  0  0  0  0  0  0  0
   10.1804   -2.4613   21.4963 H   0  0  0  0  0  0  0  0  0  0  0  0
    7.8667   -0.3804   24.8227 H   0  0  0  0  0  0  0  0  0  0  0  0
    6.8635    0.5665   23.7080 H   0  0  0  0  0  0  0  0  0  0  0  0
    8.8669    3.3914   24.6905 H   0  0  0  0  0  0  0  0  0  0  0  0
    7.5592    2.5773   25.5512 H   0  0  0  0  0  0  0  0  0  0  0  0
    8.4382    3.4922   22.1375 H   0  0  0  0  0  0  0  0  0  0  0  0
    5.7956    4.8346   21.9760 H   0  0  0  0  0  0  0  0  0  0  0  0
    6.0795    3.5047   20.8357 H   0  0  0  0  0  0  0  0  0  0  0  0
    7.0976    4.9731   20.7712 H   0  0  0  0  0  0  0  0  0  0  0  0
  1  2  1  0
  2  3  1  0
  3  4  2  0
  3  5  1  0
  5  6  1  0
  6  7  1  0
  8  7  1  1
  8  9  1  0
  9 10  2  0
  9 11  1  0
 11 12  1  0
 12 13  2  0
 13 14  1  0
 14 15  2  0
 15 16  1  0
 16 17  2  0
 17 18  1  0
 18 19  2  0
 19 20  1  0
 20 21  2  0
 20 22  1  0
 19 23  1  0
 18 24  1  0
 17 25  1  0
 15 26  1  0
 13 27  1  0
 11 28  1  0
 28 29  1  0
 29 30  1  0
 30 31  1  0
 31 32  1  0
 32 33  2  0
 33 34  1  0
 34 35  2  0
 35 36  1  0
 36 37  2  0
 36 38  1  0
 34 39  1  0
 31 40  1  0
 30 41  1  0
 30 42  1  0
 29 43  1  6
 28 44  1  0
 28 45  1  0
  8 46  1  0
 46 47  2  0
 47 48  1  0
 48 49  1  0
 48 50  2  0
 50 51  1  0
 51 52  2  0
 52 53  1  0
 53 54  2  0
 51 55  1  0
 50 56  1  0
 47 57  1  0
  7 58  1  0
  7 59  1  0
  5 60  1  0
  5 61  1  0
  2 62  1  0
  1 63  1  0
  1 64  1  0
  1 65  1  0
 53  6  1  0
 29  8  1  0
 37 32  1  0
 52 46  1  0
 21 12  1  0
 21 16  1  0
M  END
>  <cnnaffinities>  (78) 
[7.2306, 7.10956]

>  <score>  (78) 
7.2306

>  <index>  (78) 
86

>  <Smiles>  (78) 
C(N(C(=O)C(N1C([C@@]2(C(=O)N(c3c(nc(c4c(c(c(c(c34)[H])[H])[H])[H])[H])[H])C([C@@]2(C(N(c2nc(nc(n2)[H])[H])[H])([H])[H])[H])([H])[H])c2c(c(Cl)c(c(c2C1=O)[H])[H])[H])([H])[H])([H])[H])[H])([H])([H])[H]

>  <h>  (78) 
<NA>

>  <Training>  (78) 
True

>  <Success>  (78) 
True

>  <enamine_searched>  (78) 
False

>  <enamine_id>  (78) 
nan

$$$$

     RDKit          3D

 63 68  0  0  0  0  0  0  0  0999 V2000
    7.5069    5.0583   22.1998 C   0  0  0  0  0  0  0  0  0  0  0  0
    8.0308    4.0834   23.1447 N   0  0  0  0  0  0  0  0  0  0  0  0
    7.1943    3.2308   23.7883 C   0  0  0  0  0  0  0  0  0  0  0  0
    6.0259    3.0697   23.4676 O   0  0  0  0  0  0  0  0  0  0  0  0
    7.8234    2.4774   24.9718 C   0  0  0  0  0  0  0  0  0  0  0  0
    8.5409    1.2883   24.5471 N   0  0  0  0  0  0  0  0  0  0  0  0
    7.7712    0.1417   24.0980 C   0  0  0  0  0  0  0  0  0  0  0  0
    8.3947   -0.5848   22.8653 C   0  0  2  0  0  0  0  0  0  0  0  0
    8.0857    0.2506   21.5845 C   0  0  0  0  0  0  0  0  0  0  0  0
    8.6383    1.2570   21.1955 O   0  0  0  0  0  0  0  0  0  0  0  0
    6.9819   -0.3202   20.9734 N   0  0  0  0  0  0  0  0  0  0  0  0
    6.2830    0.2424   19.8773 C   0  0  0  0  0  0  0  0  0  0  0  0
    6.6593   -0.0564   18.5953 C   0  0  0  0  0  0  0  0  0  0  0  0
    5.9804    0.3386   17.4901 N   0  0  0  0  0  0  0  0  0  0  0  0
    4.8828    1.0342   17.6614 C   0  0  0  0  0  0  0  0  0  0  0  0
    4.3842    1.4310   18.9351 C   0  0  0  0  0  0  0  0  0  0  0  0
    3.2123    2.2219   19.0891 C   0  0  0  0  0  0  0  0  0  0  0  0
    2.7701    2.5695   20.3353 C   0  0  0  0  0  0  0  0  0  0  0  0
    3.4736    2.1470   21.4857 C   0  0  0  0  0  0  0  0  0  0  0  0
    4.6133    1.3909   21.3632 C   0  0  0  0  0  0  0  0  0  0  0  0
    5.0972    1.0168   20.0828 C   0  0  0  0  0  0  0  0  0  0  0  0
    5.1702    1.1093   22.2504 H   0  0  0  0  0  0  0  0  0  0  0  0
    3.1251    2.4323   22.4727 H   0  0  0  0  0  0  0  0  0  0  0  0
    1.8792    3.1815   20.4500 H   0  0  0  0  0  0  0  0  0  0  0  0
    2.6815    2.5489   18.1983 H   0  0  0  0  0  0  0  0  0  0  0  0
    4.3315    1.3219   16.7645 H   0  0  0  0  0  0  0  0  0  0  0  0
    7.5506   -0.6582   18.4261 H   0  0  0  0  0  0  0  0  0  0  0  0
    6.4775   -1.5101   21.6175 C   0  0  0  0  0  0  0  0  0  0  0  0
    7.6318   -1.8946   22.5492 C   0  0  2  0  0  0  0  0  0  0  0  0
    7.2041   -2.7357   23.7625 C   0  0  0  0  0  0  0  0  0  0  0  0
    6.7536   -4.0557   23.3557 N   0  0  0  0  0  0  0  0  0  0  0  0
    7.5617   -5.0741   22.9775 C   0  0  0  0  0  0  0  0  0  0  0  0
    6.8013   -5.9319   22.2168 C   0  0  0  0  0  0  0  0  0  0  0  0
    5.5103   -5.3564   22.2361 C   0  0  0  0  0  0  0  0  0  0  0  0
    5.4973   -4.2114   22.9070 N   0  0  0  0  0  0  0  0  0  0  0  0
    4.5952   -5.7028   21.7743 H   0  0  0  0  0  0  0  0  0  0  0  0
    7.1379   -6.8193   21.6962 H   0  0  0  0  0  0  0  0  0  0  0  0
    8.5976   -5.1007   23.2957 H   0  0  0  0  0  0  0  0  0  0  0  0
    8.0482   -2.8646   24.4493 H   0  0  0  0  0  0  0  0  0  0  0  0
    6.3693   -2.2690   24.2921 H   0  0  0  0  0  0  0  0  0  0  0  0
    8.3162   -2.5058   21.9544 H   0  0  0  0  0  0  0  0  0  0  0  0
    6.2572   -2.2806   20.8714 H   0  0  0  0  0  0  0  0  0  0  0  0
    5.5383   -1.3220   22.1629 H   0  0  0  0  0  0  0  0  0  0  0  0
    9.8778   -0.8011   23.1430 C   0  0  0  0  0  0  0  0  0  0  0  0
   10.6517   -1.7793   22.4868 C   0  0  0  0  0  0  0  0  0  0  0  0
   11.9886   -1.9514   22.8225 C   0  0  0  0  0  0  0  0  0  0  0  0
   12.9706   -3.0905   21.9349 Cl  0  0  0  0  0  0  0  0  0  0  0  0
   12.6144   -1.1726   23.7958 C   0  0  0  0  0  0  0  0  0  0  0  0
   11.8863   -0.1548   24.3749 C   0  0  0  0  0  0  0  0  0  0  0  0
   10.5501    0.0515   24.0275 C   0  0  0  0  0  0  0  0  0  0  0  0
    9.9001    1.3220   24.4786 C   0  0  0  0  0  0  0  0  0  0  0  0
   10.5475    2.3213   24.7695 O   0  0  0  0  0  0  0  0  0  0  0  0
   12.3526    0.5493   25.0575 H   0  0  0  0  0  0  0  0  0  0  0  0
   13.6582   -1.3468   24.0490 H   0  0  0  0  0  0  0  0  0  0  0  0
   10.2386   -2.3922   21.6937 H   0  0  0  0  0  0  0  0  0  0  0  0
    6.7675    0.4963   23.8479 H   0  0  0  0  0  0  0  0  0  0  0  0
    7.6746   -0.5688   24.9225 H   0  0  0  0  0  0  0  0  0  0  0  0
    7.0124    2.2050   25.6534 H   0  0  0  0  0  0  0  0  0  0  0  0
    8.5243    3.1191   25.5101 H   0  0  0  0  0  0  0  0  0  0  0  0
    8.9935    4.1211   23.4405 H   0  0  0  0  0  0  0  0  0  0  0  0
    8.3160    5.6600   21.7854 H   0  0  0  0  0  0  0  0  0  0  0  0
    7.0093    4.5340   21.3843 H   0  0  0  0  0  0  0  0  0  0  0  0
    6.7686    5.7267   22.6608 H   0  0  0  0  0  0  0  0  0  0  0  0
  1  2  1  0
  2  3  1  0
  3  4  2  0
  3  5  1  0
  5  6  1  0
  6  7  1  0
  8  7  1  1
  8  9  1  0
  9 10  2  0
  9 11  1  0
 11 12  1  0
 12 13  2  0
 13 14  1  0
 14 15  2  0
 15 16  1  0
 16 17  2  0
 17 18  1  0
 18 19  2  0
 19 20  1  0
 20 21  2  0
 20 22  1  0
 19 23  1  0
 18 24  1  0
 17 25  1  0
 15 26  1  0
 13 27  1  0
 11 28  1  0
 28 29  1  0
 29 30  1  0
 30 31  1  0
 31 32  1  0
 32 33  2  0
 33 34  1  0
 34 35  2  0
 34 36  1  0
 33 37  1  0
 32 38  1  0
 30 39  1  0
 30 40  1  0
 29 41  1  6
 28 42  1  0
 28 43  1  0
  8 44  1  0
 44 45  2  0
 45 46  1  0
 46 47  1  0
 46 48  2  0
 48 49  1  0
 49 50  2  0
 50 51  1  0
 51 52  2  0
 49 53  1  0
 48 54  1  0
 45 55  1  0
  7 56  1  0
  7 57  1  0
  5 58  1  0
  5 59  1  0
  2 60  1  0
  1 61  1  0
  1 62  1  0
  1 63  1  0
 51  6  1  0
 29  8  1  0
 35 31  1  0
 50 44  1  0
 21 12  1  0
 21 16  1  0
M  END
>  <cnnaffinities>  (79) 
[7.42948, 7.66155]

>  <score>  (79) 
7.42948

>  <index>  (79) 
87

>  <Smiles>  (79) 
C(N(C(=O)C(N1C([C@@]2(C(=O)N(c3c(nc(c4c(c(c(c(c34)[H])[H])[H])[H])[H])[H])C([C@@]2(C(n2c(c(c(n2)[H])[H])[H])([H])[H])[H])([H])[H])c2c(c(Cl)c(c(c2C1=O)[H])[H])[H])([H])[H])([H])[H])[H])([H])([H])[H]

>  <h>  (79) 
<NA>

>  <Training>  (79) 
True

>  <Success>  (79) 
True

>  <enamine_searched>  (79) 
False

>  <enamine_id>  (79) 
nan

$$$$

     RDKit          3D

 64 68  0  0  0  0  0  0  0  0999 V2000
    3.9232    0.6944   28.2573 C   0  0  0  0  0  0  0  0  0  0  0  0
    4.4130    0.7589   26.7963 C   0  0  0  0  0  0  0  0  0  0  0  0
    4.0369   -0.4803   25.9788 C   0  0  0  0  0  0  0  0  0  0  0  0
    2.8582   -0.6305   25.6904 O   0  0  0  0  0  0  0  0  0  0  0  0
    4.8845   -1.5808   25.9640 N   0  0  0  0  0  0  0  0  0  0  0  0
    4.4058   -2.8670   26.5012 C   0  0  0  0  0  0  0  0  0  0  0  0
    5.5685   -3.6128   27.1587 C   0  0  0  0  0  0  0  0  0  0  0  0
    6.6755   -3.8569   26.1384 C   0  0  0  0  0  0  0  0  0  0  0  0
    7.0192   -2.5996   25.3712 C   0  0  0  0  0  0  0  0  0  0  0  0
    8.2261   -2.5541   24.6618 C   0  0  0  0  0  0  0  0  0  0  0  0
    8.5425   -1.4554   23.8611 C   0  0  0  0  0  0  0  0  0  0  0  0
    7.6554   -0.3823   23.7614 C   0  0  0  0  0  0  0  0  0  0  0  0
    7.9860    0.6985   22.9404 N   0  0  0  0  0  0  0  0  0  0  0  0
    8.5142    1.9332   23.5363 C   0  0  0  0  0  0  0  0  0  0  0  0
    7.3761    2.8260   23.9677 C   0  0  0  0  0  0  0  0  0  0  0  0
    6.5752    3.4731   23.0131 C   0  0  0  0  0  0  0  0  0  0  0  0
    5.5134    4.2925   23.4133 C   0  0  0  0  0  0  0  0  0  0  0  0
    5.2538    4.4855   24.7745 C   0  0  0  0  0  0  0  0  0  0  0  0
    6.0543    3.8631   25.7384 C   0  0  0  0  0  0  0  0  0  0  0  0
    5.7107    4.1497   27.6004 Br  0  0  0  0  0  0  0  0  0  0  0  0
    7.1065    3.0337   25.3317 C   0  0  0  0  0  0  0  0  0  0  0  0
    7.7161    2.5542   26.0900 H   0  0  0  0  0  0  0  0  0  0  0  0
    4.4322    5.1234   25.0897 H   0  0  0  0  0  0  0  0  0  0  0  0
    4.8934    4.7800   22.6661 H   0  0  0  0  0  0  0  0  0  0  0  0
    6.7778    3.3389   21.9552 H   0  0  0  0  0  0  0  0  0  0  0  0
    9.1493    2.4774   22.8232 H   0  0  0  0  0  0  0  0  0  0  0  0
    9.1475    1.6888   24.3934 H   0  0  0  0  0  0  0  0  0  0  0  0
    7.8512    0.5971   21.5627 C   0  0  0  0  0  0  0  0  0  0  0  0
    8.3854    1.4393   20.8446 O   0  0  0  0  0  0  0  0  0  0  0  0
    6.9494   -0.4584   20.9043 C   0  0  0  0  0  0  0  0  0  0  0  0
    6.0894    0.0876   19.7629 C   0  0  0  0  0  0  0  0  0  0  0  0
    6.4311   -0.2196   18.4337 C   0  0  0  0  0  0  0  0  0  0  0  0
    5.7699    0.2671   17.3715 N   0  0  0  0  0  0  0  0  0  0  0  0
    4.7077    1.0534   17.5850 C   0  0  0  0  0  0  0  0  0  0  0  0
    4.2795    1.4207   18.8636 C   0  0  0  0  0  0  0  0  0  0  0  0
    3.1766    2.2711   19.0304 C   0  0  0  0  0  0  0  0  0  0  0  0
    2.7615    2.6352   20.3120 C   0  0  0  0  0  0  0  0  0  0  0  0
    3.4483    2.1570   21.4318 C   0  0  0  0  0  0  0  0  0  0  0  0
    4.5563    1.3136   21.2669 C   0  0  0  0  0  0  0  0  0  0  0  0
    4.9834    0.9326   19.9843 C   0  0  0  0  0  0  0  0  0  0  0  0
    5.0796    0.9494   22.1450 H   0  0  0  0  0  0  0  0  0  0  0  0
    3.1177    2.4419   22.4266 H   0  0  0  0  0  0  0  0  0  0  0  0
    1.9079    3.2932   20.4374 H   0  0  0  0  0  0  0  0  0  0  0  0
    2.6398    2.6582   18.1665 H   0  0  0  0  0  0  0  0  0  0  0  0
    4.1686    1.4207   16.7150 H   0  0  0  0  0  0  0  0  0  0  0  0
    7.2874   -0.8665   18.2611 H   0  0  0  0  0  0  0  0  0  0  0  0
    6.3033   -0.8918   21.6709 H   0  0  0  0  0  0  0  0  0  0  0  0
    7.5978   -1.2521   20.5291 H   0  0  0  0  0  0  0  0  0  0  0  0
    6.4593   -0.4121   24.4862 C   0  0  0  0  0  0  0  0  0  0  0  0
    6.1239   -1.5134   25.2980 C   0  0  0  0  0  0  0  0  0  0  0  0
    5.7725    0.4181   24.3937 H   0  0  0  0  0  0  0  0  0  0  0  0
    9.4836   -1.4295   23.3196 H   0  0  0  0  0  0  0  0  0  0  0  0
    8.9151   -3.3900   24.7233 H   0  0  0  0  0  0  0  0  0  0  0  0
    7.5621   -4.2540   26.6427 H   0  0  0  0  0  0  0  0  0  0  0  0
    6.3377   -4.6144   25.4294 H   0  0  0  0  0  0  0  0  0  0  0  0
    5.2258   -4.5677   27.5697 H   0  0  0  0  0  0  0  0  0  0  0  0
    5.9623   -3.0260   27.9909 H   0  0  0  0  0  0  0  0  0  0  0  0
    3.6293   -2.7141   27.2601 H   0  0  0  0  0  0  0  0  0  0  0  0
    3.9650   -3.4832   25.7110 H   0  0  0  0  0  0  0  0  0  0  0  0
    3.9781    1.6386   26.3191 H   0  0  0  0  0  0  0  0  0  0  0  0
    5.4960    0.8694   26.7836 H   0  0  0  0  0  0  0  0  0  0  0  0
    4.2299    1.5895   28.8102 H   0  0  0  0  0  0  0  0  0  0  0  0
    4.3406   -0.1761   28.7686 H   0  0  0  0  0  0  0  0  0  0  0  0
    2.8328    0.6276   28.3080 H   0  0  0  0  0  0  0  0  0  0  0  0
  1  2  1  0
  2  3  1  0
  3  4  2  0
  3  5  1  0
  5  6  1  0
  6  7  1  0
  7  8  1  0
  8  9  1  0
  9 10  2  0
 10 11  1  0
 11 12  2  0
 12 13  1  0
 13 14  1  0
 14 15  1  0
 15 16  2  0
 16 17  1  0
 17 18  2  0
 18 19  1  0
 19 20  1  0
 19 21  2  0
 21 22  1  0
 18 23  1  0
 17 24  1  0
 16 25  1  0
 14 26  1  0
 14 27  1  0
 13 28  1  0
 28 29  2  0
 28 30  1  0
 30 31  1  0
 31 32  2  0
 32 33  1  0
 33 34  2  0
 34 35  1  0
 35 36  2  0
 36 37  1  0
 37 38  2  0
 38 39  1  0
 39 40  2  0
 39 41  1  0
 38 42  1  0
 37 43  1  0
 36 44  1  0
 34 45  1  0
 32 46  1  0
 30 47  1  0
 30 48  1  0
 12 49  1  0
 49 50  2  0
 49 51  1  0
 11 52  1  0
 10 53  1  0
  8 54  1  0
  8 55  1  0
  7 56  1  0
  7 57  1  0
  6 58  1  0
  6 59  1  0
  2 60  1  0
  2 61  1  0
  1 62  1  0
  1 63  1  0
  1 64  1  0
 50  5  1  0
 50  9  1  0
 21 15  1  0
 40 31  1  0
 40 35  1  0
M  END
>  <cnnaffinities>  (80) 
[6.86837, 6.80646]

>  <score>  (80) 
6.86837

>  <index>  (80) 
88

>  <Smiles>  (80) 
C(C(C(=O)N1C(C(C(c2c(c(c(N(C(c3c(c(c(c(Br)c3[H])[H])[H])[H])([H])[H])C(=O)C(c3c(nc(c4c(c(c(c(c34)[H])[H])[H])[H])[H])[H])([H])[H])c(c12)[H])[H])[H])([H])[H])([H])[H])([H])[H])([H])[H])([H])([H])[H]

>  <h>  (80) 
<NA>

>  <Training>  (80) 
True

>  <Success>  (80) 
True

>  <enamine_searched>  (80) 
False

>  <enamine_id>  (80) 
nan

$$$$

     RDKit          3D

 38 40  0  0  0  0  0  0  0  0999 V2000
    8.3508    1.4860   20.7799 O   0  0  0  0  0  0  0  0  0  0  0  0
    7.8643    0.6539   21.5236 C   0  0  0  0  0  0  0  0  0  0  0  0
    6.9452   -0.4394   20.9217 C   0  0  0  0  0  0  0  0  0  0  0  0
    6.1124    0.0882   19.7731 C   0  0  0  0  0  0  0  0  0  0  0  0
    6.4308   -0.2002   18.4725 C   0  0  0  0  0  0  0  0  0  0  0  0
    5.7717    0.2688   17.3794 N   0  0  0  0  0  0  0  0  0  0  0  0
    4.7315    1.0343   17.5827 C   0  0  0  0  0  0  0  0  0  0  0  0
    4.2828    1.4250   18.8705 C   0  0  0  0  0  0  0  0  0  0  0  0
    3.1688    2.2836   19.0449 C   0  0  0  0  0  0  0  0  0  0  0  0
    2.7650    2.6497   20.2990 C   0  0  0  0  0  0  0  0  0  0  0  0
    3.4637    2.1695   21.4302 C   0  0  0  0  0  0  0  0  0  0  0  0
    4.5475    1.3393   21.2873 C   0  0  0  0  0  0  0  0  0  0  0  0
    4.9920    0.9431   19.9998 C   0  0  0  0  0  0  0  0  0  0  0  0
    5.0669    0.9834   22.1743 H   0  0  0  0  0  0  0  0  0  0  0  0
    3.1365    2.4662   22.4221 H   0  0  0  0  0  0  0  0  0  0  0  0
    1.9134    3.3116   20.4356 H   0  0  0  0  0  0  0  0  0  0  0  0
    2.6479    2.6509   18.1630 H   0  0  0  0  0  0  0  0  0  0  0  0
    4.1977    1.3966   16.7004 H   0  0  0  0  0  0  0  0  0  0  0  0
    7.2738   -0.8539   18.2435 H   0  0  0  0  0  0  0  0  0  0  0  0
    7.6054   -1.2269   20.5345 H   0  0  0  0  0  0  0  0  0  0  0  0
    6.2975   -0.9089   21.6721 H   0  0  0  0  0  0  0  0  0  0  0  0
    8.1248    0.6590   22.8822 N   0  0  0  0  0  0  0  0  0  0  0  0
    7.7899   -0.4484   23.7700 C   0  0  0  0  0  0  0  0  0  0  0  0
    6.3840   -0.4114   24.3315 C   0  0  0  0  0  0  0  0  0  0  0  0
    5.9181    0.5993   25.0591 C   0  0  0  0  0  0  0  0  0  0  0  0
    6.7343    1.8178   25.4351 C   0  0  0  0  0  0  0  0  0  0  0  0
    7.2796    2.6093   24.2345 C   0  0  0  0  0  0  0  0  0  0  0  0
    8.4557    1.9349   23.5198 C   0  0  0  0  0  0  0  0  0  0  0  0
    9.2412    1.7469   24.2592 H   0  0  0  0  0  0  0  0  0  0  0  0
    8.8724    2.5919   22.7536 H   0  0  0  0  0  0  0  0  0  0  0  0
    6.4739    2.7711   23.5106 H   0  0  0  0  0  0  0  0  0  0  0  0
    7.5902    3.6083   24.5735 H   0  0  0  0  0  0  0  0  0  0  0  0
    7.5841    1.5111   26.0604 H   0  0  0  0  0  0  0  0  0  0  0  0
    6.1212    2.4781   26.0583 H   0  0  0  0  0  0  0  0  0  0  0  0
    4.8724    0.5801   25.3666 H   0  0  0  0  0  0  0  0  0  0  0  0
    5.7328   -1.2623   24.1212 H   0  0  0  0  0  0  0  0  0  0  0  0
    8.5057   -0.4159   24.5991 H   0  0  0  0  0  0  0  0  0  0  0  0
    7.9801   -1.3886   23.2490 H   0  0  0  0  0  0  0  0  0  0  0  0
  1  2  2  0
  2  3  1  0
  3  4  1  0
  4  5  2  0
  5  6  1  0
  6  7  2  0
  7  8  1  0
  8  9  2  0
  9 10  1  0
 10 11  2  0
 11 12  1  0
 12 13  2  0
 12 14  1  0
 11 15  1  0
 10 16  1  0
  9 17  1  0
  7 18  1  0
  5 19  1  0
  3 20  1  0
  3 21  1  0
  2 22  1  0
 22 23  1  0
 23 24  1  0
 24 25  2  0
 25 26  1  0
 26 27  1  0
 27 28  1  0
 28 29  1  0
 28 30  1  0
 27 31  1  0
 27 32  1  0
 26 33  1  0
 26 34  1  0
 25 35  1  0
 24 36  1  0
 23 37  1  0
 23 38  1  0
 13  4  1  0
 28 22  1  0
 13  8  1  0
M  END
>  <cnnaffinities>  (81) 
[5.3099, 5.27431]

>  <score>  (81) 
5.3099

>  <index>  (81) 
89

>  <Smiles>  (81) 
O=C(C(c1c(nc(c2c(c(c(c(c12)[H])[H])[H])[H])[H])[H])([H])[H])N1C(C(=C(C(C(C1([H])[H])([H])[H])([H])[H])[H])[H])([H])[H]

>  <h>  (81) 
<NA>

>  <Training>  (81) 
True

>  <Success>  (81) 
True

>  <enamine_searched>  (81) 
False

>  <enamine_id>  (81) 
nan

$$$$

     RDKit          3D

 62 67  0  0  0  0  0  0  0  0999 V2000
    7.4053   -2.7678   23.6739 C   0  0  0  0  0  0  0  0  0  0  0  0
    7.8042   -1.9052   22.4812 C   0  0  1  0  0  0  0  0  0  0  0  0
    6.6845   -1.6385   21.4670 C   0  0  0  0  0  0  0  0  0  0  0  0
    7.0341   -0.3476   20.9030 N   0  0  0  0  0  0  0  0  0  0  0  0
    6.2486    0.1888   19.8426 C   0  0  0  0  0  0  0  0  0  0  0  0
    6.5347   -0.1664   18.5483 C   0  0  0  0  0  0  0  0  0  0  0  0
    5.8487    0.2577   17.4586 N   0  0  0  0  0  0  0  0  0  0  0  0
    4.8080    1.0242   17.6583 C   0  0  0  0  0  0  0  0  0  0  0  0
    4.3611    1.4300   18.9440 C   0  0  0  0  0  0  0  0  0  0  0  0
    3.2261    2.2694   19.0959 C   0  0  0  0  0  0  0  0  0  0  0  0
    2.7906    2.6228   20.3395 C   0  0  0  0  0  0  0  0  0  0  0  0
    3.4543    2.1369   21.4885 C   0  0  0  0  0  0  0  0  0  0  0  0
    4.5543    1.3177   21.3650 C   0  0  0  0  0  0  0  0  0  0  0  0
    5.0676    0.9736   20.0834 C   0  0  0  0  0  0  0  0  0  0  0  0
    5.0279    0.9312   22.2629 H   0  0  0  0  0  0  0  0  0  0  0  0
    3.0905    2.4150   22.4725 H   0  0  0  0  0  0  0  0  0  0  0  0
    1.9280    3.2746   20.4523 H   0  0  0  0  0  0  0  0  0  0  0  0
    2.7237    2.6201   18.1960 H   0  0  0  0  0  0  0  0  0  0  0  0
    4.2488    1.3601   16.7832 H   0  0  0  0  0  0  0  0  0  0  0  0
    7.3738   -0.8315   18.3491 H   0  0  0  0  0  0  0  0  0  0  0  0
    7.9922    0.3438   21.6245 C   0  0  0  0  0  0  0  0  0  0  0  0
    8.3874    1.4657   21.3717 O   0  0  0  0  0  0  0  0  0  0  0  0
    8.3760   -0.5162   22.8577 C   0  0  1  0  0  0  0  0  0  0  0  0
    7.6571    0.1102   24.0938 C   0  0  0  0  0  0  0  0  0  0  0  0
    8.2248    1.4019   24.4332 N   0  0  0  0  0  0  0  0  0  0  0  0
    7.3555    2.4565   24.9156 C   0  0  0  0  0  0  0  0  0  0  0  0
    6.7774    3.3057   23.7987 C   0  0  0  0  0  0  0  0  0  0  0  0
    7.8092    4.1891   23.1966 N   0  0  0  0  0  4  0  0  0  0  0  0
    7.3384    5.1455   22.0996 C   0  0  0  0  0  0  0  0  0  0  0  0
    7.8323    6.3941   22.8805 C   0  0  0  0  0  0  0  0  0  0  0  0
    8.2944    5.4144   23.9900 C   0  0  0  0  0  0  0  0  0  0  0  0
    7.7612    5.5098   24.9348 H   0  0  0  0  0  0  0  0  0  0  0  0
    9.3683    5.3342   24.1363 H   0  0  0  0  0  0  0  0  0  0  0  0
    8.6269    6.9702   22.3989 H   0  0  0  0  0  0  0  0  0  0  0  0
    7.0209    7.0531   23.1973 H   0  0  0  0  0  0  0  0  0  0  0  0
    6.2599    5.0873   21.9507 H   0  0  0  0  0  0  0  0  0  0  0  0
    7.8493    4.9179   21.1739 H   0  0  0  0  0  0  0  0  0  0  0  0
    8.6172    3.6305   22.8783 H   0  0  0  0  0  0  0  0  0  0  0  0
    5.9558    3.9139   24.1892 H   0  0  0  0  0  0  0  0  0  0  0  0
    6.3849    2.6855   22.9915 H   0  0  0  0  0  0  0  0  0  0  0  0
    7.9383    3.0835   25.5951 H   0  0  0  0  0  0  0  0  0  0  0  0
    6.5512    2.0041   25.5044 H   0  0  0  0  0  0  0  0  0  0  0  0
    9.5493    1.6581   24.3141 C   0  0  0  0  0  0  0  0  0  0  0  0
    9.9968    2.8023   24.4075 O   0  0  0  0  0  0  0  0  0  0  0  0
   10.3911    0.4443   24.0245 C   0  0  0  0  0  0  0  0  0  0  0  0
   11.7390    0.4323   24.3837 C   0  0  0  0  0  0  0  0  0  0  0  0
   12.6268   -0.4458   23.7843 C   0  0  0  0  0  0  0  0  0  0  0  0
   12.1110   -1.3738   22.8796 C   0  0  0  0  0  0  0  0  0  0  0  0
   13.1870   -2.4563   22.0351 Cl  0  0  0  0  0  0  0  0  0  0  0  0
   10.7569   -1.4684   22.6142 C   0  0  0  0  0  0  0  0  0  0  0  0
    9.8621   -0.5360   23.1672 C   0  0  0  0  0  0  0  0  0  0  0  0
   10.4356   -2.3192   22.0253 H   0  0  0  0  0  0  0  0  0  0  0  0
   13.6966   -0.4093   23.9779 H   0  0  0  0  0  0  0  0  0  0  0  0
   12.0826    1.1722   25.1008 H   0  0  0  0  0  0  0  0  0  0  0  0
    7.7403   -0.5627   24.9556 H   0  0  0  0  0  0  0  0  0  0  0  0
    6.5864    0.2437   23.8964 H   0  0  0  0  0  0  0  0  0  0  0  0
    6.6543   -2.3995   20.6779 H   0  0  0  0  0  0  0  0  0  0  0  0
    5.6881   -1.6161   21.9351 H   0  0  0  0  0  0  0  0  0  0  0  0
    8.5810   -2.4302   21.9194 H   0  0  0  0  0  0  0  0  0  0  0  0
    7.1363   -3.7858   23.3732 H   0  0  0  0  0  0  0  0  0  0  0  0
    8.2403   -2.8314   24.3813 H   0  0  0  0  0  0  0  0  0  0  0  0
    6.5517   -2.3277   24.2054 H   0  0  0  0  0  0  0  0  0  0  0  0
  1  2  1  0
  2  3  1  0
  3  4  1  0
  4  5  1  0
  5  6  2  0
  6  7  1  0
  7  8  2  0
  8  9  1  0
  9 10  2  0
 10 11  1  0
 11 12  2  0
 12 13  1  0
 13 14  2  0
 13 15  1  0
 12 16  1  0
 11 17  1  0
 10 18  1  0
  8 19  1  0
  6 20  1  0
  4 21  1  0
 21 22  2  0
 21 23  1  0
 23 24  1  1
 24 25  1  0
 25 26  1  0
 26 27  1  0
 27 28  1  0
 28 29  1  0
 29 30  1  0
 30 31  1  0
 31 32  1  0
 31 33  1  0
 30 34  1  0
 30 35  1  0
 29 36  1  0
 29 37  1  0
 28 38  1  0
 27 39  1  0
 27 40  1  0
 26 41  1  0
 26 42  1  0
 25 43  1  0
 43 44  2  0
 43 45  1  0
 45 46  2  0
 46 47  1  0
 47 48  2  0
 48 49  1  0
 48 50  1  0
 50 51  2  0
 50 52  1  0
 47 53  1  0
 46 54  1  0
 24 55  1  0
 24 56  1  0
  3 57  1  0
  3 58  1  0
  2 59  1  6
  1 60  1  0
  1 61  1  0
  1 62  1  0
 23  2  1  0
 31 28  1  0
 51 45  1  0
 14  5  1  0
 51 23  1  0
 14  9  1  0
M  CHG  1  28   1
M  END
>  <cnnaffinities>  (82) 
[7.2472, 7.24927, 7.26025]

>  <score>  (82) 
7.2472

>  <index>  (82) 
90

>  <Smiles>  (82) 
C([C@]1(C(N(c2c(nc(c3c(c(c(c(c23)[H])[H])[H])[H])[H])[H])C(=O)[C@]21C(N(C(C([N+]1(C(C(C1([H])[H])([H])[H])([H])[H])[H])([H])[H])([H])[H])C(=O)c1c(c(c(Cl)c(c21)[H])[H])[H])([H])[H])([H])[H])[H])([H])([H])[H]

>  <h>  (82) 
<NA>

>  <Training>  (82) 
True

>  <Success>  (82) 
True

>  <enamine_searched>  (82) 
False

>  <enamine_id>  (82) 
nan

$$$$

     RDKit          3D

 47 50  0  0  0  0  0  0  0  0999 V2000
    5.4536   -2.3175   21.0055 O   0  0  0  0  0  0  0  0  0  0  0  0
    6.1330   -1.5208   21.6216 C   0  0  0  0  0  0  0  0  0  0  0  0
    6.9612   -0.4589   20.9028 C   0  0  0  0  0  0  0  0  0  0  0  0
    6.1639    0.1248   19.7689 C   0  0  0  0  0  0  0  0  0  0  0  0
    6.4749   -0.1676   18.4694 C   0  0  0  0  0  0  0  0  0  0  0  0
    5.8075    0.2920   17.3779 N   0  0  0  0  0  0  0  0  0  0  0  0
    4.7625    1.0479   17.5995 C   0  0  0  0  0  0  0  0  0  0  0  0
    4.3070    1.4204   18.8919 C   0  0  0  0  0  0  0  0  0  0  0  0
    3.1780    2.2622   19.0610 C   0  0  0  0  0  0  0  0  0  0  0  0
    2.7565    2.6140   20.3126 C   0  0  0  0  0  0  0  0  0  0  0  0
    3.4449    2.1285   21.4448 C   0  0  0  0  0  0  0  0  0  0  0  0
    4.5410    1.3149   21.3086 C   0  0  0  0  0  0  0  0  0  0  0  0
    5.0182    0.9442   20.0168 C   0  0  0  0  0  0  0  0  0  0  0  0
    5.0522    0.9671   22.2024 H   0  0  0  0  0  0  0  0  0  0  0  0
    3.1054    2.4245   22.4337 H   0  0  0  0  0  0  0  0  0  0  0  0
    1.9000    3.2712   20.4396 H   0  0  0  0  0  0  0  0  0  0  0  0
    2.6665    2.6298   18.1754 H   0  0  0  0  0  0  0  0  0  0  0  0
    4.2162    1.4213   16.7328 H   0  0  0  0  0  0  0  0  0  0  0  0
    7.3231   -0.8226   18.2596 H   0  0  0  0  0  0  0  0  0  0  0  0
    7.2751    0.3189   21.6029 H   0  0  0  0  0  0  0  0  0  0  0  0
    7.8729   -0.9354   20.5199 H   0  0  0  0  0  0  0  0  0  0  0  0
    6.1391   -1.5185   23.0203 N   0  0  0  0  0  0  0  0  0  0  0  0
    5.0127   -2.1092   23.6410 C   0  0  0  0  0  0  0  0  0  0  0  0
    4.9733   -3.3955   23.9878 C   0  0  0  0  0  0  0  0  0  0  0  0
    6.1845   -4.1265   24.3408 C   0  0  0  0  0  0  0  0  0  0  0  0
    7.0419   -3.7015   25.2907 C   0  0  0  0  0  0  0  0  0  0  0  0
    7.0529   -2.3832   25.9077 C   0  0  0  0  0  0  0  0  0  0  0  0
    6.8627   -1.1799   25.3432 C   0  0  0  0  0  0  0  0  0  0  0  0
    7.1289   -0.8574   23.8931 C   0  0  1  0  0  0  0  0  0  0  0  0
    8.5794   -1.1675   23.5169 C   0  0  0  0  0  0  0  0  0  0  0  0
    8.9796   -2.3145   22.8393 C   0  0  0  0  0  0  0  0  0  0  0  0
   10.3144   -2.4906   22.4743 C   0  0  0  0  0  0  0  0  0  0  0  0
   11.2951   -1.6058   22.9134 C   0  0  0  0  0  0  0  0  0  0  0  0
   10.9071   -0.5105   23.6747 C   0  0  0  0  0  0  0  0  0  0  0  0
    9.5611   -0.2664   23.9200 C   0  0  0  0  0  0  0  0  0  0  0  0
    9.2791    0.6639   24.4103 H   0  0  0  0  0  0  0  0  0  0  0  0
   11.6600    0.1770   24.0509 H   0  0  0  0  0  0  0  0  0  0  0  0
   12.3528   -1.7571   22.7011 H   0  0  0  0  0  0  0  0  0  0  0  0
   10.5796   -3.3308   21.8466 H   0  0  0  0  0  0  0  0  0  0  0  0
    8.2510   -3.0893   22.6115 H   0  0  0  0  0  0  0  0  0  0  0  0
    7.0142    0.2319   23.8048 H   0  0  0  0  0  0  0  0  0  0  0  0
    6.6484   -0.3449   26.0039 H   0  0  0  0  0  0  0  0  0  0  0  0
    7.2352   -2.4098   26.9791 H   0  0  0  0  0  0  0  0  0  0  0  0
    7.6781   -4.4468   25.7589 H   0  0  0  0  0  0  0  0  0  0  0  0
    6.3611   -5.0801   23.8588 H   0  0  0  0  0  0  0  0  0  0  0  0
    4.0054   -3.8843   24.1429 H   0  0  0  0  0  0  0  0  0  0  0  0
    4.1990   -1.4170   23.8840 H   0  0  0  0  0  0  0  0  0  0  0  0
  1  2  2  0
  2  3  1  0
  3  4  1  0
  4  5  2  0
  5  6  1  0
  6  7  2  0
  7  8  1  0
  8  9  2  0
  9 10  1  0
 10 11  2  0
 11 12  1  0
 12 13  2  0
 12 14  1  0
 11 15  1  0
 10 16  1  0
  9 17  1  0
  7 18  1  0
  5 19  1  0
  3 20  1  0
  3 21  1  0
  2 22  1  0
 22 23  1  0
 23 24  2  3
 24 25  1  0
 25 26  2  3
 26 27  1  0
 27 28  2  3
 28 29  1  0
 29 30  1  0
 30 31  2  0
 31 32  1  0
 32 33  2  0
 33 34  1  0
 34 35  2  0
 35 36  1  0
 34 37  1  0
 33 38  1  0
 32 39  1  0
 31 40  1  0
 29 41  1  1
 28 42  1  0
 27 43  1  0
 26 44  1  0
 25 45  1  0
 24 46  1  0
 23 47  1  0
 13  4  1  0
 29 22  1  0
 35 30  1  0
 13  8  1  0
M  END
>  <cnnaffinities>  (83) 
[5.75752, 5.75717]

>  <score>  (83) 
5.75752

>  <index>  (83) 
92

>  <Smiles>  (83) 
O=C(C(c1c(nc(c2c(c(c(c(c12)[H])[H])[H])[H])[H])[H])([H])[H])N1C(=C(C(=C(C(=C([C@]1(c1c(c(c(c(c1[H])[H])[H])[H])[H])[H])[H])[H])[H])[H])[H])[H]

>  <h>  (83) 
<NA>

>  <Training>  (83) 
True

>  <Success>  (83) 
True

>  <enamine_searched>  (83) 
False

>  <enamine_id>  (83) 
nan

$$$$

     RDKit          3D

 58 62  0  0  0  0  0  0  0  0999 V2000
    8.2689    5.3739   24.0520 C   0  0  0  0  0  0  0  0  0  0  0  0
    7.9950    4.1378   23.2817 N   0  0  0  0  0  4  0  0  0  0  0  0
    6.8513    3.3514   23.8242 C   0  0  0  0  0  0  0  0  0  0  0  0
    7.2826    2.4110   24.9582 C   0  0  0  0  0  0  0  0  0  0  0  0
    8.1686    1.3548   24.4738 N   0  0  0  0  0  0  0  0  0  0  0  0
    7.6237    0.0564   24.1035 C   0  0  0  0  0  0  0  0  0  0  0  0
    8.3668   -0.5388   22.8656 C   0  0  2  0  0  0  0  0  0  0  0  0
    7.9972    0.3211   21.6262 C   0  0  0  0  0  0  0  0  0  0  0  0
    8.4258    1.4152   21.3127 O   0  0  0  0  0  0  0  0  0  0  0  0
    7.0274   -0.3592   20.9204 N   0  0  0  0  0  0  0  0  0  0  0  0
    6.2635    0.1967   19.8621 C   0  0  0  0  0  0  0  0  0  0  0  0
    6.5712   -0.1422   18.5702 C   0  0  0  0  0  0  0  0  0  0  0  0
    5.8888    0.2770   17.4780 N   0  0  0  0  0  0  0  0  0  0  0  0
    4.8383    1.0316   17.6734 C   0  0  0  0  0  0  0  0  0  0  0  0
    4.3845    1.4387   18.9578 C   0  0  0  0  0  0  0  0  0  0  0  0
    3.2417    2.2659   19.1080 C   0  0  0  0  0  0  0  0  0  0  0  0
    2.7981    2.6124   20.3525 C   0  0  0  0  0  0  0  0  0  0  0  0
    3.4655    2.1366   21.5031 C   0  0  0  0  0  0  0  0  0  0  0  0
    4.5774    1.3355   21.3807 C   0  0  0  0  0  0  0  0  0  0  0  0
    5.0896    0.9891   20.0992 C   0  0  0  0  0  0  0  0  0  0  0  0
    5.0625    0.9597   22.2761 H   0  0  0  0  0  0  0  0  0  0  0  0
    3.0935    2.4056   22.4870 H   0  0  0  0  0  0  0  0  0  0  0  0
    1.9265    3.2501   20.4645 H   0  0  0  0  0  0  0  0  0  0  0  0
    2.7368    2.6123   18.2094 H   0  0  0  0  0  0  0  0  0  0  0  0
    4.2796    1.3512   16.7920 H   0  0  0  0  0  0  0  0  0  0  0  0
    7.4202   -0.7961   18.3789 H   0  0  0  0  0  0  0  0  0  0  0  0
    6.6678   -1.6488   21.4711 C   0  0  0  0  0  0  0  0  0  0  0  0
    7.8047   -1.9296   22.4647 C   0  0  2  0  0  0  0  0  0  0  0  0
    7.4329   -2.8341   23.6360 C   0  0  0  0  0  0  0  0  0  0  0  0
    6.5733   -2.4353   24.1902 H   0  0  0  0  0  0  0  0  0  0  0  0
    7.1716   -3.8445   23.3034 H   0  0  0  0  0  0  0  0  0  0  0  0
    8.2769   -2.9026   24.3332 H   0  0  0  0  0  0  0  0  0  0  0  0
    8.5925   -2.4177   21.8841 H   0  0  0  0  0  0  0  0  0  0  0  0
    5.6769   -1.6228   21.9527 H   0  0  0  0  0  0  0  0  0  0  0  0
    6.6083   -2.3840   20.6603 H   0  0  0  0  0  0  0  0  0  0  0  0
    9.8524   -0.5555   23.1846 C   0  0  0  0  0  0  0  0  0  0  0  0
   10.7653   -1.4646   22.6208 C   0  0  0  0  0  0  0  0  0  0  0  0
   12.0939   -1.3601   22.9769 C   0  0  0  0  0  0  0  0  0  0  0  0
   12.9976   -2.1491   22.3667 F   0  0  0  0  0  0  0  0  0  0  0  0
   12.5817   -0.4723   23.9321 C   0  0  0  0  0  0  0  0  0  0  0  0
   11.6871    0.4276   24.4824 C   0  0  0  0  0  0  0  0  0  0  0  0
   10.3552    0.4188   24.0657 C   0  0  0  0  0  0  0  0  0  0  0  0
    9.4942    1.6036   24.3620 C   0  0  0  0  0  0  0  0  0  0  0  0
    9.9545    2.7511   24.4499 O   0  0  0  0  0  0  0  0  0  0  0  0
   11.9969    1.1875   25.1904 H   0  0  0  0  0  0  0  0  0  0  0  0
   13.6341   -0.5344   24.1883 H   0  0  0  0  0  0  0  0  0  0  0  0
   10.4904   -2.2055   21.8685 H   0  0  0  0  0  0  0  0  0  0  0  0
    7.7124   -0.6424   24.9458 H   0  0  0  0  0  0  0  0  0  0  0  0
    6.5536    0.1747   23.8926 H   0  0  0  0  0  0  0  0  0  0  0  0
    6.4035    1.9530   25.4278 H   0  0  0  0  0  0  0  0  0  0  0  0
    7.8115    2.9608   25.7476 H   0  0  0  0  0  0  0  0  0  0  0  0
    6.0739    4.0420   24.1717 H   0  0  0  0  0  0  0  0  0  0  0  0
    6.4309    2.7597   23.0079 H   0  0  0  0  0  0  0  0  0  0  0  0
    8.8569    3.5716   23.3672 H   0  0  0  0  0  0  0  0  0  0  0  0
    7.8554    4.3283   22.2701 H   0  0  0  0  0  0  0  0  0  0  0  0
    8.8292    5.1141   24.9551 H   0  0  0  0  0  0  0  0  0  0  0  0
    8.8664    6.0717   23.4625 H   0  0  0  0  0  0  0  0  0  0  0  0
    7.3346    5.8615   24.3433 H   0  0  0  0  0  0  0  0  0  0  0  0
  1  2  1  0
  2  3  1  0
  3  4  1  0
  4  5  1  0
  5  6  1  0
  7  6  1  1
  7  8  1  0
  8  9  2  0
  8 10  1  0
 10 11  1  0
 11 12  2  0
 12 13  1  0
 13 14  2  0
 14 15  1  0
 15 16  2  0
 16 17  1  0
 17 18  2  0
 18 19  1  0
 19 20  2  0
 19 21  1  0
 18 22  1  0
 17 23  1  0
 16 24  1  0
 14 25  1  0
 12 26  1  0
 10 27  1  0
 27 28  1  0
 28 29  1  0
 29 30  1  0
 29 31  1  0
 29 32  1  0
 28 33  1  6
 27 34  1  0
 27 35  1  0
  7 36  1  0
 36 37  2  0
 37 38  1  0
 38 39  1  0
 38 40  2  0
 40 41  1  0
 41 42  2  0
 42 43  1  0
 43 44  2  0
 41 45  1  0
 40 46  1  0
 37 47  1  0
  6 48  1  0
  6 49  1  0
  4 50  1  0
  4 51  1  0
  3 52  1  0
  3 53  1  0
  2 54  1  0
  2 55  1  0
  1 56  1  0
  1 57  1  0
  1 58  1  0
 43  5  1  0
 28  7  1  0
 42 36  1  0
 20 11  1  0
 20 15  1  0
M  CHG  1   2   1
M  END
>  <cnnaffinities>  (84) 
[6.92503]

>  <score>  (84) 
6.92503

>  <index>  (84) 
93

>  <Smiles>  (84) 
C([N+](C(C(N1C([C@@]2(C(=O)N(c3c(nc(c4c(c(c(c(c34)[H])[H])[H])[H])[H])[H])C([C@@]2(C([H])([H])[H])[H])([H])[H])c2c(c(F)c(c(c2C1=O)[H])[H])[H])([H])[H])([H])[H])([H])[H])([H])[H])([H])([H])[H]

>  <h>  (84) 
<NA>

>  <Training>  (84) 
True

>  <Success>  (84) 
True

>  <enamine_searched>  (84) 
False

>  <enamine_id>  (84) 
nan

$$$$

     RDKit          3D

 65 69  0  0  0  0  0  0  0  0999 V2000
    1.5343   -8.8209   24.8136 C   0  0  0  0  0  0  0  0  0  0  0  0
    2.7817   -8.5069   23.9800 C   0  0  0  0  0  0  0  0  0  0  0  0
    2.6897   -7.1270   23.3591 C   0  0  0  0  0  0  0  0  0  0  0  0
    1.9474   -6.8125   22.4624 O   0  0  0  0  0  0  0  0  0  0  0  0
    3.5931   -6.1244   23.9277 N   0  0  2  0  0  4  0  0  0  0  0  0
    2.8847   -4.9518   24.6259 C   0  0  0  0  0  0  0  0  0  0  0  0
    3.9828   -4.2285   25.3702 C   0  0  0  0  0  0  0  0  0  0  0  0
    4.9181   -3.5460   24.3848 C   0  0  0  0  0  0  0  0  0  0  0  0
    5.2715   -4.4163   23.2009 C   0  0  0  0  0  0  0  0  0  0  0  0
    6.2803   -4.0148   22.3142 C   0  0  0  0  0  0  0  0  0  0  0  0
    6.7783   -2.6670   22.3123 N   0  0  0  0  0  0  0  0  0  0  0  0
    8.1289   -2.4518   22.8605 C   0  0  0  0  0  0  0  0  0  0  0  0
    8.3797   -3.1389   24.2070 C   0  0  0  0  0  0  0  0  0  0  0  0
    8.7968   -4.4752   24.3004 C   0  0  0  0  0  0  0  0  0  0  0  0
    9.0529   -5.0639   25.5374 C   0  0  0  0  0  0  0  0  0  0  0  0
    8.8540   -4.3616   26.7193 C   0  0  0  0  0  0  0  0  0  0  0  0
    8.3549   -3.0693   26.6306 C   0  0  0  0  0  0  0  0  0  0  0  0
    7.8890   -2.2673   28.1089 Cl  0  0  0  0  0  0  0  0  0  0  0  0
    8.1634   -2.4374   25.4003 C   0  0  0  0  0  0  0  0  0  0  0  0
    7.7922   -1.4136   25.3887 H   0  0  0  0  0  0  0  0  0  0  0  0
    9.0318   -4.8119   27.6963 H   0  0  0  0  0  0  0  0  0  0  0  0
    9.3950   -6.0975   25.5808 H   0  0  0  0  0  0  0  0  0  0  0  0
    8.8570   -5.1053   23.4146 H   0  0  0  0  0  0  0  0  0  0  0  0
    8.2614   -1.3738   23.0000 H   0  0  0  0  0  0  0  0  0  0  0  0
    8.8946   -2.7639   22.1308 H   0  0  0  0  0  0  0  0  0  0  0  0
    6.1609   -1.8179   21.3879 C   0  0  0  0  0  0  0  0  0  0  0  0
    5.0719   -2.0906   20.9251 O   0  0  0  0  0  0  0  0  0  0  0  0
    6.8878   -0.5268   20.9508 C   0  0  0  0  0  0  0  0  0  0  0  0
    6.1604    0.1456   19.8142 C   0  0  0  0  0  0  0  0  0  0  0  0
    6.5312   -0.0816   18.5141 C   0  0  0  0  0  0  0  0  0  0  0  0
    5.8917    0.3976   17.4135 N   0  0  0  0  0  0  0  0  0  0  0  0
    4.8192    1.1231   17.6151 C   0  0  0  0  0  0  0  0  0  0  0  0
    4.3210    1.4566   18.9025 C   0  0  0  0  0  0  0  0  0  0  0  0
    3.1782    2.2788   19.0732 C   0  0  0  0  0  0  0  0  0  0  0  0
    2.7362    2.5956   20.3293 C   0  0  0  0  0  0  0  0  0  0  0  0
    3.4036    2.0844   21.4647 C   0  0  0  0  0  0  0  0  0  0  0  0
    4.5021    1.2727   21.3250 C   0  0  0  0  0  0  0  0  0  0  0  0
    5.0043    0.9536   20.0355 C   0  0  0  0  0  0  0  0  0  0  0  0
    4.9918    0.8677   22.2051 H   0  0  0  0  0  0  0  0  0  0  0  0
    3.0467    2.3441   22.4572 H   0  0  0  0  0  0  0  0  0  0  0  0
    1.8766    3.2471   20.4606 H   0  0  0  0  0  0  0  0  0  0  0  0
    2.6760    2.6633   18.1876 H   0  0  0  0  0  0  0  0  0  0  0  0
    4.2834    1.4862   16.7351 H   0  0  0  0  0  0  0  0  0  0  0  0
    7.3977   -0.7072   18.2961 H   0  0  0  0  0  0  0  0  0  0  0  0
    6.9935    0.1482   21.8104 H   0  0  0  0  0  0  0  0  0  0  0  0
    7.9029   -0.7909   20.6280 H   0  0  0  0  0  0  0  0  0  0  0  0
    6.8657   -4.9449   21.4697 C   0  0  0  0  0  0  0  0  0  0  0  0
    6.3368   -6.2241   21.3362 C   0  0  0  0  0  0  0  0  0  0  0  0
    5.2073   -6.5711   22.0642 C   0  0  0  0  0  0  0  0  0  0  0  0
    4.6833   -5.6573   22.9804 C   0  0  0  0  0  0  0  0  0  0  0  0
    4.7409   -7.5418   21.9306 H   0  0  0  0  0  0  0  0  0  0  0  0
    6.8164   -6.9443   20.6837 H   0  0  0  0  0  0  0  0  0  0  0  0
    7.7473   -4.6540   20.9220 H   0  0  0  0  0  0  0  0  0  0  0  0
    5.8282   -3.2342   24.9024 H   0  0  0  0  0  0  0  0  0  0  0  0
    4.4788   -2.6327   23.9788 H   0  0  0  0  0  0  0  0  0  0  0  0
    4.5387   -4.9711   25.9630 H   0  0  0  0  0  0  0  0  0  0  0  0
    3.5892   -3.4988   26.0805 H   0  0  0  0  0  0  0  0  0  0  0  0
    2.4117   -4.3377   23.8585 H   0  0  0  0  0  0  0  0  0  0  0  0
    2.1077   -5.3380   25.2890 H   0  0  0  0  0  0  0  0  0  0  0  0
    4.1017   -6.6053   24.7113 H   0  0  0  0  0  0  0  0  0  0  0  0
    3.6871   -8.5563   24.5994 H   0  0  0  0  0  0  0  0  0  0  0  0
    2.8963   -9.2282   23.1657 H   0  0  0  0  0  0  0  0  0  0  0  0
    0.6408   -8.7969   24.1825 H   0  0  0  0  0  0  0  0  0  0  0  0
    1.4115   -8.0811   25.6160 H   0  0  0  0  0  0  0  0  0  0  0  0
    1.6131   -9.8166   25.2634 H   0  0  0  0  0  0  0  0  0  0  0  0
  1  2  1  0
  2  3  1  0
  3  4  2  0
  3  5  1  0
  5  6  1  0
  6  7  1  0
  7  8  1  0
  8  9  1  0
  9 10  2  0
 10 11  1  0
 11 12  1  0
 12 13  1  0
 13 14  2  0
 14 15  1  0
 15 16  2  0
 16 17  1  0
 17 18  1  0
 17 19  2  0
 19 20  1  0
 16 21  1  0
 15 22  1  0
 14 23  1  0
 12 24  1  0
 12 25  1  0
 11 26  1  0
 26 27  2  0
 26 28  1  0
 28 29  1  0
 29 30  2  0
 30 31  1  0
 31 32  2  0
 32 33  1  0
 33 34  2  0
 34 35  1  0
 35 36  2  0
 36 37  1  0
 37 38  2  0
 37 39  1  0
 36 40  1  0
 35 41  1  0
 34 42  1  0
 32 43  1  0
 30 44  1  0
 28 45  1  0
 28 46  1  0
 10 47  1  0
 47 48  2  0
 48 49  1  0
 49 50  2  0
 49 51  1  0
 48 52  1  0
 47 53  1  0
  8 54  1  0
  8 55  1  0
  7 56  1  0
  7 57  1  0
  6 58  1  0
  6 59  1  0
  5 60  1  1
  2 61  1  0
  2 62  1  0
  1 63  1  0
  1 64  1  0
  1 65  1  0
 50  5  1  0
 50  9  1  0
 19 13  1  0
 38 29  1  0
 38 33  1  0
M  CHG  1   5   1
M  END
>  <cnnaffinities>  (85) 
[6.45577]

>  <score>  (85) 
6.45577

>  <index>  (85) 
94

>  <Smiles>  (85) 
C(C(C(=O)[N@@+]1(C(C(C(c2c(N(C(c3c(c(c(c(Cl)c3[H])[H])[H])[H])([H])[H])C(=O)C(c3c(nc(c4c(c(c(c(c34)[H])[H])[H])[H])[H])[H])([H])[H])c(c(c(c12)[H])[H])[H])([H])[H])([H])[H])([H])[H])[H])([H])[H])([H])([H])[H]

>  <h>  (85) 
<NA>

>  <Training>  (85) 
True

>  <Success>  (85) 
True

>  <enamine_searched>  (85) 
False

>  <enamine_id>  (85) 
nan

$$$$

     RDKit          3D

 67 71  0  0  0  0  0  0  0  0999 V2000
    4.6772   -0.5912   27.8066 C   0  0  0  0  0  0  0  0  0  0  0  0
    5.0907   -0.0377   26.5289 N   0  0  0  0  0  0  0  0  0  0  0  0
    5.8883    1.0736   26.5308 C   0  0  0  0  0  0  0  0  0  0  0  0
    6.2216    1.6201   27.5687 O   0  0  0  0  0  0  0  0  0  0  0  0
    6.3040    1.6411   25.1663 C   0  0  0  0  0  0  0  0  0  0  0  0
    7.4656    1.0206   24.5657 N   0  0  0  0  0  0  0  0  0  0  0  0
    7.2878   -0.2762   23.9491 C   0  0  0  0  0  0  0  0  0  0  0  0
    8.2768   -0.5136   22.7764 C   0  0  2  0  0  0  0  0  0  0  0  0
    7.8766    0.4331   21.6087 C   0  0  0  0  0  0  0  0  0  0  0  0
    8.2017    1.5839   21.4357 O   0  0  0  0  0  0  0  0  0  0  0  0
    7.0212   -0.2849   20.7820 N   0  0  0  0  0  0  0  0  0  0  0  0
    6.2297    0.2745   19.7482 C   0  0  0  0  0  0  0  0  0  0  0  0
    6.5295   -0.0418   18.4481 C   0  0  0  0  0  0  0  0  0  0  0  0
    5.8298    0.3874   17.3730 N   0  0  0  0  0  0  0  0  0  0  0  0
    4.7674    1.1223   17.5848 C   0  0  0  0  0  0  0  0  0  0  0  0
    4.3226    1.5081   18.8784 C   0  0  0  0  0  0  0  0  0  0  0  0
    3.1634    2.3090   19.0585 C   0  0  0  0  0  0  0  0  0  0  0  0
    2.7184    2.6147   20.3149 C   0  0  0  0  0  0  0  0  0  0  0  0
    3.4099    2.1266   21.4470 C   0  0  0  0  0  0  0  0  0  0  0  0
    4.5455    1.3679   21.2967 C   0  0  0  0  0  0  0  0  0  0  0  0
    5.0505    1.0557   20.0044 C   0  0  0  0  0  0  0  0  0  0  0  0
    5.0615    0.9857   22.1734 H   0  0  0  0  0  0  0  0  0  0  0  0
    3.0390    2.3519   22.4426 H   0  0  0  0  0  0  0  0  0  0  0  0
    1.8332    3.2318   20.4521 H   0  0  0  0  0  0  0  0  0  0  0  0
    2.6390    2.6648   18.1753 H   0  0  0  0  0  0  0  0  0  0  0  0
    4.1859    1.4347   16.7144 H   0  0  0  0  0  0  0  0  0  0  0  0
    7.3864   -0.6793   18.2282 H   0  0  0  0  0  0  0  0  0  0  0  0
    6.8568   -1.6781   21.1637 C   0  0  0  0  0  0  0  0  0  0  0  0
    8.0463   -1.8903   22.1021 C   0  0  2  0  0  0  0  0  0  0  0  0
    8.0013   -3.0777   23.0586 C   0  0  0  0  0  0  0  0  0  0  0  0
    6.3920   -3.6038   23.6269 S   0  0  0  0  0  0  0  0  0  0  0  0
    5.4934   -2.4700   23.8061 O   0  0  0  0  0  0  0  0  0  0  0  0
    6.6422   -4.4634   24.7706 O   0  0  0  0  0  0  0  0  0  0  0  0
    5.7842   -4.4807   22.3146 N   0  0  0  0  0  0  0  0  0  0  0  0
    4.4328   -4.9650   22.6039 C   0  0  0  0  0  0  0  0  0  0  0  0
    3.8705   -4.1553   23.0655 H   0  0  0  0  0  0  0  0  0  0  0  0
    4.4212   -5.8342   23.2771 H   0  0  0  0  0  0  0  0  0  0  0  0
    3.9600   -5.2245   21.6534 H   0  0  0  0  0  0  0  0  0  0  0  0
    6.6443   -5.4910   21.7007 C   0  0  0  0  0  0  0  0  0  0  0  0
    7.0432   -6.2303   22.4088 H   0  0  0  0  0  0  0  0  0  0  0  0
    7.4687   -5.0249   21.1557 H   0  0  0  0  0  0  0  0  0  0  0  0
    6.0433   -6.0088   20.9496 H   0  0  0  0  0  0  0  0  0  0  0  0
    8.4476   -3.9778   22.6418 H   0  0  0  0  0  0  0  0  0  0  0  0
    8.5745   -2.8680   23.9705 H   0  0  0  0  0  0  0  0  0  0  0  0
    8.9134   -2.0352   21.4448 H   0  0  0  0  0  0  0  0  0  0  0  0
    5.8857   -1.8410   21.6497 H   0  0  0  0  0  0  0  0  0  0  0  0
    6.9010   -2.3217   20.2832 H   0  0  0  0  0  0  0  0  0  0  0  0
    9.6631   -0.3033   23.3533 C   0  0  0  0  0  0  0  0  0  0  0  0
   10.7692   -1.1160   23.0456 C   0  0  0  0  0  0  0  0  0  0  0  0
   11.9946   -0.8375   23.6123 C   0  0  0  0  0  0  0  0  0  0  0  0
   13.0488   -1.6139   23.2921 F   0  0  0  0  0  0  0  0  0  0  0  0
   12.2071    0.2185   24.4859 C   0  0  0  0  0  0  0  0  0  0  0  0
   11.1241    1.0249   24.7813 C   0  0  0  0  0  0  0  0  0  0  0  0
    9.8567    0.7396   24.2738 C   0  0  0  0  0  0  0  0  0  0  0  0
    8.7044    1.5718   24.7692 C   0  0  0  0  0  0  0  0  0  0  0  0
    8.8569    2.6467   25.3253 O   0  0  0  0  0  0  0  0  0  0  0  0
   11.2099    1.8750   25.4361 H   0  0  0  0  0  0  0  0  0  0  0  0
   13.2003    0.3643   24.8992 H   0  0  0  0  0  0  0  0  0  0  0  0
   10.6934   -1.9890   22.4076 H   0  0  0  0  0  0  0  0  0  0  0  0
    7.4130   -1.0692   24.6984 H   0  0  0  0  0  0  0  0  0  0  0  0
    6.2720   -0.3250   23.5530 H   0  0  0  0  0  0  0  0  0  0  0  0
    5.4766    1.5415   24.4526 H   0  0  0  0  0  0  0  0  0  0  0  0
    6.5591    2.6923   25.3103 H   0  0  0  0  0  0  0  0  0  0  0  0
    4.9961   -0.6237   25.7061 H   0  0  0  0  0  0  0  0  0  0  0  0
    4.1652    0.1659   28.4078 H   0  0  0  0  0  0  0  0  0  0  0  0
    3.9874   -1.4175   27.6267 H   0  0  0  0  0  0  0  0  0  0  0  0
    5.5341   -0.9494   28.3879 H   0  0  0  0  0  0  0  0  0  0  0  0
  1  2  1  0
  2  3  1  0
  3  4  2  0
  3  5  1  0
  5  6  1  0
  6  7  1  0
  8  7  1  1
  8  9  1  0
  9 10  2  0
  9 11  1  0
 11 12  1  0
 12 13  2  0
 13 14  1  0
 14 15  2  0
 15 16  1  0
 16 17  2  0
 17 18  1  0
 18 19  2  0
 19 20  1  0
 20 21  2  0
 20 22  1  0
 19 23  1  0
 18 24  1  0
 17 25  1  0
 15 26  1  0
 13 27  1  0
 11 28  1  0
 28 29  1  0
 29 30  1  0
 30 31  1  0
 31 32  2  0
 31 33  2  0
 31 34  1  0
 34 35  1  0
 35 36  1  0
 35 37  1  0
 35 38  1  0
 34 39  1  0
 39 40  1  0
 39 41  1  0
 39 42  1  0
 30 43  1  0
 30 44  1  0
 29 45  1  6
 28 46  1  0
 28 47  1  0
  8 48  1  0
 48 49  2  0
 49 50  1  0
 50 51  1  0
 50 52  2  0
 52 53  1  0
 53 54  2  0
 54 55  1  0
 55 56  2  0
 53 57  1  0
 52 58  1  0
 49 59  1  0
  7 60  1  0
  7 61  1  0
  5 62  1  0
  5 63  1  0
  2 64  1  0
  1 65  1  0
  1 66  1  0
  1 67  1  0
 55  6  1  0
 29  8  1  0
 54 48  1  0
 21 12  1  0
 21 16  1  0
M  END
>  <cnnaffinities>  (86) 
[7.04658, 7.23685]

>  <score>  (86) 
7.04658

>  <index>  (86) 
95

>  <Smiles>  (86) 
C(N(C(=O)C(N1C([C@@]2(C(=O)N(c3c(nc(c4c(c(c(c(c34)[H])[H])[H])[H])[H])[H])C([C@@]2(C(S(=O)(=O)N(C([H])([H])[H])C([H])([H])[H])([H])[H])[H])([H])[H])c2c(c(F)c(c(c2C1=O)[H])[H])[H])([H])[H])([H])[H])[H])([H])([H])[H]

>  <h>  (86) 
<NA>

>  <Training>  (86) 
True

>  <Success>  (86) 
True

>  <enamine_searched>  (86) 
False

>  <enamine_id>  (86) 
nan

$$$$

     RDKit          3D

 37 39  0  0  0  0  0  0  0  0999 V2000
    5.6010   -1.6015   22.6422 O   0  0  0  0  0  0  0  0  0  0  0  0
    6.0880   -1.6815   21.5235 C   0  0  0  0  0  0  0  0  0  0  0  0
    6.8616   -0.5396   20.8484 C   0  0  0  0  0  0  0  0  0  0  0  0
    6.0961    0.0953   19.7166 C   0  0  0  0  0  0  0  0  0  0  0  0
    6.4538   -0.1268   18.4129 C   0  0  0  0  0  0  0  0  0  0  0  0
    5.8019    0.3677   17.3315 N   0  0  0  0  0  0  0  0  0  0  0  0
    4.7417    1.1014   17.5553 C   0  0  0  0  0  0  0  0  0  0  0  0
    4.2729    1.4410   18.8504 C   0  0  0  0  0  0  0  0  0  0  0  0
    3.1532    2.2891   19.0412 C   0  0  0  0  0  0  0  0  0  0  0  0
    2.7458    2.6225   20.3036 C   0  0  0  0  0  0  0  0  0  0  0  0
    3.4256    2.1035   21.4284 C   0  0  0  0  0  0  0  0  0  0  0  0
    4.5001    1.2622   21.2710 C   0  0  0  0  0  0  0  0  0  0  0  0
    4.9625    0.9233   19.9697 C   0  0  0  0  0  0  0  0  0  0  0  0
    4.9968    0.8433   22.1421 H   0  0  0  0  0  0  0  0  0  0  0  0
    3.0962    2.3801   22.4262 H   0  0  0  0  0  0  0  0  0  0  0  0
    1.8995    3.2886   20.4482 H   0  0  0  0  0  0  0  0  0  0  0  0
    2.6423    2.6771   18.1627 H   0  0  0  0  0  0  0  0  0  0  0  0
    4.2052    1.4800   16.6839 H   0  0  0  0  0  0  0  0  0  0  0  0
    7.3249   -0.7398   18.1771 H   0  0  0  0  0  0  0  0  0  0  0  0
    7.8131   -0.9351   20.4663 H   0  0  0  0  0  0  0  0  0  0  0  0
    7.1202    0.1910   21.6219 H   0  0  0  0  0  0  0  0  0  0  0  0
    6.0155   -2.8222   20.7764 N   0  0  0  0  0  0  0  0  0  0  0  0
    5.3905   -4.0414   21.3009 C   0  0  0  0  0  0  0  0  0  0  0  0
    6.1452   -4.5993   22.4515 C   0  0  0  0  0  0  0  0  0  0  0  0
    7.4109   -5.1076   22.1416 C   0  0  0  0  0  0  0  0  0  0  0  0
    8.0270   -5.8384   23.0060 C   0  0  0  0  0  0  0  0  0  0  0  0
    8.2092   -5.6645   23.2818 C   0  0  0  0  0  0  0  0  0  0  0  0
    6.5486   -4.3554   24.8007 C   0  0  0  0  0  0  0  0  0  0  0  0
    6.2045   -3.7082   26.3347 Cl  0  0  0  0  0  0  0  0  0  0  0  0
    5.7085   -4.3430   23.7635 C   0  0  0  0  0  0  0  0  0  0  0  0
    4.6627   -4.0060   23.9108 H   0  0  0  0  0  0  0  0  0  0  0  0
    8.4014   -4.9846   24.2149 H   0  0  0  0  0  0  0  0  0  0  0  0
    8.4657   -6.8437   23.4958 H   0  0  0  0  0  0  0  0  0  0  0  0
    7.4142   -6.0003   21.6291 H   0  0  0  0  0  0  0  0  0  0  0  0
    5.3608   -4.7501   20.4648 H   0  0  0  0  0  0  0  0  0  0  0  0
    4.3631   -3.8149   21.6137 H   0  0  0  0  0  0  0  0  0  0  0  0
    6.2497   -2.7581   19.7943 H   0  0  0  0  0  0  0  0  0  0  0  0
  1  2  2  0
  2  3  1  0
  3  4  1  0
  4  5  2  0
  5  6  1  0
  6  7  2  0
  7  8  1  0
  8  9  2  0
  9 10  1  0
 10 11  2  0
 11 12  1  0
 12 13  2  0
 12 14  1  0
 11 15  1  0
 10 16  1  0
  9 17  1  0
  7 18  1  0
  5 19  1  0
  3 20  1  0
  3 21  1  0
  2 22  1  0
 22 23  1  0
 23 24  1  0
 24 25  2  0
 25 26  1  0
 26 27  2  0
 27 28  1  0
 28 29  1  0
 28 30  2  0
 30 31  1  0
 27 32  1  0
 26 33  1  0
 25 34  1  0
 23 35  1  0
 23 36  1  0
 22 37  1  0
 13  4  1  0
 30 24  1  0
 13  8  1  0
M  END
>  <cnnaffinities>  (87) 
[5.11666]

>  <score>  (87) 
5.11666

>  <index>  (87) 
96

>  <Smiles>  (87) 
O=C(C(c1c(nc(c2c(c(c(c(c12)[H])[H])[H])[H])[H])[H])([H])[H])N(C(c1c(c(c(c(Cl)c1[H])[H])[H])[H])([H])[H])[H]

>  <h>  (87) 
<NA>

>  <Training>  (87) 
True

>  <Success>  (87) 
True

>  <enamine_searched>  (87) 
False

>  <enamine_id>  (87) 
nan

$$$$
