
     RDKit          3D

 63 69  0  0  0  0  0  0  0  0999 V2000
    4.4567   -3.3777   25.4128 O   0  0  0  0  0  0  0  0  0  0  0  0
    5.3578   -2.8653   24.7664 C   0  0  0  0  0  0  0  0  0  0  0  0
    5.8709   -1.4765   25.0373 C   0  0  0  0  0  0  0  0  0  0  0  0
    5.5038   -0.8548   26.2311 C   0  0  0  0  0  0  0  0  0  0  0  0
    5.8302    0.4674   26.4726 C   0  0  0  0  0  0  0  0  0  0  0  0
    6.5032    1.1765   25.4803 C   0  0  0  0  0  0  0  0  0  0  0  0
    6.8580    2.8647   25.7311 Cl  0  0  0  0  0  0  0  0  0  0  0  0
    6.8945    0.5666   24.2992 C   0  0  0  0  0  0  0  0  0  0  0  0
    6.6414   -0.7960   24.0837 C   0  0  0  0  0  0  0  0  0  0  0  0
    7.1863   -1.5218   22.8516 C   0  0  1  0  0  0  0  0  0  0  0  0
    7.2307   -3.0285   23.1904 C   0  0  0  0  0  0  0  0  0  0  0  0
    5.9568   -3.4936   23.7024 N   0  0  0  0  0  0  0  0  0  0  0  0
    5.2565   -4.5349   22.9770 C   0  0  0  0  0  0  0  0  0  0  0  0
    5.7978   -5.9063   23.2156 C   0  0  0  0  0  0  0  0  0  0  0  0
    5.3856   -6.7779   24.0734 N   0  0  0  0  0  0  0  0  0  0  0  0
    6.1923   -7.8992   23.9190 N   0  0  0  0  0  0  0  0  0  0  0  0
    7.0321   -7.6039   22.9887 C   0  0  0  0  0  0  0  0  0  0  0  0
    6.8442   -6.3629   22.4790 O   0  0  0  0  0  0  0  0  0  0  0  0
    7.8197   -8.2186   22.5849 H   0  0  0  0  0  0  0  0  0  0  0  0
    5.3016   -4.2914   21.9096 H   0  0  0  0  0  0  0  0  0  0  0  0
    4.2194   -4.5172   23.3174 H   0  0  0  0  0  0  0  0  0  0  0  0
    8.0076   -3.1964   23.9511 H   0  0  0  0  0  0  0  0  0  0  0  0
    7.4704   -3.6141   22.2996 H   0  0  0  0  0  0  0  0  0  0  0  0
    6.2793   -1.3127   21.6288 C   0  0  0  0  0  0  0  0  0  0  0  0
    5.2062   -1.8374   21.4114 O   0  0  0  0  0  0  0  0  0  0  0  0
    6.8880   -0.4280   20.7717 N   0  0  0  0  0  0  0  0  0  0  0  0
    6.1516    0.1592   19.7171 C   0  0  0  0  0  0  0  0  0  0  0  0
    6.4993   -0.0956   18.4164 C   0  0  0  0  0  0  0  0  0  0  0  0
    5.8133    0.3553   17.3408 N   0  0  0  0  0  0  0  0  0  0  0  0
    4.7604    1.1033   17.5601 C   0  0  0  0  0  0  0  0  0  0  0  0
    4.3076    1.4697   18.8596 C   0  0  0  0  0  0  0  0  0  0  0  0
    3.1765    2.3075   19.0387 C   0  0  0  0  0  0  0  0  0  0  0  0
    2.7696    2.6639   20.2934 C   0  0  0  0  0  0  0  0  0  0  0  0
    3.4770    2.1965   21.4253 C   0  0  0  0  0  0  0  0  0  0  0  0
    4.5761    1.3869   21.2843 C   0  0  0  0  0  0  0  0  0  0  0  0
    5.0161    0.9916   19.9841 C   0  0  0  0  0  0  0  0  0  0  0  0
    5.1098    1.0410   22.1703 H   0  0  0  0  0  0  0  0  0  0  0  0
    3.1442    2.4872   22.4166 H   0  0  0  0  0  0  0  0  0  0  0  0
    1.9067    3.3107   20.4276 H   0  0  0  0  0  0  0  0  0  0  0  0
    2.6616    2.6695   18.1526 H   0  0  0  0  0  0  0  0  0  0  0  0
    4.2069    1.4555   16.6874 H   0  0  0  0  0  0  0  0  0  0  0  0
    7.3625   -0.7256   18.2056 H   0  0  0  0  0  0  0  0  0  0  0  0
    8.1934    0.0184   21.2071 C   0  0  0  0  0  0  0  0  0  0  0  0
    8.5423   -0.9491   22.3541 C   0  0  2  0  0  0  0  0  0  0  0  0
    9.5400   -2.0244   21.8878 C   0  0  0  0  0  0  0  0  0  0  0  0
   10.8705   -1.4833   21.6944 N   0  0  0  0  0  0  0  0  0  0  0  0
   11.6705   -0.9873   22.6636 C   0  0  0  0  0  0  0  0  0  0  0  0
   11.1872   -0.6415   23.8694 N   0  0  0  0  0  0  0  0  0  0  0  0
   12.1140   -0.2330   24.7261 C   0  0  0  0  0  0  0  0  0  0  0  0
   13.4216   -0.1257   24.5069 N   0  0  0  0  0  0  0  0  0  0  0  0
   13.7506   -0.4148   23.2451 C   0  0  0  0  0  0  0  0  0  0  0  0
   12.9519   -0.8273   22.2937 N   0  0  0  0  0  0  0  0  0  0  0  0
   14.7766   -0.2654   22.9374 H   0  0  0  0  0  0  0  0  0  0  0  0
   11.7642    0.0920   25.7027 H   0  0  0  0  0  0  0  0  0  0  0  0
   11.4100   -1.8335   20.9173 H   0  0  0  0  0  0  0  0  0  0  0  0
    9.2004   -2.4543   20.9366 H   0  0  0  0  0  0  0  0  0  0  0  0
    9.5913   -2.8435   22.6128 H   0  0  0  0  0  0  0  0  0  0  0  0
    9.0528   -0.4254   23.1575 H   0  0  0  0  0  0  0  0  0  0  0  0
    8.9061   -0.0359   20.3844 H   0  0  0  0  0  0  0  0  0  0  0  0
    8.1655    1.0650   21.5415 H   0  0  0  0  0  0  0  0  0  0  0  0
    7.4286    1.1679   23.5711 H   0  0  0  0  0  0  0  0  0  0  0  0
    5.5629    0.9557   27.4040 H   0  0  0  0  0  0  0  0  0  0  0  0
    4.9536   -1.4384   26.9632 H   0  0  0  0  0  0  0  0  0  0  0  0
  1  2  2  0
  2  3  1  0
  3  4  2  0
  4  5  1  0
  5  6  2  0
  6  7  1  0
  6  8  1  0
  8  9  2  0
  9 10  1  0
 10 11  1  1
 11 12  1  0
 12 13  1  0
 13 14  1  0
 14 15  2  0
 15 16  1  0
 16 17  2  0
 17 18  1  0
 17 19  1  0
 13 20  1  0
 13 21  1  0
 11 22  1  0
 11 23  1  0
 10 24  1  0
 24 25  2  0
 24 26  1  0
 26 27  1  0
 27 28  2  0
 28 29  1  0
 29 30  2  0
 30 31  1  0
 31 32  2  0
 32 33  1  0
 33 34  2  0
 34 35  1  0
 35 36  2  0
 35 37  1  0
 34 38  1  0
 33 39  1  0
 32 40  1  0
 30 41  1  0
 28 42  1  0
 26 43  1  0
 43 44  1  0
 44 45  1  0
 45 46  1  0
 46 47  1  0
 47 48  2  0
 48 49  1  0
 49 50  2  0
 50 51  1  0
 51 52  2  0
 51 53  1  0
 49 54  1  0
 46 55  1  0
 45 56  1  0
 45 57  1  0
 44 58  1  1
 43 59  1  0
 43 60  1  0
  8 61  1  0
  5 62  1  0
  4 63  1  0
 12  2  1  0
 18 14  1  0
 36 27  1  0
 52 47  1  0
  9  3  1  0
 44 10  1  0
 36 31  1  0
M  END
>  <cnnaffinities>  (1) 
[7.27737]

>  <score>  (1) 
7.27737

>  <index>  (1) 
0

>  <Smiles>  (1) 
O=C1c2c(c(c(Cl)c(c2[C@@]2(C(N1C(c1nnc(o1)[H])([H])[H])([H])[H])C(=O)N(c1c(nc(c3c(c(c(c(c13)[H])[H])[H])[H])[H])[H])C([C@@]2(C(N(c1nc(nc(n1)[H])[H])[H])([H])[H])[H])([H])[H])[H])[H])[H]

>  <h>  (1) 
<NA>

>  <Training>  (1) 
True

>  <Success>  (1) 
True

>  <enamine_searched>  (1) 
False

>  <enamine_id>  (1) 
nan

$$$$

     RDKit          3D

 51 54  0  0  0  0  0  0  0  0999 V2000
   13.3654   -2.2906   23.5919 C   0  0  0  0  0  0  0  0  0  0  0  0
   12.2258   -1.6295   24.0858 O   0  0  0  0  0  0  0  0  0  0  0  0
   11.0335   -1.9072   23.4921 C   0  0  0  0  0  0  0  0  0  0  0  0
   10.8732   -2.8265   22.4637 C   0  0  0  0  0  0  0  0  0  0  0  0
    9.5820   -3.1281   22.0114 C   0  0  0  0  0  0  0  0  0  0  0  0
    8.4773   -2.4373   22.4994 C   0  0  0  0  0  0  0  0  0  0  0  0
    7.1609   -2.7371   22.0017 N   0  0  0  0  0  0  0  0  0  0  0  0
    6.5642   -4.0298   22.3477 C   0  0  0  0  0  0  0  0  0  0  0  0
    6.0192   -4.0809   23.7678 C   0  0  0  0  0  0  0  0  0  0  0  0
    4.6634   -3.8716   24.0218 C   0  0  0  0  0  0  0  0  0  0  0  0
    4.1789   -3.8452   25.3268 C   0  0  0  0  0  0  0  0  0  0  0  0
    5.0431   -4.0416   26.3972 C   0  0  0  0  0  0  0  0  0  0  0  0
    6.3885   -4.2716   26.1387 C   0  0  0  0  0  0  0  0  0  0  0  0
    7.4675   -4.4751   27.4931 Cl  0  0  0  0  0  0  0  0  0  0  0  0
    6.8846   -4.3010   24.8398 C   0  0  0  0  0  0  0  0  0  0  0  0
    7.9462   -4.4609   24.6639 H   0  0  0  0  0  0  0  0  0  0  0  0
    4.6990   -4.0115   27.4278 H   0  0  0  0  0  0  0  0  0  0  0  0
    3.1259   -3.6493   25.5167 H   0  0  0  0  0  0  0  0  0  0  0  0
    3.9940   -3.7096   23.1824 H   0  0  0  0  0  0  0  0  0  0  0  0
    5.7599   -4.2231   21.6293 H   0  0  0  0  0  0  0  0  0  0  0  0
    7.3493   -4.7830   22.2270 H   0  0  0  0  0  0  0  0  0  0  0  0
    6.2971   -1.8020   21.4522 C   0  0  0  0  0  0  0  0  0  0  0  0
    5.1000   -2.0161   21.3879 O   0  0  0  0  0  0  0  0  0  0  0  0
    6.9278   -0.5218   20.8874 C   0  0  0  0  0  0  0  0  0  0  0  0
    6.1170    0.0811   19.7686 C   0  0  0  0  0  0  0  0  0  0  0  0
    6.4246   -0.2162   18.4683 C   0  0  0  0  0  0  0  0  0  0  0  0
    5.7564    0.2377   17.3792 N   0  0  0  0  0  0  0  0  0  0  0  0
    4.7356    1.0289   17.5862 C   0  0  0  0  0  0  0  0  0  0  0  0
    4.2866    1.4172   18.8755 C   0  0  0  0  0  0  0  0  0  0  0  0
    3.1675    2.2699   19.0472 C   0  0  0  0  0  0  0  0  0  0  0  0
    2.7473    2.6199   20.3013 C   0  0  0  0  0  0  0  0  0  0  0  0
    3.4340    2.1270   21.4344 C   0  0  0  0  0  0  0  0  0  0  0  0
    4.5209    1.2994   21.2921 C   0  0  0  0  0  0  0  0  0  0  0  0
    4.9873    0.9250   20.0040 C   0  0  0  0  0  0  0  0  0  0  0  0
    5.0286    0.9095   22.1694 H   0  0  0  0  0  0  0  0  0  0  0  0
    3.0978    2.4136   22.4274 H   0  0  0  0  0  0  0  0  0  0  0  0
    1.8918    3.2783   20.4277 H   0  0  0  0  0  0  0  0  0  0  0  0
    2.6702    2.6406   18.1536 H   0  0  0  0  0  0  0  0  0  0  0  0
    4.2112    1.3964   16.7022 H   0  0  0  0  0  0  0  0  0  0  0  0
    7.2690   -0.8647   18.2354 H   0  0  0  0  0  0  0  0  0  0  0  0
    7.9389   -0.7830   20.5516 H   0  0  0  0  0  0  0  0  0  0  0  0
    7.0647    0.1982   21.7058 H   0  0  0  0  0  0  0  0  0  0  0  0
    8.6654   -1.4621   23.4863 C   0  0  0  0  0  0  0  0  0  0  0  0
    9.9345   -1.1978   23.9774 C   0  0  0  0  0  0  0  0  0  0  0  0
   10.1349   -0.4409   24.7319 H   0  0  0  0  0  0  0  0  0  0  0  0
    7.8066   -0.9298   23.8980 H   0  0  0  0  0  0  0  0  0  0  0  0
    9.3639   -3.8798   21.2573 H   0  0  0  0  0  0  0  0  0  0  0  0
   11.7723   -3.2370   22.0197 H   0  0  0  0  0  0  0  0  0  0  0  0
   14.2100   -1.8337   24.1062 H   0  0  0  0  0  0  0  0  0  0  0  0
   13.3411   -3.3661   23.8071 H   0  0  0  0  0  0  0  0  0  0  0  0
   13.4478   -2.1568   22.5111 H   0  0  0  0  0  0  0  0  0  0  0  0
  1  2  1  0
  2  3  1  0
  3  4  2  0
  4  5  1  0
  5  6  2  0
  6  7  1  0
  7  8  1  0
  8  9  1  0
  9 10  2  0
 10 11  1  0
 11 12  2  0
 12 13  1  0
 13 14  1  0
 13 15  2  0
 15 16  1  0
 12 17  1  0
 11 18  1  0
 10 19  1  0
  8 20  1  0
  8 21  1  0
  7 22  1  0
 22 23  2  0
 22 24  1  0
 24 25  1  0
 25 26  2  0
 26 27  1  0
 27 28  2  0
 28 29  1  0
 29 30  2  0
 30 31  1  0
 31 32  2  0
 32 33  1  0
 33 34  2  0
 33 35  1  0
 32 36  1  0
 31 37  1  0
 30 38  1  0
 28 39  1  0
 26 40  1  0
 24 41  1  0
 24 42  1  0
  6 43  1  0
 43 44  2  0
 44 45  1  0
 43 46  1  0
  5 47  1  0
  4 48  1  0
  1 49  1  0
  1 50  1  0
  1 51  1  0
 44  3  1  0
 15  9  1  0
 34 25  1  0
 34 29  1  0
M  END
>  <cnnaffinities>  (2) 
[6.23137, 6.00291]

>  <score>  (2) 
6.23137

>  <index>  (2) 
1

>  <Smiles>  (2) 
C(Oc1c(c(c(N(C(c2c(c(c(c(Cl)c2[H])[H])[H])[H])([H])[H])C(=O)C(c2c(nc(c3c(c(c(c(c23)[H])[H])[H])[H])[H])[H])([H])[H])c(c1[H])[H])[H])[H])([H])([H])[H]

>  <h>  (2) 
<NA>

>  <Training>  (2) 
True

>  <Success>  (2) 
True

>  <enamine_searched>  (2) 
False

>  <enamine_id>  (2) 
nan

$$$$

     RDKit          3D

 56 60  0  0  0  0  0  0  0  0999 V2000
    7.5834   -8.4510   22.9398 C   0  0  0  0  0  0  0  0  0  0  0  0
    6.7580   -7.2674   22.8923 N   0  0  0  0  0  0  0  0  0  0  0  0
    6.7775   -6.4606   21.7978 C   0  0  0  0  0  0  0  0  0  0  0  0
    7.3754   -6.7278   20.7748 O   0  0  0  0  0  0  0  0  0  0  0  0
    5.9935   -5.1558   21.9171 C   0  0  0  0  0  0  0  0  0  0  0  0
    6.6282   -4.2409   22.8341 N   0  0  0  0  0  0  0  0  0  0  0  0
    7.7233   -3.3993   22.3978 C   0  0  0  0  0  0  0  0  0  0  0  0
    7.3932   -1.9216   22.6933 C   0  0  2  0  0  0  0  0  0  0  0  0
    6.3146   -1.4873   21.6706 C   0  0  0  0  0  0  0  0  0  0  0  0
    5.2136   -1.9720   21.5262 O   0  0  0  0  0  0  0  0  0  0  0  0
    6.8323   -0.4830   20.8807 N   0  0  0  0  0  0  0  0  0  0  0  0
    6.0998    0.0609   19.8027 C   0  0  0  0  0  0  0  0  0  0  0  0
    6.4621   -0.2173   18.5095 C   0  0  0  0  0  0  0  0  0  0  0  0
    5.8092    0.2415   17.4159 N   0  0  0  0  0  0  0  0  0  0  0  0
    4.7749    1.0204   17.6082 C   0  0  0  0  0  0  0  0  0  0  0  0
    4.3076    1.4119   18.8952 C   0  0  0  0  0  0  0  0  0  0  0  0
    3.1925    2.2795   19.0487 C   0  0  0  0  0  0  0  0  0  0  0  0
    2.7828    2.6652   20.2955 C   0  0  0  0  0  0  0  0  0  0  0  0
    3.4695    2.2094   21.4435 C   0  0  0  0  0  0  0  0  0  0  0  0
    4.5485    1.3662   21.3202 C   0  0  0  0  0  0  0  0  0  0  0  0
    4.9868    0.9320   20.0359 C   0  0  0  0  0  0  0  0  0  0  0  0
    5.0823    1.0261   22.2019 H   0  0  0  0  0  0  0  0  0  0  0  0
    3.1428    2.5348   22.4276 H   0  0  0  0  0  0  0  0  0  0  0  0
    1.9306    3.3316   20.4097 H   0  0  0  0  0  0  0  0  0  0  0  0
    2.6915    2.6340   18.1512 H   0  0  0  0  0  0  0  0  0  0  0  0
    4.2538    1.3865   16.7221 H   0  0  0  0  0  0  0  0  0  0  0  0
    7.3103   -0.8711   18.3118 H   0  0  0  0  0  0  0  0  0  0  0  0
    8.2721   -0.3680   20.9803 C   0  0  0  0  0  0  0  0  0  0  0  0
    8.5651   -0.9604   22.3622 C   0  0  2  0  0  0  0  0  0  0  0  0
    9.9306   -1.5830   22.4337 N   0  0  0  0  0  4  0  0  0  0  0  0
   10.0115   -2.3473   21.7411 H   0  0  0  0  0  0  0  0  0  0  0  0
   10.6542   -0.8763   22.2179 H   0  0  0  0  0  0  0  0  0  0  0  0
   10.1085   -1.9610   23.3786 H   0  0  0  0  0  0  0  0  0  0  0  0
    8.5497   -0.1621   23.0915 H   0  0  0  0  0  0  0  0  0  0  0  0
    8.7809   -0.9458   20.1959 H   0  0  0  0  0  0  0  0  0  0  0  0
    8.5649    0.6815   20.8893 H   0  0  0  0  0  0  0  0  0  0  0  0
    6.8903   -1.8137   24.1267 C   0  0  0  0  0  0  0  0  0  0  0  0
    6.8180   -0.5734   24.7705 C   0  0  0  0  0  0  0  0  0  0  0  0
    6.3401   -0.4980   26.0654 C   0  0  0  0  0  0  0  0  0  0  0  0
    6.2884    1.0568   26.8461 Cl  0  0  0  0  0  0  0  0  0  0  0  0
    5.9109   -1.6232   26.7703 C   0  0  0  0  0  0  0  0  0  0  0  0
    5.9322   -2.8437   26.1294 C   0  0  0  0  0  0  0  0  0  0  0  0
    6.3866   -2.9256   24.8169 C   0  0  0  0  0  0  0  0  0  0  0  0
    6.2234   -4.2298   24.1289 C   0  0  0  0  0  0  0  0  0  0  0  0
    5.6891   -5.2103   24.6551 O   0  0  0  0  0  0  0  0  0  0  0  0
    5.5633   -3.7488   26.6017 H   0  0  0  0  0  0  0  0  0  0  0  0
    5.5439   -1.5195   27.7832 H   0  0  0  0  0  0  0  0  0  0  0  0
    7.0912    0.3405   24.2547 H   0  0  0  0  0  0  0  0  0  0  0  0
    8.6334   -3.7098   22.9218 H   0  0  0  0  0  0  0  0  0  0  0  0
    7.8582   -3.5688   21.3276 H   0  0  0  0  0  0  0  0  0  0  0  0
    5.9510   -4.6895   20.9231 H   0  0  0  0  0  0  0  0  0  0  0  0
    4.9836   -5.3469   22.3050 H   0  0  0  0  0  0  0  0  0  0  0  0
    6.4023   -6.8702   23.7537 H   0  0  0  0  0  0  0  0  0  0  0  0
    7.0428   -9.2995   23.3791 H   0  0  0  0  0  0  0  0  0  0  0  0
    8.5215   -8.2621   23.4804 H   0  0  0  0  0  0  0  0  0  0  0  0
    7.8657   -8.7180   21.9311 H   0  0  0  0  0  0  0  0  0  0  0  0
  1  2  1  0
  2  3  1  0
  3  4  2  0
  3  5  1  0
  5  6  1  0
  6  7  1  0
  8  7  1  6
  8  9  1  0
  9 10  2  0
  9 11  1  0
 11 12  1  0
 12 13  2  0
 13 14  1  0
 14 15  2  0
 15 16  1  0
 16 17  2  0
 17 18  1  0
 18 19  2  0
 19 20  1  0
 20 21  2  0
 20 22  1  0
 19 23  1  0
 18 24  1  0
 17 25  1  0
 15 26  1  0
 13 27  1  0
 11 28  1  0
 28 29  1  0
 29 30  1  0
 30 31  1  0
 30 32  1  0
 30 33  1  0
 29 34  1  1
 28 35  1  0
 28 36  1  0
  8 37  1  0
 37 38  2  0
 38 39  1  0
 39 40  1  0
 39 41  2  0
 41 42  1  0
 42 43  2  0
 43 44  1  0
 44 45  2  0
 42 46  1  0
 41 47  1  0
 38 48  1  0
  7 49  1  0
  7 50  1  0
  5 51  1  0
  5 52  1  0
  2 53  1  0
  1 54  1  0
  1 55  1  0
  1 56  1  0
 44  6  1  0
 29  8  1  0
 43 37  1  0
 21 12  1  0
 21 16  1  0
M  CHG  1  30   1
M  END
>  <cnnaffinities>  (3) 
[6.64796]

>  <score>  (3) 
6.64796

>  <index>  (3) 
2

>  <Smiles>  (3) 
C(N(C(=O)C(N1C([C@@]2(C(=O)N(c3c(nc(c4c(c(c(c(c34)[H])[H])[H])[H])[H])[H])C([C@@]2([N+]([H])([H])[H])[H])([H])[H])c2c(c(Cl)c(c(c2C1=O)[H])[H])[H])([H])[H])([H])[H])[H])([H])([H])[H]

>  <h>  (3) 
<NA>

>  <Training>  (3) 
True

>  <Success>  (3) 
True

>  <enamine_searched>  (3) 
False

>  <enamine_id>  (3) 
nan

$$$$

     RDKit          3D

 67 73  0  0  0  0  0  0  0  0999 V2000
    8.9931    1.3405   25.2234 O   0  0  0  0  0  0  0  0  0  0  0  0
    8.7469    1.3808   25.1122 C   0  0  0  0  0  0  0  0  0  0  0  0
    9.8776    0.7088   24.3983 C   0  0  0  0  0  0  0  0  0  0  0  0
   11.2705    0.8392   24.5419 C   0  0  0  0  0  0  0  0  0  0  0  0
   12.1678    0.3516   23.6062 C   0  0  0  0  0  0  0  0  0  0  0  0
   11.6339   -0.2581   22.4836 C   0  0  0  0  0  0  0  0  0  0  0  0
   12.6133   -0.8346   21.2107 Cl  0  0  0  0  0  0  0  0  0  0  0  0
   10.2811   -0.4137   22.3089 C   0  0  0  0  0  0  0  0  0  0  0  0
    9.3727   -0.0202   23.2914 C   0  0  0  0  0  0  0  0  0  0  0  0
    7.9223   -0.3459   22.9493 C   0  0  1  0  0  0  0  0  0  0  0  0
    6.8310    0.0142   24.0201 C   0  0  0  0  0  0  0  0  0  0  0  0
    6.5454    1.3815   23.9226 N   0  0  0  0  0  0  0  0  0  0  0  0
    6.1163    2.0970   25.0370 C   0  0  0  0  0  0  0  0  0  0  0  0
    5.4385    1.4138   26.2333 C   0  0  0  0  0  0  0  0  0  0  0  0
    4.4605    0.4404   26.1833 C   0  0  0  0  0  0  0  0  0  0  0  0
    3.9637   -0.0278   27.3991 C   0  0  0  0  0  0  0  0  0  0  0  0
    4.3640    0.4208   28.5849 N   0  0  0  0  0  0  0  0  0  0  0  0
    5.2999    1.3567   28.6371 N   0  0  0  0  0  0  0  0  0  0  0  0
    5.8169    1.8295   27.5110 C   0  0  0  0  0  0  0  0  0  0  0  0
    6.5827    2.5924   27.6387 H   0  0  0  0  0  0  0  0  0  0  0  0
    3.1923   -0.7969   27.4230 H   0  0  0  0  0  0  0  0  0  0  0  0
    4.0676    0.0306   25.2505 H   0  0  0  0  0  0  0  0  0  0  0  0
    5.4161    2.8858   24.6863 H   0  0  0  0  0  0  0  0  0  0  0  0
    6.8875    2.7489   25.4846 H   0  0  0  0  0  0  0  0  0  0  0  0
    5.9579   -0.6338   23.7916 H   0  0  0  0  0  0  0  0  0  0  0  0
    7.1774   -0.3048   25.0218 H   0  0  0  0  0  0  0  0  0  0  0  0
    7.5765    0.3804   21.6133 C   0  0  0  0  0  0  0  0  0  0  0  0
    7.9527    1.4539   21.2006 O   0  0  0  0  0  0  0  0  0  0  0  0
    6.7910   -0.4661   20.8530 N   0  0  0  0  0  0  0  0  0  0  0  0
    6.0607    0.0462   19.7591 C   0  0  0  0  0  0  0  0  0  0  0  0
    6.4145   -0.2627   18.4730 C   0  0  0  0  0  0  0  0  0  0  0  0
    5.7780    0.2129   17.3771 N   0  0  0  0  0  0  0  0  0  0  0  0
    4.7643    1.0230   17.5617 C   0  0  0  0  0  0  0  0  0  0  0  0
    4.2886    1.4191   18.8442 C   0  0  0  0  0  0  0  0  0  0  0  0
    3.1805    2.2918   19.0120 C   0  0  0  0  0  0  0  0  0  0  0  0
    2.7471    2.6327   20.2640 C   0  0  0  0  0  0  0  0  0  0  0  0
    3.4002    2.1211   21.4076 C   0  0  0  0  0  0  0  0  0  0  0  0
    4.4696    1.2741   21.2713 C   0  0  0  0  0  0  0  0  0  0  0  0
    4.9505    0.9153   19.9817 C   0  0  0  0  0  0  0  0  0  0  0  0
    4.9587    0.8763   22.1541 H   0  0  0  0  0  0  0  0  0  0  0  0
    3.0666    2.3987   22.4038 H   0  0  0  0  0  0  0  0  0  0  0  0
    1.8939    3.2939   20.3870 H   0  0  0  0  0  0  0  0  0  0  0  0
    2.6881    2.6845   18.1265 H   0  0  0  0  0  0  0  0  0  0  0  0
    4.2599    1.3956   16.6701 H   0  0  0  0  0  0  0  0  0  0  0  0
    7.2665   -0.9168   18.2938 H   0  0  0  0  0  0  0  0  0  0  0  0
    6.6356   -1.8021   21.3887 C   0  0  0  0  0  0  0  0  0  0  0  0
    7.7572   -1.8363   22.4445 C   0  0  2  0  0  0  0  0  0  0  0  0
    7.7281   -2.9580   23.4939 C   0  0  0  0  0  0  0  0  0  0  0  0
    7.9107   -4.2845   22.9158 N   0  0  0  0  0  0  0  0  0  0  0  0
    6.9170   -4.9398   22.2444 C   0  0  0  0  0  0  0  0  0  0  0  0
    5.5552   -4.7101   22.5123 C   0  0  0  0  0  0  0  0  0  0  0  0
    4.6546   -5.4689   21.8003 C   0  0  0  0  0  0  0  0  0  0  0  0
    5.0211   -6.3543   20.8669 N   0  0  0  0  0  0  0  0  0  0  0  0
    6.3254   -6.4691   20.6835 C   0  0  0  0  0  0  0  0  0  0  0  0
    7.3019   -5.8373   21.3236 N   0  0  0  0  0  0  0  0  0  0  0  0
    6.6271   -7.1657   19.9032 H   0  0  0  0  0  0  0  0  0  0  0  0
    3.5821   -5.3604   21.9678 H   0  0  0  0  0  0  0  0  0  0  0  0
    5.2213   -3.9638   23.2256 H   0  0  0  0  0  0  0  0  0  0  0  0
    8.8220   -4.4552   22.5068 H   0  0  0  0  0  0  0  0  0  0  0  0
    6.8081   -2.9357   24.0800 H   0  0  0  0  0  0  0  0  0  0  0  0
    8.5432   -2.8008   24.2113 H   0  0  0  0  0  0  0  0  0  0  0  0
    8.6473   -2.0541   21.8528 H   0  0  0  0  0  0  0  0  0  0  0  0
    6.7672   -2.5431   20.5909 H   0  0  0  0  0  0  0  0  0  0  0  0
    5.6321   -1.9504   21.8110 H   0  0  0  0  0  0  0  0  0  0  0  0
    9.9488   -0.8033   21.3483 H   0  0  0  0  0  0  0  0  0  0  0  0
   13.2438    0.4864   23.7256 H   0  0  0  0  0  0  0  0  0  0  0  0
   11.7041    1.3480   25.4034 H   0  0  0  0  0  0  0  0  0  0  0  0
  1  2  2  0
  2  3  1  0
  3  4  2  0
  4  5  1  0
  5  6  2  0
  6  7  1  0
  6  8  1  0
  8  9  2  0
  9 10  1  0
 10 11  1  1
 11 12  1  0
 12 13  1  0
 13 14  1  0
 14 15  2  0
 15 16  1  0
 16 17  2  0
 17 18  1  0
 18 19  2  0
 19 20  1  0
 16 21  1  0
 15 22  1  0
 13 23  1  0
 13 24  1  0
 11 25  1  0
 11 26  1  0
 10 27  1  0
 27 28  2  0
 27 29  1  0
 29 30  1  0
 30 31  2  0
 31 32  1  0
 32 33  2  0
 33 34  1  0
 34 35  2  0
 35 36  1  0
 36 37  2  0
 37 38  1  0
 38 39  2  0
 38 40  1  0
 37 41  1  0
 36 42  1  0
 35 43  1  0
 33 44  1  0
 31 45  1  0
 29 46  1  0
 46 47  1  0
 47 48  1  0
 48 49  1  0
 49 50  1  0
 50 51  2  0
 51 52  1  0
 52 53  2  0
 53 54  1  0
 54 55  2  0
 54 56  1  0
 52 57  1  0
 51 58  1  0
 49 59  1  0
 48 60  1  0
 48 61  1  0
 47 62  1  6
 46 63  1  0
 46 64  1  0
  8 65  1  0
  5 66  1  0
  4 67  1  0
 12  2  1  0
 19 14  1  0
 39 30  1  0
 55 50  1  0
  9  3  1  0
 47 10  1  0
 39 34  1  0
M  END
>  <cnnaffinities>  (4) 
[6.22483]

>  <score>  (4) 
6.22483

>  <index>  (4) 
3

>  <Smiles>  (4) 
O=C1c2c(c(c(Cl)c(c2[C@@]2(C(N1C(c1c(c(nnc1[H])[H])[H])([H])[H])([H])[H])C(=O)N(c1c(nc(c3c(c(c(c(c13)[H])[H])[H])[H])[H])[H])C([C@@]2(C(N(c1c(c(nc(n1)[H])[H])[H])[H])([H])[H])[H])([H])[H])[H])[H])[H]

>  <h>  (4) 
<NA>

>  <Training>  (4) 
True

>  <Success>  (4) 
True

>  <enamine_searched>  (4) 
False

>  <enamine_id>  (4) 
nan

$$$$

     RDKit          3D

 41 44  0  0  0  0  0  0  0  0999 V2000
   10.0986   -2.1714   21.6895 C   0  0  0  0  0  0  0  0  0  0  0  0
    9.2518   -1.2741   22.6050 C   0  0  1  0  0  0  0  0  0  0  0  0
    9.8309   -1.2492   23.9995 C   0  0  0  0  0  0  0  0  0  0  0  0
    9.8750   -2.3656   24.9008 C   0  0  0  0  0  0  0  0  0  0  0  0
   10.5847   -2.0851   26.0281 C   0  0  0  0  0  0  0  0  0  0  0  0
   11.2818   -0.5193   25.9564 S   0  0  0  0  0  0  0  0  0  0  0  0
   10.4951   -0.1515   24.4626 C   0  0  0  0  0  0  0  0  0  0  0  0
   10.5116    1.2001   23.7834 C   0  0  0  0  0  0  0  0  0  0  0  0
   10.2530    0.9852   22.2919 C   0  0  0  0  0  0  0  0  0  0  0  0
    9.1180    0.0911   22.0902 N   0  0  0  0  0  0  0  0  0  0  0  0
    8.0364    0.5711   21.3891 C   0  0  0  0  0  0  0  0  0  0  0  0
    7.9131    1.7593   21.1448 O   0  0  0  0  0  0  0  0  0  0  0  0
    6.9815   -0.4418   20.9048 C   0  0  0  0  0  0  0  0  0  0  0  0
    6.1267    0.0900   19.7798 C   0  0  0  0  0  0  0  0  0  0  0  0
    6.4368   -0.2094   18.4771 C   0  0  0  0  0  0  0  0  0  0  0  0
    5.7675    0.2398   17.3848 N   0  0  0  0  0  0  0  0  0  0  0  0
    4.7455    1.0297   17.5895 C   0  0  0  0  0  0  0  0  0  0  0  0
    4.2953    1.4223   18.8787 C   0  0  0  0  0  0  0  0  0  0  0  0
    3.1774    2.2776   19.0481 C   0  0  0  0  0  0  0  0  0  0  0  0
    2.7711    2.6449   20.3009 C   0  0  0  0  0  0  0  0  0  0  0  0
    3.4724    2.1756   21.4352 C   0  0  0  0  0  0  0  0  0  0  0  0
    4.5620    1.3514   21.2938 C   0  0  0  0  0  0  0  0  0  0  0  0
    5.0042    0.9466   20.0067 C   0  0  0  0  0  0  0  0  0  0  0  0
    5.1088    1.0149   22.1685 H   0  0  0  0  0  0  0  0  0  0  0  0
    3.1464    2.4780   22.4256 H   0  0  0  0  0  0  0  0  0  0  0  0
    1.9203    3.3081   20.4263 H   0  0  0  0  0  0  0  0  0  0  0  0
    2.6705    2.6362   18.1546 H   0  0  0  0  0  0  0  0  0  0  0  0
    4.2130    1.3912   16.7085 H   0  0  0  0  0  0  0  0  0  0  0  0
    7.2770   -0.8642   18.2439 H   0  0  0  0  0  0  0  0  0  0  0  0
    6.3693   -0.7612   21.7600 H   0  0  0  0  0  0  0  0  0  0  0  0
    7.5046   -1.3416   20.5604 H   0  0  0  0  0  0  0  0  0  0  0  0
   10.0017    1.9187   21.7839 H   0  0  0  0  0  0  0  0  0  0  0  0
   11.1472    0.5439   21.8235 H   0  0  0  0  0  0  0  0  0  0  0  0
   11.4749    1.7061   23.9307 H   0  0  0  0  0  0  0  0  0  0  0  0
    9.7319    1.8647   24.1982 H   0  0  0  0  0  0  0  0  0  0  0  0
   10.7109   -2.6815   26.9199 H   0  0  0  0  0  0  0  0  0  0  0  0
    9.4337   -3.3337   24.6714 H   0  0  0  0  0  0  0  0  0  0  0  0
    8.2343   -1.6856   22.6720 H   0  0  0  0  0  0  0  0  0  0  0  0
   10.0970   -3.1850   22.1000 H   0  0  0  0  0  0  0  0  0  0  0  0
   11.1424   -1.8306   21.6454 H   0  0  0  0  0  0  0  0  0  0  0  0
    9.6894   -2.1976   20.6766 H   0  0  0  0  0  0  0  0  0  0  0  0
  1  2  1  0
  2  3  1  0
  3  4  1  0
  4  5  2  0
  5  6  1  0
  6  7  1  0
  7  8  1  0
  8  9  1  0
  9 10  1  0
 10 11  1  0
 11 12  2  0
 11 13  1  0
 13 14  1  0
 14 15  2  0
 15 16  1  0
 16 17  2  0
 17 18  1  0
 18 19  2  0
 19 20  1  0
 20 21  2  0
 21 22  1  0
 22 23  2  0
 22 24  1  0
 21 25  1  0
 20 26  1  0
 19 27  1  0
 17 28  1  0
 15 29  1  0
 13 30  1  0
 13 31  1  0
  9 32  1  0
  9 33  1  0
  8 34  1  0
  8 35  1  0
  5 36  1  0
  4 37  1  0
  2 38  1  1
  1 39  1  0
  1 40  1  0
  1 41  1  0
 10  2  1  0
 23 14  1  0
  7  3  2  0
 23 18  1  0
M  END
>  <cnnaffinities>  (5) 
[5.83013]

>  <score>  (5) 
5.83013

>  <index>  (5) 
4

>  <Smiles>  (5) 
C([C@]1(c2c(c(sc2C(C(N1C(=O)C(c1c(nc(c2c(c(c(c(c12)[H])[H])[H])[H])[H])[H])([H])[H])([H])[H])([H])[H])[H])[H])[H])([H])([H])[H]

>  <h>  (5) 
<NA>

>  <Training>  (5) 
True

>  <Success>  (5) 
True

>  <enamine_searched>  (5) 
False

>  <enamine_id>  (5) 
nan

$$$$

     RDKit          3D

 50 54  0  0  0  0  0  0  0  0999 V2000
   10.0251   -1.5464   22.4129 C   0  0  0  0  0  0  0  0  0  0  0  0
    8.6105   -0.9465   22.3640 C   0  0  1  0  0  0  0  0  0  0  0  0
    8.2957   -0.3529   20.9732 C   0  0  0  0  0  0  0  0  0  0  0  0
    6.8521   -0.4681   20.8647 N   0  0  0  0  0  0  0  0  0  0  0  0
    6.1037    0.0651   19.7831 C   0  0  0  0  0  0  0  0  0  0  0  0
    6.4386   -0.2229   18.4839 C   0  0  0  0  0  0  0  0  0  0  0  0
    5.7731    0.2428   17.4000 N   0  0  0  0  0  0  0  0  0  0  0  0
    4.7442    1.0263   17.5956 C   0  0  0  0  0  0  0  0  0  0  0  0
    4.2911    1.4213   18.8825 C   0  0  0  0  0  0  0  0  0  0  0  0
    3.1743    2.2818   19.0556 C   0  0  0  0  0  0  0  0  0  0  0  0
    2.7771    2.6582   20.3084 C   0  0  0  0  0  0  0  0  0  0  0  0
    3.4853    2.2005   21.4438 C   0  0  0  0  0  0  0  0  0  0  0  0
    4.5683    1.3728   21.3000 C   0  0  0  0  0  0  0  0  0  0  0  0
    4.9884    0.9398   20.0129 C   0  0  0  0  0  0  0  0  0  0  0  0
    5.1106    1.0200   22.1718 H   0  0  0  0  0  0  0  0  0  0  0  0
    3.1676    2.5083   22.4369 H   0  0  0  0  0  0  0  0  0  0  0  0
    1.9245    3.3225   20.4404 H   0  0  0  0  0  0  0  0  0  0  0  0
    2.6590    2.6421   18.1693 H   0  0  0  0  0  0  0  0  0  0  0  0
    4.2190    1.3854   16.7117 H   0  0  0  0  0  0  0  0  0  0  0  0
    7.2793   -0.8776   18.2529 H   0  0  0  0  0  0  0  0  0  0  0  0
    6.3192   -1.4000   21.7328 C   0  0  0  0  0  0  0  0  0  0  0  0
    5.1712   -1.7841   21.7024 O   0  0  0  0  0  0  0  0  0  0  0  0
    7.4234   -1.8994   22.6958 C   0  0  1  0  0  0  0  0  0  0  0  0
    7.7420   -3.3677   22.3458 C   0  0  0  0  0  0  0  0  0  0  0  0
    6.6212   -4.2211   22.6777 N   0  0  0  0  0  0  0  0  0  0  0  0
    6.1531   -5.2251   21.7465 C   0  0  0  0  0  0  0  0  0  0  0  0
    6.7523   -6.5592   21.9633 C   0  0  0  0  0  0  0  0  0  0  0  0
    7.2067   -7.5986   22.1803 N   0  0  0  0  0  0  0  0  0  0  0  0
    5.0661   -5.3277   21.8303 H   0  0  0  0  0  0  0  0  0  0  0  0
    6.3700   -4.8909   20.7232 H   0  0  0  0  0  0  0  0  0  0  0  0
    6.1482   -4.2499   23.9628 C   0  0  0  0  0  0  0  0  0  0  0  0
    5.5514   -5.2243   24.3988 O   0  0  0  0  0  0  0  0  0  0  0  0
    6.3732   -2.9904   24.7416 C   0  0  0  0  0  0  0  0  0  0  0  0
    5.9197   -2.9440   26.0601 C   0  0  0  0  0  0  0  0  0  0  0  0
    5.9196   -1.7622   26.7685 C   0  0  0  0  0  0  0  0  0  0  0  0
    6.3612   -0.6218   26.1095 C   0  0  0  0  0  0  0  0  0  0  0  0
    6.3146    0.5502   26.7652 F   0  0  0  0  0  0  0  0  0  0  0  0
    6.8399   -0.6388   24.8160 C   0  0  0  0  0  0  0  0  0  0  0  0
    6.9159   -1.8533   24.1237 C   0  0  0  0  0  0  0  0  0  0  0  0
    7.1138    0.3100   24.3659 H   0  0  0  0  0  0  0  0  0  0  0  0
    5.5685   -1.6848   27.7925 H   0  0  0  0  0  0  0  0  0  0  0  0
    5.5360   -3.8491   26.5101 H   0  0  0  0  0  0  0  0  0  0  0  0
    7.9093   -3.4316   21.2758 H   0  0  0  0  0  0  0  0  0  0  0  0
    8.6579   -3.7034   22.8588 H   0  0  0  0  0  0  0  0  0  0  0  0
    8.6006    0.6971   20.8902 H   0  0  0  0  0  0  0  0  0  0  0  0
    8.8148   -0.9080   20.1745 H   0  0  0  0  0  0  0  0  0  0  0  0
    8.5704   -0.1304   23.0913 H   0  0  0  0  0  0  0  0  0  0  0  0
   10.2391   -2.0108   23.3842 H   0  0  0  0  0  0  0  0  0  0  0  0
   10.7915   -0.7754   22.2385 H   0  0  0  0  0  0  0  0  0  0  0  0
   10.1645   -2.3215   21.6441 H   0  0  0  0  0  0  0  0  0  0  0  0
  1  2  1  0
  2  3  1  0
  3  4  1  0
  4  5  1  0
  5  6  2  0
  6  7  1  0
  7  8  2  0
  8  9  1  0
  9 10  2  0
 10 11  1  0
 11 12  2  0
 12 13  1  0
 13 14  2  0
 13 15  1  0
 12 16  1  0
 11 17  1  0
 10 18  1  0
  8 19  1  0
  6 20  1  0
  4 21  1  0
 21 22  2  0
 21 23  1  0
 23 24  1  6
 24 25  1  0
 25 26  1  0
 26 27  1  0
 27 28  3  0
 26 29  1  0
 26 30  1  0
 25 31  1  0
 31 32  2  0
 31 33  1  0
 33 34  2  0
 34 35  1  0
 35 36  2  0
 36 37  1  0
 36 38  1  0
 38 39  2  0
 38 40  1  0
 35 41  1  0
 34 42  1  0
 24 43  1  0
 24 44  1  0
  3 45  1  0
  3 46  1  0
  2 47  1  1
  1 48  1  0
  1 49  1  0
  1 50  1  0
 23  2  1  0
 39 33  1  0
 14  5  1  0
 39 23  1  0
 14  9  1  0
M  END
>  <cnnaffinities>  (6) 
[6.23944, 5.96876, 6.16813]

>  <score>  (6) 
6.23944

>  <index>  (6) 
5

>  <Smiles>  (6) 
C([C@]1(C(N(c2c(nc(c3c(c(c(c(c23)[H])[H])[H])[H])[H])[H])C(=O)[C@]21C(N(C(C#N)([H])[H])C(=O)c1c(c(c(F)c(c21)[H])[H])[H])([H])[H])([H])[H])[H])([H])([H])[H]

>  <h>  (6) 
<NA>

>  <Training>  (6) 
True

>  <Success>  (6) 
True

>  <enamine_searched>  (6) 
False

>  <enamine_id>  (6) 
nan

$$$$

     RDKit          3D

 65 69  0  0  0  0  0  0  0  0999 V2000
   13.8639   -1.6360   26.5097 C   0  0  0  0  0  0  0  0  0  0  0  0
   12.6647   -0.6861   26.4255 C   0  0  0  0  0  0  0  0  0  0  0  0
   11.3637   -1.3996   26.1258 C   0  0  0  0  0  0  0  0  0  0  0  0
   10.7170   -2.0368   26.9122 O   0  0  0  0  0  0  0  0  0  0  0  0
   10.8903   -1.3524   24.7188 N   0  0  1  0  0  4  0  0  0  0  0  0
   11.1449   -2.7287   24.0606 C   0  0  0  0  0  0  0  0  0  0  0  0
   10.3972   -2.8108   22.7606 C   0  0  0  0  0  0  0  0  0  0  0  0
    8.9062   -2.7261   23.0144 C   0  0  0  0  0  0  0  0  0  0  0  0
    8.5408   -1.4540   23.7431 C   0  0  0  0  0  0  0  0  0  0  0  0
    7.2230   -0.9689   23.7028 C   0  0  0  0  0  0  0  0  0  0  0  0
    6.2694   -1.6061   22.8497 N   0  0  0  0  0  0  0  0  0  0  0  0
    5.2180   -2.4099   23.4519 C   0  0  0  0  0  0  0  0  0  0  0  0
    5.6728   -3.7198   24.0442 C   0  0  0  0  0  0  0  0  0  0  0  0
    5.8765   -3.9190   25.4119 C   0  0  0  0  0  0  0  0  0  0  0  0
    6.0548   -5.2104   25.9021 C   0  0  0  0  0  0  0  0  0  0  0  0
    6.1289   -6.2832   25.0179 C   0  0  0  0  0  0  0  0  0  0  0  0
    6.0694   -6.0521   23.6516 C   0  0  0  0  0  0  0  0  0  0  0  0
    6.2367   -7.3842   22.5426 Cl  0  0  0  0  0  0  0  0  0  0  0  0
    5.8201   -4.7847   23.1565 C   0  0  0  0  0  0  0  0  0  0  0  0
    5.7202   -4.6256   22.0846 H   0  0  0  0  0  0  0  0  0  0  0  0
    6.2664   -7.2940   25.3699 H   0  0  0  0  0  0  0  0  0  0  0  0
    6.1315   -5.3679   26.9761 H   0  0  0  0  0  0  0  0  0  0  0  0
    5.8567   -3.0843   26.1041 H   0  0  0  0  0  0  0  0  0  0  0  0
    4.6639   -1.7977   24.1720 H   0  0  0  0  0  0  0  0  0  0  0  0
    4.5726   -2.6728   22.6109 H   0  0  0  0  0  0  0  0  0  0  0  0
    6.2463   -1.5289   21.4715 C   0  0  0  0  0  0  0  0  0  0  0  0
    5.5934   -2.3157   20.8049 O   0  0  0  0  0  0  0  0  0  0  0  0
    7.0160   -0.4031   20.7918 C   0  0  0  0  0  0  0  0  0  0  0  0
    6.1737    0.1580   19.6854 C   0  0  0  0  0  0  0  0  0  0  0  0
    6.4373   -0.1793   18.3854 C   0  0  0  0  0  0  0  0  0  0  0  0
    5.7379    0.2556   17.3110 N   0  0  0  0  0  0  0  0  0  0  0  0
    4.7256    1.0504   17.5456 C   0  0  0  0  0  0  0  0  0  0  0  0
    4.3022    1.4382   18.8450 C   0  0  0  0  0  0  0  0  0  0  0  0
    3.1802    2.2824   19.0312 C   0  0  0  0  0  0  0  0  0  0  0  0
    2.7681    2.6199   20.2902 C   0  0  0  0  0  0  0  0  0  0  0  0
    3.4598    2.1197   21.4171 C   0  0  0  0  0  0  0  0  0  0  0  0
    4.5559    1.3057   21.2623 C   0  0  0  0  0  0  0  0  0  0  0  0
    5.0231    0.9565   19.9611 C   0  0  0  0  0  0  0  0  0  0  0  0
    5.0631    0.9288   22.1486 H   0  0  0  0  0  0  0  0  0  0  0  0
    3.1234    2.3942   22.4141 H   0  0  0  0  0  0  0  0  0  0  0  0
    1.9134    3.2758   20.4305 H   0  0  0  0  0  0  0  0  0  0  0  0
    2.6694    2.6582   18.1478 H   0  0  0  0  0  0  0  0  0  0  0  0
    4.1735    1.4201   16.6821 H   0  0  0  0  0  0  0  0  0  0  0  0
    7.2665   -0.8481   18.1527 H   0  0  0  0  0  0  0  0  0  0  0  0
    7.9325   -0.8451   20.3827 H   0  0  0  0  0  0  0  0  0  0  0  0
    7.3102    0.3466   21.5307 H   0  0  0  0  0  0  0  0  0  0  0  0
    6.8299    0.0995   24.5000 C   0  0  0  0  0  0  0  0  0  0  0  0
    7.7729    0.7574   25.2850 C   0  0  0  0  0  0  0  0  0  0  0  0
    9.0902    0.3119   25.3064 C   0  0  0  0  0  0  0  0  0  0  0  0
    9.4570   -0.8131   24.5696 C   0  0  0  0  0  0  0  0  0  0  0  0
    9.8291    0.8197   25.9149 H   0  0  0  0  0  0  0  0  0  0  0  0
    7.4739    1.5953   25.9063 H   0  0  0  0  0  0  0  0  0  0  0  0
    5.7885    0.4207   24.4926 H   0  0  0  0  0  0  0  0  0  0  0  0
    8.3489   -2.8283   22.0766 H   0  0  0  0  0  0  0  0  0  0  0  0
    8.5964   -3.5662   23.6542 H   0  0  0  0  0  0  0  0  0  0  0  0
   10.7236   -2.0195   22.0734 H   0  0  0  0  0  0  0  0  0  0  0  0
   10.6172   -3.7673   22.2951 H   0  0  0  0  0  0  0  0  0  0  0  0
   10.7917   -3.4904   24.7609 H   0  0  0  0  0  0  0  0  0  0  0  0
   12.2236   -2.8626   23.9218 H   0  0  0  0  0  0  0  0  0  0  0  0
   11.4976   -0.6889   24.1867 H   0  0  0  0  0  0  0  0  0  0  0  0
   12.8393    0.0496   25.6331 H   0  0  0  0  0  0  0  0  0  0  0  0
   12.5478   -0.1571   27.3731 H   0  0  0  0  0  0  0  0  0  0  0  0
   14.0037   -2.1495   25.5507 H   0  0  0  0  0  0  0  0  0  0  0  0
   14.7716   -1.0652   26.7262 H   0  0  0  0  0  0  0  0  0  0  0  0
   13.7397   -2.3838   27.3009 H   0  0  0  0  0  0  0  0  0  0  0  0
  1  2  1  0
  2  3  1  0
  3  4  2  0
  3  5  1  0
  5  6  1  0
  6  7  1  0
  7  8  1  0
  8  9  1  0
  9 10  2  0
 10 11  1  0
 11 12  1  0
 12 13  1  0
 13 14  2  0
 14 15  1  0
 15 16  2  0
 16 17  1  0
 17 18  1  0
 17 19  2  0
 19 20  1  0
 16 21  1  0
 15 22  1  0
 14 23  1  0
 12 24  1  0
 12 25  1  0
 11 26  1  0
 26 27  2  0
 26 28  1  0
 28 29  1  0
 29 30  2  0
 30 31  1  0
 31 32  2  0
 32 33  1  0
 33 34  2  0
 34 35  1  0
 35 36  2  0
 36 37  1  0
 37 38  2  0
 37 39  1  0
 36 40  1  0
 35 41  1  0
 34 42  1  0
 32 43  1  0
 30 44  1  0
 28 45  1  0
 28 46  1  0
 10 47  1  0
 47 48  2  0
 48 49  1  0
 49 50  2  0
 49 51  1  0
 48 52  1  0
 47 53  1  0
  8 54  1  0
  8 55  1  0
  7 56  1  0
  7 57  1  0
  6 58  1  0
  6 59  1  0
  5 60  1  6
  2 61  1  0
  2 62  1  0
  1 63  1  0
  1 64  1  0
  1 65  1  0
 50  5  1  0
 50  9  1  0
 19 13  1  0
 38 29  1  0
 38 33  1  0
M  CHG  1   5   1
M  END
>  <cnnaffinities>  (7) 
[6.79055]

>  <score>  (7) 
6.79055

>  <index>  (7) 
6

>  <Smiles>  (7) 
C(C(C(=O)[N@+]1(C(C(C(c2c(N(C(c3c(c(c(c(Cl)c3[H])[H])[H])[H])([H])[H])C(=O)C(c3c(nc(c4c(c(c(c(c34)[H])[H])[H])[H])[H])[H])([H])[H])c(c(c(c12)[H])[H])[H])([H])[H])([H])[H])([H])[H])[H])([H])[H])([H])([H])[H]

>  <h>  (7) 
<NA>

>  <Training>  (7) 
True

>  <Success>  (7) 
True

>  <enamine_searched>  (7) 
False

>  <enamine_id>  (7) 
nan

$$$$

     RDKit          3D

 37 39  0  0  0  0  0  0  0  0999 V2000
    7.9008    1.7444   21.1565 O   0  0  0  0  0  0  0  0  0  0  0  0
    8.0300    0.5557   21.3952 C   0  0  0  0  0  0  0  0  0  0  0  0
    6.9721   -0.4587   20.9032 C   0  0  0  0  0  0  0  0  0  0  0  0
    6.1181    0.0819   19.7767 C   0  0  0  0  0  0  0  0  0  0  0  0
    6.4288   -0.2096   18.4754 C   0  0  0  0  0  0  0  0  0  0  0  0
    5.7642    0.2435   17.3818 N   0  0  0  0  0  0  0  0  0  0  0  0
    4.7397    1.0327   17.5873 C   0  0  0  0  0  0  0  0  0  0  0  0
    4.2911    1.4229   18.8759 C   0  0  0  0  0  0  0  0  0  0  0  0
    3.1736    2.2792   19.0465 C   0  0  0  0  0  0  0  0  0  0  0  0
    2.7675    2.6473   20.3006 C   0  0  0  0  0  0  0  0  0  0  0  0
    3.4699    2.1764   21.4317 C   0  0  0  0  0  0  0  0  0  0  0  0
    4.5573    1.3513   21.2918 C   0  0  0  0  0  0  0  0  0  0  0  0
    4.9995    0.9442   20.0045 C   0  0  0  0  0  0  0  0  0  0  0  0
    5.1057    1.0149   22.1657 H   0  0  0  0  0  0  0  0  0  0  0  0
    3.1458    2.4796   22.4240 H   0  0  0  0  0  0  0  0  0  0  0  0
    1.9168    3.3108   20.4264 H   0  0  0  0  0  0  0  0  0  0  0  0
    2.6660    2.6385   18.1548 H   0  0  0  0  0  0  0  0  0  0  0  0
    4.2103    1.3928   16.7037 H   0  0  0  0  0  0  0  0  0  0  0  0
    7.2722   -0.8596   18.2382 H   0  0  0  0  0  0  0  0  0  0  0  0
    7.4862   -1.3650   20.5549 H   0  0  0  0  0  0  0  0  0  0  0  0
    6.3489   -0.7641   21.7540 H   0  0  0  0  0  0  0  0  0  0  0  0
    9.1276    0.0829   22.0823 N   0  0  0  0  0  0  0  0  0  0  0  0
   10.3779    0.8139   21.9245 C   0  0  0  0  0  0  0  0  0  0  0  0
   11.2117    0.8685   23.1935 C   0  0  0  0  0  0  0  0  0  0  0  0
   11.5038   -0.5662   23.6281 C   0  0  0  0  0  0  0  0  0  0  0  0
   10.1663   -1.2873   23.8213 C   0  0  0  0  0  0  0  0  0  0  0  0
    9.3068   -1.2811   22.5492 C   0  0  0  0  0  0  0  0  0  0  0  0
    8.3169   -1.6987   22.7536 H   0  0  0  0  0  0  0  0  0  0  0  0
    9.7968   -1.9143   21.7825 H   0  0  0  0  0  0  0  0  0  0  0  0
    9.6116   -0.7628   24.6103 H   0  0  0  0  0  0  0  0  0  0  0  0
   10.3152   -2.3245   24.1410 H   0  0  0  0  0  0  0  0  0  0  0  0
   12.1065   -1.0929   22.8669 H   0  0  0  0  0  0  0  0  0  0  0  0
   12.1017   -0.5718   24.5459 H   0  0  0  0  0  0  0  0  0  0  0  0
   10.6822    1.4275   23.9792 H   0  0  0  0  0  0  0  0  0  0  0  0
   12.1427    1.4132   23.0067 H   0  0  0  0  0  0  0  0  0  0  0  0
   10.0969    1.8024   21.5680 H   0  0  0  0  0  0  0  0  0  0  0  0
   10.9783    0.2652   21.1816 H   0  0  0  0  0  0  0  0  0  0  0  0
  1  2  2  0
  2  3  1  0
  3  4  1  0
  4  5  2  0
  5  6  1  0
  6  7  2  0
  7  8  1  0
  8  9  2  0
  9 10  1  0
 10 11  2  0
 11 12  1  0
 12 13  2  0
 12 14  1  0
 11 15  1  0
 10 16  1  0
  9 17  1  0
  7 18  1  0
  5 19  1  0
  3 20  1  0
  3 21  1  0
  2 22  1  0
 22 23  1  0
 23 24  1  0
 24 25  1  0
 25 26  1  0
 26 27  1  0
 27 28  1  0
 27 29  1  0
 26 30  1  0
 26 31  1  0
 25 32  1  0
 25 33  1  0
 24 34  1  0
 24 35  1  0
 23 36  1  0
 23 37  1  0
 13  4  1  0
 27 22  1  0
 13  8  1  0
M  END
>  <cnnaffinities>  (8) 
[5.22954, 5.22916, 4.71971, 4.86362, 4.86338]

>  <score>  (8) 
5.22954

>  <index>  (8) 
7

>  <Smiles>  (8) 
O=C(C(c1c(nc(c2c(c(c(c(c12)[H])[H])[H])[H])[H])[H])([H])[H])N1C(C(C(C(C1([H])[H])([H])[H])([H])[H])([H])[H])([H])[H]

>  <h>  (8) 
<NA>

>  <Training>  (8) 
True

>  <Success>  (8) 
True

>  <enamine_searched>  (8) 
False

>  <enamine_id>  (8) 
nan

$$$$

     RDKit          3D

 58 63  0  0  0  0  0  0  0  0999 V2000
    8.4380   -9.2435   22.9140 C   0  0  0  0  0  0  0  0  0  0  0  0
    7.9430   -8.0687   22.1016 C   0  0  0  0  0  0  0  0  0  0  0  0
    6.8985   -7.2974   22.6608 C   0  0  0  0  0  0  0  0  0  0  0  0
    6.7271   -6.3042   21.7649 C   0  0  0  0  0  0  0  0  0  0  0  0
    5.8978   -5.0823   21.8071 C   0  0  0  0  0  0  0  0  0  0  0  0
    6.4448   -4.1229   22.7451 N   0  0  0  0  0  0  0  0  0  0  0  0
    7.6132   -3.3498   22.3729 C   0  0  0  0  0  0  0  0  0  0  0  0
    7.3654   -1.8610   22.7062 C   0  0  2  0  0  0  0  0  0  0  0  0
    6.2981   -1.3916   21.6839 C   0  0  0  0  0  0  0  0  0  0  0  0
    5.1897   -1.8585   21.5321 O   0  0  0  0  0  0  0  0  0  0  0  0
    6.8390   -0.4041   20.8828 N   0  0  0  0  0  0  0  0  0  0  0  0
    6.1147    0.1160   19.7904 C   0  0  0  0  0  0  0  0  0  0  0  0
    6.4692   -0.1838   18.5003 C   0  0  0  0  0  0  0  0  0  0  0  0
    5.8046    0.2551   17.4066 N   0  0  0  0  0  0  0  0  0  0  0  0
    4.7652    1.0312   17.5911 C   0  0  0  0  0  0  0  0  0  0  0  0
    4.3027    1.4351   18.8766 C   0  0  0  0  0  0  0  0  0  0  0  0
    3.1795    2.2902   19.0331 C   0  0  0  0  0  0  0  0  0  0  0  0
    2.7701    2.6727   20.2818 C   0  0  0  0  0  0  0  0  0  0  0  0
    3.4611    2.2193   21.4283 C   0  0  0  0  0  0  0  0  0  0  0  0
    4.5480    1.3905   21.3026 C   0  0  0  0  0  0  0  0  0  0  0  0
    4.9909    0.9703   20.0169 C   0  0  0  0  0  0  0  0  0  0  0  0
    5.0808    1.0402   22.1807 H   0  0  0  0  0  0  0  0  0  0  0  0
    3.1297    2.5340   22.4137 H   0  0  0  0  0  0  0  0  0  0  0  0
    1.9149    3.3333   20.3991 H   0  0  0  0  0  0  0  0  0  0  0  0
    2.6676    2.6367   18.1384 H   0  0  0  0  0  0  0  0  0  0  0  0
    4.2342    1.3814   16.7033 H   0  0  0  0  0  0  0  0  0  0  0  0
    7.3155   -0.8404   18.3016 H   0  0  0  0  0  0  0  0  0  0  0  0
    8.2849   -0.3838   20.9515 C   0  0  0  0  0  0  0  0  0  0  0  0
    8.5737   -0.9380   22.3541 C   0  0  2  0  0  0  0  0  0  0  0  0
    9.9675   -1.5442   22.4525 C   0  0  0  0  0  0  0  0  0  0  0  0
   10.7290   -0.7848   22.2466 H   0  0  0  0  0  0  0  0  0  0  0  0
   10.1566   -1.9601   23.4461 H   0  0  0  0  0  0  0  0  0  0  0  0
   10.0995   -2.3455   21.7181 H   0  0  0  0  0  0  0  0  0  0  0  0
    8.5183   -0.0901   23.0377 H   0  0  0  0  0  0  0  0  0  0  0  0
    8.7405   -1.0127   20.1722 H   0  0  0  0  0  0  0  0  0  0  0  0
    8.6620    0.6341   20.8225 H   0  0  0  0  0  0  0  0  0  0  0  0
    6.8711   -1.7835   24.1579 C   0  0  0  0  0  0  0  0  0  0  0  0
    6.8768   -0.5761   24.8734 C   0  0  0  0  0  0  0  0  0  0  0  0
    6.4149   -0.5458   26.1749 C   0  0  0  0  0  0  0  0  0  0  0  0
    6.3945    0.6279   26.8271 F   0  0  0  0  0  0  0  0  0  0  0  0
    5.9632   -1.6713   26.8504 C   0  0  0  0  0  0  0  0  0  0  0  0
    5.9322   -2.8575   26.1505 C   0  0  0  0  0  0  0  0  0  0  0  0
    6.3324   -2.9075   24.8140 C   0  0  0  0  0  0  0  0  0  0  0  0
    6.0660   -4.1731   24.0599 C   0  0  0  0  0  0  0  0  0  0  0  0
    5.4933   -5.1369   24.5514 O   0  0  0  0  0  0  0  0  0  0  0  0
    5.5766   -3.7706   26.6142 H   0  0  0  0  0  0  0  0  0  0  0  0
    5.6171   -1.6041   27.8749 H   0  0  0  0  0  0  0  0  0  0  0  0
    7.2065    0.3615   24.4412 H   0  0  0  0  0  0  0  0  0  0  0  0
    8.4907   -3.7358   22.9093 H   0  0  0  0  0  0  0  0  0  0  0  0
    7.7951   -3.4821   21.3039 H   0  0  0  0  0  0  0  0  0  0  0  0
    5.8325   -4.6512   20.8049 H   0  0  0  0  0  0  0  0  0  0  0  0
    4.8972   -5.3497   22.1435 H   0  0  0  0  0  0  0  0  0  0  0  0
    7.5492   -6.4616   20.7368 O   0  0  0  0  0  0  0  0  0  0  0  0
    8.3211   -7.5779   20.8885 N   0  0  0  0  0  0  0  0  0  0  0  0
    6.3872   -7.4390   23.6074 H   0  0  0  0  0  0  0  0  0  0  0  0
    7.5743   -9.7683   23.3267 H   0  0  0  0  0  0  0  0  0  0  0  0
    9.0655   -9.9896   22.4514 H   0  0  0  0  0  0  0  0  0  0  0  0
    9.0231   -8.8678   23.7534 H   0  0  0  0  0  0  0  0  0  0  0  0
  1  2  1  0
  2  3  1  0
  3  4  2  0
  4  5  1  0
  5  6  1  0
  6  7  1  0
  8  7  1  6
  8  9  1  0
  9 10  2  0
  9 11  1  0
 11 12  1  0
 12 13  2  0
 13 14  1  0
 14 15  2  0
 15 16  1  0
 16 17  2  0
 17 18  1  0
 18 19  2  0
 19 20  1  0
 20 21  2  0
 20 22  1  0
 19 23  1  0
 18 24  1  0
 17 25  1  0
 15 26  1  0
 13 27  1  0
 11 28  1  0
 28 29  1  0
 29 30  1  0
 30 31  1  0
 30 32  1  0
 30 33  1  0
 29 34  1  1
 28 35  1  0
 28 36  1  0
  8 37  1  0
 37 38  2  0
 38 39  1  0
 39 40  1  0
 39 41  2  0
 41 42  1  0
 42 43  2  0
 43 44  1  0
 44 45  2  0
 42 46  1  0
 41 47  1  0
 38 48  1  0
  7 49  1  0
  7 50  1  0
  5 51  1  0
  5 52  1  0
  4 53  1  0
 53 54  1  0
  3 55  1  0
  1 56  1  0
  1 57  1  0
  1 58  1  0
 54  2  2  0
 44  6  1  0
 29  8  1  0
 43 37  1  0
 21 12  1  0
 21 16  1  0
M  END
>  <cnnaffinities>  (9) 
[6.79042]

>  <score>  (9) 
6.79042

>  <index>  (9) 
9

>  <Smiles>  (9) 
C(c1c(c(C(N2C([C@@]3(C(=O)N(c4c(nc(c5c(c(c(c(c45)[H])[H])[H])[H])[H])[H])C([C@@]3(C([H])([H])[H])[H])([H])[H])c3c(c(F)c(c(c3C2=O)[H])[H])[H])([H])[H])([H])[H])on1)[H])([H])([H])[H]

>  <h>  (9) 
<NA>

>  <Training>  (9) 
True

>  <Success>  (9) 
True

>  <enamine_searched>  (9) 
False

>  <enamine_id>  (9) 
nan

$$$$

     RDKit          3D

 72 77  0  0  0  0  0  0  0  0999 V2000
    1.9422   -1.0862   28.7094 C   0  0  0  0  0  0  0  0  0  0  0  0
    3.3961   -1.4976   28.7844 C   0  0  1  0  0  0  0  0  0  0  0  0
    4.2721   -0.5052   28.0099 C   0  0  0  0  0  0  0  0  0  0  0  0
    5.6869   -0.5200   28.5396 N   0  0  0  0  0  4  0  0  0  0  0  0
    6.6817   -0.0348   27.5522 C   0  0  0  0  0  0  0  0  0  0  0  0
    7.0700   -1.1398   26.5646 C   0  0  0  0  0  0  0  0  0  0  0  0
    7.8939   -0.6538   25.4824 N   0  0  0  0  0  0  0  0  0  0  0  0
    7.2747   -0.3324   24.2100 C   0  0  0  0  0  0  0  0  0  0  0  0
    8.1443   -0.6631   22.9824 C   0  0  2  0  0  0  0  0  0  0  0  0
    7.6974    0.2703   21.8268 C   0  0  0  0  0  0  0  0  0  0  0  0
    8.0531    1.4071   21.6083 O   0  0  0  0  0  0  0  0  0  0  0  0
    6.7560   -0.4135   21.0861 N   0  0  0  0  0  0  0  0  0  0  0  0
    6.1131    0.1626   19.9676 C   0  0  0  0  0  0  0  0  0  0  0  0
    6.5279   -0.1622   18.7000 C   0  0  0  0  0  0  0  0  0  0  0  0
    5.9460    0.2872   17.5635 N   0  0  0  0  0  0  0  0  0  0  0  0
    4.9095    1.0766   17.6868 C   0  0  0  0  0  0  0  0  0  0  0  0
    4.3667    1.4772   18.9393 C   0  0  0  0  0  0  0  0  0  0  0  0
    3.2268    2.3167   19.0075 C   0  0  0  0  0  0  0  0  0  0  0  0
    2.6978    2.6734   20.2161 C   0  0  0  0  0  0  0  0  0  0  0  0
    3.2966    2.2184   21.4120 C   0  0  0  0  0  0  0  0  0  0  0  0
    4.4148    1.4215   21.3714 C   0  0  0  0  0  0  0  0  0  0  0  0
    4.9773    1.0182   20.1270 C   0  0  0  0  0  0  0  0  0  0  0  0
    4.8756    1.1019   22.3003 H   0  0  0  0  0  0  0  0  0  0  0  0
    2.8682    2.5080   22.3673 H   0  0  0  0  0  0  0  0  0  0  0  0
    1.8202    3.3128   20.2616 H   0  0  0  0  0  0  0  0  0  0  0  0
    2.8005    2.6657   18.0710 H   0  0  0  0  0  0  0  0  0  0  0  0
    4.4268    1.4320   16.7743 H   0  0  0  0  0  0  0  0  0  0  0  0
    7.3895   -0.8142   18.5650 H   0  0  0  0  0  0  0  0  0  0  0  0
    6.5291   -1.7678   21.5548 C   0  0  0  0  0  0  0  0  0  0  0  0
    7.8299   -2.0425   22.3077 C   0  0  2  0  0  0  0  0  0  0  0  0
    7.8394   -3.2588   23.2136 C   0  0  0  0  0  0  0  0  0  0  0  0
    7.0359   -3.1920   23.9529 H   0  0  0  0  0  0  0  0  0  0  0  0
    7.6968   -4.1763   22.6299 H   0  0  0  0  0  0  0  0  0  0  0  0
    8.7914   -3.3340   23.7509 H   0  0  0  0  0  0  0  0  0  0  0  0
    8.6010   -2.1680   21.5380 H   0  0  0  0  0  0  0  0  0  0  0  0
    5.6678   -1.8207   22.2396 H   0  0  0  0  0  0  0  0  0  0  0  0
    6.3320   -2.4449   20.7200 H   0  0  0  0  0  0  0  0  0  0  0  0
    9.5891   -0.4926   23.3334 C   0  0  0  0  0  0  0  0  0  0  0  0
   10.4726   -0.5620   22.2742 C   0  0  0  0  0  0  0  0  0  0  0  0
   11.8238   -0.5108   22.5052 C   0  0  0  0  0  0  0  0  0  0  0  0
   12.7752   -0.6886   21.1064 Cl  0  0  0  0  0  0  0  0  0  0  0  0
   12.3744   -0.3679   23.7733 C   0  0  0  0  0  0  0  0  0  0  0  0
   11.4919   -0.2776   24.8302 C   0  0  0  0  0  0  0  0  0  0  0  0
   10.1122   -0.3313   24.6155 C   0  0  0  0  0  0  0  0  0  0  0  0
    9.1950   -0.3486   25.7808 C   0  0  0  0  0  0  0  0  0  0  0  0
    9.5995   -0.1636   26.9240 O   0  0  0  0  0  0  0  0  0  0  0  0
   11.8722   -0.2456   25.8429 H   0  0  0  0  0  0  0  0  0  0  0  0
   13.4507   -0.3332   23.9252 H   0  0  0  0  0  0  0  0  0  0  0  0
   10.0887   -0.6547   21.2667 H   0  0  0  0  0  0  0  0  0  0  0  0
    7.0113    0.7311   24.1694 H   0  0  0  0  0  0  0  0  0  0  0  0
    6.3325   -0.8835   24.1499 H   0  0  0  0  0  0  0  0  0  0  0  0
    6.1720   -1.6047   26.1285 H   0  0  0  0  0  0  0  0  0  0  0  0
    7.6209   -1.9305   27.0871 H   0  0  0  0  0  0  0  0  0  0  0  0
    7.5695    0.3103   28.0866 H   0  0  0  0  0  0  0  0  0  0  0  0
    6.2469    0.8240   27.0254 H   0  0  0  0  0  0  0  0  0  0  0  0
    5.9759   -1.8447   29.1619 C   0  0  0  0  0  0  0  0  0  0  0  0
    5.0987   -1.9549   30.4045 C   0  0  2  0  0  0  0  0  0  0  0  0
    5.1508   -3.3881   30.8945 C   0  0  0  0  0  0  0  0  0  0  0  0
    6.2012   -3.7044   30.8841 H   0  0  0  0  0  0  0  0  0  0  0  0
    4.5981   -4.0408   30.2091 H   0  0  0  0  0  0  0  0  0  0  0  0
    4.7494   -3.5175   31.9013 H   0  0  0  0  0  0  0  0  0  0  0  0
    3.7672   -1.5002   30.1606 O   0  0  0  0  0  0  0  0  0  0  0  0
    5.4969   -1.2667   31.1653 H   0  0  0  0  0  0  0  0  0  0  0  0
    5.7154   -2.6448   28.4566 H   0  0  0  0  0  0  0  0  0  0  0  0
    7.0363   -1.9533   29.4238 H   0  0  0  0  0  0  0  0  0  0  0  0
    5.7054    0.1445   29.3311 H   0  0  0  0  0  0  0  0  0  0  0  0
    4.2786   -0.7458   26.9433 H   0  0  0  0  0  0  0  0  0  0  0  0
    3.8830    0.5109   28.1253 H   0  0  0  0  0  0  0  0  0  0  0  0
    3.5158   -2.5110   28.3611 H   0  0  0  0  0  0  0  0  0  0  0  0
    1.8424   -0.0660   29.0915 H   0  0  0  0  0  0  0  0  0  0  0  0
    1.3215   -1.7446   29.3212 H   0  0  0  0  0  0  0  0  0  0  0  0
    1.5760   -1.1060   27.6766 H   0  0  0  0  0  0  0  0  0  0  0  0
  1  2  1  0
  2  3  1  0
  3  4  1  0
  4  5  1  0
  5  6  1  0
  6  7  1  0
  7  8  1  0
  9  8  1  1
  9 10  1  0
 10 11  2  0
 10 12  1  0
 12 13  1  0
 13 14  2  0
 14 15  1  0
 15 16  2  0
 16 17  1  0
 17 18  2  0
 18 19  1  0
 19 20  2  0
 20 21  1  0
 21 22  2  0
 21 23  1  0
 20 24  1  0
 19 25  1  0
 18 26  1  0
 16 27  1  0
 14 28  1  0
 12 29  1  0
 29 30  1  0
 30 31  1  0
 31 32  1  0
 31 33  1  0
 31 34  1  0
 30 35  1  6
 29 36  1  0
 29 37  1  0
  9 38  1  0
 38 39  2  0
 39 40  1  0
 40 41  1  0
 40 42  2  0
 42 43  1  0
 43 44  2  0
 44 45  1  0
 45 46  2  0
 43 47  1  0
 42 48  1  0
 39 49  1  0
  8 50  1  0
  8 51  1  0
  6 52  1  0
  6 53  1  0
  5 54  1  0
  5 55  1  0
  4 56  1  0
 56 57  1  0
 57 58  1  0
 58 59  1  0
 58 60  1  0
 58 61  1  0
 57 62  1  0
 57 63  1  1
 56 64  1  0
 56 65  1  0
  4 66  1  0
  3 67  1  0
  3 68  1  0
  2 69  1  6
  1 70  1  0
  1 71  1  0
  1 72  1  0
 62  2  1  0
 45  7  1  0
 30  9  1  0
 44 38  1  0
 22 13  1  0
 22 17  1  0
M  CHG  1   4   1
M  END
>  <cnnaffinities>  (10) 
[6.45843]

>  <score>  (10) 
6.45843

>  <index>  (10) 
10

>  <Smiles>  (10) 
C([C@]1(C([N+](C(C(N2C([C@@]3(C(=O)N(c4c(nc(c5c(c(c(c(c45)[H])[H])[H])[H])[H])[H])C([C@@]3(C([H])([H])[H])[H])([H])[H])c3c(c(Cl)c(c(c3C2=O)[H])[H])[H])([H])[H])([H])[H])([H])[H])(C([C@](C([H])([H])[H])(O1)[H])([H])[H])[H])([H])[H])[H])([H])([H])[H]

>  <h>  (10) 
<NA>

>  <Training>  (10) 
True

>  <Success>  (10) 
True

>  <enamine_searched>  (10) 
False

>  <enamine_id>  (10) 
nan

$$$$

     RDKit          3D

 54 57  0  0  0  0  0  0  0  0999 V2000
   10.0784    1.4630   23.8328 C   0  0  0  0  0  0  0  0  0  0  0  0
    8.9398    0.6301   23.8577 O   0  0  0  0  0  0  0  0  0  0  0  0
    9.1793   -0.7139   23.8710 C   0  0  0  0  0  0  0  0  0  0  0  0
   10.4713   -1.2476   23.8129 C   0  0  0  0  0  0  0  0  0  0  0  0
   10.6555   -2.6284   23.8015 C   0  0  0  0  0  0  0  0  0  0  0  0
    9.5604   -3.4777   23.8715 C   0  0  0  0  0  0  0  0  0  0  0  0
    8.2842   -2.9249   23.9441 C   0  0  0  0  0  0  0  0  0  0  0  0
    8.0601   -1.5533   23.9287 C   0  0  0  0  0  0  0  0  0  0  0  0
    6.6486   -1.0069   23.8975 C   0  0  2  0  0  0  0  0  0  0  0  0
    6.0050   -1.1571   25.2706 C   0  0  0  0  0  0  0  0  0  0  0  0
    4.4560   -0.6272   25.3095 C   0  0  2  0  0  0  0  0  0  0  0  0
    4.1444   -0.9188   26.8687 C   0  0  0  0  0  0  0  0  0  0  0  0
    3.1193   -0.5502   27.0463 H   0  0  0  0  0  0  0  0  0  0  0  0
    4.8079   -0.3022   27.4921 H   0  0  0  0  0  0  0  0  0  0  0  0
    4.1397   -1.9364   27.3136 H   0  0  0  0  0  0  0  0  0  0  0  0
    4.5367   -0.9547   25.4558 C   0  0  0  0  0  0  0  0  0  0  0  0
    5.1503   -2.7932   23.2601 C   0  0  0  0  0  0  0  0  0  0  0  0
    5.8633   -1.7624   22.8577 N   0  0  0  0  0  0  0  0  0  0  0  0
    6.1057   -1.6772   21.4584 C   0  0  0  0  0  0  0  0  0  0  0  0
    5.6562   -2.5394   20.7244 O   0  0  0  0  0  0  0  0  0  0  0  0
    6.9071   -0.5084   20.8715 C   0  0  0  0  0  0  0  0  0  0  0  0
    6.1336    0.1283   19.7444 C   0  0  0  0  0  0  0  0  0  0  0  0
    6.4526   -0.1617   18.4434 C   0  0  0  0  0  0  0  0  0  0  0  0
    5.7789    0.2826   17.3524 N   0  0  0  0  0  0  0  0  0  0  0  0
    4.7455    1.0570   17.5617 C   0  0  0  0  0  0  0  0  0  0  0  0
    4.3027    1.4534   18.8500 C   0  0  0  0  0  0  0  0  0  0  0  0
    3.1725    2.2906   19.0205 C   0  0  0  0  0  0  0  0  0  0  0  0
    2.7468    2.6342   20.2735 C   0  0  0  0  0  0  0  0  0  0  0  0
    3.4323    2.1462   21.4087 C   0  0  0  0  0  0  0  0  0  0  0  0
    4.5313    1.3332   21.2692 C   0  0  0  0  0  0  0  0  0  0  0  0
    5.0052    0.9693   19.9796 C   0  0  0  0  0  0  0  0  0  0  0  0
    5.0321    0.9425   22.1537 H   0  0  0  0  0  0  0  0  0  0  0  0
    3.0737    2.4346   22.3920 H   0  0  0  0  0  0  0  0  0  0  0  0
    1.8819    3.2784   20.4057 H   0  0  0  0  0  0  0  0  0  0  0  0
    2.6617    2.6543   18.1322 H   0  0  0  0  0  0  0  0  0  0  0  0
    4.1898    1.4032   16.6890 H   0  0  0  0  0  0  0  0  0  0  0  0
    7.3049   -0.8051   18.2223 H   0  0  0  0  0  0  0  0  0  0  0  0
    7.8392   -0.9243   20.4675 H   0  0  0  0  0  0  0  0  0  0  0  0
    7.2122    0.2174   21.6251 H   0  0  0  0  0  0  0  0  0  0  0  0
    4.7356   -3.4517   22.5260 H   0  0  0  0  0  0  0  0  0  0  0  0
    5.0723   -3.0451   24.3080 H   0  0  0  0  0  0  0  0  0  0  0  0
    3.4992   -1.6235   25.0229 H   0  0  0  0  0  0  0  0  0  0  0  0
    3.8371    0.1052   24.3835 H   0  0  0  0  0  0  0  0  0  0  0  0
    4.5959    0.5529   25.3474 H   0  0  0  0  0  0  0  0  0  0  0  0
    6.2313   -2.2063   25.5526 H   0  0  0  0  0  0  0  0  0  0  0  0
    6.5670   -0.5407   25.9845 H   0  0  0  0  0  0  0  0  0  0  0  0
    6.7000    0.0397   23.6046 H   0  0  0  0  0  0  0  0  0  0  0  0
    7.4256   -3.5871   23.9887 H   0  0  0  0  0  0  0  0  0  0  0  0
    9.6968   -4.5584   23.8561 H   0  0  0  0  0  0  0  0  0  0  0  0
   11.6627   -3.0367   23.7283 H   0  0  0  0  0  0  0  0  0  0  0  0
   11.3452   -0.6036   23.7583 H   0  0  0  0  0  0  0  0  0  0  0  0
    9.7234    2.4954   23.8516 H   0  0  0  0  0  0  0  0  0  0  0  0
   10.7152    1.2756   24.7082 H   0  0  0  0  0  0  0  0  0  0  0  0
   10.6622    1.2897   22.9181 H   0  0  0  0  0  0  0  0  0  0  0  0
  1  2  1  0
  2  3  1  0
  3  4  2  0
  4  5  1  0
  5  6  2  0
  6  7  1  0
  7  8  2  0
  8  9  1  0
  9 10  1  0
 10 11  1  0
 11 12  1  0
 12 13  1  0
 12 14  1  0
 12 15  1  0
 11 16  1  0
 16 17  1  0
 17 18  1  0
 18 19  1  0
 19 20  2  0
 19 21  1  0
 21 22  1  0
 22 23  2  0
 23 24  1  0
 24 25  2  0
 25 26  1  0
 26 27  2  0
 27 28  1  0
 28 29  2  0
 29 30  1  0
 30 31  2  0
 30 32  1  0
 29 33  1  0
 28 34  1  0
 27 35  1  0
 25 36  1  0
 23 37  1  0
 21 38  1  0
 21 39  1  0
 17 40  1  0
 17 41  1  0
 16 42  1  0
 16 43  1  0
 11 44  1  6
 10 45  1  0
 10 46  1  0
  9 47  1  6
  7 48  1  0
  6 49  1  0
  5 50  1  0
  4 51  1  0
  1 52  1  0
  1 53  1  0
  1 54  1  0
  8  3  1  0
 18  9  1  0
 31 22  1  0
 31 26  1  0
M  END
>  <cnnaffinities>  (11) 
[6.01229]

>  <score>  (11) 
6.01229

>  <index>  (11) 
11

>  <Smiles>  (11) 
C(Oc1c(c(c(c(c1[C@@]1(C([C@](C([H])([H])[H])(C(C(N1C(=O)C(c1c(nc(c2c(c(c(c(c12)[H])[H])[H])[H])[H])[H])([H])[H])([H])[H])([H])[H])[H])([H])[H])[H])[H])[H])[H])[H])([H])([H])[H]

>  <h>  (11) 
<NA>

>  <Training>  (11) 
True

>  <Success>  (11) 
True

>  <enamine_searched>  (11) 
False

>  <enamine_id>  (11) 
nan

$$$$

     RDKit          3D

 47 50  0  0  0  0  0  0  0  0999 V2000
    5.5552   -2.4603   20.9550 O   0  0  0  0  0  0  0  0  0  0  0  0
    6.1679   -1.6428   21.6232 C   0  0  0  0  0  0  0  0  0  0  0  0
    6.9116   -0.4838   20.9203 C   0  0  0  0  0  0  0  0  0  0  0  0
    6.1146    0.0897   19.7706 C   0  0  0  0  0  0  0  0  0  0  0  0
    6.4211   -0.2144   18.4668 C   0  0  0  0  0  0  0  0  0  0  0  0
    5.7553    0.2392   17.3728 N   0  0  0  0  0  0  0  0  0  0  0  0
    4.7337    1.0337   17.5763 C   0  0  0  0  0  0  0  0  0  0  0  0
    4.2855    1.4249   18.8694 C   0  0  0  0  0  0  0  0  0  0  0  0
    3.1633    2.2758   19.0435 C   0  0  0  0  0  0  0  0  0  0  0  0
    2.7495    2.6281   20.3009 C   0  0  0  0  0  0  0  0  0  0  0  0
    3.4407    2.1407   21.4319 C   0  0  0  0  0  0  0  0  0  0  0  0
    4.5312    1.3171   21.2887 C   0  0  0  0  0  0  0  0  0  0  0  0
    4.9887    0.9398   19.9968 C   0  0  0  0  0  0  0  0  0  0  0  0
    5.0461    0.9546   22.1726 H   0  0  0  0  0  0  0  0  0  0  0  0
    3.1065    2.4263   22.4235 H   0  0  0  0  0  0  0  0  0  0  0  0
    1.8935    3.2823   20.4363 H   0  0  0  0  0  0  0  0  0  0  0  0
    2.6442    2.6462   18.1630 H   0  0  0  0  0  0  0  0  0  0  0  0
    4.1995    1.3999   16.6982 H   0  0  0  0  0  0  0  0  0  0  0  0
    7.2657   -0.8664   18.2469 H   0  0  0  0  0  0  0  0  0  0  0  0
    7.2128    0.3133   21.6093 H   0  0  0  0  0  0  0  0  0  0  0  0
    7.8411   -0.9044   20.5145 H   0  0  0  0  0  0  0  0  0  0  0  0
    6.2149   -1.7410   22.9857 N   0  0  0  0  0  0  0  0  0  0  0  0
    5.5694   -2.8606   23.6637 C   0  0  0  0  0  0  0  0  0  0  0  0
    6.0779   -2.8167   25.1059 C   0  0  2  0  0  0  0  0  0  0  0  0
    5.0996   -3.3953   26.1215 C   0  0  0  0  0  0  0  0  0  0  0  0
    4.9456   -4.7585   25.9040 F   0  0  0  0  0  0  0  0  0  0  0  0
    4.1065   -2.9420   26.0348 H   0  0  0  0  0  0  0  0  0  0  0  0
    5.4355   -3.2658   27.1605 H   0  0  0  0  0  0  0  0  0  0  0  0
    6.5079   -1.3557   25.3403 C   0  0  0  0  0  0  0  0  0  0  0  0
    5.4194   -0.4212   25.9174 C   0  0  0  0  0  0  0  0  0  0  0  0
    6.1711    0.7678   26.5382 C   0  0  0  0  0  0  0  0  0  0  0  0
    7.5865    0.2560   26.8659 C   0  0  0  0  0  0  0  0  0  0  0  0
    7.6388   -1.1976   26.3715 C   0  0  0  0  0  0  0  0  0  0  0  0
    7.4796   -1.8889   27.2084 H   0  0  0  0  0  0  0  0  0  0  0  0
    8.6147   -1.4527   25.9476 H   0  0  0  0  0  0  0  0  0  0  0  0
    8.3369    0.8619   26.3500 H   0  0  0  0  0  0  0  0  0  0  0  0
    7.8030    0.3137   27.9366 H   0  0  0  0  0  0  0  0  0  0  0  0
    6.2170    1.6031   25.8347 H   0  0  0  0  0  0  0  0  0  0  0  0
    5.6541    1.1332   27.4297 H   0  0  0  0  0  0  0  0  0  0  0  0
    4.7008   -0.1103   25.1530 H   0  0  0  0  0  0  0  0  0  0  0  0
    4.8485   -0.9237   26.7042 H   0  0  0  0  0  0  0  0  0  0  0  0
    6.9358   -0.8913   23.9224 C   0  0  0  0  0  0  0  0  0  0  0  0
    8.0176   -0.9983   23.7803 H   0  0  0  0  0  0  0  0  0  0  0  0
    6.6920    0.1639   23.7707 H   0  0  0  0  0  0  0  0  0  0  0  0
    6.9743   -3.4412   25.1748 H   0  0  0  0  0  0  0  0  0  0  0  0
    4.4880   -2.7693   23.6532 H   0  0  0  0  0  0  0  0  0  0  0  0
    5.7925   -3.8118   23.1835 H   0  0  0  0  0  0  0  0  0  0  0  0
  1  2  2  0
  2  3  1  0
  3  4  1  0
  4  5  2  0
  5  6  1  0
  6  7  2  0
  7  8  1  0
  8  9  2  0
  9 10  1  0
 10 11  2  0
 11 12  1  0
 12 13  2  0
 12 14  1  0
 11 15  1  0
 10 16  1  0
  9 17  1  0
  7 18  1  0
  5 19  1  0
  3 20  1  0
  3 21  1  0
  2 22  1  0
 22 23  1  0
 23 24  1  0
 24 25  1  0
 25 26  1  0
 25 27  1  0
 25 28  1  0
 24 29  1  0
 29 30  1  0
 30 31  1  0
 31 32  1  0
 32 33  1  0
 33 34  1  0
 33 35  1  0
 32 36  1  0
 32 37  1  0
 31 38  1  0
 31 39  1  0
 30 40  1  0
 30 41  1  0
 29 42  1  0
 42 43  1  0
 42 44  1  0
 24 45  1  6
 23 46  1  0
 23 47  1  0
 13  4  1  0
 42 22  1  0
 13  8  1  0
 33 29  1  0
M  END
>  <cnnaffinities>  (12) 
[5.59053, 5.58774, 5.60795, 5.60563, 5.5109, 5.56476, 5.5197, 5.51961]

>  <score>  (12) 
5.59053

>  <index>  (12) 
12

>  <Smiles>  (12) 
O=C(C(c1c(nc(c2c(c(c(c(c12)[H])[H])[H])[H])[H])[H])([H])[H])N1C([C@](C(F)([H])[H])(C2(C(C(C(C2([H])[H])([H])[H])([H])[H])([H])[H])C1([H])[H])[H])([H])[H]

>  <h>  (12) 
<NA>

>  <Training>  (12) 
True

>  <Success>  (12) 
True

>  <enamine_searched>  (12) 
False

>  <enamine_id>  (12) 
nan

$$$$

     RDKit          3D

 67 72  0  0  0  0  0  0  0  0999 V2000
    5.9103    1.3724   29.0044 C   0  0  0  0  0  0  0  0  0  0  0  0
    6.2774    1.8419   27.6867 N   0  0  0  0  0  0  0  0  0  0  0  0
    5.7550    1.2660   26.5655 C   0  0  0  0  0  0  0  0  0  0  0  0
    4.8943    0.4021   26.5741 O   0  0  0  0  0  0  0  0  0  0  0  0
    6.3041    1.8588   25.2591 C   0  0  0  0  0  0  0  0  0  0  0  0
    7.2020    0.9679   24.5434 N   0  0  0  0  0  0  0  0  0  0  0  0
    6.6459   -0.1043   23.7283 C   0  0  0  0  0  0  0  0  0  0  0  0
    7.5798   -0.4848   22.5377 C   0  0  2  0  0  0  0  0  0  0  0  0
    7.2102    0.3372   21.2888 C   0  0  0  0  0  0  0  0  0  0  0  0
    7.5176    1.4807   21.0344 O   0  0  0  0  0  0  0  0  0  0  0  0
    6.4328   -0.4548   20.4684 N   0  0  0  0  0  0  0  0  0  0  0  0
    5.7087    0.1238   19.4035 C   0  0  0  0  0  0  0  0  0  0  0  0
    6.0342   -0.1630   18.1035 C   0  0  0  0  0  0  0  0  0  0  0  0
    5.4232    0.3946   17.0320 N   0  0  0  0  0  0  0  0  0  0  0  0
    4.4612    1.2556   17.2579 C   0  0  0  0  0  0  0  0  0  0  0  0
    3.9944    1.6043   18.5578 C   0  0  0  0  0  0  0  0  0  0  0  0
    2.9249    2.5154   18.7640 C   0  0  0  0  0  0  0  0  0  0  0  0
    2.4926    2.8107   20.0277 C   0  0  0  0  0  0  0  0  0  0  0  0
    3.1039    2.2063   21.1484 C   0  0  0  0  0  0  0  0  0  0  0  0
    4.1394    1.3253   20.9746 C   0  0  0  0  0  0  0  0  0  0  0  0
    4.6248    1.0159   19.6722 C   0  0  0  0  0  0  0  0  0  0  0  0
    4.5963    0.8636   21.8413 H   0  0  0  0  0  0  0  0  0  0  0  0
    2.7630    2.4419   22.1523 H   0  0  0  0  0  0  0  0  0  0  0  0
    1.6786    3.5126   20.1802 H   0  0  0  0  0  0  0  0  0  0  0  0
    2.4686    2.9771   17.8933 H   0  0  0  0  0  0  0  0  0  0  0  0
    3.9991    1.7186   16.3870 H   0  0  0  0  0  0  0  0  0  0  0  0
    6.8438   -0.8595   17.8836 H   0  0  0  0  0  0  0  0  0  0  0  0
    6.1901   -1.7869   20.9911 C   0  0  0  0  0  0  0  0  0  0  0  0
    7.3260   -1.9240   22.0080 C   0  0  2  0  0  0  0  0  0  0  0  0
    7.1220   -2.9902   23.0702 C   0  0  0  0  0  0  0  0  0  0  0  0
    7.0052   -4.2488   22.4466 O   0  0  0  0  0  0  0  0  0  0  0  0
    7.3770   -5.3420   23.2565 C   0  0  0  0  0  0  0  0  0  0  0  0
    6.8425   -6.5460   22.5574 C   0  0  0  0  0  0  0  0  0  0  0  0
    7.0393   -7.9230   23.0811 C   0  0  0  0  0  0  0  0  0  0  0  0
    6.9613   -7.7286   23.2571 C   0  0  0  0  0  0  0  0  0  0  0  0
    7.7275   -8.9773   22.1096 H   0  0  0  0  0  0  0  0  0  0  0  0
    8.0951   -7.7630   23.7258 H   0  0  0  0  0  0  0  0  0  0  0  0
    6.4592   -7.3019   24.5922 H   0  0  0  0  0  0  0  0  0  0  0  0
    5.9157   -8.3493   23.4491 H   0  0  0  0  0  0  0  0  0  0  0  0
    6.5620   -6.3499   21.5178 H   0  0  0  0  0  0  0  0  0  0  0  0
    6.9587   -5.1938   24.2792 H   0  0  0  0  0  0  0  0  0  0  0  0
    8.5015   -5.3079   23.3446 H   0  0  0  0  0  0  0  0  0  0  0  0
    7.9803   -2.9485   23.7707 H   0  0  0  0  0  0  0  0  0  0  0  0
    6.2103   -2.7726   23.6558 H   0  0  0  0  0  0  0  0  0  0  0  0
    8.2150   -2.2128   21.4376 H   0  0  0  0  0  0  0  0  0  0  0  0
    6.2429   -2.5289   20.1924 H   0  0  0  0  0  0  0  0  0  0  0  0
    5.2071   -1.8715   21.4782 H   0  0  0  0  0  0  0  0  0  0  0  0
    9.0278   -0.2616   22.8999 C   0  0  0  0  0  0  0  0  0  0  0  0
   10.0153   -0.6090   21.9794 C   0  0  0  0  0  0  0  0  0  0  0  0
   11.3376   -0.4501   22.3151 C   0  0  0  0  0  0  0  0  0  0  0  0
   12.4861   -1.0035   21.1738 Cl  0  0  0  0  0  0  0  0  0  0  0  0
   11.7706    0.0918   23.5219 C   0  0  0  0  0  0  0  0  0  0  0  0
   10.7946    0.4734   24.4137 C   0  0  0  0  0  0  0  0  0  0  0  0
    9.4492    0.2953   24.1024 C   0  0  0  0  0  0  0  0  0  0  0  0
    8.4532    0.7753   25.0750 C   0  0  0  0  0  0  0  0  0  0  0  0
    8.7561    1.0157   26.2310 O   0  0  0  0  0  0  0  0  0  0  0  0
   11.0335    0.9391   25.3594 H   0  0  0  0  0  0  0  0  0  0  0  0
   12.8283    0.2121   23.7224 H   0  0  0  0  0  0  0  0  0  0  0  0
    9.7729   -0.9914   20.9959 H   0  0  0  0  0  0  0  0  0  0  0  0
    5.6588    0.2162   23.3798 H   0  0  0  0  0  0  0  0  0  0  0  0
    6.4711   -0.9717   24.3774 H   0  0  0  0  0  0  0  0  0  0  0  0
    6.8300    2.7937   25.4722 H   0  0  0  0  0  0  0  0  0  0  0  0
    5.4711    2.1009   24.5935 H   0  0  0  0  0  0  0  0  0  0  0  0
    7.2240    2.1853   27.5882 H   0  0  0  0  0  0  0  0  0  0  0  0
    6.2749    2.0906   29.7450 H   0  0  0  0  0  0  0  0  0  0  0  0
    4.8226    1.3209   29.0755 H   0  0  0  0  0  0  0  0  0  0  0  0
    6.3170    0.3774   29.2334 H   0  0  0  0  0  0  0  0  0  0  0  0
  1  2  1  0
  2  3  1  0
  3  4  2  0
  3  5  1  0
  5  6  1  0
  6  7  1  0
  8  7  1  1
  8  9  1  0
  9 10  2  0
  9 11  1  0
 11 12  1  0
 12 13  2  0
 13 14  1  0
 14 15  2  0
 15 16  1  0
 16 17  2  0
 17 18  1  0
 18 19  2  0
 19 20  1  0
 20 21  2  0
 20 22  1  0
 19 23  1  0
 18 24  1  0
 17 25  1  0
 15 26  1  0
 13 27  1  0
 11 28  1  0
 28 29  1  0
 29 30  1  0
 30 31  1  0
 31 32  1  0
 32 33  1  0
 33 34  1  0
 34 35  1  0
 35 36  1  0
 35 37  1  0
 34 38  1  0
 34 39  1  0
 33 40  1  0
 32 41  1  0
 32 42  1  0
 30 43  1  0
 30 44  1  0
 29 45  1  6
 28 46  1  0
 28 47  1  0
  8 48  1  0
 48 49  2  0
 49 50  1  0
 50 51  1  0
 50 52  2  0
 52 53  1  0
 53 54  2  0
 54 55  1  0
 55 56  2  0
 53 57  1  0
 52 58  1  0
 49 59  1  0
  7 60  1  0
  7 61  1  0
  5 62  1  0
  5 63  1  0
  2 64  1  0
  1 65  1  0
  1 66  1  0
  1 67  1  0
 55  6  1  0
 29  8  1  0
 35 33  1  0
 54 48  1  0
 21 12  1  0
 21 16  1  0
M  END
>  <cnnaffinities>  (13) 
[6.39994]

>  <score>  (13) 
6.39994

>  <index>  (13) 
13

>  <Smiles>  (13) 
C(N(C(=O)C(N1C([C@@]2(C(=O)N(c3c(nc(c4c(c(c(c(c34)[H])[H])[H])[H])[H])[H])C([C@@]2(C(OC(C2(C(C2([H])[H])([H])[H])[H])([H])[H])([H])[H])[H])([H])[H])c2c(c(Cl)c(c(c2C1=O)[H])[H])[H])([H])[H])([H])[H])[H])([H])([H])[H]

>  <h>  (13) 
<NA>

>  <Training>  (13) 
True

>  <Success>  (13) 
True

>  <enamine_searched>  (13) 
False

>  <enamine_id>  (13) 
nan

$$$$

     RDKit          3D

 67 73  0  0  0  0  0  0  0  0999 V2000
    7.3453   -2.3745   23.9339 C   0  0  0  0  0  0  0  0  0  0  0  0
    7.6492   -1.6901   22.6133 C   0  0  1  0  0  0  0  0  0  0  0  0
    6.4473   -1.4885   21.6830 C   0  0  0  0  0  0  0  0  0  0  0  0
    6.8877   -0.3950   20.8345 N   0  0  0  0  0  0  0  0  0  0  0  0
    6.1261    0.1207   19.7568 C   0  0  0  0  0  0  0  0  0  0  0  0
    6.4564   -0.1919   18.4634 C   0  0  0  0  0  0  0  0  0  0  0  0
    5.7729    0.2443   17.3803 N   0  0  0  0  0  0  0  0  0  0  0  0
    4.7470    1.0301   17.5942 C   0  0  0  0  0  0  0  0  0  0  0  0
    4.2974    1.4358   18.8837 C   0  0  0  0  0  0  0  0  0  0  0  0
    3.1788    2.2901   19.0579 C   0  0  0  0  0  0  0  0  0  0  0  0
    2.7646    2.6402   20.3133 C   0  0  0  0  0  0  0  0  0  0  0  0
    3.4543    2.1630   21.4480 C   0  0  0  0  0  0  0  0  0  0  0  0
    4.5572    1.3574   21.3062 C   0  0  0  0  0  0  0  0  0  0  0  0
    5.0016    0.9633   20.0123 C   0  0  0  0  0  0  0  0  0  0  0  0
    5.0954    1.0238   22.1877 H   0  0  0  0  0  0  0  0  0  0  0  0
    3.1138    2.4417   22.4399 H   0  0  0  0  0  0  0  0  0  0  0  0
    1.9095    3.2978   20.4404 H   0  0  0  0  0  0  0  0  0  0  0  0
    2.6735    2.6529   18.1688 H   0  0  0  0  0  0  0  0  0  0  0  0
    4.2126    1.3889   16.7172 H   0  0  0  0  0  0  0  0  0  0  0  0
    7.3108   -0.8373   18.2730 H   0  0  0  0  0  0  0  0  0  0  0  0
    7.9892    0.2809   21.3076 C   0  0  0  0  0  0  0  0  0  0  0  0
    8.5667    1.1654   20.7013 O   0  0  0  0  0  0  0  0  0  0  0  0
    8.3683   -0.3161   22.6831 C   0  0  1  0  0  0  0  0  0  0  0  0
    7.9022    0.5522   23.8747 C   0  0  0  0  0  0  0  0  0  0  0  0
    8.6347    1.8059   23.9339 N   0  0  0  0  0  0  0  0  0  0  0  0
    7.8943    3.0504   23.9904 C   0  0  0  0  0  0  0  0  0  0  0  0
    7.6414    3.6325   22.6090 C   0  0  0  0  0  0  0  0  0  0  0  0
    6.9256    4.9235   22.7714 N   0  0  2  0  0  4  0  0  0  0  0  0
    5.4474    4.7763   23.1893 C   0  0  0  0  0  0  0  0  0  0  0  0
    4.7152    5.5177   22.0651 C   0  0  2  0  0  0  0  0  0  0  0  0
    5.5528    5.1377   20.8476 C   0  0  0  0  0  0  0  0  0  0  0  0
    6.8156    5.7146   21.4857 C   0  0  1  0  0  0  0  0  0  0  0  0
    6.3368    7.1072   21.8718 C   0  0  0  0  0  0  0  0  0  0  0  0
    4.9548    6.9193   22.2168 O   0  0  0  0  0  0  0  0  0  0  0  0
    6.8940    7.4949   22.7344 H   0  0  0  0  0  0  0  0  0  0  0  0
    6.4194    7.8142   21.0412 H   0  0  0  0  0  0  0  0  0  0  0  0
    7.7456    5.6733   20.9310 H   0  0  0  0  0  0  0  0  0  0  0  0
    5.5795    4.0578   20.6649 H   0  0  0  0  0  0  0  0  0  0  0  0
    5.2700    5.6745   19.9496 H   0  0  0  0  0  0  0  0  0  0  0  0
    3.6433    5.3419   22.0248 H   0  0  0  0  0  0  0  0  0  0  0  0
    5.1816    3.7158   23.1959 H   0  0  0  0  0  0  0  0  0  0  0  0
    5.3016    5.2147   24.1745 H   0  0  0  0  0  0  0  0  0  0  0  0
    7.4502    5.4739   23.4751 H   0  0  0  0  0  0  0  0  0  0  0  0
    8.5976    3.8077   22.0999 H   0  0  0  0  0  0  0  0  0  0  0  0
    7.0496    2.9467   21.9893 H   0  0  0  0  0  0  0  0  0  0  0  0
    8.4457    3.8017   24.5514 H   0  0  0  0  0  0  0  0  0  0  0  0
    6.9385    2.8869   24.5063 H   0  0  0  0  0  0  0  0  0  0  0  0
   10.0046    1.8422   23.8452 C   0  0  0  0  0  0  0  0  0  0  0  0
   10.6592    2.8434   24.1008 O   0  0  0  0  0  0  0  0  0  0  0  0
   10.6555    0.5751   23.3502 C   0  0  0  0  0  0  0  0  0  0  0  0
   12.0474    0.4102   23.3583 C   0  0  0  0  0  0  0  0  0  0  0  0
   12.6564   -0.6081   22.6322 C   0  0  0  0  0  0  0  0  0  0  0  0
   11.8475   -1.4274   21.8359 C   0  0  0  0  0  0  0  0  0  0  0  0
   12.3232   -2.4540   20.5027 Cl  0  0  0  0  0  0  0  0  0  0  0  0
   10.4837   -1.3688   21.9648 C   0  0  0  0  0  0  0  0  0  0  0  0
    9.8658   -0.3982   22.7371 C   0  0  0  0  0  0  0  0  0  0  0  0
    9.9353   -2.0936   21.3839 H   0  0  0  0  0  0  0  0  0  0  0  0
   13.7396   -0.6935   22.6330 H   0  0  0  0  0  0  0  0  0  0  0  0
   12.6628    1.1388   23.8790 H   0  0  0  0  0  0  0  0  0  0  0  0
    6.8298    0.7695   23.7850 H   0  0  0  0  0  0  0  0  0  0  0  0
    8.0793   -0.0175   24.8030 H   0  0  0  0  0  0  0  0  0  0  0  0
    6.2496   -2.3897   21.0880 H   0  0  0  0  0  0  0  0  0  0  0  0
    5.5271   -1.2419   22.2331 H   0  0  0  0  0  0  0  0  0  0  0  0
    8.3163   -2.3521   22.0606 H   0  0  0  0  0  0  0  0  0  0  0  0
    8.2605   -2.4777   24.5278 H   0  0  0  0  0  0  0  0  0  0  0  0
    6.9355   -3.3727   23.7483 H   0  0  0  0  0  0  0  0  0  0  0  0
    6.6190   -1.8059   24.5238 H   0  0  0  0  0  0  0  0  0  0  0  0
  1  2  1  0
  2  3  1  0
  3  4  1  0
  4  5  1  0
  5  6  2  0
  6  7  1  0
  7  8  2  0
  8  9  1  0
  9 10  2  0
 10 11  1  0
 11 12  2  0
 12 13  1  0
 13 14  2  0
 13 15  1  0
 12 16  1  0
 11 17  1  0
 10 18  1  0
  8 19  1  0
  6 20  1  0
  4 21  1  0
 21 22  2  0
 21 23  1  0
 23 24  1  1
 24 25  1  0
 25 26  1  0
 26 27  1  0
 27 28  1  0
 28 29  1  0
 29 30  1  0
 30 31  1  0
 31 32  1  0
 32 33  1  0
 33 34  1  0
 33 35  1  0
 33 36  1  0
 32 37  1  6
 31 38  1  0
 31 39  1  0
 30 40  1  6
 29 41  1  0
 29 42  1  0
 28 43  1  1
 27 44  1  0
 27 45  1  0
 26 46  1  0
 26 47  1  0
 25 48  1  0
 48 49  2  0
 48 50  1  0
 50 51  2  0
 51 52  1  0
 52 53  2  0
 53 54  1  0
 53 55  1  0
 55 56  2  0
 55 57  1  0
 52 58  1  0
 51 59  1  0
 24 60  1  0
 24 61  1  0
  3 62  1  0
  3 63  1  0
  2 64  1  6
  1 65  1  0
  1 66  1  0
  1 67  1  0
 23  2  1  0
 32 28  1  0
 56 50  1  0
 14  5  1  0
 56 23  1  0
 14  9  1  0
 34 30  1  0
M  CHG  1  28   1
M  END
>  <cnnaffinities>  (14) 
[6.42594]

>  <score>  (14) 
6.42594

>  <index>  (14) 
14

>  <Smiles>  (14) 
C([C@]1(C(N(c2c(nc(c3c(c(c(c(c23)[H])[H])[H])[H])[H])[H])C(=O)[C@]21C(N(C(C([N@@+]1(C([C@@]3(C([C@]1(C(O3)([H])[H])[H])([H])[H])[H])([H])[H])[H])([H])[H])([H])[H])C(=O)c1c(c(c(Cl)c(c21)[H])[H])[H])([H])[H])([H])[H])[H])([H])([H])[H]

>  <h>  (14) 
<NA>

>  <Training>  (14) 
True

>  <Success>  (14) 
True

>  <enamine_searched>  (14) 
False

>  <enamine_id>  (14) 
nan

$$$$

     RDKit          3D

 72 77  0  0  0  0  0  0  0  0999 V2000
    6.8795    7.7390   21.5542 C   0  0  0  0  0  0  0  0  0  0  0  0
    5.8924    6.5892   21.4772 C   0  0  1  0  0  0  0  0  0  0  0  0
    6.6106    5.2352   21.3564 C   0  0  0  0  0  0  0  0  0  0  0  0
    6.8856    4.6348   22.6962 N   0  0  2  0  0  4  0  0  0  0  0  0
    7.5980    3.3312   22.5781 C   0  0  0  0  0  0  0  0  0  0  0  0
    8.1895    2.8742   23.9103 C   0  0  0  0  0  0  0  0  0  0  0  0
    8.8344    1.5794   23.8115 N   0  0  0  0  0  0  0  0  0  0  0  0
    8.0000    0.3887   23.7394 C   0  0  0  0  0  0  0  0  0  0  0  0
    8.4020   -0.4970   22.5351 C   0  0  2  0  0  0  0  0  0  0  0  0
    7.9616    0.1479   21.2105 C   0  0  0  0  0  0  0  0  0  0  0  0
    8.5110    1.0503   20.6047 O   0  0  0  0  0  0  0  0  0  0  0  0
    6.8048   -0.4654   20.7958 N   0  0  0  0  0  0  0  0  0  0  0  0
    6.0738    0.0820   19.7161 C   0  0  0  0  0  0  0  0  0  0  0  0
    6.4404   -0.1758   18.4218 C   0  0  0  0  0  0  0  0  0  0  0  0
    5.7650    0.2851   17.3431 N   0  0  0  0  0  0  0  0  0  0  0  0
    4.7289    1.0559   17.5665 C   0  0  0  0  0  0  0  0  0  0  0  0
    4.2775    1.4491   18.8601 C   0  0  0  0  0  0  0  0  0  0  0  0
    3.1784    2.3258   19.0567 C   0  0  0  0  0  0  0  0  0  0  0  0
    2.7844    2.6704   20.3221 C   0  0  0  0  0  0  0  0  0  0  0  0
    3.4700    2.1638   21.4481 C   0  0  0  0  0  0  0  0  0  0  0  0
    4.5447    1.3287   21.2830 C   0  0  0  0  0  0  0  0  0  0  0  0
    4.9676    0.9411   19.9802 C   0  0  0  0  0  0  0  0  0  0  0  0
    5.0935    0.9837   22.1524 H   0  0  0  0  0  0  0  0  0  0  0  0
    3.1509    2.4453   22.4482 H   0  0  0  0  0  0  0  0  0  0  0  0
    1.9519    3.3508   20.4647 H   0  0  0  0  0  0  0  0  0  0  0  0
    2.6779    2.7256   18.1797 H   0  0  0  0  0  0  0  0  0  0  0  0
    4.1940    1.4107   16.6890 H   0  0  0  0  0  0  0  0  0  0  0  0
    7.3162   -0.7903   18.2289 H   0  0  0  0  0  0  0  0  0  0  0  0
    6.3264   -1.5028   21.6995 C   0  0  0  0  0  0  0  0  0  0  0  0
    7.6171   -1.8427   22.4681 C   0  0  2  0  0  0  0  0  0  0  0  0
    7.4783   -2.6085   23.7762 C   0  0  0  0  0  0  0  0  0  0  0  0
    7.0376   -3.5968   23.6151 H   0  0  0  0  0  0  0  0  0  0  0  0
    8.4699   -2.7564   24.2188 H   0  0  0  0  0  0  0  0  0  0  0  0
    6.8581   -2.0827   24.5085 H   0  0  0  0  0  0  0  0  0  0  0  0
    8.1888   -2.4779   21.7861 H   0  0  0  0  0  0  0  0  0  0  0  0
    5.5177   -1.1462   22.3593 H   0  0  0  0  0  0  0  0  0  0  0  0
    5.9340   -2.3493   21.1239 H   0  0  0  0  0  0  0  0  0  0  0  0
    9.8991   -0.6266   22.5050 C   0  0  0  0  0  0  0  0  0  0  0  0
   10.4586   -1.4832   21.5548 C   0  0  0  0  0  0  0  0  0  0  0  0
   11.8232   -1.6624   21.5261 C   0  0  0  0  0  0  0  0  0  0  0  0
   12.4042   -2.6348   20.1992 Cl  0  0  0  0  0  0  0  0  0  0  0  0
   12.6608   -0.9978   22.4409 C   0  0  0  0  0  0  0  0  0  0  0  0
   12.1091   -0.0573   23.2929 C   0  0  0  0  0  0  0  0  0  0  0  0
   10.7420    0.1992   23.2571 C   0  0  0  0  0  0  0  0  0  0  0  0
   10.2003    1.4575   23.8837 C   0  0  0  0  0  0  0  0  0  0  0  0
   10.9368    2.3072   24.3708 O   0  0  0  0  0  0  0  0  0  0  0  0
   12.7408    0.5299   23.9555 H   0  0  0  0  0  0  0  0  0  0  0  0
   13.7325   -1.1397   22.4624 H   0  0  0  0  0  0  0  0  0  0  0  0
    9.8486   -1.9784   20.8025 H   0  0  0  0  0  0  0  0  0  0  0  0
    8.1228   -0.2014   24.6629 H   0  0  0  0  0  0  0  0  0  0  0  0
    6.9500    0.7047   23.6537 H   0  0  0  0  0  0  0  0  0  0  0  0
    8.9285    3.6053   24.2344 H   0  0  0  0  0  0  0  0  0  0  0  0
    7.3994    2.8212   24.6699 H   0  0  0  0  0  0  0  0  0  0  0  0
    8.3937    3.4323   21.8329 H   0  0  0  0  0  0  0  0  0  0  0  0
    6.8999    2.5809   22.1919 H   0  0  0  0  0  0  0  0  0  0  0  0
    5.6481    4.5667   23.6019 C   0  0  1  0  0  0  0  0  0  0  0  0
    6.0007    5.1095   24.9888 C   0  0  0  0  0  0  0  0  0  0  0  0
    5.1548    5.0055   25.6741 H   0  0  0  0  0  0  0  0  0  0  0  0
    6.2563    6.1696   24.8983 H   0  0  0  0  0  0  0  0  0  0  0  0
    6.8597    4.5911   25.4224 H   0  0  0  0  0  0  0  0  0  0  0  0
    4.5363    5.3903   22.9623 C   0  0  0  0  0  0  0  0  0  0  0  0
    5.0510    6.6565   22.6216 O   0  0  0  0  0  0  0  0  0  0  0  0
    3.7180    5.5430   23.6730 H   0  0  0  0  0  0  0  0  0  0  0  0
    4.1245    4.8834   22.0786 H   0  0  0  0  0  0  0  0  0  0  0  0
    5.3442    3.5150   23.6544 H   0  0  0  0  0  0  0  0  0  0  0  0
    7.5409    5.2931   23.1606 H   0  0  0  0  0  0  0  0  0  0  0  0
    7.5643    5.3874   20.8445 H   0  0  0  0  0  0  0  0  0  0  0  0
    6.0306    4.5242   20.7519 H   0  0  0  0  0  0  0  0  0  0  0  0
    5.2661    6.7065   20.5785 H   0  0  0  0  0  0  0  0  0  0  0  0
    6.3694    8.7042   21.5882 H   0  0  0  0  0  0  0  0  0  0  0  0
    7.5145    7.6438   22.4431 H   0  0  0  0  0  0  0  0  0  0  0  0
    7.5158    7.7051   20.6669 H   0  0  0  0  0  0  0  0  0  0  0  0
  1  2  1  0
  2  3  1  0
  3  4  1  0
  4  5  1  0
  5  6  1  0
  6  7  1  0
  7  8  1  0
  9  8  1  1
  9 10  1  0
 10 11  2  0
 10 12  1  0
 12 13  1  0
 13 14  2  0
 14 15  1  0
 15 16  2  0
 16 17  1  0
 17 18  2  0
 18 19  1  0
 19 20  2  0
 20 21  1  0
 21 22  2  0
 21 23  1  0
 20 24  1  0
 19 25  1  0
 18 26  1  0
 16 27  1  0
 14 28  1  0
 12 29  1  0
 29 30  1  0
 30 31  1  0
 31 32  1  0
 31 33  1  0
 31 34  1  0
 30 35  1  6
 29 36  1  0
 29 37  1  0
  9 38  1  0
 38 39  2  0
 39 40  1  0
 40 41  1  0
 40 42  2  0
 42 43  1  0
 43 44  2  0
 44 45  1  0
 45 46  2  0
 43 47  1  0
 42 48  1  0
 39 49  1  0
  8 50  1  0
  8 51  1  0
  6 52  1  0
  6 53  1  0
  5 54  1  0
  5 55  1  0
  4 56  1  0
 56 57  1  0
 57 58  1  0
 57 59  1  0
 57 60  1  0
 56 61  1  0
 61 62  1  0
 61 63  1  0
 61 64  1  0
 56 65  1  1
  4 66  1  1
  3 67  1  0
  3 68  1  0
  2 69  1  6
  1 70  1  0
  1 71  1  0
  1 72  1  0
 62  2  1  0
 45  7  1  0
 30  9  1  0
 44 38  1  0
 22 13  1  0
 22 17  1  0
M  CHG  1   4   1
M  END
>  <cnnaffinities>  (15) 
[6.58044]

>  <score>  (15) 
6.58044

>  <index>  (15) 
15

>  <Smiles>  (15) 
C([C@]1(C([N@+](C(C(N2C([C@@]3(C(=O)N(c4c(nc(c5c(c(c(c(c45)[H])[H])[H])[H])[H])[H])C([C@@]3(C([H])([H])[H])[H])([H])[H])c3c(c(Cl)c(c(c3C2=O)[H])[H])[H])([H])[H])([H])[H])([H])[H])([C@@](C([H])([H])[H])(C(O1)([H])[H])[H])[H])([H])[H])[H])([H])([H])[H]

>  <h>  (15) 
<NA>

>  <Training>  (15) 
True

>  <Success>  (15) 
True

>  <enamine_searched>  (15) 
False

>  <enamine_id>  (15) 
nan

$$$$

     RDKit          3D

 47 50  0  0  0  0  0  0  0  0999 V2000
    8.6488   -4.4016   23.8538 C   0  0  0  0  0  0  0  0  0  0  0  0
    7.3679   -3.7452   24.3748 C   0  0  1  0  0  0  0  0  0  0  0  0
    7.6670   -2.3404   24.9335 C   0  0  0  0  0  0  0  0  0  0  0  0
    7.4274   -1.3533   23.7644 C   0  0  2  0  0  0  0  0  0  0  0  0
    6.6466   -0.1317   24.2331 C   0  0  0  0  0  0  0  0  0  0  0  0
    5.3166   -0.2441   24.6434 C   0  0  0  0  0  0  0  0  0  0  0  0
    4.6263    0.8687   25.1122 C   0  0  0  0  0  0  0  0  0  0  0  0
    5.2631    2.1080   25.1894 C   0  0  0  0  0  0  0  0  0  0  0  0
    6.5996    2.2216   24.8102 C   0  0  0  0  0  0  0  0  0  0  0  0
    7.2855    1.1033   24.3416 C   0  0  0  0  0  0  0  0  0  0  0  0
    8.3360    1.1840   24.0618 H   0  0  0  0  0  0  0  0  0  0  0  0
    7.1066    3.1804   24.8679 H   0  0  0  0  0  0  0  0  0  0  0  0
    4.7166    2.9784   25.5432 H   0  0  0  0  0  0  0  0  0  0  0  0
    3.5913    0.7579   25.4288 H   0  0  0  0  0  0  0  0  0  0  0  0
    4.8239   -1.2163   24.6274 H   0  0  0  0  0  0  0  0  0  0  0  0
    6.7274   -2.1647   22.7672 N   0  0  0  0  0  0  0  0  0  0  0  0
    6.2449   -1.7541   21.5555 C   0  0  0  0  0  0  0  0  0  0  0  0
    5.3931   -2.4086   20.9744 O   0  0  0  0  0  0  0  0  0  0  0  0
    6.8967   -0.5087   20.9250 C   0  0  0  0  0  0  0  0  0  0  0  0
    6.0975    0.0692   19.7912 C   0  0  0  0  0  0  0  0  0  0  0  0
    6.4177   -0.2267   18.4896 C   0  0  0  0  0  0  0  0  0  0  0  0
    5.7610    0.2331   17.3950 N   0  0  0  0  0  0  0  0  0  0  0  0
    4.7419    1.0256   17.5967 C   0  0  0  0  0  0  0  0  0  0  0  0
    4.2854    1.4157   18.8848 C   0  0  0  0  0  0  0  0  0  0  0  0
    3.1721    2.2704   19.0492 C   0  0  0  0  0  0  0  0  0  0  0  0
    2.7554    2.6207   20.3026 C   0  0  0  0  0  0  0  0  0  0  0  0
    3.4398    2.1331   21.4410 C   0  0  0  0  0  0  0  0  0  0  0  0
    4.5255    1.3044   21.3105 C   0  0  0  0  0  0  0  0  0  0  0  0
    4.9775    0.9227   20.0187 C   0  0  0  0  0  0  0  0  0  0  0  0
    5.0402    0.9420   22.2003 H   0  0  0  0  0  0  0  0  0  0  0  0
    3.1038    2.4286   22.4286 H   0  0  0  0  0  0  0  0  0  0  0  0
    1.9062    3.2807   20.4344 H   0  0  0  0  0  0  0  0  0  0  0  0
    2.6746    2.6405   18.1553 H   0  0  0  0  0  0  0  0  0  0  0  0
    4.2199    1.3945   16.7129 H   0  0  0  0  0  0  0  0  0  0  0  0
    7.2644   -0.8705   18.2595 H   0  0  0  0  0  0  0  0  0  0  0  0
    7.1183    0.2473   21.6853 H   0  0  0  0  0  0  0  0  0  0  0  0
    7.8740   -0.8284   20.5371 H   0  0  0  0  0  0  0  0  0  0  0  0
    6.3904   -3.5094   23.2160 C   0  0  0  0  0  0  0  0  0  0  0  0
    5.3264   -3.5823   23.4934 H   0  0  0  0  0  0  0  0  0  0  0  0
    6.5422   -4.2214   22.3931 H   0  0  0  0  0  0  0  0  0  0  0  0
    8.3778   -0.9789   23.3511 H   0  0  0  0  0  0  0  0  0  0  0  0
    7.0064   -2.0849   25.7751 H   0  0  0  0  0  0  0  0  0  0  0  0
    8.7001   -2.2779   25.2923 H   0  0  0  0  0  0  0  0  0  0  0  0
    6.9113   -4.3795   25.1455 H   0  0  0  0  0  0  0  0  0  0  0  0
    9.1446   -3.8027   23.0763 H   0  0  0  0  0  0  0  0  0  0  0  0
    8.4099   -5.3825   23.4322 H   0  0  0  0  0  0  0  0  0  0  0  0
    9.3499   -4.5226   24.6829 H   0  0  0  0  0  0  0  0  0  0  0  0
  1  2  1  0
  2  3  1  0
  3  4  1  0
  4  5  1  0
  5  6  2  0
  6  7  1  0
  7  8  2  0
  8  9  1  0
  9 10  2  0
 10 11  1  0
  9 12  1  0
  8 13  1  0
  7 14  1  0
  6 15  1  0
  4 16  1  0
 16 17  1  0
 17 18  2  0
 17 19  1  0
 19 20  1  0
 20 21  2  0
 21 22  1  0
 22 23  2  0
 23 24  1  0
 24 25  2  0
 25 26  1  0
 26 27  2  0
 27 28  1  0
 28 29  2  0
 28 30  1  0
 27 31  1  0
 26 32  1  0
 25 33  1  0
 23 34  1  0
 21 35  1  0
 19 36  1  0
 19 37  1  0
 16 38  1  0
 38 39  1  0
 38 40  1  0
  4 41  1  6
  3 42  1  0
  3 43  1  0
  2 44  1  1
  1 45  1  0
  1 46  1  0
  1 47  1  0
 38  2  1  0
 10  5  1  0
 29 20  1  0
 29 24  1  0
M  END
>  <cnnaffinities>  (16) 
[5.71368]

>  <score>  (16) 
5.71368

>  <index>  (16) 
16

>  <Smiles>  (16) 
C([C@]1(C([C@](c2c(c(c(c(c2[H])[H])[H])[H])[H])(N(C(=O)C(c2c(nc(c3c(c(c(c(c23)[H])[H])[H])[H])[H])[H])([H])[H])C1([H])[H])[H])([H])[H])[H])([H])([H])[H]

>  <h>  (16) 
<NA>

>  <Training>  (16) 
True

>  <Success>  (16) 
True

>  <enamine_searched>  (16) 
False

>  <enamine_id>  (16) 
nan

$$$$

     RDKit          3D

 58 63  0  0  0  0  0  0  0  0999 V2000
    9.6931   -1.9792   21.8321 C   0  0  0  0  0  0  0  0  0  0  0  0
    8.6296   -0.9890   22.3298 C   0  0  1  0  0  0  0  0  0  0  0  0
    8.1956   -0.0539   21.1768 C   0  0  0  0  0  0  0  0  0  0  0  0
    6.8640   -0.4961   20.8396 N   0  0  0  0  0  0  0  0  0  0  0  0
    6.1087    0.0562   19.7807 C   0  0  0  0  0  0  0  0  0  0  0  0
    6.4603   -0.2143   18.4835 C   0  0  0  0  0  0  0  0  0  0  0  0
    5.7981    0.2503   17.4016 N   0  0  0  0  0  0  0  0  0  0  0  0
    4.7649    1.0267   17.6120 C   0  0  0  0  0  0  0  0  0  0  0  0
    4.3085    1.4058   18.9051 C   0  0  0  0  0  0  0  0  0  0  0  0
    3.1930    2.2666   19.0654 C   0  0  0  0  0  0  0  0  0  0  0  0
    2.7934    2.6496   20.3147 C   0  0  0  0  0  0  0  0  0  0  0  0
    3.4899    2.1864   21.4560 C   0  0  0  0  0  0  0  0  0  0  0  0
    4.5664    1.3414   21.3322 C   0  0  0  0  0  0  0  0  0  0  0  0
    4.9965    0.9199   20.0373 C   0  0  0  0  0  0  0  0  0  0  0  0
    5.0917    0.9865   22.2210 H   0  0  0  0  0  0  0  0  0  0  0  0
    3.1660    2.5089   22.4411 H   0  0  0  0  0  0  0  0  0  0  0  0
    1.9486    3.3232   20.4357 H   0  0  0  0  0  0  0  0  0  0  0  0
    2.6915    2.6278   18.1719 H   0  0  0  0  0  0  0  0  0  0  0  0
    4.2325    1.3927   16.7355 H   0  0  0  0  0  0  0  0  0  0  0  0
    7.3154   -0.8576   18.2796 H   0  0  0  0  0  0  0  0  0  0  0  0
    6.3335   -1.4282   21.6915 C   0  0  0  0  0  0  0  0  0  0  0  0
    5.2626   -1.9789   21.5061 O   0  0  0  0  0  0  0  0  0  0  0  0
    7.3045   -1.6247   22.8741 C   0  0  1  0  0  0  0  0  0  0  0  0
    7.3905   -3.1452   23.2021 C   0  0  0  0  0  0  0  0  0  0  0  0
    6.1571   -3.6436   23.8058 N   0  0  0  0  0  0  0  0  0  0  0  0
    5.3358   -4.6177   23.0499 C   0  0  0  0  0  0  0  0  0  0  0  0
    6.0745   -5.9065   22.8658 C   0  0  0  0  0  0  0  0  0  0  0  0
    6.4339   -6.5136   21.7616 N   0  0  0  0  0  0  0  0  0  0  0  0
    7.3375   -7.4888   22.1134 N   0  0  0  0  0  0  0  0  0  0  0  0
    7.4649   -7.4507   23.4060 C   0  0  0  0  0  0  0  0  0  0  0  0
    6.6461   -6.5003   23.9552 N   0  0  0  0  0  0  0  0  0  0  0  0
    6.1035   -6.3994   25.3075 C   0  0  0  0  0  0  0  0  0  0  0  0
    5.0768   -6.7746   25.3335 H   0  0  0  0  0  0  0  0  0  0  0  0
    6.1196   -5.3761   25.6872 H   0  0  0  0  0  0  0  0  0  0  0  0
    6.7068   -7.0048   25.9650 H   0  0  0  0  0  0  0  0  0  0  0  0
    8.2615   -7.9522   23.9358 H   0  0  0  0  0  0  0  0  0  0  0  0
    5.0469   -4.1883   22.0836 H   0  0  0  0  0  0  0  0  0  0  0  0
    4.4404   -4.7696   23.6600 H   0  0  0  0  0  0  0  0  0  0  0  0
    5.5823   -2.9782   24.8601 C   0  0  0  0  0  0  0  0  0  0  0  0
    4.7247   -3.4811   25.5716 O   0  0  0  0  0  0  0  0  0  0  0  0
    6.0263   -1.5592   25.0740 C   0  0  0  0  0  0  0  0  0  0  0  0
    5.5679   -0.9080   26.2217 C   0  0  0  0  0  0  0  0  0  0  0  0
    5.8224    0.4325   26.4322 C   0  0  0  0  0  0  0  0  0  0  0  0
    6.5387    1.1188   25.4606 C   0  0  0  0  0  0  0  0  0  0  0  0
    6.7823    2.4318   25.6481 F   0  0  0  0  0  0  0  0  0  0  0  0
    7.0135    0.4957   24.3181 C   0  0  0  0  0  0  0  0  0  0  0  0
    6.7896   -0.8813   24.1154 C   0  0  0  0  0  0  0  0  0  0  0  0
    7.5656    1.1175   23.6210 H   0  0  0  0  0  0  0  0  0  0  0  0
    5.4740    0.9522   27.3183 H   0  0  0  0  0  0  0  0  0  0  0  0
    4.9915   -1.4736   26.9448 H   0  0  0  0  0  0  0  0  0  0  0  0
    7.5569   -3.7296   22.2947 H   0  0  0  0  0  0  0  0  0  0  0  0
    8.2353   -3.3153   23.8885 H   0  0  0  0  0  0  0  0  0  0  0  0
    8.2068    1.0089   21.4596 H   0  0  0  0  0  0  0  0  0  0  0  0
    8.8587   -0.1518   20.3146 H   0  0  0  0  0  0  0  0  0  0  0  0
    9.1042   -0.4019   23.1252 H   0  0  0  0  0  0  0  0  0  0  0  0
   10.0502   -2.6234   22.6416 H   0  0  0  0  0  0  0  0  0  0  0  0
    9.3138   -2.6188   21.0258 H   0  0  0  0  0  0  0  0  0  0  0  0
   10.5607   -1.4311   21.4403 H   0  0  0  0  0  0  0  0  0  0  0  0
  1  2  1  0
  2  3  1  0
  3  4  1  0
  4  5  1  0
  5  6  2  0
  6  7  1  0
  7  8  2  0
  8  9  1  0
  9 10  2  0
 10 11  1  0
 11 12  2  0
 12 13  1  0
 13 14  2  0
 13 15  1  0
 12 16  1  0
 11 17  1  0
 10 18  1  0
  8 19  1  0
  6 20  1  0
  4 21  1  0
 21 22  2  0
 21 23  1  0
 23 24  1  1
 24 25  1  0
 25 26  1  0
 26 27  1  0
 27 28  2  0
 28 29  1  0
 29 30  2  0
 30 31  1  0
 31 32  1  0
 32 33  1  0
 32 34  1  0
 32 35  1  0
 30 36  1  0
 26 37  1  0
 26 38  1  0
 25 39  1  0
 39 40  2  0
 39 41  1  0
 41 42  2  0
 42 43  1  0
 43 44  2  0
 44 45  1  0
 44 46  1  0
 46 47  2  0
 46 48  1  0
 43 49  1  0
 42 50  1  0
 24 51  1  0
 24 52  1  0
  3 53  1  0
  3 54  1  0
  2 55  1  1
  1 56  1  0
  1 57  1  0
  1 58  1  0
 23  2  1  0
 31 27  1  0
 47 41  1  0
 14  5  1  0
 47 23  1  0
 14  9  1  0
M  END
>  <cnnaffinities>  (17) 
[6.19448, 6.03363]

>  <score>  (17) 
6.19448

>  <index>  (17) 
17

>  <Smiles>  (17) 
C([C@]1(C(N(c2c(nc(c3c(c(c(c(c23)[H])[H])[H])[H])[H])[H])C(=O)[C@]21C(N(C(c1nnc(n1C([H])([H])[H])[H])([H])[H])C(=O)c1c(c(c(F)c(c21)[H])[H])[H])([H])[H])([H])[H])[H])([H])([H])[H]

>  <h>  (17) 
<NA>

>  <Training>  (17) 
True

>  <Success>  (17) 
True

>  <enamine_searched>  (17) 
False

>  <enamine_id>  (17) 
nan

$$$$

     RDKit          3D

 50 53  0  0  0  0  0  0  0  0999 V2000
    3.8995   -1.8216   29.4056 C   0  0  0  0  0  0  0  0  0  0  0  0
    3.9671   -2.1681   27.9143 C   0  0  1  0  0  0  0  0  0  0  0  0
    4.0380   -0.9116   27.0342 C   0  0  0  0  0  0  0  0  0  0  0  0
    4.1538   -1.2474   25.5299 C   0  0  0  0  0  0  0  0  0  0  0  0
    5.3295   -2.2062   25.1934 C   0  0  2  0  0  0  0  0  0  0  0  0
    6.6845   -1.4588   25.3059 C   0  0  0  0  0  0  0  0  0  0  0  0
    6.9584   -0.8404   23.9179 C   0  0  0  0  0  0  0  0  0  0  0  0
    6.1488   -1.6641   23.0186 N   0  0  0  0  0  0  0  0  0  0  0  0
    6.1371   -1.6386   21.6572 C   0  0  0  0  0  0  0  0  0  0  0  0
    5.5601   -2.5029   21.0165 O   0  0  0  0  0  0  0  0  0  0  0  0
    6.8893   -0.4966   20.9352 C   0  0  0  0  0  0  0  0  0  0  0  0
    6.1039    0.0852   19.7792 C   0  0  0  0  0  0  0  0  0  0  0  0
    6.4196   -0.2169   18.4823 C   0  0  0  0  0  0  0  0  0  0  0  0
    5.7577    0.2363   17.3845 N   0  0  0  0  0  0  0  0  0  0  0  0
    4.7385    1.0299   17.5846 C   0  0  0  0  0  0  0  0  0  0  0  0
    4.2859    1.4256   18.8707 C   0  0  0  0  0  0  0  0  0  0  0  0
    3.1643    2.2741   19.0463 C   0  0  0  0  0  0  0  0  0  0  0  0
    2.7485    2.6233   20.3001 C   0  0  0  0  0  0  0  0  0  0  0  0
    3.4382    2.1397   21.4357 C   0  0  0  0  0  0  0  0  0  0  0  0
    4.5278    1.3213   21.2936 C   0  0  0  0  0  0  0  0  0  0  0  0
    4.9839    0.9414   20.0032 C   0  0  0  0  0  0  0  0  0  0  0  0
    5.0508    0.9569   22.1751 H   0  0  0  0  0  0  0  0  0  0  0  0
    3.1052    2.4273   22.4289 H   0  0  0  0  0  0  0  0  0  0  0  0
    1.8934    3.2802   20.4316 H   0  0  0  0  0  0  0  0  0  0  0  0
    2.6583    2.6414   18.1563 H   0  0  0  0  0  0  0  0  0  0  0  0
    4.2115    1.3948   16.7004 H   0  0  0  0  0  0  0  0  0  0  0  0
    7.2638   -0.8691   18.2519 H   0  0  0  0  0  0  0  0  0  0  0  0
    7.8135   -0.9310   20.5279 H   0  0  0  0  0  0  0  0  0  0  0  0
    7.1984    0.2902   21.6320 H   0  0  0  0  0  0  0  0  0  0  0  0
    5.4024   -2.7000   23.7274 C   0  0  0  0  0  0  0  0  0  0  0  0
    5.9203   -3.6666   23.6465 H   0  0  0  0  0  0  0  0  0  0  0  0
    4.4435   -2.8824   23.2445 H   0  0  0  0  0  0  0  0  0  0  0  0
    8.0219   -0.8878   23.6456 H   0  0  0  0  0  0  0  0  0  0  0  0
    6.6723    0.2232   23.8726 H   0  0  0  0  0  0  0  0  0  0  0  0
    6.6848   -0.6957   26.0931 H   0  0  0  0  0  0  0  0  0  0  0  0
    7.4630   -2.1941   25.5437 H   0  0  0  0  0  0  0  0  0  0  0  0
    5.2328   -3.4273   26.1179 C   0  0  0  0  0  0  0  0  0  0  0  0
    5.1628   -3.0778   27.6061 C   0  0  0  0  0  0  0  0  0  0  0  0
    5.0872   -3.9932   28.2088 H   0  0  0  0  0  0  0  0  0  0  0  0
    6.0934   -2.5730   27.9149 H   0  0  0  0  0  0  0  0  0  0  0  0
    4.3268   -3.9832   25.8312 H   0  0  0  0  0  0  0  0  0  0  0  0
    6.0890   -4.0833   25.9172 H   0  0  0  0  0  0  0  0  0  0  0  0
    3.2145   -1.7357   25.2414 H   0  0  0  0  0  0  0  0  0  0  0  0
    4.2371   -0.3190   24.9485 H   0  0  0  0  0  0  0  0  0  0  0  0
    3.1373   -0.3071   27.2137 H   0  0  0  0  0  0  0  0  0  0  0  0
    4.8853   -0.2877   27.3647 H   0  0  0  0  0  0  0  0  0  0  0  0
    3.0492   -2.7176   27.6364 H   0  0  0  0  0  0  0  0  0  0  0  0
    3.0330   -1.1886   29.6338 H   0  0  0  0  0  0  0  0  0  0  0  0
    3.8323   -2.7290   30.0192 H   0  0  0  0  0  0  0  0  0  0  0  0
    4.8034   -1.2783   29.7154 H   0  0  0  0  0  0  0  0  0  0  0  0
  1  2  1  0
  2  3  1  0
  3  4  1  0
  5  4  1  6
  5  6  1  0
  6  7  1  0
  7  8  1  0
  8  9  1  0
  9 10  2  0
  9 11  1  0
 11 12  1  0
 12 13  2  0
 13 14  1  0
 14 15  2  0
 15 16  1  0
 16 17  2  0
 17 18  1  0
 18 19  2  0
 19 20  1  0
 20 21  2  0
 20 22  1  0
 19 23  1  0
 18 24  1  0
 17 25  1  0
 15 26  1  0
 13 27  1  0
 11 28  1  0
 11 29  1  0
  8 30  1  0
 30 31  1  0
 30 32  1  0
  7 33  1  0
  7 34  1  0
  6 35  1  0
  6 36  1  0
  5 37  1  0
 37 38  1  0
 38 39  1  0
 38 40  1  0
 37 41  1  0
 37 42  1  0
  4 43  1  0
  4 44  1  0
  3 45  1  0
  3 46  1  0
  2 47  1  6
  1 48  1  0
  1 49  1  0
  1 50  1  0
 38  2  1  0
 30  5  1  0
 21 12  1  0
 21 16  1  0
M  END
>  <cnnaffinities>  (18) 
[5.27606, 5.36271]

>  <score>  (18) 
5.27606

>  <index>  (18) 
18

>  <Smiles>  (18) 
C([C@]1(C(C([C@@]2(C(C(N(C(=O)C(c3c(nc(c4c(c(c(c(c34)[H])[H])[H])[H])[H])[H])([H])[H])C2([H])[H])([H])[H])([H])[H])C(C1([H])[H])([H])[H])([H])[H])([H])[H])[H])([H])([H])[H]

>  <h>  (18) 
<NA>

>  <Training>  (18) 
True

>  <Success>  (18) 
True

>  <enamine_searched>  (18) 
False

>  <enamine_id>  (18) 
nan

$$$$

     RDKit          3D

 67 71  0  0  0  0  0  0  0  0999 V2000
    3.5640   -4.5585   23.2865 O   0  0  0  0  0  0  0  0  0  0  0  0
    4.4727   -4.8990   24.0329 C   0  0  0  0  0  0  0  0  0  0  0  0
    5.9103   -5.0323   23.5265 C   0  0  0  0  0  0  0  0  0  0  0  0
    6.4531   -3.6733   23.2178 N   0  0  1  0  0  4  0  0  0  0  0  0
    6.6476   -2.8665   24.5001 C   0  0  0  0  0  0  0  0  0  0  0  0
    7.4872   -1.6074   24.3648 C   0  0  0  0  0  0  0  0  0  0  0  0
    7.5510   -0.6939   25.4230 C   0  0  0  0  0  0  0  0  0  0  0  0
    8.3924    0.4131   25.3681 C   0  0  0  0  0  0  0  0  0  0  0  0
    9.1980    0.5957   24.2474 C   0  0  0  0  0  0  0  0  0  0  0  0
   10.2981    1.9482   24.1787 Cl  0  0  0  0  0  0  0  0  0  0  0  0
    9.1343   -0.2893   23.1785 C   0  0  0  0  0  0  0  0  0  0  0  0
    8.2509   -1.3692   23.2265 C   0  0  0  0  0  0  0  0  0  0  0  0
    8.0363   -2.2487   22.0209 C   0  0  2  0  0  0  0  0  0  0  0  0
    6.8553   -1.7668   21.1711 C   0  0  0  0  0  0  0  0  0  0  0  0
    5.9560   -2.5151   20.8252 O   0  0  0  0  0  0  0  0  0  0  0  0
    6.8543   -0.4319   20.8575 N   0  0  0  0  0  0  0  0  0  0  0  0
    6.1059    0.0856   19.7808 C   0  0  0  0  0  0  0  0  0  0  0  0
    6.4370   -0.2324   18.4877 C   0  0  0  0  0  0  0  0  0  0  0  0
    5.7941    0.2480   17.3967 N   0  0  0  0  0  0  0  0  0  0  0  0
    4.7771    1.0484   17.6042 C   0  0  0  0  0  0  0  0  0  0  0  0
    4.3240    1.4453   18.8950 C   0  0  0  0  0  0  0  0  0  0  0  0
    3.1966    2.2855   19.0678 C   0  0  0  0  0  0  0  0  0  0  0  0
    2.7640    2.6131   20.3220 C   0  0  0  0  0  0  0  0  0  0  0  0
    3.4378    2.1213   21.4615 C   0  0  0  0  0  0  0  0  0  0  0  0
    4.5361    1.3091   21.3264 C   0  0  0  0  0  0  0  0  0  0  0  0
    5.0041    0.9556   20.0303 C   0  0  0  0  0  0  0  0  0  0  0  0
    5.0206    0.9137   22.2164 H   0  0  0  0  0  0  0  0  0  0  0  0
    3.0755    2.3917   22.4486 H   0  0  0  0  0  0  0  0  0  0  0  0
    1.9039    3.2638   20.4481 H   0  0  0  0  0  0  0  0  0  0  0  0
    2.6894    2.6479   18.1790 H   0  0  0  0  0  0  0  0  0  0  0  0
    4.2299    1.4086   16.7320 H   0  0  0  0  0  0  0  0  0  0  0  0
    7.2939   -0.8814   18.3120 H   0  0  0  0  0  0  0  0  0  0  0  0
    7.2854    0.2274   21.4912 H   0  0  0  0  0  0  0  0  0  0  0  0
    7.7400   -3.6808   22.4384 C   0  0  0  0  0  0  0  0  0  0  0  0
    8.5458   -4.0968   23.0487 H   0  0  0  0  0  0  0  0  0  0  0  0
    7.6153   -4.2977   21.5518 H   0  0  0  0  0  0  0  0  0  0  0  0
    8.9271   -2.1850   21.3880 H   0  0  0  0  0  0  0  0  0  0  0  0
    9.7637   -0.1329   22.3061 H   0  0  0  0  0  0  0  0  0  0  0  0
    8.4314    1.1294   26.1835 H   0  0  0  0  0  0  0  0  0  0  0  0
    6.9487   -0.8385   26.3192 H   0  0  0  0  0  0  0  0  0  0  0  0
    5.6687   -2.6123   24.9158 H   0  0  0  0  0  0  0  0  0  0  0  0
    7.1297   -3.5300   25.2284 H   0  0  0  0  0  0  0  0  0  0  0  0
    5.7423   -3.2135   22.6090 H   0  0  0  0  0  0  0  0  0  0  0  0
    6.5376   -5.5294   24.2770 H   0  0  0  0  0  0  0  0  0  0  0  0
    5.9068   -5.6504   22.6215 H   0  0  0  0  0  0  0  0  0  0  0  0
    4.2975   -5.1483   25.3585 N   0  0  0  0  0  0  0  0  0  0  0  0
    2.9747   -5.2164   25.9556 C   0  0  0  0  0  0  0  0  0  0  0  0
    2.2610   -6.5472   25.6408 C   0  0  0  0  0  0  0  0  0  0  0  0
    0.8741   -6.6444   26.2326 C   0  0  0  0  0  0  0  0  0  0  0  0
   -0.2373   -6.1512   25.5420 C   0  0  0  0  0  0  0  0  0  0  0  0
   -1.5093   -6.2049   26.1007 C   0  0  0  0  0  0  0  0  0  0  0  0
   -1.6997   -6.7533   27.3676 C   0  0  0  0  0  0  0  0  0  0  0  0
   -3.0667   -6.7929   27.9822 C   0  0  0  0  0  0  0  0  0  0  0  0
   -3.9817   -7.2502   27.0774 F   0  0  0  0  0  0  0  0  0  0  0  0
   -3.4645   -5.5359   28.3357 F   0  0  0  0  0  0  0  0  0  0  0  0
   -3.1159   -7.4309   28.8733 H   0  0  0  0  0  0  0  0  0  0  0  0
   -0.5998   -7.2492   28.0598 C   0  0  0  0  0  0  0  0  0  0  0  0
    0.6724   -7.1974   27.4991 C   0  0  0  0  0  0  0  0  0  0  0  0
    1.5172   -7.6076   28.0505 H   0  0  0  0  0  0  0  0  0  0  0  0
   -0.7307   -7.6897   29.0462 H   0  0  0  0  0  0  0  0  0  0  0  0
   -2.3623   -5.8264   25.5473 H   0  0  0  0  0  0  0  0  0  0  0  0
   -0.1151   -5.7311   24.5440 H   0  0  0  0  0  0  0  0  0  0  0  0
    2.2075   -6.6311   24.5487 H   0  0  0  0  0  0  0  0  0  0  0  0
    2.8823   -7.3813   25.9971 H   0  0  0  0  0  0  0  0  0  0  0  0
    3.0715   -5.0778   27.0376 H   0  0  0  0  0  0  0  0  0  0  0  0
    2.3911   -4.3803   25.5605 H   0  0  0  0  0  0  0  0  0  0  0  0
    5.1039   -5.3485   25.9283 H   0  0  0  0  0  0  0  0  0  0  0  0
  1  2  2  0
  2  3  1  0
  3  4  1  0
  4  5  1  0
  5  6  1  0
  6  7  2  0
  7  8  1  0
  8  9  2  0
  9 10  1  0
  9 11  1  0
 11 12  2  0
 12 13  1  0
 13 14  1  0
 14 15  2  0
 14 16  1  0
 16 17  1  0
 17 18  2  0
 18 19  1  0
 19 20  2  0
 20 21  1  0
 21 22  2  0
 22 23  1  0
 23 24  2  0
 24 25  1  0
 25 26  2  0
 25 27  1  0
 24 28  1  0
 23 29  1  0
 22 30  1  0
 20 31  1  0
 18 32  1  0
 16 33  1  0
 13 34  1  0
 34 35  1  0
 34 36  1  0
 13 37  1  6
 11 38  1  0
  8 39  1  0
  7 40  1  0
  5 41  1  0
  5 42  1  0
  4 43  1  6
  3 44  1  0
  3 45  1  0
  2 46  1  0
 46 47  1  0
 47 48  1  0
 48 49  1  0
 49 50  2  0
 50 51  1  0
 51 52  2  0
 52 53  1  0
 53 54  1  0
 53 55  1  0
 53 56  1  0
 52 57  1  0
 57 58  2  0
 58 59  1  0
 57 60  1  0
 51 61  1  0
 50 62  1  0
 48 63  1  0
 48 64  1  0
 47 65  1  0
 47 66  1  0
 46 67  1  0
 34  4  1  0
 58 49  1  0
 12  6  1  0
 26 17  1  0
 26 21  1  0
M  CHG  1   4   1
M  END
>  <cnnaffinities>  (19) 
[6.26182, 5.92389, 6.65759]

>  <score>  (19) 
6.26182

>  <index>  (19) 
19

>  <Smiles>  (19) 
O=C(C([N@+]1(C(c2c(c(c(Cl)c(c2[C@](C(=O)N(c2c(nc(c3c(c(c(c(c23)[H])[H])[H])[H])[H])[H])[H])(C1([H])[H])[H])[H])[H])[H])([H])[H])[H])([H])[H])N(C(C(c1c(c(c(C(F)(F)[H])c(c1[H])[H])[H])[H])([H])[H])([H])[H])[H]

>  <h>  (19) 
<NA>

>  <Training>  (19) 
True

>  <Success>  (19) 
True

>  <enamine_searched>  (19) 
False

>  <enamine_id>  (19) 
nan

$$$$

     RDKit          3D

 66 70  0  0  0  0  0  0  0  0999 V2000
    7.4719   -3.7429   27.9540 C   0  0  0  0  0  0  0  0  0  0  0  0
    6.2060   -4.5436   28.3077 C   0  0  0  0  0  0  0  0  0  0  0  0
    5.3603   -4.4351   27.0657 C   0  0  0  0  0  0  0  0  0  0  0  0
    4.6537   -3.4758   26.8300 O   0  0  0  0  0  0  0  0  0  0  0  0
    5.5831   -5.4532   26.1383 N   0  0  0  0  0  0  0  0  0  0  0  0
    5.7686   -6.8180   26.6099 C   0  0  0  0  0  0  0  0  0  0  0  0
    5.2105   -7.7742   25.5665 C   0  0  0  0  0  0  0  0  0  0  0  0
    5.8602   -7.5725   24.2114 C   0  0  0  0  0  0  0  0  0  0  0  0
    6.0173   -6.1286   23.8483 C   0  0  0  0  0  0  0  0  0  0  0  0
    6.3133   -5.7942   22.5336 C   0  0  0  0  0  0  0  0  0  0  0  0
    6.4953   -4.4801   22.1594 C   0  0  0  0  0  0  0  0  0  0  0  0
    6.4107   -3.4873   23.1310 C   0  0  0  0  0  0  0  0  0  0  0  0
    6.6657   -2.1508   22.7534 N   0  0  0  0  0  0  0  0  0  0  0  0
    6.1862   -1.7053   21.5155 C   0  0  0  0  0  0  0  0  0  0  0  0
    5.2996   -2.3019   20.9404 O   0  0  0  0  0  0  0  0  0  0  0  0
    6.8904   -0.4931   20.9257 C   0  0  0  0  0  0  0  0  0  0  0  0
    6.1105    0.0879   19.7915 C   0  0  0  0  0  0  0  0  0  0  0  0
    6.4295   -0.2311   18.4996 C   0  0  0  0  0  0  0  0  0  0  0  0
    5.7755    0.2165   17.3984 N   0  0  0  0  0  0  0  0  0  0  0  0
    4.7542    1.0137   17.5971 C   0  0  0  0  0  0  0  0  0  0  0  0
    4.2904    1.4091   18.8827 C   0  0  0  0  0  0  0  0  0  0  0  0
    3.1735    2.2662   19.0488 C   0  0  0  0  0  0  0  0  0  0  0  0
    2.7499    2.6209   20.2999 C   0  0  0  0  0  0  0  0  0  0  0  0
    3.4276    2.1342   21.4400 C   0  0  0  0  0  0  0  0  0  0  0  0
    4.5166    1.3087   21.3075 C   0  0  0  0  0  0  0  0  0  0  0  0
    4.9802    0.9257   20.0191 C   0  0  0  0  0  0  0  0  0  0  0  0
    5.0290    0.9561   22.1975 H   0  0  0  0  0  0  0  0  0  0  0  0
    3.0873    2.4212   22.4319 H   0  0  0  0  0  0  0  0  0  0  0  0
    1.8966    3.2799   20.4258 H   0  0  0  0  0  0  0  0  0  0  0  0
    2.6723    2.6418   18.1599 H   0  0  0  0  0  0  0  0  0  0  0  0
    4.2321    1.3879   16.7155 H   0  0  0  0  0  0  0  0  0  0  0  0
    7.2751   -0.8927   18.3084 H   0  0  0  0  0  0  0  0  0  0  0  0
    7.0813    0.2331   21.7208 H   0  0  0  0  0  0  0  0  0  0  0  0
    7.8670   -0.8551   20.5718 H   0  0  0  0  0  0  0  0  0  0  0  0
    7.3549   -1.3462   23.6404 N   0  0  0  0  0  0  0  0  0  0  0  0
    8.7652   -1.6029   23.8658 C   0  0  0  0  0  0  0  0  0  0  0  0
    8.9871   -2.6321   23.5728 H   0  0  0  0  0  0  0  0  0  0  0  0
    9.4257   -0.9263   23.2997 H   0  0  0  0  0  0  0  0  0  0  0  0
    9.0065   -1.4986   24.9310 H   0  0  0  0  0  0  0  0  0  0  0  0
    6.6631   -0.3499   24.3263 C   0  0  0  0  0  0  0  0  0  0  0  0
    7.3431    0.7792   24.7881 C   0  0  0  0  0  0  0  0  0  0  0  0
    6.6414    1.8102   25.3974 C   0  0  0  0  0  0  0  0  0  0  0  0
    5.2640    1.7382   25.5669 C   0  0  0  0  0  0  0  0  0  0  0  0
    4.6048    0.5954   25.1256 C   0  0  0  0  0  0  0  0  0  0  0  0
    2.8737    0.4917   25.2963 Cl  0  0  0  0  0  0  0  0  0  0  0  0
    5.2793   -0.4567   24.5262 C   0  0  0  0  0  0  0  0  0  0  0  0
    4.7532   -1.3551   24.2173 H   0  0  0  0  0  0  0  0  0  0  0  0
    4.7100    2.5459   26.0339 H   0  0  0  0  0  0  0  0  0  0  0  0
    7.1778    2.6889   25.7425 H   0  0  0  0  0  0  0  0  0  0  0  0
    8.4171    0.8515   24.6489 H   0  0  0  0  0  0  0  0  0  0  0  0
    6.1767   -3.7919   24.4629 C   0  0  0  0  0  0  0  0  0  0  0  0
    5.9186   -5.1184   24.8128 C   0  0  0  0  0  0  0  0  0  0  0  0
    6.2241   -3.0080   25.2097 H   0  0  0  0  0  0  0  0  0  0  0  0
    6.7197   -4.2237   21.1351 H   0  0  0  0  0  0  0  0  0  0  0  0
    6.3829   -6.5750   21.7771 H   0  0  0  0  0  0  0  0  0  0  0  0
    6.8520   -8.0332   24.1605 H   0  0  0  0  0  0  0  0  0  0  0  0
    5.2557   -8.0563   23.4432 H   0  0  0  0  0  0  0  0  0  0  0  0
    4.1363   -7.5795   25.4789 H   0  0  0  0  0  0  0  0  0  0  0  0
    5.3234   -8.8037   25.9093 H   0  0  0  0  0  0  0  0  0  0  0  0
    5.1944   -6.9525   27.5310 H   0  0  0  0  0  0  0  0  0  0  0  0
    6.8289   -6.9844   26.8652 H   0  0  0  0  0  0  0  0  0  0  0  0
    5.6634   -4.1099   29.1463 H   0  0  0  0  0  0  0  0  0  0  0  0
    6.4562   -5.5849   28.5380 H   0  0  0  0  0  0  0  0  0  0  0  0
    8.1012   -3.5655   28.8230 H   0  0  0  0  0  0  0  0  0  0  0  0
    8.0602   -4.2918   27.2075 H   0  0  0  0  0  0  0  0  0  0  0  0
    7.1871   -2.7673   27.5373 H   0  0  0  0  0  0  0  0  0  0  0  0
  1  2  1  0
  2  3  1  0
  3  4  2  0
  3  5  1  0
  5  6  1  0
  6  7  1  0
  7  8  1  0
  8  9  1  0
  9 10  2  0
 10 11  1  0
 11 12  2  0
 12 13  1  0
 13 14  1  0
 14 15  2  0
 14 16  1  0
 16 17  1  0
 17 18  2  0
 18 19  1  0
 19 20  2  0
 20 21  1  0
 21 22  2  0
 22 23  1  0
 23 24  2  0
 24 25  1  0
 25 26  2  0
 25 27  1  0
 24 28  1  0
 23 29  1  0
 22 30  1  0
 20 31  1  0
 18 32  1  0
 16 33  1  0
 16 34  1  0
 13 35  1  0
 35 36  1  0
 36 37  1  0
 36 38  1  0
 36 39  1  0
 35 40  1  0
 40 41  2  0
 41 42  1  0
 42 43  2  0
 43 44  1  0
 44 45  1  0
 44 46  2  0
 46 47  1  0
 43 48  1  0
 42 49  1  0
 41 50  1  0
 12 51  1  0
 51 52  2  0
 51 53  1  0
 11 54  1  0
 10 55  1  0
  8 56  1  0
  8 57  1  0
  7 58  1  0
  7 59  1  0
  6 60  1  0
  6 61  1  0
  2 62  1  0
  2 63  1  0
  1 64  1  0
  1 65  1  0
  1 66  1  0
 52  5  1  0
 52  9  1  0
 26 17  1  0
 46 40  1  0
 26 21  1  0
M  END
>  <cnnaffinities>  (20) 
[6.81273]

>  <score>  (20) 
6.81273

>  <index>  (20) 
20

>  <Smiles>  (20) 
C(C(C(=O)N1C(C(C(c2c(c(c(N(C(=O)C(c3c(nc(c4c(c(c(c(c34)[H])[H])[H])[H])[H])[H])([H])[H])N(C([H])([H])[H])c3c(c(c(c(Cl)c3[H])[H])[H])[H])c(c12)[H])[H])[H])([H])[H])([H])[H])([H])[H])([H])[H])([H])([H])[H]

>  <h>  (20) 
<NA>

>  <Training>  (20) 
True

>  <Success>  (20) 
True

>  <enamine_searched>  (20) 
False

>  <enamine_id>  (20) 
nan

$$$$

     RDKit          3D

 59 64  0  0  0  0  0  0  0  0999 V2000
    9.5866   -1.8539   22.7630 C   0  0  0  0  0  0  0  0  0  0  0  0
    8.3170   -1.0605   22.4821 C   0  0  1  0  0  0  0  0  0  0  0  0
    8.1136   -0.7002   21.0072 C   0  0  0  0  0  0  0  0  0  0  0  0
    6.6961   -0.3608   20.9686 N   0  0  0  0  0  0  0  0  0  0  0  0
    6.0640    0.2026   19.8494 C   0  0  0  0  0  0  0  0  0  0  0  0
    6.5144   -0.0651   18.5762 C   0  0  0  0  0  0  0  0  0  0  0  0
    5.9173    0.3825   17.4495 N   0  0  0  0  0  0  0  0  0  0  0  0
    4.8494    1.1307   17.5785 C   0  0  0  0  0  0  0  0  0  0  0  0
    4.2996    1.5110   18.8346 C   0  0  0  0  0  0  0  0  0  0  0  0
    3.1522    2.3409   18.9169 C   0  0  0  0  0  0  0  0  0  0  0  0
    2.6692    2.7457   20.1331 C   0  0  0  0  0  0  0  0  0  0  0  0
    3.3311    2.3513   21.3161 C   0  0  0  0  0  0  0  0  0  0  0  0
    4.4465    1.5562   21.2613 C   0  0  0  0  0  0  0  0  0  0  0  0
    4.9347    1.0747   20.0111 C   0  0  0  0  0  0  0  0  0  0  0  0
    4.9412    1.2700   22.1806 H   0  0  0  0  0  0  0  0  0  0  0  0
    2.9573    2.6806   22.2814 H   0  0  0  0  0  0  0  0  0  0  0  0
    1.7916    3.3819   20.1953 H   0  0  0  0  0  0  0  0  0  0  0  0
    2.6771    2.6502   17.9913 H   0  0  0  0  0  0  0  0  0  0  0  0
    4.3710    1.4806   16.6635 H   0  0  0  0  0  0  0  0  0  0  0  0
    7.3944   -0.6899   18.4226 H   0  0  0  0  0  0  0  0  0  0  0  0
    5.9849   -1.0327   21.9491 C   0  0  0  0  0  0  0  0  0  0  0  0
    4.7860   -1.1976   21.9141 O   0  0  0  0  0  0  0  0  0  0  0  0
    6.9632   -1.6820   22.9505 C   0  0  1  0  0  0  0  0  0  0  0  0
    6.8400   -3.1960   22.6941 C   0  0  0  0  0  0  0  0  0  0  0  0
    5.6429   -3.7352   23.3223 N   0  0  0  0  0  0  0  0  0  0  0  0
    4.8239   -4.6808   22.5814 C   0  0  0  0  0  0  0  0  0  0  0  0
    5.6099   -5.8954   22.2033 C   0  0  0  0  0  0  0  0  0  0  0  0
    6.5667   -5.9831   21.1777 C   0  0  0  0  0  0  0  0  0  0  0  0
    7.3389   -7.0470   21.3232 N   0  0  0  0  0  0  0  0  0  0  0  0
    6.8446   -7.6928   22.3871 N   0  0  0  0  0  0  0  0  0  0  0  0
    7.3367   -8.9711   22.8342 C   0  0  0  0  0  0  0  0  0  0  0  0
    8.3446   -8.8968   23.2443 H   0  0  0  0  0  0  0  0  0  0  0  0
    6.6524   -9.3342   23.6028 H   0  0  0  0  0  0  0  0  0  0  0  0
    7.3287   -9.6943   22.0268 H   0  0  0  0  0  0  0  0  0  0  0  0
    5.8117   -7.0293   22.9463 C   0  0  0  0  0  0  0  0  0  0  0  0
    5.3196   -7.3965   23.8346 H   0  0  0  0  0  0  0  0  0  0  0  0
    6.7305   -5.3153   20.3393 H   0  0  0  0  0  0  0  0  0  0  0  0
    4.4132   -4.1693   21.6967 H   0  0  0  0  0  0  0  0  0  0  0  0
    3.9949   -4.9531   23.2385 H   0  0  0  0  0  0  0  0  0  0  0  0
    5.5319   -3.6781   24.6833 C   0  0  0  0  0  0  0  0  0  0  0  0
    4.9606   -4.5370   25.3457 O   0  0  0  0  0  0  0  0  0  0  0  0
    6.1027   -2.4252   25.2556 C   0  0  0  0  0  0  0  0  0  0  0  0
    6.0039   -2.2438   26.6320 C   0  0  0  0  0  0  0  0  0  0  0  0
    6.3563   -1.0424   27.2125 C   0  0  0  0  0  0  0  0  0  0  0  0
    6.7765   -0.0307   26.3612 C   0  0  0  0  0  0  0  0  0  0  0  0
    7.0468    1.1692   26.8926 F   0  0  0  0  0  0  0  0  0  0  0  0
    6.9449   -0.2003   25.0055 C   0  0  0  0  0  0  0  0  0  0  0  0
    6.6545   -1.4388   24.4194 C   0  0  0  0  0  0  0  0  0  0  0  0
    7.2892    0.6450   24.4233 H   0  0  0  0  0  0  0  0  0  0  0  0
    6.2884   -0.8637   28.2783 H   0  0  0  0  0  0  0  0  0  0  0  0
    5.6130   -3.0564   27.2306 H   0  0  0  0  0  0  0  0  0  0  0  0
    7.7181   -3.7318   23.0740 H   0  0  0  0  0  0  0  0  0  0  0  0
    6.7587   -3.3763   21.6222 H   0  0  0  0  0  0  0  0  0  0  0  0
    8.3650   -1.5495   20.3486 H   0  0  0  0  0  0  0  0  0  0  0  0
    8.7128    0.1618   20.7041 H   0  0  0  0  0  0  0  0  0  0  0  0
    8.3918   -0.1021   23.0028 H   0  0  0  0  0  0  0  0  0  0  0  0
    9.6103   -2.7910   22.1907 H   0  0  0  0  0  0  0  0  0  0  0  0
    9.6685   -2.0972   23.8292 H   0  0  0  0  0  0  0  0  0  0  0  0
   10.4682   -1.2645   22.4812 H   0  0  0  0  0  0  0  0  0  0  0  0
  1  2  1  0
  2  3  1  0
  3  4  1  0
  4  5  1  0
  5  6  2  0
  6  7  1  0
  7  8  2  0
  8  9  1  0
  9 10  2  0
 10 11  1  0
 11 12  2  0
 12 13  1  0
 13 14  2  0
 13 15  1  0
 12 16  1  0
 11 17  1  0
 10 18  1  0
  8 19  1  0
  6 20  1  0
  4 21  1  0
 21 22  2  0
 21 23  1  0
 23 24  1  1
 24 25  1  0
 25 26  1  0
 26 27  1  0
 27 28  1  0
 28 29  2  0
 29 30  1  0
 30 31  1  0
 31 32  1  0
 31 33  1  0
 31 34  1  0
 30 35  1  0
 35 36  1  0
 28 37  1  0
 26 38  1  0
 26 39  1  0
 25 40  1  0
 40 41  2  0
 40 42  1  0
 42 43  2  0
 43 44  1  0
 44 45  2  0
 45 46  1  0
 45 47  1  0
 47 48  2  0
 47 49  1  0
 44 50  1  0
 43 51  1  0
 24 52  1  0
 24 53  1  0
  3 54  1  0
  3 55  1  0
  2 56  1  1
  1 57  1  0
  1 58  1  0
  1 59  1  0
 23  2  1  0
 35 27  2  0
 48 42  1  0
 14  5  1  0
 48 23  1  0
 14  9  1  0
M  END
>  <cnnaffinities>  (21) 
[6.53894]

>  <score>  (21) 
6.53894

>  <index>  (21) 
21

>  <Smiles>  (21) 
C([C@]1(C(N(c2c(nc(c3c(c(c(c(c23)[H])[H])[H])[H])[H])[H])C(=O)[C@]21C(N(C(c1c(nn(C([H])([H])[H])c1[H])[H])([H])[H])C(=O)c1c(c(c(F)c(c21)[H])[H])[H])([H])[H])([H])[H])[H])([H])([H])[H]

>  <h>  (21) 
<NA>

>  <Training>  (21) 
True

>  <Success>  (21) 
True

>  <enamine_searched>  (21) 
False

>  <enamine_id>  (21) 
nan

$$$$

     RDKit          3D

 41 44  0  0  0  0  0  0  0  0999 V2000
    8.7460    0.9825   20.4372 O   0  0  0  0  0  0  0  0  0  0  0  0
    8.0466    0.5079   21.3111 C   0  0  0  0  0  0  0  0  0  0  0  0
    6.9032   -0.4424   20.9242 C   0  0  0  0  0  0  0  0  0  0  0  0
    6.0733    0.0944   19.7908 C   0  0  0  0  0  0  0  0  0  0  0  0
    6.4078   -0.2027   18.4949 C   0  0  0  0  0  0  0  0  0  0  0  0
    5.7593    0.2488   17.3943 N   0  0  0  0  0  0  0  0  0  0  0  0
    4.7367    1.0448   17.5935 C   0  0  0  0  0  0  0  0  0  0  0  0
    4.2681    1.4356   18.8780 C   0  0  0  0  0  0  0  0  0  0  0  0
    3.1600    2.3033   19.0342 C   0  0  0  0  0  0  0  0  0  0  0  0
    2.7352    2.6712   20.2849 C   0  0  0  0  0  0  0  0  0  0  0  0
    3.4091    2.1859   21.4284 C   0  0  0  0  0  0  0  0  0  0  0  0
    4.4879    1.3486   21.3030 C   0  0  0  0  0  0  0  0  0  0  0  0
    4.9513    0.9481   20.0179 C   0  0  0  0  0  0  0  0  0  0  0  0
    4.9983    1.0005   22.1989 H   0  0  0  0  0  0  0  0  0  0  0  0
    3.0680    2.4897   22.4155 H   0  0  0  0  0  0  0  0  0  0  0  0
    1.8915    3.3426   20.4012 H   0  0  0  0  0  0  0  0  0  0  0  0
    2.6704    2.6796   18.1410 H   0  0  0  0  0  0  0  0  0  0  0  0
    4.2255    1.4203   16.7089 H   0  0  0  0  0  0  0  0  0  0  0  0
    7.2661   -0.8469   18.2972 H   0  0  0  0  0  0  0  0  0  0  0  0
    7.4065   -1.3655   20.5975 H   0  0  0  0  0  0  0  0  0  0  0  0
    6.2855   -0.7137   21.7794 H   0  0  0  0  0  0  0  0  0  0  0  0
    8.3238    0.7630   22.6497 N   0  0  0  0  0  0  0  0  0  0  0  0
    9.7498    0.8975   22.9528 C   0  0  0  0  0  0  0  0  0  0  0  0
   10.3804   -0.4949   22.8730 C   0  0  0  0  0  0  0  0  0  0  0  0
    9.5365   -1.5572   23.5705 C   0  0  0  0  0  0  0  0  0  0  0  0
   10.0260   -2.8428   23.7874 C   0  0  0  0  0  0  0  0  0  0  0  0
   11.7077   -3.1697   23.4689 Cl  0  0  0  0  0  0  0  0  0  0  0  0
    9.2252   -3.8810   24.2435 C   0  0  0  0  0  0  0  0  0  0  0  0
    7.9191   -3.6122   24.6345 C   0  0  0  0  0  0  0  0  0  0  0  0
    7.4363   -2.3114   24.5510 C   0  0  0  0  0  0  0  0  0  0  0  0
    8.2075   -1.3149   23.9502 C   0  0  0  0  0  0  0  0  0  0  0  0
    7.6429    0.0697   23.7292 C   0  0  0  0  0  0  0  0  0  0  0  0
    6.5686    0.0282   23.5402 H   0  0  0  0  0  0  0  0  0  0  0  0
    7.7542    0.6781   24.6372 H   0  0  0  0  0  0  0  0  0  0  0  0
    6.4538   -2.0789   24.9613 H   0  0  0  0  0  0  0  0  0  0  0  0
    7.2750   -4.4233   24.9621 H   0  0  0  0  0  0  0  0  0  0  0  0
    9.6521   -4.8756   24.2847 H   0  0  0  0  0  0  0  0  0  0  0  0
   11.4019   -0.4878   23.2566 H   0  0  0  0  0  0  0  0  0  0  0  0
   10.4623   -0.7493   21.8065 H   0  0  0  0  0  0  0  0  0  0  0  0
   10.2006    1.5909   22.2381 H   0  0  0  0  0  0  0  0  0  0  0  0
    9.8430    1.3420   23.9507 H   0  0  0  0  0  0  0  0  0  0  0  0
  1  2  2  0
  2  3  1  0
  3  4  1  0
  4  5  2  0
  5  6  1  0
  6  7  2  0
  7  8  1  0
  8  9  2  0
  9 10  1  0
 10 11  2  0
 11 12  1  0
 12 13  2  0
 12 14  1  0
 11 15  1  0
 10 16  1  0
  9 17  1  0
  7 18  1  0
  5 19  1  0
  3 20  1  0
  3 21  1  0
  2 22  1  0
 22 23  1  0
 23 24  1  0
 24 25  1  0
 25 26  2  0
 26 27  1  0
 26 28  1  0
 28 29  2  0
 29 30  1  0
 30 31  2  0
 31 32  1  0
 32 33  1  0
 32 34  1  0
 30 35  1  0
 29 36  1  0
 28 37  1  0
 24 38  1  0
 24 39  1  0
 23 40  1  0
 23 41  1  0
 13  4  1  0
 32 22  1  0
 13  8  1  0
 31 25  1  0
M  END
>  <cnnaffinities>  (22) 
[5.72936, 5.83598]

>  <score>  (22) 
5.72936

>  <index>  (22) 
22

>  <Smiles>  (22) 
O=C(C(c1c(nc(c2c(c(c(c(c12)[H])[H])[H])[H])[H])[H])([H])[H])N1C(C(c2c(Cl)c(c(c(c2C1([H])[H])[H])[H])[H])([H])[H])([H])[H]

>  <h>  (22) 
<NA>

>  <Training>  (22) 
True

>  <Success>  (22) 
True

>  <enamine_searched>  (22) 
False

>  <enamine_id>  (22) 
nan

$$$$

     RDKit          3D

 69 74  0  0  0  0  0  0  0  0999 V2000
    4.3278    6.6346   20.8557 C   0  0  0  0  0  0  0  0  0  0  0  0
    5.1525    6.1287   22.0189 C   0  0  1  0  0  0  0  0  0  0  0  0
    6.1240    5.0186   21.6226 C   0  0  0  0  0  0  0  0  0  0  0  0
    6.8676    4.5614   22.8389 N   0  0  1  0  0  4  0  0  0  0  0  0
    7.7490    3.3959   22.5999 C   0  0  0  0  0  0  0  0  0  0  0  0
    8.2440    2.8429   23.9330 C   0  0  0  0  0  0  0  0  0  0  0  0
    8.8580    1.5433   23.8249 N   0  0  0  0  0  0  0  0  0  0  0  0
    8.0133    0.3681   23.7269 C   0  0  0  0  0  0  0  0  0  0  0  0
    8.4201   -0.5167   22.5210 C   0  0  2  0  0  0  0  0  0  0  0  0
    7.9813    0.1395   21.2084 C   0  0  0  0  0  0  0  0  0  0  0  0
    8.5350    1.0524   20.6130 O   0  0  0  0  0  0  0  0  0  0  0  0
    6.8159   -0.4541   20.8028 N   0  0  0  0  0  0  0  0  0  0  0  0
    6.0932    0.0981   19.7226 C   0  0  0  0  0  0  0  0  0  0  0  0
    6.4516   -0.1740   18.4279 C   0  0  0  0  0  0  0  0  0  0  0  0
    5.7681    0.2741   17.3505 N   0  0  0  0  0  0  0  0  0  0  0  0
    4.7299    1.0440   17.5688 C   0  0  0  0  0  0  0  0  0  0  0  0
    4.2870    1.4494   18.8619 C   0  0  0  0  0  0  0  0  0  0  0  0
    3.1847    2.3254   19.0565 C   0  0  0  0  0  0  0  0  0  0  0  0
    2.7982    2.6840   20.3214 C   0  0  0  0  0  0  0  0  0  0  0  0
    3.4939    2.1958   21.4504 C   0  0  0  0  0  0  0  0  0  0  0  0
    4.5833    1.3768   21.2824 C   0  0  0  0  0  0  0  0  0  0  0  0
    4.9911    0.9622   19.9825 C   0  0  0  0  0  0  0  0  0  0  0  0
    5.1387    1.0457   22.1528 H   0  0  0  0  0  0  0  0  0  0  0  0
    3.1805    2.4781   22.4528 H   0  0  0  0  0  0  0  0  0  0  0  0
    1.9628    3.3633   20.4660 H   0  0  0  0  0  0  0  0  0  0  0  0
    2.6718    2.7079   18.1791 H   0  0  0  0  0  0  0  0  0  0  0  0
    4.1854    1.3837   16.6903 H   0  0  0  0  0  0  0  0  0  0  0  0
    7.3257   -0.7893   18.2323 H   0  0  0  0  0  0  0  0  0  0  0  0
    6.3345   -1.4902   21.7083 C   0  0  0  0  0  0  0  0  0  0  0  0
    7.6290   -1.8559   22.4537 C   0  0  2  0  0  0  0  0  0  0  0  0
    7.5210   -2.6469   23.7514 C   0  0  0  0  0  0  0  0  0  0  0  0
    7.0922   -3.6399   23.5819 H   0  0  0  0  0  0  0  0  0  0  0  0
    6.9085   -2.1448   24.5056 H   0  0  0  0  0  0  0  0  0  0  0  0
    8.5217   -2.7881   24.1765 H   0  0  0  0  0  0  0  0  0  0  0  0
    8.1809   -2.4862   21.7547 H   0  0  0  0  0  0  0  0  0  0  0  0
    5.9114   -2.3175   21.1293 H   0  0  0  0  0  0  0  0  0  0  0  0
    5.5516   -1.1228   22.3893 H   0  0  0  0  0  0  0  0  0  0  0  0
    9.9104   -0.6625   22.4924 C   0  0  0  0  0  0  0  0  0  0  0  0
   10.4651   -1.5544   21.5766 C   0  0  0  0  0  0  0  0  0  0  0  0
   11.8310   -1.7174   21.5286 C   0  0  0  0  0  0  0  0  0  0  0  0
   12.4041   -2.6613   20.1821 Cl  0  0  0  0  0  0  0  0  0  0  0  0
   12.6652   -1.0328   22.4280 C   0  0  0  0  0  0  0  0  0  0  0  0
   12.1131   -0.0789   23.2612 C   0  0  0  0  0  0  0  0  0  0  0  0
   10.7484    0.1736   23.2302 C   0  0  0  0  0  0  0  0  0  0  0  0
   10.2224    1.4405   23.8435 C   0  0  0  0  0  0  0  0  0  0  0  0
   10.9604    2.3097   24.2848 O   0  0  0  0  0  0  0  0  0  0  0  0
   12.7336    0.5384   23.9013 H   0  0  0  0  0  0  0  0  0  0  0  0
   13.7358   -1.1774   22.4680 H   0  0  0  0  0  0  0  0  0  0  0  0
    9.8341   -2.0395   20.8361 H   0  0  0  0  0  0  0  0  0  0  0  0
    8.1057   -0.2272   24.6498 H   0  0  0  0  0  0  0  0  0  0  0  0
    6.9780    0.7197   23.6233 H   0  0  0  0  0  0  0  0  0  0  0  0
    7.3969    2.7983   24.6313 H   0  0  0  0  0  0  0  0  0  0  0  0
    8.9970    3.5053   24.3427 H   0  0  0  0  0  0  0  0  0  0  0  0
    8.5911    3.6957   21.9656 H   0  0  0  0  0  0  0  0  0  0  0  0
    7.1858    2.6364   22.0534 H   0  0  0  0  0  0  0  0  0  0  0  0
    7.5899    5.7371   23.4431 C   0  0  0  0  0  0  0  0  0  0  0  0
    6.6032    6.8641   23.7119 C   0  0  0  0  0  0  0  0  0  0  0  0
    5.8668    7.2314   22.5643 O   0  0  0  0  0  0  0  0  0  0  0  0
    5.9236    6.5460   24.5226 H   0  0  0  0  0  0  0  0  0  0  0  0
    7.1399    7.7558   24.0449 H   0  0  0  0  0  0  0  0  0  0  0  0
    8.0539    5.4285   24.3810 H   0  0  0  0  0  0  0  0  0  0  0  0
    8.3779    6.0591   22.7521 H   0  0  0  0  0  0  0  0  0  0  0  0
    6.1426    4.2354   23.5091 H   0  0  0  0  0  0  0  0  0  0  0  0
    5.5944    4.1647   21.1845 H   0  0  0  0  0  0  0  0  0  0  0  0
    6.8430    5.3943   20.8850 H   0  0  0  0  0  0  0  0  0  0  0  0
    4.4855    5.7150   22.7962 H   0  0  0  0  0  0  0  0  0  0  0  0
    3.6972    5.8317   20.4551 H   0  0  0  0  0  0  0  0  0  0  0  0
    3.6814    7.4565   21.1728 H   0  0  0  0  0  0  0  0  0  0  0  0
    4.9825    7.0057   20.0602 H   0  0  0  0  0  0  0  0  0  0  0  0
  1  2  1  0
  2  3  1  0
  3  4  1  0
  4  5  1  0
  5  6  1  0
  6  7  1  0
  7  8  1  0
  9  8  1  1
  9 10  1  0
 10 11  2  0
 10 12  1  0
 12 13  1  0
 13 14  2  0
 14 15  1  0
 15 16  2  0
 16 17  1  0
 17 18  2  0
 18 19  1  0
 19 20  2  0
 20 21  1  0
 21 22  2  0
 21 23  1  0
 20 24  1  0
 19 25  1  0
 18 26  1  0
 16 27  1  0
 14 28  1  0
 12 29  1  0
 29 30  1  0
 30 31  1  0
 31 32  1  0
 31 33  1  0
 31 34  1  0
 30 35  1  6
 29 36  1  0
 29 37  1  0
  9 38  1  0
 38 39  2  0
 39 40  1  0
 40 41  1  0
 40 42  2  0
 42 43  1  0
 43 44  2  0
 44 45  1  0
 45 46  2  0
 43 47  1  0
 42 48  1  0
 39 49  1  0
  8 50  1  0
  8 51  1  0
  6 52  1  0
  6 53  1  0
  5 54  1  0
  5 55  1  0
  4 56  1  0
 56 57  1  0
 57 58  1  0
 57 59  1  0
 57 60  1  0
 56 61  1  0
 56 62  1  0
  4 63  1  1
  3 64  1  0
  3 65  1  0
  2 66  1  1
  1 67  1  0
  1 68  1  0
  1 69  1  0
 58  2  1  0
 45  7  1  0
 30  9  1  0
 44 38  1  0
 22 13  1  0
 22 17  1  0
M  CHG  1   4   1
M  END
>  <cnnaffinities>  (23) 
[6.41912, 6.32515]

>  <score>  (23) 
6.41912

>  <index>  (23) 
23

>  <Smiles>  (23) 
C([C@]1(C([N@@+](C(C(N2C([C@@]3(C(=O)N(c4c(nc(c5c(c(c(c(c45)[H])[H])[H])[H])[H])[H])C([C@@]3(C([H])([H])[H])[H])([H])[H])c3c(c(Cl)c(c(c3C2=O)[H])[H])[H])([H])[H])([H])[H])([H])[H])(C(C(O1)([H])[H])([H])[H])[H])([H])[H])[H])([H])([H])[H]

>  <h>  (23) 
<NA>

>  <Training>  (23) 
True

>  <Success>  (23) 
True

>  <enamine_searched>  (23) 
False

>  <enamine_id>  (23) 
nan

$$$$

     RDKit          3D

 70 75  0  0  0  0  0  0  0  0999 V2000
    4.6323   -7.7945   24.0037 C   0  0  0  0  0  0  0  0  0  0  0  0
    5.9851   -7.4277   23.5328 N   0  0  0  0  0  4  0  0  0  0  0  0
    6.4310   -6.0876   24.0181 C   0  0  0  0  0  0  0  0  0  0  0  0
    5.7197   -4.9283   23.3105 C   0  0  0  0  0  0  0  0  0  0  0  0
    6.2301   -3.6500   23.7552 N   0  0  0  0  0  0  0  0  0  0  0  0
    7.4578   -3.1353   23.1772 C   0  0  0  0  0  0  0  0  0  0  0  0
    7.3457   -1.6296   22.8617 C   0  0  2  0  0  0  0  0  0  0  0  0
    6.3780   -1.4414   21.6721 C   0  0  0  0  0  0  0  0  0  0  0  0
    5.3319   -2.0171   21.4747 O   0  0  0  0  0  0  0  0  0  0  0  0
    6.8945   -0.4748   20.8453 N   0  0  0  0  0  0  0  0  0  0  0  0
    6.1300    0.0742   19.7881 C   0  0  0  0  0  0  0  0  0  0  0  0
    6.4705   -0.2077   18.4910 C   0  0  0  0  0  0  0  0  0  0  0  0
    5.8020    0.2486   17.4075 N   0  0  0  0  0  0  0  0  0  0  0  0
    4.7694    1.0262   17.6162 C   0  0  0  0  0  0  0  0  0  0  0  0
    4.3167    1.4099   18.9100 C   0  0  0  0  0  0  0  0  0  0  0  0
    3.2005    2.2717   19.0669 C   0  0  0  0  0  0  0  0  0  0  0  0
    2.7933    2.6530   20.3141 C   0  0  0  0  0  0  0  0  0  0  0  0
    3.4863    2.1900   21.4573 C   0  0  0  0  0  0  0  0  0  0  0  0
    4.5681    1.3510   21.3364 C   0  0  0  0  0  0  0  0  0  0  0  0
    5.0100    0.9298   20.0449 C   0  0  0  0  0  0  0  0  0  0  0  0
    5.0912    1.0133   22.2322 H   0  0  0  0  0  0  0  0  0  0  0  0
    3.1553    2.5106   22.4408 H   0  0  0  0  0  0  0  0  0  0  0  0
    1.9431    3.3198   20.4337 H   0  0  0  0  0  0  0  0  0  0  0  0
    2.6962    2.6286   18.1714 H   0  0  0  0  0  0  0  0  0  0  0  0
    4.2335    1.3944   16.7396 H   0  0  0  0  0  0  0  0  0  0  0  0
    7.3189   -0.8587   18.2857 H   0  0  0  0  0  0  0  0  0  0  0  0
    8.2219   -0.0270   21.1951 C   0  0  0  0  0  0  0  0  0  0  0  0
    8.6697   -0.9629   22.3417 C   0  0  2  0  0  0  0  0  0  0  0  0
    9.7891   -1.8925   21.7987 C   0  0  0  0  0  0  0  0  0  0  0  0
   10.3790   -2.7097   22.7587 O   0  0  0  0  0  0  0  0  0  0  0  0
   11.4609   -2.1039   23.5465 C   0  0  0  0  0  0  0  0  0  0  0  0
   11.9322   -2.8884   24.8275 C   0  0  0  0  0  0  0  0  0  0  0  0
   11.9357   -3.0312   24.5428 C   0  0  0  0  0  0  0  0  0  0  0  0
   14.5018   -3.1649   25.3192 O   0  0  0  0  0  0  0  0  0  0  0  0
   13.2866   -2.5010   25.1103 C   0  0  0  0  0  0  0  0  0  0  0  0
   13.2759   -2.1562   26.1345 H   0  0  0  0  0  0  0  0  0  0  0  0
   13.7051   -1.6676   24.5380 H   0  0  0  0  0  0  0  0  0  0  0  0
   11.5024   -4.1037   25.2595 H   0  0  0  0  0  0  0  0  0  0  0  0
   12.1124   -3.7985   23.6039 H   0  0  0  0  0  0  0  0  0  0  0  0
   11.5783   -2.3461   25.8565 H   0  0  0  0  0  0  0  0  0  0  0  0
   12.2341   -1.9989   22.7685 H   0  0  0  0  0  0  0  0  0  0  0  0
   11.0953   -1.0784   23.7890 H   0  0  0  0  0  0  0  0  0  0  0  0
   10.5439   -1.2703   21.2782 H   0  0  0  0  0  0  0  0  0  0  0  0
    9.3596   -2.5435   21.0199 H   0  0  0  0  0  0  0  0  0  0  0  0
    9.1129   -0.3942   23.1679 H   0  0  0  0  0  0  0  0  0  0  0  0
    8.8908   -0.1172   20.3377 H   0  0  0  0  0  0  0  0  0  0  0  0
    8.2211    1.0322   21.4868 H   0  0  0  0  0  0  0  0  0  0  0  0
    6.7779   -0.9195   24.0996 C   0  0  0  0  0  0  0  0  0  0  0  0
    6.9586    0.4571   24.2989 C   0  0  0  0  0  0  0  0  0  0  0  0
    6.4478    1.0726   25.4322 C   0  0  0  0  0  0  0  0  0  0  0  0
    6.7140    2.7783   25.6742 Cl  0  0  0  0  0  0  0  0  0  0  0  0
    5.7286    0.3629   26.3914 C   0  0  0  0  0  0  0  0  0  0  0  0
    5.5025   -0.9815   26.1748 C   0  0  0  0  0  0  0  0  0  0  0  0
    6.0027   -1.6146   25.0371 C   0  0  0  0  0  0  0  0  0  0  0  0
    5.6400   -3.0529   24.8274 C   0  0  0  0  0  0  0  0  0  0  0  0
    4.8395   -3.6366   25.5489 O   0  0  0  0  0  0  0  0  0  0  0  0
    4.9284   -1.5760   26.8772 H   0  0  0  0  0  0  0  0  0  0  0  0
    5.3499    0.8678   27.2745 H   0  0  0  0  0  0  0  0  0  0  0  0
    7.4975    1.0752   23.5876 H   0  0  0  0  0  0  0  0  0  0  0  0
    7.6554   -3.6848   22.2558 H   0  0  0  0  0  0  0  0  0  0  0  0
    8.2951   -3.2973   23.8627 H   0  0  0  0  0  0  0  0  0  0  0  0
    5.8562   -4.9767   22.2202 H   0  0  0  0  0  0  0  0  0  0  0  0
    4.6458   -4.9328   23.5185 H   0  0  0  0  0  0  0  0  0  0  0  0
    7.5038   -6.0150   23.8592 H   0  0  0  0  0  0  0  0  0  0  0  0
    6.2363   -6.0164   25.0895 H   0  0  0  0  0  0  0  0  0  0  0  0
    5.9604   -7.3840   22.4859 H   0  0  0  0  0  0  0  0  0  0  0  0
    6.6532   -8.1659   23.8285 H   0  0  0  0  0  0  0  0  0  0  0  0
    4.5306   -7.5664   25.0658 H   0  0  0  0  0  0  0  0  0  0  0  0
    3.8633   -7.2362   23.4686 H   0  0  0  0  0  0  0  0  0  0  0  0
    4.4569   -8.8563   23.8518 H   0  0  0  0  0  0  0  0  0  0  0  0
  1  2  1  0
  2  3  1  0
  3  4  1  0
  4  5  1  0
  5  6  1  0
  7  6  1  1
  7  8  1  0
  8  9  2  0
  8 10  1  0
 10 11  1  0
 11 12  2  0
 12 13  1  0
 13 14  2  0
 14 15  1  0
 15 16  2  0
 16 17  1  0
 17 18  2  0
 18 19  1  0
 19 20  2  0
 19 21  1  0
 18 22  1  0
 17 23  1  0
 16 24  1  0
 14 25  1  0
 12 26  1  0
 10 27  1  0
 27 28  1  0
 28 29  1  0
 29 30  1  0
 30 31  1  0
 31 32  1  0
 32 33  1  0
 33 34  1  0
 34 35  1  0
 35 36  1  0
 35 37  1  0
 33 38  1  0
 33 39  1  0
 32 40  1  0
 31 41  1  0
 31 42  1  0
 29 43  1  0
 29 44  1  0
 28 45  1  1
 27 46  1  0
 27 47  1  0
  7 48  1  0
 48 49  2  0
 49 50  1  0
 50 51  1  0
 50 52  2  0
 52 53  1  0
 53 54  2  0
 54 55  1  0
 55 56  2  0
 53 57  1  0
 52 58  1  0
 49 59  1  0
  6 60  1  0
  6 61  1  0
  4 62  1  0
  4 63  1  0
  3 64  1  0
  3 65  1  0
  2 66  1  0
  2 67  1  0
  1 68  1  0
  1 69  1  0
  1 70  1  0
 55  5  1  0
 28  7  1  0
 35 32  1  0
 54 48  1  0
 20 11  1  0
 20 15  1  0
M  CHG  1   2   1
M  END
>  <cnnaffinities>  (24) 
[6.87854]

>  <score>  (24) 
6.87854

>  <index>  (24) 
24

>  <Smiles>  (24) 
C([N+](C(C(N1C([C@@]2(C(=O)N(c3c(nc(c4c(c(c(c(c34)[H])[H])[H])[H])[H])[H])C([C@@]2(C(OC(C2(C(OC2([H])[H])([H])[H])[H])([H])[H])([H])[H])[H])([H])[H])c2c(c(Cl)c(c(c2C1=O)[H])[H])[H])([H])[H])([H])[H])([H])[H])([H])[H])([H])([H])[H]

>  <h>  (24) 
<NA>

>  <Training>  (24) 
True

>  <Success>  (24) 
True

>  <enamine_searched>  (24) 
False

>  <enamine_id>  (24) 
nan

$$$$

     RDKit          3D

 68 73  0  0  0  0  0  0  0  0999 V2000
    7.7574   -8.4594   22.8981 C   0  0  0  0  0  0  0  0  0  0  0  0
    6.8456   -7.3424   22.8330 N   0  0  0  0  0  0  0  0  0  0  0  0
    6.8962   -6.5301   21.7510 C   0  0  0  0  0  0  0  0  0  0  0  0
    7.5848   -6.7522   20.7727 O   0  0  0  0  0  0  0  0  0  0  0  0
    6.0622   -5.2577   21.8483 C   0  0  0  0  0  0  0  0  0  0  0  0
    6.6590   -4.2933   22.7589 N   0  0  0  0  0  0  0  0  0  0  0  0
    7.7389   -3.4131   22.3237 C   0  0  0  0  0  0  0  0  0  0  0  0
    7.4124   -1.9404   22.6681 C   0  0  2  0  0  0  0  0  0  0  0  0
    6.3210   -1.4714   21.6731 C   0  0  0  0  0  0  0  0  0  0  0  0
    5.2033   -1.9241   21.5431 O   0  0  0  0  0  0  0  0  0  0  0  0
    6.8470   -0.4662   20.8855 N   0  0  0  0  0  0  0  0  0  0  0  0
    6.1164    0.0787   19.8099 C   0  0  0  0  0  0  0  0  0  0  0  0
    6.4715   -0.2119   18.5169 C   0  0  0  0  0  0  0  0  0  0  0  0
    5.8151    0.2343   17.4225 N   0  0  0  0  0  0  0  0  0  0  0  0
    4.7815    1.0147   17.6166 C   0  0  0  0  0  0  0  0  0  0  0  0
    4.3208    1.4115   18.9029 C   0  0  0  0  0  0  0  0  0  0  0  0
    3.2011    2.2683   19.0497 C   0  0  0  0  0  0  0  0  0  0  0  0
    2.7885    2.6566   20.2940 C   0  0  0  0  0  0  0  0  0  0  0  0
    3.4753    2.2112   21.4450 C   0  0  0  0  0  0  0  0  0  0  0  0
    4.5602    1.3773   21.3296 C   0  0  0  0  0  0  0  0  0  0  0  0
    5.0030    0.9450   20.0459 C   0  0  0  0  0  0  0  0  0  0  0  0
    5.0833    1.0398   22.2190 H   0  0  0  0  0  0  0  0  0  0  0  0
    3.1430    2.5392   22.4261 H   0  0  0  0  0  0  0  0  0  0  0  0
    1.9376    3.3221   20.4040 H   0  0  0  0  0  0  0  0  0  0  0  0
    2.6998    2.6177   18.1516 H   0  0  0  0  0  0  0  0  0  0  0  0
    4.2486    1.3708   16.7356 H   0  0  0  0  0  0  0  0  0  0  0  0
    7.3201   -0.8674   18.3258 H   0  0  0  0  0  0  0  0  0  0  0  0
    8.2932   -0.4079   20.9567 C   0  0  0  0  0  0  0  0  0  0  0  0
    8.5864   -0.9729   22.3446 C   0  0  2  0  0  0  0  0  0  0  0  0
    9.9985   -1.5362   22.4334 C   0  0  0  0  0  0  0  0  0  0  0  0
   10.2872   -2.0018   23.7612 N   0  0  0  0  0  0  0  0  0  0  0  0
   11.5536   -2.4017   24.1431 C   0  0  0  0  0  0  0  0  0  0  0  0
   12.7398   -2.5402   23.3734 C   0  0  0  0  0  0  0  0  0  0  0  0
   13.7304   -3.0404   24.1061 N   0  0  0  0  0  0  0  0  0  0  0  0
   13.2191   -3.2212   25.3282 N   0  0  0  0  0  0  0  0  0  0  0  0
   13.9716   -3.9772   26.3084 C   0  0  0  0  0  0  0  0  0  0  0  0
   15.0340   -3.7719   26.1654 H   0  0  0  0  0  0  0  0  0  0  0  0
   13.8100   -5.0577   26.1954 H   0  0  0  0  0  0  0  0  0  0  0  0
   13.6742   -3.6688   27.3134 H   0  0  0  0  0  0  0  0  0  0  0  0
   11.9099   -2.8544   25.3982 C   0  0  0  0  0  0  0  0  0  0  0  0
   11.3193   -2.9683   26.3008 H   0  0  0  0  0  0  0  0  0  0  0  0
   12.9156   -2.3197   22.3244 H   0  0  0  0  0  0  0  0  0  0  0  0
    9.6151   -1.8743   24.5041 H   0  0  0  0  0  0  0  0  0  0  0  0
   10.7266   -0.7647   22.1376 H   0  0  0  0  0  0  0  0  0  0  0  0
   10.1138   -2.3557   21.7056 H   0  0  0  0  0  0  0  0  0  0  0  0
    8.5200   -0.1390   23.0463 H   0  0  0  0  0  0  0  0  0  0  0  0
    8.6414    0.6236   20.8529 H   0  0  0  0  0  0  0  0  0  0  0  0
    8.7753   -1.0105   20.1694 H   0  0  0  0  0  0  0  0  0  0  0  0
    6.9358   -1.8794   24.1149 C   0  0  0  0  0  0  0  0  0  0  0  0
    6.8969   -0.6639   24.8139 C   0  0  0  0  0  0  0  0  0  0  0  0
    6.4184   -0.6140   26.1121 C   0  0  0  0  0  0  0  0  0  0  0  0
    6.3734    0.9226   26.9368 Cl  0  0  0  0  0  0  0  0  0  0  0  0
    5.9759   -1.7540   26.7796 C   0  0  0  0  0  0  0  0  0  0  0  0
    5.9794   -2.9494   26.0924 C   0  0  0  0  0  0  0  0  0  0  0  0
    6.4214   -3.0098   24.7735 C   0  0  0  0  0  0  0  0  0  0  0  0
    6.2320   -4.2968   24.0490 C   0  0  0  0  0  0  0  0  0  0  0  0
    5.6763   -5.2813   24.5406 O   0  0  0  0  0  0  0  0  0  0  0  0
    5.6097   -3.8559   26.5546 H   0  0  0  0  0  0  0  0  0  0  0  0
    5.6213   -1.6915   27.8021 H   0  0  0  0  0  0  0  0  0  0  0  0
    7.2120    0.2674   24.3573 H   0  0  0  0  0  0  0  0  0  0  0  0
    7.8592   -3.5269   21.2493 H   0  0  0  0  0  0  0  0  0  0  0  0
    8.6957   -3.6998   22.7813 H   0  0  0  0  0  0  0  0  0  0  0  0
    5.9868   -4.7929   20.8605 H   0  0  0  0  0  0  0  0  0  0  0  0
    5.0513   -5.4932   22.2059 H   0  0  0  0  0  0  0  0  0  0  0  0
    6.3823   -6.9814   23.6592 H   0  0  0  0  0  0  0  0  0  0  0  0
    8.6817   -8.2106   23.4355 H   0  0  0  0  0  0  0  0  0  0  0  0
    8.0274   -8.7237   21.8837 H   0  0  0  0  0  0  0  0  0  0  0  0
    7.2603   -9.3210   23.3405 H   0  0  0  0  0  0  0  0  0  0  0  0
  1  2  1  0
  2  3  1  0
  3  4  2  0
  3  5  1  0
  5  6  1  0
  6  7  1  0
  8  7  1  6
  8  9  1  0
  9 10  2  0
  9 11  1  0
 11 12  1  0
 12 13  2  0
 13 14  1  0
 14 15  2  0
 15 16  1  0
 16 17  2  0
 17 18  1  0
 18 19  2  0
 19 20  1  0
 20 21  2  0
 20 22  1  0
 19 23  1  0
 18 24  1  0
 17 25  1  0
 15 26  1  0
 13 27  1  0
 11 28  1  0
 28 29  1  0
 29 30  1  0
 30 31  1  0
 31 32  1  0
 32 33  1  0
 33 34  2  0
 34 35  1  0
 35 36  1  0
 36 37  1  0
 36 38  1  0
 36 39  1  0
 35 40  1  0
 40 41  1  0
 33 42  1  0
 31 43  1  0
 30 44  1  0
 30 45  1  0
 29 46  1  1
 28 47  1  0
 28 48  1  0
  8 49  1  0
 49 50  2  0
 50 51  1  0
 51 52  1  0
 51 53  2  0
 53 54  1  0
 54 55  2  0
 55 56  1  0
 56 57  2  0
 54 58  1  0
 53 59  1  0
 50 60  1  0
  7 61  1  0
  7 62  1  0
  5 63  1  0
  5 64  1  0
  2 65  1  0
  1 66  1  0
  1 67  1  0
  1 68  1  0
 56  6  1  0
 29  8  1  0
 40 32  2  0
 55 49  1  0
 21 12  1  0
 21 16  1  0
M  END
>  <cnnaffinities>  (25) 
[7.59208]

>  <score>  (25) 
7.59208

>  <index>  (25) 
25

>  <Smiles>  (25) 
C(N(C(=O)C(N1C([C@@]2(C(=O)N(c3c(nc(c4c(c(c(c(c34)[H])[H])[H])[H])[H])[H])C([C@@]2(C(N(c2c(nn(C([H])([H])[H])c2[H])[H])[H])([H])[H])[H])([H])[H])c2c(c(Cl)c(c(c2C1=O)[H])[H])[H])([H])[H])([H])[H])[H])([H])([H])[H]

>  <h>  (25) 
<NA>

>  <Training>  (25) 
True

>  <Success>  (25) 
True

>  <enamine_searched>  (25) 
False

>  <enamine_id>  (25) 
nan

$$$$

     RDKit          3D

 43 47  0  0  0  0  0  0  0  0999 V2000
    8.9767    0.4794   20.6039 O   0  0  0  0  0  0  0  0  0  0  0  0
    8.2756   -0.4020   21.0314 C   0  0  0  0  0  0  0  0  0  0  0  0
    8.6404   -1.4487   21.8328 N   0  0  0  0  0  0  0  0  0  0  0  0
    7.5246   -2.1056   22.4734 C   0  0  1  0  0  0  0  0  0  0  0  0
    7.5536   -3.6409   22.5166 C   0  0  0  0  0  0  0  0  0  0  0  0
    7.5897   -3.6259   24.0751 C   0  0  2  0  0  0  0  0  0  0  0  0
    6.4855   -4.3808   24.7775 C   0  0  0  0  0  0  0  0  0  0  0  0
    5.7291   -3.7936   25.7962 C   0  0  0  0  0  0  0  0  0  0  0  0
    4.6948   -4.4774   26.4219 C   0  0  0  0  0  0  0  0  0  0  0  0
    4.3994   -5.7878   26.0520 C   0  0  0  0  0  0  0  0  0  0  0  0
    5.1635   -6.4134   25.0717 C   0  0  0  0  0  0  0  0  0  0  0  0
    6.1989   -5.7146   24.4627 C   0  0  0  0  0  0  0  0  0  0  0  0
    7.1538   -6.5557   23.2618 Cl  0  0  0  0  0  0  0  0  0  0  0  0
    4.9700   -7.4372   24.7651 H   0  0  0  0  0  0  0  0  0  0  0  0
    3.5909   -6.3307   26.5340 H   0  0  0  0  0  0  0  0  0  0  0  0
    4.1219   -3.9776   27.1987 H   0  0  0  0  0  0  0  0  0  0  0  0
    5.9652   -2.7720   26.0864 H   0  0  0  0  0  0  0  0  0  0  0  0
    7.4725   -2.0710   24.0261 C   0  0  0  0  0  0  0  0  0  0  0  0
    8.3086   -1.5293   24.4818 H   0  0  0  0  0  0  0  0  0  0  0  0
    6.5364   -1.6505   24.4088 H   0  0  0  0  0  0  0  0  0  0  0  0
    8.5699   -3.9578   24.4530 H   0  0  0  0  0  0  0  0  0  0  0  0
    8.4421   -4.0598   22.0353 H   0  0  0  0  0  0  0  0  0  0  0  0
    6.6493   -4.0752   22.0822 H   0  0  0  0  0  0  0  0  0  0  0  0
    6.3429   -1.4960   21.7299 C   0  0  0  0  0  0  0  0  0  0  0  0
    5.1730   -1.7621   21.8806 O   0  0  0  0  0  0  0  0  0  0  0  0
    6.8708   -0.5467   20.8438 N   0  0  0  0  0  0  0  0  0  0  0  0
    6.1270    0.0576   19.7835 C   0  0  0  0  0  0  0  0  0  0  0  0
    6.4598   -0.2278   18.4812 C   0  0  0  0  0  0  0  0  0  0  0  0
    5.7819    0.2345   17.4050 N   0  0  0  0  0  0  0  0  0  0  0  0
    4.7584    1.0185   17.6166 C   0  0  0  0  0  0  0  0  0  0  0  0
    4.3121    1.4155   18.9038 C   0  0  0  0  0  0  0  0  0  0  0  0
    3.1905    2.2728   19.0642 C   0  0  0  0  0  0  0  0  0  0  0  0
    2.7827    2.6517   20.3112 C   0  0  0  0  0  0  0  0  0  0  0  0
    3.4901    2.1914   21.4456 C   0  0  0  0  0  0  0  0  0  0  0  0
    4.5778    1.3623   21.3156 C   0  0  0  0  0  0  0  0  0  0  0  0
    5.0159    0.9335   20.0317 C   0  0  0  0  0  0  0  0  0  0  0  0
    5.1043    1.0159   22.1992 H   0  0  0  0  0  0  0  0  0  0  0  0
    3.1665    2.5000   22.4330 H   0  0  0  0  0  0  0  0  0  0  0  0
    1.9282    3.3129   20.4369 H   0  0  0  0  0  0  0  0  0  0  0  0
    2.6801    2.6254   18.1717 H   0  0  0  0  0  0  0  0  0  0  0  0
    4.2281    1.3779   16.7363 H   0  0  0  0  0  0  0  0  0  0  0  0
    7.2999   -0.8786   18.2560 H   0  0  0  0  0  0  0  0  0  0  0  0
    9.5995   -1.6016   22.0984 H   0  0  0  0  0  0  0  0  0  0  0  0
  1  2  2  0
  2  3  1  0
  4  3  1  6
  4  5  1  0
  5  6  1  0
  6  7  1  0
  7  8  2  0
  8  9  1  0
  9 10  2  0
 10 11  1  0
 11 12  2  0
 12 13  1  0
 11 14  1  0
 10 15  1  0
  9 16  1  0
  8 17  1  0
  6 18  1  0
 18 19  1  0
 18 20  1  0
  6 21  1  6
  5 22  1  0
  5 23  1  0
  4 24  1  0
 24 25  2  0
 24 26  1  0
 26 27  1  0
 27 28  2  0
 28 29  1  0
 29 30  2  0
 30 31  1  0
 31 32  2  0
 32 33  1  0
 33 34  2  0
 34 35  1  0
 35 36  2  0
 35 37  1  0
 34 38  1  0
 33 39  1  0
 32 40  1  0
 30 41  1  0
 28 42  1  0
  3 43  1  0
 26  2  1  0
 36 27  1  0
 18  4  1  0
 36 31  1  0
 12  7  1  0
M  END
>  <cnnaffinities>  (26) 
[5.92621, 6.19493]

>  <score>  (26) 
5.92621

>  <index>  (26) 
26

>  <Smiles>  (26) 
O=C1N([C@]2(C([C@](c3c(c(c(c(c3Cl)[H])[H])[H])[H])(C2([H])[H])[H])([H])[H])C(=O)N1c1c(nc(c2c(c(c(c(c12)[H])[H])[H])[H])[H])[H])[H]

>  <h>  (26) 
<NA>

>  <Training>  (26) 
True

>  <Success>  (26) 
True

>  <enamine_searched>  (26) 
False

>  <enamine_id>  (26) 
nan

$$$$

     RDKit          3D

 46 48  0  0  0  0  0  0  0  0999 V2000
    8.5330   -1.4873   25.2413 C   0  0  0  0  0  0  0  0  0  0  0  0
    8.7391   -0.4965   24.1026 C   0  0  0  0  0  0  0  0  0  0  0  0
    7.5419    0.4426   23.8698 C   0  0  1  0  0  0  0  0  0  0  0  0
    7.2768    1.3334   25.0899 C   0  0  0  0  0  0  0  0  0  0  0  0
    6.3092    2.4584   24.7409 C   0  0  1  0  0  0  0  0  0  0  0  0
    5.9149    3.2686   25.9695 C   0  0  0  0  0  0  0  0  0  0  0  0
    5.0562    4.2677   25.6735 F   0  0  0  0  0  0  0  0  0  0  0  0
    6.9817    3.8504   26.5531 F   0  0  0  0  0  0  0  0  0  0  0  0
    5.3175    2.5177   26.9188 F   0  0  0  0  0  0  0  0  0  0  0  0
    6.8634    3.3640   23.6297 C   0  0  0  0  0  0  0  0  0  0  0  0
    7.9747    2.6797   22.8256 C   0  0  0  0  0  0  0  0  0  0  0  0
    7.6956    1.2544   22.6522 N   0  0  0  0  0  0  0  0  0  0  0  0
    7.9050    0.6934   21.3882 C   0  0  0  0  0  0  0  0  0  0  0  0
    8.7548    1.1177   20.6286 O   0  0  0  0  0  0  0  0  0  0  0  0
    6.9650   -0.4284   20.9096 C   0  0  0  0  0  0  0  0  0  0  0  0
    6.1077    0.0817   19.7665 C   0  0  0  0  0  0  0  0  0  0  0  0
    6.4260   -0.2079   18.4635 C   0  0  0  0  0  0  0  0  0  0  0  0
    5.7561    0.2428   17.3719 N   0  0  0  0  0  0  0  0  0  0  0  0
    4.7314    1.0330   17.5777 C   0  0  0  0  0  0  0  0  0  0  0  0
    4.2852    1.4266   18.8689 C   0  0  0  0  0  0  0  0  0  0  0  0
    3.1728    2.2877   19.0447 C   0  0  0  0  0  0  0  0  0  0  0  0
    2.7697    2.6569   20.3012 C   0  0  0  0  0  0  0  0  0  0  0  0
    3.4670    2.1736   21.4306 C   0  0  0  0  0  0  0  0  0  0  0  0
    4.5466    1.3361   21.2858 C   0  0  0  0  0  0  0  0  0  0  0  0
    4.9922    0.9417   19.9965 C   0  0  0  0  0  0  0  0  0  0  0  0
    5.0609    0.9708   22.1687 H   0  0  0  0  0  0  0  0  0  0  0  0
    3.1421    2.4747   22.4230 H   0  0  0  0  0  0  0  0  0  0  0  0
    1.9219    3.3227   20.4337 H   0  0  0  0  0  0  0  0  0  0  0  0
    2.6531    2.6573   18.1633 H   0  0  0  0  0  0  0  0  0  0  0  0
    4.1993    1.4004   16.6984 H   0  0  0  0  0  0  0  0  0  0  0  0
    7.2745   -0.8549   18.2440 H   0  0  0  0  0  0  0  0  0  0  0  0
    7.5923   -1.2454   20.5318 H   0  0  0  0  0  0  0  0  0  0  0  0
    6.3407   -0.8288   21.7167 H   0  0  0  0  0  0  0  0  0  0  0  0
    8.0461    3.1337   21.8368 H   0  0  0  0  0  0  0  0  0  0  0  0
    8.9469    2.8460   23.3113 H   0  0  0  0  0  0  0  0  0  0  0  0
    6.0394    3.6449   22.9654 H   0  0  0  0  0  0  0  0  0  0  0  0
    7.2559    4.2980   24.0440 H   0  0  0  0  0  0  0  0  0  0  0  0
    5.3665    2.0101   24.4098 H   0  0  0  0  0  0  0  0  0  0  0  0
    6.8580    0.7304   25.9027 H   0  0  0  0  0  0  0  0  0  0  0  0
    8.2109    1.7484   25.4855 H   0  0  0  0  0  0  0  0  0  0  0  0
    6.6483   -0.1795   23.7329 H   0  0  0  0  0  0  0  0  0  0  0  0
    9.6370    0.1003   24.2957 H   0  0  0  0  0  0  0  0  0  0  0  0
    8.9353   -1.0582   23.1833 H   0  0  0  0  0  0  0  0  0  0  0  0
    7.6099   -2.0584   25.1035 H   0  0  0  0  0  0  0  0  0  0  0  0
    9.3579   -2.2060   25.2823 H   0  0  0  0  0  0  0  0  0  0  0  0
    8.4837   -0.9956   26.2171 H   0  0  0  0  0  0  0  0  0  0  0  0
  1  2  1  0
  2  3  1  0
  3  4  1  0
  4  5  1  0
  5  6  1  0
  6  7  1  0
  6  8  1  0
  6  9  1  0
  5 10  1  0
 10 11  1  0
 11 12  1  0
 12 13  1  0
 13 14  2  0
 13 15  1  0
 15 16  1  0
 16 17  2  0
 17 18  1  0
 18 19  2  0
 19 20  1  0
 20 21  2  0
 21 22  1  0
 22 23  2  0
 23 24  1  0
 24 25  2  0
 24 26  1  0
 23 27  1  0
 22 28  1  0
 21 29  1  0
 19 30  1  0
 17 31  1  0
 15 32  1  0
 15 33  1  0
 11 34  1  0
 11 35  1  0
 10 36  1  0
 10 37  1  0
  5 38  1  6
  4 39  1  0
  4 40  1  0
  3 41  1  6
  2 42  1  0
  2 43  1  0
  1 44  1  0
  1 45  1  0
  1 46  1  0
 12  3  1  0
 25 16  1  0
 25 20  1  0
M  END
>  <cnnaffinities>  (27) 
[5.37448]

>  <score>  (27) 
5.37448

>  <index>  (27) 
27

>  <Smiles>  (27) 
C(C([C@]1(C([C@@](C(F)(F)F)(C(C(N1C(=O)C(c1c(nc(c2c(c(c(c(c12)[H])[H])[H])[H])[H])[H])([H])[H])([H])[H])([H])[H])[H])([H])[H])[H])([H])[H])([H])([H])[H]

>  <h>  (27) 
<NA>

>  <Training>  (27) 
True

>  <Success>  (27) 
True

>  <enamine_searched>  (27) 
False

>  <enamine_id>  (27) 
nan

$$$$

     RDKit          3D

 70 75  0  0  0  0  0  0  0  0999 V2000
    7.5626    6.2354   23.3521 C   0  0  0  0  0  0  0  0  0  0  0  0
    6.7157    5.1846   22.7512 N   0  0  0  0  0  4  0  0  0  0  0  0
    7.4322    3.8737   22.6453 C   0  0  0  0  0  0  0  0  0  0  0  0
    7.5844    3.1569   23.9949 C   0  0  0  0  0  0  0  0  0  0  0  0
    8.3669    1.9431   23.8549 N   0  0  0  0  0  0  0  0  0  0  0  0
    7.7371    0.6377   23.8295 C   0  0  0  0  0  0  0  0  0  0  0  0
    8.3157   -0.2689   22.6938 C   0  0  2  0  0  0  0  0  0  0  0  0
    7.8916    0.3429   21.3365 C   0  0  0  0  0  0  0  0  0  0  0  0
    8.3400    1.3449   20.8214 O   0  0  0  0  0  0  0  0  0  0  0  0
    6.8591   -0.4079   20.8071 N   0  0  0  0  0  0  0  0  0  0  0  0
    6.0834    0.1089   19.7330 C   0  0  0  0  0  0  0  0  0  0  0  0
    6.4090   -0.2044   18.4421 C   0  0  0  0  0  0  0  0  0  0  0  0
    5.7272    0.2365   17.3580 N   0  0  0  0  0  0  0  0  0  0  0  0
    4.7064    1.0317   17.5574 C   0  0  0  0  0  0  0  0  0  0  0  0
    4.2629    1.4461   18.8460 C   0  0  0  0  0  0  0  0  0  0  0  0
    3.1647    2.3319   19.0256 C   0  0  0  0  0  0  0  0  0  0  0  0
    2.7776    2.7138   20.2789 C   0  0  0  0  0  0  0  0  0  0  0  0
    3.4728    2.2397   21.4142 C   0  0  0  0  0  0  0  0  0  0  0  0
    4.5443    1.3936   21.2643 C   0  0  0  0  0  0  0  0  0  0  0  0
    4.9669    0.9700   19.9745 C   0  0  0  0  0  0  0  0  0  0  0  0
    5.0807    1.0550   22.1440 H   0  0  0  0  0  0  0  0  0  0  0  0
    3.1706    2.5497   22.4088 H   0  0  0  0  0  0  0  0  0  0  0  0
    1.9417    3.3958   20.4131 H   0  0  0  0  0  0  0  0  0  0  0  0
    2.6576    2.7136   18.1431 H   0  0  0  0  0  0  0  0  0  0  0  0
    4.1804    1.3907   16.6721 H   0  0  0  0  0  0  0  0  0  0  0  0
    7.2654   -0.8464   18.2487 H   0  0  0  0  0  0  0  0  0  0  0  0
    6.4023   -1.4673   21.6921 C   0  0  0  0  0  0  0  0  0  0  0  0
    7.6129   -1.6600   22.6170 C   0  0  2  0  0  0  0  0  0  0  0  0
    7.3010   -2.3619   23.9343 C   0  0  0  0  0  0  0  0  0  0  0  0
    6.1696   -1.7690   24.5503 O   0  0  0  0  0  0  0  0  0  0  0  0
    5.8957   -2.3047   25.8252 C   0  0  0  0  0  0  0  0  0  0  0  0
    5.0274   -1.3253   26.5775 C   0  0  0  0  0  0  0  0  0  0  0  0
    5.7871   -0.2004   26.8747 F   0  0  0  0  0  0  0  0  0  0  0  0
    3.6679   -0.9975   25.9658 C   0  0  0  0  0  0  0  0  0  0  0  0
    2.9772   -1.5845   27.0770 O   0  0  0  0  0  0  0  0  0  0  0  0
    4.2109   -1.8590   27.7574 C   0  0  0  0  0  0  0  0  0  0  0  0
    4.3239   -2.9263   27.9852 H   0  0  0  0  0  0  0  0  0  0  0  0
    4.3251   -1.2702   28.6750 H   0  0  0  0  0  0  0  0  0  0  0  0
    3.4490   -1.5216   25.0366 H   0  0  0  0  0  0  0  0  0  0  0  0
    3.4854    0.0774   25.8569 H   0  0  0  0  0  0  0  0  0  0  0  0
    5.3757   -3.2720   25.7403 H   0  0  0  0  0  0  0  0  0  0  0  0
    6.8254   -2.4624   26.3926 H   0  0  0  0  0  0  0  0  0  0  0  0
    7.1135   -3.4349   23.7623 H   0  0  0  0  0  0  0  0  0  0  0  0
    8.1766   -2.2743   24.6011 H   0  0  0  0  0  0  0  0  0  0  0  0
    8.2958   -2.3165   22.0693 H   0  0  0  0  0  0  0  0  0  0  0  0
    5.5009   -1.1763   22.2459 H   0  0  0  0  0  0  0  0  0  0  0  0
    6.1616   -2.3687   21.1191 H   0  0  0  0  0  0  0  0  0  0  0  0
    9.8289   -0.3014   22.8750 C   0  0  0  0  0  0  0  0  0  0  0  0
   10.6282   -1.4136   22.5652 C   0  0  0  0  0  0  0  0  0  0  0  0
   11.9610   -1.4409   22.9289 C   0  0  0  0  0  0  0  0  0  0  0  0
   12.8708   -2.9033   22.7095 Cl  0  0  0  0  0  0  0  0  0  0  0  0
   12.5910   -0.3400   23.5008 C   0  0  0  0  0  0  0  0  0  0  0  0
   11.8489    0.8113   23.6803 C   0  0  0  0  0  0  0  0  0  0  0  0
   10.4785    0.8271   23.4074 C   0  0  0  0  0  0  0  0  0  0  0  0
    9.7143    2.0814   23.7201 C   0  0  0  0  0  0  0  0  0  0  0  0
   10.2800    3.1607   23.8549 O   0  0  0  0  0  0  0  0  0  0  0  0
   12.3332    1.7256   24.0106 H   0  0  0  0  0  0  0  0  0  0  0  0
   13.6373   -0.4101   23.7803 H   0  0  0  0  0  0  0  0  0  0  0  0
   10.2817   -2.2571   21.9844 H   0  0  0  0  0  0  0  0  0  0  0  0
    6.6737    0.7846   23.6412 H   0  0  0  0  0  0  0  0  0  0  0  0
    7.8507    0.1364   24.8023 H   0  0  0  0  0  0  0  0  0  0  0  0
    6.6094    2.8859   24.4151 H   0  0  0  0  0  0  0  0  0  0  0  0
    8.0891    3.7853   24.7286 H   0  0  0  0  0  0  0  0  0  0  0  0
    6.8842    3.2347   21.9565 H   0  0  0  0  0  0  0  0  0  0  0  0
    8.4241    4.0688   22.2332 H   0  0  0  0  0  0  0  0  0  0  0  0
    6.4367    5.4943   21.7980 H   0  0  0  0  0  0  0  0  0  0  0  0
    5.8589    5.0413   23.3383 H   0  0  0  0  0  0  0  0  0  0  0  0
    7.0683    7.2035   23.3172 H   0  0  0  0  0  0  0  0  0  0  0  0
    8.5091    6.2982   22.8090 H   0  0  0  0  0  0  0  0  0  0  0  0
    7.7953    5.9947   24.3892 H   0  0  0  0  0  0  0  0  0  0  0  0
  1  2  1  0
  2  3  1  0
  3  4  1  0
  4  5  1  0
  5  6  1  0
  7  6  1  1
  7  8  1  0
  8  9  2  0
  8 10  1  0
 10 11  1  0
 11 12  2  0
 12 13  1  0
 13 14  2  0
 14 15  1  0
 15 16  2  0
 16 17  1  0
 17 18  2  0
 18 19  1  0
 19 20  2  0
 19 21  1  0
 18 22  1  0
 17 23  1  0
 16 24  1  0
 14 25  1  0
 12 26  1  0
 10 27  1  0
 27 28  1  0
 28 29  1  0
 29 30  1  0
 30 31  1  0
 31 32  1  0
 32 33  1  0
 32 34  1  0
 34 35  1  0
 35 36  1  0
 36 37  1  0
 36 38  1  0
 34 39  1  0
 34 40  1  0
 31 41  1  0
 31 42  1  0
 29 43  1  0
 29 44  1  0
 28 45  1  6
 27 46  1  0
 27 47  1  0
  7 48  1  0
 48 49  2  0
 49 50  1  0
 50 51  1  0
 50 52  2  0
 52 53  1  0
 53 54  2  0
 54 55  1  0
 55 56  2  0
 53 57  1  0
 52 58  1  0
 49 59  1  0
  6 60  1  0
  6 61  1  0
  4 62  1  0
  4 63  1  0
  3 64  1  0
  3 65  1  0
  2 66  1  0
  2 67  1  0
  1 68  1  0
  1 69  1  0
  1 70  1  0
 55  5  1  0
 28  7  1  0
 36 32  1  0
 54 48  1  0
 20 11  1  0
 20 15  1  0
M  CHG  1   2   1
M  END
>  <cnnaffinities>  (28) 
[6.03474]

>  <score>  (28) 
6.03474

>  <index>  (28) 
28

>  <Smiles>  (28) 
C([N+](C(C(N1C([C@@]2(C(=O)N(c3c(nc(c4c(c(c(c(c34)[H])[H])[H])[H])[H])[H])C([C@@]2(C(OC(C2(F)C(OC2([H])[H])([H])[H])([H])[H])([H])[H])[H])([H])[H])c2c(c(Cl)c(c(c2C1=O)[H])[H])[H])([H])[H])([H])[H])([H])[H])([H])[H])([H])([H])[H]

>  <h>  (28) 
<NA>

>  <Training>  (28) 
True

>  <Success>  (28) 
True

>  <enamine_searched>  (28) 
False

>  <enamine_id>  (28) 
nan

$$$$

     RDKit          3D

 67 72  0  0  0  0  0  0  0  0999 V2000
    5.1542   -7.0688   25.4973 C   0  0  0  0  0  0  0  0  0  0  0  0
    6.2742   -6.2813   24.9350 N   0  0  0  0  0  4  0  0  0  0  0  0
    6.2295   -6.1303   23.4523 C   0  0  0  0  0  0  0  0  0  0  0  0
    5.4934   -4.8438   23.0759 C   0  0  0  0  0  0  0  0  0  0  0  0
    6.1130   -3.6852   23.6990 N   0  0  0  0  0  0  0  0  0  0  0  0
    7.3291   -3.1597   23.1265 C   0  0  0  0  0  0  0  0  0  0  0  0
    7.1883   -1.6610   22.8327 C   0  0  2  0  0  0  0  0  0  0  0  0
    6.2649   -1.4415   21.6244 C   0  0  0  0  0  0  0  0  0  0  0  0
    5.1975   -1.9793   21.4012 O   0  0  0  0  0  0  0  0  0  0  0  0
    6.8487   -0.5160   20.7916 N   0  0  0  0  0  0  0  0  0  0  0  0
    6.1128    0.0705   19.7411 C   0  0  0  0  0  0  0  0  0  0  0  0
    6.4707   -0.1858   18.4416 C   0  0  0  0  0  0  0  0  0  0  0  0
    5.8050    0.2924   17.3666 N   0  0  0  0  0  0  0  0  0  0  0  0
    4.7723    1.0657   17.5862 C   0  0  0  0  0  0  0  0  0  0  0  0
    4.3121    1.4288   18.8845 C   0  0  0  0  0  0  0  0  0  0  0  0
    3.2049    2.2982   19.0609 C   0  0  0  0  0  0  0  0  0  0  0  0
    2.7956    2.6536   20.3119 C   0  0  0  0  0  0  0  0  0  0  0  0
    3.4702    2.1494   21.4468 C   0  0  0  0  0  0  0  0  0  0  0  0
    4.5448    1.3030   21.3120 C   0  0  0  0  0  0  0  0  0  0  0  0
    4.9928    0.9198   20.0110 C   0  0  0  0  0  0  0  0  0  0  0  0
    5.0491    0.9302   22.2038 H   0  0  0  0  0  0  0  0  0  0  0  0
    3.1365    2.4373   22.4363 H   0  0  0  0  0  0  0  0  0  0  0  0
    1.9541    3.3301   20.4440 H   0  0  0  0  0  0  0  0  0  0  0  0
    2.7143    2.6831   18.1715 H   0  0  0  0  0  0  0  0  0  0  0  0
    4.2439    1.4498   16.7128 H   0  0  0  0  0  0  0  0  0  0  0  0
    7.3182   -0.8373   18.2308 H   0  0  0  0  0  0  0  0  0  0  0  0
    8.1498   -0.0529   21.2215 C   0  0  0  0  0  0  0  0  0  0  0  0
    8.5149   -1.0297   22.3480 C   0  0  2  0  0  0  0  0  0  0  0  0
    9.5562   -2.0397   21.8450 C   0  0  0  0  0  0  0  0  0  0  0  0
   10.8110   -1.3487   21.6043 N   0  0  0  0  0  0  0  0  0  0  0  0
   11.6131   -0.9054   22.6114 C   0  0  0  0  0  0  0  0  0  0  0  0
   12.9134   -0.8781   22.2883 N   0  0  0  0  0  0  0  0  0  0  0  0
   13.7188   -0.5698   23.2736 C   0  0  0  0  0  0  0  0  0  0  0  0
   13.3722   -0.2186   24.5172 N   0  0  0  0  0  0  0  0  0  0  0  0
   12.0527   -0.1755   24.6843 C   0  0  0  0  0  0  0  0  0  0  0  0
   11.1239   -0.5102   23.7964 N   0  0  0  0  0  0  0  0  0  0  0  0
   11.6787    0.1827   25.6389 H   0  0  0  0  0  0  0  0  0  0  0  0
   14.7642   -0.5696   23.0121 H   0  0  0  0  0  0  0  0  0  0  0  0
   11.3876   -1.7676   20.8871 H   0  0  0  0  0  0  0  0  0  0  0  0
    9.6957   -2.8500   22.5747 H   0  0  0  0  0  0  0  0  0  0  0  0
    9.2550   -2.4971   20.8917 H   0  0  0  0  0  0  0  0  0  0  0  0
    9.0140   -0.5088   23.1621 H   0  0  0  0  0  0  0  0  0  0  0  0
    8.1232    0.9905   21.5713 H   0  0  0  0  0  0  0  0  0  0  0  0
    8.8701   -0.1016   20.4023 H   0  0  0  0  0  0  0  0  0  0  0  0
    6.6267   -0.9973   24.0896 C   0  0  0  0  0  0  0  0  0  0  0  0
    6.7917    0.3787   24.2889 C   0  0  0  0  0  0  0  0  0  0  0  0
    6.3443    0.9769   25.4537 C   0  0  0  0  0  0  0  0  0  0  0  0
    6.6154    2.6825   25.6874 Cl  0  0  0  0  0  0  0  0  0  0  0  0
    5.7017    0.2433   26.4478 C   0  0  0  0  0  0  0  0  0  0  0  0
    5.5061   -1.1113   26.2497 C   0  0  0  0  0  0  0  0  0  0  0  0
    5.9527   -1.7292   25.0797 C   0  0  0  0  0  0  0  0  0  0  0  0
    5.6994   -3.1909   24.8942 C   0  0  0  0  0  0  0  0  0  0  0  0
    5.1736   -3.9091   25.7533 O   0  0  0  0  0  0  0  0  0  0  0  0
    5.0068   -1.7208   26.9972 H   0  0  0  0  0  0  0  0  0  0  0  0
    5.3679    0.7404   27.3519 H   0  0  0  0  0  0  0  0  0  0  0  0
    7.3040    0.9949   23.5574 H   0  0  0  0  0  0  0  0  0  0  0  0
    8.1482   -3.2911   23.8530 H   0  0  0  0  0  0  0  0  0  0  0  0
    7.5523   -3.7156   22.2117 H   0  0  0  0  0  0  0  0  0  0  0  0
    4.4487   -4.8667   23.4052 H   0  0  0  0  0  0  0  0  0  0  0  0
    5.5093   -4.6769   21.9925 H   0  0  0  0  0  0  0  0  0  0  0  0
    5.7432   -7.0011   23.0030 H   0  0  0  0  0  0  0  0  0  0  0  0
    7.2564   -6.0973   23.0780 H   0  0  0  0  0  0  0  0  0  0  0  0
    7.1799   -6.6936   25.2228 H   0  0  0  0  0  0  0  0  0  0  0  0
    6.2008   -5.3413   25.3634 H   0  0  0  0  0  0  0  0  0  0  0  0
    5.4362   -7.4696   26.4725 H   0  0  0  0  0  0  0  0  0  0  0  0
    4.2828   -6.4225   25.6192 H   0  0  0  0  0  0  0  0  0  0  0  0
    4.8935   -7.8992   24.8367 H   0  0  0  0  0  0  0  0  0  0  0  0
  1  2  1  0
  2  3  1  0
  3  4  1  0
  4  5  1  0
  5  6  1  0
  7  6  1  1
  7  8  1  0
  8  9  2  0
  8 10  1  0
 10 11  1  0
 11 12  2  0
 12 13  1  0
 13 14  2  0
 14 15  1  0
 15 16  2  0
 16 17  1  0
 17 18  2  0
 18 19  1  0
 19 20  2  0
 19 21  1  0
 18 22  1  0
 17 23  1  0
 16 24  1  0
 14 25  1  0
 12 26  1  0
 10 27  1  0
 27 28  1  0
 28 29  1  0
 29 30  1  0
 30 31  1  0
 31 32  2  0
 32 33  1  0
 33 34  2  0
 34 35  1  0
 35 36  2  0
 35 37  1  0
 33 38  1  0
 30 39  1  0
 29 40  1  0
 29 41  1  0
 28 42  1  1
 27 43  1  0
 27 44  1  0
  7 45  1  0
 45 46  2  0
 46 47  1  0
 47 48  1  0
 47 49  2  0
 49 50  1  0
 50 51  2  0
 51 52  1  0
 52 53  2  0
 50 54  1  0
 49 55  1  0
 46 56  1  0
  6 57  1  0
  6 58  1  0
  4 59  1  0
  4 60  1  0
  3 61  1  0
  3 62  1  0
  2 63  1  0
  2 64  1  0
  1 65  1  0
  1 66  1  0
  1 67  1  0
 52  5  1  0
 28  7  1  0
 36 31  1  0
 51 45  1  0
 20 11  1  0
 20 15  1  0
M  CHG  1   2   1
M  END
>  <cnnaffinities>  (29) 
[7.178]

>  <score>  (29) 
7.178

>  <index>  (29) 
29

>  <Smiles>  (29) 
C([N+](C(C(N1C([C@@]2(C(=O)N(c3c(nc(c4c(c(c(c(c34)[H])[H])[H])[H])[H])[H])C([C@@]2(C(N(c2nc(nc(n2)[H])[H])[H])([H])[H])[H])([H])[H])c2c(c(Cl)c(c(c2C1=O)[H])[H])[H])([H])[H])([H])[H])([H])[H])([H])[H])([H])([H])[H]

>  <h>  (29) 
<NA>

>  <Training>  (29) 
True

>  <Success>  (29) 
True

>  <enamine_searched>  (29) 
False

>  <enamine_id>  (29) 
nan

$$$$

     RDKit          3D

 66 71  0  0  0  0  0  0  0  0999 V2000
    6.1042    1.0608   28.8403 C   0  0  0  0  0  0  0  0  0  0  0  0
    6.3058    1.4843   27.4666 N   0  0  0  0  0  0  0  0  0  0  0  0
    5.7466    0.7255   26.4807 C   0  0  0  0  0  0  0  0  0  0  0  0
    5.1355   -0.3083   26.7070 O   0  0  0  0  0  0  0  0  0  0  0  0
    5.9097    1.2839   25.0618 C   0  0  0  0  0  0  0  0  0  0  0  0
    7.1089    0.7812   24.4159 N   0  0  0  0  0  0  0  0  0  0  0  0
    7.1686   -0.5561   23.8643 C   0  0  0  0  0  0  0  0  0  0  0  0
    8.1789   -0.6246   22.6669 C   0  0  2  0  0  0  0  0  0  0  0  0
    7.6076    0.2655   21.5480 C   0  0  0  0  0  0  0  0  0  0  0  0
    7.7574    1.4580   21.3974 O   0  0  0  0  0  0  0  0  0  0  0  0
    6.8115   -0.5278   20.7544 N   0  0  0  0  0  0  0  0  0  0  0  0
    6.0607    0.0323   19.6968 C   0  0  0  0  0  0  0  0  0  0  0  0
    6.3837   -0.2441   18.3907 C   0  0  0  0  0  0  0  0  0  0  0  0
    5.7253    0.2537   17.3174 N   0  0  0  0  0  0  0  0  0  0  0  0
    4.7129    1.0526   17.5442 C   0  0  0  0  0  0  0  0  0  0  0  0
    4.2670    1.4176   18.8445 C   0  0  0  0  0  0  0  0  0  0  0  0
    3.1591    2.2863   19.0260 C   0  0  0  0  0  0  0  0  0  0  0  0
    2.7309    2.6144   20.2821 C   0  0  0  0  0  0  0  0  0  0  0  0
    3.4048    2.0968   21.4133 C   0  0  0  0  0  0  0  0  0  0  0  0
    4.4880    1.2685   21.2646 C   0  0  0  0  0  0  0  0  0  0  0  0
    4.9531    0.9020   19.9667 C   0  0  0  0  0  0  0  0  0  0  0  0
    5.0117    0.9010   22.1451 H   0  0  0  0  0  0  0  0  0  0  0  0
    3.0622    2.3693   22.4080 H   0  0  0  0  0  0  0  0  0  0  0  0
    1.8795    3.2761   20.4178 H   0  0  0  0  0  0  0  0  0  0  0  0
    2.6733    2.6825   18.1367 H   0  0  0  0  0  0  0  0  0  0  0  0
    4.1834    1.4544   16.6785 H   0  0  0  0  0  0  0  0  0  0  0  0
    7.2381   -0.8821   18.1651 H   0  0  0  0  0  0  0  0  0  0  0  0
    6.8528   -1.9368   21.1157 C   0  0  0  0  0  0  0  0  0  0  0  0
    8.1243   -2.0278   22.0015 C   0  0  2  0  0  0  0  0  0  0  0  0
    8.1714   -3.2347   22.9627 C   0  0  0  0  0  0  0  0  0  0  0  0
    9.4095   -3.2883   23.8463 C   0  0  0  0  0  0  0  0  0  0  0  0
   10.6582   -3.4247   23.2436 C   0  0  0  0  0  0  0  0  0  0  0  0
   11.8353   -3.4161   23.9813 C   0  0  0  0  0  0  0  0  0  0  0  0
   11.7821   -3.3716   25.3707 C   0  0  0  0  0  0  0  0  0  0  0  0
   10.5448   -3.2793   25.9973 C   0  0  0  0  0  0  0  0  0  0  0  0
    9.3732   -3.2115   25.2411 C   0  0  0  0  0  0  0  0  0  0  0  0
    8.4218   -3.0808   25.7566 H   0  0  0  0  0  0  0  0  0  0  0  0
   10.4865   -3.2647   27.0837 H   0  0  0  0  0  0  0  0  0  0  0  0
   12.7000   -3.4120   25.9537 H   0  0  0  0  0  0  0  0  0  0  0  0
   12.7925   -3.4525   23.4650 H   0  0  0  0  0  0  0  0  0  0  0  0
   10.7182   -3.4264   22.1580 H   0  0  0  0  0  0  0  0  0  0  0  0
    7.2714   -3.2063   23.5847 H   0  0  0  0  0  0  0  0  0  0  0  0
    8.1141   -4.1611   22.3762 H   0  0  0  0  0  0  0  0  0  0  0  0
    8.9635   -2.0943   21.3022 H   0  0  0  0  0  0  0  0  0  0  0  0
    5.9451   -2.2230   21.6661 H   0  0  0  0  0  0  0  0  0  0  0  0
    6.8732   -2.5419   20.2111 H   0  0  0  0  0  0  0  0  0  0  0  0
    9.5279   -0.1101   23.1528 C   0  0  0  0  0  0  0  0  0  0  0  0
   10.7717   -0.5046   22.6317 C   0  0  0  0  0  0  0  0  0  0  0  0
   11.9481   -0.0531   23.2162 C   0  0  0  0  0  0  0  0  0  0  0  0
   13.4987   -0.6473   22.6803 Cl  0  0  0  0  0  0  0  0  0  0  0  0
   11.9339    0.8960   24.2345 C   0  0  0  0  0  0  0  0  0  0  0  0
   10.7224    1.4025   24.6420 C   0  0  0  0  0  0  0  0  0  0  0  0
    9.5300    0.8924   24.1371 C   0  0  0  0  0  0  0  0  0  0  0  0
    8.2497    1.4639   24.6724 C   0  0  0  0  0  0  0  0  0  0  0  0
    8.2066    2.5046   25.3157 O   0  0  0  0  0  0  0  0  0  0  0  0
   10.6884    2.2080   25.3598 H   0  0  0  0  0  0  0  0  0  0  0  0
   12.8704    1.2209   24.6693 H   0  0  0  0  0  0  0  0  0  0  0  0
   10.8539   -1.2147   21.8184 H   0  0  0  0  0  0  0  0  0  0  0  0
    6.1623   -0.8491   23.5518 H   0  0  0  0  0  0  0  0  0  0  0  0
    7.4934   -1.2670   24.6312 H   0  0  0  0  0  0  0  0  0  0  0  0
    6.0025    2.3735   25.1055 H   0  0  0  0  0  0  0  0  0  0  0  0
    5.0281    1.0177   24.4733 H   0  0  0  0  0  0  0  0  0  0  0  0
    7.1316    2.0297   27.2332 H   0  0  0  0  0  0  0  0  0  0  0  0
    6.5452    1.7901   29.5265 H   0  0  0  0  0  0  0  0  0  0  0  0
    5.0301    0.9888   29.0396 H   0  0  0  0  0  0  0  0  0  0  0  0
    6.5304    0.0684   29.0261 H   0  0  0  0  0  0  0  0  0  0  0  0
  1  2  1  0
  2  3  1  0
  3  4  2  0
  3  5  1  0
  5  6  1  0
  6  7  1  0
  8  7  1  1
  8  9  1  0
  9 10  2  0
  9 11  1  0
 11 12  1  0
 12 13  2  0
 13 14  1  0
 14 15  2  0
 15 16  1  0
 16 17  2  0
 17 18  1  0
 18 19  2  0
 19 20  1  0
 20 21  2  0
 20 22  1  0
 19 23  1  0
 18 24  1  0
 17 25  1  0
 15 26  1  0
 13 27  1  0
 11 28  1  0
 28 29  1  0
 29 30  1  0
 30 31  1  0
 31 32  2  0
 32 33  1  0
 33 34  2  0
 34 35  1  0
 35 36  2  0
 36 37  1  0
 35 38  1  0
 34 39  1  0
 33 40  1  0
 32 41  1  0
 30 42  1  0
 30 43  1  0
 29 44  1  6
 28 45  1  0
 28 46  1  0
  8 47  1  0
 47 48  2  0
 48 49  1  0
 49 50  1  0
 49 51  2  0
 51 52  1  0
 52 53  2  0
 53 54  1  0
 54 55  2  0
 52 56  1  0
 51 57  1  0
 48 58  1  0
  7 59  1  0
  7 60  1  0
  5 61  1  0
  5 62  1  0
  2 63  1  0
  1 64  1  0
  1 65  1  0
  1 66  1  0
 54  6  1  0
 29  8  1  0
 36 31  1  0
 53 47  1  0
 21 12  1  0
 21 16  1  0
M  END
>  <cnnaffinities>  (30) 
[6.64749]

>  <score>  (30) 
6.64749

>  <index>  (30) 
30

>  <Smiles>  (30) 
C(N(C(=O)C(N1C([C@@]2(C(=O)N(c3c(nc(c4c(c(c(c(c34)[H])[H])[H])[H])[H])[H])C([C@@]2(C(c2c(c(c(c(c2[H])[H])[H])[H])[H])([H])[H])[H])([H])[H])c2c(c(Cl)c(c(c2C1=O)[H])[H])[H])([H])[H])([H])[H])[H])([H])([H])[H]

>  <h>  (30) 
<NA>

>  <Training>  (30) 
True

>  <Success>  (30) 
True

>  <enamine_searched>  (30) 
False

>  <enamine_id>  (30) 
nan

$$$$

     RDKit          3D

 64 70  0  0  0  0  0  0  0  0999 V2000
    5.1134   -4.8323   25.0141 O   0  0  0  0  0  0  0  0  0  0  0  0
    5.7130   -3.9554   24.4042 C   0  0  0  0  0  0  0  0  0  0  0  0
    6.2741   -2.7456   25.0480 C   0  0  0  0  0  0  0  0  0  0  0  0
    6.1254   -2.6642   26.4262 C   0  0  0  0  0  0  0  0  0  0  0  0
    6.3850   -1.4760   27.0642 C   0  0  0  0  0  0  0  0  0  0  0  0
    6.7412   -0.3821   26.2734 C   0  0  0  0  0  0  0  0  0  0  0  0
    6.8205    1.1736   27.0373 Cl  0  0  0  0  0  0  0  0  0  0  0  0
    6.9738   -0.4788   24.9108 C   0  0  0  0  0  0  0  0  0  0  0  0
    6.7860   -1.6982   24.2563 C   0  0  0  0  0  0  0  0  0  0  0  0
    7.0903   -1.8367   22.7578 C   0  0  1  0  0  0  0  0  0  0  0  0
    7.0741   -3.3449   22.4639 C   0  0  0  0  0  0  0  0  0  0  0  0
    5.8573   -3.9353   23.0495 N   0  0  0  0  0  0  0  0  0  0  0  0
    4.9831   -4.7920   22.2723 C   0  0  0  0  0  0  0  0  0  0  0  0
    5.8528   -5.8680   21.7618 C   0  0  0  0  0  0  0  0  0  0  0  0
    6.5152   -5.8751   20.6564 N   0  0  0  0  0  0  0  0  0  0  0  0
    7.5043   -6.8250   20.8230 N   0  0  0  0  0  0  0  0  0  0  0  0
    7.3349   -7.3252   21.9972 C   0  0  0  0  0  0  0  0  0  0  0  0
    6.3163   -6.7572   22.6680 O   0  0  0  0  0  0  0  0  0  0  0  0
    7.8837   -8.1175   22.4812 H   0  0  0  0  0  0  0  0  0  0  0  0
    4.5546   -4.2137   21.4556 H   0  0  0  0  0  0  0  0  0  0  0  0
    4.2067   -5.1888   22.9346 H   0  0  0  0  0  0  0  0  0  0  0  0
    7.9715   -3.7882   22.9060 H   0  0  0  0  0  0  0  0  0  0  0  0
    7.1036   -3.5308   21.3887 H   0  0  0  0  0  0  0  0  0  0  0  0
    6.0051   -1.2451   21.8186 C   0  0  0  0  0  0  0  0  0  0  0  0
    4.8329   -1.5434   21.8039 O   0  0  0  0  0  0  0  0  0  0  0  0
    6.5984   -0.4186   20.8796 N   0  0  0  0  0  0  0  0  0  0  0  0
    5.9329    0.1401   19.7788 C   0  0  0  0  0  0  0  0  0  0  0  0
    6.3732   -0.0940   18.4965 C   0  0  0  0  0  0  0  0  0  0  0  0
    5.7666    0.3740   17.3842 N   0  0  0  0  0  0  0  0  0  0  0  0
    4.7117    1.1318   17.5474 C   0  0  0  0  0  0  0  0  0  0  0  0
    4.1905    1.5012   18.8193 C   0  0  0  0  0  0  0  0  0  0  0  0
    3.0750    2.3688   18.9443 C   0  0  0  0  0  0  0  0  0  0  0  0
    2.6502    2.7759   20.1795 C   0  0  0  0  0  0  0  0  0  0  0  0
    3.3312    2.3559   21.3453 C   0  0  0  0  0  0  0  0  0  0  0  0
    4.4052    1.5085   21.2499 C   0  0  0  0  0  0  0  0  0  0  0  0
    4.8336    1.0297   19.9792 C   0  0  0  0  0  0  0  0  0  0  0  0
    4.9447    1.2056   22.1409 H   0  0  0  0  0  0  0  0  0  0  0  0
    3.0047    2.7092   22.3203 H   0  0  0  0  0  0  0  0  0  0  0  0
    1.7960    3.4397   20.2723 H   0  0  0  0  0  0  0  0  0  0  0  0
    2.5950    2.7159   18.0330 H   0  0  0  0  0  0  0  0  0  0  0  0
    4.2251    1.5084   16.6496 H   0  0  0  0  0  0  0  0  0  0  0  0
    7.2580   -0.7025   18.3160 H   0  0  0  0  0  0  0  0  0  0  0  0
    8.0283   -0.5849   20.8464 C   0  0  0  0  0  0  0  0  0  0  0  0
    8.3567   -1.0717   22.2526 C   0  0  2  0  0  0  0  0  0  0  0  0
    9.7582   -1.7069   22.1741 C   0  0  0  0  0  0  0  0  0  0  0  0
   10.3101   -2.3096   23.3626 N   0  0  0  0  0  0  0  0  0  0  0  0
   10.2717   -1.7588   24.5981 C   0  0  0  0  0  0  0  0  0  0  0  0
   10.1501   -0.3683   24.7873 C   0  0  0  0  0  0  0  0  0  0  0  0
    9.9107    0.0363   26.0664 C   0  0  0  0  0  0  0  0  0  0  0  0
    9.9412   -0.8057   27.1159 N   0  0  0  0  0  0  0  0  0  0  0  0
   10.1650   -2.0769   26.8291 C   0  0  0  0  0  0  0  0  0  0  0  0
   10.3643   -2.6103   25.6249 N   0  0  0  0  0  0  0  0  0  0  0  0
   10.1789   -2.7844   27.6614 H   0  0  0  0  0  0  0  0  0  0  0  0
    9.6120    1.0640   26.2827 H   0  0  0  0  0  0  0  0  0  0  0  0
   10.2342    0.3269   23.9604 H   0  0  0  0  0  0  0  0  0  0  0  0
   10.4497   -3.3078   23.3707 H   0  0  0  0  0  0  0  0  0  0  0  0
    9.7498   -2.4952   21.4121 H   0  0  0  0  0  0  0  0  0  0  0  0
   10.4346   -0.9178   21.8049 H   0  0  0  0  0  0  0  0  0  0  0  0
    8.3913   -0.1808   22.8768 H   0  0  0  0  0  0  0  0  0  0  0  0
    8.3341   -1.3381   20.1065 H   0  0  0  0  0  0  0  0  0  0  0  0
    8.5089    0.3632   20.5832 H   0  0  0  0  0  0  0  0  0  0  0  0
    7.3068    0.4055   24.3800 H   0  0  0  0  0  0  0  0  0  0  0  0
    6.2801   -1.3683   28.1378 H   0  0  0  0  0  0  0  0  0  0  0  0
    5.7543   -3.5369   26.9543 H   0  0  0  0  0  0  0  0  0  0  0  0
  1  2  2  0
  2  3  1  0
  3  4  2  0
  4  5  1  0
  5  6  2  0
  6  7  1  0
  6  8  1  0
  8  9  2  0
  9 10  1  0
 10 11  1  6
 11 12  1  0
 12 13  1  0
 13 14  1  0
 14 15  2  0
 15 16  1  0
 16 17  2  0
 17 18  1  0
 17 19  1  0
 13 20  1  0
 13 21  1  0
 11 22  1  0
 11 23  1  0
 10 24  1  0
 24 25  2  0
 24 26  1  0
 26 27  1  0
 27 28  2  0
 28 29  1  0
 29 30  2  0
 30 31  1  0
 31 32  2  0
 32 33  1  0
 33 34  2  0
 34 35  1  0
 35 36  2  0
 35 37  1  0
 34 38  1  0
 33 39  1  0
 32 40  1  0
 30 41  1  0
 28 42  1  0
 26 43  1  0
 43 44  1  0
 44 45  1  0
 45 46  1  0
 46 47  1  0
 47 48  2  0
 48 49  1  0
 49 50  2  0
 50 51  1  0
 51 52  2  0
 51 53  1  0
 49 54  1  0
 48 55  1  0
 46 56  1  0
 45 57  1  0
 45 58  1  0
 44 59  1  1
 43 60  1  0
 43 61  1  0
  8 62  1  0
  5 63  1  0
  4 64  1  0
 12  2  1  0
 18 14  1  0
 36 27  1  0
 52 47  1  0
  9  3  1  0
 44 10  1  0
 36 31  1  0
M  END
>  <cnnaffinities>  (31) 
[6.56652]

>  <score>  (31) 
6.56652

>  <index>  (31) 
31

>  <Smiles>  (31) 
O=C1c2c(c(c(Cl)c(c2[C@@]2(C(N1C(c1nnc(o1)[H])([H])[H])([H])[H])C(=O)N(c1c(nc(c3c(c(c(c(c13)[H])[H])[H])[H])[H])[H])C([C@@]2(C(N(c1c(c(nc(n1)[H])[H])[H])[H])([H])[H])[H])([H])[H])[H])[H])[H]

>  <h>  (31) 
<NA>

>  <Training>  (31) 
True

>  <Success>  (31) 
True

>  <enamine_searched>  (31) 
False

>  <enamine_id>  (31) 
nan

$$$$

     RDKit          3D

 72 77  0  0  0  0  0  0  0  0999 V2000
    9.7197   -1.9584   21.8723 C   0  0  0  0  0  0  0  0  0  0  0  0
    8.5774   -1.0480   22.3436 C   0  0  1  0  0  0  0  0  0  0  0  0
    8.1461   -0.1017   21.1973 C   0  0  0  0  0  0  0  0  0  0  0  0
    6.8201   -0.5506   20.8401 N   0  0  0  0  0  0  0  0  0  0  0  0
    6.0897    0.0259   19.7752 C   0  0  0  0  0  0  0  0  0  0  0  0
    6.4668   -0.2105   18.4762 C   0  0  0  0  0  0  0  0  0  0  0  0
    5.8172    0.2764   17.3955 N   0  0  0  0  0  0  0  0  0  0  0  0
    4.7774    1.0439   17.6080 C   0  0  0  0  0  0  0  0  0  0  0  0
    4.3042    1.4020   18.9041 C   0  0  0  0  0  0  0  0  0  0  0  0
    3.1991    2.2748   19.0737 C   0  0  0  0  0  0  0  0  0  0  0  0
    2.7988    2.6425   20.3298 C   0  0  0  0  0  0  0  0  0  0  0  0
    3.4823    2.1537   21.4672 C   0  0  0  0  0  0  0  0  0  0  0  0
    4.5446    1.2927   21.3321 C   0  0  0  0  0  0  0  0  0  0  0  0
    4.9791    0.8923   20.0324 C   0  0  0  0  0  0  0  0  0  0  0  0
    5.0608    0.9206   22.2167 H   0  0  0  0  0  0  0  0  0  0  0  0
    3.1593    2.4672   22.4550 H   0  0  0  0  0  0  0  0  0  0  0  0
    1.9591    3.3174   20.4568 H   0  0  0  0  0  0  0  0  0  0  0  0
    2.6954    2.6423   18.1845 H   0  0  0  0  0  0  0  0  0  0  0  0
    4.2563    1.4249   16.7312 H   0  0  0  0  0  0  0  0  0  0  0  0
    7.3291   -0.8429   18.2696 H   0  0  0  0  0  0  0  0  0  0  0  0
    6.3245   -1.5844   21.6022 C   0  0  0  0  0  0  0  0  0  0  0  0
    5.3321   -2.2307   21.3391 O   0  0  0  0  0  0  0  0  0  0  0  0
    7.2614   -1.7789   22.8120 C   0  0  1  0  0  0  0  0  0  0  0  0
    7.4513   -3.2968   23.0822 C   0  0  0  0  0  0  0  0  0  0  0  0
    6.3109   -3.9262   23.7417 N   0  0  0  0  0  0  0  0  0  0  0  0
    6.0217   -5.3369   23.4863 C   0  0  0  0  0  0  0  0  0  0  0  0
    4.8197   -5.5866   22.5600 C   0  0  0  0  0  0  0  0  0  0  0  0
    3.4844   -5.5725   23.2768 N   0  0  1  0  0  4  0  0  0  0  0  0
    2.9078   -4.1849   23.3051 C   0  0  0  0  0  0  0  0  0  0  0  0
    1.5497   -4.1639   23.9778 C   0  0  0  0  0  0  0  0  0  0  0  0
    0.6476   -4.9973   23.2923 O   0  0  0  0  0  0  0  0  0  0  0  0
    1.0350   -6.3757   23.2929 C   0  0  0  0  0  0  0  0  0  0  0  0
   -0.0395   -7.0203   22.4238 C   0  0  0  0  0  0  0  0  0  0  0  0
    0.0879   -8.1062   22.3490 H   0  0  0  0  0  0  0  0  0  0  0  0
   -0.0321   -6.5702   21.4224 H   0  0  0  0  0  0  0  0  0  0  0  0
   -1.0091   -6.7965   22.8830 H   0  0  0  0  0  0  0  0  0  0  0  0
    0.9877   -6.9061   24.7248 C   0  0  0  0  0  0  0  0  0  0  0  0
    1.0165   -8.0000   24.7345 H   0  0  0  0  0  0  0  0  0  0  0  0
    1.8289   -6.5344   25.3250 H   0  0  0  0  0  0  0  0  0  0  0  0
    0.0544   -6.5614   25.1823 H   0  0  0  0  0  0  0  0  0  0  0  0
    2.4436   -6.5355   22.6757 C   0  0  0  0  0  0  0  0  0  0  0  0
    2.3807   -6.3444   21.5991 H   0  0  0  0  0  0  0  0  0  0  0  0
    2.8013   -7.5627   22.7985 H   0  0  0  0  0  0  0  0  0  0  0  0
    1.1130   -3.1604   23.9511 H   0  0  0  0  0  0  0  0  0  0  0  0
    1.6523   -4.4461   25.0391 H   0  0  0  0  0  0  0  0  0  0  0  0
    2.8346   -3.8153   22.2749 H   0  0  0  0  0  0  0  0  0  0  0  0
    3.5769   -3.5320   23.8577 H   0  0  0  0  0  0  0  0  0  0  0  0
    3.6917   -5.8376   24.2632 H   0  0  0  0  0  0  0  0  0  0  0  0
    4.8218   -4.8270   21.7719 H   0  0  0  0  0  0  0  0  0  0  0  0
    4.9181   -6.5663   22.0829 H   0  0  0  0  0  0  0  0  0  0  0  0
    5.8454   -5.8289   24.4460 H   0  0  0  0  0  0  0  0  0  0  0  0
    6.9131   -5.7752   23.0294 H   0  0  0  0  0  0  0  0  0  0  0  0
    5.7132   -3.3347   24.8169 C   0  0  0  0  0  0  0  0  0  0  0  0
    4.9493   -3.9557   25.5537 O   0  0  0  0  0  0  0  0  0  0  0  0
    5.9748   -1.8599   25.0084 C   0  0  0  0  0  0  0  0  0  0  0  0
    5.5190   -1.2510   26.1803 C   0  0  0  0  0  0  0  0  0  0  0  0
    5.7091    0.0985   26.4099 C   0  0  0  0  0  0  0  0  0  0  0  0
    6.3228    0.8587   25.4187 C   0  0  0  0  0  0  0  0  0  0  0  0
    6.5458    2.5621   25.6929 Cl  0  0  0  0  0  0  0  0  0  0  0  0
    6.7827    0.2797   24.2476 C   0  0  0  0  0  0  0  0  0  0  0  0
    6.6613   -1.1086   24.0473 C   0  0  0  0  0  0  0  0  0  0  0  0
    7.2481    0.9381   23.5177 H   0  0  0  0  0  0  0  0  0  0  0  0
    5.3947    0.5626   27.3390 H   0  0  0  0  0  0  0  0  0  0  0  0
    5.0206   -1.8741   26.9133 H   0  0  0  0  0  0  0  0  0  0  0  0
    7.5965   -3.8069   22.1300 H   0  0  0  0  0  0  0  0  0  0  0  0
    8.3558   -3.4408   23.6888 H   0  0  0  0  0  0  0  0  0  0  0  0
    8.1417    0.9625   21.4834 H   0  0  0  0  0  0  0  0  0  0  0  0
    8.8188   -0.1867   20.3369 H   0  0  0  0  0  0  0  0  0  0  0  0
    8.9655   -0.4603   23.1839 H   0  0  0  0  0  0  0  0  0  0  0  0
   10.5594   -1.3495   21.5159 H   0  0  0  0  0  0  0  0  0  0  0  0
    9.4078   -2.6070   21.0460 H   0  0  0  0  0  0  0  0  0  0  0  0
   10.0959   -2.5843   22.6859 H   0  0  0  0  0  0  0  0  0  0  0  0
  1  2  1  0
  2  3  1  0
  3  4  1  0
  4  5  1  0
  5  6  2  0
  6  7  1  0
  7  8  2  0
  8  9  1  0
  9 10  2  0
 10 11  1  0
 11 12  2  0
 12 13  1  0
 13 14  2  0
 13 15  1  0
 12 16  1  0
 11 17  1  0
 10 18  1  0
  8 19  1  0
  6 20  1  0
  4 21  1  0
 21 22  2  0
 21 23  1  0
 23 24  1  1
 24 25  1  0
 25 26  1  0
 26 27  1  0
 27 28  1  0
 28 29  1  0
 29 30  1  0
 30 31  1  0
 31 32  1  0
 32 33  1  0
 33 34  1  0
 33 35  1  0
 33 36  1  0
 32 37  1  0
 37 38  1  0
 37 39  1  0
 37 40  1  0
 32 41  1  0
 41 42  1  0
 41 43  1  0
 30 44  1  0
 30 45  1  0
 29 46  1  0
 29 47  1  0
 28 48  1  1
 27 49  1  0
 27 50  1  0
 26 51  1  0
 26 52  1  0
 25 53  1  0
 53 54  2  0
 53 55  1  0
 55 56  2  0
 56 57  1  0
 57 58  2  0
 58 59  1  0
 58 60  1  0
 60 61  2  0
 60 62  1  0
 57 63  1  0
 56 64  1  0
 24 65  1  0
 24 66  1  0
  3 67  1  0
  3 68  1  0
  2 69  1  1
  1 70  1  0
  1 71  1  0
  1 72  1  0
 23  2  1  0
 41 28  1  0
 61 55  1  0
 14  5  1  0
 61 23  1  0
 14  9  1  0
M  CHG  1  28   1
M  END
>  <cnnaffinities>  (32) 
[6.41781]

>  <score>  (32) 
6.41781

>  <index>  (32) 
32

>  <Smiles>  (32) 
C([C@]1(C(N(c2c(nc(c3c(c(c(c(c23)[H])[H])[H])[H])[H])[H])C(=O)[C@]21C(N(C(C([N@+]1(C(C(OC(C([H])([H])[H])(C([H])([H])[H])C1([H])[H])([H])[H])([H])[H])[H])([H])[H])([H])[H])C(=O)c1c(c(c(Cl)c(c21)[H])[H])[H])([H])[H])([H])[H])[H])([H])([H])[H]

>  <h>  (32) 
<NA>

>  <Training>  (32) 
True

>  <Success>  (32) 
True

>  <enamine_searched>  (32) 
False

>  <enamine_id>  (32) 
nan

$$$$

     RDKit          3D

 44 47  0  0  0  0  0  0  0  0999 V2000
    5.4487   -2.4042   20.9435 O   0  0  0  0  0  0  0  0  0  0  0  0
    6.2342   -1.7188   21.5850 C   0  0  0  0  0  0  0  0  0  0  0  0
    6.9124   -0.4911   20.9253 C   0  0  0  0  0  0  0  0  0  0  0  0
    6.1133    0.0838   19.7754 C   0  0  0  0  0  0  0  0  0  0  0  0
    6.4204   -0.2153   18.4720 C   0  0  0  0  0  0  0  0  0  0  0  0
    5.7541    0.2400   17.3762 N   0  0  0  0  0  0  0  0  0  0  0  0
    4.7346    1.0335   17.5789 C   0  0  0  0  0  0  0  0  0  0  0  0
    4.2846    1.4244   18.8706 C   0  0  0  0  0  0  0  0  0  0  0  0
    3.1651    2.2761   19.0463 C   0  0  0  0  0  0  0  0  0  0  0  0
    2.7514    2.6299   20.2989 C   0  0  0  0  0  0  0  0  0  0  0  0
    3.4466    2.1373   21.4301 C   0  0  0  0  0  0  0  0  0  0  0  0
    4.5332    1.3107   21.2943 C   0  0  0  0  0  0  0  0  0  0  0  0
    4.9886    0.9356   20.0027 C   0  0  0  0  0  0  0  0  0  0  0  0
    5.0464    0.9437   22.1835 H   0  0  0  0  0  0  0  0  0  0  0  0
    3.1117    2.4266   22.4195 H   0  0  0  0  0  0  0  0  0  0  0  0
    1.8964    3.2872   20.4378 H   0  0  0  0  0  0  0  0  0  0  0  0
    2.6489    2.6474   18.1619 H   0  0  0  0  0  0  0  0  0  0  0  0
    4.2017    1.3993   16.6966 H   0  0  0  0  0  0  0  0  0  0  0  0
    7.2642   -0.8655   18.2429 H   0  0  0  0  0  0  0  0  0  0  0  0
    7.1572    0.2946   21.6506 H   0  0  0  0  0  0  0  0  0  0  0  0
    7.8728   -0.8381   20.5193 H   0  0  0  0  0  0  0  0  0  0  0  0
    6.5621   -2.0607   22.8700 N   0  0  0  0  0  0  0  0  0  0  0  0
    6.0940   -3.3326   23.4187 C   0  0  0  0  0  0  0  0  0  0  0  0
    6.6068   -3.3672   24.8609 C   0  0  0  0  0  0  0  0  0  0  0  0
    7.6652   -2.2653   24.9538 C   0  0  0  0  0  0  0  0  0  0  0  0
    7.3531   -1.2834   23.8125 C   0  0  2  0  0  0  0  0  0  0  0  0
    6.6403   -0.0334   24.2970 C   0  0  0  0  0  0  0  0  0  0  0  0
    5.3227   -0.0880   24.7490 C   0  0  0  0  0  0  0  0  0  0  0  0
    4.6832    1.0574   25.2013 C   0  0  0  0  0  0  0  0  0  0  0  0
    5.3397    2.2818   25.2266 C   0  0  0  0  0  0  0  0  0  0  0  0
    6.6583    2.3077   24.8020 C   0  0  0  0  0  0  0  0  0  0  0  0
    7.3158    3.4795   24.8163 F   0  0  0  0  0  0  0  0  0  0  0  0
    7.3230    1.1803   24.3467 C   0  0  0  0  0  0  0  0  0  0  0  0
    8.3600    1.2628   24.0253 H   0  0  0  0  0  0  0  0  0  0  0  0
    4.8538    3.1924   25.5603 H   0  0  0  0  0  0  0  0  0  0  0  0
    3.6541    1.0010   25.5316 H   0  0  0  0  0  0  0  0  0  0  0  0
    4.7809   -1.0283   24.7456 H   0  0  0  0  0  0  0  0  0  0  0  0
    8.2848   -0.9759   23.3346 H   0  0  0  0  0  0  0  0  0  0  0  0
    7.6520   -1.7671   25.9246 H   0  0  0  0  0  0  0  0  0  0  0  0
    8.6706   -2.6791   24.8409 H   0  0  0  0  0  0  0  0  0  0  0  0
    5.7995   -3.1949   25.5774 H   0  0  0  0  0  0  0  0  0  0  0  0
    7.0271   -4.3401   25.1184 H   0  0  0  0  0  0  0  0  0  0  0  0
    6.4997   -4.1507   22.8201 H   0  0  0  0  0  0  0  0  0  0  0  0
    5.0040   -3.4195   23.3680 H   0  0  0  0  0  0  0  0  0  0  0  0
  1  2  2  0
  2  3  1  0
  3  4  1  0
  4  5  2  0
  5  6  1  0
  6  7  2  0
  7  8  1  0
  8  9  2  0
  9 10  1  0
 10 11  2  0
 11 12  1  0
 12 13  2  0
 12 14  1  0
 11 15  1  0
 10 16  1  0
  9 17  1  0
  7 18  1  0
  5 19  1  0
  3 20  1  0
  3 21  1  0
  2 22  1  0
 22 23  1  0
 23 24  1  0
 24 25  1  0
 25 26  1  0
 26 27  1  0
 27 28  2  0
 28 29  1  0
 29 30  2  0
 30 31  1  0
 31 32  1  0
 31 33  2  0
 33 34  1  0
 30 35  1  0
 29 36  1  0
 28 37  1  0
 26 38  1  6
 25 39  1  0
 25 40  1  0
 24 41  1  0
 24 42  1  0
 23 43  1  0
 23 44  1  0
 13  4  1  0
 26 22  1  0
 33 27  1  0
 13  8  1  0
M  END
>  <cnnaffinities>  (33) 
[5.80916, 5.82455, 5.21949]

>  <score>  (33) 
5.80916

>  <index>  (33) 
33

>  <Smiles>  (33) 
O=C(C(c1c(nc(c2c(c(c(c(c12)[H])[H])[H])[H])[H])[H])([H])[H])N1C(C(C([C@@]1(c1c(c(c(c(F)c1[H])[H])[H])[H])[H])([H])[H])([H])[H])([H])[H]

>  <h>  (33) 
<NA>

>  <Training>  (33) 
True

>  <Success>  (33) 
True

>  <enamine_searched>  (33) 
False

>  <enamine_id>  (33) 
nan

$$$$

     RDKit          3D

 58 63  0  0  0  0  0  0  0  0999 V2000
    7.9550   -3.0865   23.1526 C   0  0  0  0  0  0  0  0  0  0  0  0
    7.9966   -1.9675   22.1223 C   0  0  1  0  0  0  0  0  0  0  0  0
    6.7954   -1.8872   21.1610 C   0  0  0  0  0  0  0  0  0  0  0  0
    6.8140   -0.4955   20.7616 N   0  0  0  0  0  0  0  0  0  0  0  0
    6.0681    0.0549   19.7063 C   0  0  0  0  0  0  0  0  0  0  0  0
    6.3961   -0.2462   18.4097 C   0  0  0  0  0  0  0  0  0  0  0  0
    5.7402    0.2389   17.3334 N   0  0  0  0  0  0  0  0  0  0  0  0
    4.7324    1.0471   17.5526 C   0  0  0  0  0  0  0  0  0  0  0  0
    4.2840    1.4304   18.8469 C   0  0  0  0  0  0  0  0  0  0  0  0
    3.1748    2.2969   19.0258 C   0  0  0  0  0  0  0  0  0  0  0  0
    2.7320    2.6116   20.2806 C   0  0  0  0  0  0  0  0  0  0  0  0
    3.3921    2.0880   21.4156 C   0  0  0  0  0  0  0  0  0  0  0  0
    4.4842    1.2639   21.2703 C   0  0  0  0  0  0  0  0  0  0  0  0
    4.9614    0.9186   19.9725 C   0  0  0  0  0  0  0  0  0  0  0  0
    4.9969    0.8846   22.1516 H   0  0  0  0  0  0  0  0  0  0  0  0
    3.0259    2.3474   22.4050 H   0  0  0  0  0  0  0  0  0  0  0  0
    1.8756    3.2705   20.4093 H   0  0  0  0  0  0  0  0  0  0  0  0
    2.6932    2.6936   18.1377 H   0  0  0  0  0  0  0  0  0  0  0  0
    4.2071    1.4370   16.6817 H   0  0  0  0  0  0  0  0  0  0  0  0
    7.2466   -0.8969   18.2047 H   0  0  0  0  0  0  0  0  0  0  0  0
    7.6515    0.2949   21.5129 C   0  0  0  0  0  0  0  0  0  0  0  0
    7.9547    1.4305   21.2321 O   0  0  0  0  0  0  0  0  0  0  0  0
    8.0994   -0.5427   22.7233 C   0  0  1  0  0  0  0  0  0  0  0  0
    7.0988   -0.3723   23.9125 C   0  0  0  0  0  0  0  0  0  0  0  0
    7.0815    0.9802   24.4132 N   0  0  0  0  0  0  0  0  0  0  0  0
    5.8714    1.5732   24.9769 C   0  0  0  0  0  0  0  0  0  0  0  0
    5.5298    2.8766   24.3140 C   0  0  0  0  0  0  0  0  0  0  0  0
    4.8311    3.9807   24.8079 C   0  0  0  0  0  0  0  0  0  0  0  0
    4.8506    4.9543   23.8952 N   0  0  0  0  0  0  0  0  0  0  0  0
    5.5285    4.4209   22.9022 N   0  0  0  0  0  0  0  0  0  0  0  0
    5.7344    5.0581   21.6165 C   0  0  0  0  0  0  0  0  0  0  0  0
    5.5802    6.1280   21.7410 H   0  0  0  0  0  0  0  0  0  0  0  0
    5.0396    4.6426   20.8804 H   0  0  0  0  0  0  0  0  0  0  0  0
    6.7576    4.8576   21.3019 H   0  0  0  0  0  0  0  0  0  0  0  0
    5.9449    3.1767   23.0891 N   0  0  0  0  0  0  0  0  0  0  0  0
    4.3049    4.0952   25.7431 H   0  0  0  0  0  0  0  0  0  0  0  0
    6.0006    1.7597   26.0497 H   0  0  0  0  0  0  0  0  0  0  0  0
    5.0406    0.8584   24.8759 H   0  0  0  0  0  0  0  0  0  0  0  0
    8.2341    1.6984   24.5071 C   0  0  0  0  0  0  0  0  0  0  0  0
    8.2051    2.8482   24.9150 O   0  0  0  0  0  0  0  0  0  0  0  0
    9.4963    1.0152   24.0616 C   0  0  0  0  0  0  0  0  0  0  0  0
   10.7215    1.5163   24.4922 C   0  0  0  0  0  0  0  0  0  0  0  0
   11.9127    0.9454   24.0915 C   0  0  0  0  0  0  0  0  0  0  0  0
   11.8630   -0.1120   23.1917 C   0  0  0  0  0  0  0  0  0  0  0  0
   13.0040   -0.6550   22.7306 F   0  0  0  0  0  0  0  0  0  0  0  0
   10.6663   -0.6077   22.7177 C   0  0  0  0  0  0  0  0  0  0  0  0
    9.4572   -0.0779   23.1852 C   0  0  0  0  0  0  0  0  0  0  0  0
   10.7152   -1.3993   21.9801 H   0  0  0  0  0  0  0  0  0  0  0  0
   12.8669    1.2953   24.4620 H   0  0  0  0  0  0  0  0  0  0  0  0
   10.7292    2.3702   25.1496 H   0  0  0  0  0  0  0  0  0  0  0  0
    7.3871   -1.0575   24.7210 H   0  0  0  0  0  0  0  0  0  0  0  0
    6.0857   -0.6384   23.5956 H   0  0  0  0  0  0  0  0  0  0  0  0
    5.8516   -2.1476   21.6572 H   0  0  0  0  0  0  0  0  0  0  0  0
    6.8812   -2.5317   20.2858 H   0  0  0  0  0  0  0  0  0  0  0  0
    8.8688   -2.1080   21.4770 H   0  0  0  0  0  0  0  0  0  0  0  0
    8.0401   -4.0782   22.6978 H   0  0  0  0  0  0  0  0  0  0  0  0
    8.7746   -2.9606   23.8708 H   0  0  0  0  0  0  0  0  0  0  0  0
    7.0180   -3.0531   23.7176 H   0  0  0  0  0  0  0  0  0  0  0  0
  1  2  1  0
  2  3  1  0
  3  4  1  0
  4  5  1  0
  5  6  2  0
  6  7  1  0
  7  8  2  0
  8  9  1  0
  9 10  2  0
 10 11  1  0
 11 12  2  0
 12 13  1  0
 13 14  2  0
 13 15  1  0
 12 16  1  0
 11 17  1  0
 10 18  1  0
  8 19  1  0
  6 20  1  0
  4 21  1  0
 21 22  2  0
 21 23  1  0
 23 24  1  1
 24 25  1  0
 25 26  1  0
 26 27  1  0
 27 28  1  0
 28 29  2  0
 29 30  1  0
 30 31  1  0
 31 32  1  0
 31 33  1  0
 31 34  1  0
 30 35  1  0
 28 36  1  0
 26 37  1  0
 26 38  1  0
 25 39  1  0
 39 40  2  0
 39 41  1  0
 41 42  2  0
 42 43  1  0
 43 44  2  0
 44 45  1  0
 44 46  1  0
 46 47  2  0
 46 48  1  0
 43 49  1  0
 42 50  1  0
 24 51  1  0
 24 52  1  0
  3 53  1  0
  3 54  1  0
  2 55  1  6
  1 56  1  0
  1 57  1  0
  1 58  1  0
 23  2  1  0
 35 27  2  0
 47 41  1  0
 14  5  1  0
 47 23  1  0
 14  9  1  0
M  END
>  <cnnaffinities>  (34) 
[6.55039]

>  <score>  (34) 
6.55039

>  <index>  (34) 
34

>  <Smiles>  (34) 
C([C@]1(C(N(c2c(nc(c3c(c(c(c(c23)[H])[H])[H])[H])[H])[H])C(=O)[C@]21C(N(C(c1c(nn(C([H])([H])[H])n1)[H])([H])[H])C(=O)c1c(c(c(F)c(c21)[H])[H])[H])([H])[H])([H])[H])[H])([H])([H])[H]

>  <h>  (34) 
<NA>

>  <Training>  (34) 
True

>  <Success>  (34) 
True

>  <enamine_searched>  (34) 
False

>  <enamine_id>  (34) 
nan

$$$$

     RDKit          3D

 51 54  0  0  0  0  0  0  0  0999 V2000
   14.0958   -0.4920   22.7536 N   0  0  0  0  0  0  0  0  0  0  0  0
   13.3057   -1.1419   23.2952 C   0  0  0  0  0  0  0  0  0  0  0  0
   12.3055   -1.9000   24.0546 C   0  0  0  0  0  0  0  0  0  0  0  0
   10.9472   -1.9071   23.3929 C   0  0  0  0  0  0  0  0  0  0  0  0
    9.8566   -1.2385   23.9395 C   0  0  0  0  0  0  0  0  0  0  0  0
    8.5748   -1.4566   23.4429 C   0  0  0  0  0  0  0  0  0  0  0  0
    8.3740   -2.3800   22.4112 C   0  0  0  0  0  0  0  0  0  0  0  0
    7.0584   -2.7362   21.9762 N   0  0  0  0  0  0  0  0  0  0  0  0
    6.5408   -4.0710   22.2980 C   0  0  0  0  0  0  0  0  0  0  0  0
    6.0446   -4.1484   23.7281 C   0  0  0  0  0  0  0  0  0  0  0  0
    4.6933   -3.9424   23.9941 C   0  0  0  0  0  0  0  0  0  0  0  0
    4.2246   -3.9450   25.3027 C   0  0  0  0  0  0  0  0  0  0  0  0
    5.1035   -4.1255   26.3640 C   0  0  0  0  0  0  0  0  0  0  0  0
    6.4573   -4.2957   26.0965 C   0  0  0  0  0  0  0  0  0  0  0  0
    7.5768   -4.4433   27.4278 Cl  0  0  0  0  0  0  0  0  0  0  0  0
    6.9343   -4.3260   24.7902 C   0  0  0  0  0  0  0  0  0  0  0  0
    7.9994   -4.4592   24.6117 H   0  0  0  0  0  0  0  0  0  0  0  0
    4.7447   -4.1305   27.3886 H   0  0  0  0  0  0  0  0  0  0  0  0
    3.1645   -3.8015   25.4948 H   0  0  0  0  0  0  0  0  0  0  0  0
    4.0126   -3.7656   23.1656 H   0  0  0  0  0  0  0  0  0  0  0  0
    5.7272   -4.2920   21.5990 H   0  0  0  0  0  0  0  0  0  0  0  0
    7.3521   -4.7938   22.1423 H   0  0  0  0  0  0  0  0  0  0  0  0
    6.2173   -1.8251   21.3815 C   0  0  0  0  0  0  0  0  0  0  0  0
    5.0252   -2.0497   21.2245 O   0  0  0  0  0  0  0  0  0  0  0  0
    6.8770   -0.5365   20.8750 C   0  0  0  0  0  0  0  0  0  0  0  0
    6.1060    0.0825   19.7565 C   0  0  0  0  0  0  0  0  0  0  0  0
    6.4291   -0.2163   18.4602 C   0  0  0  0  0  0  0  0  0  0  0  0
    5.7701    0.2395   17.3683 N   0  0  0  0  0  0  0  0  0  0  0  0
    4.7456    1.0298   17.5764 C   0  0  0  0  0  0  0  0  0  0  0  0
    4.2891    1.4132   18.8663 C   0  0  0  0  0  0  0  0  0  0  0  0
    3.1748    2.2710   19.0427 C   0  0  0  0  0  0  0  0  0  0  0  0
    2.7596    2.6158   20.3002 C   0  0  0  0  0  0  0  0  0  0  0  0
    3.4363    2.1142   21.4338 C   0  0  0  0  0  0  0  0  0  0  0  0
    4.5169    1.2798   21.2894 C   0  0  0  0  0  0  0  0  0  0  0  0
    4.9792    0.9186   19.9946 C   0  0  0  0  0  0  0  0  0  0  0  0
    5.0152    0.8836   22.1687 H   0  0  0  0  0  0  0  0  0  0  0  0
    3.0998    2.3986   22.4268 H   0  0  0  0  0  0  0  0  0  0  0  0
    1.9097    3.2786   20.4325 H   0  0  0  0  0  0  0  0  0  0  0  0
    2.6724    2.6530   18.1581 H   0  0  0  0  0  0  0  0  0  0  0  0
    4.2181    1.3997   16.6976 H   0  0  0  0  0  0  0  0  0  0  0  0
    7.2757   -0.8711   18.2501 H   0  0  0  0  0  0  0  0  0  0  0  0
    7.0008    0.1651   21.7114 H   0  0  0  0  0  0  0  0  0  0  0  0
    7.8936   -0.7836   20.5462 H   0  0  0  0  0  0  0  0  0  0  0  0
    9.4793   -2.9903   21.8173 C   0  0  0  0  0  0  0  0  0  0  0  0
   10.7579   -2.7018   22.2671 C   0  0  0  0  0  0  0  0  0  0  0  0
   11.6309   -3.0889   21.7533 H   0  0  0  0  0  0  0  0  0  0  0  0
    9.3307   -3.7303   21.0375 H   0  0  0  0  0  0  0  0  0  0  0  0
    7.7275   -0.9675   23.9214 H   0  0  0  0  0  0  0  0  0  0  0  0
   10.0074   -0.5460   24.7669 H   0  0  0  0  0  0  0  0  0  0  0  0
   12.6665   -2.9308   24.1979 H   0  0  0  0  0  0  0  0  0  0  0  0
   12.2689   -1.4418   25.0461 H   0  0  0  0  0  0  0  0  0  0  0  0
  1  2  3  0
  2  3  1  0
  3  4  1  0
  4  5  2  0
  5  6  1  0
  6  7  2  0
  7  8  1  0
  8  9  1  0
  9 10  1  0
 10 11  2  0
 11 12  1  0
 12 13  2  0
 13 14  1  0
 14 15  1  0
 14 16  2  0
 16 17  1  0
 13 18  1  0
 12 19  1  0
 11 20  1  0
  9 21  1  0
  9 22  1  0
  8 23  1  0
 23 24  2  0
 23 25  1  0
 25 26  1  0
 26 27  2  0
 27 28  1  0
 28 29  2  0
 29 30  1  0
 30 31  2  0
 31 32  1  0
 32 33  2  0
 33 34  1  0
 34 35  2  0
 34 36  1  0
 33 37  1  0
 32 38  1  0
 31 39  1  0
 29 40  1  0
 27 41  1  0
 25 42  1  0
 25 43  1  0
  7 44  1  0
 44 45  2  0
 45 46  1  0
 44 47  1  0
  6 48  1  0
  5 49  1  0
  3 50  1  0
  3 51  1  0
 45  4  1  0
 16 10  1  0
 35 26  1  0
 35 30  1  0
M  END
>  <cnnaffinities>  (35) 
[6.86197, 6.32543]

>  <score>  (35) 
6.86197

>  <index>  (35) 
35

>  <Smiles>  (35) 
N#CC(c1c(c(c(N(C(c2c(c(c(c(Cl)c2[H])[H])[H])[H])([H])[H])C(=O)C(c2c(nc(c3c(c(c(c(c23)[H])[H])[H])[H])[H])[H])([H])[H])c(c1[H])[H])[H])[H])([H])[H]

>  <h>  (35) 
<NA>

>  <Training>  (35) 
True

>  <Success>  (35) 
True

>  <enamine_searched>  (35) 
False

>  <enamine_id>  (35) 
nan

$$$$

     RDKit          3D

 48 51  0  0  0  0  0  0  0  0999 V2000
   13.4247   -1.3698   24.3273 N   0  0  0  0  0  0  0  0  0  0  0  0
   12.3591   -1.6067   23.9413 C   0  0  0  0  0  0  0  0  0  0  0  0
   11.0167   -1.8797   23.4811 C   0  0  0  0  0  0  0  0  0  0  0  0
    9.9208   -1.1715   23.9639 C   0  0  0  0  0  0  0  0  0  0  0  0
    8.6449   -1.4527   23.4960 C   0  0  0  0  0  0  0  0  0  0  0  0
    8.4292   -2.4431   22.5343 C   0  0  0  0  0  0  0  0  0  0  0  0
    7.1237   -2.7420   22.0385 N   0  0  0  0  0  0  0  0  0  0  0  0
    6.5281   -4.0347   22.4241 C   0  0  0  0  0  0  0  0  0  0  0  0
    5.9703   -4.0420   23.8362 C   0  0  0  0  0  0  0  0  0  0  0  0
    6.8158   -4.2324   24.9284 C   0  0  0  0  0  0  0  0  0  0  0  0
    6.3155   -4.1599   26.2222 C   0  0  0  0  0  0  0  0  0  0  0  0
    4.9698   -3.8991   26.4466 C   0  0  0  0  0  0  0  0  0  0  0  0
    4.1354   -3.7079   25.3549 C   0  0  0  0  0  0  0  0  0  0  0  0
    2.4507   -3.3740   25.6180 Cl  0  0  0  0  0  0  0  0  0  0  0  0
    4.6196   -3.7825   24.0563 C   0  0  0  0  0  0  0  0  0  0  0  0
    3.9566   -3.6231   23.2132 H   0  0  0  0  0  0  0  0  0  0  0  0
    4.5764   -3.8433   27.4558 H   0  0  0  0  0  0  0  0  0  0  0  0
    6.9810   -4.3057   27.0662 H   0  0  0  0  0  0  0  0  0  0  0  0
    7.8766   -4.4177   24.7658 H   0  0  0  0  0  0  0  0  0  0  0  0
    7.3040   -4.8032   22.3445 H   0  0  0  0  0  0  0  0  0  0  0  0
    5.7500   -4.2959   21.7027 H   0  0  0  0  0  0  0  0  0  0  0  0
    6.2911   -1.7735   21.4858 C   0  0  0  0  0  0  0  0  0  0  0  0
    5.0914   -1.9402   21.4091 O   0  0  0  0  0  0  0  0  0  0  0  0
    6.9393   -0.5064   20.8865 C   0  0  0  0  0  0  0  0  0  0  0  0
    6.1180    0.0924   19.7680 C   0  0  0  0  0  0  0  0  0  0  0  0
    6.4207   -0.2103   18.4668 C   0  0  0  0  0  0  0  0  0  0  0  0
    5.7543    0.2384   17.3728 N   0  0  0  0  0  0  0  0  0  0  0  0
    4.7340    1.0337   17.5777 C   0  0  0  0  0  0  0  0  0  0  0  0
    4.2840    1.4242   18.8681 C   0  0  0  0  0  0  0  0  0  0  0  0
    3.1616    2.2757   19.0430 C   0  0  0  0  0  0  0  0  0  0  0  0
    2.7452    2.6237   20.2987 C   0  0  0  0  0  0  0  0  0  0  0  0
    3.4318    2.1334   21.4299 C   0  0  0  0  0  0  0  0  0  0  0  0
    4.5229    1.3121   21.2877 C   0  0  0  0  0  0  0  0  0  0  0  0
    4.9863    0.9349   19.9999 C   0  0  0  0  0  0  0  0  0  0  0  0
    5.0262    0.9269   22.1689 H   0  0  0  0  0  0  0  0  0  0  0  0
    3.0913    2.4118   22.4225 H   0  0  0  0  0  0  0  0  0  0  0  0
    1.8872    3.2768   20.4333 H   0  0  0  0  0  0  0  0  0  0  0  0
    2.6433    2.6472   18.1605 H   0  0  0  0  0  0  0  0  0  0  0  0
    4.1984    1.4004   16.6986 H   0  0  0  0  0  0  0  0  0  0  0  0
    7.2634   -0.8653   18.2468 H   0  0  0  0  0  0  0  0  0  0  0  0
    7.9426   -0.7520   20.5188 H   0  0  0  0  0  0  0  0  0  0  0  0
    7.0822    0.2330   21.6831 H   0  0  0  0  0  0  0  0  0  0  0  0
    9.5198   -3.1685   22.0724 C   0  0  0  0  0  0  0  0  0  0  0  0
   10.7935   -2.8690   22.5310 C   0  0  0  0  0  0  0  0  0  0  0  0
   11.6799   -3.3516   22.1763 H   0  0  0  0  0  0  0  0  0  0  0  0
    9.3584   -3.9366   21.3268 H   0  0  0  0  0  0  0  0  0  0  0  0
    7.8030   -0.9011   23.8971 H   0  0  0  0  0  0  0  0  0  0  0  0
   10.0818   -0.3962   24.6998 H   0  0  0  0  0  0  0  0  0  0  0  0
  1  2  3  0
  2  3  1  0
  3  4  2  0
  4  5  1  0
  5  6  2  0
  6  7  1  0
  7  8  1  0
  8  9  1  0
  9 10  2  0
 10 11  1  0
 11 12  2  0
 12 13  1  0
 13 14  1  0
 13 15  2  0
 15 16  1  0
 12 17  1  0
 11 18  1  0
 10 19  1  0
  8 20  1  0
  8 21  1  0
  7 22  1  0
 22 23  2  0
 22 24  1  0
 24 25  1  0
 25 26  2  0
 26 27  1  0
 27 28  2  0
 28 29  1  0
 29 30  2  0
 30 31  1  0
 31 32  2  0
 32 33  1  0
 33 34  2  0
 33 35  1  0
 32 36  1  0
 31 37  1  0
 30 38  1  0
 28 39  1  0
 26 40  1  0
 24 41  1  0
 24 42  1  0
  6 43  1  0
 43 44  2  0
 44 45  1  0
 43 46  1  0
  5 47  1  0
  4 48  1  0
 44  3  1  0
 15  9  1  0
 34 25  1  0
 34 29  1  0
M  END
>  <cnnaffinities>  (36) 
[6.30622]

>  <score>  (36) 
6.30622

>  <index>  (36) 
37

>  <Smiles>  (36) 
N#Cc1c(c(c(N(C(c2c(c(c(c(Cl)c2[H])[H])[H])[H])([H])[H])C(=O)C(c2c(nc(c3c(c(c(c(c23)[H])[H])[H])[H])[H])[H])([H])[H])c(c1[H])[H])[H])[H]

>  <h>  (36) 
<NA>

>  <Training>  (36) 
True

>  <Success>  (36) 
True

>  <enamine_searched>  (36) 
False

>  <enamine_id>  (36) 
nan

$$$$

     RDKit          3D

 72 77  0  0  0  0  0  0  0  0999 V2000
    5.0848   -7.1966   21.0672 C   0  0  0  0  0  0  0  0  0  0  0  0
    4.2305   -6.4627   22.0318 N   0  0  0  0  0  4  0  0  0  0  0  0
    4.7305   -5.0835   22.3684 C   0  0  0  0  0  0  0  0  0  0  0  0
    5.9656   -5.0913   23.2836 C   0  0  0  0  0  0  0  0  0  0  0  0
    6.3240   -3.7441   23.7051 N   0  0  0  0  0  0  0  0  0  0  0  0
    7.5126   -3.1155   23.1590 C   0  0  0  0  0  0  0  0  0  0  0  0
    7.3250   -1.6021   22.8746 C   0  0  2  0  0  0  0  0  0  0  0  0
    6.3387   -1.3981   21.7084 C   0  0  0  0  0  0  0  0  0  0  0  0
    5.2527   -1.9277   21.5803 O   0  0  0  0  0  0  0  0  0  0  0  0
    6.8643   -0.4813   20.8346 N   0  0  0  0  0  0  0  0  0  0  0  0
    6.0975    0.0592   19.7698 C   0  0  0  0  0  0  0  0  0  0  0  0
    6.4415   -0.2187   18.4733 C   0  0  0  0  0  0  0  0  0  0  0  0
    5.7760    0.2446   17.3899 N   0  0  0  0  0  0  0  0  0  0  0  0
    4.7474    1.0270   17.5967 C   0  0  0  0  0  0  0  0  0  0  0  0
    4.2931    1.4147   18.8894 C   0  0  0  0  0  0  0  0  0  0  0  0
    3.1786    2.2783   19.0604 C   0  0  0  0  0  0  0  0  0  0  0  0
    2.7805    2.6510   20.3124 C   0  0  0  0  0  0  0  0  0  0  0  0
    3.4811    2.1864   21.4493 C   0  0  0  0  0  0  0  0  0  0  0  0
    4.5612    1.3519   21.3159 C   0  0  0  0  0  0  0  0  0  0  0  0
    4.9874    0.9290   20.0218 C   0  0  0  0  0  0  0  0  0  0  0  0
    5.0966    1.0058   22.2022 H   0  0  0  0  0  0  0  0  0  0  0  0
    3.1577    2.4955   22.4394 H   0  0  0  0  0  0  0  0  0  0  0  0
    1.9276    3.3135   20.4430 H   0  0  0  0  0  0  0  0  0  0  0  0
    2.6665    2.6411   18.1719 H   0  0  0  0  0  0  0  0  0  0  0  0
    4.2164    1.3927   16.7165 H   0  0  0  0  0  0  0  0  0  0  0  0
    7.2904   -0.8704   18.2649 H   0  0  0  0  0  0  0  0  0  0  0  0
    8.1606    0.0397   21.2099 C   0  0  0  0  0  0  0  0  0  0  0  0
    8.6200   -0.8665   22.3672 C   0  0  2  0  0  0  0  0  0  0  0  0
    9.7723   -1.7513   21.8785 C   0  0  0  0  0  0  0  0  0  0  0  0
   10.3474   -2.4060   22.9738 O   0  0  0  0  0  0  0  0  0  0  0  0
   11.5081   -1.8717   23.5228 C   0  0  0  0  0  0  0  0  0  0  0  0
   11.7735   -2.5602   24.7486 C   0  0  0  0  0  0  0  0  0  0  0  0
   13.1096   -2.0714   25.3473 C   0  0  0  0  0  0  0  0  0  0  0  0
   14.6974   -3.0784   25.4858 S   0  0  0  0  0  0  0  0  0  0  0  0
   14.6469   -4.2038   26.4297 O   0  0  0  0  0  0  0  0  0  0  0  0
   15.1647   -3.2689   24.1119 O   0  0  0  0  0  0  0  0  0  0  0  0
   11.8836   -2.8238   24.6730 C   0  0  0  0  0  0  0  0  0  0  0  0
   11.5876   -4.1994   25.1155 H   0  0  0  0  0  0  0  0  0  0  0  0
   12.5304   -3.6975   23.7140 H   0  0  0  0  0  0  0  0  0  0  0  0
   13.6013   -1.2025   24.8242 H   0  0  0  0  0  0  0  0  0  0  0  0
   13.0463   -1.7037   26.4139 H   0  0  0  0  0  0  0  0  0  0  0  0
   11.0355   -2.4212   25.6414 H   0  0  0  0  0  0  0  0  0  0  0  0
   12.3579   -2.0221   22.8891 H   0  0  0  0  0  0  0  0  0  0  0  0
   11.2995   -0.8194   23.8426 H   0  0  0  0  0  0  0  0  0  0  0  0
    9.4236   -2.4980   21.1542 H   0  0  0  0  0  0  0  0  0  0  0  0
   10.5407   -1.1538   21.3675 H   0  0  0  0  0  0  0  0  0  0  0  0
    9.0536   -0.2995   23.1995 H   0  0  0  0  0  0  0  0  0  0  0  0
    8.1014    1.0997   21.4946 H   0  0  0  0  0  0  0  0  0  0  0  0
    8.8448   -0.0180   20.3616 H   0  0  0  0  0  0  0  0  0  0  0  0
    6.7203   -0.9665   24.1278 C   0  0  0  0  0  0  0  0  0  0  0  0
    6.8451    0.4079   24.3690 C   0  0  0  0  0  0  0  0  0  0  0  0
    6.2354    0.9805   25.4744 C   0  0  0  0  0  0  0  0  0  0  0  0
    6.4039    2.6924   25.7567 Cl  0  0  0  0  0  0  0  0  0  0  0  0
    5.4760    0.2195   26.3605 C   0  0  0  0  0  0  0  0  0  0  0  0
    5.3157   -1.1289   26.1058 C   0  0  0  0  0  0  0  0  0  0  0  0
    5.9155   -1.7226   24.9939 C   0  0  0  0  0  0  0  0  0  0  0  0
    5.6181   -3.1744   24.7199 C   0  0  0  0  0  0  0  0  0  0  0  0
    4.7690   -3.7959   25.3516 O   0  0  0  0  0  0  0  0  0  0  0  0
    4.7063   -1.7508   26.7540 H   0  0  0  0  0  0  0  0  0  0  0  0
    5.0113    0.6964   27.2172 H   0  0  0  0  0  0  0  0  0  0  0  0
    7.3996    1.0593   23.6998 H   0  0  0  0  0  0  0  0  0  0  0  0
    7.7512   -3.6272   22.2273 H   0  0  0  0  0  0  0  0  0  0  0  0
    8.3432   -3.2375   23.8635 H   0  0  0  0  0  0  0  0  0  0  0  0
    6.8353   -5.5169   22.7666 H   0  0  0  0  0  0  0  0  0  0  0  0
    5.7778   -5.6829   24.1869 H   0  0  0  0  0  0  0  0  0  0  0  0
    3.9186   -4.5502   22.8523 H   0  0  0  0  0  0  0  0  0  0  0  0
    4.9737   -4.5625   21.4419 H   0  0  0  0  0  0  0  0  0  0  0  0
    3.2688   -6.4098   21.6388 H   0  0  0  0  0  0  0  0  0  0  0  0
    4.1916   -7.0178   22.9203 H   0  0  0  0  0  0  0  0  0  0  0  0
    4.5978   -8.1210   20.7624 H   0  0  0  0  0  0  0  0  0  0  0  0
    5.2696   -6.5880   20.1797 H   0  0  0  0  0  0  0  0  0  0  0  0
    6.0502   -7.4432   21.5080 H   0  0  0  0  0  0  0  0  0  0  0  0
  1  2  1  0
  2  3  1  0
  3  4  1  0
  4  5  1  0
  5  6  1  0
  7  6  1  1
  7  8  1  0
  8  9  2  0
  8 10  1  0
 10 11  1  0
 11 12  2  0
 12 13  1  0
 13 14  2  0
 14 15  1  0
 15 16  2  0
 16 17  1  0
 17 18  2  0
 18 19  1  0
 19 20  2  0
 19 21  1  0
 18 22  1  0
 17 23  1  0
 16 24  1  0
 14 25  1  0
 12 26  1  0
 10 27  1  0
 27 28  1  0
 28 29  1  0
 29 30  1  0
 30 31  1  0
 31 32  1  0
 32 33  1  0
 33 34  1  0
 34 35  2  0
 34 36  2  0
 34 37  1  0
 37 38  1  0
 37 39  1  0
 33 40  1  0
 33 41  1  0
 32 42  1  0
 31 43  1  0
 31 44  1  0
 29 45  1  0
 29 46  1  0
 28 47  1  1
 27 48  1  0
 27 49  1  0
  7 50  1  0
 50 51  2  0
 51 52  1  0
 52 53  1  0
 52 54  2  0
 54 55  1  0
 55 56  2  0
 56 57  1  0
 57 58  2  0
 55 59  1  0
 54 60  1  0
 51 61  1  0
  6 62  1  0
  6 63  1  0
  4 64  1  0
  4 65  1  0
  3 66  1  0
  3 67  1  0
  2 68  1  0
  2 69  1  0
  1 70  1  0
  1 71  1  0
  1 72  1  0
 57  5  1  0
 28  7  1  0
 37 32  1  0
 56 50  1  0
 20 11  1  0
 20 15  1  0
M  CHG  1   2   1
M  END
>  <cnnaffinities>  (37) 
[6.95743]

>  <score>  (37) 
6.95743

>  <index>  (37) 
38

>  <Smiles>  (37) 
C([N+](C(C(N1C([C@@]2(C(=O)N(c3c(nc(c4c(c(c(c(c34)[H])[H])[H])[H])[H])[H])C([C@@]2(C(OC(C2(C(S(=O)(=O)C2([H])[H])([H])[H])[H])([H])[H])([H])[H])[H])([H])[H])c2c(c(Cl)c(c(c2C1=O)[H])[H])[H])([H])[H])([H])[H])([H])[H])([H])[H])([H])([H])[H]

>  <h>  (37) 
<NA>

>  <Training>  (37) 
True

>  <Success>  (37) 
True

>  <enamine_searched>  (37) 
False

>  <enamine_id>  (37) 
nan

$$$$

     RDKit          3D

 60 64  0  0  0  0  0  0  0  0999 V2000
   11.4784   -0.5185   23.7762 C   0  0  0  0  0  0  0  0  0  0  0  0
   10.4912   -1.6581   23.5787 C   0  0  0  0  0  0  0  0  0  0  0  0
    9.8507   -1.5492   22.3186 O   0  0  0  0  0  0  0  0  0  0  0  0
    8.5710   -0.9651   22.3381 C   0  0  1  0  0  0  0  0  0  0  0  0
    8.2715   -0.4262   20.9444 C   0  0  0  0  0  0  0  0  0  0  0  0
    6.8263   -0.4949   20.8706 N   0  0  0  0  0  0  0  0  0  0  0  0
    6.0932    0.0570   19.7957 C   0  0  0  0  0  0  0  0  0  0  0  0
    6.4564   -0.2134   18.5008 C   0  0  0  0  0  0  0  0  0  0  0  0
    5.8038    0.2467   17.4088 N   0  0  0  0  0  0  0  0  0  0  0  0
    4.7677    1.0238   17.6030 C   0  0  0  0  0  0  0  0  0  0  0  0
    4.3013    1.4115   18.8914 C   0  0  0  0  0  0  0  0  0  0  0  0
    3.1872    2.2786   19.0463 C   0  0  0  0  0  0  0  0  0  0  0  0
    2.7774    2.6625   20.2942 C   0  0  0  0  0  0  0  0  0  0  0  0
    3.4685    2.2088   21.4402 C   0  0  0  0  0  0  0  0  0  0  0  0
    4.5484    1.3688   21.3144 C   0  0  0  0  0  0  0  0  0  0  0  0
    4.9836    0.9329   20.0308 C   0  0  0  0  0  0  0  0  0  0  0  0
    5.0828    1.0305   22.1959 H   0  0  0  0  0  0  0  0  0  0  0  0
    3.1427    2.5340   22.4248 H   0  0  0  0  0  0  0  0  0  0  0  0
    1.9259    3.3286   20.4100 H   0  0  0  0  0  0  0  0  0  0  0  0
    2.6812    2.6315   18.1507 H   0  0  0  0  0  0  0  0  0  0  0  0
    4.2433    1.3867   16.7185 H   0  0  0  0  0  0  0  0  0  0  0  0
    7.3096   -0.8606   18.3025 H   0  0  0  0  0  0  0  0  0  0  0  0
    6.3101   -1.4892   21.6784 C   0  0  0  0  0  0  0  0  0  0  0  0
    5.2041   -1.9684   21.5550 O   0  0  0  0  0  0  0  0  0  0  0  0
    7.4045   -1.9264   22.6851 C   0  0  1  0  0  0  0  0  0  0  0  0
    7.7589   -3.3969   22.3832 C   0  0  0  0  0  0  0  0  0  0  0  0
    6.6817   -4.2628   22.8141 N   0  0  0  0  0  0  0  0  0  0  0  0
    5.9716   -5.0960   21.8744 C   0  0  0  0  0  0  0  0  0  0  0  0
    6.6035   -6.4718   21.6825 C   0  0  0  0  0  0  0  0  0  0  0  0
    6.8562   -6.8325   20.5502 O   0  0  0  0  0  0  0  0  0  0  0  0
    6.8233   -7.1993   22.7991 N   0  0  0  0  0  0  0  0  0  0  0  0
    7.6244   -8.3977   22.8525 C   0  0  0  0  0  0  0  0  0  0  0  0
    8.5469   -8.2204   23.4076 H   0  0  0  0  0  0  0  0  0  0  0  0
    7.9413   -8.6872   21.8662 H   0  0  0  0  0  0  0  0  0  0  0  0
    7.0752   -9.2392   23.2817 H   0  0  0  0  0  0  0  0  0  0  0  0
    6.5582   -6.7654   23.6703 H   0  0  0  0  0  0  0  0  0  0  0  0
    4.9439   -5.2033   22.2485 H   0  0  0  0  0  0  0  0  0  0  0  0
    5.9556   -4.6125   20.8904 H   0  0  0  0  0  0  0  0  0  0  0  0
    6.2663   -4.2615   24.1065 C   0  0  0  0  0  0  0  0  0  0  0  0
    5.7338   -5.2512   24.6111 O   0  0  0  0  0  0  0  0  0  0  0  0
    6.4241   -2.9644   24.8080 C   0  0  0  0  0  0  0  0  0  0  0  0
    5.9691   -2.8959   26.1217 C   0  0  0  0  0  0  0  0  0  0  0  0
    5.9480   -1.6858   26.7795 C   0  0  0  0  0  0  0  0  0  0  0  0
    6.3792   -0.5562   26.0859 C   0  0  0  0  0  0  0  0  0  0  0  0
    6.3293    0.9881   26.8854 Cl  0  0  0  0  0  0  0  0  0  0  0  0
    6.8514   -0.6134   24.7867 C   0  0  0  0  0  0  0  0  0  0  0  0
    6.9155   -1.8415   24.1233 C   0  0  0  0  0  0  0  0  0  0  0  0
    7.1320    0.3054   24.2839 H   0  0  0  0  0  0  0  0  0  0  0  0
    5.5835   -1.5927   27.7958 H   0  0  0  0  0  0  0  0  0  0  0  0
    5.6016   -3.8018   26.5899 H   0  0  0  0  0  0  0  0  0  0  0  0
    8.6871   -3.6744   22.8946 H   0  0  0  0  0  0  0  0  0  0  0  0
    7.9238   -3.5410   21.3189 H   0  0  0  0  0  0  0  0  0  0  0  0
    8.6100    0.6065   20.8214 H   0  0  0  0  0  0  0  0  0  0  0  0
    8.7772   -1.0621   20.2046 H   0  0  0  0  0  0  0  0  0  0  0  0
    8.5490   -0.1357   23.0514 H   0  0  0  0  0  0  0  0  0  0  0  0
    9.7441   -1.6959   24.3888 H   0  0  0  0  0  0  0  0  0  0  0  0
   11.0203   -2.6191   23.5731 H   0  0  0  0  0  0  0  0  0  0  0  0
   12.2152   -0.5239   22.9678 H   0  0  0  0  0  0  0  0  0  0  0  0
   12.0053   -0.6273   24.7287 H   0  0  0  0  0  0  0  0  0  0  0  0
   10.9727    0.4531   23.7706 H   0  0  0  0  0  0  0  0  0  0  0  0
  1  2  1  0
  2  3  1  0
  3  4  1  0
  4  5  1  0
  5  6  1  0
  6  7  1  0
  7  8  2  0
  8  9  1  0
  9 10  2  0
 10 11  1  0
 11 12  2  0
 12 13  1  0
 13 14  2  0
 14 15  1  0
 15 16  2  0
 15 17  1  0
 14 18  1  0
 13 19  1  0
 12 20  1  0
 10 21  1  0
  8 22  1  0
  6 23  1  0
 23 24  2  0
 23 25  1  0
 25 26  1  6
 26 27  1  0
 27 28  1  0
 28 29  1  0
 29 30  2  0
 29 31  1  0
 31 32  1  0
 32 33  1  0
 32 34  1  0
 32 35  1  0
 31 36  1  0
 28 37  1  0
 28 38  1  0
 27 39  1  0
 39 40  2  0
 39 41  1  0
 41 42  2  0
 42 43  1  0
 43 44  2  0
 44 45  1  0
 44 46  1  0
 46 47  2  0
 46 48  1  0
 43 49  1  0
 42 50  1  0
 26 51  1  0
 26 52  1  0
  5 53  1  0
  5 54  1  0
  4 55  1  1
  2 56  1  0
  2 57  1  0
  1 58  1  0
  1 59  1  0
  1 60  1  0
 25  4  1  0
 47 41  1  0
 16  7  1  0
 47 25  1  0
 16 11  1  0
M  END
>  <cnnaffinities>  (38) 
[6.53646]

>  <score>  (38) 
6.53646

>  <index>  (38) 
39

>  <Smiles>  (38) 
C(C(O[C@]1(C(N(c2c(nc(c3c(c(c(c(c23)[H])[H])[H])[H])[H])[H])C(=O)[C@]21C(N(C(C(=O)N(C([H])([H])[H])[H])([H])[H])C(=O)c1c(c(c(Cl)c(c21)[H])[H])[H])([H])[H])([H])[H])[H])([H])[H])([H])([H])[H]

>  <h>  (38) 
<NA>

>  <Training>  (38) 
True

>  <Success>  (38) 
True

>  <enamine_searched>  (38) 
False

>  <enamine_id>  (38) 
nan

$$$$

     RDKit          3D

 57 61  0  0  0  0  0  0  0  0999 V2000
    7.6700   -8.4874   22.9185 C   0  0  0  0  0  0  0  0  0  0  0  0
    6.7271   -7.4103   22.7265 N   0  0  0  0  0  0  0  0  0  0  0  0
    6.8911   -6.5743   21.6749 C   0  0  0  0  0  0  0  0  0  0  0  0
    7.6690   -6.7807   20.7593 O   0  0  0  0  0  0  0  0  0  0  0  0
    6.0437   -5.3111   21.7260 C   0  0  0  0  0  0  0  0  0  0  0  0
    6.5702   -4.3515   22.6710 N   0  0  0  0  0  0  0  0  0  0  0  0
    7.6606   -3.4702   22.2940 C   0  0  0  0  0  0  0  0  0  0  0  0
    7.3221   -2.0034   22.6483 C   0  0  2  0  0  0  0  0  0  0  0  0
    6.2586   -1.4993   21.6411 C   0  0  0  0  0  0  0  0  0  0  0  0
    5.1332   -1.9380   21.4896 O   0  0  0  0  0  0  0  0  0  0  0  0
    6.8072   -0.4890   20.8742 N   0  0  0  0  0  0  0  0  0  0  0  0
    6.0978    0.0727   19.7928 C   0  0  0  0  0  0  0  0  0  0  0  0
    6.4584   -0.2070   18.4995 C   0  0  0  0  0  0  0  0  0  0  0  0
    5.8032    0.2508   17.4096 N   0  0  0  0  0  0  0  0  0  0  0  0
    4.7679    1.0297   17.6017 C   0  0  0  0  0  0  0  0  0  0  0  0
    4.3055    1.4216   18.8898 C   0  0  0  0  0  0  0  0  0  0  0  0
    3.1848    2.2790   19.0440 C   0  0  0  0  0  0  0  0  0  0  0  0
    2.7769    2.6644   20.2915 C   0  0  0  0  0  0  0  0  0  0  0  0
    3.4701    2.2137   21.4373 C   0  0  0  0  0  0  0  0  0  0  0  0
    4.5538    1.3787   21.3139 C   0  0  0  0  0  0  0  0  0  0  0  0
    4.9895    0.9465   20.0285 C   0  0  0  0  0  0  0  0  0  0  0  0
    5.0887    1.0364   22.1945 H   0  0  0  0  0  0  0  0  0  0  0  0
    3.1425    2.5335   22.4223 H   0  0  0  0  0  0  0  0  0  0  0  0
    1.9244    3.3275   20.4078 H   0  0  0  0  0  0  0  0  0  0  0  0
    2.6809    2.6322   18.1476 H   0  0  0  0  0  0  0  0  0  0  0  0
    4.2372    1.3890   16.7178 H   0  0  0  0  0  0  0  0  0  0  0  0
    7.3035   -0.8603   18.2909 H   0  0  0  0  0  0  0  0  0  0  0  0
    8.2510   -0.4385   20.9806 C   0  0  0  0  0  0  0  0  0  0  0  0
    8.5013   -1.0411   22.3628 C   0  0  2  0  0  0  0  0  0  0  0  0
    9.9199   -1.5975   22.5340 C   0  0  0  0  0  0  0  0  0  0  0  0
   10.8618   -0.4771   22.6350 C   0  0  0  0  0  0  0  0  0  0  0  0
   11.5174    0.4702   22.7263 N   0  0  0  0  0  0  0  0  0  0  0  0
   10.2051   -2.2362   21.6932 H   0  0  0  0  0  0  0  0  0  0  0  0
   10.0041   -2.2097   23.4350 H   0  0  0  0  0  0  0  0  0  0  0  0
    8.4044   -0.2232   23.0696 H   0  0  0  0  0  0  0  0  0  0  0  0
    8.7547   -1.0223   20.1973 H   0  0  0  0  0  0  0  0  0  0  0  0
    8.6140    0.5906   20.9093 H   0  0  0  0  0  0  0  0  0  0  0  0
    6.8222   -1.9713   24.0912 C   0  0  0  0  0  0  0  0  0  0  0  0
    6.8068   -0.7728   24.8217 C   0  0  0  0  0  0  0  0  0  0  0  0
    6.3595   -0.7559   26.1294 C   0  0  0  0  0  0  0  0  0  0  0  0
    6.3534    0.7529   27.0013 Cl  0  0  0  0  0  0  0  0  0  0  0  0
    5.9308   -1.9185   26.7687 C   0  0  0  0  0  0  0  0  0  0  0  0
    5.9112   -3.0986   26.0518 C   0  0  0  0  0  0  0  0  0  0  0  0
    6.3167   -3.1221   24.7188 C   0  0  0  0  0  0  0  0  0  0  0  0
    6.1262   -4.3868   23.9528 C   0  0  0  0  0  0  0  0  0  0  0  0
    5.5671   -5.3825   24.4232 O   0  0  0  0  0  0  0  0  0  0  0  0
    5.5688   -4.0255   26.4997 H   0  0  0  0  0  0  0  0  0  0  0  0
    5.6040   -1.8825   27.8011 H   0  0  0  0  0  0  0  0  0  0  0  0
    7.1461    0.1632   24.3901 H   0  0  0  0  0  0  0  0  0  0  0  0
    8.5863   -3.7652   22.8074 H   0  0  0  0  0  0  0  0  0  0  0  0
    7.8347   -3.5575   21.2244 H   0  0  0  0  0  0  0  0  0  0  0  0
    5.0113   -5.5423   22.0040 H   0  0  0  0  0  0  0  0  0  0  0  0
    6.0479   -4.8668   20.7304 H   0  0  0  0  0  0  0  0  0  0  0  0
    6.1822   -7.0517   23.5044 H   0  0  0  0  0  0  0  0  0  0  0  0
    7.1653   -9.3133   23.4202 H   0  0  0  0  0  0  0  0  0  0  0  0
    8.0227   -8.8247   21.9484 H   0  0  0  0  0  0  0  0  0  0  0  0
    8.5494   -8.1736   23.4973 H   0  0  0  0  0  0  0  0  0  0  0  0
  1  2  1  0
  2  3  1  0
  3  4  2  0
  3  5  1  0
  5  6  1  0
  6  7  1  0
  8  7  1  6
  8  9  1  0
  9 10  2  0
  9 11  1  0
 11 12  1  0
 12 13  2  0
 13 14  1  0
 14 15  2  0
 15 16  1  0
 16 17  2  0
 17 18  1  0
 18 19  2  0
 19 20  1  0
 20 21  2  0
 20 22  1  0
 19 23  1  0
 18 24  1  0
 17 25  1  0
 15 26  1  0
 13 27  1  0
 11 28  1  0
 28 29  1  0
 29 30  1  0
 30 31  1  0
 31 32  3  0
 30 33  1  0
 30 34  1  0
 29 35  1  1
 28 36  1  0
 28 37  1  0
  8 38  1  0
 38 39  2  0
 39 40  1  0
 40 41  1  0
 40 42  2  0
 42 43  1  0
 43 44  2  0
 44 45  1  0
 45 46  2  0
 43 47  1  0
 42 48  1  0
 39 49  1  0
  7 50  1  0
  7 51  1  0
  5 52  1  0
  5 53  1  0
  2 54  1  0
  1 55  1  0
  1 56  1  0
  1 57  1  0
 45  6  1  0
 29  8  1  0
 44 38  1  0
 21 12  1  0
 21 16  1  0
M  END
>  <cnnaffinities>  (39) 
[6.95043]

>  <score>  (39) 
6.95043

>  <index>  (39) 
40

>  <Smiles>  (39) 
C(N(C(=O)C(N1C([C@@]2(C(=O)N(c3c(nc(c4c(c(c(c(c34)[H])[H])[H])[H])[H])[H])C([C@@]2(C(C#N)([H])[H])[H])([H])[H])c2c(c(Cl)c(c(c2C1=O)[H])[H])[H])([H])[H])([H])[H])[H])([H])([H])[H]

>  <h>  (39) 
<NA>

>  <Training>  (39) 
True

>  <Success>  (39) 
True

>  <enamine_searched>  (39) 
False

>  <enamine_id>  (39) 
nan

$$$$

     RDKit          3D

 68 73  0  0  0  0  0  0  0  0999 V2000
    7.3408   -2.9152   23.5373 C   0  0  0  0  0  0  0  0  0  0  0  0
    7.7372   -1.9531   22.4251 C   0  0  1  0  0  0  0  0  0  0  0  0
    6.6561   -1.7783   21.3480 C   0  0  0  0  0  0  0  0  0  0  0  0
    6.8992   -0.4465   20.8393 N   0  0  0  0  0  0  0  0  0  0  0  0
    6.1355    0.1017   19.7780 C   0  0  0  0  0  0  0  0  0  0  0  0
    6.4445   -0.2335   18.4842 C   0  0  0  0  0  0  0  0  0  0  0  0
    5.7773    0.2209   17.3977 N   0  0  0  0  0  0  0  0  0  0  0  0
    4.7611    1.0218   17.6039 C   0  0  0  0  0  0  0  0  0  0  0  0
    4.3138    1.4201   18.8968 C   0  0  0  0  0  0  0  0  0  0  0  0
    3.1879    2.2682   19.0621 C   0  0  0  0  0  0  0  0  0  0  0  0
    2.7562    2.6130   20.3136 C   0  0  0  0  0  0  0  0  0  0  0  0
    3.4299    2.1280   21.4578 C   0  0  0  0  0  0  0  0  0  0  0  0
    4.5268    1.3137   21.3256 C   0  0  0  0  0  0  0  0  0  0  0  0
    5.0069    0.9472   20.0309 C   0  0  0  0  0  0  0  0  0  0  0  0
    5.0303    0.9452   22.2159 H   0  0  0  0  0  0  0  0  0  0  0  0
    3.0778    2.4085   22.4467 H   0  0  0  0  0  0  0  0  0  0  0  0
    1.8967    3.2659   20.4364 H   0  0  0  0  0  0  0  0  0  0  0  0
    2.6870    2.6337   18.1703 H   0  0  0  0  0  0  0  0  0  0  0  0
    4.2227    1.3873   16.7289 H   0  0  0  0  0  0  0  0  0  0  0  0
    7.2918   -0.8919   18.2899 H   0  0  0  0  0  0  0  0  0  0  0  0
    7.6769    0.3347   21.6641 C   0  0  0  0  0  0  0  0  0  0  0  0
    7.9477    1.4939   21.4233 O   0  0  0  0  0  0  0  0  0  0  0  0
    8.1181   -0.5015   22.8870 C   0  0  1  0  0  0  0  0  0  0  0  0
    7.3917    0.0572   24.1287 C   0  0  0  0  0  0  0  0  0  0  0  0
    7.9285   -0.4411   25.3890 N   0  0  0  0  0  0  0  0  0  0  0  0
    7.0373   -0.7984   26.4740 C   0  0  0  0  0  0  0  0  0  0  0  0
    7.0578    0.1815   27.6538 C   0  0  0  0  0  0  0  0  0  0  0  0
    5.8640    1.0833   27.6940 N   0  0  0  0  0  4  0  0  0  0  0  0
    5.7818    1.9644   26.4649 C   0  0  0  0  0  0  0  0  0  0  0  0
    4.9132    3.1891   26.6870 C   0  0  0  0  0  0  0  0  0  0  0  0
    5.6361    4.3143   27.8747 S   0  0  0  0  0  0  0  0  0  0  0  0
    4.5373    5.0587   28.4899 O   0  0  0  0  0  0  0  0  0  0  0  0
    6.7531    5.0115   27.2361 O   0  0  0  0  0  0  0  0  0  0  0  0
    6.3088    3.1993   29.1074 C   0  0  0  0  0  0  0  0  0  0  0  0
    5.7210    1.7904   29.0299 C   0  0  0  0  0  0  0  0  0  0  0  0
    4.6573    1.8580   29.2531 H   0  0  0  0  0  0  0  0  0  0  0  0
    6.1826    1.1608   29.8007 H   0  0  0  0  0  0  0  0  0  0  0  0
    7.3909    3.2226   29.0042 H   0  0  0  0  0  0  0  0  0  0  0  0
    6.0464    3.6652   30.0588 H   0  0  0  0  0  0  0  0  0  0  0  0
    3.9133    2.9271   27.0479 H   0  0  0  0  0  0  0  0  0  0  0  0
    4.8221    3.7927   25.7850 H   0  0  0  0  0  0  0  0  0  0  0  0
    5.3421    1.3825   25.6496 H   0  0  0  0  0  0  0  0  0  0  0  0
    6.7976    2.2521   26.1926 H   0  0  0  0  0  0  0  0  0  0  0  0
    5.0495    0.4481   27.6361 H   0  0  0  0  0  0  0  0  0  0  0  0
    7.0597   -0.3943   28.5795 H   0  0  0  0  0  0  0  0  0  0  0  0
    7.9658    0.7841   27.6523 H   0  0  0  0  0  0  0  0  0  0  0  0
    6.0231   -0.8855   26.0644 H   0  0  0  0  0  0  0  0  0  0  0  0
    7.3443   -1.7862   26.8247 H   0  0  0  0  0  0  0  0  0  0  0  0
    9.2659   -0.5532   25.6400 C   0  0  0  0  0  0  0  0  0  0  0  0
    9.7248   -0.8104   26.7500 O   0  0  0  0  0  0  0  0  0  0  0  0
   10.1415   -0.4016   24.4582 C   0  0  0  0  0  0  0  0  0  0  0  0
   11.5127   -0.3833   24.6857 C   0  0  0  0  0  0  0  0  0  0  0  0
   12.3640   -0.3897   23.6058 C   0  0  0  0  0  0  0  0  0  0  0  0
   11.7996   -0.4554   22.3419 C   0  0  0  0  0  0  0  0  0  0  0  0
   12.8000   -0.6824   20.9960 Cl  0  0  0  0  0  0  0  0  0  0  0  0
   10.4530   -0.4019   22.0908 C   0  0  0  0  0  0  0  0  0  0  0  0
    9.5919   -0.3854   23.1713 C   0  0  0  0  0  0  0  0  0  0  0  0
   10.0941   -0.4061   21.0667 H   0  0  0  0  0  0  0  0  0  0  0  0
   13.4406   -0.3842   23.6897 H   0  0  0  0  0  0  0  0  0  0  0  0
   11.8604   -0.3771   25.7123 H   0  0  0  0  0  0  0  0  0  0  0  0
    6.3156   -0.1730   24.0657 H   0  0  0  0  0  0  0  0  0  0  0  0
    7.5208    1.1497   24.0774 H   0  0  0  0  0  0  0  0  0  0  0  0
    5.6492   -1.8519   21.7863 H   0  0  0  0  0  0  0  0  0  0  0  0
    6.7314   -2.5091   20.5344 H   0  0  0  0  0  0  0  0  0  0  0  0
    8.6290   -2.3529   21.9218 H   0  0  0  0  0  0  0  0  0  0  0  0
    7.1272   -3.9104   23.1374 H   0  0  0  0  0  0  0  0  0  0  0  0
    8.1383   -3.0105   24.2809 H   0  0  0  0  0  0  0  0  0  0  0  0
    6.4394   -2.5610   24.0492 H   0  0  0  0  0  0  0  0  0  0  0  0
  1  2  1  0
  2  3  1  0
  3  4  1  0
  4  5  1  0
  5  6  2  0
  6  7  1  0
  7  8  2  0
  8  9  1  0
  9 10  2  0
 10 11  1  0
 11 12  2  0
 12 13  1  0
 13 14  2  0
 13 15  1  0
 12 16  1  0
 11 17  1  0
 10 18  1  0
  8 19  1  0
  6 20  1  0
  4 21  1  0
 21 22  2  0
 21 23  1  0
 23 24  1  1
 24 25  1  0
 25 26  1  0
 26 27  1  0
 27 28  1  0
 28 29  1  0
 29 30  1  0
 30 31  1  0
 31 32  2  0
 31 33  2  0
 31 34  1  0
 34 35  1  0
 35 36  1  0
 35 37  1  0
 34 38  1  0
 34 39  1  0
 30 40  1  0
 30 41  1  0
 29 42  1  0
 29 43  1  0
 28 44  1  0
 27 45  1  0
 27 46  1  0
 26 47  1  0
 26 48  1  0
 25 49  1  0
 49 50  2  0
 49 51  1  0
 51 52  2  0
 52 53  1  0
 53 54  2  0
 54 55  1  0
 54 56  1  0
 56 57  2  0
 56 58  1  0
 53 59  1  0
 52 60  1  0
 24 61  1  0
 24 62  1  0
  3 63  1  0
  3 64  1  0
  2 65  1  6
  1 66  1  0
  1 67  1  0
  1 68  1  0
 23  2  1  0
 35 28  1  0
 57 51  1  0
 14  5  1  0
 57 23  1  0
 14  9  1  0
M  CHG  1  28   1
M  END
>  <cnnaffinities>  (40) 
[6.13086]

>  <score>  (40) 
6.13086

>  <index>  (40) 
41

>  <Smiles>  (40) 
C([C@]1(C(N(c2c(nc(c3c(c(c(c(c23)[H])[H])[H])[H])[H])[H])C(=O)[C@]21C(N(C(C([N+]1(C(C(S(=O)(=O)C(C1([H])[H])([H])[H])([H])[H])([H])[H])[H])([H])[H])([H])[H])C(=O)c1c(c(c(Cl)c(c21)[H])[H])[H])([H])[H])([H])[H])[H])([H])([H])[H]

>  <h>  (40) 
<NA>

>  <Training>  (40) 
True

>  <Success>  (40) 
True

>  <enamine_searched>  (40) 
False

>  <enamine_id>  (40) 
nan

$$$$

     RDKit          3D

 60 65  0  0  0  0  0  0  0  0999 V2000
    6.0679    1.2421   28.7934 C   0  0  0  0  0  0  0  0  0  0  0  0
    6.2291    1.5633   27.3900 N   0  0  0  0  0  0  0  0  0  0  0  0
    5.5651    0.8578   26.4415 C   0  0  0  0  0  0  0  0  0  0  0  0
    4.7873   -0.0432   26.7123 O   0  0  0  0  0  0  0  0  0  0  0  0
    5.7815    1.3237   24.9923 C   0  0  0  0  0  0  0  0  0  0  0  0
    6.9682    0.7755   24.3637 N   0  0  0  0  0  0  0  0  0  0  0  0
    6.9405   -0.5536   23.7672 C   0  0  0  0  0  0  0  0  0  0  0  0
    7.9769   -0.7124   22.6056 C   0  0  2  0  0  0  0  0  0  0  0  0
    7.5002    0.1329   21.4022 C   0  0  0  0  0  0  0  0  0  0  0  0
    7.7516    1.2908   21.1511 O   0  0  0  0  0  0  0  0  0  0  0  0
    6.6651   -0.6573   20.6425 N   0  0  0  0  0  0  0  0  0  0  0  0
    5.9207   -0.0637   19.5928 C   0  0  0  0  0  0  0  0  0  0  0  0
    6.2583   -0.2981   18.2856 C   0  0  0  0  0  0  0  0  0  0  0  0
    5.6363    0.2644   17.2208 N   0  0  0  0  0  0  0  0  0  0  0  0
    4.6441    1.0880   17.4533 C   0  0  0  0  0  0  0  0  0  0  0  0
    4.1815    1.4199   18.7600 C   0  0  0  0  0  0  0  0  0  0  0  0
    3.0976    2.3153   18.9762 C   0  0  0  0  0  0  0  0  0  0  0  0
    2.7014    2.6378   20.2450 C   0  0  0  0  0  0  0  0  0  0  0  0
    3.3811    2.0884   21.3545 C   0  0  0  0  0  0  0  0  0  0  0  0
    4.4263    1.2224   21.1761 C   0  0  0  0  0  0  0  0  0  0  0  0
    4.8495    0.8484   19.8692 C   0  0  0  0  0  0  0  0  0  0  0  0
    4.9578    0.8380   22.0422 H   0  0  0  0  0  0  0  0  0  0  0  0
    3.0781    2.3649   22.3591 H   0  0  0  0  0  0  0  0  0  0  0  0
    1.8696    3.3175   20.4085 H   0  0  0  0  0  0  0  0  0  0  0  0
    2.5959    2.7452   18.1126 H   0  0  0  0  0  0  0  0  0  0  0  0
    4.1605    1.5427   16.5855 H   0  0  0  0  0  0  0  0  0  0  0  0
    7.0966   -0.9554   18.0576 H   0  0  0  0  0  0  0  0  0  0  0  0
    6.6171   -2.0394   21.1004 C   0  0  0  0  0  0  0  0  0  0  0  0
    7.8826   -2.1445   21.9813 C   0  0  2  0  0  0  0  0  0  0  0  0
    7.8952   -3.3704   22.9257 C   0  0  0  0  0  0  0  0  0  0  0  0
    9.1139   -3.4057   23.8113 C   0  0  0  0  0  0  0  0  0  0  0  0
    9.1804   -2.9171   25.0396 N   0  0  0  0  0  0  0  0  0  0  0  0
   10.4500   -3.1001   25.4179 N   0  0  0  0  0  0  0  0  0  0  0  0
   11.1031   -3.6953   24.4643 N   0  0  0  0  0  2  0  0  0  0  0  0
   10.2828   -3.8993   23.4330 N   0  0  0  0  0  0  0  0  0  0  0  0
    7.8879   -4.2966   22.3414 H   0  0  0  0  0  0  0  0  0  0  0  0
    7.0093   -3.3726   23.5652 H   0  0  0  0  0  0  0  0  0  0  0  0
    8.7416   -2.2566   21.3112 H   0  0  0  0  0  0  0  0  0  0  0  0
    5.7223   -2.2321   21.7116 H   0  0  0  0  0  0  0  0  0  0  0  0
    6.5815   -2.7284   20.2560 H   0  0  0  0  0  0  0  0  0  0  0  0
    9.3168   -0.2275   23.1315 C   0  0  0  0  0  0  0  0  0  0  0  0
   10.5380   -0.6709   22.6211 C   0  0  0  0  0  0  0  0  0  0  0  0
   11.7298   -0.2209   23.1678 C   0  0  0  0  0  0  0  0  0  0  0  0
   13.2291   -0.8916   22.6194 Cl  0  0  0  0  0  0  0  0  0  0  0  0
   11.7688    0.7250   24.1853 C   0  0  0  0  0  0  0  0  0  0  0  0
   10.5714    1.2147   24.6558 C   0  0  0  0  0  0  0  0  0  0  0  0
    9.3686    0.7609   24.1257 C   0  0  0  0  0  0  0  0  0  0  0  0
    8.1293    1.4219   24.6254 C   0  0  0  0  0  0  0  0  0  0  0  0
    8.1365    2.4747   25.2614 O   0  0  0  0  0  0  0  0  0  0  0  0
   10.5318    1.9596   25.4356 H   0  0  0  0  0  0  0  0  0  0  0  0
   12.7282    1.0734   24.5492 H   0  0  0  0  0  0  0  0  0  0  0  0
   10.5531   -1.3958   21.8187 H   0  0  0  0  0  0  0  0  0  0  0  0
    7.1504   -1.3206   24.5286 H   0  0  0  0  0  0  0  0  0  0  0  0
    5.9360   -0.7236   23.3707 H   0  0  0  0  0  0  0  0  0  0  0  0
    5.8835    2.4125   24.9548 H   0  0  0  0  0  0  0  0  0  0  0  0
    4.9023    1.0158   24.4270 H   0  0  0  0  0  0  0  0  0  0  0  0
    6.9597    2.2027   27.1082 H   0  0  0  0  0  0  0  0  0  0  0  0
    5.0079    1.2437   29.0681 H   0  0  0  0  0  0  0  0  0  0  0  0
    6.5879    2.0035   29.3771 H   0  0  0  0  0  0  0  0  0  0  0  0
    6.4807    0.2589   29.0511 H   0  0  0  0  0  0  0  0  0  0  0  0
  1  2  1  0
  2  3  1  0
  3  4  2  0
  3  5  1  0
  5  6  1  0
  6  7  1  0
  8  7  1  1
  8  9  1  0
  9 10  2  0
  9 11  1  0
 11 12  1  0
 12 13  2  0
 13 14  1  0
 14 15  2  0
 15 16  1  0
 16 17  2  0
 17 18  1  0
 18 19  2  0
 19 20  1  0
 20 21  2  0
 20 22  1  0
 19 23  1  0
 18 24  1  0
 17 25  1  0
 15 26  1  0
 13 27  1  0
 11 28  1  0
 28 29  1  0
 29 30  1  0
 30 31  1  0
 31 32  1  0
 32 33  2  0
 33 34  1  0
 34 35  1  0
 30 36  1  0
 30 37  1  0
 29 38  1  6
 28 39  1  0
 28 40  1  0
  8 41  1  0
 41 42  2  0
 42 43  1  0
 43 44  1  0
 43 45  2  0
 45 46  1  0
 46 47  2  0
 47 48  1  0
 48 49  2  0
 46 50  1  0
 45 51  1  0
 42 52  1  0
  7 53  1  0
  7 54  1  0
  5 55  1  0
  5 56  1  0
  2 57  1  0
  1 58  1  0
  1 59  1  0
  1 60  1  0
 48  6  1  0
 29  8  1  0
 35 31  2  0
 47 41  1  0
 21 12  1  0
 21 16  1  0
M  CHG  1  34  -1
M  END
>  <cnnaffinities>  (41) 
[6.28]

>  <score>  (41) 
6.28

>  <index>  (41) 
42

>  <Smiles>  (41) 
C(N(C(=O)C(N1C([C@@]2(C(=O)N(c3c(nc(c4c(c(c(c(c34)[H])[H])[H])[H])[H])[H])C([C@@]2(C(c2nn[n-]n2)([H])[H])[H])([H])[H])c2c(c(Cl)c(c(c2C1=O)[H])[H])[H])([H])[H])([H])[H])[H])([H])([H])[H]

>  <h>  (41) 
<NA>

>  <Training>  (41) 
True

>  <Success>  (41) 
True

>  <enamine_searched>  (41) 
False

>  <enamine_id>  (41) 
nan

$$$$

     RDKit          3D

 62 67  0  0  0  0  0  0  0  0999 V2000
    4.5833   -7.6164   25.7025 C   0  0  0  0  0  0  0  0  0  0  0  0
    5.7270   -6.6697   25.3826 C   0  0  0  0  0  0  0  0  0  0  0  0
    6.1882   -6.8116   24.0133 N   0  0  0  0  0  0  0  0  0  0  0  0
    6.8284   -7.9396   23.7040 N   0  0  0  0  0  0  0  0  0  0  0  0
    7.2105   -7.7885   22.4485 C   0  0  0  0  0  0  0  0  0  0  0  0
    6.8035   -6.5450   21.9213 C   0  0  0  0  0  0  0  0  0  0  0  0
    6.1321   -5.9439   22.9698 C   0  0  0  0  0  0  0  0  0  0  0  0
    5.4264   -4.6439   23.1364 C   0  0  0  0  0  0  0  0  0  0  0  0
    6.2299   -3.6391   23.8499 N   0  0  0  0  0  0  0  0  0  0  0  0
    7.4360   -3.1147   23.2091 C   0  0  0  0  0  0  0  0  0  0  0  0
    7.3137   -1.6059   22.8757 C   0  0  2  0  0  0  0  0  0  0  0  0
    6.3375   -1.4248   21.6951 C   0  0  0  0  0  0  0  0  0  0  0  0
    5.2700   -1.9820   21.5175 O   0  0  0  0  0  0  0  0  0  0  0  0
    6.8660   -0.4999   20.8340 N   0  0  0  0  0  0  0  0  0  0  0  0
    6.1075    0.0562   19.7803 C   0  0  0  0  0  0  0  0  0  0  0  0
    6.4602   -0.2148   18.4842 C   0  0  0  0  0  0  0  0  0  0  0  0
    5.7975    0.2462   17.4004 N   0  0  0  0  0  0  0  0  0  0  0  0
    4.7648    1.0227   17.6126 C   0  0  0  0  0  0  0  0  0  0  0  0
    4.3091    1.4019   18.9060 C   0  0  0  0  0  0  0  0  0  0  0  0
    3.1961    2.2646   19.0654 C   0  0  0  0  0  0  0  0  0  0  0  0
    2.7942    2.6478   20.3131 C   0  0  0  0  0  0  0  0  0  0  0  0
    3.4869    2.1858   21.4571 C   0  0  0  0  0  0  0  0  0  0  0  0
    4.5630    1.3408   21.3353 C   0  0  0  0  0  0  0  0  0  0  0  0
    4.9955    0.9179   20.0411 C   0  0  0  0  0  0  0  0  0  0  0  0
    5.0868    0.9951   22.2290 H   0  0  0  0  0  0  0  0  0  0  0  0
    3.1637    2.5151   22.4403 H   0  0  0  0  0  0  0  0  0  0  0  0
    1.9500    3.3214   20.4326 H   0  0  0  0  0  0  0  0  0  0  0  0
    2.6955    2.6264   18.1715 H   0  0  0  0  0  0  0  0  0  0  0  0
    4.2312    1.3961   16.7390 H   0  0  0  0  0  0  0  0  0  0  0  0
    7.3155   -0.8618   18.2905 H   0  0  0  0  0  0  0  0  0  0  0  0
    8.1944   -0.0483   21.1700 C   0  0  0  0  0  0  0  0  0  0  0  0
    8.6335   -0.9736   22.3248 C   0  0  2  0  0  0  0  0  0  0  0  0
    9.6933   -1.9675   21.8282 C   0  0  0  0  0  0  0  0  0  0  0  0
   10.0444   -2.6176   22.6357 H   0  0  0  0  0  0  0  0  0  0  0  0
   10.5638   -1.4204   21.4456 H   0  0  0  0  0  0  0  0  0  0  0  0
    9.3120   -2.5981   21.0159 H   0  0  0  0  0  0  0  0  0  0  0  0
    9.1073   -0.3924   23.1233 H   0  0  0  0  0  0  0  0  0  0  0  0
    8.8562   -0.1467   20.3077 H   0  0  0  0  0  0  0  0  0  0  0  0
    8.1976    1.0130   21.4543 H   0  0  0  0  0  0  0  0  0  0  0  0
    6.7958   -0.8724   24.1194 C   0  0  0  0  0  0  0  0  0  0  0  0
    7.0164    0.4995   24.3257 C   0  0  0  0  0  0  0  0  0  0  0  0
    6.5273    1.1158   25.4658 C   0  0  0  0  0  0  0  0  0  0  0  0
    6.7784    2.4236   25.6632 F   0  0  0  0  0  0  0  0  0  0  0  0
    5.7934    0.4362   26.4300 C   0  0  0  0  0  0  0  0  0  0  0  0
    5.5469   -0.9032   26.2174 C   0  0  0  0  0  0  0  0  0  0  0  0
    6.0377   -1.5490   25.0824 C   0  0  0  0  0  0  0  0  0  0  0  0
    5.6453   -2.9768   24.8944 C   0  0  0  0  0  0  0  0  0  0  0  0
    4.8043   -3.5002   25.6190 O   0  0  0  0  0  0  0  0  0  0  0  0
    4.9613   -1.4822   26.9234 H   0  0  0  0  0  0  0  0  0  0  0  0
    5.4310    0.9489   27.3142 H   0  0  0  0  0  0  0  0  0  0  0  0
    7.5883    1.1089   23.6342 H   0  0  0  0  0  0  0  0  0  0  0  0
    7.6072   -3.6832   22.2950 H   0  0  0  0  0  0  0  0  0  0  0  0
    8.3083   -3.2674   23.8616 H   0  0  0  0  0  0  0  0  0  0  0  0
    5.1215   -4.1998   22.1822 H   0  0  0  0  0  0  0  0  0  0  0  0
    4.5221   -4.8103   23.7319 H   0  0  0  0  0  0  0  0  0  0  0  0
    6.9534   -6.1409   20.9252 H   0  0  0  0  0  0  0  0  0  0  0  0
    7.7715   -8.5944   21.9977 H   0  0  0  0  0  0  0  0  0  0  0  0
    5.4113   -5.6383   25.5542 H   0  0  0  0  0  0  0  0  0  0  0  0
    6.5853   -6.8962   26.0119 H   0  0  0  0  0  0  0  0  0  0  0  0
    3.6645   -7.2851   25.2090 H   0  0  0  0  0  0  0  0  0  0  0  0
    4.8026   -8.6415   25.3886 H   0  0  0  0  0  0  0  0  0  0  0  0
    4.4059   -7.6311   26.7821 H   0  0  0  0  0  0  0  0  0  0  0  0
  1  2  1  0
  2  3  1  0
  3  4  1  0
  4  5  2  0
  5  6  1  0
  6  7  2  0
  7  8  1  0
  8  9  1  0
  9 10  1  0
 11 10  1  1
 11 12  1  0
 12 13  2  0
 12 14  1  0
 14 15  1  0
 15 16  2  0
 16 17  1  0
 17 18  2  0
 18 19  1  0
 19 20  2  0
 20 21  1  0
 21 22  2  0
 22 23  1  0
 23 24  2  0
 23 25  1  0
 22 26  1  0
 21 27  1  0
 20 28  1  0
 18 29  1  0
 16 30  1  0
 14 31  1  0
 31 32  1  0
 32 33  1  0
 33 34  1  0
 33 35  1  0
 33 36  1  0
 32 37  1  1
 31 38  1  0
 31 39  1  0
 11 40  1  0
 40 41  2  0
 41 42  1  0
 42 43  1  0
 42 44  2  0
 44 45  1  0
 45 46  2  0
 46 47  1  0
 47 48  2  0
 45 49  1  0
 44 50  1  0
 41 51  1  0
 10 52  1  0
 10 53  1  0
  8 54  1  0
  8 55  1  0
  6 56  1  0
  5 57  1  0
  2 58  1  0
  2 59  1  0
  1 60  1  0
  1 61  1  0
  1 62  1  0
  7  3  1  0
 47  9  1  0
 32 11  1  0
 46 40  1  0
 24 15  1  0
 24 19  1  0
M  END
>  <cnnaffinities>  (42) 
[6.65991]

>  <score>  (42) 
6.65991

>  <index>  (42) 
43

>  <Smiles>  (42) 
C(C(n1nc(c(c1C(N1C([C@@]2(C(=O)N(c3c(nc(c4c(c(c(c(c34)[H])[H])[H])[H])[H])[H])C([C@@]2(C([H])([H])[H])[H])([H])[H])c2c(c(F)c(c(c2C1=O)[H])[H])[H])([H])[H])([H])[H])[H])[H])([H])[H])([H])([H])[H]

>  <h>  (42) 
<NA>

>  <Training>  (42) 
True

>  <Success>  (42) 
True

>  <enamine_searched>  (42) 
False

>  <enamine_id>  (42) 
nan

$$$$

     RDKit          3D

 56 60  0  0  0  0  0  0  0  0999 V2000
    7.6744   -8.4142   22.9417 C   0  0  0  0  0  0  0  0  0  0  0  0
    6.7156   -7.3647   22.6950 N   0  0  0  0  0  0  0  0  0  0  0  0
    6.9084   -6.5519   21.6314 C   0  0  0  0  0  0  0  0  0  0  0  0
    7.6934   -6.8083   20.7381 O   0  0  0  0  0  0  0  0  0  0  0  0
    6.1056   -5.2613   21.6609 C   0  0  0  0  0  0  0  0  0  0  0  0
    6.6431   -4.3186   22.6189 N   0  0  0  0  0  0  0  0  0  0  0  0
    7.7413   -3.4217   22.2806 C   0  0  0  0  0  0  0  0  0  0  0  0
    7.3878   -1.9587   22.6549 C   0  0  2  0  0  0  0  0  0  0  0  0
    6.3040   -1.4636   21.6633 C   0  0  0  0  0  0  0  0  0  0  0  0
    5.1765   -1.8985   21.5360 O   0  0  0  0  0  0  0  0  0  0  0  0
    6.8411   -0.4672   20.8706 N   0  0  0  0  0  0  0  0  0  0  0  0
    6.1144    0.0841   19.7941 C   0  0  0  0  0  0  0  0  0  0  0  0
    6.4647   -0.2071   18.4995 C   0  0  0  0  0  0  0  0  0  0  0  0
    5.8035    0.2400   17.4081 N   0  0  0  0  0  0  0  0  0  0  0  0
    4.7737    1.0224   17.6098 C   0  0  0  0  0  0  0  0  0  0  0  0
    4.3127    1.4155   18.8969 C   0  0  0  0  0  0  0  0  0  0  0  0
    3.1922    2.2724   19.0492 C   0  0  0  0  0  0  0  0  0  0  0  0
    2.7840    2.6571   20.2948 C   0  0  0  0  0  0  0  0  0  0  0  0
    3.4747    2.2094   21.4435 C   0  0  0  0  0  0  0  0  0  0  0  0
    4.5601    1.3757   21.3224 C   0  0  0  0  0  0  0  0  0  0  0  0
    5.0001    0.9480   20.0368 C   0  0  0  0  0  0  0  0  0  0  0  0
    5.0878    1.0361   22.2080 H   0  0  0  0  0  0  0  0  0  0  0  0
    3.1446    2.5317   22.4268 H   0  0  0  0  0  0  0  0  0  0  0  0
    1.9314    3.3213   20.4098 H   0  0  0  0  0  0  0  0  0  0  0  0
    2.6886    2.6243   18.1517 H   0  0  0  0  0  0  0  0  0  0  0  0
    4.2400    1.3780   16.7297 H   0  0  0  0  0  0  0  0  0  0  0  0
    7.3104   -0.8653   18.3066 H   0  0  0  0  0  0  0  0  0  0  0  0
    8.2845   -0.4035   20.9615 C   0  0  0  0  0  0  0  0  0  0  0  0
    8.5548   -0.9633   22.3665 C   0  0  2  0  0  0  0  0  0  0  0  0
    9.9868   -1.4789   22.4387 C   0  0  0  0  0  0  0  0  0  0  0  0
   10.4514   -2.0113   24.0818 Cl  0  0  0  0  0  0  0  0  0  0  0  0
   10.1274   -2.3290   21.7625 H   0  0  0  0  0  0  0  0  0  0  0  0
   10.6834   -0.6869   22.1463 H   0  0  0  0  0  0  0  0  0  0  0  0
    8.4637   -0.1268   23.0608 H   0  0  0  0  0  0  0  0  0  0  0  0
    8.6364    0.6282   20.8533 H   0  0  0  0  0  0  0  0  0  0  0  0
    8.7797   -1.0158   20.1903 H   0  0  0  0  0  0  0  0  0  0  0  0
    6.8889   -1.9651   24.0953 C   0  0  0  0  0  0  0  0  0  0  0  0
    6.8547   -0.7883   24.8596 C   0  0  0  0  0  0  0  0  0  0  0  0
    6.3985   -0.8131   26.1667 C   0  0  0  0  0  0  0  0  0  0  0  0
    6.3745    0.6740   27.0803 Cl  0  0  0  0  0  0  0  0  0  0  0  0
    5.9676   -1.9953   26.7734 C   0  0  0  0  0  0  0  0  0  0  0  0
    5.9595   -3.1523   26.0179 C   0  0  0  0  0  0  0  0  0  0  0  0
    6.3794   -3.1326   24.6884 C   0  0  0  0  0  0  0  0  0  0  0  0
    6.1767   -4.3726   23.8914 C   0  0  0  0  0  0  0  0  0  0  0  0
    5.5864   -5.3555   24.3443 O   0  0  0  0  0  0  0  0  0  0  0  0
    5.6035   -4.0926   26.4279 H   0  0  0  0  0  0  0  0  0  0  0  0
    5.6282   -1.9941   27.8054 H   0  0  0  0  0  0  0  0  0  0  0  0
    7.1798    0.1635   24.4517 H   0  0  0  0  0  0  0  0  0  0  0  0
    8.6570   -3.7109   22.8193 H   0  0  0  0  0  0  0  0  0  0  0  0
    7.9285   -3.4889   21.2117 H   0  0  0  0  0  0  0  0  0  0  0  0
    5.0716   -5.4721   21.9396 H   0  0  0  0  0  0  0  0  0  0  0  0
    6.1051   -4.7968   20.6767 H   0  0  0  0  0  0  0  0  0  0  0  0
    6.1177   -7.0435   23.4437 H   0  0  0  0  0  0  0  0  0  0  0  0
    8.5227   -8.0681   23.5453 H   0  0  0  0  0  0  0  0  0  0  0  0
    7.1645   -9.2303   23.4435 H   0  0  0  0  0  0  0  0  0  0  0  0
    8.0740   -8.7881   22.0059 H   0  0  0  0  0  0  0  0  0  0  0  0
  1  2  1  0
  2  3  1  0
  3  4  2  0
  3  5  1  0
  5  6  1  0
  6  7  1  0
  8  7  1  6
  8  9  1  0
  9 10  2  0
  9 11  1  0
 11 12  1  0
 12 13  2  0
 13 14  1  0
 14 15  2  0
 15 16  1  0
 16 17  2  0
 17 18  1  0
 18 19  2  0
 19 20  1  0
 20 21  2  0
 20 22  1  0
 19 23  1  0
 18 24  1  0
 17 25  1  0
 15 26  1  0
 13 27  1  0
 11 28  1  0
 28 29  1  0
 29 30  1  0
 30 31  1  0
 30 32  1  0
 30 33  1  0
 29 34  1  1
 28 35  1  0
 28 36  1  0
  8 37  1  0
 37 38  2  0
 38 39  1  0
 39 40  1  0
 39 41  2  0
 41 42  1  0
 42 43  2  0
 43 44  1  0
 44 45  2  0
 42 46  1  0
 41 47  1  0
 38 48  1  0
  7 49  1  0
  7 50  1  0
  5 51  1  0
  5 52  1  0
  2 53  1  0
  1 54  1  0
  1 55  1  0
  1 56  1  0
 44  6  1  0
 29  8  1  0
 43 37  1  0
 21 12  1  0
 21 16  1  0
M  END
>  <cnnaffinities>  (43) 
[6.79513, 6.39159]

>  <score>  (43) 
6.79513

>  <index>  (43) 
44

>  <Smiles>  (43) 
C(N(C(=O)C(N1C([C@@]2(C(=O)N(c3c(nc(c4c(c(c(c(c34)[H])[H])[H])[H])[H])[H])C([C@@]2(C(Cl)([H])[H])[H])([H])[H])c2c(c(Cl)c(c(c2C1=O)[H])[H])[H])([H])[H])([H])[H])[H])([H])([H])[H]

>  <h>  (43) 
<NA>

>  <Training>  (43) 
True

>  <Success>  (43) 
True

>  <enamine_searched>  (43) 
False

>  <enamine_id>  (43) 
nan

$$$$

     RDKit          3D

 60 64  0  0  0  0  0  0  0  0999 V2000
    7.6591   -8.4894   22.9367 C   0  0  0  0  0  0  0  0  0  0  0  0
    6.7489   -7.3816   22.7687 N   0  0  0  0  0  0  0  0  0  0  0  0
    6.8953   -6.5483   21.7126 C   0  0  0  0  0  0  0  0  0  0  0  0
    7.6515   -6.7684   20.7849 O   0  0  0  0  0  0  0  0  0  0  0  0
    6.0826   -5.2646   21.7776 C   0  0  0  0  0  0  0  0  0  0  0  0
    6.6494   -4.3116   22.7114 N   0  0  0  0  0  0  0  0  0  0  0  0
    7.7298   -3.4193   22.3198 C   0  0  0  0  0  0  0  0  0  0  0  0
    7.3816   -1.9459   22.6575 C   0  0  2  0  0  0  0  0  0  0  0  0
    6.3094   -1.4762   21.6479 C   0  0  0  0  0  0  0  0  0  0  0  0
    5.1949   -1.9339   21.4986 O   0  0  0  0  0  0  0  0  0  0  0  0
    6.8473   -0.4674   20.8723 N   0  0  0  0  0  0  0  0  0  0  0  0
    6.1180    0.0833   19.7984 C   0  0  0  0  0  0  0  0  0  0  0  0
    6.4684   -0.2075   18.5044 C   0  0  0  0  0  0  0  0  0  0  0  0
    5.8078    0.2391   17.4128 N   0  0  0  0  0  0  0  0  0  0  0  0
    4.7755    1.0206   17.6111 C   0  0  0  0  0  0  0  0  0  0  0  0
    4.3158    1.4138   18.8995 C   0  0  0  0  0  0  0  0  0  0  0  0
    3.1951    2.2708   19.0487 C   0  0  0  0  0  0  0  0  0  0  0  0
    2.7836    2.6565   20.2947 C   0  0  0  0  0  0  0  0  0  0  0  0
    3.4725    2.2079   21.4430 C   0  0  0  0  0  0  0  0  0  0  0  0
    4.5581    1.3745   21.3242 C   0  0  0  0  0  0  0  0  0  0  0  0
    5.0026    0.9463   20.0399 C   0  0  0  0  0  0  0  0  0  0  0  0
    5.0827    1.0354   22.2115 H   0  0  0  0  0  0  0  0  0  0  0  0
    3.1421    2.5329   22.4255 H   0  0  0  0  0  0  0  0  0  0  0  0
    1.9328    3.3220   20.4068 H   0  0  0  0  0  0  0  0  0  0  0  0
    2.6929    2.6228   18.1509 H   0  0  0  0  0  0  0  0  0  0  0  0
    4.2420    1.3788   16.7305 H   0  0  0  0  0  0  0  0  0  0  0  0
    7.3138   -0.8652   18.3096 H   0  0  0  0  0  0  0  0  0  0  0  0
    8.2946   -0.3971   20.9659 C   0  0  0  0  0  0  0  0  0  0  0  0
    8.5661   -0.9799   22.3594 C   0  0  2  0  0  0  0  0  0  0  0  0
    9.9389   -1.6186   22.4820 C   0  0  0  0  0  0  0  0  0  0  0  0
   10.9498   -0.6560   22.3456 O   0  0  0  0  0  0  0  0  0  0  0  0
   12.2096   -1.2768   22.4142 C   0  0  0  0  0  0  0  0  0  0  0  0
   12.9812   -0.5066   22.3735 H   0  0  0  0  0  0  0  0  0  0  0  0
   12.3241   -1.8389   23.3540 H   0  0  0  0  0  0  0  0  0  0  0  0
   12.3494   -1.9785   21.5776 H   0  0  0  0  0  0  0  0  0  0  0  0
   10.0258   -2.1165   23.4635 H   0  0  0  0  0  0  0  0  0  0  0  0
   10.0561   -2.3898   21.7000 H   0  0  0  0  0  0  0  0  0  0  0  0
    8.5242   -0.1514   23.0658 H   0  0  0  0  0  0  0  0  0  0  0  0
    8.7915   -0.9884   20.1820 H   0  0  0  0  0  0  0  0  0  0  0  0
    8.6367    0.6358   20.8719 H   0  0  0  0  0  0  0  0  0  0  0  0
    6.8740   -1.9089   24.0934 C   0  0  0  0  0  0  0  0  0  0  0  0
    6.8345   -0.7047   24.8079 C   0  0  0  0  0  0  0  0  0  0  0  0
    6.3614   -0.6778   26.1075 C   0  0  0  0  0  0  0  0  0  0  0  0
    6.3252    0.8404   26.9620 Cl  0  0  0  0  0  0  0  0  0  0  0  0
    5.9236   -1.8309   26.7564 C   0  0  0  0  0  0  0  0  0  0  0  0
    5.9272   -3.0156   26.0511 C   0  0  0  0  0  0  0  0  0  0  0  0
    6.3646   -3.0524   24.7302 C   0  0  0  0  0  0  0  0  0  0  0  0
    6.1847   -4.3297   23.9884 C   0  0  0  0  0  0  0  0  0  0  0  0
    5.6074   -5.3105   24.4581 O   0  0  0  0  0  0  0  0  0  0  0  0
    5.5681   -3.9349   26.4971 H   0  0  0  0  0  0  0  0  0  0  0  0
    5.5767   -1.7883   27.7830 H   0  0  0  0  0  0  0  0  0  0  0  0
    7.1659    0.2296   24.3691 H   0  0  0  0  0  0  0  0  0  0  0  0
    7.9000   -3.5319   21.2512 H   0  0  0  0  0  0  0  0  0  0  0  0
    8.6597   -3.7070   22.8309 H   0  0  0  0  0  0  0  0  0  0  0  0
    6.0409   -4.8142   20.7831 H   0  0  0  0  0  0  0  0  0  0  0  0
    5.0649   -5.5019   22.0970 H   0  0  0  0  0  0  0  0  0  0  0  0
    6.2166   -7.0325   23.5561 H   0  0  0  0  0  0  0  0  0  0  0  0
    8.5625   -8.1867   23.4851 H   0  0  0  0  0  0  0  0  0  0  0  0
    7.9686   -8.8360   21.9564 H   0  0  0  0  0  0  0  0  0  0  0  0
    7.1356   -9.3068   23.4399 H   0  0  0  0  0  0  0  0  0  0  0  0
  1  2  1  0
  2  3  1  0
  3  4  2  0
  3  5  1  0
  5  6  1  0
  6  7  1  0
  8  7  1  6
  8  9  1  0
  9 10  2  0
  9 11  1  0
 11 12  1  0
 12 13  2  0
 13 14  1  0
 14 15  2  0
 15 16  1  0
 16 17  2  0
 17 18  1  0
 18 19  2  0
 19 20  1  0
 20 21  2  0
 20 22  1  0
 19 23  1  0
 18 24  1  0
 17 25  1  0
 15 26  1  0
 13 27  1  0
 11 28  1  0
 28 29  1  0
 29 30  1  0
 30 31  1  0
 31 32  1  0
 32 33  1  0
 32 34  1  0
 32 35  1  0
 30 36  1  0
 30 37  1  0
 29 38  1  1
 28 39  1  0
 28 40  1  0
  8 41  1  0
 41 42  2  0
 42 43  1  0
 43 44  1  0
 43 45  2  0
 45 46  1  0
 46 47  2  0
 47 48  1  0
 48 49  2  0
 46 50  1  0
 45 51  1  0
 42 52  1  0
  7 53  1  0
  7 54  1  0
  5 55  1  0
  5 56  1  0
  2 57  1  0
  1 58  1  0
  1 59  1  0
  1 60  1  0
 48  6  1  0
 29  8  1  0
 47 41  1  0
 21 12  1  0
 21 16  1  0
M  END
>  <cnnaffinities>  (44) 
[6.6658, 6.55577, 6.73695]

>  <score>  (44) 
6.6658

>  <index>  (44) 
45

>  <Smiles>  (44) 
C(N(C(=O)C(N1C([C@@]2(C(=O)N(c3c(nc(c4c(c(c(c(c34)[H])[H])[H])[H])[H])[H])C([C@@]2(C(OC([H])([H])[H])([H])[H])[H])([H])[H])c2c(c(Cl)c(c(c2C1=O)[H])[H])[H])([H])[H])([H])[H])[H])([H])([H])[H]

>  <h>  (44) 
<NA>

>  <Training>  (44) 
True

>  <Success>  (44) 
True

>  <enamine_searched>  (44) 
False

>  <enamine_id>  (44) 
nan

$$$$

     RDKit          3D

 64 68  0  0  0  0  0  0  0  0999 V2000
   13.0167   -1.8099   24.1586 C   0  0  0  0  0  0  0  0  0  0  0  0
   12.5404   -1.2706   22.8177 C   0  0  0  0  0  0  0  0  0  0  0  0
   11.0287   -0.3192   22.9372 S   0  0  0  0  0  0  0  0  0  0  0  0
   10.9820    0.6143   21.8193 O   0  0  0  0  0  0  0  0  0  0  0  0
   10.9026    0.1938   24.2991 O   0  0  0  0  0  0  0  0  0  0  0  0
    9.8332   -1.5089   22.7156 N   0  0  0  0  0  0  0  0  0  0  0  0
    8.4927   -0.9596   22.4271 C   0  0  1  0  0  0  0  0  0  0  0  0
    8.2963   -0.4514   20.9969 C   0  0  0  0  0  0  0  0  0  0  0  0
    6.8502   -0.5136   20.8652 N   0  0  0  0  0  0  0  0  0  0  0  0
    6.1290    0.0673   19.7988 C   0  0  0  0  0  0  0  0  0  0  0  0
    6.4803   -0.2140   18.5028 C   0  0  0  0  0  0  0  0  0  0  0  0
    5.8223    0.2411   17.4130 N   0  0  0  0  0  0  0  0  0  0  0  0
    4.7884    1.0181   17.6179 C   0  0  0  0  0  0  0  0  0  0  0  0
    4.3279    1.4099   18.9055 C   0  0  0  0  0  0  0  0  0  0  0  0
    3.2065    2.2668   19.0536 C   0  0  0  0  0  0  0  0  0  0  0  0
    2.7930    2.6530   20.2981 C   0  0  0  0  0  0  0  0  0  0  0  0
    3.4844    2.2033   21.4457 C   0  0  0  0  0  0  0  0  0  0  0  0
    4.5703    1.3699   21.3277 C   0  0  0  0  0  0  0  0  0  0  0  0
    5.0145    0.9369   20.0441 C   0  0  0  0  0  0  0  0  0  0  0  0
    5.0943    1.0302   22.2154 H   0  0  0  0  0  0  0  0  0  0  0  0
    3.1507    2.5256   22.4279 H   0  0  0  0  0  0  0  0  0  0  0  0
    1.9395    3.3159   20.4089 H   0  0  0  0  0  0  0  0  0  0  0  0
    2.7040    2.6130   18.1536 H   0  0  0  0  0  0  0  0  0  0  0  0
    4.2562    1.3734   16.7375 H   0  0  0  0  0  0  0  0  0  0  0  0
    7.3274   -0.8700   18.3090 H   0  0  0  0  0  0  0  0  0  0  0  0
    6.2807   -1.4829   21.6709 C   0  0  0  0  0  0  0  0  0  0  0  0
    5.1533   -1.9117   21.5347 O   0  0  0  0  0  0  0  0  0  0  0  0
    7.3462   -1.9690   22.6777 C   0  0  1  0  0  0  0  0  0  0  0  0
    7.7243   -3.4169   22.2730 C   0  0  0  0  0  0  0  0  0  0  0  0
    6.6392   -4.3366   22.6023 N   0  0  0  0  0  0  0  0  0  0  0  0
    6.1099   -5.2764   21.6244 C   0  0  0  0  0  0  0  0  0  0  0  0
    6.9169   -6.5690   21.5993 C   0  0  0  0  0  0  0  0  0  0  0  0
    7.7091   -6.8055   20.7052 O   0  0  0  0  0  0  0  0  0  0  0  0
    6.7065   -7.3912   22.6556 N   0  0  0  0  0  0  0  0  0  0  0  0
    7.6558   -8.4438   22.9285 C   0  0  0  0  0  0  0  0  0  0  0  0
    8.4933   -8.0828   23.5429 H   0  0  0  0  0  0  0  0  0  0  0  0
    8.0552   -8.8153   21.9893 H   0  0  0  0  0  0  0  0  0  0  0  0
    7.1402   -9.2635   23.4318 H   0  0  0  0  0  0  0  0  0  0  0  0
    6.1570   -7.0099   23.4192 H   0  0  0  0  0  0  0  0  0  0  0  0
    6.1511   -4.8219   20.6328 H   0  0  0  0  0  0  0  0  0  0  0  0
    5.0629   -5.4827   21.8746 H   0  0  0  0  0  0  0  0  0  0  0  0
    6.1698   -4.4061   23.8747 C   0  0  0  0  0  0  0  0  0  0  0  0
    5.5693   -5.3958   24.3033 O   0  0  0  0  0  0  0  0  0  0  0  0
    6.3722   -3.1791   24.6952 C   0  0  0  0  0  0  0  0  0  0  0  0
    5.9800   -3.2247   26.0313 C   0  0  0  0  0  0  0  0  0  0  0  0
    5.9981   -2.0832   26.8065 C   0  0  0  0  0  0  0  0  0  0  0  0
    6.4147   -0.8923   26.2158 C   0  0  0  0  0  0  0  0  0  0  0  0
    6.4019    0.5737   27.1540 Cl  0  0  0  0  0  0  0  0  0  0  0  0
    6.8428   -0.8386   24.9034 C   0  0  0  0  0  0  0  0  0  0  0  0
    6.8544   -1.9966   24.1142 C   0  0  0  0  0  0  0  0  0  0  0  0
    7.1484    0.1223   24.5119 H   0  0  0  0  0  0  0  0  0  0  0  0
    5.6782   -2.1006   27.8423 H   0  0  0  0  0  0  0  0  0  0  0  0
    5.6405   -4.1710   26.4376 H   0  0  0  0  0  0  0  0  0  0  0  0
    7.8941   -3.4556   21.2037 H   0  0  0  0  0  0  0  0  0  0  0  0
    8.6569   -3.7199   22.7653 H   0  0  0  0  0  0  0  0  0  0  0  0
    8.6657    0.5683   20.8808 H   0  0  0  0  0  0  0  0  0  0  0  0
    8.8165   -1.0958   20.2764 H   0  0  0  0  0  0  0  0  0  0  0  0
    8.3122   -0.0976   23.0741 H   0  0  0  0  0  0  0  0  0  0  0  0
    9.7809   -2.0183   23.6022 H   0  0  0  0  0  0  0  0  0  0  0  0
   12.3462   -2.0635   22.0877 H   0  0  0  0  0  0  0  0  0  0  0  0
   13.2780   -0.5798   22.3999 H   0  0  0  0  0  0  0  0  0  0  0  0
   12.3745   -2.6174   24.5297 H   0  0  0  0  0  0  0  0  0  0  0  0
   13.0357   -0.9957   24.8916 H   0  0  0  0  0  0  0  0  0  0  0  0
   14.0249   -2.2175   24.0223 H   0  0  0  0  0  0  0  0  0  0  0  0
  1  2  1  0
  2  3  1  0
  3  4  2  0
  3  5  2  0
  3  6  1  0
  6  7  1  0
  7  8  1  0
  8  9  1  0
  9 10  1  0
 10 11  2  0
 11 12  1  0
 12 13  2  0
 13 14  1  0
 14 15  2  0
 15 16  1  0
 16 17  2  0
 17 18  1  0
 18 19  2  0
 18 20  1  0
 17 21  1  0
 16 22  1  0
 15 23  1  0
 13 24  1  0
 11 25  1  0
  9 26  1  0
 26 27  2  0
 26 28  1  0
 28 29  1  6
 29 30  1  0
 30 31  1  0
 31 32  1  0
 32 33  2  0
 32 34  1  0
 34 35  1  0
 35 36  1  0
 35 37  1  0
 35 38  1  0
 34 39  1  0
 31 40  1  0
 31 41  1  0
 30 42  1  0
 42 43  2  0
 42 44  1  0
 44 45  2  0
 45 46  1  0
 46 47  2  0
 47 48  1  0
 47 49  1  0
 49 50  2  0
 49 51  1  0
 46 52  1  0
 45 53  1  0
 29 54  1  0
 29 55  1  0
  8 56  1  0
  8 57  1  0
  7 58  1  1
  6 59  1  0
  2 60  1  0
  2 61  1  0
  1 62  1  0
  1 63  1  0
  1 64  1  0
 28  7  1  0
 50 44  1  0
 19 10  1  0
 50 28  1  0
 19 14  1  0
M  END
>  <cnnaffinities>  (45) 
[6.99307]

>  <score>  (45) 
6.99307

>  <index>  (45) 
46

>  <Smiles>  (45) 
C(C(S(=O)(=O)N([C@]1(C(N(c2c(nc(c3c(c(c(c(c23)[H])[H])[H])[H])[H])[H])C(=O)[C@]21C(N(C(C(=O)N(C([H])([H])[H])[H])([H])[H])C(=O)c1c(c(c(Cl)c(c21)[H])[H])[H])([H])[H])([H])[H])[H])[H])([H])[H])([H])([H])[H]

>  <h>  (45) 
<NA>

>  <Training>  (45) 
True

>  <Success>  (45) 
True

>  <enamine_searched>  (45) 
False

>  <enamine_id>  (45) 
nan

$$$$

     RDKit          3D

 56 60  0  0  0  0  0  0  0  0999 V2000
    7.6483   -8.5076   22.9278 C   0  0  0  0  0  0  0  0  0  0  0  0
    6.7480   -7.3890   22.7752 N   0  0  0  0  0  0  0  0  0  0  0  0
    6.8829   -6.5474   21.7223 C   0  0  0  0  0  0  0  0  0  0  0  0
    7.6280   -6.7606   20.7872 O   0  0  0  0  0  0  0  0  0  0  0  0
    6.0670   -5.2661   21.8080 C   0  0  0  0  0  0  0  0  0  0  0  0
    6.6581   -4.3225   22.7395 N   0  0  0  0  0  0  0  0  0  0  0  0
    7.7357   -3.4291   22.3335 C   0  0  0  0  0  0  0  0  0  0  0  0
    7.3807   -1.9561   22.6536 C   0  0  2  0  0  0  0  0  0  0  0  0
    6.2992   -1.4905   21.6443 C   0  0  0  0  0  0  0  0  0  0  0  0
    5.1872   -1.9511   21.4957 O   0  0  0  0  0  0  0  0  0  0  0  0
    6.8286   -0.4732   20.8741 N   0  0  0  0  0  0  0  0  0  0  0  0
    6.1052    0.0792   19.7982 C   0  0  0  0  0  0  0  0  0  0  0  0
    6.4619   -0.2095   18.5061 C   0  0  0  0  0  0  0  0  0  0  0  0
    5.8064    0.2399   17.4122 N   0  0  0  0  0  0  0  0  0  0  0  0
    4.7736    1.0209   17.6107 C   0  0  0  0  0  0  0  0  0  0  0  0
    4.3112    1.4140   18.8979 C   0  0  0  0  0  0  0  0  0  0  0  0
    3.1927    2.2721   19.0481 C   0  0  0  0  0  0  0  0  0  0  0  0
    2.7815    2.6570   20.2940 C   0  0  0  0  0  0  0  0  0  0  0  0
    3.4694    2.2095   21.4435 C   0  0  0  0  0  0  0  0  0  0  0  0
    4.5533    1.3749   21.3249 C   0  0  0  0  0  0  0  0  0  0  0  0
    4.9942    0.9451   20.0398 C   0  0  0  0  0  0  0  0  0  0  0  0
    5.0775    1.0377   22.2138 H   0  0  0  0  0  0  0  0  0  0  0  0
    3.1388    2.5378   22.4247 H   0  0  0  0  0  0  0  0  0  0  0  0
    1.9322    3.3237   20.4053 H   0  0  0  0  0  0  0  0  0  0  0  0
    2.6910    2.6244   18.1508 H   0  0  0  0  0  0  0  0  0  0  0  0
    4.2412    1.3805   16.7309 H   0  0  0  0  0  0  0  0  0  0  0  0
    7.3105   -0.8651   18.3170 H   0  0  0  0  0  0  0  0  0  0  0  0
    8.2721   -0.4057   20.9578 C   0  0  0  0  0  0  0  0  0  0  0  0
    8.5614   -0.9860   22.3450 C   0  0  2  0  0  0  0  0  0  0  0  0
    9.9700   -1.5556   22.4353 C   0  0  0  0  0  0  0  0  0  0  0  0
   10.1228   -2.3406   21.6844 H   0  0  0  0  0  0  0  0  0  0  0  0
   10.1700   -1.9831   23.4233 H   0  0  0  0  0  0  0  0  0  0  0  0
   10.7029   -0.7642   22.2454 H   0  0  0  0  0  0  0  0  0  0  0  0
    8.4901   -0.1534   23.0464 H   0  0  0  0  0  0  0  0  0  0  0  0
    8.7665   -0.9979   20.1704 H   0  0  0  0  0  0  0  0  0  0  0  0
    8.6160    0.6294   20.8661 H   0  0  0  0  0  0  0  0  0  0  0  0
    6.8736   -1.8979   24.0904 C   0  0  0  0  0  0  0  0  0  0  0  0
    6.8407   -0.6869   24.7937 C   0  0  0  0  0  0  0  0  0  0  0  0
    6.3695   -0.6564   26.0905 C   0  0  0  0  0  0  0  0  0  0  0  0
    6.3602    0.5187   26.7441 F   0  0  0  0  0  0  0  0  0  0  0  0
    5.9213   -1.7899   26.7580 C   0  0  0  0  0  0  0  0  0  0  0  0
    5.9219   -2.9798   26.0621 C   0  0  0  0  0  0  0  0  0  0  0  0
    6.3616   -3.0329   24.7411 C   0  0  0  0  0  0  0  0  0  0  0  0
    6.1867   -4.3171   24.0121 C   0  0  0  0  0  0  0  0  0  0  0  0
    5.6058   -5.2940   24.4920 O   0  0  0  0  0  0  0  0  0  0  0  0
    5.5614   -3.8919   26.5215 H   0  0  0  0  0  0  0  0  0  0  0  0
    5.5793   -1.7190   27.7847 H   0  0  0  0  0  0  0  0  0  0  0  0
    7.1883    0.2439   24.3593 H   0  0  0  0  0  0  0  0  0  0  0  0
    8.6768   -3.6894   22.8421 H   0  0  0  0  0  0  0  0  0  0  0  0
    7.9015   -3.5561   21.2658 H   0  0  0  0  0  0  0  0  0  0  0  0
    5.0545   -5.5147   22.1439 H   0  0  0  0  0  0  0  0  0  0  0  0
    6.0160   -4.8022   20.8197 H   0  0  0  0  0  0  0  0  0  0  0  0
    6.2379   -7.0301   23.5766 H   0  0  0  0  0  0  0  0  0  0  0  0
    8.5663   -8.2172   23.4646 H   0  0  0  0  0  0  0  0  0  0  0  0
    7.1216   -9.3212   23.4343 H   0  0  0  0  0  0  0  0  0  0  0  0
    7.9326   -8.8641   21.9421 H   0  0  0  0  0  0  0  0  0  0  0  0
  1  2  1  0
  2  3  1  0
  3  4  2  0
  3  5  1  0
  5  6  1  0
  6  7  1  0
  8  7  1  6
  8  9  1  0
  9 10  2  0
  9 11  1  0
 11 12  1  0
 12 13  2  0
 13 14  1  0
 14 15  2  0
 15 16  1  0
 16 17  2  0
 17 18  1  0
 18 19  2  0
 19 20  1  0
 20 21  2  0
 20 22  1  0
 19 23  1  0
 18 24  1  0
 17 25  1  0
 15 26  1  0
 13 27  1  0
 11 28  1  0
 28 29  1  0
 29 30  1  0
 30 31  1  0
 30 32  1  0
 30 33  1  0
 29 34  1  1
 28 35  1  0
 28 36  1  0
  8 37  1  0
 37 38  2  0
 38 39  1  0
 39 40  1  0
 39 41  2  0
 41 42  1  0
 42 43  2  0
 43 44  1  0
 44 45  2  0
 42 46  1  0
 41 47  1  0
 38 48  1  0
  7 49  1  0
  7 50  1  0
  5 51  1  0
  5 52  1  0
  2 53  1  0
  1 54  1  0
  1 55  1  0
  1 56  1  0
 44  6  1  0
 29  8  1  0
 43 37  1  0
 21 12  1  0
 21 16  1  0
M  END
>  <cnnaffinities>  (46) 
[6.56576]

>  <score>  (46) 
6.56576

>  <index>  (46) 
47

>  <Smiles>  (46) 
C(N(C(=O)C(N1C([C@@]2(C(=O)N(c3c(nc(c4c(c(c(c(c34)[H])[H])[H])[H])[H])[H])C([C@@]2(C([H])([H])[H])[H])([H])[H])c2c(c(F)c(c(c2C1=O)[H])[H])[H])([H])[H])([H])[H])[H])([H])([H])[H]

>  <h>  (46) 
<NA>

>  <Training>  (46) 
True

>  <Success>  (46) 
True

>  <enamine_searched>  (46) 
False

>  <enamine_id>  (46) 
nan

$$$$

     RDKit          3D

 41 43  0  0  0  0  0  0  0  0999 V2000
   12.3344   -1.3493   22.1068 C   0  0  0  0  0  0  0  0  0  0  0  0
   11.0268   -0.6296   22.3436 C   0  0  1  0  0  0  0  0  0  0  0  0
    9.9015   -1.6083   22.6921 C   0  0  0  0  0  0  0  0  0  0  0  0
    8.6655   -0.9402   23.3214 C   0  0  0  0  0  0  0  0  0  0  0  0
    8.3505    0.3969   22.8177 N   0  0  0  0  0  0  0  0  0  0  0  0
    7.8715    0.6134   21.5385 C   0  0  0  0  0  0  0  0  0  0  0  0
    8.1308    1.6360   20.9275 O   0  0  0  0  0  0  0  0  0  0  0  0
    6.9475   -0.4549   20.9125 C   0  0  0  0  0  0  0  0  0  0  0  0
    6.1143    0.0840   19.7723 C   0  0  0  0  0  0  0  0  0  0  0  0
    6.4267   -0.2071   18.4691 C   0  0  0  0  0  0  0  0  0  0  0  0
    5.7588    0.2433   17.3748 N   0  0  0  0  0  0  0  0  0  0  0  0
    4.7337    1.0317   17.5777 C   0  0  0  0  0  0  0  0  0  0  0  0
    4.2878    1.4253   18.8696 C   0  0  0  0  0  0  0  0  0  0  0  0
    3.1692    2.2813   19.0442 C   0  0  0  0  0  0  0  0  0  0  0  0
    2.7651    2.6477   20.2995 C   0  0  0  0  0  0  0  0  0  0  0  0
    3.4650    2.1715   21.4308 C   0  0  0  0  0  0  0  0  0  0  0  0
    4.5508    1.3413   21.2876 C   0  0  0  0  0  0  0  0  0  0  0  0
    4.9961    0.9447   19.9985 C   0  0  0  0  0  0  0  0  0  0  0  0
    5.0814    0.9900   22.1674 H   0  0  0  0  0  0  0  0  0  0  0  0
    3.1405    2.4703   22.4223 H   0  0  0  0  0  0  0  0  0  0  0  0
    1.9126    3.3081   20.4349 H   0  0  0  0  0  0  0  0  0  0  0  0
    2.6479    2.6485   18.1625 H   0  0  0  0  0  0  0  0  0  0  0  0
    4.1999    1.3989   16.6985 H   0  0  0  0  0  0  0  0  0  0  0  0
    7.2729   -0.8547   18.2428 H   0  0  0  0  0  0  0  0  0  0  0  0
    6.2924   -0.8956   21.6758 H   0  0  0  0  0  0  0  0  0  0  0  0
    7.5768   -1.2739   20.5359 H   0  0  0  0  0  0  0  0  0  0  0  0
    9.0752    1.4949   23.4620 C   0  0  0  0  0  0  0  0  0  0  0  0
   10.5746    1.5642   23.1567 C   0  0  0  0  0  0  0  0  0  0  0  0
   11.2434    0.3387   23.3626 O   0  0  0  0  0  0  0  0  0  0  0  0
   11.0610    2.2954   23.8209 H   0  0  0  0  0  0  0  0  0  0  0  0
   10.7280    1.9069   22.1237 H   0  0  0  0  0  0  0  0  0  0  0  0
    8.9596    1.3707   24.5429 H   0  0  0  0  0  0  0  0  0  0  0  0
    8.6035    2.4407   23.1852 H   0  0  0  0  0  0  0  0  0  0  0  0
    8.8274   -0.8413   24.3959 H   0  0  0  0  0  0  0  0  0  0  0  0
    7.7904   -1.5818   23.2008 H   0  0  0  0  0  0  0  0  0  0  0  0
   10.2859   -2.3799   23.3740 H   0  0  0  0  0  0  0  0  0  0  0  0
    9.6154   -2.1343   21.7715 H   0  0  0  0  0  0  0  0  0  0  0  0
   10.7522   -0.0976   21.4272 H   0  0  0  0  0  0  0  0  0  0  0  0
   13.1093   -0.6379   21.8186 H   0  0  0  0  0  0  0  0  0  0  0  0
   12.2280   -2.0807   21.3001 H   0  0  0  0  0  0  0  0  0  0  0  0
   12.6693   -1.8629   23.0110 H   0  0  0  0  0  0  0  0  0  0  0  0
  1  2  1  0
  2  3  1  0
  3  4  1  0
  4  5  1  0
  5  6  1  0
  6  7  2  0
  6  8  1  0
  8  9  1  0
  9 10  2  0
 10 11  1  0
 11 12  2  0
 12 13  1  0
 13 14  2  0
 14 15  1  0
 15 16  2  0
 16 17  1  0
 17 18  2  0
 17 19  1  0
 16 20  1  0
 15 21  1  0
 14 22  1  0
 12 23  1  0
 10 24  1  0
  8 25  1  0
  8 26  1  0
  5 27  1  0
 27 28  1  0
 28 29  1  0
 28 30  1  0
 28 31  1  0
 27 32  1  0
 27 33  1  0
  4 34  1  0
  4 35  1  0
  3 36  1  0
  3 37  1  0
  2 38  1  6
  1 39  1  0
  1 40  1  0
  1 41  1  0
 29  2  1  0
 18  9  1  0
 18 13  1  0
M  END
>  <cnnaffinities>  (47) 
[5.32649, 5.522]

>  <score>  (47) 
5.32649

>  <index>  (47) 
48

>  <Smiles>  (47) 
C([C@]1(C(C(N(C(=O)C(c2c(nc(c3c(c(c(c(c23)[H])[H])[H])[H])[H])[H])([H])[H])C(C(O1)([H])[H])([H])[H])([H])[H])([H])[H])[H])([H])([H])[H]

>  <h>  (47) 
<NA>

>  <Training>  (47) 
True

>  <Success>  (47) 
True

>  <enamine_searched>  (47) 
False

>  <enamine_id>  (47) 
nan

$$$$

     RDKit          3D

 42 45  0  0  0  0  0  0  0  0999 V2000
   12.3040   -1.1664   22.4508 C   0  0  0  0  0  0  0  0  0  0  0  0
   10.8730   -1.3705   22.6359 N   0  0  0  0  0  0  0  0  0  0  0  0
    9.9115   -0.7213   21.7695 C   0  0  0  0  0  0  0  0  0  0  0  0
    8.7030   -0.2471   22.5788 C   0  0  1  0  0  0  0  0  0  0  0  0
    7.6886    0.4162   21.6497 C   0  0  0  0  0  0  0  0  0  0  0  0
    7.5759    1.6265   21.5926 O   0  0  0  0  0  0  0  0  0  0  0  0
    6.9207   -0.4013   20.8427 N   0  0  0  0  0  0  0  0  0  0  0  0
    6.1262    0.1070   19.7748 C   0  0  0  0  0  0  0  0  0  0  0  0
    6.4318   -0.2218   18.4777 C   0  0  0  0  0  0  0  0  0  0  0  0
    5.7616    0.2361   17.3939 N   0  0  0  0  0  0  0  0  0  0  0  0
    4.7413    1.0324   17.5879 C   0  0  0  0  0  0  0  0  0  0  0  0
    4.2890    1.4205   18.8748 C   0  0  0  0  0  0  0  0  0  0  0  0
    3.1641    2.2670   19.0513 C   0  0  0  0  0  0  0  0  0  0  0  0
    2.7375    2.6033   20.3068 C   0  0  0  0  0  0  0  0  0  0  0  0
    3.4147    2.0994   21.4407 C   0  0  0  0  0  0  0  0  0  0  0  0
    4.5050    1.2790   21.2958 C   0  0  0  0  0  0  0  0  0  0  0  0
    4.9886    0.9349   20.0085 C   0  0  0  0  0  0  0  0  0  0  0  0
    5.0196    0.8926   22.1690 H   0  0  0  0  0  0  0  0  0  0  0  0
    3.0704    2.3665   22.4344 H   0  0  0  0  0  0  0  0  0  0  0  0
    1.8766    3.2551   20.4440 H   0  0  0  0  0  0  0  0  0  0  0  0
    2.6499    2.6432   18.1686 H   0  0  0  0  0  0  0  0  0  0  0  0
    4.2079    1.3955   16.7033 H   0  0  0  0  0  0  0  0  0  0  0  0
    7.2794   -0.8671   18.2497 H   0  0  0  0  0  0  0  0  0  0  0  0
    7.1209   -1.3914   20.8378 H   0  0  0  0  0  0  0  0  0  0  0  0
    8.1662   -1.3470   23.4620 C   0  0  0  0  0  0  0  0  0  0  0  0
    6.8543   -1.3124   23.9387 C   0  0  0  0  0  0  0  0  0  0  0  0
    6.3886   -2.3277   24.7551 C   0  0  0  0  0  0  0  0  0  0  0  0
    4.7421   -2.2822   25.3109 Cl  0  0  0  0  0  0  0  0  0  0  0  0
    7.2155   -3.3776   25.1431 C   0  0  0  0  0  0  0  0  0  0  0  0
    8.5306   -3.3782   24.7081 C   0  0  0  0  0  0  0  0  0  0  0  0
    9.0208   -2.3699   23.8770 C   0  0  0  0  0  0  0  0  0  0  0  0
   10.4807   -2.3561   23.5086 C   0  0  0  0  0  0  0  0  0  0  0  0
   11.2889   -3.1360   23.9822 O   0  0  0  0  0  0  0  0  0  0  0  0
    9.1983   -4.1643   25.0292 H   0  0  0  0  0  0  0  0  0  0  0  0
    6.8246   -4.1592   25.7878 H   0  0  0  0  0  0  0  0  0  0  0  0
    6.1922   -0.4933   23.6755 H   0  0  0  0  0  0  0  0  0  0  0  0
    9.0474    0.5612   23.2271 H   0  0  0  0  0  0  0  0  0  0  0  0
   10.3896    0.1405   21.3011 H   0  0  0  0  0  0  0  0  0  0  0  0
    9.5733   -1.3789   20.9567 H   0  0  0  0  0  0  0  0  0  0  0  0
   12.4564   -0.4429   21.6519 H   0  0  0  0  0  0  0  0  0  0  0  0
   12.8249   -2.0844   22.1664 H   0  0  0  0  0  0  0  0  0  0  0  0
   12.7730   -0.7907   23.3670 H   0  0  0  0  0  0  0  0  0  0  0  0
  1  2  1  0
  2  3  1  0
  3  4  1  0
  4  5  1  0
  5  6  2  0
  5  7  1  0
  7  8  1  0
  8  9  2  0
  9 10  1  0
 10 11  2  0
 11 12  1  0
 12 13  2  0
 13 14  1  0
 14 15  2  0
 15 16  1  0
 16 17  2  0
 16 18  1  0
 15 19  1  0
 14 20  1  0
 13 21  1  0
 11 22  1  0
  9 23  1  0
  7 24  1  0
  4 25  1  0
 25 26  2  0
 26 27  1  0
 27 28  1  0
 27 29  2  0
 29 30  1  0
 30 31  2  0
 31 32  1  0
 32 33  2  0
 30 34  1  0
 29 35  1  0
 26 36  1  0
  4 37  1  1
  3 38  1  0
  3 39  1  0
  1 40  1  0
  1 41  1  0
  1 42  1  0
 32  2  1  0
 17  8  1  0
 31 25  1  0
 17 12  1  0
M  END
>  <cnnaffinities>  (48) 
[5.92318, 5.28128]

>  <score>  (48) 
5.92318

>  <index>  (48) 
49

>  <Smiles>  (48) 
C(N1C([C@@](C(=O)N(c2c(nc(c3c(c(c(c(c23)[H])[H])[H])[H])[H])[H])[H])(c2c(c(Cl)c(c(c2C1=O)[H])[H])[H])[H])([H])[H])([H])([H])[H]

>  <h>  (48) 
<NA>

>  <Training>  (48) 
True

>  <Success>  (48) 
True

>  <enamine_searched>  (48) 
False

>  <enamine_id>  (48) 
nan

$$$$

     RDKit          3D

 38 41  0  0  0  0  0  0  0  0999 V2000
    7.8608    1.7428   21.1741 O   0  0  0  0  0  0  0  0  0  0  0  0
    8.0108    0.5589   21.4157 C   0  0  0  0  0  0  0  0  0  0  0  0
    6.9703   -0.4691   20.8967 C   0  0  0  0  0  0  0  0  0  0  0  0
    6.1150    0.0814   19.7747 C   0  0  0  0  0  0  0  0  0  0  0  0
    6.4240   -0.2087   18.4703 C   0  0  0  0  0  0  0  0  0  0  0  0
    5.7596    0.2438   17.3766 N   0  0  0  0  0  0  0  0  0  0  0  0
    4.7333    1.0323   17.5786 C   0  0  0  0  0  0  0  0  0  0  0  0
    4.2880    1.4251   18.8702 C   0  0  0  0  0  0  0  0  0  0  0  0
    3.1689    2.2820   19.0425 C   0  0  0  0  0  0  0  0  0  0  0  0
    2.7662    2.6518   20.2979 C   0  0  0  0  0  0  0  0  0  0  0  0
    3.4675    2.1796   21.4289 C   0  0  0  0  0  0  0  0  0  0  0  0
    4.5527    1.3481   21.2867 C   0  0  0  0  0  0  0  0  0  0  0  0
    4.9969    0.9455   19.9995 C   0  0  0  0  0  0  0  0  0  0  0  0
    5.0929    1.0129   22.1650 H   0  0  0  0  0  0  0  0  0  0  0  0
    3.1460    2.4838   22.4199 H   0  0  0  0  0  0  0  0  0  0  0  0
    1.9140    3.3123   20.4315 H   0  0  0  0  0  0  0  0  0  0  0  0
    2.6467    2.6473   18.1605 H   0  0  0  0  0  0  0  0  0  0  0  0
    4.1999    1.3990   16.6990 H   0  0  0  0  0  0  0  0  0  0  0  0
    7.2706   -0.8548   18.2435 H   0  0  0  0  0  0  0  0  0  0  0  0
    6.3245   -0.7870   21.7265 H   0  0  0  0  0  0  0  0  0  0  0  0
    7.4810   -1.3736   20.5354 H   0  0  0  0  0  0  0  0  0  0  0  0
    9.1033    0.1053   22.1293 N   0  0  0  0  0  0  0  0  0  0  0  0
   10.3170    0.9277   22.1915 C   0  0  0  0  0  0  0  0  0  0  0  0
   10.8651    1.0254   23.6127 C   0  0  0  0  0  0  0  0  0  0  0  0
   10.9267   -0.3392   24.2245 C   0  0  0  0  0  0  0  0  0  0  0  0
   11.9151   -0.7816   25.5764 S   0  0  0  0  0  0  0  0  0  0  0  0
   11.2725   -2.3842   25.5680 C   0  0  0  0  0  0  0  0  0  0  0  0
   10.3563   -2.5617   24.5733 C   0  0  0  0  0  0  0  0  0  0  0  0
   10.1610   -1.3776   23.7970 C   0  0  0  0  0  0  0  0  0  0  0  0
    9.2125   -1.2560   22.6322 C   0  0  0  0  0  0  0  0  0  0  0  0
    9.5243   -1.9670   21.8509 H   0  0  0  0  0  0  0  0  0  0  0  0
    8.2312   -1.6041   22.9694 H   0  0  0  0  0  0  0  0  0  0  0  0
    9.8388   -3.5025   24.4013 H   0  0  0  0  0  0  0  0  0  0  0  0
   11.6047   -3.1085   26.3010 H   0  0  0  0  0  0  0  0  0  0  0  0
   10.2082    1.6629   24.2157 H   0  0  0  0  0  0  0  0  0  0  0  0
   11.8485    1.5072   23.6136 H   0  0  0  0  0  0  0  0  0  0  0  0
   11.0929    0.4943   21.5463 H   0  0  0  0  0  0  0  0  0  0  0  0
   10.0858    1.9210   21.8049 H   0  0  0  0  0  0  0  0  0  0  0  0
  1  2  2  0
  2  3  1  0
  3  4  1  0
  4  5  2  0
  5  6  1  0
  6  7  2  0
  7  8  1  0
  8  9  2  0
  9 10  1  0
 10 11  2  0
 11 12  1  0
 12 13  2  0
 12 14  1  0
 11 15  1  0
 10 16  1  0
  9 17  1  0
  7 18  1  0
  5 19  1  0
  3 20  1  0
  3 21  1  0
  2 22  1  0
 22 23  1  0
 23 24  1  0
 24 25  1  0
 25 26  1  0
 26 27  1  0
 27 28  2  0
 28 29  1  0
 29 30  1  0
 30 31  1  0
 30 32  1  0
 28 33  1  0
 27 34  1  0
 24 35  1  0
 24 36  1  0
 23 37  1  0
 23 38  1  0
 13  4  1  0
 30 22  1  0
 13  8  1  0
 29 25  2  0
M  END
>  <cnnaffinities>  (49) 
[5.74601]

>  <score>  (49) 
5.74601

>  <index>  (49) 
50

>  <Smiles>  (49) 
O=C(C(c1c(nc(c2c(c(c(c(c12)[H])[H])[H])[H])[H])[H])([H])[H])N1C(C(c2sc(c(c2C1([H])[H])[H])[H])([H])[H])([H])[H]

>  <h>  (49) 
<NA>

>  <Training>  (49) 
True

>  <Success>  (49) 
True

>  <enamine_searched>  (49) 
False

>  <enamine_id>  (49) 
nan

$$$$

     RDKit          3D

 67 73  0  0  0  0  0  0  0  0999 V2000
    8.7430   -8.3015   23.4501 C   0  0  0  0  0  0  0  0  0  0  0  0
    7.4391   -7.5746   23.5240 C   0  0  0  0  0  0  0  0  0  0  0  0
    6.3050   -8.0655   23.8965 N   0  0  0  0  0  0  0  0  0  0  0  0
    5.3799   -7.0286   23.8312 N   0  0  0  0  0  0  0  0  0  0  0  0
    6.0264   -5.9963   23.4175 C   0  0  0  0  0  0  0  0  0  0  0  0
    5.5116   -4.6527   23.0120 C   0  0  0  0  0  0  0  0  0  0  0  0
    6.1718   -3.5612   23.6800 N   0  0  0  0  0  0  0  0  0  0  0  0
    7.4262   -3.0465   23.1674 C   0  0  0  0  0  0  0  0  0  0  0  0
    7.3075   -1.5434   22.8412 C   0  0  2  0  0  0  0  0  0  0  0  0
    6.3548   -1.3597   21.6471 C   0  0  0  0  0  0  0  0  0  0  0  0
    5.3066   -1.9368   21.4427 O   0  0  0  0  0  0  0  0  0  0  0  0
    6.8821   -0.4003   20.8187 N   0  0  0  0  0  0  0  0  0  0  0  0
    6.1278    0.1269   19.7482 C   0  0  0  0  0  0  0  0  0  0  0  0
    6.4724   -0.1581   18.4532 C   0  0  0  0  0  0  0  0  0  0  0  0
    5.7920    0.2851   17.3710 N   0  0  0  0  0  0  0  0  0  0  0  0
    4.7510    1.0534   17.5799 C   0  0  0  0  0  0  0  0  0  0  0  0
    4.2973    1.4402   18.8746 C   0  0  0  0  0  0  0  0  0  0  0  0
    3.1772    2.2938   19.0533 C   0  0  0  0  0  0  0  0  0  0  0  0
    2.7818    2.6606   20.3094 C   0  0  0  0  0  0  0  0  0  0  0  0
    3.4796    2.1877   21.4451 C   0  0  0  0  0  0  0  0  0  0  0  0
    4.5622    1.3567   21.3052 C   0  0  0  0  0  0  0  0  0  0  0  0
    4.9968    0.9623   20.0043 C   0  0  0  0  0  0  0  0  0  0  0  0
    5.0921    0.9951   22.1880 H   0  0  0  0  0  0  0  0  0  0  0  0
    3.1550    2.4903   22.4358 H   0  0  0  0  0  0  0  0  0  0  0  0
    1.9339    3.3262   20.4446 H   0  0  0  0  0  0  0  0  0  0  0  0
    2.6596    2.6597   18.1701 H   0  0  0  0  0  0  0  0  0  0  0  0
    4.2101    1.4071   16.7011 H   0  0  0  0  0  0  0  0  0  0  0  0
    7.3292   -0.8011   18.2527 H   0  0  0  0  0  0  0  0  0  0  0  0
    8.2088    0.0487   21.1727 C   0  0  0  0  0  0  0  0  0  0  0  0
    8.6243   -0.8831   22.3311 C   0  0  2  0  0  0  0  0  0  0  0  0
    9.6749   -1.8764   21.8268 C   0  0  0  0  0  0  0  0  0  0  0  0
   10.8918   -1.2062   21.3542 N   0  0  0  0  0  0  0  0  0  0  0  0
   11.7328   -0.6790   22.3386 C   0  0  0  0  0  0  0  0  0  0  0  0
   11.5234    0.5788   22.9153 C   0  0  0  0  0  0  0  0  0  0  0  0
   12.4861    1.0156   23.8066 C   0  0  0  0  0  0  0  0  0  0  0  0
   13.5597    0.2903   24.1339 N   0  0  0  0  0  0  0  0  0  0  0  0
   13.6430   -0.8893   23.5310 C   0  0  0  0  0  0  0  0  0  0  0  0
   12.7941   -1.4185   22.6624 N   0  0  0  0  0  0  0  0  0  0  0  0
   14.5071   -1.5007   23.7786 H   0  0  0  0  0  0  0  0  0  0  0  0
   12.4048    1.9949   24.2740 H   0  0  0  0  0  0  0  0  0  0  0  0
   10.6926    1.2046   22.6105 H   0  0  0  0  0  0  0  0  0  0  0  0
   11.4512   -1.8745   20.8318 H   0  0  0  0  0  0  0  0  0  0  0  0
    9.2521   -2.4206   20.9741 H   0  0  0  0  0  0  0  0  0  0  0  0
    9.9100   -2.6166   22.6052 H   0  0  0  0  0  0  0  0  0  0  0  0
    9.0789   -0.3305   23.1580 H   0  0  0  0  0  0  0  0  0  0  0  0
    8.2177    1.1139   21.4427 H   0  0  0  0  0  0  0  0  0  0  0  0
    8.8822   -0.0631   20.3244 H   0  0  0  0  0  0  0  0  0  0  0  0
    6.7495   -0.8439   24.0791 C   0  0  0  0  0  0  0  0  0  0  0  0
    6.9342    0.5321   24.2854 C   0  0  0  0  0  0  0  0  0  0  0  0
    6.4959    1.1271   25.4588 C   0  0  0  0  0  0  0  0  0  0  0  0
    6.7742    2.8321   25.7117 Cl  0  0  0  0  0  0  0  0  0  0  0  0
    5.8369    0.3932   26.4437 C   0  0  0  0  0  0  0  0  0  0  0  0
    5.5801   -0.9446   26.2042 C   0  0  0  0  0  0  0  0  0  0  0  0
    6.0013   -1.5558   25.0235 C   0  0  0  0  0  0  0  0  0  0  0  0
    5.5558   -2.9598   24.7450 C   0  0  0  0  0  0  0  0  0  0  0  0
    4.6764   -3.5163   25.3941 O   0  0  0  0  0  0  0  0  0  0  0  0
    5.0374   -1.5442   26.9257 H   0  0  0  0  0  0  0  0  0  0  0  0
    5.5243    0.8826   27.3618 H   0  0  0  0  0  0  0  0  0  0  0  0
    7.4261    1.1563   23.5446 H   0  0  0  0  0  0  0  0  0  0  0  0
    8.2104   -3.1920   23.9229 H   0  0  0  0  0  0  0  0  0  0  0  0
    7.6909   -3.6112   22.2725 H   0  0  0  0  0  0  0  0  0  0  0  0
    5.6302   -4.5255   21.9258 H   0  0  0  0  0  0  0  0  0  0  0  0
    4.4468   -4.6017   23.2491 H   0  0  0  0  0  0  0  0  0  0  0  0
    7.3447   -6.2567   23.2111 O   0  0  0  0  0  0  0  0  0  0  0  0
    8.5451   -9.3665   23.3220 H   0  0  0  0  0  0  0  0  0  0  0  0
    9.3024   -8.2286   24.3782 H   0  0  0  0  0  0  0  0  0  0  0  0
    9.4360   -7.9508   22.7147 H   0  0  0  0  0  0  0  0  0  0  0  0
  1  2  1  0
  2  3  2  0
  3  4  1  0
  4  5  2  0
  5  6  1  0
  6  7  1  0
  7  8  1  0
  9  8  1  1
  9 10  1  0
 10 11  2  0
 10 12  1  0
 12 13  1  0
 13 14  2  0
 14 15  1  0
 15 16  2  0
 16 17  1  0
 17 18  2  0
 18 19  1  0
 19 20  2  0
 20 21  1  0
 21 22  2  0
 21 23  1  0
 20 24  1  0
 19 25  1  0
 18 26  1  0
 16 27  1  0
 14 28  1  0
 12 29  1  0
 29 30  1  0
 30 31  1  0
 31 32  1  0
 32 33  1  0
 33 34  2  0
 34 35  1  0
 35 36  2  0
 36 37  1  0
 37 38  2  0
 37 39  1  0
 35 40  1  0
 34 41  1  0
 32 42  1  0
 31 43  1  0
 31 44  1  0
 30 45  1  1
 29 46  1  0
 29 47  1  0
  9 48  1  0
 48 49  2  0
 49 50  1  0
 50 51  1  0
 50 52  2  0
 52 53  1  0
 53 54  2  0
 54 55  1  0
 55 56  2  0
 53 57  1  0
 52 58  1  0
 49 59  1  0
  8 60  1  0
  8 61  1  0
  6 62  1  0
  6 63  1  0
  5 64  1  0
  1 65  1  0
  1 66  1  0
  1 67  1  0
 64  2  1  0
 55  7  1  0
 30  9  1  0
 38 33  1  0
 54 48  1  0
 22 13  1  0
 22 17  1  0
M  END
>  <cnnaffinities>  (50) 
[7.47797]

>  <score>  (50) 
7.47797

>  <index>  (50) 
51

>  <Smiles>  (50) 
C(c1nnc(C(N2C([C@@]3(C(=O)N(c4c(nc(c5c(c(c(c(c45)[H])[H])[H])[H])[H])[H])C([C@@]3(C(N(c3c(c(nc(n3)[H])[H])[H])[H])([H])[H])[H])([H])[H])c3c(c(Cl)c(c(c3C2=O)[H])[H])[H])([H])[H])([H])[H])o1)([H])([H])[H]

>  <h>  (50) 
<NA>

>  <Training>  (50) 
True

>  <Success>  (50) 
True

>  <enamine_searched>  (50) 
False

>  <enamine_id>  (50) 
nan

$$$$

     RDKit          3D

 66 71  0  0  0  0  0  0  0  0999 V2000
    7.6905   -8.4759   22.9248 C   0  0  0  0  0  0  0  0  0  0  0  0
    6.7866   -7.3541   22.8049 N   0  0  0  0  0  0  0  0  0  0  0  0
    6.9013   -6.5310   21.7334 C   0  0  0  0  0  0  0  0  0  0  0  0
    7.6241   -6.7491   20.7761 O   0  0  0  0  0  0  0  0  0  0  0  0
    6.0515   -5.2690   21.8016 C   0  0  0  0  0  0  0  0  0  0  0  0
    6.6198   -4.3103   22.7266 N   0  0  0  0  0  0  0  0  0  0  0  0
    7.7190   -3.4529   22.3246 C   0  0  0  0  0  0  0  0  0  0  0  0
    7.4149   -1.9763   22.6717 C   0  0  2  0  0  0  0  0  0  0  0  0
    6.3338   -1.4910   21.6735 C   0  0  0  0  0  0  0  0  0  0  0  0
    5.2254   -1.9576   21.5317 O   0  0  0  0  0  0  0  0  0  0  0  0
    6.8563   -0.4664   20.9049 N   0  0  0  0  0  0  0  0  0  0  0  0
    6.1300    0.0763   19.8220 C   0  0  0  0  0  0  0  0  0  0  0  0
    6.4915   -0.2136   18.5308 C   0  0  0  0  0  0  0  0  0  0  0  0
    5.8356    0.2323   17.4357 N   0  0  0  0  0  0  0  0  0  0  0  0
    4.7983    1.0089   17.6234 C   0  0  0  0  0  0  0  0  0  0  0  0
    4.3323    1.4099   18.9069 C   0  0  0  0  0  0  0  0  0  0  0  0
    3.2107    2.2672   19.0519 C   0  0  0  0  0  0  0  0  0  0  0  0
    2.7942    2.6553   20.2955 C   0  0  0  0  0  0  0  0  0  0  0  0
    3.4796    2.2059   21.4469 C   0  0  0  0  0  0  0  0  0  0  0  0
    4.5653    1.3719   21.3328 C   0  0  0  0  0  0  0  0  0  0  0  0
    5.0131    0.9420   20.0512 C   0  0  0  0  0  0  0  0  0  0  0  0
    5.0919    1.0307   22.2186 H   0  0  0  0  0  0  0  0  0  0  0  0
    3.1435    2.5278   22.4284 H   0  0  0  0  0  0  0  0  0  0  0  0
    1.9385    3.3168   20.4041 H   0  0  0  0  0  0  0  0  0  0  0  0
    2.7091    2.6115   18.1512 H   0  0  0  0  0  0  0  0  0  0  0  0
    4.2709    1.3618   16.7367 H   0  0  0  0  0  0  0  0  0  0  0  0
    7.3395   -0.8686   18.3339 H   0  0  0  0  0  0  0  0  0  0  0  0
    8.3049   -0.4232   20.9722 C   0  0  0  0  0  0  0  0  0  0  0  0
    8.6042   -1.0216   22.3501 C   0  0  2  0  0  0  0  0  0  0  0  0
   10.0142   -1.6067   22.4146 C   0  0  0  0  0  0  0  0  0  0  0  0
   10.2875   -2.1185   23.7345 N   0  0  0  0  0  0  0  0  0  0  0  0
   11.5055   -2.5089   24.1848 C   0  0  0  0  0  0  0  0  0  0  0  0
   12.6628   -2.4714   23.3820 C   0  0  0  0  0  0  0  0  0  0  0  0
   13.8515   -2.7804   24.0091 C   0  0  0  0  0  0  0  0  0  0  0  0
   13.9349   -3.1610   25.2922 N   0  0  0  0  0  0  0  0  0  0  0  0
   12.7716   -3.2144   25.9304 C   0  0  0  0  0  0  0  0  0  0  0  0
   11.5664   -2.9083   25.4649 N   0  0  0  0  0  0  0  0  0  0  0  0
   12.8123   -3.5427   26.9682 H   0  0  0  0  0  0  0  0  0  0  0  0
   14.7963   -2.7142   23.4749 H   0  0  0  0  0  0  0  0  0  0  0  0
   12.6383   -2.1983   22.3311 H   0  0  0  0  0  0  0  0  0  0  0  0
    9.5542   -2.1062   24.4292 H   0  0  0  0  0  0  0  0  0  0  0  0
   10.7431   -0.8266   22.1550 H   0  0  0  0  0  0  0  0  0  0  0  0
   10.1230   -2.3911   21.6507 H   0  0  0  0  0  0  0  0  0  0  0  0
    8.5551   -0.2062   23.0739 H   0  0  0  0  0  0  0  0  0  0  0  0
    8.6627    0.6068   20.8769 H   0  0  0  0  0  0  0  0  0  0  0  0
    8.7731   -1.0215   20.1741 H   0  0  0  0  0  0  0  0  0  0  0  0
    6.9246   -1.9219   24.1188 C   0  0  0  0  0  0  0  0  0  0  0  0
    6.8893   -0.7114   24.8267 C   0  0  0  0  0  0  0  0  0  0  0  0
    6.4124   -0.6714   26.1252 C   0  0  0  0  0  0  0  0  0  0  0  0
    6.3711    0.8518   26.9669 Cl  0  0  0  0  0  0  0  0  0  0  0  0
    5.9575   -1.8151   26.7785 C   0  0  0  0  0  0  0  0  0  0  0  0
    5.9488   -3.0070   26.0823 C   0  0  0  0  0  0  0  0  0  0  0  0
    6.4014   -3.0570   24.7643 C   0  0  0  0  0  0  0  0  0  0  0  0
    6.2057   -4.3313   24.0193 C   0  0  0  0  0  0  0  0  0  0  0  0
    5.6454   -5.3155   24.5082 O   0  0  0  0  0  0  0  0  0  0  0  0
    5.5756   -3.9203   26.5351 H   0  0  0  0  0  0  0  0  0  0  0  0
    5.5990   -1.7591   27.7997 H   0  0  0  0  0  0  0  0  0  0  0  0
    7.2003    0.2213   24.3727 H   0  0  0  0  0  0  0  0  0  0  0  0
    7.8561   -3.5513   21.2518 H   0  0  0  0  0  0  0  0  0  0  0  0
    8.6495   -3.7722   22.8104 H   0  0  0  0  0  0  0  0  0  0  0  0
    6.0205   -4.8353   20.7989 H   0  0  0  0  0  0  0  0  0  0  0  0
    5.0309   -5.4878   22.1400 H   0  0  0  0  0  0  0  0  0  0  0  0
    6.3348   -6.9823   23.6357 H   0  0  0  0  0  0  0  0  0  0  0  0
    8.0379   -8.7472   21.9358 H   0  0  0  0  0  0  0  0  0  0  0  0
    8.5833   -8.2266   23.5104 H   0  0  0  0  0  0  0  0  0  0  0  0
    7.1864   -9.3402   23.3629 H   0  0  0  0  0  0  0  0  0  0  0  0
  1  2  1  0
  2  3  1  0
  3  4  2  0
  3  5  1  0
  5  6  1  0
  6  7  1  0
  8  7  1  6
  8  9  1  0
  9 10  2  0
  9 11  1  0
 11 12  1  0
 12 13  2  0
 13 14  1  0
 14 15  2  0
 15 16  1  0
 16 17  2  0
 17 18  1  0
 18 19  2  0
 19 20  1  0
 20 21  2  0
 20 22  1  0
 19 23  1  0
 18 24  1  0
 17 25  1  0
 15 26  1  0
 13 27  1  0
 11 28  1  0
 28 29  1  0
 29 30  1  0
 30 31  1  0
 31 32  1  0
 32 33  2  0
 33 34  1  0
 34 35  2  0
 35 36  1  0
 36 37  2  0
 36 38  1  0
 34 39  1  0
 33 40  1  0
 31 41  1  0
 30 42  1  0
 30 43  1  0
 29 44  1  1
 28 45  1  0
 28 46  1  0
  8 47  1  0
 47 48  2  0
 48 49  1  0
 49 50  1  0
 49 51  2  0
 51 52  1  0
 52 53  2  0
 53 54  1  0
 54 55  2  0
 52 56  1  0
 51 57  1  0
 48 58  1  0
  7 59  1  0
  7 60  1  0
  5 61  1  0
  5 62  1  0
  2 63  1  0
  1 64  1  0
  1 65  1  0
  1 66  1  0
 54  6  1  0
 29  8  1  0
 37 32  1  0
 53 47  1  0
 21 12  1  0
 21 16  1  0
M  END
>  <cnnaffinities>  (51) 
[7.42715, 7.32587]

>  <score>  (51) 
7.42715

>  <index>  (51) 
52

>  <Smiles>  (51) 
C(N(C(=O)C(N1C([C@@]2(C(=O)N(c3c(nc(c4c(c(c(c(c34)[H])[H])[H])[H])[H])[H])C([C@@]2(C(N(c2c(c(nc(n2)[H])[H])[H])[H])([H])[H])[H])([H])[H])c2c(c(Cl)c(c(c2C1=O)[H])[H])[H])([H])[H])([H])[H])[H])([H])([H])[H]

>  <h>  (51) 
<NA>

>  <Training>  (51) 
True

>  <Success>  (51) 
True

>  <enamine_searched>  (51) 
False

>  <enamine_id>  (51) 
nan

$$$$

     RDKit          3D

 77 84  0  0  0  0  0  0  0  0999 V2000
    4.4958   -3.2910   25.4700 O   0  0  0  0  0  0  0  0  0  0  0  0
    5.3895   -2.7784   24.8086 C   0  0  0  0  0  0  0  0  0  0  0  0
    5.8922   -1.3953   25.0630 C   0  0  0  0  0  0  0  0  0  0  0  0
    5.4486   -0.7488   26.2151 C   0  0  0  0  0  0  0  0  0  0  0  0
    5.7519    0.5806   26.4285 C   0  0  0  0  0  0  0  0  0  0  0  0
    6.4858    1.2541   25.4558 C   0  0  0  0  0  0  0  0  0  0  0  0
    6.8356    2.9416   25.6953 Cl  0  0  0  0  0  0  0  0  0  0  0  0
    6.9471    0.6156   24.3149 C   0  0  0  0  0  0  0  0  0  0  0  0
    6.7000   -0.7493   24.1162 C   0  0  0  0  0  0  0  0  0  0  0  0
    7.2418   -1.4900   22.8834 C   0  0  1  0  0  0  0  0  0  0  0  0
    7.2417   -3.0000   23.2127 C   0  0  0  0  0  0  0  0  0  0  0  0
    5.9459   -3.4268   23.7337 N   0  0  0  0  0  0  0  0  0  0  0  0
    5.0258   -4.2407   22.9187 C   0  0  0  0  0  0  0  0  0  0  0  0
    4.9364   -5.6584   23.4603 C   0  0  0  0  0  0  0  0  0  0  0  0
    6.3476   -6.0512   23.7207 N   0  0  0  0  0  4  0  0  0  0  0  0
    7.1838   -6.5352   22.5343 C   0  0  0  0  0  0  0  0  0  0  0  0
    7.5235   -7.8390   23.2767 C   0  0  0  0  0  0  0  0  0  0  0  0
    8.9625   -8.3087   23.4639 C   0  0  0  0  0  0  0  0  0  0  0  0
    8.6111   -9.6511   23.1803 O   0  0  0  0  0  0  0  0  0  0  0  0
    7.2831   -9.2769   22.8609 C   0  0  0  0  0  0  0  0  0  0  0  0
    6.5651   -9.7897   23.4850 H   0  0  0  0  0  0  0  0  0  0  0  0
    7.0486   -9.4922   21.8318 H   0  0  0  0  0  0  0  0  0  0  0  0
    9.7175   -7.9567   22.7794 H   0  0  0  0  0  0  0  0  0  0  0  0
    9.3658   -8.1643   24.4504 H   0  0  0  0  0  0  0  0  0  0  0  0
    6.6462   -7.3096   24.4452 C   0  0  0  0  0  0  0  0  0  0  0  0
    7.1587   -7.1142   25.3839 H   0  0  0  0  0  0  0  0  0  0  0  0
    5.7402   -7.8888   24.6450 H   0  0  0  0  0  0  0  0  0  0  0  0
    8.0278   -5.8590   22.4046 H   0  0  0  0  0  0  0  0  0  0  0  0
    6.6015   -6.6114   21.6144 H   0  0  0  0  0  0  0  0  0  0  0  0
    6.7449   -5.2116   24.1963 H   0  0  0  0  0  0  0  0  0  0  0  0
    4.4541   -6.3413   22.7471 H   0  0  0  0  0  0  0  0  0  0  0  0
    4.3903   -5.6754   24.4047 H   0  0  0  0  0  0  0  0  0  0  0  0
    5.4118   -4.2357   21.8952 H   0  0  0  0  0  0  0  0  0  0  0  0
    4.0500   -3.7528   22.9105 H   0  0  0  0  0  0  0  0  0  0  0  0
    8.0239   -3.2037   23.9555 H   0  0  0  0  0  0  0  0  0  0  0  0
    7.4536   -3.5777   22.3096 H   0  0  0  0  0  0  0  0  0  0  0  0
    6.3192   -1.2969   21.6660 C   0  0  0  0  0  0  0  0  0  0  0  0
    5.2317   -1.8081   21.4667 O   0  0  0  0  0  0  0  0  0  0  0  0
    6.9118   -0.4239   20.7973 N   0  0  0  0  0  0  0  0  0  0  0  0
    6.1623    0.1252   19.7338 C   0  0  0  0  0  0  0  0  0  0  0  0
    6.4974   -0.1627   18.4378 C   0  0  0  0  0  0  0  0  0  0  0  0
    5.8113    0.2839   17.3609 N   0  0  0  0  0  0  0  0  0  0  0  0
    4.7729    1.0520   17.5795 C   0  0  0  0  0  0  0  0  0  0  0  0
    4.3236    1.4326   18.8760 C   0  0  0  0  0  0  0  0  0  0  0  0
    3.2010    2.2825   19.0589 C   0  0  0  0  0  0  0  0  0  0  0  0
    2.8038    2.6445   20.3138 C   0  0  0  0  0  0  0  0  0  0  0  0
    3.5030    2.1680   21.4480 C   0  0  0  0  0  0  0  0  0  0  0  0
    4.5891    1.3421   21.3036 C   0  0  0  0  0  0  0  0  0  0  0  0
    5.0281    0.9535   20.0018 C   0  0  0  0  0  0  0  0  0  0  0  0
    5.1133    0.9787   22.1883 H   0  0  0  0  0  0  0  0  0  0  0  0
    3.1784    2.4655   22.4401 H   0  0  0  0  0  0  0  0  0  0  0  0
    1.9553    3.3099   20.4519 H   0  0  0  0  0  0  0  0  0  0  0  0
    2.6854    2.6515   18.1746 H   0  0  0  0  0  0  0  0  0  0  0  0
    4.2288    1.4172   16.7065 H   0  0  0  0  0  0  0  0  0  0  0  0
    7.3456   -0.8145   18.2323 H   0  0  0  0  0  0  0  0  0  0  0  0
    8.2344    0.0075   21.1849 C   0  0  0  0  0  0  0  0  0  0  0  0
    8.6027   -0.8932   22.3860 C   0  0  2  0  0  0  0  0  0  0  0  0
    9.7198   -1.8773   21.9562 C   0  0  0  0  0  0  0  0  0  0  0  0
   10.3487   -2.6048   23.0424 N   0  0  0  0  0  0  0  0  0  0  0  0
   11.2586   -2.0443   23.8885 C   0  0  0  0  0  0  0  0  0  0  0  0
   11.7879   -2.8685   24.8168 N   0  0  0  0  0  0  0  0  0  0  0  0
   12.6111   -2.3090   25.6857 C   0  0  0  0  0  0  0  0  0  0  0  0
   12.9597   -0.9603   25.6559 C   0  0  0  0  0  0  0  0  0  0  0  0
   12.3906   -0.2216   24.6284 C   0  0  0  0  0  0  0  0  0  0  0  0
   11.5369   -0.7366   23.7463 N   0  0  0  0  0  0  0  0  0  0  0  0
   12.6190    0.8377   24.5058 H   0  0  0  0  0  0  0  0  0  0  0  0
   13.6313   -0.5322   26.3881 H   0  0  0  0  0  0  0  0  0  0  0  0
   13.0114   -2.9790   26.4477 H   0  0  0  0  0  0  0  0  0  0  0  0
   10.3291   -3.6145   23.0479 H   0  0  0  0  0  0  0  0  0  0  0  0
   10.5025   -1.2825   21.4690 H   0  0  0  0  0  0  0  0  0  0  0  0
    9.3285   -2.5983   21.2276 H   0  0  0  0  0  0  0  0  0  0  0  0
    9.0325   -0.2955   23.1933 H   0  0  0  0  0  0  0  0  0  0  0  0
    8.2429    1.0767   21.4351 H   0  0  0  0  0  0  0  0  0  0  0  0
    8.9345   -0.1269   20.3620 H   0  0  0  0  0  0  0  0  0  0  0  0
    7.5101    1.1977   23.5943 H   0  0  0  0  0  0  0  0  0  0  0  0
    5.4192    1.0985   27.3200 H   0  0  0  0  0  0  0  0  0  0  0  0
    4.8519   -1.3201   26.9197 H   0  0  0  0  0  0  0  0  0  0  0  0
  1  2  2  0
  2  3  1  0
  3  4  2  0
  4  5  1  0
  5  6  2  0
  6  7  1  0
  6  8  1  0
  8  9  2  0
  9 10  1  0
 10 11  1  1
 11 12  1  0
 12 13  1  0
 13 14  1  0
 14 15  1  0
 15 16  1  0
 16 17  1  0
 17 18  1  0
 18 19  1  0
 19 20  1  0
 20 21  1  0
 20 22  1  0
 18 23  1  0
 18 24  1  0
 17 25  1  0
 25 26  1  0
 25 27  1  0
 16 28  1  0
 16 29  1  0
 15 30  1  0
 14 31  1  0
 14 32  1  0
 13 33  1  0
 13 34  1  0
 11 35  1  0
 11 36  1  0
 10 37  1  0
 37 38  2  0
 37 39  1  0
 39 40  1  0
 40 41  2  0
 41 42  1  0
 42 43  2  0
 43 44  1  0
 44 45  2  0
 45 46  1  0
 46 47  2  0
 47 48  1  0
 48 49  2  0
 48 50  1  0
 47 51  1  0
 46 52  1  0
 45 53  1  0
 43 54  1  0
 41 55  1  0
 39 56  1  0
 56 57  1  0
 57 58  1  0
 58 59  1  0
 59 60  1  0
 60 61  2  0
 61 62  1  0
 62 63  2  0
 63 64  1  0
 64 65  2  0
 64 66  1  0
 63 67  1  0
 62 68  1  0
 59 69  1  0
 58 70  1  0
 58 71  1  0
 57 72  1  1
 56 73  1  0
 56 74  1  0
  8 75  1  0
  5 76  1  0
  4 77  1  0
 12  2  1  0
 25 15  1  0
 49 40  1  0
 65 60  1  0
  9  3  1  0
 57 10  1  0
 20 17  1  0
 49 44  1  0
M  CHG  1  15   1
M  END
>  <cnnaffinities>  (52) 
[7.4606]

>  <score>  (52) 
7.4606

>  <index>  (52) 
53

>  <Smiles>  (52) 
O=C1c2c(c(c(Cl)c(c2[C@@]2(C(N1C(C([N+]1(C(C3(C(OC3([H])[H])([H])[H])C1([H])[H])([H])[H])[H])([H])[H])([H])[H])([H])[H])C(=O)N(c1c(nc(c3c(c(c(c(c13)[H])[H])[H])[H])[H])[H])C([C@@]2(C(N(c1nc(c(c(n1)[H])[H])[H])[H])([H])[H])[H])([H])[H])[H])[H])[H]

>  <h>  (52) 
<NA>

>  <Training>  (52) 
True

>  <Success>  (52) 
True

>  <enamine_searched>  (52) 
False

>  <enamine_id>  (52) 
nan

$$$$

     RDKit          3D

 66 71  0  0  0  0  0  0  0  0999 V2000
    7.7823   -8.4853   22.8633 C   0  0  0  0  0  0  0  0  0  0  0  0
    6.8543   -7.3785   22.7669 N   0  0  0  0  0  0  0  0  0  0  0  0
    6.9429   -6.5323   21.7103 C   0  0  0  0  0  0  0  0  0  0  0  0
    7.6554   -6.7437   20.7472 O   0  0  0  0  0  0  0  0  0  0  0  0
    6.0941   -5.2701   21.8011 C   0  0  0  0  0  0  0  0  0  0  0  0
    6.6538   -4.3023   22.7240 N   0  0  0  0  0  0  0  0  0  0  0  0
    7.7249   -3.4082   22.3148 C   0  0  0  0  0  0  0  0  0  0  0  0
    7.3768   -1.9364   22.6569 C   0  0  2  0  0  0  0  0  0  0  0  0
    6.2916   -1.4570   21.6633 C   0  0  0  0  0  0  0  0  0  0  0  0
    5.1655   -1.8894   21.5408 O   0  0  0  0  0  0  0  0  0  0  0  0
    6.8342   -0.4704   20.8644 N   0  0  0  0  0  0  0  0  0  0  0  0
    6.1066    0.0792   19.7919 C   0  0  0  0  0  0  0  0  0  0  0  0
    6.4604   -0.2113   18.4994 C   0  0  0  0  0  0  0  0  0  0  0  0
    5.8023    0.2381   17.4071 N   0  0  0  0  0  0  0  0  0  0  0  0
    4.7700    1.0196   17.6063 C   0  0  0  0  0  0  0  0  0  0  0  0
    4.3110    1.4134   18.8951 C   0  0  0  0  0  0  0  0  0  0  0  0
    3.1933    2.2713   19.0506 C   0  0  0  0  0  0  0  0  0  0  0  0
    2.7850    2.6554   20.2976 C   0  0  0  0  0  0  0  0  0  0  0  0
    3.4755    2.2083   21.4456 C   0  0  0  0  0  0  0  0  0  0  0  0
    4.5600    1.3764   21.3222 C   0  0  0  0  0  0  0  0  0  0  0  0
    4.9961    0.9454   20.0354 C   0  0  0  0  0  0  0  0  0  0  0  0
    5.0867    1.0383   22.2090 H   0  0  0  0  0  0  0  0  0  0  0  0
    3.1470    2.5337   22.4288 H   0  0  0  0  0  0  0  0  0  0  0  0
    1.9346    3.3203   20.4119 H   0  0  0  0  0  0  0  0  0  0  0  0
    2.6891    2.6235   18.1551 H   0  0  0  0  0  0  0  0  0  0  0  0
    4.2361    1.3801   16.7271 H   0  0  0  0  0  0  0  0  0  0  0  0
    7.3080   -0.8689   18.3099 H   0  0  0  0  0  0  0  0  0  0  0  0
    8.2783   -0.3999   20.9516 C   0  0  0  0  0  0  0  0  0  0  0  0
    8.5494   -0.9602   22.3435 C   0  0  2  0  0  0  0  0  0  0  0  0
    9.9518   -1.5233   22.4704 C   0  0  0  0  0  0  0  0  0  0  0  0
   10.1633   -2.0030   23.8146 N   0  0  0  0  0  0  0  0  0  0  0  0
   11.3947   -2.3893   24.2454 C   0  0  0  0  0  0  0  0  0  0  0  0
   11.5759   -2.8617   25.5694 C   0  0  0  0  0  0  0  0  0  0  0  0
   12.7581   -3.2277   26.0220 N   0  0  0  0  0  0  0  0  0  0  0  0
   13.7974   -3.1133   25.1775 C   0  0  0  0  0  0  0  0  0  0  0  0
   13.6174   -2.6834   23.8758 C   0  0  0  0  0  0  0  0  0  0  0  0
   12.4229   -2.3141   23.3994 N   0  0  0  0  0  0  0  0  0  0  0  0
   14.4404   -2.6748   23.1652 H   0  0  0  0  0  0  0  0  0  0  0  0
   14.7723   -3.4034   25.5657 H   0  0  0  0  0  0  0  0  0  0  0  0
   10.7427   -2.9095   26.2739 H   0  0  0  0  0  0  0  0  0  0  0  0
    9.4517   -1.8363   24.5122 H   0  0  0  0  0  0  0  0  0  0  0  0
   10.7133   -0.7692   22.2485 H   0  0  0  0  0  0  0  0  0  0  0  0
   10.1041   -2.3473   21.7580 H   0  0  0  0  0  0  0  0  0  0  0  0
    8.4647   -0.1217   23.0392 H   0  0  0  0  0  0  0  0  0  0  0  0
    8.7778   -0.9896   20.1664 H   0  0  0  0  0  0  0  0  0  0  0  0
    8.6128    0.6357   20.8525 H   0  0  0  0  0  0  0  0  0  0  0  0
    6.8970   -1.8889   24.1000 C   0  0  0  0  0  0  0  0  0  0  0  0
    6.8604   -0.6810   24.8128 C   0  0  0  0  0  0  0  0  0  0  0  0
    6.3985   -0.6495   26.1163 C   0  0  0  0  0  0  0  0  0  0  0  0
    6.3474    0.8720   26.9588 Cl  0  0  0  0  0  0  0  0  0  0  0  0
    5.9650   -1.7981   26.7738 C   0  0  0  0  0  0  0  0  0  0  0  0
    5.9681   -2.9848   26.0695 C   0  0  0  0  0  0  0  0  0  0  0  0
    6.3999   -3.0324   24.7470 C   0  0  0  0  0  0  0  0  0  0  0  0
    6.2144   -4.3149   24.0081 C   0  0  0  0  0  0  0  0  0  0  0  0
    5.6529   -5.3006   24.4882 O   0  0  0  0  0  0  0  0  0  0  0  0
    5.6051   -3.9005   26.5181 H   0  0  0  0  0  0  0  0  0  0  0  0
    5.6125   -1.7489   27.7990 H   0  0  0  0  0  0  0  0  0  0  0  0
    7.1714    0.2563   24.3656 H   0  0  0  0  0  0  0  0  0  0  0  0
    7.8577   -3.5156   21.2436 H   0  0  0  0  0  0  0  0  0  0  0  0
    8.6814   -3.6782   22.7879 H   0  0  0  0  0  0  0  0  0  0  0  0
    5.0872   -5.5386   22.1396 H   0  0  0  0  0  0  0  0  0  0  0  0
    6.0361   -4.8040   20.8135 H   0  0  0  0  0  0  0  0  0  0  0  0
    6.2975   -7.0969   23.5635 H   0  0  0  0  0  0  0  0  0  0  0  0
    8.7269   -8.1892   23.3465 H   0  0  0  0  0  0  0  0  0  0  0  0
    8.0143   -8.8292   21.8639 H   0  0  0  0  0  0  0  0  0  0  0  0
    7.3096   -9.3252   23.3751 H   0  0  0  0  0  0  0  0  0  0  0  0
  1  2  1  0
  2  3  1  0
  3  4  2  0
  3  5  1  0
  5  6  1  0
  6  7  1  0
  8  7  1  6
  8  9  1  0
  9 10  2  0
  9 11  1  0
 11 12  1  0
 12 13  2  0
 13 14  1  0
 14 15  2  0
 15 16  1  0
 16 17  2  0
 17 18  1  0
 18 19  2  0
 19 20  1  0
 20 21  2  0
 20 22  1  0
 19 23  1  0
 18 24  1  0
 17 25  1  0
 15 26  1  0
 13 27  1  0
 11 28  1  0
 28 29  1  0
 29 30  1  0
 30 31  1  0
 31 32  1  0
 32 33  2  0
 33 34  1  0
 34 35  2  0
 35 36  1  0
 36 37  2  0
 36 38  1  0
 35 39  1  0
 33 40  1  0
 31 41  1  0
 30 42  1  0
 30 43  1  0
 29 44  1  1
 28 45  1  0
 28 46  1  0
  8 47  1  0
 47 48  2  0
 48 49  1  0
 49 50  1  0
 49 51  2  0
 51 52  1  0
 52 53  2  0
 53 54  1  0
 54 55  2  0
 52 56  1  0
 51 57  1  0
 48 58  1  0
  7 59  1  0
  7 60  1  0
  5 61  1  0
  5 62  1  0
  2 63  1  0
  1 64  1  0
  1 65  1  0
  1 66  1  0
 54  6  1  0
 29  8  1  0
 37 32  1  0
 53 47  1  0
 21 12  1  0
 21 16  1  0
M  END
>  <cnnaffinities>  (53) 
[7.39312, 7.59491]

>  <score>  (53) 
7.39312

>  <index>  (53) 
54

>  <Smiles>  (53) 
C(N(C(=O)C(N1C([C@@]2(C(=O)N(c3c(nc(c4c(c(c(c(c34)[H])[H])[H])[H])[H])[H])C([C@@]2(C(N(c2c(nc(c(n2)[H])[H])[H])[H])([H])[H])[H])([H])[H])c2c(c(Cl)c(c(c2C1=O)[H])[H])[H])([H])[H])([H])[H])[H])([H])([H])[H]

>  <h>  (53) 
<NA>

>  <Training>  (53) 
True

>  <Success>  (53) 
True

>  <enamine_searched>  (53) 
False

>  <enamine_id>  (53) 
nan

$$$$

     RDKit          3D

 56 61  0  0  0  0  0  0  0  0999 V2000
    5.5239    4.8262   21.4504 C   0  0  0  0  0  0  0  0  0  0  0  0
    6.5657    4.5796   22.4304 N   0  0  0  0  0  0  0  0  0  0  0  0
    7.7701    5.1817   22.5632 C   0  0  0  0  0  0  0  0  0  0  0  0
    8.4566    4.5008   23.5447 C   0  0  0  0  0  0  0  0  0  0  0  0
    7.5834    3.4638   23.9295 C   0  0  0  0  0  0  0  0  0  0  0  0
    7.7518    2.3384   24.9025 C   0  0  0  0  0  0  0  0  0  0  0  0
    8.6037    1.2426   24.4393 N   0  0  0  0  0  0  0  0  0  0  0  0
    7.9442   -0.0038   24.1196 C   0  0  0  0  0  0  0  0  0  0  0  0
    8.2792   -0.4918   22.7096 C   0  0  1  0  0  0  0  0  0  0  0  0
    7.6150   -1.8707   22.5087 C   0  0  0  0  0  0  0  0  0  0  0  0
    6.9095   -1.8259   21.1536 C   0  0  0  0  0  0  0  0  0  0  0  0
    6.7832   -0.4106   20.8968 N   0  0  0  0  0  0  0  0  0  0  0  0
    6.0832    0.1067   19.7960 C   0  0  0  0  0  0  0  0  0  0  0  0
    6.4278   -0.2327   18.5124 C   0  0  0  0  0  0  0  0  0  0  0  0
    5.7821    0.2226   17.4177 N   0  0  0  0  0  0  0  0  0  0  0  0
    4.7658    1.0315   17.6065 C   0  0  0  0  0  0  0  0  0  0  0  0
    4.3046    1.4450   18.8911 C   0  0  0  0  0  0  0  0  0  0  0  0
    3.1775    2.2901   19.0549 C   0  0  0  0  0  0  0  0  0  0  0  0
    2.7401    2.6312   20.3068 C   0  0  0  0  0  0  0  0  0  0  0  0
    3.4107    2.1574   21.4542 C   0  0  0  0  0  0  0  0  0  0  0  0
    4.5115    1.3478   21.3249 C   0  0  0  0  0  0  0  0  0  0  0  0
    4.9824    0.9742   20.0326 C   0  0  0  0  0  0  0  0  0  0  0  0
    5.0227    0.9915   22.2127 H   0  0  0  0  0  0  0  0  0  0  0  0
    3.0607    2.4434   22.4430 H   0  0  0  0  0  0  0  0  0  0  0  0
    1.8665    3.2631   20.4209 H   0  0  0  0  0  0  0  0  0  0  0  0
    2.6733    2.6464   18.1637 H   0  0  0  0  0  0  0  0  0  0  0  0
    4.2398    1.3892   16.7215 H   0  0  0  0  0  0  0  0  0  0  0  0
    7.2795   -0.8872   18.3282 H   0  0  0  0  0  0  0  0  0  0  0  0
    7.6790    0.3711   21.5862 C   0  0  0  0  0  0  0  0  0  0  0  0
    7.9444    1.5198   21.3104 O   0  0  0  0  0  0  0  0  0  0  0  0
    5.9214   -2.2931   21.1650 H   0  0  0  0  0  0  0  0  0  0  0  0
    7.5120   -2.3075   20.3831 H   0  0  0  0  0  0  0  0  0  0  0  0
    8.3563   -2.6696   22.5691 H   0  0  0  0  0  0  0  0  0  0  0  0
    6.8797   -2.0501   23.2997 H   0  0  0  0  0  0  0  0  0  0  0  0
    9.7721   -0.4819   22.5751 C   0  0  0  0  0  0  0  0  0  0  0  0
   10.3398   -1.2794   21.5937 C   0  0  0  0  0  0  0  0  0  0  0  0
   11.7129   -1.4140   21.5319 C   0  0  0  0  0  0  0  0  0  0  0  0
   12.3055   -2.5107   20.3224 Cl  0  0  0  0  0  0  0  0  0  0  0  0
   12.5439   -0.7406   22.4281 C   0  0  0  0  0  0  0  0  0  0  0  0
   11.9752    0.1650   23.3006 C   0  0  0  0  0  0  0  0  0  0  0  0
   10.5877    0.3193   23.3646 C   0  0  0  0  0  0  0  0  0  0  0  0
    9.9607    1.3843   24.2205 C   0  0  0  0  0  0  0  0  0  0  0  0
   10.6272    2.3136   24.6534 O   0  0  0  0  0  0  0  0  0  0  0  0
   12.5851    0.7797   23.9464 H   0  0  0  0  0  0  0  0  0  0  0  0
   13.6179   -0.8781   22.4178 H   0  0  0  0  0  0  0  0  0  0  0  0
    9.7268   -1.8225   20.8842 H   0  0  0  0  0  0  0  0  0  0  0  0
    8.2393   -0.7994   24.8184 H   0  0  0  0  0  0  0  0  0  0  0  0
    6.8620    0.1234   24.1927 H   0  0  0  0  0  0  0  0  0  0  0  0
    6.7476    1.9238   25.0311 H   0  0  0  0  0  0  0  0  0  0  0  0
    8.0626    2.6837   25.8861 H   0  0  0  0  0  0  0  0  0  0  0  0
    6.4347    3.5375   23.2662 N   0  0  0  0  0  0  0  0  0  0  0  0
    9.4497    4.6946   23.9253 H   0  0  0  0  0  0  0  0  0  0  0  0
    8.0534    6.0138   21.9261 H   0  0  0  0  0  0  0  0  0  0  0  0
    4.5532    4.8459   21.9572 H   0  0  0  0  0  0  0  0  0  0  0  0
    5.7005    5.7956   20.9790 H   0  0  0  0  0  0  0  0  0  0  0  0
    5.5151    4.0293   20.6926 H   0  0  0  0  0  0  0  0  0  0  0  0
  1  2  1  0
  2  3  1  0
  3  4  2  0
  4  5  1  0
  5  6  1  0
  6  7  1  0
  7  8  1  0
  9  8  1  1
  9 10  1  0
 10 11  1  0
 11 12  1  0
 12 13  1  0
 13 14  2  0
 14 15  1  0
 15 16  2  0
 16 17  1  0
 17 18  2  0
 18 19  1  0
 19 20  2  0
 20 21  1  0
 21 22  2  0
 21 23  1  0
 20 24  1  0
 19 25  1  0
 18 26  1  0
 16 27  1  0
 14 28  1  0
 12 29  1  0
 29 30  2  0
 11 31  1  0
 11 32  1  0
 10 33  1  0
 10 34  1  0
  9 35  1  0
 35 36  2  0
 36 37  1  0
 37 38  1  0
 37 39  2  0
 39 40  1  0
 40 41  2  0
 41 42  1  0
 42 43  2  0
 40 44  1  0
 39 45  1  0
 36 46  1  0
  8 47  1  0
  8 48  1  0
  6 49  1  0
  6 50  1  0
  5 51  2  0
  4 52  1  0
  3 53  1  0
  1 54  1  0
  1 55  1  0
  1 56  1  0
 51  2  1  0
 42  7  1  0
 29  9  1  0
 41 35  1  0
 22 13  1  0
 22 17  1  0
M  END
>  <cnnaffinities>  (54) 
[6.44403]

>  <score>  (54) 
6.44403

>  <index>  (54) 
55

>  <Smiles>  (54) 
C(n1c(c(c(C(N2C([C@]3(C(C(N(c4c(nc(c5c(c(c(c(c45)[H])[H])[H])[H])[H])[H])C3=O)([H])[H])([H])[H])c3c(c(Cl)c(c(c3C2=O)[H])[H])[H])([H])[H])([H])[H])n1)[H])[H])([H])([H])[H]

>  <h>  (54) 
<NA>

>  <Training>  (54) 
True

>  <Success>  (54) 
True

>  <enamine_searched>  (54) 
False

>  <enamine_id>  (54) 
nan

$$$$

     RDKit          3D

 41 43  0  0  0  0  0  0  0  0999 V2000
    8.3915    1.4759   20.6681 O   0  0  0  0  0  0  0  0  0  0  0  0
    7.9666    0.6278   21.4251 C   0  0  0  0  0  0  0  0  0  0  0  0
    6.9673   -0.4296   20.9091 C   0  0  0  0  0  0  0  0  0  0  0  0
    6.1115    0.0849   19.7715 C   0  0  0  0  0  0  0  0  0  0  0  0
    6.4257   -0.2077   18.4667 C   0  0  0  0  0  0  0  0  0  0  0  0
    5.7577    0.2420   17.3732 N   0  0  0  0  0  0  0  0  0  0  0  0
    4.7324    1.0322   17.5766 C   0  0  0  0  0  0  0  0  0  0  0  0
    4.2859    1.4254   18.8682 C   0  0  0  0  0  0  0  0  0  0  0  0
    3.1706    2.2838   19.0423 C   0  0  0  0  0  0  0  0  0  0  0  0
    2.7665    2.6498   20.2993 C   0  0  0  0  0  0  0  0  0  0  0  0
    3.4642    2.1696   21.4300 C   0  0  0  0  0  0  0  0  0  0  0  0
    4.5509    1.3369   21.2886 C   0  0  0  0  0  0  0  0  0  0  0  0
    4.9914    0.9403   19.9980 C   0  0  0  0  0  0  0  0  0  0  0  0
    5.0761    0.9849   22.1726 H   0  0  0  0  0  0  0  0  0  0  0  0
    3.1356    2.4673   22.4207 H   0  0  0  0  0  0  0  0  0  0  0  0
    1.9160    3.3121   20.4344 H   0  0  0  0  0  0  0  0  0  0  0  0
    2.6501    2.6527   18.1612 H   0  0  0  0  0  0  0  0  0  0  0  0
    4.1997    1.3996   16.6976 H   0  0  0  0  0  0  0  0  0  0  0  0
    7.2735   -0.8529   18.2426 H   0  0  0  0  0  0  0  0  0  0  0  0
    7.5530   -1.2851   20.5415 H   0  0  0  0  0  0  0  0  0  0  0  0
    6.3344   -0.8085   21.7230 H   0  0  0  0  0  0  0  0  0  0  0  0
    8.3524    0.5396   22.7705 N   0  0  0  0  0  0  0  0  0  0  0  0
    8.7822   -0.7551   23.3035 C   0  0  0  0  0  0  0  0  0  0  0  0
   10.0282   -1.3630   22.6252 C   0  0  0  0  0  0  0  0  0  0  0  0
   11.0905   -0.3406   22.2198 C   0  0  0  0  0  0  0  0  0  0  0  0
   11.5110    0.8877   23.4890 S   0  0  0  0  0  0  0  0  0  0  0  0
   10.2803    2.1535   23.0846 C   0  0  0  0  0  0  0  0  0  0  0  0
    8.8608    1.7280   23.4574 C   0  0  1  0  0  0  0  0  0  0  0  0
    7.8721    2.8918   23.3695 C   0  0  0  0  0  0  0  0  0  0  0  0
    6.6203    2.4748   23.6173 F   0  0  0  0  0  0  0  0  0  0  0  0
    8.1671    3.8234   24.3051 F   0  0  0  0  0  0  0  0  0  0  0  0
    7.8743    3.5138   22.1910 F   0  0  0  0  0  0  0  0  0  0  0  0
    8.8750    1.4820   24.5226 H   0  0  0  0  0  0  0  0  0  0  0  0
   10.5734    3.0567   23.6353 H   0  0  0  0  0  0  0  0  0  0  0  0
   10.3420    2.3646   22.0179 H   0  0  0  0  0  0  0  0  0  0  0  0
   12.0209   -0.8520   21.9500 H   0  0  0  0  0  0  0  0  0  0  0  0
   10.7659    0.2173   21.3397 H   0  0  0  0  0  0  0  0  0  0  0  0
    9.7295   -1.9197   21.7251 H   0  0  0  0  0  0  0  0  0  0  0  0
   10.4805   -2.0974   23.3032 H   0  0  0  0  0  0  0  0  0  0  0  0
    7.9476   -1.4573   23.2325 H   0  0  0  0  0  0  0  0  0  0  0  0
    8.9834   -0.6258   24.3704 H   0  0  0  0  0  0  0  0  0  0  0  0
  1  2  2  0
  2  3  1  0
  3  4  1  0
  4  5  2  0
  5  6  1  0
  6  7  2  0
  7  8  1  0
  8  9  2  0
  9 10  1  0
 10 11  2  0
 11 12  1  0
 12 13  2  0
 12 14  1  0
 11 15  1  0
 10 16  1  0
  9 17  1  0
  7 18  1  0
  5 19  1  0
  3 20  1  0
  3 21  1  0
  2 22  1  0
 22 23  1  0
 23 24  1  0
 24 25  1  0
 25 26  1  0
 26 27  1  0
 27 28  1  0
 28 29  1  0
 29 30  1  0
 29 31  1  0
 29 32  1  0
 28 33  1  1
 27 34  1  0
 27 35  1  0
 25 36  1  0
 25 37  1  0
 24 38  1  0
 24 39  1  0
 23 40  1  0
 23 41  1  0
 13  4  1  0
 28 22  1  0
 13  8  1  0
M  END
>  <cnnaffinities>  (55) 
[5.79573, 5.79854]

>  <score>  (55) 
5.79573

>  <index>  (55) 
56

>  <Smiles>  (55) 
O=C(C(c1c(nc(c2c(c(c(c(c12)[H])[H])[H])[H])[H])[H])([H])[H])N1C(C(C(SC([C@]1(C(F)(F)F)[H])([H])[H])([H])[H])([H])[H])([H])[H]

>  <h>  (55) 
<NA>

>  <Training>  (55) 
True

>  <Success>  (55) 
True

>  <enamine_searched>  (55) 
False

>  <enamine_id>  (55) 
nan

$$$$

     RDKit          3D

 67 72  0  0  0  0  0  0  0  0999 V2000
    6.1397    0.9570   28.7670 C   0  0  0  0  0  0  0  0  0  0  0  0
    6.1497    1.3652   27.3800 N   0  0  0  0  0  0  0  0  0  0  0  0
    5.2385    0.8868   26.5015 C   0  0  0  0  0  0  0  0  0  0  0  0
    4.2436    0.2682   26.8461 O   0  0  0  0  0  0  0  0  0  0  0  0
    5.4605    1.2483   25.0194 C   0  0  0  0  0  0  0  0  0  0  0  0
    6.6473    0.6876   24.3964 N   0  0  0  0  0  0  0  0  0  0  0  0
    6.4835   -0.5452   23.6370 C   0  0  0  0  0  0  0  0  0  0  0  0
    7.4768   -0.6980   22.4477 C   0  0  2  0  0  0  0  0  0  0  0  0
    6.9309   -0.0008   21.1912 C   0  0  0  0  0  0  0  0  0  0  0  0
    7.1341    1.1347   20.8294 O   0  0  0  0  0  0  0  0  0  0  0  0
    6.1489   -0.9108   20.5020 N   0  0  0  0  0  0  0  0  0  0  0  0
    5.3801   -0.4530   19.4106 C   0  0  0  0  0  0  0  0  0  0  0  0
    5.6246   -0.8533   18.1230 C   0  0  0  0  0  0  0  0  0  0  0  0
    5.0897   -0.2473   17.0379 N   0  0  0  0  0  0  0  0  0  0  0  0
    4.3005    0.7855   17.2309 C   0  0  0  0  0  0  0  0  0  0  0  0
    3.8819    1.2326   18.5156 C   0  0  0  0  0  0  0  0  0  0  0  0
    3.0172    2.3416   18.7182 C   0  0  0  0  0  0  0  0  0  0  0  0
    2.6134    2.6939   19.9815 C   0  0  0  0  0  0  0  0  0  0  0  0
    3.0301    1.9351   21.0992 C   0  0  0  0  0  0  0  0  0  0  0  0
    3.8738    0.8721   20.9271 C   0  0  0  0  0  0  0  0  0  0  0  0
    4.3780    0.5404   19.6388 C   0  0  0  0  0  0  0  0  0  0  0  0
    4.1832    0.2780   21.7799 H   0  0  0  0  0  0  0  0  0  0  0  0
    2.7061    2.2080   22.1005 H   0  0  0  0  0  0  0  0  0  0  0  0
    1.9729    3.5581   20.1319 H   0  0  0  0  0  0  0  0  0  0  0  0
    2.6865    2.9139   17.8564 H   0  0  0  0  0  0  0  0  0  0  0  0
    3.9579    1.3142   16.3418 H   0  0  0  0  0  0  0  0  0  0  0  0
    6.3209   -1.6681   17.9206 H   0  0  0  0  0  0  0  0  0  0  0  0
    6.2479   -2.2647   21.0275 C   0  0  0  0  0  0  0  0  0  0  0  0
    7.4977   -2.1649   21.9275 C   0  0  2  0  0  0  0  0  0  0  0  0
    7.6765   -3.2569   22.9999 C   0  0  0  0  0  0  0  0  0  0  0  0
    8.5057   -2.8706   24.1313 N   0  0  0  0  0  0  0  0  0  0  0  0
    9.8650   -2.9499   24.1711 C   0  0  0  0  0  0  0  0  0  0  0  0
   10.7185   -3.5126   23.2723 C   0  0  0  0  0  0  0  0  0  0  0  0
   12.0494   -3.4313   23.5776 N   0  0  0  0  0  0  0  0  0  0  0  0
   12.2406   -2.7878   24.6827 C   0  0  0  0  0  0  0  0  0  0  0  0
   13.5938   -2.4667   25.2202 C   0  0  0  0  0  0  0  0  0  0  0  0
   13.8629   -1.4298   24.9835 H   0  0  0  0  0  0  0  0  0  0  0  0
   13.6363   -2.5841   26.3043 H   0  0  0  0  0  0  0  0  0  0  0  0
   14.3210   -3.1223   24.7368 H   0  0  0  0  0  0  0  0  0  0  0  0
   10.7819   -2.2533   25.4804 S   0  0  0  0  0  0  0  0  0  0  0  0
   10.3921   -3.9389   22.3396 H   0  0  0  0  0  0  0  0  0  0  0  0
    8.1503   -2.1541   24.7502 H   0  0  0  0  0  0  0  0  0  0  0  0
    8.1132   -4.1489   22.5416 H   0  0  0  0  0  0  0  0  0  0  0  0
    6.6989   -3.5516   23.4006 H   0  0  0  0  0  0  0  0  0  0  0  0
    8.3500   -2.2217   21.2446 H   0  0  0  0  0  0  0  0  0  0  0  0
    5.3554   -2.5466   21.6026 H   0  0  0  0  0  0  0  0  0  0  0  0
    6.3503   -2.9843   20.2148 H   0  0  0  0  0  0  0  0  0  0  0  0
    8.8278   -0.1383   22.8118 C   0  0  0  0  0  0  0  0  0  0  0  0
    9.9352   -0.4538   22.0245 C   0  0  0  0  0  0  0  0  0  0  0  0
   11.2044   -0.1276   22.4561 C   0  0  0  0  0  0  0  0  0  0  0  0
   12.5167   -0.8351   21.5836 Cl  0  0  0  0  0  0  0  0  0  0  0  0
   11.4203    0.6884   23.5710 C   0  0  0  0  0  0  0  0  0  0  0  0
   10.3067    1.1392   24.2574 C   0  0  0  0  0  0  0  0  0  0  0  0
    9.0233    0.7323   23.8874 C   0  0  0  0  0  0  0  0  0  0  0  0
    7.8517    1.2721   24.6344 C   0  0  0  0  0  0  0  0  0  0  0  0
    7.9781    2.2298   25.4043 O   0  0  0  0  0  0  0  0  0  0  0  0
   10.4115    1.8088   25.1025 H   0  0  0  0  0  0  0  0  0  0  0  0
   12.4323    0.9748   23.8612 H   0  0  0  0  0  0  0  0  0  0  0  0
    9.8210   -0.9594   21.0699 H   0  0  0  0  0  0  0  0  0  0  0  0
    5.4624   -0.5568   23.2452 H   0  0  0  0  0  0  0  0  0  0  0  0
    6.5513   -1.4053   24.3118 H   0  0  0  0  0  0  0  0  0  0  0  0
    4.5937    0.8513   24.4914 H   0  0  0  0  0  0  0  0  0  0  0  0
    5.4945    2.3362   24.8778 H   0  0  0  0  0  0  0  0  0  0  0  0
    6.9809    1.8065   27.0108 H   0  0  0  0  0  0  0  0  0  0  0  0
    6.6757    0.0112   28.9117 H   0  0  0  0  0  0  0  0  0  0  0  0
    6.6202    1.7264   29.3780 H   0  0  0  0  0  0  0  0  0  0  0  0
    5.1076    0.8281   29.0982 H   0  0  0  0  0  0  0  0  0  0  0  0
  1  2  1  0
  2  3  1  0
  3  4  2  0
  3  5  1  0
  5  6  1  0
  6  7  1  0
  8  7  1  1
  8  9  1  0
  9 10  2  0
  9 11  1  0
 11 12  1  0
 12 13  2  0
 13 14  1  0
 14 15  2  0
 15 16  1  0
 16 17  2  0
 17 18  1  0
 18 19  2  0
 19 20  1  0
 20 21  2  0
 20 22  1  0
 19 23  1  0
 18 24  1  0
 17 25  1  0
 15 26  1  0
 13 27  1  0
 11 28  1  0
 28 29  1  0
 29 30  1  0
 30 31  1  0
 31 32  1  0
 32 33  2  0
 33 34  1  0
 34 35  2  0
 35 36  1  0
 36 37  1  0
 36 38  1  0
 36 39  1  0
 35 40  1  0
 33 41  1  0
 31 42  1  0
 30 43  1  0
 30 44  1  0
 29 45  1  6
 28 46  1  0
 28 47  1  0
  8 48  1  0
 48 49  2  0
 49 50  1  0
 50 51  1  0
 50 52  2  0
 52 53  1  0
 53 54  2  0
 54 55  1  0
 55 56  2  0
 53 57  1  0
 52 58  1  0
 49 59  1  0
  7 60  1  0
  7 61  1  0
  5 62  1  0
  5 63  1  0
  2 64  1  0
  1 65  1  0
  1 66  1  0
  1 67  1  0
 55  6  1  0
 29  8  1  0
 40 32  1  0
 54 48  1  0
 21 12  1  0
 21 16  1  0
M  END
>  <cnnaffinities>  (56) 
[6.83812]

>  <score>  (56) 
6.83812

>  <index>  (56) 
57

>  <Smiles>  (56) 
C(N(C(=O)C(N1C([C@@]2(C(=O)N(c3c(nc(c4c(c(c(c(c34)[H])[H])[H])[H])[H])[H])C([C@@]2(C(N(c2c(nc(C([H])([H])[H])s2)[H])[H])([H])[H])[H])([H])[H])c2c(c(Cl)c(c(c2C1=O)[H])[H])[H])([H])[H])([H])[H])[H])([H])([H])[H]

>  <h>  (56) 
<NA>

>  <Training>  (56) 
True

>  <Success>  (56) 
True

>  <enamine_searched>  (56) 
False

>  <enamine_id>  (56) 
nan

$$$$

     RDKit          3D

 57 62  0  0  0  0  0  0  0  0999 V2000
    7.4026   -2.9731   23.5520 C   0  0  0  0  0  0  0  0  0  0  0  0
    7.5485   -2.3509   22.1683 C   0  0  1  0  0  0  0  0  0  0  0  0
    6.2912   -1.5425   21.6835 C   0  0  0  0  0  0  0  0  0  0  0  0
    6.8587   -0.4680   20.8595 N   0  0  0  0  0  0  0  0  0  0  0  0
    6.1304    0.1054   19.7779 C   0  0  0  0  0  0  0  0  0  0  0  0
    6.4509   -0.2024   18.4774 C   0  0  0  0  0  0  0  0  0  0  0  0
    5.7737    0.2396   17.3914 N   0  0  0  0  0  0  0  0  0  0  0  0
    4.7453    1.0252   17.5861 C   0  0  0  0  0  0  0  0  0  0  0  0
    4.2923    1.4255   18.8750 C   0  0  0  0  0  0  0  0  0  0  0  0
    3.1733    2.2805   19.0531 C   0  0  0  0  0  0  0  0  0  0  0  0
    2.7771    2.6483   20.3089 C   0  0  0  0  0  0  0  0  0  0  0  0
    3.4790    2.1849   21.4451 C   0  0  0  0  0  0  0  0  0  0  0  0
    4.5668    1.3581   21.2978 C   0  0  0  0  0  0  0  0  0  0  0  0
    4.9967    0.9527   20.0095 C   0  0  0  0  0  0  0  0  0  0  0  0
    5.1232    1.0196   22.1668 H   0  0  0  0  0  0  0  0  0  0  0  0
    3.1676    2.4911   22.4378 H   0  0  0  0  0  0  0  0  0  0  0  0
    1.9275    3.3103   20.4440 H   0  0  0  0  0  0  0  0  0  0  0  0
    2.6545    2.6433   18.1684 H   0  0  0  0  0  0  0  0  0  0  0  0
    4.2117    1.3830   16.7033 H   0  0  0  0  0  0  0  0  0  0  0  0
    7.2907   -0.8565   18.2529 H   0  0  0  0  0  0  0  0  0  0  0  0
    8.2558   -0.3198   20.9798 C   0  0  0  0  0  0  0  0  0  0  0  0
    8.8631    0.6128   20.5475 O   0  0  0  0  0  0  0  0  0  0  0  0
    8.6528   -1.3073   22.0089 C   0  0  1  0  0  0  0  0  0  0  0  0
    9.2004   -0.5513   23.2344 C   0  0  0  0  0  0  0  0  0  0  0  0
    9.9314   -1.2688   24.2589 N   0  0  0  0  0  0  0  0  0  0  0  0
    9.8459   -0.9290   25.6644 C   0  0  0  0  0  0  0  0  0  0  0  0
    9.0925   -1.9766   26.4399 C   0  0  0  0  0  0  0  0  0  0  0  0
    7.8023   -1.7494   26.9059 C   0  0  0  0  0  0  0  0  0  0  0  0
    7.1926   -2.7911   27.5870 C   0  0  0  0  0  0  0  0  0  0  0  0
    7.7942   -3.9622   27.8077 N   0  0  0  0  0  0  0  0  0  0  0  0
    9.0337   -4.0641   27.3280 C   0  0  0  0  0  0  0  0  0  0  0  0
    9.7128   -3.1417   26.6550 N   0  0  0  0  0  0  0  0  0  0  0  0
    9.5359   -5.0133   27.4968 H   0  0  0  0  0  0  0  0  0  0  0  0
    6.1821   -2.6927   27.9767 H   0  0  0  0  0  0  0  0  0  0  0  0
    7.3064   -0.7929   26.7444 H   0  0  0  0  0  0  0  0  0  0  0  0
   10.8634   -0.8530   26.0557 H   0  0  0  0  0  0  0  0  0  0  0  0
    9.3587    0.0446   25.7447 H   0  0  0  0  0  0  0  0  0  0  0  0
   10.9552   -2.0390   23.8357 C   0  0  0  0  0  0  0  0  0  0  0  0
   11.8398   -2.4640   24.5868 O   0  0  0  0  0  0  0  0  0  0  0  0
   11.0299   -2.1970   22.4022 C   0  0  0  0  0  0  0  0  0  0  0  0
   12.3755   -2.3807   21.9718 C   0  0  0  0  0  0  0  0  0  0  0  0
   11.9097   -2.2620   20.6127 C   0  0  0  0  0  0  0  0  0  0  0  0
   12.3884   -3.0820   19.6320 C   0  0  0  0  0  0  0  0  0  0  0  0
   11.4858   -3.9781   19.1184 F   0  0  0  0  0  0  0  0  0  0  0  0
    9.9640   -2.2929   21.1744 C   0  0  0  0  0  0  0  0  0  0  0  0
    9.9623   -2.2922   21.1733 C   0  0  0  0  0  0  0  0  0  0  0  0
    9.1372   -1.9148   20.1684 H   0  0  0  0  0  0  0  0  0  0  0  0
   13.3993   -3.4737   19.6423 H   0  0  0  0  0  0  0  0  0  0  0  0
   13.1174   -3.0955   22.1867 H   0  0  0  0  0  0  0  0  0  0  0  0
    8.3034   -0.2152   23.7732 H   0  0  0  0  0  0  0  0  0  0  0  0
    9.6990    0.3835   22.9122 H   0  0  0  0  0  0  0  0  0  0  0  0
    5.6661   -1.1642   22.5092 H   0  0  0  0  0  0  0  0  0  0  0  0
    5.6311   -2.1716   21.0767 H   0  0  0  0  0  0  0  0  0  0  0  0
    7.6149   -3.1795   21.4608 H   0  0  0  0  0  0  0  0  0  0  0  0
    6.6256   -3.7362   23.5221 H   0  0  0  0  0  0  0  0  0  0  0  0
    8.3280   -3.4599   23.8798 H   0  0  0  0  0  0  0  0  0  0  0  0
    7.1183   -2.2421   24.3108 H   0  0  0  0  0  0  0  0  0  0  0  0
  1  2  1  0
  2  3  1  0
  3  4  1  0
  4  5  1  0
  5  6  2  0
  6  7  1  0
  7  8  2  0
  8  9  1  0
  9 10  2  0
 10 11  1  0
 11 12  2  0
 12 13  1  0
 13 14  2  0
 13 15  1  0
 12 16  1  0
 11 17  1  0
 10 18  1  0
  8 19  1  0
  6 20  1  0
  4 21  1  0
 21 22  2  0
 21 23  1  0
 23 24  1  1
 24 25  1  0
 25 26  1  0
 26 27  1  0
 27 28  2  0
 28 29  1  0
 29 30  2  0
 30 31  1  0
 31 32  2  0
 31 33  1  0
 29 34  1  0
 28 35  1  0
 26 36  1  0
 26 37  1  0
 25 38  1  0
 38 39  2  0
 38 40  1  0
 40 41  2  0
 41 42  1  0
 42 43  2  0
 43 44  1  0
 43 45  1  0
 45 46  2  0
 45 47  1  0
 42 48  1  0
 41 49  1  0
 24 50  1  0
 24 51  1  0
  3 52  1  0
  3 53  1  0
  2 54  1  6
  1 55  1  0
  1 56  1  0
  1 57  1  0
 23  2  1  0
 32 27  1  0
 46 40  1  0
 14  5  1  0
 46 23  1  0
 14  9  1  0
M  END
>  <cnnaffinities>  (57) 
[6.53228]

>  <score>  (57) 
6.53228

>  <index>  (57) 
58

>  <Smiles>  (57) 
C([C@]1(C(N(c2c(nc(c3c(c(c(c(c23)[H])[H])[H])[H])[H])[H])C(=O)[C@]21C(N(C(c1c(c(nc(n1)[H])[H])[H])([H])[H])C(=O)c1c(c(c(F)c(c21)[H])[H])[H])([H])[H])([H])[H])[H])([H])([H])[H]

>  <h>  (57) 
<NA>

>  <Training>  (57) 
True

>  <Success>  (57) 
True

>  <enamine_searched>  (57) 
False

>  <enamine_id>  (57) 
nan

$$$$

     RDKit          3D

 60 65  0  0  0  0  0  0  0  0999 V2000
   10.0429   -3.8526   23.7244 C   0  0  0  0  0  0  0  0  0  0  0  0
    8.8618   -3.1467   24.0084 O   0  0  0  0  0  0  0  0  0  0  0  0
    7.8638   -3.2443   23.0150 C   0  0  0  0  0  0  0  0  0  0  0  0
    7.9153   -2.0833   22.0181 C   0  0  1  0  0  0  0  0  0  0  0  0
    6.6813   -1.9792   21.0957 C   0  0  0  0  0  0  0  0  0  0  0  0
    6.7378   -0.5958   20.6470 N   0  0  0  0  0  0  0  0  0  0  0  0
    5.9742   -0.0198   19.6027 C   0  0  0  0  0  0  0  0  0  0  0  0
    6.2877   -0.2773   18.2918 C   0  0  0  0  0  0  0  0  0  0  0  0
    5.6481    0.2642   17.2281 N   0  0  0  0  0  0  0  0  0  0  0  0
    4.6552    1.0851   17.4637 C   0  0  0  0  0  0  0  0  0  0  0  0
    4.2042    1.4264   18.7719 C   0  0  0  0  0  0  0  0  0  0  0  0
    3.1119    2.3121   18.9824 C   0  0  0  0  0  0  0  0  0  0  0  0
    2.7099    2.6328   20.2502 C   0  0  0  0  0  0  0  0  0  0  0  0
    3.3922    2.0906   21.3627 C   0  0  0  0  0  0  0  0  0  0  0  0
    4.4501    1.2371   21.1864 C   0  0  0  0  0  0  0  0  0  0  0  0
    4.8852    0.8722   19.8802 C   0  0  0  0  0  0  0  0  0  0  0  0
    4.9767    0.8479   22.0522 H   0  0  0  0  0  0  0  0  0  0  0  0
    3.0800    2.3633   22.3670 H   0  0  0  0  0  0  0  0  0  0  0  0
    1.8749    3.3093   20.4115 H   0  0  0  0  0  0  0  0  0  0  0  0
    2.6101    2.7368   18.1156 H   0  0  0  0  0  0  0  0  0  0  0  0
    4.1580    1.5254   16.5982 H   0  0  0  0  0  0  0  0  0  0  0  0
    7.1229   -0.9377   18.0669 H   0  0  0  0  0  0  0  0  0  0  0  0
    7.5684    0.1895   21.4183 C   0  0  0  0  0  0  0  0  0  0  0  0
    7.8637    1.3342   21.1500 O   0  0  0  0  0  0  0  0  0  0  0  0
    8.0210   -0.6549   22.6330 C   0  0  1  0  0  0  0  0  0  0  0  0
    6.9846   -0.4770   23.7853 C   0  0  0  0  0  0  0  0  0  0  0  0
    7.0047    0.8663   24.3428 N   0  0  0  0  0  0  0  0  0  0  0  0
    5.8095    1.4362   24.9402 C   0  0  0  0  0  0  0  0  0  0  0  0
    5.6048    1.0835   26.3889 C   0  0  0  0  0  0  0  0  0  0  0  0
    5.8809    1.8545   27.4117 N   0  0  0  0  0  0  0  0  0  0  0  0
    5.6029    1.1067   28.5348 C   0  0  0  0  0  0  0  0  0  0  0  0
    5.1140   -0.1214   28.1817 C   0  0  0  0  0  0  0  0  0  0  0  0
    5.1169   -0.1233   26.8026 N   0  0  0  0  0  0  0  0  0  0  0  0
    4.8566   -0.8947   26.2109 H   0  0  0  0  0  0  0  0  0  0  0  0
    4.8134   -0.9851   28.7572 H   0  0  0  0  0  0  0  0  0  0  0  0
    5.8091    1.4809   29.5320 H   0  0  0  0  0  0  0  0  0  0  0  0
    5.9191    2.5206   24.8696 H   0  0  0  0  0  0  0  0  0  0  0  0
    4.9328    1.1213   24.3622 H   0  0  0  0  0  0  0  0  0  0  0  0
    8.1596    1.5851   24.4708 C   0  0  0  0  0  0  0  0  0  0  0  0
    8.1730    2.7394   24.8813 O   0  0  0  0  0  0  0  0  0  0  0  0
    9.4044    0.8614   24.0773 C   0  0  0  0  0  0  0  0  0  0  0  0
   10.6038    1.3325   24.5903 C   0  0  0  0  0  0  0  0  0  0  0  0
   11.8027    0.7692   24.2160 C   0  0  0  0  0  0  0  0  0  0  0  0
   11.7742   -0.2700   23.2914 C   0  0  0  0  0  0  0  0  0  0  0  0
   13.2868   -0.9957   22.8374 Cl  0  0  0  0  0  0  0  0  0  0  0  0
   10.5881   -0.7417   22.7490 C   0  0  0  0  0  0  0  0  0  0  0  0
    9.3650   -0.2074   23.1716 C   0  0  0  0  0  0  0  0  0  0  0  0
   10.6162   -1.5329   22.0099 H   0  0  0  0  0  0  0  0  0  0  0  0
   12.7536    1.1132   24.6062 H   0  0  0  0  0  0  0  0  0  0  0  0
   10.5708    2.1733   25.2627 H   0  0  0  0  0  0  0  0  0  0  0  0
    5.9789   -0.7008   23.4112 H   0  0  0  0  0  0  0  0  0  0  0  0
    7.2125   -1.2034   24.5717 H   0  0  0  0  0  0  0  0  0  0  0  0
    6.6737   -2.6555   20.2397 H   0  0  0  0  0  0  0  0  0  0  0  0
    5.7646   -2.1799   21.6689 H   0  0  0  0  0  0  0  0  0  0  0  0
    8.7915   -2.2141   21.3778 H   0  0  0  0  0  0  0  0  0  0  0  0
    6.9068   -3.2224   23.5468 H   0  0  0  0  0  0  0  0  0  0  0  0
    7.9223   -4.2175   22.5009 H   0  0  0  0  0  0  0  0  0  0  0  0
    9.8554   -4.9329   23.7227 H   0  0  0  0  0  0  0  0  0  0  0  0
   10.4824   -3.5765   22.7555 H   0  0  0  0  0  0  0  0  0  0  0  0
   10.7613   -3.6173   24.5135 H   0  0  0  0  0  0  0  0  0  0  0  0
  1  2  1  0
  2  3  1  0
  3  4  1  0
  4  5  1  0
  5  6  1  0
  6  7  1  0
  7  8  2  0
  8  9  1  0
  9 10  2  0
 10 11  1  0
 11 12  2  0
 12 13  1  0
 13 14  2  0
 14 15  1  0
 15 16  2  0
 15 17  1  0
 14 18  1  0
 13 19  1  0
 12 20  1  0
 10 21  1  0
  8 22  1  0
  6 23  1  0
 23 24  2  0
 23 25  1  0
 25 26  1  1
 26 27  1  0
 27 28  1  0
 28 29  1  0
 29 30  2  0
 30 31  1  0
 31 32  2  0
 32 33  1  0
 33 34  1  0
 32 35  1  0
 31 36  1  0
 28 37  1  0
 28 38  1  0
 27 39  1  0
 39 40  2  0
 39 41  1  0
 41 42  2  0
 42 43  1  0
 43 44  2  0
 44 45  1  0
 44 46  1  0
 46 47  2  0
 46 48  1  0
 43 49  1  0
 42 50  1  0
 26 51  1  0
 26 52  1  0
  5 53  1  0
  5 54  1  0
  4 55  1  6
  3 56  1  0
  3 57  1  0
  1 58  1  0
  1 59  1  0
  1 60  1  0
 25  4  1  0
 33 29  1  0
 47 41  1  0
 16  7  1  0
 47 25  1  0
 16 11  1  0
M  END
>  <cnnaffinities>  (58) 
[5.94654]

>  <score>  (58) 
5.94654

>  <index>  (58) 
59

>  <Smiles>  (58) 
C(OC([C@]1(C(N(c2c(nc(c3c(c(c(c(c23)[H])[H])[H])[H])[H])[H])C(=O)[C@]21C(N(C(c1nc(c(n1[H])[H])[H])([H])[H])C(=O)c1c(c(c(Cl)c(c21)[H])[H])[H])([H])[H])([H])[H])[H])([H])[H])([H])([H])[H]

>  <h>  (58) 
<NA>

>  <Training>  (58) 
True

>  <Success>  (58) 
True

>  <enamine_searched>  (58) 
False

>  <enamine_id>  (58) 
nan

$$$$

     RDKit          3D

 38 41  0  0  0  0  0  0  0  0999 V2000
    7.8608    1.7428   21.1741 O   0  0  0  0  0  0  0  0  0  0  0  0
    8.0108    0.5589   21.4157 C   0  0  0  0  0  0  0  0  0  0  0  0
    6.9703   -0.4691   20.8967 C   0  0  0  0  0  0  0  0  0  0  0  0
    6.1150    0.0814   19.7747 C   0  0  0  0  0  0  0  0  0  0  0  0
    6.4240   -0.2087   18.4703 C   0  0  0  0  0  0  0  0  0  0  0  0
    5.7596    0.2438   17.3766 N   0  0  0  0  0  0  0  0  0  0  0  0
    4.7333    1.0323   17.5786 C   0  0  0  0  0  0  0  0  0  0  0  0
    4.2880    1.4251   18.8702 C   0  0  0  0  0  0  0  0  0  0  0  0
    3.1689    2.2820   19.0425 C   0  0  0  0  0  0  0  0  0  0  0  0
    2.7662    2.6518   20.2979 C   0  0  0  0  0  0  0  0  0  0  0  0
    3.4675    2.1796   21.4289 C   0  0  0  0  0  0  0  0  0  0  0  0
    4.5527    1.3481   21.2867 C   0  0  0  0  0  0  0  0  0  0  0  0
    4.9969    0.9455   19.9995 C   0  0  0  0  0  0  0  0  0  0  0  0
    5.0929    1.0129   22.1650 H   0  0  0  0  0  0  0  0  0  0  0  0
    3.1460    2.4838   22.4199 H   0  0  0  0  0  0  0  0  0  0  0  0
    1.9140    3.3123   20.4315 H   0  0  0  0  0  0  0  0  0  0  0  0
    2.6467    2.6473   18.1605 H   0  0  0  0  0  0  0  0  0  0  0  0
    4.1999    1.3990   16.6990 H   0  0  0  0  0  0  0  0  0  0  0  0
    7.2706   -0.8548   18.2435 H   0  0  0  0  0  0  0  0  0  0  0  0
    6.3245   -0.7870   21.7265 H   0  0  0  0  0  0  0  0  0  0  0  0
    7.4810   -1.3736   20.5354 H   0  0  0  0  0  0  0  0  0  0  0  0
    9.1033    0.1053   22.1293 N   0  0  0  0  0  0  0  0  0  0  0  0
   10.3170    0.9277   22.1915 C   0  0  0  0  0  0  0  0  0  0  0  0
   10.8651    1.0254   23.6127 C   0  0  0  0  0  0  0  0  0  0  0  0
   10.9267   -0.3392   24.2245 C   0  0  0  0  0  0  0  0  0  0  0  0
   11.9151   -0.7816   25.5764 S   0  0  0  0  0  0  0  0  0  0  0  0
   11.2725   -2.3842   25.5680 C   0  0  0  0  0  0  0  0  0  0  0  0
   10.3563   -2.5617   24.5733 C   0  0  0  0  0  0  0  0  0  0  0  0
   10.1610   -1.3776   23.7970 C   0  0  0  0  0  0  0  0  0  0  0  0
    9.2125   -1.2560   22.6322 C   0  0  0  0  0  0  0  0  0  0  0  0
    9.5243   -1.9670   21.8509 H   0  0  0  0  0  0  0  0  0  0  0  0
    8.2312   -1.6041   22.9694 H   0  0  0  0  0  0  0  0  0  0  0  0
    9.8388   -3.5025   24.4013 H   0  0  0  0  0  0  0  0  0  0  0  0
   11.6047   -3.1085   26.3010 H   0  0  0  0  0  0  0  0  0  0  0  0
   10.2082    1.6629   24.2157 H   0  0  0  0  0  0  0  0  0  0  0  0
   11.8485    1.5072   23.6136 H   0  0  0  0  0  0  0  0  0  0  0  0
   11.0929    0.4943   21.5463 H   0  0  0  0  0  0  0  0  0  0  0  0
   10.0858    1.9210   21.8049 H   0  0  0  0  0  0  0  0  0  0  0  0
  1  2  2  0
  2  3  1  0
  3  4  1  0
  4  5  2  0
  5  6  1  0
  6  7  2  0
  7  8  1  0
  8  9  2  0
  9 10  1  0
 10 11  2  0
 11 12  1  0
 12 13  2  0
 12 14  1  0
 11 15  1  0
 10 16  1  0
  9 17  1  0
  7 18  1  0
  5 19  1  0
  3 20  1  0
  3 21  1  0
  2 22  1  0
 22 23  1  0
 23 24  1  0
 24 25  1  0
 25 26  1  0
 26 27  1  0
 27 28  2  0
 28 29  1  0
 29 30  1  0
 30 31  1  0
 30 32  1  0
 28 33  1  0
 27 34  1  0
 24 35  1  0
 24 36  1  0
 23 37  1  0
 23 38  1  0
 13  4  1  0
 30 22  1  0
 13  8  1  0
 29 25  2  0
M  END
>  <cnnaffinities>  (59) 
[5.74601]

>  <score>  (59) 
5.74601

>  <index>  (59) 
60

>  <Smiles>  (59) 
O=C(C(c1c(nc(c2c(c(c(c(c12)[H])[H])[H])[H])[H])[H])([H])[H])N1C(C(c2sc(c(c2C1([H])[H])[H])[H])([H])[H])([H])[H]

>  <h>  (59) 
<NA>

>  <Training>  (59) 
True

>  <Success>  (59) 
True

>  <enamine_searched>  (59) 
False

>  <enamine_id>  (59) 
nan

$$$$

     RDKit          3D

 64 70  0  0  0  0  0  0  0  0999 V2000
    8.4325   -0.2580   22.7083 O   0  0  0  0  0  0  0  0  0  0  0  0
    9.0488    1.7590   24.7735 C   0  0  0  0  0  0  0  0  0  0  0  0
   10.0719    0.9362   24.1066 C   0  0  0  0  0  0  0  0  0  0  0  0
   11.5262    1.1431   24.3023 C   0  0  0  0  0  0  0  0  0  0  0  0
   12.5049    0.5965   23.7229 C   0  0  0  0  0  0  0  0  0  0  0  0
   11.9939   -0.4107   22.4424 C   0  0  0  0  0  0  0  0  0  0  0  0
   11.9938   -0.4106   22.4424 Cl  0  0  0  0  0  0  0  0  0  0  0  0
   10.5672   -0.7880   22.2597 C   0  0  0  0  0  0  0  0  0  0  0  0
    9.7342   -0.0577   23.1363 C   0  0  0  0  0  0  0  0  0  0  0  0
    8.3494   -0.3957   22.7641 C   0  0  1  0  0  0  0  0  0  0  0  0
    7.2182    0.0875   24.3751 C   0  0  0  0  0  0  0  0  0  0  0  0
    7.7338    1.4767   24.5316 N   0  0  0  0  0  0  0  0  0  0  0  0
    6.6439    2.3840   24.7339 C   0  0  0  0  0  0  0  0  0  0  0  0
    5.8147    2.0005   25.9281 C   0  0  0  0  0  0  0  0  0  0  0  0
    6.2733    2.2081   27.1986 C   0  0  0  0  0  0  0  0  0  0  0  0
    5.5602    1.8131   28.3116 C   0  0  0  0  0  0  0  0  0  0  0  0
    4.3775    1.2322   28.1559 N   0  0  0  0  0  0  0  0  0  0  0  0
    3.9052    1.0183   26.9334 N   0  0  0  0  0  0  0  0  0  0  0  0
    4.5904    1.3758   25.8502 C   0  0  0  0  0  0  0  0  0  0  0  0
    4.1694    1.1721   24.8638 H   0  0  0  0  0  0  0  0  0  0  0  0
    5.9539    1.9980   29.3223 H   0  0  0  0  0  0  0  0  0  0  0  0
    7.1086    2.8362   27.2831 H   0  0  0  0  0  0  0  0  0  0  0  0
    7.0878    3.3673   24.8652 H   0  0  0  0  0  0  0  0  0  0  0  0
    6.0124    2.4257   23.8361 H   0  0  0  0  0  0  0  0  0  0  0  0
    6.2260   -0.0620   23.9158 H   0  0  0  0  0  0  0  0  0  0  0  0
    7.6162   -0.6489   25.0629 H   0  0  0  0  0  0  0  0  0  0  0  0
    7.7661    0.3829   21.6598 C   0  0  0  0  0  0  0  0  0  0  0  0
    7.9714    1.5484   21.4325 O   0  0  0  0  0  0  0  0  0  0  0  0
    6.9100   -0.4229   20.8436 N   0  0  0  0  0  0  0  0  0  0  0  0
    6.1222    0.0971   19.7653 C   0  0  0  0  0  0  0  0  0  0  0  0
    6.4280   -0.2168   18.4647 C   0  0  0  0  0  0  0  0  0  0  0  0
    5.7560    0.2392   17.3762 N   0  0  0  0  0  0  0  0  0  0  0  0
    4.7336    1.0334   17.5746 C   0  0  0  0  0  0  0  0  0  0  0  0
    4.2847    1.4269   18.8665 C   0  0  0  0  0  0  0  0  0  0  0  0
    3.1602    2.2796   19.0517 C   0  0  0  0  0  0  0  0  0  0  0  0
    2.7540    2.6177   20.3122 C   0  0  0  0  0  0  0  0  0  0  0  0
    3.4390    2.1208   21.4426 C   0  0  0  0  0  0  0  0  0  0  0  0
    4.5241    1.2987   21.2916 C   0  0  0  0  0  0  0  0  0  0  0  0
    4.9833    0.9390   19.9949 C   0  0  0  0  0  0  0  0  0  0  0  0
    5.0459    0.9038   22.1608 H   0  0  0  0  0  0  0  0  0  0  0  0
    3.0993    2.3919   22.4372 H   0  0  0  0  0  0  0  0  0  0  0  0
    1.8974    3.2681   20.4558 H   0  0  0  0  0  0  0  0  0  0  0  0
    2.6330    2.6537   18.1765 H   0  0  0  0  0  0  0  0  0  0  0  0
    4.1924    1.4033   16.7013 H   0  0  0  0  0  0  0  0  0  0  0  0
    7.2800   -0.8653   18.2676 H   0  0  0  0  0  0  0  0  0  0  0  0
    6.6503   -1.7811   21.3834 C   0  0  0  0  0  0  0  0  0  0  0  0
    7.7465   -2.1277   22.3594 C   0  0  2  0  0  0  0  0  0  0  0  0
    7.5725   -2.9751   23.5800 C   0  0  0  0  0  0  0  0  0  0  0  0
    6.2341   -2.8943   24.1358 N   0  0  0  0  0  0  0  0  0  0  0  0
    5.1596   -3.6498   23.7151 C   0  0  0  0  0  0  0  0  0  0  0  0
    3.9714   -3.6302   24.2520 N   0  0  0  0  0  0  0  0  0  0  0  0
    3.0659   -4.4663   23.6362 N   0  0  0  0  0  0  0  0  0  0  0  0
    3.5712   -5.1228   22.6504 C   0  0  0  0  0  0  0  0  0  0  0  0
    5.2539   -4.7724   22.3583 S   0  0  0  0  0  0  0  0  0  0  0  0
    3.0246   -5.8417   22.0411 H   0  0  0  0  0  0  0  0  0  0  0  0
    6.1064   -2.3803   24.9979 H   0  0  0  0  0  0  0  0  0  0  0  0
    7.7808   -3.9552   23.1792 H   0  0  0  0  0  0  0  0  0  0  0  0
    8.3314   -2.7892   24.3628 H   0  0  0  0  0  0  0  0  0  0  0  0
    8.6628   -2.3904   21.8368 H   0  0  0  0  0  0  0  0  0  0  0  0
    6.7527   -2.5251   20.6117 H   0  0  0  0  0  0  0  0  0  0  0  0
    5.6891   -1.7972   21.8780 H   0  0  0  0  0  0  0  0  0  0  0  0
   10.4365   -1.5092   21.3781 H   0  0  0  0  0  0  0  0  0  0  0  0
   13.5932    0.6848   23.7234 H   0  0  0  0  0  0  0  0  0  0  0  0
   11.7648    1.8949   25.0031 H   0  0  0  0  0  0  0  0  0  0  0  0
  1  2  2  0
  2  3  1  0
  3  4  2  0
  4  5  1  0
  5  6  2  0
  6  7  1  0
  6  8  1  0
  8  9  2  0
  9 10  1  0
 10 11  1  1
 11 12  1  0
 12 13  1  0
 13 14  1  0
 14 15  2  0
 15 16  1  0
 16 17  2  0
 17 18  1  0
 18 19  2  0
 19 20  1  0
 16 21  1  0
 15 22  1  0
 13 23  1  0
 13 24  1  0
 11 25  1  0
 11 26  1  0
 10 27  1  0
 27 28  2  0
 27 29  1  0
 29 30  1  0
 30 31  2  0
 31 32  1  0
 32 33  2  0
 33 34  1  0
 34 35  2  0
 35 36  1  0
 36 37  2  0
 37 38  1  0
 38 39  2  0
 38 40  1  0
 37 41  1  0
 36 42  1  0
 35 43  1  0
 33 44  1  0
 31 45  1  0
 29 46  1  0
 46 47  1  0
 47 48  1  0
 48 49  1  0
 49 50  1  0
 50 51  2  0
 51 52  1  0
 52 53  2  0
 53 54  1  0
 53 55  1  0
 49 56  1  0
 48 57  1  0
 48 58  1  0
 47 59  1  6
 46 60  1  0
 46 61  1  0
  8 62  1  0
  5 63  1  0
  4 64  1  0
 12  2  1  0
 19 14  1  0
 39 30  1  0
 54 50  1  0
  9  3  1  0
 47 10  1  0
 39 34  1  0
M  END
>  <cnnaffinities>  (60) 
[6.29324]

>  <score>  (60) 
6.29324

>  <index>  (60) 
61

>  <Smiles>  (60) 
O=C1c2c(c(c(Cl)c(c2[C@@]2(C(N1C(c1c(c(nnc1[H])[H])[H])([H])[H])([H])[H])C(=O)N(c1c(nc(c3c(c(c(c(c13)[H])[H])[H])[H])[H])[H])C([C@@]2(C(N(c1nnc(s1)[H])[H])([H])[H])[H])([H])[H])[H])[H])[H]

>  <h>  (60) 
<NA>

>  <Training>  (60) 
True

>  <Success>  (60) 
True

>  <enamine_searched>  (60) 
False

>  <enamine_id>  (60) 
nan

$$$$

     RDKit          3D

 70 76  0  0  0  0  0  0  0  0999 V2000
    9.7402   -1.9285   21.8708 C   0  0  0  0  0  0  0  0  0  0  0  0
    8.6623   -0.9313   22.3248 C   0  0  1  0  0  0  0  0  0  0  0  0
    8.2230   -0.0532   21.1346 C   0  0  0  0  0  0  0  0  0  0  0  0
    6.8743   -0.4736   20.8399 N   0  0  0  0  0  0  0  0  0  0  0  0
    6.1090    0.0663   19.7827 C   0  0  0  0  0  0  0  0  0  0  0  0
    6.4546   -0.2180   18.4844 C   0  0  0  0  0  0  0  0  0  0  0  0
    5.7863    0.2354   17.4012 N   0  0  0  0  0  0  0  0  0  0  0  0
    4.7560    1.0187   17.6084 C   0  0  0  0  0  0  0  0  0  0  0  0
    4.3054    1.4076   18.9031 C   0  0  0  0  0  0  0  0  0  0  0  0
    3.1918    2.2726   19.0615 C   0  0  0  0  0  0  0  0  0  0  0  0
    2.7885    2.6599   20.3099 C   0  0  0  0  0  0  0  0  0  0  0  0
    3.4852    2.2056   21.4532 C   0  0  0  0  0  0  0  0  0  0  0  0
    4.5678    1.3685   21.3309 C   0  0  0  0  0  0  0  0  0  0  0  0
    4.9959    0.9324   20.0377 C   0  0  0  0  0  0  0  0  0  0  0  0
    5.0998    1.0445   22.2257 H   0  0  0  0  0  0  0  0  0  0  0  0
    3.1607    2.5272   22.4392 H   0  0  0  0  0  0  0  0  0  0  0  0
    1.9350    3.3221   20.4317 H   0  0  0  0  0  0  0  0  0  0  0  0
    2.6858    2.6283   18.1690 H   0  0  0  0  0  0  0  0  0  0  0  0
    4.2235    1.3886   16.7324 H   0  0  0  0  0  0  0  0  0  0  0  0
    7.3027   -0.8739   18.2840 H   0  0  0  0  0  0  0  0  0  0  0  0
    6.3424   -1.3612   21.7381 C   0  0  0  0  0  0  0  0  0  0  0  0
    5.2546   -1.8839   21.6175 O   0  0  0  0  0  0  0  0  0  0  0  0
    7.3474   -1.5517   22.8888 C   0  0  1  0  0  0  0  0  0  0  0  0
    7.4840   -3.0422   23.2295 C   0  0  0  0  0  0  0  0  0  0  0  0
    6.2961   -3.5528   23.8749 N   0  0  0  0  0  0  0  0  0  0  0  0
    5.7635   -4.8205   23.4460 C   0  0  0  0  0  0  0  0  0  0  0  0
    6.4826   -5.9746   24.1332 C   0  0  0  0  0  0  0  0  0  0  0  0
    5.8891   -7.3137   23.8076 N   0  0  2  0  0  4  0  0  0  0  0  0
    5.8859   -7.5721   22.3284 C   0  0  0  0  0  0  0  0  0  0  0  0
    4.4421   -7.3553   21.8517 C   0  0  0  0  0  0  0  0  0  0  0  0
    3.5224   -7.4930   23.0783 C   0  0  0  0  0  0  0  0  0  0  0  0
    2.3785   -8.5475   23.1288 C   0  0  0  0  0  0  0  0  0  0  0  0
    1.3707   -7.5539   22.9268 O   0  0  0  0  0  0  0  0  0  0  0  0
    2.3320   -6.5109   23.0733 C   0  0  0  0  0  0  0  0  0  0  0  0
    2.1842   -5.9720   24.0155 H   0  0  0  0  0  0  0  0  0  0  0  0
    2.2817   -5.7948   22.2419 H   0  0  0  0  0  0  0  0  0  0  0  0
    2.2232   -8.9940   24.1191 H   0  0  0  0  0  0  0  0  0  0  0  0
    2.3283   -9.3426   22.3744 H   0  0  0  0  0  0  0  0  0  0  0  0
    4.4685   -7.5119   24.2893 C   0  0  0  0  0  0  0  0  0  0  0  0
    4.4410   -8.4780   24.7945 H   0  0  0  0  0  0  0  0  0  0  0  0
    4.2330   -6.7346   25.0205 H   0  0  0  0  0  0  0  0  0  0  0  0
    4.3859   -6.3311   21.4805 H   0  0  0  0  0  0  0  0  0  0  0  0
    4.1629   -8.0253   21.0292 H   0  0  0  0  0  0  0  0  0  0  0  0
    6.5923   -6.8969   21.8592 H   0  0  0  0  0  0  0  0  0  0  0  0
    6.2590   -8.5769   22.1482 H   0  0  0  0  0  0  0  0  0  0  0  0
    6.4923   -8.0008   24.2688 H   0  0  0  0  0  0  0  0  0  0  0  0
    7.5351   -5.9828   23.8293 H   0  0  0  0  0  0  0  0  0  0  0  0
    6.4606   -5.8366   25.2150 H   0  0  0  0  0  0  0  0  0  0  0  0
    5.8817   -4.8532   22.3560 H   0  0  0  0  0  0  0  0  0  0  0  0
    4.6941   -4.8133   23.6744 H   0  0  0  0  0  0  0  0  0  0  0  0
    5.7409   -2.9517   24.9561 C   0  0  0  0  0  0  0  0  0  0  0  0
    4.9753   -3.5315   25.7192 O   0  0  0  0  0  0  0  0  0  0  0  0
    6.0968   -1.5095   25.1130 C   0  0  0  0  0  0  0  0  0  0  0  0
    5.6135   -0.8565   26.2427 C   0  0  0  0  0  0  0  0  0  0  0  0
    5.8326    0.4973   26.4072 C   0  0  0  0  0  0  0  0  0  0  0  0
    6.5295    1.1873   25.4153 C   0  0  0  0  0  0  0  0  0  0  0  0
    6.7767    2.9062   25.5883 Cl  0  0  0  0  0  0  0  0  0  0  0  0
    7.0237    0.5457   24.2900 C   0  0  0  0  0  0  0  0  0  0  0  0
    6.8348   -0.8327   24.1339 C   0  0  0  0  0  0  0  0  0  0  0  0
    7.5560    1.1312   23.5447 H   0  0  0  0  0  0  0  0  0  0  0  0
    5.4589    1.0327   27.2729 H   0  0  0  0  0  0  0  0  0  0  0  0
    5.0555   -1.4464   26.9641 H   0  0  0  0  0  0  0  0  0  0  0  0
    8.3523   -3.1737   23.8899 H   0  0  0  0  0  0  0  0  0  0  0  0
    7.6435   -3.6160   22.3148 H   0  0  0  0  0  0  0  0  0  0  0  0
    8.2553    1.0212   21.3556 H   0  0  0  0  0  0  0  0  0  0  0  0
    8.8697   -0.2240   20.2748 H   0  0  0  0  0  0  0  0  0  0  0  0
    9.1235   -0.3233   23.1095 H   0  0  0  0  0  0  0  0  0  0  0  0
   10.6032   -1.3908   21.4614 H   0  0  0  0  0  0  0  0  0  0  0  0
   10.1088   -2.5418   22.6982 H   0  0  0  0  0  0  0  0  0  0  0  0
    9.3674   -2.5961   21.0862 H   0  0  0  0  0  0  0  0  0  0  0  0
  1  2  1  0
  2  3  1  0
  3  4  1  0
  4  5  1  0
  5  6  2  0
  6  7  1  0
  7  8  2  0
  8  9  1  0
  9 10  2  0
 10 11  1  0
 11 12  2  0
 12 13  1  0
 13 14  2  0
 13 15  1  0
 12 16  1  0
 11 17  1  0
 10 18  1  0
  8 19  1  0
  6 20  1  0
  4 21  1  0
 21 22  2  0
 21 23  1  0
 23 24  1  1
 24 25  1  0
 25 26  1  0
 26 27  1  0
 27 28  1  0
 28 29  1  0
 29 30  1  0
 30 31  1  0
 31 32  1  0
 32 33  1  0
 33 34  1  0
 34 35  1  0
 34 36  1  0
 32 37  1  0
 32 38  1  0
 31 39  1  0
 39 40  1  0
 39 41  1  0
 30 42  1  0
 30 43  1  0
 29 44  1  0
 29 45  1  0
 28 46  1  1
 27 47  1  0
 27 48  1  0
 26 49  1  0
 26 50  1  0
 25 51  1  0
 51 52  2  0
 51 53  1  0
 53 54  2  0
 54 55  1  0
 55 56  2  0
 56 57  1  0
 56 58  1  0
 58 59  2  0
 58 60  1  0
 55 61  1  0
 54 62  1  0
 24 63  1  0
 24 64  1  0
  3 65  1  0
  3 66  1  0
  2 67  1  1
  1 68  1  0
  1 69  1  0
  1 70  1  0
 23  2  1  0
 39 28  1  0
 59 53  1  0
 14  5  1  0
 59 23  1  0
 14  9  1  0
 34 31  1  0
M  CHG  1  28   1
M  END
>  <cnnaffinities>  (61) 
[6.61511]

>  <score>  (61) 
6.61511

>  <index>  (61) 
62

>  <Smiles>  (61) 
C([C@]1(C(N(c2c(nc(c3c(c(c(c(c23)[H])[H])[H])[H])[H])[H])C(=O)[C@]21C(N(C(C([N@@+]1(C(C(C3(C(OC3([H])[H])([H])[H])C1([H])[H])([H])[H])([H])[H])[H])([H])[H])([H])[H])C(=O)c1c(c(c(Cl)c(c21)[H])[H])[H])([H])[H])([H])[H])[H])([H])([H])[H]

>  <h>  (61) 
<NA>

>  <Training>  (61) 
True

>  <Success>  (61) 
True

>  <enamine_searched>  (61) 
False

>  <enamine_id>  (61) 
nan

$$$$

     RDKit          3D

 56 61  0  0  0  0  0  0  0  0999 V2000
    5.5239    4.8262   21.4504 C   0  0  0  0  0  0  0  0  0  0  0  0
    6.5657    4.5796   22.4304 N   0  0  0  0  0  0  0  0  0  0  0  0
    7.7701    5.1817   22.5632 C   0  0  0  0  0  0  0  0  0  0  0  0
    8.4566    4.5008   23.5447 C   0  0  0  0  0  0  0  0  0  0  0  0
    7.5834    3.4638   23.9295 C   0  0  0  0  0  0  0  0  0  0  0  0
    7.7518    2.3384   24.9025 C   0  0  0  0  0  0  0  0  0  0  0  0
    8.6037    1.2426   24.4393 N   0  0  0  0  0  0  0  0  0  0  0  0
    7.9442   -0.0038   24.1196 C   0  0  0  0  0  0  0  0  0  0  0  0
    8.2792   -0.4918   22.7096 C   0  0  1  0  0  0  0  0  0  0  0  0
    7.6150   -1.8707   22.5087 C   0  0  0  0  0  0  0  0  0  0  0  0
    6.9095   -1.8259   21.1536 C   0  0  0  0  0  0  0  0  0  0  0  0
    6.7832   -0.4106   20.8968 N   0  0  0  0  0  0  0  0  0  0  0  0
    6.0832    0.1067   19.7960 C   0  0  0  0  0  0  0  0  0  0  0  0
    6.4278   -0.2327   18.5124 C   0  0  0  0  0  0  0  0  0  0  0  0
    5.7821    0.2226   17.4177 N   0  0  0  0  0  0  0  0  0  0  0  0
    4.7658    1.0315   17.6065 C   0  0  0  0  0  0  0  0  0  0  0  0
    4.3046    1.4450   18.8911 C   0  0  0  0  0  0  0  0  0  0  0  0
    3.1775    2.2901   19.0549 C   0  0  0  0  0  0  0  0  0  0  0  0
    2.7401    2.6312   20.3068 C   0  0  0  0  0  0  0  0  0  0  0  0
    3.4107    2.1574   21.4542 C   0  0  0  0  0  0  0  0  0  0  0  0
    4.5115    1.3478   21.3249 C   0  0  0  0  0  0  0  0  0  0  0  0
    4.9824    0.9742   20.0326 C   0  0  0  0  0  0  0  0  0  0  0  0
    5.0227    0.9915   22.2127 H   0  0  0  0  0  0  0  0  0  0  0  0
    3.0607    2.4434   22.4430 H   0  0  0  0  0  0  0  0  0  0  0  0
    1.8665    3.2631   20.4209 H   0  0  0  0  0  0  0  0  0  0  0  0
    2.6733    2.6464   18.1637 H   0  0  0  0  0  0  0  0  0  0  0  0
    4.2398    1.3892   16.7215 H   0  0  0  0  0  0  0  0  0  0  0  0
    7.2795   -0.8872   18.3282 H   0  0  0  0  0  0  0  0  0  0  0  0
    7.6790    0.3711   21.5862 C   0  0  0  0  0  0  0  0  0  0  0  0
    7.9444    1.5198   21.3104 O   0  0  0  0  0  0  0  0  0  0  0  0
    5.9214   -2.2931   21.1650 H   0  0  0  0  0  0  0  0  0  0  0  0
    7.5120   -2.3075   20.3831 H   0  0  0  0  0  0  0  0  0  0  0  0
    8.3563   -2.6696   22.5691 H   0  0  0  0  0  0  0  0  0  0  0  0
    6.8797   -2.0501   23.2997 H   0  0  0  0  0  0  0  0  0  0  0  0
    9.7721   -0.4819   22.5751 C   0  0  0  0  0  0  0  0  0  0  0  0
   10.3398   -1.2794   21.5937 C   0  0  0  0  0  0  0  0  0  0  0  0
   11.7129   -1.4140   21.5319 C   0  0  0  0  0  0  0  0  0  0  0  0
   12.3055   -2.5108   20.3224 Cl  0  0  0  0  0  0  0  0  0  0  0  0
   12.5439   -0.7406   22.4281 C   0  0  0  0  0  0  0  0  0  0  0  0
   11.9752    0.1650   23.3006 C   0  0  0  0  0  0  0  0  0  0  0  0
   10.5877    0.3193   23.3646 C   0  0  0  0  0  0  0  0  0  0  0  0
    9.9607    1.3843   24.2205 C   0  0  0  0  0  0  0  0  0  0  0  0
   10.6272    2.3136   24.6534 O   0  0  0  0  0  0  0  0  0  0  0  0
   12.5851    0.7797   23.9464 H   0  0  0  0  0  0  0  0  0  0  0  0
   13.6179   -0.8781   22.4178 H   0  0  0  0  0  0  0  0  0  0  0  0
    9.7268   -1.8225   20.8842 H   0  0  0  0  0  0  0  0  0  0  0  0
    8.2393   -0.7994   24.8184 H   0  0  0  0  0  0  0  0  0  0  0  0
    6.8620    0.1234   24.1927 H   0  0  0  0  0  0  0  0  0  0  0  0
    6.7476    1.9238   25.0311 H   0  0  0  0  0  0  0  0  0  0  0  0
    8.0626    2.6837   25.8861 H   0  0  0  0  0  0  0  0  0  0  0  0
    6.4347    3.5375   23.2662 N   0  0  0  0  0  0  0  0  0  0  0  0
    9.4497    4.6946   23.9253 H   0  0  0  0  0  0  0  0  0  0  0  0
    8.0534    6.0138   21.9261 H   0  0  0  0  0  0  0  0  0  0  0  0
    4.5532    4.8459   21.9572 H   0  0  0  0  0  0  0  0  0  0  0  0
    5.7005    5.7956   20.9790 H   0  0  0  0  0  0  0  0  0  0  0  0
    5.5151    4.0293   20.6926 H   0  0  0  0  0  0  0  0  0  0  0  0
  1  2  1  0
  2  3  1  0
  3  4  2  0
  4  5  1  0
  5  6  1  0
  6  7  1  0
  7  8  1  0
  9  8  1  1
  9 10  1  0
 10 11  1  0
 11 12  1  0
 12 13  1  0
 13 14  2  0
 14 15  1  0
 15 16  2  0
 16 17  1  0
 17 18  2  0
 18 19  1  0
 19 20  2  0
 20 21  1  0
 21 22  2  0
 21 23  1  0
 20 24  1  0
 19 25  1  0
 18 26  1  0
 16 27  1  0
 14 28  1  0
 12 29  1  0
 29 30  2  0
 11 31  1  0
 11 32  1  0
 10 33  1  0
 10 34  1  0
  9 35  1  0
 35 36  2  0
 36 37  1  0
 37 38  1  0
 37 39  2  0
 39 40  1  0
 40 41  2  0
 41 42  1  0
 42 43  2  0
 40 44  1  0
 39 45  1  0
 36 46  1  0
  8 47  1  0
  8 48  1  0
  6 49  1  0
  6 50  1  0
  5 51  2  0
  4 52  1  0
  3 53  1  0
  1 54  1  0
  1 55  1  0
  1 56  1  0
 51  2  1  0
 42  7  1  0
 29  9  1  0
 41 35  1  0
 22 13  1  0
 22 17  1  0
M  END
>  <cnnaffinities>  (62) 
[6.44403]

>  <score>  (62) 
6.44403

>  <index>  (62) 
63

>  <Smiles>  (62) 
C(n1c(c(c(C(N2C([C@]3(C(C(N(c4c(nc(c5c(c(c(c(c45)[H])[H])[H])[H])[H])[H])C3=O)([H])[H])([H])[H])c3c(c(Cl)c(c(c3C2=O)[H])[H])[H])([H])[H])([H])[H])n1)[H])[H])([H])([H])[H]

>  <h>  (62) 
<NA>

>  <Training>  (62) 
True

>  <Success>  (62) 
True

>  <enamine_searched>  (62) 
False

>  <enamine_id>  (62) 
nan

$$$$

     RDKit          3D

 66 71  0  0  0  0  0  0  0  0999 V2000
    7.2517   -2.1961   24.0315 C   0  0  0  0  0  0  0  0  0  0  0  0
    7.6053   -1.5698   22.6955 C   0  0  1  0  0  0  0  0  0  0  0  0
    6.4269   -1.4242   21.7263 C   0  0  0  0  0  0  0  0  0  0  0  0
    6.8901   -0.3832   20.8306 N   0  0  0  0  0  0  0  0  0  0  0  0
    6.1237    0.1116   19.7472 C   0  0  0  0  0  0  0  0  0  0  0  0
    6.4531   -0.2023   18.4544 C   0  0  0  0  0  0  0  0  0  0  0  0
    5.7661    0.2321   17.3695 N   0  0  0  0  0  0  0  0  0  0  0  0
    4.7344    1.0114   17.5792 C   0  0  0  0  0  0  0  0  0  0  0  0
    4.2833    1.4149   18.8689 C   0  0  0  0  0  0  0  0  0  0  0  0
    3.1620    2.2675   19.0451 C   0  0  0  0  0  0  0  0  0  0  0  0
    2.7628    2.6294   20.3024 C   0  0  0  0  0  0  0  0  0  0  0  0
    3.4650    2.1651   21.4382 C   0  0  0  0  0  0  0  0  0  0  0  0
    4.5600    1.3488   21.2951 C   0  0  0  0  0  0  0  0  0  0  0  0
    4.9923    0.9460   19.9979 C   0  0  0  0  0  0  0  0  0  0  0  0
    5.0964    1.0238   22.1804 H   0  0  0  0  0  0  0  0  0  0  0  0
    3.1436    2.4629   22.4327 H   0  0  0  0  0  0  0  0  0  0  0  0
    1.9141    3.2946   20.4378 H   0  0  0  0  0  0  0  0  0  0  0  0
    2.6479    2.6309   18.1596 H   0  0  0  0  0  0  0  0  0  0  0  0
    4.1949    1.3689   16.7027 H   0  0  0  0  0  0  0  0  0  0  0  0
    7.3163   -0.8358   18.2636 H   0  0  0  0  0  0  0  0  0  0  0  0
    7.9814    0.3181   21.2969 C   0  0  0  0  0  0  0  0  0  0  0  0
    8.5665    1.1725   20.6576 O   0  0  0  0  0  0  0  0  0  0  0  0
    8.3302   -0.1915   22.7126 C   0  0  1  0  0  0  0  0  0  0  0  0
    7.8466    0.7524   23.8361 C   0  0  0  0  0  0  0  0  0  0  0  0
    8.5995    1.9940   23.8453 N   0  0  0  0  0  0  0  0  0  0  0  0
    7.9174    3.2568   23.8540 C   0  0  0  0  0  0  0  0  0  0  0  0
    7.6853    3.8436   22.4668 C   0  0  0  0  0  0  0  0  0  0  0  0
    7.1777    5.2372   22.7066 N   0  0  0  0  0  4  0  0  0  0  0  0
    5.7161    5.2478   23.0715 C   0  0  0  0  0  0  0  0  0  0  0  0
    4.8606    5.4810   21.8229 C   0  0  0  0  0  0  0  0  0  0  0  0
    5.5571    5.0840   20.6655 O   0  0  0  0  0  0  0  0  0  0  0  0
    6.6069    5.9922   20.4135 C   0  0  0  0  0  0  0  0  0  0  0  0
    7.4795    6.2340   21.6460 C   0  0  0  0  0  0  0  0  0  0  0  0
    7.2933    7.2311   22.0506 H   0  0  0  0  0  0  0  0  0  0  0  0
    8.5414    6.1592   21.3921 H   0  0  0  0  0  0  0  0  0  0  0  0
    7.1990    5.5451   19.6281 H   0  0  0  0  0  0  0  0  0  0  0  0
    6.2048    6.9505   20.0603 H   0  0  0  0  0  0  0  0  0  0  0  0
    3.9413    4.8979   21.8680 H   0  0  0  0  0  0  0  0  0  0  0  0
    4.6064    6.5472   21.7560 H   0  0  0  0  0  0  0  0  0  0  0  0
    5.5566    6.0280   23.8188 H   0  0  0  0  0  0  0  0  0  0  0  0
    5.4638    4.2869   23.5222 H   0  0  0  0  0  0  0  0  0  0  0  0
    7.7005    5.5620   23.5261 H   0  0  0  0  0  0  0  0  0  0  0  0
    8.6219    3.8955   21.9047 H   0  0  0  0  0  0  0  0  0  0  0  0
    6.9617    3.2776   21.8727 H   0  0  0  0  0  0  0  0  0  0  0  0
    6.9632    3.1734   24.3902 H   0  0  0  0  0  0  0  0  0  0  0  0
    8.5384    3.9716   24.3898 H   0  0  0  0  0  0  0  0  0  0  0  0
    9.9695    2.0148   23.8468 C   0  0  0  0  0  0  0  0  0  0  0  0
   10.6297    3.0126   24.1110 O   0  0  0  0  0  0  0  0  0  0  0  0
   10.6128    0.7320   23.4305 C   0  0  0  0  0  0  0  0  0  0  0  0
   12.0009    0.5853   23.5045 C   0  0  0  0  0  0  0  0  0  0  0  0
   12.6375   -0.4905   22.8910 C   0  0  0  0  0  0  0  0  0  0  0  0
   11.8421   -1.3697   22.1452 C   0  0  0  0  0  0  0  0  0  0  0  0
   12.3271   -2.5246   20.9488 Cl  0  0  0  0  0  0  0  0  0  0  0  0
   10.4749   -1.2862   22.1761 C   0  0  0  0  0  0  0  0  0  0  0  0
    9.8277   -0.2657   22.8442 C   0  0  0  0  0  0  0  0  0  0  0  0
    9.9425   -2.0015   21.5667 H   0  0  0  0  0  0  0  0  0  0  0  0
   13.7186   -0.5826   22.9360 H   0  0  0  0  0  0  0  0  0  0  0  0
   12.5906    1.3629   23.9853 H   0  0  0  0  0  0  0  0  0  0  0  0
    8.0100    0.2362   24.7926 H   0  0  0  0  0  0  0  0  0  0  0  0
    6.7750    0.9688   23.7416 H   0  0  0  0  0  0  0  0  0  0  0  0
    5.4951   -1.1437   22.2373 H   0  0  0  0  0  0  0  0  0  0  0  0
    6.2325   -2.3579   21.1787 H   0  0  0  0  0  0  0  0  0  0  0  0
    8.2761   -2.2662   22.1917 H   0  0  0  0  0  0  0  0  0  0  0  0
    6.8160   -3.1899   23.8773 H   0  0  0  0  0  0  0  0  0  0  0  0
    8.1449   -2.3091   24.6538 H   0  0  0  0  0  0  0  0  0  0  0  0
    6.5263   -1.5894   24.5823 H   0  0  0  0  0  0  0  0  0  0  0  0
  1  2  1  0
  2  3  1  0
  3  4  1  0
  4  5  1  0
  5  6  2  0
  6  7  1  0
  7  8  2  0
  8  9  1  0
  9 10  2  0
 10 11  1  0
 11 12  2  0
 12 13  1  0
 13 14  2  0
 13 15  1  0
 12 16  1  0
 11 17  1  0
 10 18  1  0
  8 19  1  0
  6 20  1  0
  4 21  1  0
 21 22  2  0
 21 23  1  0
 23 24  1  1
 24 25  1  0
 25 26  1  0
 26 27  1  0
 27 28  1  0
 28 29  1  0
 29 30  1  0
 30 31  1  0
 31 32  1  0
 32 33  1  0
 33 34  1  0
 33 35  1  0
 32 36  1  0
 32 37  1  0
 30 38  1  0
 30 39  1  0
 29 40  1  0
 29 41  1  0
 28 42  1  0
 27 43  1  0
 27 44  1  0
 26 45  1  0
 26 46  1  0
 25 47  1  0
 47 48  2  0
 47 49  1  0
 49 50  2  0
 50 51  1  0
 51 52  2  0
 52 53  1  0
 52 54  1  0
 54 55  2  0
 54 56  1  0
 51 57  1  0
 50 58  1  0
 24 59  1  0
 24 60  1  0
  3 61  1  0
  3 62  1  0
  2 63  1  6
  1 64  1  0
  1 65  1  0
  1 66  1  0
 23  2  1  0
 33 28  1  0
 55 49  1  0
 14  5  1  0
 55 23  1  0
 14  9  1  0
M  CHG  1  28   1
M  END
>  <cnnaffinities>  (63) 
[6.08838]

>  <score>  (63) 
6.08838

>  <index>  (63) 
64

>  <Smiles>  (63) 
C([C@]1(C(N(c2c(nc(c3c(c(c(c(c23)[H])[H])[H])[H])[H])[H])C(=O)[C@]21C(N(C(C([N+]1(C(C(OC(C1([H])[H])([H])[H])([H])[H])([H])[H])[H])([H])[H])([H])[H])C(=O)c1c(c(c(Cl)c(c21)[H])[H])[H])([H])[H])([H])[H])[H])([H])([H])[H]

>  <h>  (63) 
<NA>

>  <Training>  (63) 
True

>  <Success>  (63) 
True

>  <enamine_searched>  (63) 
False

>  <enamine_id>  (63) 
nan

$$$$

     RDKit          3D

 54 59  0  0  0  0  0  0  0  0999 V2000
    9.1213    0.4011   27.2228 C   0  0  0  0  0  0  0  0  0  0  0  0
    8.9352   -0.9793   26.9026 N   0  0  0  0  0  0  0  0  0  0  0  0
    7.6799   -1.4930   26.8479 C   0  0  0  0  0  0  0  0  0  0  0  0
    6.6606   -0.8991   27.1656 O   0  0  0  0  0  0  0  0  0  0  0  0
    7.6628   -2.9102   26.2843 C   0  0  0  0  0  0  0  0  0  0  0  0
    8.4001   -3.0045   25.0362 N   0  0  0  0  0  0  0  0  0  0  0  0
    9.7805   -2.9185   24.9491 C   0  0  0  0  0  0  0  0  0  0  0  0
   10.5451   -2.9714   25.9030 O   0  0  0  0  0  0  0  0  0  0  0  0
   10.1133   -2.7693   23.5138 C   0  0  0  0  0  0  0  0  0  0  0  0
   11.3255   -2.4708   22.9319 C   0  0  0  0  0  0  0  0  0  0  0  0
   11.4718   -2.6450   21.5265 C   0  0  0  0  0  0  0  0  0  0  0  0
   10.4524   -3.2017   20.8096 C   0  0  0  0  0  0  0  0  0  0  0  0
   10.8539   -4.0843   19.2824 Cl  0  0  0  0  0  0  0  0  0  0  0  0
    9.0690   -3.3963   21.3424 C   0  0  0  0  0  0  0  0  0  0  0  0
    8.8921   -2.8894   22.7488 C   0  0  1  0  0  0  0  0  0  0  0  0
    7.7716   -2.9780   23.7491 C   0  0  2  0  0  0  0  0  0  0  0  0
    7.8223   -1.7540   22.8774 C   0  0  2  0  0  0  0  0  0  0  0  0
    6.6767   -1.6702   21.8838 C   0  0  0  0  0  0  0  0  0  0  0  0
    5.8544   -2.5259   21.6186 O   0  0  0  0  0  0  0  0  0  0  0  0
    6.7409   -0.4141   21.3102 N   0  0  0  0  0  0  0  0  0  0  0  0
    6.0343   -0.0602   20.1325 C   0  0  0  0  0  0  0  0  0  0  0  0
    6.4394   -0.4720   18.8901 C   0  0  0  0  0  0  0  0  0  0  0  0
    5.8870   -0.0367   17.7324 N   0  0  0  0  0  0  0  0  0  0  0  0
    4.9058    0.8291   17.8064 C   0  0  0  0  0  0  0  0  0  0  0  0
    4.3660    1.3161   19.0338 C   0  0  0  0  0  0  0  0  0  0  0  0
    3.2872    2.2364   19.1025 C   0  0  0  0  0  0  0  0  0  0  0  0
    2.8066    2.6461   20.3173 C   0  0  0  0  0  0  0  0  0  0  0  0
    3.3698    2.1621   21.5203 C   0  0  0  0  0  0  0  0  0  0  0  0
    4.4180    1.2788   21.4803 C   0  0  0  0  0  0  0  0  0  0  0  0
    4.9388    0.8471   20.2346 C   0  0  0  0  0  0  0  0  0  0  0  0
    4.8681    0.8861   22.3874 H   0  0  0  0  0  0  0  0  0  0  0  0
    2.9725    2.4912   22.4764 H   0  0  0  0  0  0  0  0  0  0  0  0
    1.9798    3.3494   20.3694 H   0  0  0  0  0  0  0  0  0  0  0  0
    2.8547    2.6056   18.1757 H   0  0  0  0  0  0  0  0  0  0  0  0
    4.4858    1.1803   16.8638 H   0  0  0  0  0  0  0  0  0  0  0  0
    7.2596   -1.1818   18.7819 H   0  0  0  0  0  0  0  0  0  0  0  0
    7.8845    0.3661   21.7578 C   0  0  0  0  0  0  0  0  0  0  0  0
    8.3146   -0.3658   22.9985 C   0  0  0  0  0  0  0  0  0  0  0  0
    9.1161    0.1599   23.9222 C   0  0  0  0  0  0  0  0  0  0  0  0
    9.3753    1.4807   23.9648 F   0  0  0  0  0  0  0  0  0  0  0  0
    9.6394   -0.3998   24.6870 H   0  0  0  0  0  0  0  0  0  0  0  0
    8.6898    0.3344   21.0020 H   0  0  0  0  0  0  0  0  0  0  0  0
    7.6301    1.4115   21.9525 H   0  0  0  0  0  0  0  0  0  0  0  0
    6.8975   -3.6065   23.6211 H   0  0  0  0  0  0  0  0  0  0  0  0
    8.7621   -4.4520   21.2602 H   0  0  0  0  0  0  0  0  0  0  0  0
    8.3676   -2.7817   20.7663 H   0  0  0  0  0  0  0  0  0  0  0  0
   12.4065   -2.4123   21.0161 H   0  0  0  0  0  0  0  0  0  0  0  0
   12.1495   -2.1128   23.5356 H   0  0  0  0  0  0  0  0  0  0  0  0
    8.1039   -3.5766   27.0303 H   0  0  0  0  0  0  0  0  0  0  0  0
    6.6237   -3.2018   26.1246 H   0  0  0  0  0  0  0  0  0  0  0  0
    9.7255   -1.6151   26.8806 H   0  0  0  0  0  0  0  0  0  0  0  0
    9.5524    0.9477   26.3731 H   0  0  0  0  0  0  0  0  0  0  0  0
    8.1041    0.7485   27.4350 H   0  0  0  0  0  0  0  0  0  0  0  0
    9.7728    0.5616   28.0889 H   0  0  0  0  0  0  0  0  0  0  0  0
  1  2  1  0
  2  3  1  0
  3  4  2  0
  3  5  1  0
  5  6  1  0
  6  7  1  0
  7  8  2  0
  7  9  1  0
  9 10  2  0
 10 11  1  0
 11 12  2  0
 12 13  1  0
 12 14  1  0
 15 14  1  6
 15 16  1  0
 16 17  1  0
 17 18  1  6
 18 19  2  0
 18 20  1  0
 20 21  1  0
 21 22  2  0
 22 23  1  0
 23 24  2  0
 24 25  1  0
 25 26  2  0
 26 27  1  0
 27 28  2  0
 28 29  1  0
 29 30  2  0
 29 31  1  0
 28 32  1  0
 27 33  1  0
 26 34  1  0
 24 35  1  0
 22 36  1  0
 20 37  1  0
 37 38  1  0
 38 39  2  0
 39 40  1  0
 39 41  1  0
 37 42  1  0
 37 43  1  0
 16 44  1  6
 14 45  1  0
 14 46  1  0
 11 47  1  0
 10 48  1  0
  5 49  1  0
  5 50  1  0
  2 51  1  0
  1 52  1  0
  1 53  1  0
  1 54  1  0
 16  6  1  0
 38 17  1  0
 15  9  1  0
 30 21  1  0
 17 15  1  0
 30 25  1  0
M  END
>  <cnnaffinities>  (64) 
[6.18983]

>  <score>  (64) 
6.18983

>  <index>  (64) 
65

>  <Smiles>  (64) 
C(N(C(=O)C(N1C(=O)C2=C(C(=C(Cl)C([C@]32[C@@]1([C@@]13C(=O)N(c2c(nc(c3c(c(c(c(c23)[H])[H])[H])[H])[H])[H])C(/C/1=C(\F)/[H])([H])[H])[H])([H])[H])[H])[H])([H])[H])[H])([H])([H])[H]

>  <h>  (64) 
<NA>

>  <Training>  (64) 
True

>  <Success>  (64) 
True

>  <enamine_searched>  (64) 
False

>  <enamine_id>  (64) 
nan

$$$$

     RDKit          3D

 47 50  0  0  0  0  0  0  0  0999 V2000
    8.3344    1.4897   20.8567 O   0  0  0  0  0  0  0  0  0  0  0  0
    7.7983    0.6464   21.5484 C   0  0  0  0  0  0  0  0  0  0  0  0
    6.9432   -0.4629   20.9074 C   0  0  0  0  0  0  0  0  0  0  0  0
    6.1087    0.0784   19.7663 C   0  0  0  0  0  0  0  0  0  0  0  0
    6.4271   -0.2084   18.4668 C   0  0  0  0  0  0  0  0  0  0  0  0
    5.7582    0.2458   17.3733 N   0  0  0  0  0  0  0  0  0  0  0  0
    4.7347    1.0313   17.5791 C   0  0  0  0  0  0  0  0  0  0  0  0
    4.2872    1.4240   18.8682 C   0  0  0  0  0  0  0  0  0  0  0  0
    3.1703    2.2798   19.0470 C   0  0  0  0  0  0  0  0  0  0  0  0
    2.7641    2.6465   20.2992 C   0  0  0  0  0  0  0  0  0  0  0  0
    3.4646    2.1687   21.4324 C   0  0  0  0  0  0  0  0  0  0  0  0
    4.5480    1.3406   21.2843 C   0  0  0  0  0  0  0  0  0  0  0  0
    4.9955    0.9406   19.9991 C   0  0  0  0  0  0  0  0  0  0  0  0
    5.0728    0.9882   22.1686 H   0  0  0  0  0  0  0  0  0  0  0  0
    3.1384    2.4664   22.4241 H   0  0  0  0  0  0  0  0  0  0  0  0
    1.9112    3.3077   20.4350 H   0  0  0  0  0  0  0  0  0  0  0  0
    2.6504    2.6479   18.1630 H   0  0  0  0  0  0  0  0  0  0  0  0
    4.2008    1.3986   16.6976 H   0  0  0  0  0  0  0  0  0  0  0  0
    7.2744   -0.8560   18.2416 H   0  0  0  0  0  0  0  0  0  0  0  0
    7.6197   -1.2379   20.5225 H   0  0  0  0  0  0  0  0  0  0  0  0
    6.3009   -0.9402   21.6591 H   0  0  0  0  0  0  0  0  0  0  0  0
    7.8490    0.6650   22.9409 N   0  0  0  0  0  0  0  0  0  0  0  0
    8.0426    1.9454   23.6160 C   0  0  0  0  0  0  0  0  0  0  0  0
    7.2509    1.9707   24.9198 C   0  0  0  0  0  0  0  0  0  0  0  0
    7.6054    0.7868   25.8190 C   0  0  1  0  0  0  0  0  0  0  0  0
    6.7817    0.7616   27.1190 C   0  0  0  0  0  0  0  0  0  0  0  0
    5.3252    0.3499   26.9158 C   0  0  0  0  0  0  0  0  0  0  0  0
    5.2299   -0.9541   26.1585 C   0  0  0  0  0  0  0  0  0  0  0  0
    3.9160   -1.2637   25.9212 F   0  0  0  0  0  0  0  0  0  0  0  0
    5.7100   -1.9625   26.9566 F   0  0  0  0  0  0  0  0  0  0  0  0
    6.0042   -0.9509   24.8579 C   0  0  0  0  0  0  0  0  0  0  0  0
    7.4678   -0.5491   25.0691 C   0  0  1  0  0  0  0  0  0  0  0  0
    8.2269   -0.4960   23.7438 C   0  0  0  0  0  0  0  0  0  0  0  0
    9.3105   -0.4985   23.9537 H   0  0  0  0  0  0  0  0  0  0  0  0
    8.0388   -1.3966   23.1599 H   0  0  0  0  0  0  0  0  0  0  0  0
    7.9221   -1.3294   25.6896 H   0  0  0  0  0  0  0  0  0  0  0  0
    5.9293   -1.9488   24.4130 H   0  0  0  0  0  0  0  0  0  0  0  0
    5.5079   -0.2552   24.1761 H   0  0  0  0  0  0  0  0  0  0  0  0
    4.8049    0.2474   27.8736 H   0  0  0  0  0  0  0  0  0  0  0  0
    4.7897    1.1059   26.3367 H   0  0  0  0  0  0  0  0  0  0  0  0
    7.2501    0.0708   27.8286 H   0  0  0  0  0  0  0  0  0  0  0  0
    6.7897    1.7452   27.5955 H   0  0  0  0  0  0  0  0  0  0  0  0
    8.6633    0.9067   26.0932 H   0  0  0  0  0  0  0  0  0  0  0  0
    6.1814    1.9716   24.6923 H   0  0  0  0  0  0  0  0  0  0  0  0
    7.4320    2.9098   25.4541 H   0  0  0  0  0  0  0  0  0  0  0  0
    9.1041    2.1501   23.8255 H   0  0  0  0  0  0  0  0  0  0  0  0
    7.7019    2.7340   22.9454 H   0  0  0  0  0  0  0  0  0  0  0  0
  1  2  2  0
  2  3  1  0
  3  4  1  0
  4  5  2  0
  5  6  1  0
  6  7  2  0
  7  8  1  0
  8  9  2  0
  9 10  1  0
 10 11  2  0
 11 12  1  0
 12 13  2  0
 12 14  1  0
 11 15  1  0
 10 16  1  0
  9 17  1  0
  7 18  1  0
  5 19  1  0
  3 20  1  0
  3 21  1  0
  2 22  1  0
 22 23  1  0
 23 24  1  0
 24 25  1  0
 25 26  1  0
 26 27  1  0
 27 28  1  0
 28 29  1  0
 28 30  1  0
 28 31  1  0
 31 32  1  0
 32 33  1  0
 33 34  1  0
 33 35  1  0
 32 36  1  1
 31 37  1  0
 31 38  1  0
 27 39  1  0
 27 40  1  0
 26 41  1  0
 26 42  1  0
 25 43  1  1
 24 44  1  0
 24 45  1  0
 23 46  1  0
 23 47  1  0
 13  4  1  0
 33 22  1  0
 13  8  1  0
 32 25  1  0
M  END
>  <cnnaffinities>  (65) 
[5.39417, 5.39461, 5.7205]

>  <score>  (65) 
5.39417

>  <index>  (65) 
66

>  <Smiles>  (65) 
O=C(C(c1c(nc(c2c(c(c(c(c12)[H])[H])[H])[H])[H])[H])([H])[H])N1C(C([C@]2(C(C(C(F)(F)C([C@]2(C1([H])[H])[H])([H])[H])([H])[H])([H])[H])[H])([H])[H])([H])[H]

>  <h>  (65) 
<NA>

>  <Training>  (65) 
True

>  <Success>  (65) 
True

>  <enamine_searched>  (65) 
False

>  <enamine_id>  (65) 
nan

$$$$

     RDKit          3D

 69 74  0  0  0  0  0  0  0  0999 V2000
    4.4010    1.9433   28.3884 C   0  0  0  0  0  0  0  0  0  0  0  0
    4.8823    2.2328   27.0473 N   0  0  0  0  0  4  0  0  0  0  0  0
    5.9725    1.3499   26.5782 C   0  0  0  0  0  0  0  0  0  0  0  0
    6.3879    1.8265   25.1893 C   0  0  0  0  0  0  0  0  0  0  0  0
    7.3282    0.9669   24.4997 N   0  0  0  0  0  0  0  0  0  0  0  0
    6.8191   -0.1506   23.7246 C   0  0  0  0  0  0  0  0  0  0  0  0
    7.7384   -0.4940   22.5205 C   0  0  2  0  0  0  0  0  0  0  0  0
    7.3647    0.3049   21.2558 C   0  0  0  0  0  0  0  0  0  0  0  0
    7.6964    1.4325   20.9655 O   0  0  0  0  0  0  0  0  0  0  0  0
    6.5818   -0.5080   20.4551 N   0  0  0  0  0  0  0  0  0  0  0  0
    5.8187    0.0692   19.4136 C   0  0  0  0  0  0  0  0  0  0  0  0
    6.1061   -0.1995   18.1002 C   0  0  0  0  0  0  0  0  0  0  0  0
    5.4582    0.3669   17.0537 N   0  0  0  0  0  0  0  0  0  0  0  0
    4.4972    1.2159   17.3185 C   0  0  0  0  0  0  0  0  0  0  0  0
    4.0656    1.5442   18.6328 C   0  0  0  0  0  0  0  0  0  0  0  0
    2.9900    2.4379   18.8694 C   0  0  0  0  0  0  0  0  0  0  0  0
    2.5974    2.7404   20.1432 C   0  0  0  0  0  0  0  0  0  0  0  0
    3.2629    2.1548   21.2446 C   0  0  0  0  0  0  0  0  0  0  0  0
    4.3012    1.2814   21.0399 C   0  0  0  0  0  0  0  0  0  0  0  0
    4.7411    0.9596   19.7224 C   0  0  0  0  0  0  0  0  0  0  0  0
    4.7982    0.8366   21.8956 H   0  0  0  0  0  0  0  0  0  0  0  0
    2.9627    2.4031   22.2583 H   0  0  0  0  0  0  0  0  0  0  0  0
    1.7831    3.4356   20.3204 H   0  0  0  0  0  0  0  0  0  0  0  0
    2.4988    2.8791   18.0090 H   0  0  0  0  0  0  0  0  0  0  0  0
    4.0057    1.6893   16.4709 H   0  0  0  0  0  0  0  0  0  0  0  0
    6.9130   -0.8858   17.8444 H   0  0  0  0  0  0  0  0  0  0  0  0
    6.3144   -1.8120   21.0453 C   0  0  0  0  0  0  0  0  0  0  0  0
    7.4773   -1.9369   22.0251 C   0  0  2  0  0  0  0  0  0  0  0  0
    7.3005   -2.9930   23.0969 C   0  0  0  0  0  0  0  0  0  0  0  0
    7.0672   -4.1918   22.4046 O   0  0  0  0  0  0  0  0  0  0  0  0
    7.0573   -5.3302   23.2236 C   0  0  0  0  0  0  0  0  0  0  0  0
    6.6590   -6.5081   22.4438 C   0  0  0  0  0  0  0  0  0  0  0  0
    5.3143   -6.4084   22.0752 F   0  0  0  0  0  0  0  0  0  0  0  0
    6.7763   -7.7054   23.0430 C   0  0  0  0  0  0  0  0  0  0  0  0
    7.0466   -7.8261   22.9994 C   0  0  0  0  0  0  0  0  0  0  0  0
    8.3407   -7.8533   23.7707 H   0  0  0  0  0  0  0  0  0  0  0  0
    8.2383   -8.2147   22.0465 H   0  0  0  0  0  0  0  0  0  0  0  0
    6.4783   -8.9635   23.0325 H   0  0  0  0  0  0  0  0  0  0  0  0
    5.9909   -7.6735   23.9514 H   0  0  0  0  0  0  0  0  0  0  0  0
    8.0648   -5.3939   23.7071 H   0  0  0  0  0  0  0  0  0  0  0  0
    6.3069   -5.2144   24.0382 H   0  0  0  0  0  0  0  0  0  0  0  0
    8.2014   -3.0263   23.7472 H   0  0  0  0  0  0  0  0  0  0  0  0
    6.4462   -2.7649   23.7553 H   0  0  0  0  0  0  0  0  0  0  0  0
    8.3513   -2.2435   21.4462 H   0  0  0  0  0  0  0  0  0  0  0  0
    5.3534   -1.8422   21.5793 H   0  0  0  0  0  0  0  0  0  0  0  0
    6.3086   -2.5997   20.2941 H   0  0  0  0  0  0  0  0  0  0  0  0
    9.1750   -0.2522   22.8692 C   0  0  0  0  0  0  0  0  0  0  0  0
   10.1509   -0.6412   21.9650 C   0  0  0  0  0  0  0  0  0  0  0  0
   11.4652   -0.3806   22.2526 C   0  0  0  0  0  0  0  0  0  0  0  0
   12.5542   -0.9754   21.0867 Cl  0  0  0  0  0  0  0  0  0  0  0  0
   11.9063    0.2975   23.3894 C   0  0  0  0  0  0  0  0  0  0  0  0
   10.9360    0.6713   24.2949 C   0  0  0  0  0  0  0  0  0  0  0  0
    9.5990    0.3864   24.0279 C   0  0  0  0  0  0  0  0  0  0  0  0
    8.5942    0.8252   25.0145 C   0  0  0  0  0  0  0  0  0  0  0  0
    8.9138    1.0674   26.1616 O   0  0  0  0  0  0  0  0  0  0  0  0
   11.1677    1.1951   25.2139 H   0  0  0  0  0  0  0  0  0  0  0  0
   12.9632    0.5181   23.5246 H   0  0  0  0  0  0  0  0  0  0  0  0
    9.9345   -1.1248   21.0199 H   0  0  0  0  0  0  0  0  0  0  0  0
    5.7953    0.0733   23.3994 H   0  0  0  0  0  0  0  0  0  0  0  0
    6.7507   -1.0285   24.3842 H   0  0  0  0  0  0  0  0  0  0  0  0
    5.5051    1.9131   24.5412 H   0  0  0  0  0  0  0  0  0  0  0  0
    6.8481    2.8169   25.2606 H   0  0  0  0  0  0  0  0  0  0  0  0
    5.6302    0.3117   26.5512 H   0  0  0  0  0  0  0  0  0  0  0  0
    6.8167    1.3968   27.2614 H   0  0  0  0  0  0  0  0  0  0  0  0
    5.2466    3.2108   27.0141 H   0  0  0  0  0  0  0  0  0  0  0  0
    4.0950    2.1531   26.3656 H   0  0  0  0  0  0  0  0  0  0  0  0
    3.5724    2.6008   28.6489 H   0  0  0  0  0  0  0  0  0  0  0  0
    5.2042    2.0782   29.1207 H   0  0  0  0  0  0  0  0  0  0  0  0
    4.0702    0.9019   28.4613 H   0  0  0  0  0  0  0  0  0  0  0  0
  1  2  1  0
  2  3  1  0
  3  4  1  0
  4  5  1  0
  5  6  1  0
  7  6  1  1
  7  8  1  0
  8  9  2  0
  8 10  1  0
 10 11  1  0
 11 12  2  0
 12 13  1  0
 13 14  2  0
 14 15  1  0
 15 16  2  0
 16 17  1  0
 17 18  2  0
 18 19  1  0
 19 20  2  0
 19 21  1  0
 18 22  1  0
 17 23  1  0
 16 24  1  0
 14 25  1  0
 12 26  1  0
 10 27  1  0
 27 28  1  0
 28 29  1  0
 29 30  1  0
 30 31  1  0
 31 32  1  0
 32 33  1  0
 32 34  1  0
 34 35  1  0
 35 36  1  0
 35 37  1  0
 34 38  1  0
 34 39  1  0
 31 40  1  0
 31 41  1  0
 29 42  1  0
 29 43  1  0
 28 44  1  6
 27 45  1  0
 27 46  1  0
  7 47  1  0
 47 48  2  0
 48 49  1  0
 49 50  1  0
 49 51  2  0
 51 52  1  0
 52 53  2  0
 53 54  1  0
 54 55  2  0
 52 56  1  0
 51 57  1  0
 48 58  1  0
  6 59  1  0
  6 60  1  0
  4 61  1  0
  4 62  1  0
  3 63  1  0
  3 64  1  0
  2 65  1  0
  2 66  1  0
  1 67  1  0
  1 68  1  0
  1 69  1  0
 54  5  1  0
 28  7  1  0
 35 32  1  0
 53 47  1  0
 20 11  1  0
 20 15  1  0
M  CHG  1   2   1
M  END
>  <cnnaffinities>  (66) 
[6.33294]

>  <score>  (66) 
6.33294

>  <index>  (66) 
67

>  <Smiles>  (66) 
C([N+](C(C(N1C([C@@]2(C(=O)N(c3c(nc(c4c(c(c(c(c34)[H])[H])[H])[H])[H])[H])C([C@@]2(C(OC(C2(F)C(C2([H])[H])([H])[H])([H])[H])([H])[H])[H])([H])[H])c2c(c(Cl)c(c(c2C1=O)[H])[H])[H])([H])[H])([H])[H])([H])[H])([H])[H])([H])([H])[H]

>  <h>  (66) 
<NA>

>  <Training>  (66) 
True

>  <Success>  (66) 
True

>  <enamine_searched>  (66) 
False

>  <enamine_id>  (66) 
nan

$$$$

     RDKit          3D

 57 62  0  0  0  0  0  0  0  0999 V2000
    8.8680   -8.3804   23.4067 C   0  0  0  0  0  0  0  0  0  0  0  0
    7.6315   -7.5370   23.3955 C   0  0  0  0  0  0  0  0  0  0  0  0
    7.4830   -6.2969   23.0481 N   0  0  0  0  0  0  0  0  0  0  0  0
    6.1655   -6.0623   23.3720 C   0  0  0  0  0  0  0  0  0  0  0  0
    5.4953   -4.7718   23.0113 C   0  0  0  0  0  0  0  0  0  0  0  0
    6.0870   -3.5989   23.6219 N   0  0  0  0  0  0  0  0  0  0  0  0
    7.3530   -3.1011   23.1129 C   0  0  0  0  0  0  0  0  0  0  0  0
    7.2795   -1.5943   22.7869 C   0  0  2  0  0  0  0  0  0  0  0  0
    6.3599   -1.3805   21.5712 C   0  0  0  0  0  0  0  0  0  0  0  0
    5.3031   -1.9339   21.3437 O   0  0  0  0  0  0  0  0  0  0  0  0
    6.9359   -0.4482   20.7427 N   0  0  0  0  0  0  0  0  0  0  0  0
    6.1826    0.1374   19.6957 C   0  0  0  0  0  0  0  0  0  0  0  0
    6.5250   -0.1030   18.3906 C   0  0  0  0  0  0  0  0  0  0  0  0
    5.8316    0.3587   17.3240 N   0  0  0  0  0  0  0  0  0  0  0  0
    4.7796    1.1035   17.5568 C   0  0  0  0  0  0  0  0  0  0  0  0
    4.3337    1.4580   18.8608 C   0  0  0  0  0  0  0  0  0  0  0  0
    3.2098    2.3019   19.0542 C   0  0  0  0  0  0  0  0  0  0  0  0
    2.8036    2.6389   20.3151 C   0  0  0  0  0  0  0  0  0  0  0  0
    3.5064    2.1467   21.4403 C   0  0  0  0  0  0  0  0  0  0  0  0
    4.6001    1.3329   21.2833 C   0  0  0  0  0  0  0  0  0  0  0  0
    5.0442    0.9622   19.9769 C   0  0  0  0  0  0  0  0  0  0  0  0
    5.1313    0.9647   22.1623 H   0  0  0  0  0  0  0  0  0  0  0  0
    3.1728    2.4187   22.4382 H   0  0  0  0  0  0  0  0  0  0  0  0
    1.9457    3.2893   20.4609 H   0  0  0  0  0  0  0  0  0  0  0  0
    2.6939    2.6768   18.1739 H   0  0  0  0  0  0  0  0  0  0  0  0
    4.2210    1.4650   16.6920 H   0  0  0  0  0  0  0  0  0  0  0  0
    7.3876   -0.7288   18.1618 H   0  0  0  0  0  0  0  0  0  0  0  0
    8.2234    0.0322   21.1975 C   0  0  0  0  0  0  0  0  0  0  0  0
    8.6299   -0.9696   22.3020 C   0  0  2  0  0  0  0  0  0  0  0  0
    9.6783   -1.9615   21.7738 C   0  0  0  0  0  0  0  0  0  0  0  0
    9.3065   -2.5299   20.9146 H   0  0  0  0  0  0  0  0  0  0  0  0
    9.9802   -2.6734   22.5480 H   0  0  0  0  0  0  0  0  0  0  0  0
   10.5829   -1.4286   21.4536 H   0  0  0  0  0  0  0  0  0  0  0  0
    9.1008   -0.4477   23.1411 H   0  0  0  0  0  0  0  0  0  0  0  0
    8.9445    0.0382   20.3807 H   0  0  0  0  0  0  0  0  0  0  0  0
    8.1583    1.0642   21.5695 H   0  0  0  0  0  0  0  0  0  0  0  0
    6.7185   -0.8879   24.0248 C   0  0  0  0  0  0  0  0  0  0  0  0
    6.9653    0.4701   24.2724 C   0  0  0  0  0  0  0  0  0  0  0  0
    6.5665    1.0310   25.4719 C   0  0  0  0  0  0  0  0  0  0  0  0
    6.8648    2.3178   25.7247 F   0  0  0  0  0  0  0  0  0  0  0  0
    5.8782    0.3150   26.4421 C   0  0  0  0  0  0  0  0  0  0  0  0
    5.5350   -0.9907   26.1496 C   0  0  0  0  0  0  0  0  0  0  0  0
    5.9265   -1.5820   24.9486 C   0  0  0  0  0  0  0  0  0  0  0  0
    5.4389   -2.9701   24.6529 C   0  0  0  0  0  0  0  0  0  0  0  0
    4.5177   -3.4898   25.2610 O   0  0  0  0  0  0  0  0  0  0  0  0
    4.9552   -1.5950   26.8386 H   0  0  0  0  0  0  0  0  0  0  0  0
    5.6116    0.7920   27.3791 H   0  0  0  0  0  0  0  0  0  0  0  0
    7.4762    1.1175   23.5688 H   0  0  0  0  0  0  0  0  0  0  0  0
    8.1337   -3.2738   23.8631 H   0  0  0  0  0  0  0  0  0  0  0  0
    7.6042   -3.6914   22.2308 H   0  0  0  0  0  0  0  0  0  0  0  0
    5.5864   -4.6540   21.9195 H   0  0  0  0  0  0  0  0  0  0  0  0
    4.4422   -4.8062   23.2994 H   0  0  0  0  0  0  0  0  0  0  0  0
    5.5414   -7.0851   23.8785 N   0  0  0  0  0  0  0  0  0  0  0  0
    6.5220   -8.0643   23.9199 O   0  0  0  0  0  0  0  0  0  0  0  0
    9.6456   -7.9868   22.7745 H   0  0  0  0  0  0  0  0  0  0  0  0
    8.6326   -9.4280   23.2038 H   0  0  0  0  0  0  0  0  0  0  0  0
    9.3171   -8.3376   24.3942 H   0  0  0  0  0  0  0  0  0  0  0  0
  1  2  1  0
  2  3  2  0
  3  4  1  0
  4  5  1  0
  5  6  1  0
  6  7  1  0
  8  7  1  1
  8  9  1  0
  9 10  2  0
  9 11  1  0
 11 12  1  0
 12 13  2  0
 13 14  1  0
 14 15  2  0
 15 16  1  0
 16 17  2  0
 17 18  1  0
 18 19  2  0
 19 20  1  0
 20 21  2  0
 20 22  1  0
 19 23  1  0
 18 24  1  0
 17 25  1  0
 15 26  1  0
 13 27  1  0
 11 28  1  0
 28 29  1  0
 29 30  1  0
 30 31  1  0
 30 32  1  0
 30 33  1  0
 29 34  1  1
 28 35  1  0
 28 36  1  0
  8 37  1  0
 37 38  2  0
 38 39  1  0
 39 40  1  0
 39 41  2  0
 41 42  1  0
 42 43  2  0
 43 44  1  0
 44 45  2  0
 42 46  1  0
 41 47  1  0
 38 48  1  0
  7 49  1  0
  7 50  1  0
  5 51  1  0
  5 52  1  0
  4 53  2  0
 53 54  1  0
  1 55  1  0
  1 56  1  0
  1 57  1  0
 54  2  1  0
 44  6  1  0
 29  8  1  0
 43 37  1  0
 21 12  1  0
 21 16  1  0
M  END
>  <cnnaffinities>  (67) 
[6.64122]

>  <score>  (67) 
6.64122

>  <index>  (67) 
68

>  <Smiles>  (67) 
C(c1nc(C(N2C([C@@]3(C(=O)N(c4c(nc(c5c(c(c(c(c45)[H])[H])[H])[H])[H])[H])C([C@@]3(C([H])([H])[H])[H])([H])[H])c3c(c(F)c(c(c3C2=O)[H])[H])[H])([H])[H])([H])[H])no1)([H])([H])[H]

>  <h>  (67) 
<NA>

>  <Training>  (67) 
True

>  <Success>  (67) 
True

>  <enamine_searched>  (67) 
False

>  <enamine_id>  (67) 
nan

$$$$

     RDKit          3D

 64 68  0  0  0  0  0  0  0  0999 V2000
    6.8297    6.5072   22.5437 C   0  0  0  0  0  0  0  0  0  0  0  0
    7.4554    6.3799   23.9379 C   0  0  0  0  0  0  0  0  0  0  0  0
    8.0187    4.9928   24.1982 C   0  0  0  0  0  0  0  0  0  0  0  0
    7.2808    4.0883   24.5281 O   0  0  0  0  0  0  0  0  0  0  0  0
    9.4016    4.8162   24.0588 N   0  0  0  0  0  0  0  0  0  0  0  0
   10.2729    5.9167   24.4748 C   0  0  0  0  0  0  0  0  0  0  0  0
   11.6176    5.4444   25.0096 C   0  0  0  0  0  0  0  0  0  0  0  0
   12.2561    4.4865   24.0048 C   0  0  0  0  0  0  0  0  0  0  0  0
   11.3207    3.3239   23.7336 C   0  0  0  0  0  0  0  0  0  0  0  0
   11.7830    2.0213   23.5208 C   0  0  0  0  0  0  0  0  0  0  0  0
   10.9336    1.0169   23.0598 C   0  0  0  0  0  0  0  0  0  0  0  0
    9.6021    1.3300   22.7693 C   0  0  0  0  0  0  0  0  0  0  0  0
    8.7205    0.3273   22.2398 N   0  0  0  0  0  0  0  0  0  0  0  0
    8.5383   -0.9114   23.0063 C   0  0  0  0  0  0  0  0  0  0  0  0
    8.0370   -0.6356   24.4065 C   0  0  0  0  0  0  0  0  0  0  0  0
    6.6771   -0.4478   24.6660 C   0  0  0  0  0  0  0  0  0  0  0  0
    6.2545   -0.0666   25.9364 C   0  0  0  0  0  0  0  0  0  0  0  0
    7.1873    0.1707   26.9436 C   0  0  0  0  0  0  0  0  0  0  0  0
    8.5333   -0.0312   26.6726 C   0  0  0  0  0  0  0  0  0  0  0  0
    9.7531    0.3293   27.8470 Cl  0  0  0  0  0  0  0  0  0  0  0  0
    8.9588   -0.4633   25.4327 C   0  0  0  0  0  0  0  0  0  0  0  0
   10.0187   -0.6376   25.2533 H   0  0  0  0  0  0  0  0  0  0  0  0
    6.9004    0.5187   27.9284 H   0  0  0  0  0  0  0  0  0  0  0  0
    5.1987    0.0672   26.1612 H   0  0  0  0  0  0  0  0  0  0  0  0
    5.9375   -0.6108   23.8798 H   0  0  0  0  0  0  0  0  0  0  0  0
    7.8354   -1.5637   22.4842 H   0  0  0  0  0  0  0  0  0  0  0  0
    9.4954   -1.4424   23.0604 H   0  0  0  0  0  0  0  0  0  0  0  0
    7.9774    0.6682   21.1216 C   0  0  0  0  0  0  0  0  0  0  0  0
    8.1680    1.7175   20.5382 O   0  0  0  0  0  0  0  0  0  0  0  0
    6.9163   -0.3381   20.6589 C   0  0  0  0  0  0  0  0  0  0  0  0
    6.0291    0.1746   19.5686 C   0  0  0  0  0  0  0  0  0  0  0  0
    6.2811   -0.1231   18.2565 C   0  0  0  0  0  0  0  0  0  0  0  0
    5.5517    0.3191   17.2018 N   0  0  0  0  0  0  0  0  0  0  0  0
    4.5224    1.0927   17.4538 C   0  0  0  0  0  0  0  0  0  0  0  0
    4.1380    1.4638   18.7716 C   0  0  0  0  0  0  0  0  0  0  0  0
    3.0117    2.2721   19.0434 C   0  0  0  0  0  0  0  0  0  0  0  0
    2.2652    2.6702   17.9995 F   0  0  0  0  0  0  0  0  0  0  0  0
    2.6615    2.6509   20.3079 C   0  0  0  0  0  0  0  0  0  0  0  0
    3.4551    2.2118   21.3867 C   0  0  0  0  0  0  0  0  0  0  0  0
    4.5530    1.4141   21.1781 C   0  0  0  0  0  0  0  0  0  0  0  0
    4.9149    1.0131   19.8648 C   0  0  0  0  0  0  0  0  0  0  0  0
    5.1589    1.1000   22.0238 H   0  0  0  0  0  0  0  0  0  0  0  0
    3.1887    2.5127   22.3947 H   0  0  0  0  0  0  0  0  0  0  0  0
    1.7927    3.2801   20.4640 H   0  0  0  0  0  0  0  0  0  0  0  0
    3.9467    1.4623   16.6077 H   0  0  0  0  0  0  0  0  0  0  0  0
    7.1177   -0.7719   17.9935 H   0  0  0  0  0  0  0  0  0  0  0  0
    7.4515   -1.2344   20.3229 H   0  0  0  0  0  0  0  0  0  0  0  0
    6.3015   -0.6278   21.5173 H   0  0  0  0  0  0  0  0  0  0  0  0
    9.1098    2.6002   23.0530 C   0  0  0  0  0  0  0  0  0  0  0  0
    9.9359    3.5709   23.6302 C   0  0  0  0  0  0  0  0  0  0  0  0
    8.0831    2.8407   22.8078 H   0  0  0  0  0  0  0  0  0  0  0  0
   11.3106    0.0073   22.8862 H   0  0  0  0  0  0  0  0  0  0  0  0
   12.8351    1.7834   23.6887 H   0  0  0  0  0  0  0  0  0  0  0  0
   12.4553    5.0251   23.0614 H   0  0  0  0  0  0  0  0  0  0  0  0
   13.2295    4.1265   24.3569 H   0  0  0  0  0  0  0  0  0  0  0  0
   12.2108    6.3408   25.1989 H   0  0  0  0  0  0  0  0  0  0  0  0
   11.5391    4.9631   25.9886 H   0  0  0  0  0  0  0  0  0  0  0  0
   10.4336    6.6109   23.6368 H   0  0  0  0  0  0  0  0  0  0  0  0
    9.7408    6.4735   25.2502 H   0  0  0  0  0  0  0  0  0  0  0  0
    6.6891    6.5162   24.7048 H   0  0  0  0  0  0  0  0  0  0  0  0
    8.2010    7.1685   24.0618 H   0  0  0  0  0  0  0  0  0  0  0  0
    6.3773    7.4950   22.4236 H   0  0  0  0  0  0  0  0  0  0  0  0
    7.5847    6.3939   21.7586 H   0  0  0  0  0  0  0  0  0  0  0  0
    6.0466    5.7626   22.3741 H   0  0  0  0  0  0  0  0  0  0  0  0
  1  2  1  0
  2  3  1  0
  3  4  2  0
  3  5  1  0
  5  6  1  0
  6  7  1  0
  7  8  1  0
  8  9  1  0
  9 10  2  0
 10 11  1  0
 11 12  2  0
 12 13  1  0
 13 14  1  0
 14 15  1  0
 15 16  2  0
 16 17  1  0
 17 18  2  0
 18 19  1  0
 19 20  1  0
 19 21  2  0
 21 22  1  0
 18 23  1  0
 17 24  1  0
 16 25  1  0
 14 26  1  0
 14 27  1  0
 13 28  1  0
 28 29  2  0
 28 30  1  0
 30 31  1  0
 31 32  2  0
 32 33  1  0
 33 34  2  0
 34 35  1  0
 35 36  2  0
 36 37  1  0
 36 38  1  0
 38 39  2  0
 39 40  1  0
 40 41  2  0
 40 42  1  0
 39 43  1  0
 38 44  1  0
 34 45  1  0
 32 46  1  0
 30 47  1  0
 30 48  1  0
 12 49  1  0
 49 50  2  0
 49 51  1  0
 11 52  1  0
 10 53  1  0
  8 54  1  0
  8 55  1  0
  7 56  1  0
  7 57  1  0
  6 58  1  0
  6 59  1  0
  2 60  1  0
  2 61  1  0
  1 62  1  0
  1 63  1  0
  1 64  1  0
 50  5  1  0
 50  9  1  0
 21 15  1  0
 41 31  1  0
 41 35  1  0
M  END
>  <cnnaffinities>  (68) 
[6.57714]

>  <score>  (68) 
6.57714

>  <index>  (68) 
69

>  <Smiles>  (68) 
C(C(C(=O)N1C(C(C(c2c(c(c(N(C(c3c(c(c(c(Cl)c3[H])[H])[H])[H])([H])[H])C(=O)C(c3c(nc(c4c(F)c(c(c(c34)[H])[H])[H])[H])[H])([H])[H])c(c12)[H])[H])[H])([H])[H])([H])[H])([H])[H])([H])[H])([H])([H])[H]

>  <h>  (68) 
<NA>

>  <Training>  (68) 
True

>  <Success>  (68) 
True

>  <enamine_searched>  (68) 
False

>  <enamine_id>  (68) 
nan

$$$$

     RDKit          3D

 57 62  0  0  0  0  0  0  0  0999 V2000
    9.7132   -1.7933   22.6798 C   0  0  0  0  0  0  0  0  0  0  0  0
    8.3511   -1.1655   22.4194 C   0  0  1  0  0  0  0  0  0  0  0  0
    8.1407   -0.7300   20.9676 C   0  0  0  0  0  0  0  0  0  0  0  0
    6.7000   -0.5509   20.9155 N   0  0  0  0  0  0  0  0  0  0  0  0
    6.0514    0.0790   19.8303 C   0  0  0  0  0  0  0  0  0  0  0  0
    6.5033   -0.1231   18.5458 C   0  0  0  0  0  0  0  0  0  0  0  0
    5.9041    0.3565   17.4315 N   0  0  0  0  0  0  0  0  0  0  0  0
    4.8385    1.1012   17.5827 C   0  0  0  0  0  0  0  0  0  0  0  0
    4.3117    1.4626   18.8523 C   0  0  0  0  0  0  0  0  0  0  0  0
    3.1779    2.3117   18.9473 C   0  0  0  0  0  0  0  0  0  0  0  0
    2.7161    2.7111   20.1697 C   0  0  0  0  0  0  0  0  0  0  0  0
    3.3733    2.2826   21.3431 C   0  0  0  0  0  0  0  0  0  0  0  0
    4.4655    1.4512   21.2780 C   0  0  0  0  0  0  0  0  0  0  0  0
    4.9450    0.9812   20.0203 C   0  0  0  0  0  0  0  0  0  0  0  0
    4.9539    1.1413   22.1952 H   0  0  0  0  0  0  0  0  0  0  0  0
    3.0150    2.6253   22.3085 H   0  0  0  0  0  0  0  0  0  0  0  0
    1.8568    3.3719   20.2432 H   0  0  0  0  0  0  0  0  0  0  0  0
    2.7101    2.6527   18.0275 H   0  0  0  0  0  0  0  0  0  0  0  0
    4.3450    1.4690   16.6812 H   0  0  0  0  0  0  0  0  0  0  0  0
    7.3927   -0.7243   18.3644 H   0  0  0  0  0  0  0  0  0  0  0  0
    6.0419   -1.3511   21.8383 C   0  0  0  0  0  0  0  0  0  0  0  0
    4.8639   -1.6138   21.7823 O   0  0  0  0  0  0  0  0  0  0  0  0
    7.0609   -1.9315   22.8600 C   0  0  1  0  0  0  0  0  0  0  0  0
    7.1286   -3.4819   22.6697 C   0  0  0  0  0  0  0  0  0  0  0  0
    6.0365   -4.2162   23.3335 N   0  0  0  0  0  0  0  0  0  0  0  0
    5.4838   -5.4483   22.7518 C   0  0  0  0  0  0  0  0  0  0  0  0
    6.3846   -6.6537   22.7357 C   0  0  0  0  0  0  0  0  0  0  0  0
    7.2753   -6.7260   21.7262 N   0  0  0  0  0  0  0  0  0  0  0  0
    7.9005   -7.8468   21.8981 N   0  0  0  0  0  0  0  0  0  0  0  0
    7.4110   -8.4375   22.9438 N   0  0  0  0  0  0  0  0  0  0  0  0
    8.0370   -9.7243   23.2194 C   0  0  0  0  0  0  0  0  0  0  0  0
    8.6851   -9.8782   22.3922 H   0  0  0  0  0  0  0  0  0  0  0  0
    7.3226  -10.5428   23.3566 H   0  0  0  0  0  0  0  0  0  0  0  0
    8.8234   -9.6794   23.9924 H   0  0  0  0  0  0  0  0  0  0  0  0
    6.4275   -7.7396   23.5226 N   0  0  0  0  0  0  0  0  0  0  0  0
    5.2560   -5.2316   21.6985 H   0  0  0  0  0  0  0  0  0  0  0  0
    4.5619   -5.6831   23.2911 H   0  0  0  0  0  0  0  0  0  0  0  0
    5.6680   -3.9374   24.6224 C   0  0  0  0  0  0  0  0  0  0  0  0
    4.9877   -4.7138   25.2813 O   0  0  0  0  0  0  0  0  0  0  0  0
    6.1154   -2.6151   25.1474 C   0  0  0  0  0  0  0  0  0  0  0  0
    5.8730   -2.3818   26.5045 C   0  0  0  0  0  0  0  0  0  0  0  0
    6.2038   -1.1808   27.0934 C   0  0  0  0  0  0  0  0  0  0  0  0
    6.7186   -0.2013   26.2574 C   0  0  0  0  0  0  0  0  0  0  0  0
    7.0295    0.9936   26.7876 F   0  0  0  0  0  0  0  0  0  0  0  0
    6.9550   -0.3948   24.9094 C   0  0  0  0  0  0  0  0  0  0  0  0
    6.6969   -1.6434   24.3174 C   0  0  0  0  0  0  0  0  0  0  0  0
    7.3287    0.4632   24.3598 H   0  0  0  0  0  0  0  0  0  0  0  0
    6.0572   -0.9633   28.1500 H   0  0  0  0  0  0  0  0  0  0  0  0
    5.4205   -3.1825   27.0786 H   0  0  0  0  0  0  0  0  0  0  0  0
    7.0945   -3.7252   21.6029 H   0  0  0  0  0  0  0  0  0  0  0  0
    8.0788   -3.8542   23.0730 H   0  0  0  0  0  0  0  0  0  0  0  0
    8.4894   -1.4831   20.2413 H   0  0  0  0  0  0  0  0  0  0  0  0
    8.6386    0.2221   20.7509 H   0  0  0  0  0  0  0  0  0  0  0  0
    8.2922   -0.2344   22.9780 H   0  0  0  0  0  0  0  0  0  0  0  0
    9.8465   -2.0559   23.7363 H   0  0  0  0  0  0  0  0  0  0  0  0
    9.8504   -2.7029   22.0812 H   0  0  0  0  0  0  0  0  0  0  0  0
   10.5122   -1.0888   22.4032 H   0  0  0  0  0  0  0  0  0  0  0  0
  1  2  1  0
  2  3  1  0
  3  4  1  0
  4  5  1  0
  5  6  2  0
  6  7  1  0
  7  8  2  0
  8  9  1  0
  9 10  2  0
 10 11  1  0
 11 12  2  0
 12 13  1  0
 13 14  2  0
 13 15  1  0
 12 16  1  0
 11 17  1  0
 10 18  1  0
  8 19  1  0
  6 20  1  0
  4 21  1  0
 21 22  2  0
 21 23  1  0
 23 24  1  1
 24 25  1  0
 25 26  1  0
 26 27  1  0
 27 28  1  0
 28 29  2  0
 29 30  1  0
 30 31  1  0
 31 32  1  0
 31 33  1  0
 31 34  1  0
 30 35  1  0
 26 36  1  0
 26 37  1  0
 25 38  1  0
 38 39  2  0
 38 40  1  0
 40 41  2  0
 41 42  1  0
 42 43  2  0
 43 44  1  0
 43 45  1  0
 45 46  2  0
 45 47  1  0
 42 48  1  0
 41 49  1  0
 24 50  1  0
 24 51  1  0
  3 52  1  0
  3 53  1  0
  2 54  1  1
  1 55  1  0
  1 56  1  0
  1 57  1  0
 23  2  1  0
 35 27  2  0
 46 40  1  0
 14  5  1  0
 46 23  1  0
 14  9  1  0
M  END
>  <cnnaffinities>  (69) 
[6.76267]

>  <score>  (69) 
6.76267

>  <index>  (69) 
70

>  <Smiles>  (69) 
C([C@]1(C(N(c2c(nc(c3c(c(c(c(c23)[H])[H])[H])[H])[H])[H])C(=O)[C@]21C(N(C(c1nnn(C([H])([H])[H])n1)([H])[H])C(=O)c1c(c(c(F)c(c21)[H])[H])[H])([H])[H])([H])[H])[H])([H])([H])[H]

>  <h>  (69) 
<NA>

>  <Training>  (69) 
True

>  <Success>  (69) 
True

>  <enamine_searched>  (69) 
False

>  <enamine_id>  (69) 
nan

$$$$

     RDKit          3D

 59 64  0  0  0  0  0  0  0  0999 V2000
    7.2757   -2.4734   23.8642 C   0  0  0  0  0  0  0  0  0  0  0  0
    7.6257   -1.7054   22.5922 C   0  0  1  0  0  0  0  0  0  0  0  0
    6.4927   -1.5972   21.5603 C   0  0  0  0  0  0  0  0  0  0  0  0
    6.8661   -0.4149   20.8100 N   0  0  0  0  0  0  0  0  0  0  0  0
    6.0956    0.0985   19.7443 C   0  0  0  0  0  0  0  0  0  0  0  0
    6.4289   -0.2205   18.4563 C   0  0  0  0  0  0  0  0  0  0  0  0
    5.7515    0.2256   17.3744 N   0  0  0  0  0  0  0  0  0  0  0  0
    4.7325    1.0236   17.5768 C   0  0  0  0  0  0  0  0  0  0  0  0
    4.2857    1.4275   18.8682 C   0  0  0  0  0  0  0  0  0  0  0  0
    3.1728    2.2889   19.0448 C   0  0  0  0  0  0  0  0  0  0  0  0
    2.7609    2.6414   20.3008 C   0  0  0  0  0  0  0  0  0  0  0  0
    3.4415    2.1546   21.4405 C   0  0  0  0  0  0  0  0  0  0  0  0
    4.5297    1.3304   21.2963 C   0  0  0  0  0  0  0  0  0  0  0  0
    4.9818    0.9533   19.9956 C   0  0  0  0  0  0  0  0  0  0  0  0
    5.0565    0.9644   22.1737 H   0  0  0  0  0  0  0  0  0  0  0  0
    3.1068    2.4436   22.4319 H   0  0  0  0  0  0  0  0  0  0  0  0
    1.9120    3.3052   20.4302 H   0  0  0  0  0  0  0  0  0  0  0  0
    2.6755    2.6654   18.1566 H   0  0  0  0  0  0  0  0  0  0  0  0
    4.1997    1.3871   16.6974 H   0  0  0  0  0  0  0  0  0  0  0  0
    7.2834   -0.8653   18.2530 H   0  0  0  0  0  0  0  0  0  0  0  0
    7.7187    0.4323   21.4821 C   0  0  0  0  0  0  0  0  0  0  0  0
    7.9962    1.5481   21.1042 O   0  0  0  0  0  0  0  0  0  0  0  0
    8.2121   -0.2764   22.7545 C   0  0  1  0  0  0  0  0  0  0  0  0
    7.6776    0.4821   23.9971 C   0  0  0  0  0  0  0  0  0  0  0  0
    8.2267    1.8267   24.0555 N   0  0  0  0  0  0  0  0  0  0  0  0
    7.3466    2.9881   24.1367 C   0  0  0  0  0  0  0  0  0  0  0  0
    7.0940    3.5267   25.5240 C   0  0  0  0  0  0  0  0  0  0  0  0
    7.5709    4.6793   25.9335 N   0  0  0  0  0  0  0  0  0  0  0  0
    7.1853    4.7943   27.2465 C   0  0  0  0  0  0  0  0  0  0  0  0
    6.4493    3.7109   27.6208 C   0  0  0  0  0  0  0  0  0  0  0  0
    6.3754    2.9008   26.5070 N   0  0  0  0  0  0  0  0  0  0  0  0
    5.5687    1.6995   26.4080 C   0  0  0  0  0  0  0  0  0  0  0  0
    4.9771    1.7009   25.4874 H   0  0  0  0  0  0  0  0  0  0  0  0
    6.1937    0.8020   26.4372 H   0  0  0  0  0  0  0  0  0  0  0  0
    4.8757    1.6755   27.2519 H   0  0  0  0  0  0  0  0  0  0  0  0
    6.0282    3.4067   28.5717 H   0  0  0  0  0  0  0  0  0  0  0  0
    7.4915    5.6397   27.8483 H   0  0  0  0  0  0  0  0  0  0  0  0
    6.3922    2.7465   23.6444 H   0  0  0  0  0  0  0  0  0  0  0  0
    7.8184    3.7954   23.5652 H   0  0  0  0  0  0  0  0  0  0  0  0
    9.5754    2.0317   23.8625 C   0  0  0  0  0  0  0  0  0  0  0  0
   10.0877    3.1354   23.9753 O   0  0  0  0  0  0  0  0  0  0  0  0
   10.3737    0.8152   23.4595 C   0  0  0  0  0  0  0  0  0  0  0  0
   11.7547    0.7616   23.6660 C   0  0  0  0  0  0  0  0  0  0  0  0
   12.4972   -0.3130   23.1975 C   0  0  0  0  0  0  0  0  0  0  0  0
   11.8415   -1.2756   22.4366 C   0  0  0  0  0  0  0  0  0  0  0  0
   12.5139   -2.3522   21.9953 F   0  0  0  0  0  0  0  0  0  0  0  0
   10.4985   -1.2015   22.1517 C   0  0  0  0  0  0  0  0  0  0  0  0
    9.7238   -0.2340   22.7994 C   0  0  0  0  0  0  0  0  0  0  0  0
   10.0899   -1.9174   21.4459 H   0  0  0  0  0  0  0  0  0  0  0  0
   13.5632   -0.4159   23.3659 H   0  0  0  0  0  0  0  0  0  0  0  0
   12.2436    1.5685   24.1963 H   0  0  0  0  0  0  0  0  0  0  0  0
    7.9681   -0.0643   24.9055 H   0  0  0  0  0  0  0  0  0  0  0  0
    6.5824    0.5179   23.9682 H   0  0  0  0  0  0  0  0  0  0  0  0
    5.4973   -1.5002   22.0266 H   0  0  0  0  0  0  0  0  0  0  0  0
    6.4653   -2.4698   20.8983 H   0  0  0  0  0  0  0  0  0  0  0  0
    8.4061   -2.2769   22.0916 H   0  0  0  0  0  0  0  0  0  0  0  0
    6.9804   -3.5005   23.6168 H   0  0  0  0  0  0  0  0  0  0  0  0
    8.1459   -2.5295   24.5290 H   0  0  0  0  0  0  0  0  0  0  0  0
    6.4514   -2.0131   24.4227 H   0  0  0  0  0  0  0  0  0  0  0  0
  1  2  1  0
  2  3  1  0
  3  4  1  0
  4  5  1  0
  5  6  2  0
  6  7  1  0
  7  8  2  0
  8  9  1  0
  9 10  2  0
 10 11  1  0
 11 12  2  0
 12 13  1  0
 13 14  2  0
 13 15  1  0
 12 16  1  0
 11 17  1  0
 10 18  1  0
  8 19  1  0
  6 20  1  0
  4 21  1  0
 21 22  2  0
 21 23  1  0
 23 24  1  1
 24 25  1  0
 25 26  1  0
 26 27  1  0
 27 28  2  0
 28 29  1  0
 29 30  2  0
 30 31  1  0
 31 32  1  0
 32 33  1  0
 32 34  1  0
 32 35  1  0
 30 36  1  0
 29 37  1  0
 26 38  1  0
 26 39  1  0
 25 40  1  0
 40 41  2  0
 40 42  1  0
 42 43  2  0
 43 44  1  0
 44 45  2  0
 45 46  1  0
 45 47  1  0
 47 48  2  0
 47 49  1  0
 44 50  1  0
 43 51  1  0
 24 52  1  0
 24 53  1  0
  3 54  1  0
  3 55  1  0
  2 56  1  6
  1 57  1  0
  1 58  1  0
  1 59  1  0
 23  2  1  0
 31 27  1  0
 48 42  1  0
 14  5  1  0
 48 23  1  0
 14  9  1  0
M  END
>  <cnnaffinities>  (70) 
[6.17099]

>  <score>  (70) 
6.17099

>  <index>  (70) 
71

>  <Smiles>  (70) 
C([C@]1(C(N(c2c(nc(c3c(c(c(c(c23)[H])[H])[H])[H])[H])[H])C(=O)[C@]21C(N(C(c1nc(c(n1C([H])([H])[H])[H])[H])([H])[H])C(=O)c1c(c(c(F)c(c21)[H])[H])[H])([H])[H])([H])[H])[H])([H])([H])[H]

>  <h>  (70) 
<NA>

>  <Training>  (70) 
True

>  <Success>  (70) 
True

>  <enamine_searched>  (70) 
False

>  <enamine_id>  (70) 
nan

$$$$

     RDKit          3D

 60 64  0  0  0  0  0  0  0  0999 V2000
    7.7611   -8.4792   22.8921 C   0  0  0  0  0  0  0  0  0  0  0  0
    6.8302   -7.3822   22.7770 N   0  0  0  0  0  0  0  0  0  0  0  0
    6.9186   -6.5599   21.7044 C   0  0  0  0  0  0  0  0  0  0  0  0
    7.6513   -6.7772   20.7569 O   0  0  0  0  0  0  0  0  0  0  0  0
    6.0804   -5.2915   21.7791 C   0  0  0  0  0  0  0  0  0  0  0  0
    6.6458   -4.3340   22.7158 N   0  0  0  0  0  0  0  0  0  0  0  0
    7.7362   -3.4438   22.3256 C   0  0  0  0  0  0  0  0  0  0  0  0
    7.3895   -1.9721   22.6571 C   0  0  2  0  0  0  0  0  0  0  0  0
    6.3256   -1.4631   21.6612 C   0  0  0  0  0  0  0  0  0  0  0  0
    5.1989   -1.8901   21.5162 O   0  0  0  0  0  0  0  0  0  0  0  0
    6.8705   -0.4434   20.9030 N   0  0  0  0  0  0  0  0  0  0  0  0
    6.1454    0.0988   19.8173 C   0  0  0  0  0  0  0  0  0  0  0  0
    6.4872   -0.2114   18.5246 C   0  0  0  0  0  0  0  0  0  0  0  0
    5.8225    0.2259   17.4290 N   0  0  0  0  0  0  0  0  0  0  0  0
    4.7905    1.0083   17.6238 C   0  0  0  0  0  0  0  0  0  0  0  0
    4.3324    1.4088   18.9096 C   0  0  0  0  0  0  0  0  0  0  0  0
    3.2103    2.2624   19.0569 C   0  0  0  0  0  0  0  0  0  0  0  0
    2.7933    2.6484   20.2995 C   0  0  0  0  0  0  0  0  0  0  0  0
    3.4788    2.2043   21.4515 C   0  0  0  0  0  0  0  0  0  0  0  0
    4.5681    1.3770   21.3364 C   0  0  0  0  0  0  0  0  0  0  0  0
    5.0206    0.9509   20.0536 C   0  0  0  0  0  0  0  0  0  0  0  0
    5.0835    1.0414   22.2310 H   0  0  0  0  0  0  0  0  0  0  0  0
    3.1429    2.5313   22.4317 H   0  0  0  0  0  0  0  0  0  0  0  0
    1.9404    3.3118   20.4079 H   0  0  0  0  0  0  0  0  0  0  0  0
    2.7071    2.6084   18.1578 H   0  0  0  0  0  0  0  0  0  0  0  0
    4.2502    1.3645   16.7457 H   0  0  0  0  0  0  0  0  0  0  0  0
    7.3302   -0.8751   18.3339 H   0  0  0  0  0  0  0  0  0  0  0  0
    8.3166   -0.4114   20.9891 C   0  0  0  0  0  0  0  0  0  0  0  0
    8.5821   -1.0091   22.3738 C   0  0  2  0  0  0  0  0  0  0  0  0
    9.9067   -1.5688   22.4571 N   0  0  0  0  0  0  0  0  0  0  0  0
   10.5508   -1.7604   23.6521 C   0  0  0  0  0  0  0  0  0  0  0  0
   10.0775   -1.3887   24.7081 O   0  0  0  0  0  0  0  0  0  0  0  0
   11.8704   -2.4929   23.5387 C   0  0  0  0  0  0  0  0  0  0  0  0
   11.7042   -3.5007   23.1459 H   0  0  0  0  0  0  0  0  0  0  0  0
   12.3177   -2.5755   24.5282 H   0  0  0  0  0  0  0  0  0  0  0  0
   12.5639   -1.9716   22.8712 H   0  0  0  0  0  0  0  0  0  0  0  0
   10.3587   -1.8238   21.5928 H   0  0  0  0  0  0  0  0  0  0  0  0
    8.5388   -0.2045   23.1032 H   0  0  0  0  0  0  0  0  0  0  0  0
    8.6878    0.6142   20.9073 H   0  0  0  0  0  0  0  0  0  0  0  0
    8.7987   -1.0238   20.2087 H   0  0  0  0  0  0  0  0  0  0  0  0
    6.8722   -1.9294   24.0864 C   0  0  0  0  0  0  0  0  0  0  0  0
    6.8207   -0.7198   24.7895 C   0  0  0  0  0  0  0  0  0  0  0  0
    6.3633   -0.6883   26.0945 C   0  0  0  0  0  0  0  0  0  0  0  0
    6.3332    0.8363   26.9377 Cl  0  0  0  0  0  0  0  0  0  0  0  0
    5.9349   -1.8370   26.7591 C   0  0  0  0  0  0  0  0  0  0  0  0
    5.9403   -3.0242   26.0574 C   0  0  0  0  0  0  0  0  0  0  0  0
    6.3757   -3.0701   24.7358 C   0  0  0  0  0  0  0  0  0  0  0  0
    6.1954   -4.3481   23.9968 C   0  0  0  0  0  0  0  0  0  0  0  0
    5.6321   -5.3343   24.4824 O   0  0  0  0  0  0  0  0  0  0  0  0
    5.5893   -3.9396   26.5148 H   0  0  0  0  0  0  0  0  0  0  0  0
    5.6000   -1.7840   27.7910 H   0  0  0  0  0  0  0  0  0  0  0  0
    7.1512    0.2092   24.3385 H   0  0  0  0  0  0  0  0  0  0  0  0
    7.9017   -3.5608   21.2601 H   0  0  0  0  0  0  0  0  0  0  0  0
    8.6757   -3.7090   22.8252 H   0  0  0  0  0  0  0  0  0  0  0  0
    6.0201   -4.8129   20.7954 H   0  0  0  0  0  0  0  0  0  0  0  0
    5.0710   -5.5546   22.1110 H   0  0  0  0  0  0  0  0  0  0  0  0
    6.2771   -7.0865   23.5719 H   0  0  0  0  0  0  0  0  0  0  0  0
    8.6970   -8.1777   23.3905 H   0  0  0  0  0  0  0  0  0  0  0  0
    8.0066   -8.8209   21.8943 H   0  0  0  0  0  0  0  0  0  0  0  0
    7.2781   -9.3148   23.3987 H   0  0  0  0  0  0  0  0  0  0  0  0
  1  2  1  0
  2  3  1  0
  3  4  2  0
  3  5  1  0
  5  6  1  0
  6  7  1  0
  8  7  1  6
  8  9  1  0
  9 10  2  0
  9 11  1  0
 11 12  1  0
 12 13  2  0
 13 14  1  0
 14 15  2  0
 15 16  1  0
 16 17  2  0
 17 18  1  0
 18 19  2  0
 19 20  1  0
 20 21  2  0
 20 22  1  0
 19 23  1  0
 18 24  1  0
 17 25  1  0
 15 26  1  0
 13 27  1  0
 11 28  1  0
 28 29  1  0
 29 30  1  0
 30 31  1  0
 31 32  2  0
 31 33  1  0
 33 34  1  0
 33 35  1  0
 33 36  1  0
 30 37  1  0
 29 38  1  1
 28 39  1  0
 28 40  1  0
  8 41  1  0
 41 42  2  0
 42 43  1  0
 43 44  1  0
 43 45  2  0
 45 46  1  0
 46 47  2  0
 47 48  1  0
 48 49  2  0
 46 50  1  0
 45 51  1  0
 42 52  1  0
  7 53  1  0
  7 54  1  0
  5 55  1  0
  5 56  1  0
  2 57  1  0
  1 58  1  0
  1 59  1  0
  1 60  1  0
 48  6  1  0
 29  8  1  0
 47 41  1  0
 21 12  1  0
 21 16  1  0
M  END
>  <cnnaffinities>  (71) 
[6.86542]

>  <score>  (71) 
6.86542

>  <index>  (71) 
72

>  <Smiles>  (71) 
C(N(C(=O)C(N1C([C@@]2(C(=O)N(c3c(nc(c4c(c(c(c(c34)[H])[H])[H])[H])[H])[H])C([C@@]2(N(C(=O)C([H])([H])[H])[H])[H])([H])[H])c2c(c(Cl)c(c(c2C1=O)[H])[H])[H])([H])[H])([H])[H])[H])([H])([H])[H]

>  <h>  (71) 
<NA>

>  <Training>  (71) 
True

>  <Success>  (71) 
True

>  <enamine_searched>  (71) 
False

>  <enamine_id>  (71) 
nan

$$$$

     RDKit          3D

 56 61  0  0  0  0  0  0  0  0999 V2000
    7.9227   -3.2197   23.0003 C   0  0  0  0  0  0  0  0  0  0  0  0
    7.9095   -2.0291   22.0478 C   0  0  1  0  0  0  0  0  0  0  0  0
    6.6789   -1.9193   21.1359 C   0  0  0  0  0  0  0  0  0  0  0  0
    6.7255   -0.5310   20.7091 N   0  0  0  0  0  0  0  0  0  0  0  0
    5.9772    0.0293   19.6505 C   0  0  0  0  0  0  0  0  0  0  0  0
    6.3024   -0.2567   18.3487 C   0  0  0  0  0  0  0  0  0  0  0  0
    5.6676    0.2617   17.2716 N   0  0  0  0  0  0  0  0  0  0  0  0
    4.6697    1.0863   17.4828 C   0  0  0  0  0  0  0  0  0  0  0  0
    4.2108    1.4495   18.7837 C   0  0  0  0  0  0  0  0  0  0  0  0
    3.1193    2.3398   18.9799 C   0  0  0  0  0  0  0  0  0  0  0  0
    2.7089    2.6697   20.2430 C   0  0  0  0  0  0  0  0  0  0  0  0
    3.3709    2.1261   21.3659 C   0  0  0  0  0  0  0  0  0  0  0  0
    4.4280    1.2692   21.2093 C   0  0  0  0  0  0  0  0  0  0  0  0
    4.8796    0.9114   19.9055 C   0  0  0  0  0  0  0  0  0  0  0  0
    4.9446    0.8776   22.0816 H   0  0  0  0  0  0  0  0  0  0  0  0
    3.0402    2.3980   22.3644 H   0  0  0  0  0  0  0  0  0  0  0  0
    1.8748    3.3497   20.3931 H   0  0  0  0  0  0  0  0  0  0  0  0
    2.6214    2.7558   18.1083 H   0  0  0  0  0  0  0  0  0  0  0  0
    4.1720    1.5068   16.6061 H   0  0  0  0  0  0  0  0  0  0  0  0
    7.1398   -0.9224   18.1402 H   0  0  0  0  0  0  0  0  0  0  0  0
    7.4753    0.2667   21.5462 C   0  0  0  0  0  0  0  0  0  0  0  0
    7.6216    1.4606   21.4056 O   0  0  0  0  0  0  0  0  0  0  0  0
    7.9917   -0.6273   22.7043 C   0  0  1  0  0  0  0  0  0  0  0  0
    6.9912   -0.4586   23.8914 C   0  0  0  0  0  0  0  0  0  0  0  0
    6.9732    0.9133   24.3775 N   0  0  0  0  0  0  0  0  0  0  0  0
    5.7152    1.5548   24.7560 C   0  0  0  0  0  0  0  0  0  0  0  0
    5.5533    3.0337   24.3268 C   0  0  0  0  0  0  0  0  0  0  0  0
    5.9042    3.4604   25.7244 N   0  0  0  0  0  4  0  0  0  0  0  0
    5.5971    2.0759   26.2124 C   0  0  0  0  0  0  0  0  0  0  0  0
    4.5765    1.9848   26.5863 H   0  0  0  0  0  0  0  0  0  0  0  0
    6.3233    1.7318   26.9478 H   0  0  0  0  0  0  0  0  0  0  0  0
    5.5415    4.3083   26.1617 H   0  0  0  0  0  0  0  0  0  0  0  0
    6.9471    3.4952   25.7014 H   0  0  0  0  0  0  0  0  0  0  0  0
    4.5293    3.3132   24.0779 H   0  0  0  0  0  0  0  0  0  0  0  0
    6.2704    3.4003   23.5938 H   0  0  0  0  0  0  0  0  0  0  0  0
    4.9296    0.8642   24.4435 H   0  0  0  0  0  0  0  0  0  0  0  0
    8.1434    1.5713   24.5434 C   0  0  0  0  0  0  0  0  0  0  0  0
    8.2101    2.7259   24.9820 O   0  0  0  0  0  0  0  0  0  0  0  0
    9.3823    0.8657   24.1165 C   0  0  0  0  0  0  0  0  0  0  0  0
   10.5823    1.3631   24.6013 C   0  0  0  0  0  0  0  0  0  0  0  0
   11.7832    0.8232   24.2126 C   0  0  0  0  0  0  0  0  0  0  0  0
   11.7599   -0.2155   23.2836 C   0  0  0  0  0  0  0  0  0  0  0  0
   13.2804   -0.8677   22.7727 Cl  0  0  0  0  0  0  0  0  0  0  0  0
   10.5764   -0.7232   22.7775 C   0  0  0  0  0  0  0  0  0  0  0  0
    9.3503   -0.1976   23.2046 C   0  0  0  0  0  0  0  0  0  0  0  0
   10.6108   -1.5228   22.0456 H   0  0  0  0  0  0  0  0  0  0  0  0
   12.7207    1.1948   24.6058 H   0  0  0  0  0  0  0  0  0  0  0  0
   10.5525    2.2001   25.2768 H   0  0  0  0  0  0  0  0  0  0  0  0
    5.9879   -0.7179   23.5527 H   0  0  0  0  0  0  0  0  0  0  0  0
    7.2761   -1.1453   24.7018 H   0  0  0  0  0  0  0  0  0  0  0  0
    5.7640   -2.1348   21.7051 H   0  0  0  0  0  0  0  0  0  0  0  0
    6.6863   -2.5861   20.2749 H   0  0  0  0  0  0  0  0  0  0  0  0
    8.7759   -2.0974   21.3832 H   0  0  0  0  0  0  0  0  0  0  0  0
    8.0134   -4.1670   22.4593 H   0  0  0  0  0  0  0  0  0  0  0  0
    7.0051   -3.2593   23.5963 H   0  0  0  0  0  0  0  0  0  0  0  0
    8.7636   -3.1530   23.7006 H   0  0  0  0  0  0  0  0  0  0  0  0
  1  2  1  0
  2  3  1  0
  3  4  1  0
  4  5  1  0
  5  6  2  0
  6  7  1  0
  7  8  2  0
  8  9  1  0
  9 10  2  0
 10 11  1  0
 11 12  2  0
 12 13  1  0
 13 14  2  0
 13 15  1  0
 12 16  1  0
 11 17  1  0
 10 18  1  0
  8 19  1  0
  6 20  1  0
  4 21  1  0
 21 22  2  0
 21 23  1  0
 23 24  1  1
 24 25  1  0
 25 26  1  0
 26 27  1  0
 27 28  1  0
 28 29  1  0
 29 30  1  0
 29 31  1  0
 28 32  1  0
 28 33  1  0
 27 34  1  0
 27 35  1  0
 26 36  1  0
 25 37  1  0
 37 38  2  0
 37 39  1  0
 39 40  2  0
 40 41  1  0
 41 42  2  0
 42 43  1  0
 42 44  1  0
 44 45  2  0
 44 46  1  0
 41 47  1  0
 40 48  1  0
 24 49  1  0
 24 50  1  0
  3 51  1  0
  3 52  1  0
  2 53  1  6
  1 54  1  0
  1 55  1  0
  1 56  1  0
 23  2  1  0
 29 26  1  0
 45 39  1  0
 14  5  1  0
 45 23  1  0
 14  9  1  0
M  CHG  1  28   1
M  END
>  <cnnaffinities>  (72) 
[6.10751, 6.0908]

>  <score>  (72) 
6.10751

>  <index>  (72) 
73

>  <Smiles>  (72) 
C([C@]1(C(N(c2c(nc(c3c(c(c(c(c23)[H])[H])[H])[H])[H])[H])C(=O)[C@]21C(N(C1(C([N+](C1([H])[H])([H])[H])([H])[H])[H])C(=O)c1c(c(c(Cl)c(c21)[H])[H])[H])([H])[H])([H])[H])[H])([H])([H])[H]

>  <h>  (72) 
<NA>

>  <Training>  (72) 
True

>  <Success>  (72) 
True

>  <enamine_searched>  (72) 
False

>  <enamine_id>  (72) 
nan

$$$$

     RDKit          3D

 55 60  0  0  0  0  0  0  0  0999 V2000
    9.6742   -1.9805   21.8345 C   0  0  0  0  0  0  0  0  0  0  0  0
    8.6485   -0.9417   22.3124 C   0  0  1  0  0  0  0  0  0  0  0  0
    8.2455   -0.0126   21.1472 C   0  0  0  0  0  0  0  0  0  0  0  0
    6.9043   -0.4177   20.8102 N   0  0  0  0  0  0  0  0  0  0  0  0
    6.1418    0.1138   19.7515 C   0  0  0  0  0  0  0  0  0  0  0  0
    6.4696   -0.1867   18.4559 C   0  0  0  0  0  0  0  0  0  0  0  0
    5.7874    0.2571   17.3768 N   0  0  0  0  0  0  0  0  0  0  0  0
    4.7551    1.0345   17.5931 C   0  0  0  0  0  0  0  0  0  0  0  0
    4.3104    1.4202   18.8894 C   0  0  0  0  0  0  0  0  0  0  0  0
    3.1902    2.2732   19.0589 C   0  0  0  0  0  0  0  0  0  0  0  0
    2.7925    2.6508   20.3104 C   0  0  0  0  0  0  0  0  0  0  0  0
    3.4898    2.1853   21.4503 C   0  0  0  0  0  0  0  0  0  0  0  0
    4.5717    1.3507   21.3176 C   0  0  0  0  0  0  0  0  0  0  0  0
    5.0115    0.9475   20.0186 C   0  0  0  0  0  0  0  0  0  0  0  0
    5.0917    0.9879   22.2059 H   0  0  0  0  0  0  0  0  0  0  0  0
    3.1667    2.5025   22.4379 H   0  0  0  0  0  0  0  0  0  0  0  0
    1.9469    3.3211   20.4364 H   0  0  0  0  0  0  0  0  0  0  0  0
    2.6809    2.6328   18.1683 H   0  0  0  0  0  0  0  0  0  0  0  0
    4.2110    1.4016   16.7215 H   0  0  0  0  0  0  0  0  0  0  0  0
    7.3137   -0.8459   18.2571 H   0  0  0  0  0  0  0  0  0  0  0  0
    6.3386   -1.3083   21.6790 C   0  0  0  0  0  0  0  0  0  0  0  0
    5.2641   -1.8426   21.4866 O   0  0  0  0  0  0  0  0  0  0  0  0
    7.3010   -1.5187   22.8663 C   0  0  1  0  0  0  0  0  0  0  0  0
    7.3078   -3.0351   23.1510 C   0  0  0  0  0  0  0  0  0  0  0  0
    6.0129   -3.4395   23.6728 N   0  0  0  0  0  0  0  0  0  0  0  0
    5.2433   -4.4704   22.9881 C   0  0  0  0  0  0  0  0  0  0  0  0
    5.8549   -5.8190   23.2190 C   0  0  0  0  0  0  0  0  0  0  0  0
    7.0277   -6.3453   22.6072 C   0  0  0  0  0  0  0  0  0  0  0  0
    7.2492   -7.4841   23.2928 C   0  0  0  0  0  0  0  0  0  0  0  0
    6.2860   -7.6760   24.2013 O   0  0  0  0  0  0  0  0  0  0  0  0
    5.4018   -6.6212   24.1388 N   0  0  0  0  0  0  0  0  0  0  0  0
    8.0594   -8.1959   23.2799 H   0  0  0  0  0  0  0  0  0  0  0  0
    7.5940   -5.9421   21.7873 H   0  0  0  0  0  0  0  0  0  0  0  0
    4.2286   -4.4460   23.3988 H   0  0  0  0  0  0  0  0  0  0  0  0
    5.2215   -4.2524   21.9104 H   0  0  0  0  0  0  0  0  0  0  0  0
    5.5439   -2.8887   24.8346 C   0  0  0  0  0  0  0  0  0  0  0  0
    4.7392   -3.4555   25.5614 O   0  0  0  0  0  0  0  0  0  0  0  0
    6.0389   -1.4967   25.0937 C   0  0  0  0  0  0  0  0  0  0  0  0
    5.6400   -0.8828   26.2808 C   0  0  0  0  0  0  0  0  0  0  0  0
    5.8936    0.4554   26.5016 C   0  0  0  0  0  0  0  0  0  0  0  0
    6.5693    1.1560   25.5113 C   0  0  0  0  0  0  0  0  0  0  0  0
    6.7926    2.4689   25.6991 F   0  0  0  0  0  0  0  0  0  0  0  0
    7.0309    0.5581   24.3515 C   0  0  0  0  0  0  0  0  0  0  0  0
    6.7965   -0.8076   24.1308 C   0  0  0  0  0  0  0  0  0  0  0  0
    7.5729    1.1741   23.6422 H   0  0  0  0  0  0  0  0  0  0  0  0
    5.5533    0.9612   27.3975 H   0  0  0  0  0  0  0  0  0  0  0  0
    5.1017   -1.4727   27.0154 H   0  0  0  0  0  0  0  0  0  0  0  0
    7.4990   -3.5938   22.2310 H   0  0  0  0  0  0  0  0  0  0  0  0
    8.0945   -3.2808   23.8792 H   0  0  0  0  0  0  0  0  0  0  0  0
    8.2843    1.0510   21.4114 H   0  0  0  0  0  0  0  0  0  0  0  0
    8.9036   -0.1480   20.2931 H   0  0  0  0  0  0  0  0  0  0  0  0
    9.1458   -0.3640   23.0959 H   0  0  0  0  0  0  0  0  0  0  0  0
   10.5654   -1.4771   21.4437 H   0  0  0  0  0  0  0  0  0  0  0  0
    9.2813   -2.6147   21.0334 H   0  0  0  0  0  0  0  0  0  0  0  0
    9.9999   -2.6290   22.6512 H   0  0  0  0  0  0  0  0  0  0  0  0
  1  2  1  0
  2  3  1  0
  3  4  1  0
  4  5  1  0
  5  6  2  0
  6  7  1  0
  7  8  2  0
  8  9  1  0
  9 10  2  0
 10 11  1  0
 11 12  2  0
 12 13  1  0
 13 14  2  0
 13 15  1  0
 12 16  1  0
 11 17  1  0
 10 18  1  0
  8 19  1  0
  6 20  1  0
  4 21  1  0
 21 22  2  0
 21 23  1  0
 23 24  1  1
 24 25  1  0
 25 26  1  0
 26 27  1  0
 27 28  1  0
 28 29  2  0
 29 30  1  0
 30 31  1  0
 29 32  1  0
 28 33  1  0
 26 34  1  0
 26 35  1  0
 25 36  1  0
 36 37  2  0
 36 38  1  0
 38 39  2  0
 39 40  1  0
 40 41  2  0
 41 42  1  0
 41 43  1  0
 43 44  2  0
 43 45  1  0
 40 46  1  0
 39 47  1  0
 24 48  1  0
 24 49  1  0
  3 50  1  0
  3 51  1  0
  2 52  1  1
  1 53  1  0
  1 54  1  0
  1 55  1  0
 23  2  1  0
 31 27  2  0
 44 38  1  0
 14  5  1  0
 44 23  1  0
 14  9  1  0
M  END
>  <cnnaffinities>  (73) 
[6.23651]

>  <score>  (73) 
6.23651

>  <index>  (73) 
74

>  <Smiles>  (73) 
C([C@]1(C(N(c2c(nc(c3c(c(c(c(c23)[H])[H])[H])[H])[H])[H])C(=O)[C@]21C(N(C(c1c(c(on1)[H])[H])([H])[H])C(=O)c1c(c(c(F)c(c21)[H])[H])[H])([H])[H])([H])[H])[H])([H])([H])[H]

>  <h>  (73) 
<NA>

>  <Training>  (73) 
True

>  <Success>  (73) 
True

>  <enamine_searched>  (73) 
False

>  <enamine_id>  (73) 
nan

$$$$

     RDKit          3D

 70 75  0  0  0  0  0  0  0  0999 V2000
   11.9428   -1.2250   26.3307 C   0  0  0  0  0  0  0  0  0  0  0  0
   10.7245   -0.5771   26.6488 O   0  0  0  0  0  0  0  0  0  0  0  0
    9.5940   -1.3142   26.7309 C   0  0  0  0  0  0  0  0  0  0  0  0
    9.5730   -2.7008   26.5896 C   0  0  0  0  0  0  0  0  0  0  0  0
    8.3911   -3.3814   26.8568 C   0  0  0  0  0  0  0  0  0  0  0  0
    7.2541   -2.7041   27.2748 C   0  0  0  0  0  0  0  0  0  0  0  0
    7.2657   -1.3129   27.3958 C   0  0  0  0  0  0  0  0  0  0  0  0
    6.0514   -0.5640   27.9225 C   0  0  0  0  0  0  0  0  0  0  0  0
    5.3290    0.0719   26.8301 N   0  0  0  0  0  0  0  0  0  0  0  0
    5.7275    1.3340   26.4451 C   0  0  0  0  0  0  0  0  0  0  0  0
    6.0231    2.1935   27.2525 O   0  0  0  0  0  0  0  0  0  0  0  0
    5.8102    1.5472   24.9245 C   0  0  0  0  0  0  0  0  0  0  0  0
    7.0182    0.9571   24.3659 N   0  0  0  0  0  0  0  0  0  0  0  0
    7.0203   -0.4183   23.8870 C   0  0  0  0  0  0  0  0  0  0  0  0
    8.0522   -0.5901   22.7361 C   0  0  2  0  0  0  0  0  0  0  0  0
    7.5731    0.2903   21.5632 C   0  0  0  0  0  0  0  0  0  0  0  0
    7.7756    1.4706   21.3817 O   0  0  0  0  0  0  0  0  0  0  0  0
    6.8091   -0.5037   20.7390 N   0  0  0  0  0  0  0  0  0  0  0  0
    6.0567    0.0516   19.6854 C   0  0  0  0  0  0  0  0  0  0  0  0
    6.3736   -0.2428   18.3842 C   0  0  0  0  0  0  0  0  0  0  0  0
    5.7136    0.2505   17.3120 N   0  0  0  0  0  0  0  0  0  0  0  0
    4.7053    1.0572   17.5328 C   0  0  0  0  0  0  0  0  0  0  0  0
    4.2586    1.4272   18.8321 C   0  0  0  0  0  0  0  0  0  0  0  0
    3.1478    2.2907   19.0204 C   0  0  0  0  0  0  0  0  0  0  0  0
    2.7250    2.6175   20.2795 C   0  0  0  0  0  0  0  0  0  0  0  0
    3.4033    2.1013   21.4078 C   0  0  0  0  0  0  0  0  0  0  0  0
    4.4856    1.2747   21.2518 C   0  0  0  0  0  0  0  0  0  0  0  0
    4.9471    0.9163   19.9522 C   0  0  0  0  0  0  0  0  0  0  0  0
    5.0105    0.8977   22.1244 H   0  0  0  0  0  0  0  0  0  0  0  0
    3.0684    2.3723   22.4057 H   0  0  0  0  0  0  0  0  0  0  0  0
    1.8755    3.2797   20.4204 H   0  0  0  0  0  0  0  0  0  0  0  0
    2.6574    2.6887   18.1358 H   0  0  0  0  0  0  0  0  0  0  0  0
    4.1786    1.4526   16.6630 H   0  0  0  0  0  0  0  0  0  0  0  0
    7.2229   -0.8900   18.1644 H   0  0  0  0  0  0  0  0  0  0  0  0
    6.7665   -1.8981   21.1404 C   0  0  0  0  0  0  0  0  0  0  0  0
    7.9691   -1.9998   22.1000 C   0  0  2  0  0  0  0  0  0  0  0  0
    7.9311   -3.1582   23.0916 C   0  0  0  0  0  0  0  0  0  0  0  0
    7.0113   -3.1359   23.6896 H   0  0  0  0  0  0  0  0  0  0  0  0
    7.9862   -4.1244   22.5817 H   0  0  0  0  0  0  0  0  0  0  0  0
    8.7777   -3.0913   23.7878 H   0  0  0  0  0  0  0  0  0  0  0  0
    8.8488   -2.0963   21.4517 H   0  0  0  0  0  0  0  0  0  0  0  0
    6.8514   -2.5311   20.2607 H   0  0  0  0  0  0  0  0  0  0  0  0
    5.8146   -2.1595   21.6293 H   0  0  0  0  0  0  0  0  0  0  0  0
    9.4082   -0.1308   23.2295 C   0  0  0  0  0  0  0  0  0  0  0  0
   10.6299   -0.6583   22.7845 C   0  0  0  0  0  0  0  0  0  0  0  0
   11.8157   -0.1426   23.2743 C   0  0  0  0  0  0  0  0  0  0  0  0
   13.3114   -0.9285   22.8823 Cl  0  0  0  0  0  0  0  0  0  0  0  0
   11.8560    0.9441   24.1445 C   0  0  0  0  0  0  0  0  0  0  0  0
   10.6591    1.5067   24.5239 C   0  0  0  0  0  0  0  0  0  0  0  0
    9.4470    0.9844   24.0758 C   0  0  0  0  0  0  0  0  0  0  0  0
    8.1654    1.7010   24.4165 C   0  0  0  0  0  0  0  0  0  0  0  0
    8.1584    2.8844   24.7237 O   0  0  0  0  0  0  0  0  0  0  0  0
   10.6719    2.3283   25.2165 H   0  0  0  0  0  0  0  0  0  0  0  0
   12.8029    1.3066   24.5350 H   0  0  0  0  0  0  0  0  0  0  0  0
   10.7147   -1.4414   22.0414 H   0  0  0  0  0  0  0  0  0  0  0  0
    6.0105   -0.6687   23.5339 H   0  0  0  0  0  0  0  0  0  0  0  0
    7.2547   -1.1061   24.7084 H   0  0  0  0  0  0  0  0  0  0  0  0
    5.8539    2.6203   24.7310 H   0  0  0  0  0  0  0  0  0  0  0  0
    4.9346    1.0915   24.4413 H   0  0  0  0  0  0  0  0  0  0  0  0
    5.0792   -0.5615   26.0852 H   0  0  0  0  0  0  0  0  0  0  0  0
    6.3426    0.2320   28.6089 H   0  0  0  0  0  0  0  0  0  0  0  0
    5.3789   -1.2345   28.4603 H   0  0  0  0  0  0  0  0  0  0  0  0
    8.4117   -0.6166   27.0117 C   0  0  0  0  0  0  0  0  0  0  0  0
    8.4291    0.4680   26.9830 H   0  0  0  0  0  0  0  0  0  0  0  0
    6.3429   -3.2537   27.4835 H   0  0  0  0  0  0  0  0  0  0  0  0
    8.3673   -4.4622   26.7604 H   0  0  0  0  0  0  0  0  0  0  0  0
   10.4557   -3.2518   26.2851 H   0  0  0  0  0  0  0  0  0  0  0  0
   11.9156   -1.6185   25.3111 H   0  0  0  0  0  0  0  0  0  0  0  0
   12.7172   -0.4608   26.4006 H   0  0  0  0  0  0  0  0  0  0  0  0
   12.1847   -2.0447   27.0201 H   0  0  0  0  0  0  0  0  0  0  0  0
  1  2  1  0
  2  3  1  0
  3  4  2  0
  4  5  1  0
  5  6  2  0
  6  7  1  0
  7  8  1  0
  8  9  1  0
  9 10  1  0
 10 11  2  0
 10 12  1  0
 12 13  1  0
 13 14  1  0
 15 14  1  1
 15 16  1  0
 16 17  2  0
 16 18  1  0
 18 19  1  0
 19 20  2  0
 20 21  1  0
 21 22  2  0
 22 23  1  0
 23 24  2  0
 24 25  1  0
 25 26  2  0
 26 27  1  0
 27 28  2  0
 27 29  1  0
 26 30  1  0
 25 31  1  0
 24 32  1  0
 22 33  1  0
 20 34  1  0
 18 35  1  0
 35 36  1  0
 36 37  1  0
 37 38  1  0
 37 39  1  0
 37 40  1  0
 36 41  1  6
 35 42  1  0
 35 43  1  0
 15 44  1  0
 44 45  2  0
 45 46  1  0
 46 47  1  0
 46 48  2  0
 48 49  1  0
 49 50  2  0
 50 51  1  0
 51 52  2  0
 49 53  1  0
 48 54  1  0
 45 55  1  0
 14 56  1  0
 14 57  1  0
 12 58  1  0
 12 59  1  0
  9 60  1  0
  8 61  1  0
  8 62  1  0
  7 63  2  0
 63 64  1  0
  6 65  1  0
  5 66  1  0
  4 67  1  0
  1 68  1  0
  1 69  1  0
  1 70  1  0
 63  3  1  0
 51 13  1  0
 36 15  1  0
 50 44  1  0
 28 19  1  0
 28 23  1  0
M  END
>  <cnnaffinities>  (74) 
[6.7176]

>  <score>  (74) 
6.7176

>  <index>  (74) 
75

>  <Smiles>  (74) 
C(Oc1c(c(c(c(C(N(C(=O)C(N2C([C@@]3(C(=O)N(c4c(nc(c5c(c(c(c(c45)[H])[H])[H])[H])[H])[H])C([C@@]3(C([H])([H])[H])[H])([H])[H])c3c(c(Cl)c(c(c3C2=O)[H])[H])[H])([H])[H])([H])[H])[H])([H])[H])c1[H])[H])[H])[H])([H])([H])[H]

>  <h>  (74) 
<NA>

>  <Training>  (74) 
True

>  <Success>  (74) 
True

>  <enamine_searched>  (74) 
False

>  <enamine_id>  (74) 
nan

$$$$

     RDKit          3D

 61 65  0  0  0  0  0  0  0  0999 V2000
    9.7764   -1.8436   21.8842 C   0  0  0  0  0  0  0  0  0  0  0  0
    8.6573   -0.8956   22.3543 C   0  0  1  0  0  0  0  0  0  0  0  0
    8.1929   -0.0018   21.1810 C   0  0  0  0  0  0  0  0  0  0  0  0
    6.8710   -0.4849   20.8418 N   0  0  0  0  0  0  0  0  0  0  0  0
    6.1026    0.0558   19.7780 C   0  0  0  0  0  0  0  0  0  0  0  0
    6.4444   -0.2225   18.4796 C   0  0  0  0  0  0  0  0  0  0  0  0
    5.7796    0.2428   17.3965 N   0  0  0  0  0  0  0  0  0  0  0  0
    4.7504    1.0256   17.6035 C   0  0  0  0  0  0  0  0  0  0  0  0
    4.2956    1.4135   18.8945 C   0  0  0  0  0  0  0  0  0  0  0  0
    3.1812    2.2783   19.0613 C   0  0  0  0  0  0  0  0  0  0  0  0
    2.7814    2.6563   20.3125 C   0  0  0  0  0  0  0  0  0  0  0  0
    3.4856    2.1956   21.4497 C   0  0  0  0  0  0  0  0  0  0  0  0
    4.5667    1.3599   21.3183 C   0  0  0  0  0  0  0  0  0  0  0  0
    4.9917    0.9286   20.0271 C   0  0  0  0  0  0  0  0  0  0  0  0
    5.1009    1.0173   22.2054 H   0  0  0  0  0  0  0  0  0  0  0  0
    3.1616    2.5064   22.4376 H   0  0  0  0  0  0  0  0  0  0  0  0
    1.9293    3.3187   20.4393 H   0  0  0  0  0  0  0  0  0  0  0  0
    2.6714    2.6377   18.1701 H   0  0  0  0  0  0  0  0  0  0  0  0
    4.2220    1.3860   16.7203 H   0  0  0  0  0  0  0  0  0  0  0  0
    7.2925   -0.8701   18.2645 H   0  0  0  0  0  0  0  0  0  0  0  0
    6.3452   -1.3837   21.7380 C   0  0  0  0  0  0  0  0  0  0  0  0
    5.2480   -1.8996   21.6327 O   0  0  0  0  0  0  0  0  0  0  0  0
    7.3548   -1.5823   22.8911 C   0  0  1  0  0  0  0  0  0  0  0  0
    7.5446   -3.0863   23.1924 C   0  0  0  0  0  0  0  0  0  0  0  0
    6.3714   -3.6892   23.7948 N   0  0  0  0  0  0  0  0  0  0  0  0
    5.9722   -5.0332   23.4132 C   0  0  0  0  0  0  0  0  0  0  0  0
    4.7035   -5.0253   22.5544 C   0  0  0  0  0  0  0  0  0  0  0  0
    4.1712   -6.4072   22.2034 N   0  0  0  0  0  4  0  0  0  0  0  0
    3.6779   -7.1827   23.3787 C   0  0  0  0  0  0  0  0  0  0  0  0
    3.0976   -8.0446   23.0364 H   0  0  0  0  0  0  0  0  0  0  0  0
    4.5193   -7.5458   23.9735 H   0  0  0  0  0  0  0  0  0  0  0  0
    3.0488   -6.5386   23.9963 H   0  0  0  0  0  0  0  0  0  0  0  0
    5.1002   -7.2247   21.3705 C   0  0  0  0  0  0  0  0  0  0  0  0
    4.5690   -8.0926   20.9692 H   0  0  0  0  0  0  0  0  0  0  0  0
    5.4876   -6.6231   20.5465 H   0  0  0  0  0  0  0  0  0  0  0  0
    5.9323   -7.5859   21.9806 H   0  0  0  0  0  0  0  0  0  0  0  0
    3.3362   -6.2334   21.6260 H   0  0  0  0  0  0  0  0  0  0  0  0
    4.8919   -4.5017   21.6139 H   0  0  0  0  0  0  0  0  0  0  0  0
    3.8992   -4.5031   23.0800 H   0  0  0  0  0  0  0  0  0  0  0  0
    5.8122   -5.6021   24.3327 H   0  0  0  0  0  0  0  0  0  0  0  0
    6.8106   -5.4750   22.8631 H   0  0  0  0  0  0  0  0  0  0  0  0
    5.7081   -3.0961   24.8277 C   0  0  0  0  0  0  0  0  0  0  0  0
    4.8837   -3.7028   25.5037 O   0  0  0  0  0  0  0  0  0  0  0  0
    6.0182   -1.6447   25.0555 C   0  0  0  0  0  0  0  0  0  0  0  0
    5.4585   -1.0211   26.1704 C   0  0  0  0  0  0  0  0  0  0  0  0
    5.6334    0.3321   26.3820 C   0  0  0  0  0  0  0  0  0  0  0  0
    6.3643    1.0677   25.4517 C   0  0  0  0  0  0  0  0  0  0  0  0
    6.5523    2.7823   25.6902 Cl  0  0  0  0  0  0  0  0  0  0  0  0
    6.9338    0.4657   24.3424 C   0  0  0  0  0  0  0  0  0  0  0  0
    6.7918   -0.9138   24.1434 C   0  0  0  0  0  0  0  0  0  0  0  0
    7.4709    1.0958   23.6395 H   0  0  0  0  0  0  0  0  0  0  0  0
    5.2035    0.8310   27.2424 H   0  0  0  0  0  0  0  0  0  0  0  0
    4.8717   -1.6335   26.8465 H   0  0  0  0  0  0  0  0  0  0  0  0
    7.7295   -3.6125   22.2545 H   0  0  0  0  0  0  0  0  0  0  0  0
    8.4209   -3.1993   23.8526 H   0  0  0  0  0  0  0  0  0  0  0  0
    8.1707    1.0673   21.4412 H   0  0  0  0  0  0  0  0  0  0  0  0
    8.8645   -0.1056   20.3270 H   0  0  0  0  0  0  0  0  0  0  0  0
    9.0866   -0.2861   23.1589 H   0  0  0  0  0  0  0  0  0  0  0  0
    9.4414   -2.5051   21.0768 H   0  0  0  0  0  0  0  0  0  0  0  0
   10.6232   -1.2620   21.5020 H   0  0  0  0  0  0  0  0  0  0  0  0
   10.1571   -2.4651   22.6998 H   0  0  0  0  0  0  0  0  0  0  0  0
  1  2  1  0
  2  3  1  0
  3  4  1  0
  4  5  1  0
  5  6  2  0
  6  7  1  0
  7  8  2  0
  8  9  1  0
  9 10  2  0
 10 11  1  0
 11 12  2  0
 12 13  1  0
 13 14  2  0
 13 15  1  0
 12 16  1  0
 11 17  1  0
 10 18  1  0
  8 19  1  0
  6 20  1  0
  4 21  1  0
 21 22  2  0
 21 23  1  0
 23 24  1  1
 24 25  1  0
 25 26  1  0
 26 27  1  0
 27 28  1  0
 28 29  1  0
 29 30  1  0
 29 31  1  0
 29 32  1  0
 28 33  1  0
 33 34  1  0
 33 35  1  0
 33 36  1  0
 28 37  1  0
 27 38  1  0
 27 39  1  0
 26 40  1  0
 26 41  1  0
 25 42  1  0
 42 43  2  0
 42 44  1  0
 44 45  2  0
 45 46  1  0
 46 47  2  0
 47 48  1  0
 47 49  1  0
 49 50  2  0
 49 51  1  0
 46 52  1  0
 45 53  1  0
 24 54  1  0
 24 55  1  0
  3 56  1  0
  3 57  1  0
  2 58  1  1
  1 59  1  0
  1 60  1  0
  1 61  1  0
 23  2  1  0
 50 44  1  0
 14  5  1  0
 50 23  1  0
 14  9  1  0
M  CHG  1  28   1
M  END
>  <cnnaffinities>  (75) 
[6.20953, 6.04277]

>  <score>  (75) 
6.20953

>  <index>  (75) 
76

>  <Smiles>  (75) 
C([C@]1(C(N(c2c(nc(c3c(c(c(c(c23)[H])[H])[H])[H])[H])[H])C(=O)[C@]21C(N(C(C([N+](C([H])([H])[H])(C([H])([H])[H])[H])([H])[H])([H])[H])C(=O)c1c(c(c(Cl)c(c21)[H])[H])[H])([H])[H])([H])[H])[H])([H])([H])[H]

>  <h>  (75) 
<NA>

>  <Training>  (75) 
True

>  <Success>  (75) 
True

>  <enamine_searched>  (75) 
False

>  <enamine_id>  (75) 
nan

$$$$

     RDKit          3D

 57 60  0  0  0  0  0  0  0  0999 V2000
    9.4165    6.9348   24.8038 C   0  0  0  0  0  0  0  0  0  0  0  0
    8.2611    6.0749   25.3352 C   0  0  0  0  0  0  0  0  0  0  0  0
    8.4178    5.9524   26.8733 C   0  0  0  0  0  0  0  0  0  0  0  0
    9.4516    5.7141   27.1388 H   0  0  0  0  0  0  0  0  0  0  0  0
    8.1731    6.9162   27.3289 H   0  0  0  0  0  0  0  0  0  0  0  0
    7.7652    5.1862   27.3011 H   0  0  0  0  0  0  0  0  0  0  0  0
    6.9892    6.8126   25.1341 C   0  0  0  0  0  0  0  0  0  0  0  0
    6.0073    7.4175   25.0757 N   0  0  0  0  0  0  0  0  0  0  0  0
    8.1656    4.7207   24.6178 C   0  0  0  0  0  0  0  0  0  0  0  0
    7.0658    3.8963   24.8588 C   0  0  0  0  0  0  0  0  0  0  0  0
    6.9979    2.6225   24.3058 C   0  0  0  0  0  0  0  0  0  0  0  0
    8.0175    2.1603   23.4667 C   0  0  0  0  0  0  0  0  0  0  0  0
    7.9433    0.8586   22.8765 N   0  0  0  0  0  0  0  0  0  0  0  0
    8.1910   -0.2976   23.7398 C   0  0  0  0  0  0  0  0  0  0  0  0
    9.6588   -0.6978   23.8440 C   0  0  0  0  0  0  0  0  0  0  0  0
   10.2905   -1.3318   22.7709 C   0  0  0  0  0  0  0  0  0  0  0  0
   11.6541   -1.5963   22.8073 C   0  0  0  0  0  0  0  0  0  0  0  0
   12.3960   -1.3663   23.9584 C   0  0  0  0  0  0  0  0  0  0  0  0
   11.7456   -0.8111   25.0527 C   0  0  0  0  0  0  0  0  0  0  0  0
   12.6263   -0.6048   26.5347 Cl  0  0  0  0  0  0  0  0  0  0  0  0
   10.4067   -0.4397   24.9965 C   0  0  0  0  0  0  0  0  0  0  0  0
    9.9531    0.0567   25.8522 H   0  0  0  0  0  0  0  0  0  0  0  0
   13.4532   -1.6196   23.9884 H   0  0  0  0  0  0  0  0  0  0  0  0
   12.1704   -1.9573   21.9222 H   0  0  0  0  0  0  0  0  0  0  0  0
    9.7262   -1.6182   21.8839 H   0  0  0  0  0  0  0  0  0  0  0  0
    7.6192   -1.1476   23.3508 H   0  0  0  0  0  0  0  0  0  0  0  0
    7.8032   -0.0346   24.7299 H   0  0  0  0  0  0  0  0  0  0  0  0
    7.8018    0.7974   21.4886 C   0  0  0  0  0  0  0  0  0  0  0  0
    8.2402    1.6505   20.7413 O   0  0  0  0  0  0  0  0  0  0  0  0
    6.9988   -0.3800   20.9211 C   0  0  0  0  0  0  0  0  0  0  0  0
    6.1293    0.0778   19.7829 C   0  0  0  0  0  0  0  0  0  0  0  0
    6.4536   -0.2200   18.4855 C   0  0  0  0  0  0  0  0  0  0  0  0
    5.7870    0.2231   17.3899 N   0  0  0  0  0  0  0  0  0  0  0  0
    4.7637    1.0140   17.5933 C   0  0  0  0  0  0  0  0  0  0  0  0
    4.3068    1.4061   18.8820 C   0  0  0  0  0  0  0  0  0  0  0  0
    3.1985    2.2754   19.0464 C   0  0  0  0  0  0  0  0  0  0  0  0
    2.7798    2.6406   20.2969 C   0  0  0  0  0  0  0  0  0  0  0  0
    3.4558    2.1509   21.4379 C   0  0  0  0  0  0  0  0  0  0  0  0
    4.5356    1.3129   21.3032 C   0  0  0  0  0  0  0  0  0  0  0  0
    4.9993    0.9208   20.0154 C   0  0  0  0  0  0  0  0  0  0  0  0
    5.0435    0.9550   22.1946 H   0  0  0  0  0  0  0  0  0  0  0  0
    3.1189    2.4498   22.4272 H   0  0  0  0  0  0  0  0  0  0  0  0
    1.9339    3.3111   20.4195 H   0  0  0  0  0  0  0  0  0  0  0  0
    2.7017    2.6535   18.1563 H   0  0  0  0  0  0  0  0  0  0  0  0
    4.2367    1.3860   16.7135 H   0  0  0  0  0  0  0  0  0  0  0  0
    7.3130   -0.8570   18.2752 H   0  0  0  0  0  0  0  0  0  0  0  0
    6.3890   -0.8407   21.7056 H   0  0  0  0  0  0  0  0  0  0  0  0
    7.7192   -1.1271   20.5592 H   0  0  0  0  0  0  0  0  0  0  0  0
    9.1081    2.9786   23.2101 C   0  0  0  0  0  0  0  0  0  0  0  0
    9.1780    4.2391   23.7861 C   0  0  0  0  0  0  0  0  0  0  0  0
   10.0466    4.8481   23.5551 H   0  0  0  0  0  0  0  0  0  0  0  0
    9.8960    2.6308   22.5478 H   0  0  0  0  0  0  0  0  0  0  0  0
    6.1402    1.9868   24.5218 H   0  0  0  0  0  0  0  0  0  0  0  0
    6.2500    4.2593   25.4829 H   0  0  0  0  0  0  0  0  0  0  0  0
   10.3736    6.4551   25.0384 H   0  0  0  0  0  0  0  0  0  0  0  0
    9.4065    7.9162   25.2852 H   0  0  0  0  0  0  0  0  0  0  0  0
    9.3449    7.0666   23.7203 H   0  0  0  0  0  0  0  0  0  0  0  0
  1  2  1  0
  2  3  1  0
  3  4  1  0
  3  5  1  0
  3  6  1  0
  2  7  1  0
  7  8  3  0
  2  9  1  0
  9 10  2  0
 10 11  1  0
 11 12  2  0
 12 13  1  0
 13 14  1  0
 14 15  1  0
 15 16  2  0
 16 17  1  0
 17 18  2  0
 18 19  1  0
 19 20  1  0
 19 21  2  0
 21 22  1  0
 18 23  1  0
 17 24  1  0
 16 25  1  0
 14 26  1  0
 14 27  1  0
 13 28  1  0
 28 29  2  0
 28 30  1  0
 30 31  1  0
 31 32  2  0
 32 33  1  0
 33 34  2  0
 34 35  1  0
 35 36  2  0
 36 37  1  0
 37 38  2  0
 38 39  1  0
 39 40  2  0
 39 41  1  0
 38 42  1  0
 37 43  1  0
 36 44  1  0
 34 45  1  0
 32 46  1  0
 30 47  1  0
 30 48  1  0
 12 49  1  0
 49 50  2  0
 50 51  1  0
 49 52  1  0
 11 53  1  0
 10 54  1  0
  1 55  1  0
  1 56  1  0
  1 57  1  0
 50  9  1  0
 21 15  1  0
 40 31  1  0
 40 35  1  0
M  END
>  <cnnaffinities>  (76) 
[6.31067]

>  <score>  (76) 
6.31067

>  <index>  (76) 
77

>  <Smiles>  (76) 
C(C(C([H])([H])[H])(C#N)c1c(c(c(N(C(c2c(c(c(c(Cl)c2[H])[H])[H])[H])([H])[H])C(=O)C(c2c(nc(c3c(c(c(c(c23)[H])[H])[H])[H])[H])[H])([H])[H])c(c1[H])[H])[H])[H])([H])([H])[H]

>  <h>  (76) 
<NA>

>  <Training>  (76) 
True

>  <Success>  (76) 
True

>  <enamine_searched>  (76) 
False

>  <enamine_id>  (76) 
nan

$$$$

     RDKit          3D

 40 42  0  0  0  0  0  0  0  0999 V2000
   12.3677   -0.5525   24.8884 C   0  0  0  0  0  0  0  0  0  0  0  0
   11.5122   -0.5602   23.6251 C   0  0  0  0  0  0  0  0  0  0  0  0
   11.1973    0.8697   23.1876 C   0  0  0  0  0  0  0  0  0  0  0  0
   10.3700    0.8108   21.9172 C   0  0  0  0  0  0  0  0  0  0  0  0
    9.1217    0.0821   22.0758 N   0  0  0  0  0  0  0  0  0  0  0  0
    8.0251    0.5574   21.3900 C   0  0  0  0  0  0  0  0  0  0  0  0
    7.8997    1.7464   21.1466 O   0  0  0  0  0  0  0  0  0  0  0  0
    6.9687   -0.4570   20.9037 C   0  0  0  0  0  0  0  0  0  0  0  0
    6.1154    0.0806   19.7756 C   0  0  0  0  0  0  0  0  0  0  0  0
    6.4288   -0.2102   18.4751 C   0  0  0  0  0  0  0  0  0  0  0  0
    5.7637    0.2444   17.3811 N   0  0  0  0  0  0  0  0  0  0  0  0
    4.7414    1.0319   17.5877 C   0  0  0  0  0  0  0  0  0  0  0  0
    4.2908    1.4231   18.8753 C   0  0  0  0  0  0  0  0  0  0  0  0
    3.1735    2.2794   19.0483 C   0  0  0  0  0  0  0  0  0  0  0  0
    2.7685    2.6462   20.2996 C   0  0  0  0  0  0  0  0  0  0  0  0
    3.4703    2.1761   21.4324 C   0  0  0  0  0  0  0  0  0  0  0  0
    4.5572    1.3516   21.2919 C   0  0  0  0  0  0  0  0  0  0  0  0
    4.9988    0.9437   20.0053 C   0  0  0  0  0  0  0  0  0  0  0  0
    5.1067    1.0151   22.1662 H   0  0  0  0  0  0  0  0  0  0  0  0
    3.1455    2.4791   22.4247 H   0  0  0  0  0  0  0  0  0  0  0  0
    1.9168    3.3106   20.4262 H   0  0  0  0  0  0  0  0  0  0  0  0
    2.6674    2.6381   18.1538 H   0  0  0  0  0  0  0  0  0  0  0  0
    4.2108    1.3927   16.7037 H   0  0  0  0  0  0  0  0  0  0  0  0
    7.2727   -0.8602   18.2383 H   0  0  0  0  0  0  0  0  0  0  0  0
    7.4859   -1.3617   20.5563 H   0  0  0  0  0  0  0  0  0  0  0  0
    6.3484   -0.7635   21.7562 H   0  0  0  0  0  0  0  0  0  0  0  0
    9.3055   -1.2791   22.5448 C   0  0  0  0  0  0  0  0  0  0  0  0
   10.1682   -1.2744   23.8159 C   0  0  0  0  0  0  0  0  0  0  0  0
   10.3268   -2.3084   24.1453 H   0  0  0  0  0  0  0  0  0  0  0  0
    9.6239   -0.7368   24.6065 H   0  0  0  0  0  0  0  0  0  0  0  0
    8.3179   -1.7055   22.7500 H   0  0  0  0  0  0  0  0  0  0  0  0
    9.8018   -1.9085   21.7787 H   0  0  0  0  0  0  0  0  0  0  0  0
   10.9716    0.2602   21.1772 H   0  0  0  0  0  0  0  0  0  0  0  0
   10.0874    1.7981   21.5593 H   0  0  0  0  0  0  0  0  0  0  0  0
   12.1322    1.4125   23.0085 H   0  0  0  0  0  0  0  0  0  0  0  0
   10.6654    1.4113   23.9890 H   0  0  0  0  0  0  0  0  0  0  0  0
   12.0648   -1.0772   22.8173 H   0  0  0  0  0  0  0  0  0  0  0  0
   12.5607   -1.5638   25.2615 H   0  0  0  0  0  0  0  0  0  0  0  0
   13.3292   -0.0568   24.7119 H   0  0  0  0  0  0  0  0  0  0  0  0
   11.8445    0.0068   25.6702 H   0  0  0  0  0  0  0  0  0  0  0  0
  1  2  1  0
  2  3  1  0
  3  4  1  0
  4  5  1  0
  5  6  1  0
  6  7  2  0
  6  8  1  0
  8  9  1  0
  9 10  2  0
 10 11  1  0
 11 12  2  0
 12 13  1  0
 13 14  2  0
 14 15  1  0
 15 16  2  0
 16 17  1  0
 17 18  2  0
 17 19  1  0
 16 20  1  0
 15 21  1  0
 14 22  1  0
 12 23  1  0
 10 24  1  0
  8 25  1  0
  8 26  1  0
  5 27  1  0
 27 28  1  0
 28 29  1  0
 28 30  1  0
 27 31  1  0
 27 32  1  0
  4 33  1  0
  4 34  1  0
  3 35  1  0
  3 36  1  0
  2 37  1  0
  1 38  1  0
  1 39  1  0
  1 40  1  0
 28  2  1  0
 18  9  1  0
 18 13  1  0
M  END
>  <cnnaffinities>  (77) 
[5.4355, 5.43417, 4.70812, 4.70798, 5.14393]

>  <score>  (77) 
5.4355

>  <index>  (77) 
79

>  <Smiles>  (77) 
C(C1(C(C(N(C(=O)C(c2c(nc(c3c(c(c(c(c23)[H])[H])[H])[H])[H])[H])([H])[H])C(C1([H])[H])([H])[H])([H])[H])([H])[H])[H])([H])([H])[H]

>  <h>  (77) 
<NA>

>  <Training>  (77) 
True

>  <Success>  (77) 
True

>  <enamine_searched>  (77) 
False

>  <enamine_id>  (77) 
nan

$$$$

     RDKit          3D

 59 64  0  0  0  0  0  0  0  0999 V2000
    9.6921   -1.9624   21.8241 C   0  0  0  0  0  0  0  0  0  0  0  0
    8.6524   -0.9386   22.3060 C   0  0  1  0  0  0  0  0  0  0  0  0
    8.2303   -0.0163   21.1434 C   0  0  0  0  0  0  0  0  0  0  0  0
    6.8926   -0.4450   20.8140 N   0  0  0  0  0  0  0  0  0  0  0  0
    6.1275    0.0908   19.7583 C   0  0  0  0  0  0  0  0  0  0  0  0
    6.4641   -0.1986   18.4621 C   0  0  0  0  0  0  0  0  0  0  0  0
    5.7884    0.2519   17.3816 N   0  0  0  0  0  0  0  0  0  0  0  0
    4.7575    1.0295   17.6007 C   0  0  0  0  0  0  0  0  0  0  0  0
    4.3087    1.4121   18.8961 C   0  0  0  0  0  0  0  0  0  0  0  0
    3.1919    2.2692   19.0614 C   0  0  0  0  0  0  0  0  0  0  0  0
    2.7914    2.6500   20.3104 C   0  0  0  0  0  0  0  0  0  0  0  0
    3.4879    2.1873   21.4526 C   0  0  0  0  0  0  0  0  0  0  0  0
    4.5684    1.3499   21.3246 C   0  0  0  0  0  0  0  0  0  0  0  0
    5.0051    0.9356   20.0278 C   0  0  0  0  0  0  0  0  0  0  0  0
    5.0912    0.9993   22.2171 H   0  0  0  0  0  0  0  0  0  0  0  0
    3.1641    2.5091   22.4384 H   0  0  0  0  0  0  0  0  0  0  0  0
    1.9458    3.3209   20.4329 H   0  0  0  0  0  0  0  0  0  0  0  0
    2.6887    2.6294   18.1676 H   0  0  0  0  0  0  0  0  0  0  0  0
    4.2175    1.3986   16.7289 H   0  0  0  0  0  0  0  0  0  0  0  0
    7.3127   -0.8529   18.2640 H   0  0  0  0  0  0  0  0  0  0  0  0
    6.3492   -1.3502   21.6824 C   0  0  0  0  0  0  0  0  0  0  0  0
    5.2815   -1.9098   21.4993 O   0  0  0  0  0  0  0  0  0  0  0  0
    7.3184   -1.5284   22.8669 C   0  0  1  0  0  0  0  0  0  0  0  0
    7.3716   -3.0407   23.1872 C   0  0  0  0  0  0  0  0  0  0  0  0
    6.1236   -3.5112   23.7638 N   0  0  0  0  0  0  0  0  0  0  0  0
    5.2684   -4.4921   23.0798 C   0  0  0  0  0  0  0  0  0  0  0  0
    5.2526   -5.8030   23.8005 C   0  0  0  0  0  0  0  0  0  0  0  0
    4.4341   -6.3278   24.7883 C   0  0  0  0  0  0  0  0  0  0  0  0
    5.0905   -7.5024   25.1952 C   0  0  0  0  0  0  0  0  0  0  0  0
    6.2239   -7.6809   24.5301 N   0  0  0  0  0  0  0  0  0  0  0  0
    6.2921   -6.6561   23.6825 N   0  0  0  0  0  0  0  0  0  0  0  0
    7.4727   -6.4203   22.8990 C   0  0  0  0  0  0  0  0  0  0  0  0
    8.1291   -7.2739   23.0287 H   0  0  0  0  0  0  0  0  0  0  0  0
    7.9886   -5.5270   23.2615 H   0  0  0  0  0  0  0  0  0  0  0  0
    7.2164   -6.2948   21.8456 H   0  0  0  0  0  0  0  0  0  0  0  0
    4.8193   -8.1909   25.9855 H   0  0  0  0  0  0  0  0  0  0  0  0
    3.5600   -5.8670   25.2290 H   0  0  0  0  0  0  0  0  0  0  0  0
    4.2492   -4.0923   23.0625 H   0  0  0  0  0  0  0  0  0  0  0  0
    5.6151   -4.6006   22.0369 H   0  0  0  0  0  0  0  0  0  0  0  0
    5.5623   -2.8610   24.8274 C   0  0  0  0  0  0  0  0  0  0  0  0
    4.6564   -3.3456   25.4923 O   0  0  0  0  0  0  0  0  0  0  0  0
    6.0621   -1.4780   25.0765 C   0  0  0  0  0  0  0  0  0  0  0  0
    5.6338   -0.8661   26.2517 C   0  0  0  0  0  0  0  0  0  0  0  0
    5.8808    0.4720   26.4778 C   0  0  0  0  0  0  0  0  0  0  0  0
    6.5756    1.1736   25.4981 C   0  0  0  0  0  0  0  0  0  0  0  0
    6.7959    2.4891   25.6881 F   0  0  0  0  0  0  0  0  0  0  0  0
    7.0544    0.5743   24.3429 C   0  0  0  0  0  0  0  0  0  0  0  0
    6.8241   -0.7942   24.1198 C   0  0  0  0  0  0  0  0  0  0  0  0
    7.6064    1.1942   23.6432 H   0  0  0  0  0  0  0  0  0  0  0  0
    5.5187    0.9805   27.3649 H   0  0  0  0  0  0  0  0  0  0  0  0
    5.0708   -1.4646   26.9601 H   0  0  0  0  0  0  0  0  0  0  0  0
    8.1991   -3.2266   23.8897 H   0  0  0  0  0  0  0  0  0  0  0  0
    7.5388   -3.6021   22.2645 H   0  0  0  0  0  0  0  0  0  0  0  0
    8.8896   -0.1399   20.2862 H   0  0  0  0  0  0  0  0  0  0  0  0
    8.2520    1.0489   21.4090 H   0  0  0  0  0  0  0  0  0  0  0  0
    9.1413   -0.3535   23.0904 H   0  0  0  0  0  0  0  0  0  0  0  0
    9.3116   -2.6022   21.0200 H   0  0  0  0  0  0  0  0  0  0  0  0
   10.0281   -2.6069   22.6402 H   0  0  0  0  0  0  0  0  0  0  0  0
   10.5769   -1.4427   21.4383 H   0  0  0  0  0  0  0  0  0  0  0  0
  1  2  1  0
  2  3  1  0
  3  4  1  0
  4  5  1  0
  5  6  2  0
  6  7  1  0
  7  8  2  0
  8  9  1  0
  9 10  2  0
 10 11  1  0
 11 12  2  0
 12 13  1  0
 13 14  2  0
 13 15  1  0
 12 16  1  0
 11 17  1  0
 10 18  1  0
  8 19  1  0
  6 20  1  0
  4 21  1  0
 21 22  2  0
 21 23  1  0
 23 24  1  1
 24 25  1  0
 25 26  1  0
 26 27  1  0
 27 28  2  0
 28 29  1  0
 29 30  2  0
 30 31  1  0
 31 32  1  0
 32 33  1  0
 32 34  1  0
 32 35  1  0
 29 36  1  0
 28 37  1  0
 26 38  1  0
 26 39  1  0
 25 40  1  0
 40 41  2  0
 40 42  1  0
 42 43  2  0
 43 44  1  0
 44 45  2  0
 45 46  1  0
 45 47  1  0
 47 48  2  0
 47 49  1  0
 44 50  1  0
 43 51  1  0
 24 52  1  0
 24 53  1  0
  3 54  1  0
  3 55  1  0
  2 56  1  1
  1 57  1  0
  1 58  1  0
  1 59  1  0
 23  2  1  0
 31 27  1  0
 48 42  1  0
 14  5  1  0
 48 23  1  0
 14  9  1  0
M  END
>  <cnnaffinities>  (78) 
[6.37208]

>  <score>  (78) 
6.37208

>  <index>  (78) 
80

>  <Smiles>  (78) 
C([C@]1(C(N(c2c(nc(c3c(c(c(c(c23)[H])[H])[H])[H])[H])[H])C(=O)[C@]21C(N(C(c1c(c(nn1C([H])([H])[H])[H])[H])([H])[H])C(=O)c1c(c(c(F)c(c21)[H])[H])[H])([H])[H])([H])[H])[H])([H])([H])[H]

>  <h>  (78) 
<NA>

>  <Training>  (78) 
True

>  <Success>  (78) 
True

>  <enamine_searched>  (78) 
False

>  <enamine_id>  (78) 
nan

$$$$

     RDKit          3D

 58 63  0  0  0  0  0  0  0  0999 V2000
    8.7900   -8.3899   23.3628 C   0  0  0  0  0  0  0  0  0  0  0  0
    7.5960   -7.4887   23.4167 C   0  0  0  0  0  0  0  0  0  0  0  0
    7.2835   -6.4651   22.6904 N   0  0  0  0  0  0  0  0  0  0  0  0
    6.1568   -5.9252   23.3193 C   0  0  0  0  0  0  0  0  0  0  0  0
    5.5126   -4.6450   22.8954 C   0  0  0  0  0  0  0  0  0  0  0  0
    6.1095   -3.5005   23.5598 N   0  0  0  0  0  0  0  0  0  0  0  0
    7.4001   -3.0393   23.1021 C   0  0  0  0  0  0  0  0  0  0  0  0
    7.3212   -1.5372   22.8081 C   0  0  2  0  0  0  0  0  0  0  0  0
    6.3700   -1.3243   21.6174 C   0  0  0  0  0  0  0  0  0  0  0  0
    5.3025   -1.8713   21.4151 O   0  0  0  0  0  0  0  0  0  0  0  0
    6.9323   -0.4052   20.7695 N   0  0  0  0  0  0  0  0  0  0  0  0
    6.1664    0.1441   19.7156 C   0  0  0  0  0  0  0  0  0  0  0  0
    6.4939   -0.1361   18.4151 C   0  0  0  0  0  0  0  0  0  0  0  0
    5.7993    0.3094   17.3434 N   0  0  0  0  0  0  0  0  0  0  0  0
    4.7566    1.0712   17.5654 C   0  0  0  0  0  0  0  0  0  0  0  0
    4.3131    1.4472   18.8655 C   0  0  0  0  0  0  0  0  0  0  0  0
    3.1916    2.2972   19.0522 C   0  0  0  0  0  0  0  0  0  0  0  0
    2.7945    2.6507   20.3114 C   0  0  0  0  0  0  0  0  0  0  0  0
    3.4976    2.1699   21.4403 C   0  0  0  0  0  0  0  0  0  0  0  0
    4.5862    1.3485   21.2897 C   0  0  0  0  0  0  0  0  0  0  0  0
    5.0261    0.9671   19.9859 C   0  0  0  0  0  0  0  0  0  0  0  0
    5.1125    0.9776   22.1692 H   0  0  0  0  0  0  0  0  0  0  0  0
    3.1727    2.4605   22.4348 H   0  0  0  0  0  0  0  0  0  0  0  0
    1.9447    3.3124   20.4526 H   0  0  0  0  0  0  0  0  0  0  0  0
    2.6696    2.6652   18.1726 H   0  0  0  0  0  0  0  0  0  0  0  0
    4.2041    1.4248   16.6936 H   0  0  0  0  0  0  0  0  0  0  0  0
    7.3487   -0.7778   18.2023 H   0  0  0  0  0  0  0  0  0  0  0  0
    8.2532    0.0385   21.1603 C   0  0  0  0  0  0  0  0  0  0  0  0
    8.6622   -0.9209   22.3016 C   0  0  2  0  0  0  0  0  0  0  0  0
    9.6988   -1.9427   21.8048 C   0  0  0  0  0  0  0  0  0  0  0  0
   10.0019   -2.6274   22.6029 H   0  0  0  0  0  0  0  0  0  0  0  0
   10.6012   -1.4318   21.4516 H   0  0  0  0  0  0  0  0  0  0  0  0
    9.3123   -2.5426   20.9730 H   0  0  0  0  0  0  0  0  0  0  0  0
    9.1396   -0.3693   23.1193 H   0  0  0  0  0  0  0  0  0  0  0  0
    8.9462   -0.0395   20.3244 H   0  0  0  0  0  0  0  0  0  0  0  0
    8.2408    1.0892   21.4804 H   0  0  0  0  0  0  0  0  0  0  0  0
    6.7617   -0.8623   24.0598 C   0  0  0  0  0  0  0  0  0  0  0  0
    6.9801    0.5017   24.2924 C   0  0  0  0  0  0  0  0  0  0  0  0
    6.5503    1.0610   25.4835 C   0  0  0  0  0  0  0  0  0  0  0  0
    6.7858    2.3656   25.7120 F   0  0  0  0  0  0  0  0  0  0  0  0
    5.8760    0.3362   26.4605 C   0  0  0  0  0  0  0  0  0  0  0  0
    5.5819   -0.9874   26.1906 C   0  0  0  0  0  0  0  0  0  0  0  0
    5.9990   -1.5793   24.9971 C   0  0  0  0  0  0  0  0  0  0  0  0
    5.5518   -2.9779   24.6948 C   0  0  0  0  0  0  0  0  0  0  0  0
    4.7152   -3.5798   25.3586 O   0  0  0  0  0  0  0  0  0  0  0  0
    5.0323   -1.5961   26.9013 H   0  0  0  0  0  0  0  0  0  0  0  0
    5.5732    0.8217   27.3841 H   0  0  0  0  0  0  0  0  0  0  0  0
    7.4921    1.1393   23.5758 H   0  0  0  0  0  0  0  0  0  0  0  0
    7.6647   -3.6022   22.2049 H   0  0  0  0  0  0  0  0  0  0  0  0
    8.1632   -3.2310   23.8704 H   0  0  0  0  0  0  0  0  0  0  0  0
    4.4424   -4.6427   23.1323 H   0  0  0  0  0  0  0  0  0  0  0  0
    5.6238   -4.5089   21.8107 H   0  0  0  0  0  0  0  0  0  0  0  0
    5.8536   -6.6797   24.3945 C   0  0  0  0  0  0  0  0  0  0  0  0
    6.7620   -7.6749   24.4656 O   0  0  0  0  0  0  0  0  0  0  0  0
    5.1189   -6.6470   25.1815 H   0  0  0  0  0  0  0  0  0  0  0  0
    9.2383   -8.4665   24.3529 H   0  0  0  0  0  0  0  0  0  0  0  0
    8.5031   -9.3952   23.0437 H   0  0  0  0  0  0  0  0  0  0  0  0
    9.5798   -7.9768   22.7624 H   0  0  0  0  0  0  0  0  0  0  0  0
  1  2  1  0
  2  3  2  0
  3  4  1  0
  4  5  1  0
  5  6  1  0
  6  7  1  0
  8  7  1  1
  8  9  1  0
  9 10  2  0
  9 11  1  0
 11 12  1  0
 12 13  2  0
 13 14  1  0
 14 15  2  0
 15 16  1  0
 16 17  2  0
 17 18  1  0
 18 19  2  0
 19 20  1  0
 20 21  2  0
 20 22  1  0
 19 23  1  0
 18 24  1  0
 17 25  1  0
 15 26  1  0
 13 27  1  0
 11 28  1  0
 28 29  1  0
 29 30  1  0
 30 31  1  0
 30 32  1  0
 30 33  1  0
 29 34  1  1
 28 35  1  0
 28 36  1  0
  8 37  1  0
 37 38  2  0
 38 39  1  0
 39 40  1  0
 39 41  2  0
 41 42  1  0
 42 43  2  0
 43 44  1  0
 44 45  2  0
 42 46  1  0
 41 47  1  0
 38 48  1  0
  7 49  1  0
  7 50  1  0
  5 51  1  0
  5 52  1  0
  4 53  2  0
 53 54  1  0
 53 55  1  0
  1 56  1  0
  1 57  1  0
  1 58  1  0
 54  2  1  0
 44  6  1  0
 29  8  1  0
 43 37  1  0
 21 12  1  0
 21 16  1  0
M  END
>  <cnnaffinities>  (79) 
[6.60048]

>  <score>  (79) 
6.60048

>  <index>  (79) 
81

>  <Smiles>  (79) 
C(c1nc(C(N2C([C@@]3(C(=O)N(c4c(nc(c5c(c(c(c(c45)[H])[H])[H])[H])[H])[H])C([C@@]3(C([H])([H])[H])[H])([H])[H])c3c(c(F)c(c(c3C2=O)[H])[H])[H])([H])[H])([H])[H])c(o1)[H])([H])([H])[H]

>  <h>  (79) 
<NA>

>  <Training>  (79) 
True

>  <Success>  (79) 
True

>  <enamine_searched>  (79) 
False

>  <enamine_id>  (79) 
nan

$$$$

     RDKit          3D

 55 60  0  0  0  0  0  0  0  0999 V2000
    7.2555   -2.6284   23.7886 C   0  0  0  0  0  0  0  0  0  0  0  0
    7.5687   -1.8316   22.5228 C   0  0  1  0  0  0  0  0  0  0  0  0
    6.4059   -1.6618   21.5268 C   0  0  0  0  0  0  0  0  0  0  0  0
    6.7950   -0.4695   20.7984 N   0  0  0  0  0  0  0  0  0  0  0  0
    6.0545    0.0695   19.7200 C   0  0  0  0  0  0  0  0  0  0  0  0
    6.4036   -0.2240   18.4294 C   0  0  0  0  0  0  0  0  0  0  0  0
    5.7423    0.2502   17.3487 N   0  0  0  0  0  0  0  0  0  0  0  0
    4.7273    1.0520   17.5560 C   0  0  0  0  0  0  0  0  0  0  0  0
    4.2679    1.4418   18.8480 C   0  0  0  0  0  0  0  0  0  0  0  0
    3.1560    2.3057   19.0407 C   0  0  0  0  0  0  0  0  0  0  0  0
    2.7435    2.6341   20.3028 C   0  0  0  0  0  0  0  0  0  0  0  0
    3.4108    2.1157   21.4343 C   0  0  0  0  0  0  0  0  0  0  0  0
    4.4933    1.2866   21.2720 C   0  0  0  0  0  0  0  0  0  0  0  0
    4.9486    0.9323   19.9713 C   0  0  0  0  0  0  0  0  0  0  0  0
    5.0173    0.9079   22.1433 H   0  0  0  0  0  0  0  0  0  0  0  0
    3.0779    2.3880   22.4322 H   0  0  0  0  0  0  0  0  0  0  0  0
    1.9002    3.3028   20.4424 H   0  0  0  0  0  0  0  0  0  0  0  0
    2.6595    2.7032   18.1595 H   0  0  0  0  0  0  0  0  0  0  0  0
    4.2053    1.4235   16.6746 H   0  0  0  0  0  0  0  0  0  0  0  0
    7.2608   -0.8657   18.2278 H   0  0  0  0  0  0  0  0  0  0  0  0
    7.6772    0.3450   21.4732 C   0  0  0  0  0  0  0  0  0  0  0  0
    7.9775    1.4592   21.1183 O   0  0  0  0  0  0  0  0  0  0  0  0
    8.1858   -0.4107   22.7116 C   0  0  1  0  0  0  0  0  0  0  0  0
    7.7139    0.2980   24.0092 C   0  0  0  0  0  0  0  0  0  0  0  0
    8.3468    1.5995   24.1694 N   0  0  0  0  0  0  0  0  0  0  0  0
    7.5293    2.7547   24.5348 C   0  0  0  0  0  0  0  0  0  0  0  0
    7.3485    3.7379   23.4121 C   0  0  0  0  0  0  0  0  0  0  0  0
    7.9728    4.8344   23.1437 N   0  0  0  0  0  0  0  0  0  0  0  0
    7.3915    5.2740   21.9568 C   0  0  0  0  0  0  0  0  0  0  0  0
    6.4083    4.4226   21.5980 C   0  0  0  0  0  0  0  0  0  0  0  0
    6.3581    3.4397   22.5432 O   0  0  0  0  0  0  0  0  0  0  0  0
    5.7081    4.3550   20.7787 H   0  0  0  0  0  0  0  0  0  0  0  0
    7.7386    6.1761   21.4720 H   0  0  0  0  0  0  0  0  0  0  0  0
    7.9180    3.2602   25.4149 H   0  0  0  0  0  0  0  0  0  0  0  0
    6.5335    2.4019   24.8173 H   0  0  0  0  0  0  0  0  0  0  0  0
    9.7066    1.7397   23.9804 C   0  0  0  0  0  0  0  0  0  0  0  0
   10.3125    2.7664   24.2256 O   0  0  0  0  0  0  0  0  0  0  0  0
   10.4197    0.5345   23.4052 C   0  0  0  0  0  0  0  0  0  0  0  0
   11.8028    0.3638   23.5359 C   0  0  0  0  0  0  0  0  0  0  0  0
   12.4612   -0.6385   22.8359 C   0  0  0  0  0  0  0  0  0  0  0  0
   11.7261   -1.4159   21.9437 C   0  0  0  0  0  0  0  0  0  0  0  0
   12.3051   -2.4122   21.2572 F   0  0  0  0  0  0  0  0  0  0  0  0
   10.3696   -1.2589   21.7935 C   0  0  0  0  0  0  0  0  0  0  0  0
    9.6941   -0.3899   22.6567 C   0  0  0  0  0  0  0  0  0  0  0  0
    9.8685   -1.8308   21.0191 H   0  0  0  0  0  0  0  0  0  0  0  0
   13.5298   -0.7965   22.9215 H   0  0  0  0  0  0  0  0  0  0  0  0
   12.3695    0.9973   24.2066 H   0  0  0  0  0  0  0  0  0  0  0  0
    7.9557   -0.3255   24.8821 H   0  0  0  0  0  0  0  0  0  0  0  0
    6.6268    0.4401   23.9626 H   0  0  0  0  0  0  0  0  0  0  0  0
    5.4246   -1.5465   22.0199 H   0  0  0  0  0  0  0  0  0  0  0  0
    6.3242   -2.5033   20.8302 H   0  0  0  0  0  0  0  0  0  0  0  0
    8.3266   -2.4053   21.9877 H   0  0  0  0  0  0  0  0  0  0  0  0
    8.1454   -2.6893   24.4248 H   0  0  0  0  0  0  0  0  0  0  0  0
    6.4478   -2.1879   24.3826 H   0  0  0  0  0  0  0  0  0  0  0  0
    6.9651   -3.6569   23.5477 H   0  0  0  0  0  0  0  0  0  0  0  0
  1  2  1  0
  2  3  1  0
  3  4  1  0
  4  5  1  0
  5  6  2  0
  6  7  1  0
  7  8  2  0
  8  9  1  0
  9 10  2  0
 10 11  1  0
 11 12  2  0
 12 13  1  0
 13 14  2  0
 13 15  1  0
 12 16  1  0
 11 17  1  0
 10 18  1  0
  8 19  1  0
  6 20  1  0
  4 21  1  0
 21 22  2  0
 21 23  1  0
 23 24  1  1
 24 25  1  0
 25 26  1  0
 26 27  1  0
 27 28  2  0
 28 29  1  0
 29 30  2  0
 30 31  1  0
 30 32  1  0
 29 33  1  0
 26 34  1  0
 26 35  1  0
 25 36  1  0
 36 37  2  0
 36 38  1  0
 38 39  2  0
 39 40  1  0
 40 41  2  0
 41 42  1  0
 41 43  1  0
 43 44  2  0
 43 45  1  0
 40 46  1  0
 39 47  1  0
 24 48  1  0
 24 49  1  0
  3 50  1  0
  3 51  1  0
  2 52  1  6
  1 53  1  0
  1 54  1  0
  1 55  1  0
 23  2  1  0
 31 27  1  0
 44 38  1  0
 14  5  1  0
 44 23  1  0
 14  9  1  0
M  END
>  <cnnaffinities>  (80) 
[6.16682]

>  <score>  (80) 
6.16682

>  <index>  (80) 
82

>  <Smiles>  (80) 
C([C@]1(C(N(c2c(nc(c3c(c(c(c(c23)[H])[H])[H])[H])[H])[H])C(=O)[C@]21C(N(C(c1nc(c(o1)[H])[H])([H])[H])C(=O)c1c(c(c(F)c(c21)[H])[H])[H])([H])[H])([H])[H])[H])([H])([H])[H]

>  <h>  (80) 
<NA>

>  <Training>  (80) 
True

>  <Success>  (80) 
True

>  <enamine_searched>  (80) 
False

>  <enamine_id>  (80) 
nan

$$$$

     RDKit          3D

 72 77  0  0  0  0  0  0  0  0999 V2000
    9.2085    6.0203   23.4915 C   0  0  0  0  0  0  0  0  0  0  0  0
    7.9784    6.0439   22.5873 C   0  0  2  0  0  0  0  0  0  0  0  0
    7.2565    7.3798   22.7053 C   0  0  0  0  0  0  0  0  0  0  0  0
    6.0796    7.4283   21.9272 O   0  0  0  0  0  0  0  0  0  0  0  0
    5.1422    6.4897   22.4099 C   0  0  0  0  0  0  0  0  0  0  0  0
    5.6471    5.0594   22.2641 C   0  0  1  0  0  0  0  0  0  0  0  0
    5.6912    4.6381   20.8030 C   0  0  0  0  0  0  0  0  0  0  0  0
    5.9564    3.5812   20.6974 H   0  0  0  0  0  0  0  0  0  0  0  0
    6.4184    5.2423   20.2543 H   0  0  0  0  0  0  0  0  0  0  0  0
    4.7105    4.7675   20.3384 H   0  0  0  0  0  0  0  0  0  0  0  0
    7.0058    4.9180   22.9342 N   0  0  0  0  0  4  0  0  0  0  0  0
    7.5968    3.5554   22.7291 C   0  0  0  0  0  0  0  0  0  0  0  0
    8.1364    2.9998   24.0437 C   0  0  0  0  0  0  0  0  0  0  0  0
    8.7789    1.7081   23.9049 N   0  0  0  0  0  0  0  0  0  0  0  0
    7.9557    0.5160   23.8107 C   0  0  0  0  0  0  0  0  0  0  0  0
    8.3548   -0.3870   22.6124 C   0  0  2  0  0  0  0  0  0  0  0  0
    7.9320    0.2436   21.2748 C   0  0  0  0  0  0  0  0  0  0  0  0
    8.4798    1.1588   20.6871 O   0  0  0  0  0  0  0  0  0  0  0  0
    6.8244   -0.4227   20.8175 N   0  0  0  0  0  0  0  0  0  0  0  0
    6.0877    0.1177   19.7461 C   0  0  0  0  0  0  0  0  0  0  0  0
    6.4627   -0.1606   18.4590 C   0  0  0  0  0  0  0  0  0  0  0  0
    5.7946    0.2946   17.3800 N   0  0  0  0  0  0  0  0  0  0  0  0
    4.7587    1.0739   17.5840 C   0  0  0  0  0  0  0  0  0  0  0  0
    4.2885    1.4572   18.8730 C   0  0  0  0  0  0  0  0  0  0  0  0
    3.1718    2.3104   19.0629 C   0  0  0  0  0  0  0  0  0  0  0  0
    2.7492    2.6451   20.3213 C   0  0  0  0  0  0  0  0  0  0  0  0
    3.4449    2.1767   21.4536 C   0  0  0  0  0  0  0  0  0  0  0  0
    4.5413    1.3622   21.3009 C   0  0  0  0  0  0  0  0  0  0  0  0
    4.9764    0.9683   20.0029 C   0  0  0  0  0  0  0  0  0  0  0  0
    5.0967    1.0440   22.1761 H   0  0  0  0  0  0  0  0  0  0  0  0
    3.1292    2.4731   22.4489 H   0  0  0  0  0  0  0  0  0  0  0  0
    1.8912    3.2964   20.4524 H   0  0  0  0  0  0  0  0  0  0  0  0
    2.6774    2.7001   18.1811 H   0  0  0  0  0  0  0  0  0  0  0  0
    4.2258    1.4361   16.7032 H   0  0  0  0  0  0  0  0  0  0  0  0
    7.3305   -0.7906   18.2672 H   0  0  0  0  0  0  0  0  0  0  0  0
    6.3462   -1.4776   21.6918 C   0  0  0  0  0  0  0  0  0  0  0  0
    7.5770   -1.7373   22.5762 C   0  0  2  0  0  0  0  0  0  0  0  0
    7.3201   -2.4218   23.9151 C   0  0  0  0  0  0  0  0  0  0  0  0
    8.2674   -2.5442   24.4567 H   0  0  0  0  0  0  0  0  0  0  0  0
    6.6336   -1.8519   24.5524 H   0  0  0  0  0  0  0  0  0  0  0  0
    6.8866   -3.4179   23.7673 H   0  0  0  0  0  0  0  0  0  0  0  0
    8.2174   -2.4081   21.9997 H   0  0  0  0  0  0  0  0  0  0  0  0
    6.0698   -2.3554   21.0990 H   0  0  0  0  0  0  0  0  0  0  0  0
    5.4555   -1.1805   22.2683 H   0  0  0  0  0  0  0  0  0  0  0  0
    9.8509   -0.5369   22.5772 C   0  0  0  0  0  0  0  0  0  0  0  0
   10.4073   -1.4549   21.6816 C   0  0  0  0  0  0  0  0  0  0  0  0
   11.7752   -1.5764   21.5869 C   0  0  0  0  0  0  0  0  0  0  0  0
   12.3582   -2.6011   20.3119 Cl  0  0  0  0  0  0  0  0  0  0  0  0
   12.6238   -0.8405   22.4197 C   0  0  0  0  0  0  0  0  0  0  0  0
   12.0651    0.1207   23.2436 C   0  0  0  0  0  0  0  0  0  0  0  0
   10.6923    0.3533   23.2488 C   0  0  0  0  0  0  0  0  0  0  0  0
   10.1436    1.6286   23.8494 C   0  0  0  0  0  0  0  0  0  0  0  0
   10.8775    2.5466   24.2104 O   0  0  0  0  0  0  0  0  0  0  0  0
   12.6931    0.7277   23.8818 H   0  0  0  0  0  0  0  0  0  0  0  0
   13.7014   -0.9215   22.3547 H   0  0  0  0  0  0  0  0  0  0  0  0
    9.7886   -2.0245   20.9942 H   0  0  0  0  0  0  0  0  0  0  0  0
    6.9106    0.8260   23.7179 H   0  0  0  0  0  0  0  0  0  0  0  0
    8.0411   -0.0586   24.7438 H   0  0  0  0  0  0  0  0  0  0  0  0
    8.8801    3.6909   24.4212 H   0  0  0  0  0  0  0  0  0  0  0  0
    7.3055    2.9320   24.7616 H   0  0  0  0  0  0  0  0  0  0  0  0
    8.3829    3.6085   21.9637 H   0  0  0  0  0  0  0  0  0  0  0  0
    6.8252    2.8724   22.3591 H   0  0  0  0  0  0  0  0  0  0  0  0
    6.8231    5.0095   23.9530 H   0  0  0  0  0  0  0  0  0  0  0  0
    4.9621    4.3967   22.8083 H   0  0  0  0  0  0  0  0  0  0  0  0
    4.2308    6.6200   21.8119 H   0  0  0  0  0  0  0  0  0  0  0  0
    4.9099    6.6896   23.4708 H   0  0  0  0  0  0  0  0  0  0  0  0
    7.0210    7.5610   23.7710 H   0  0  0  0  0  0  0  0  0  0  0  0
    7.9082    8.1839   22.3478 H   0  0  0  0  0  0  0  0  0  0  0  0
    8.2875    5.9057   21.5448 H   0  0  0  0  0  0  0  0  0  0  0  0
    9.8418    5.1447   23.3109 H   0  0  0  0  0  0  0  0  0  0  0  0
    9.8195    6.9113   23.3224 H   0  0  0  0  0  0  0  0  0  0  0  0
    8.8988    6.0205   24.5469 H   0  0  0  0  0  0  0  0  0  0  0  0
  1  2  1  0
  2  3  1  0
  3  4  1  0
  4  5  1  0
  5  6  1  0
  6  7  1  0
  7  8  1  0
  7  9  1  0
  7 10  1  0
  6 11  1  0
 11 12  1  0
 12 13  1  0
 13 14  1  0
 14 15  1  0
 16 15  1  1
 16 17  1  0
 17 18  2  0
 17 19  1  0
 19 20  1  0
 20 21  2  0
 21 22  1  0
 22 23  2  0
 23 24  1  0
 24 25  2  0
 25 26  1  0
 26 27  2  0
 27 28  1  0
 28 29  2  0
 28 30  1  0
 27 31  1  0
 26 32  1  0
 25 33  1  0
 23 34  1  0
 21 35  1  0
 19 36  1  0
 36 37  1  0
 37 38  1  0
 38 39  1  0
 38 40  1  0
 38 41  1  0
 37 42  1  6
 36 43  1  0
 36 44  1  0
 16 45  1  0
 45 46  2  0
 46 47  1  0
 47 48  1  0
 47 49  2  0
 49 50  1  0
 50 51  2  0
 51 52  1  0
 52 53  2  0
 50 54  1  0
 49 55  1  0
 46 56  1  0
 15 57  1  0
 15 58  1  0
 13 59  1  0
 13 60  1  0
 12 61  1  0
 12 62  1  0
 11 63  1  0
  6 64  1  1
  5 65  1  0
  5 66  1  0
  3 67  1  0
  3 68  1  0
  2 69  1  6
  1 70  1  0
  1 71  1  0
  1 72  1  0
 11  2  1  0
 52 14  1  0
 37 16  1  0
 51 45  1  0
 29 20  1  0
 29 24  1  0
M  CHG  1  11   1
M  END
>  <cnnaffinities>  (81) 
[6.5497]

>  <score>  (81) 
6.5497

>  <index>  (81) 
83

>  <Smiles>  (81) 
C([C@@]1(C(OC([C@@](C([H])([H])[H])([N+]1(C(C(N1C([C@@]2(C(=O)N(c3c(nc(c4c(c(c(c(c34)[H])[H])[H])[H])[H])[H])C([C@@]2(C([H])([H])[H])[H])([H])[H])c2c(c(Cl)c(c(c2C1=O)[H])[H])[H])([H])[H])([H])[H])([H])[H])[H])[H])([H])[H])([H])[H])[H])([H])([H])[H]

>  <h>  (81) 
<NA>

>  <Training>  (81) 
True

>  <Success>  (81) 
True

>  <enamine_searched>  (81) 
False

>  <enamine_id>  (81) 
nan

$$$$

     RDKit          3D

 60 65  0  0  0  0  0  0  0  0999 V2000
    7.3546   -8.8343   22.4776 C   0  0  0  0  0  0  0  0  0  0  0  0
    6.7091   -7.5503   22.5187 N   0  0  0  0  0  0  0  0  0  0  0  0
    7.0176   -6.6477   21.5650 C   0  0  0  0  0  0  0  0  0  0  0  0
    7.8156   -6.8726   20.6663 O   0  0  0  0  0  0  0  0  0  0  0  0
    6.2615   -5.3394   21.6045 C   0  0  0  0  0  0  0  0  0  0  0  0
    6.6728   -4.3616   22.5549 N   0  0  0  0  0  0  0  0  0  0  0  0
    7.7629   -3.4556   22.2576 C   0  0  0  0  0  0  0  0  0  0  0  0
    7.3933   -2.0071   22.6408 C   0  0  2  0  0  0  0  0  0  0  0  0
    6.3092   -1.5009   21.6529 C   0  0  0  0  0  0  0  0  0  0  0  0
    5.1843   -1.9374   21.5213 O   0  0  0  0  0  0  0  0  0  0  0  0
    6.8301   -0.4844   20.8777 N   0  0  0  0  0  0  0  0  0  0  0  0
    6.1051    0.0688   19.7951 C   0  0  0  0  0  0  0  0  0  0  0  0
    6.4662   -0.2071   18.5005 C   0  0  0  0  0  0  0  0  0  0  0  0
    5.8068    0.2490   17.4095 N   0  0  0  0  0  0  0  0  0  0  0  0
    4.7709    1.0239   17.6041 C   0  0  0  0  0  0  0  0  0  0  0  0
    4.3042    1.4140   18.8910 C   0  0  0  0  0  0  0  0  0  0  0  0
    3.1882    2.2764   19.0502 C   0  0  0  0  0  0  0  0  0  0  0  0
    2.7795    2.6565   20.2977 C   0  0  0  0  0  0  0  0  0  0  0  0
    3.4682    2.1953   21.4434 C   0  0  0  0  0  0  0  0  0  0  0  0
    4.5478    1.3565   21.3155 C   0  0  0  0  0  0  0  0  0  0  0  0
    4.9884    0.9334   20.0306 C   0  0  0  0  0  0  0  0  0  0  0  0
    5.0794    1.0037   22.1943 H   0  0  0  0  0  0  0  0  0  0  0  0
    3.1402    2.5137   22.4286 H   0  0  0  0  0  0  0  0  0  0  0  0
    1.9282    3.3221   20.4170 H   0  0  0  0  0  0  0  0  0  0  0  0
    2.6826    2.6332   18.1552 H   0  0  0  0  0  0  0  0  0  0  0  0
    4.2446    1.3858   16.7188 H   0  0  0  0  0  0  0  0  0  0  0  0
    7.3155   -0.8570   18.2938 H   0  0  0  0  0  0  0  0  0  0  0  0
    8.2718   -0.4008   20.9777 C   0  0  0  0  0  0  0  0  0  0  0  0
    8.5602   -1.0039   22.3617 C   0  0  2  0  0  0  0  0  0  0  0  0
    9.9875   -1.5368   22.4570 C   0  0  0  0  0  0  0  0  0  0  0  0
   10.7135   -0.7281   22.3153 H   0  0  0  0  0  0  0  0  0  0  0  0
   10.1891   -2.0017   23.4268 H   0  0  0  0  0  0  0  0  0  0  0  0
   10.1833   -2.2832   21.6781 H   0  0  0  0  0  0  0  0  0  0  0  0
    8.4458   -0.1919   23.0808 H   0  0  0  0  0  0  0  0  0  0  0  0
    8.7765   -0.9689   20.1803 H   0  0  0  0  0  0  0  0  0  0  0  0
    8.5976    0.6412   20.8977 H   0  0  0  0  0  0  0  0  0  0  0  0
    6.8766   -2.0532   24.0748 C   0  0  0  0  0  0  0  0  0  0  0  0
    6.8500   -0.9015   24.8695 C   0  0  0  0  0  0  0  0  0  0  0  0
    6.3889   -0.9613   26.1717 C   0  0  0  0  0  0  0  0  0  0  0  0
    6.3603    0.4954   27.1238 Cl  0  0  0  0  0  0  0  0  0  0  0  0
    5.9319   -2.1481   26.7415 C   0  0  0  0  0  0  0  0  0  0  0  0
    5.9175   -3.2818   25.9573 C   0  0  0  0  0  0  0  0  0  0  0  0
    6.3622   -3.2361   24.6389 C   0  0  0  0  0  0  0  0  0  0  0  0
    6.1997   -4.4675   23.8269 C   0  0  0  0  0  0  0  0  0  0  0  0
    5.6369   -5.4887   24.2255 O   0  0  0  0  0  0  0  0  0  0  0  0
    5.5540   -4.2279   26.3404 H   0  0  0  0  0  0  0  0  0  0  0  0
    5.5838   -2.1620   27.7680 H   0  0  0  0  0  0  0  0  0  0  0  0
    7.1749    0.0590   24.4865 H   0  0  0  0  0  0  0  0  0  0  0  0
    7.9522   -3.5087   21.1984 H   0  0  0  0  0  0  0  0  0  0  0  0
    8.6718   -3.7709   22.7904 H   0  0  0  0  0  0  0  0  0  0  0  0
    4.8170   -5.4777   21.2465 C   0  0  0  0  0  0  0  0  0  0  0  0
    5.7815   -4.9036   20.2515 C   0  0  0  0  0  0  0  0  0  0  0  0
    6.1188   -5.5240   19.4278 H   0  0  0  0  0  0  0  0  0  0  0  0
    5.7263   -3.8355   20.0633 H   0  0  0  0  0  0  0  0  0  0  0  0
    4.5051   -6.5149   21.1497 H   0  0  0  0  0  0  0  0  0  0  0  0
    4.1032   -4.8185   21.7318 H   0  0  0  0  0  0  0  0  0  0  0  0
    6.1426   -7.2070   23.2818 H   0  0  0  0  0  0  0  0  0  0  0  0
    7.5406   -9.2856   23.4346 H   0  0  0  0  0  0  0  0  0  0  0  0
    8.2799   -8.6514   21.9656 H   0  0  0  0  0  0  0  0  0  0  0  0
    6.8251   -9.5513   21.8670 H   0  0  0  0  0  0  0  0  0  0  0  0
  1  2  1  0
  2  3  1  0
  3  4  2  0
  3  5  1  0
  5  6  1  0
  6  7  1  0
  8  7  1  6
  8  9  1  0
  9 10  2  0
  9 11  1  0
 11 12  1  0
 12 13  2  0
 13 14  1  0
 14 15  2  0
 15 16  1  0
 16 17  2  0
 17 18  1  0
 18 19  2  0
 19 20  1  0
 20 21  2  0
 20 22  1  0
 19 23  1  0
 18 24  1  0
 17 25  1  0
 15 26  1  0
 13 27  1  0
 11 28  1  0
 28 29  1  0
 29 30  1  0
 30 31  1  0
 30 32  1  0
 30 33  1  0
 29 34  1  1
 28 35  1  0
 28 36  1  0
  8 37  1  0
 37 38  2  0
 38 39  1  0
 39 40  1  0
 39 41  2  0
 41 42  1  0
 42 43  2  0
 43 44  1  0
 44 45  2  0
 42 46  1  0
 41 47  1  0
 38 48  1  0
  7 49  1  0
  7 50  1  0
  5 51  1  0
 51 52  1  0
 52 53  1  0
 52 54  1  0
 51 55  1  0
 51 56  1  0
  2 57  1  0
  1 58  1  0
  1 59  1  0
  1 60  1  0
 52  5  1  0
 44  6  1  0
 29  8  1  0
 43 37  1  0
 21 12  1  0
 21 16  1  0
M  END
>  <cnnaffinities>  (82) 
[6.57294]

>  <score>  (82) 
6.57294

>  <index>  (82) 
84

>  <Smiles>  (82) 
C(N(C(=O)C1(N2C([C@@]3(C(=O)N(c4c(nc(c5c(c(c(c(c45)[H])[H])[H])[H])[H])[H])C([C@@]3(C([H])([H])[H])[H])([H])[H])c3c(c(Cl)c(c(c3C2=O)[H])[H])[H])([H])[H])C(C1([H])[H])([H])[H])[H])([H])([H])[H]

>  <h>  (82) 
<NA>

>  <Training>  (82) 
True

>  <Success>  (82) 
True

>  <enamine_searched>  (82) 
False

>  <enamine_id>  (82) 
nan

$$$$

     RDKit          3D

 55 60  0  0  0  0  0  0  0  0999 V2000
    9.7381   -1.8726   21.9028 C   0  0  0  0  0  0  0  0  0  0  0  0
    8.6318   -0.9052   22.3555 C   0  0  1  0  0  0  0  0  0  0  0  0
    8.1936   -0.0021   21.1826 C   0  0  0  0  0  0  0  0  0  0  0  0
    6.8785   -0.4733   20.8223 N   0  0  0  0  0  0  0  0  0  0  0  0
    6.1124    0.0725   19.7705 C   0  0  0  0  0  0  0  0  0  0  0  0
    6.4550   -0.2150   18.4761 C   0  0  0  0  0  0  0  0  0  0  0  0
    5.7863    0.2413   17.3934 N   0  0  0  0  0  0  0  0  0  0  0  0
    4.7558    1.0208   17.6056 C   0  0  0  0  0  0  0  0  0  0  0  0
    4.3020    1.4064   18.8991 C   0  0  0  0  0  0  0  0  0  0  0  0
    3.1886    2.2694   19.0643 C   0  0  0  0  0  0  0  0  0  0  0  0
    2.7849    2.6510   20.3117 C   0  0  0  0  0  0  0  0  0  0  0  0
    3.4807    2.1901   21.4553 C   0  0  0  0  0  0  0  0  0  0  0  0
    4.5606    1.3515   21.3279 C   0  0  0  0  0  0  0  0  0  0  0  0
    4.9943    0.9266   20.0340 C   0  0  0  0  0  0  0  0  0  0  0  0
    5.0877    1.0113   22.2216 H   0  0  0  0  0  0  0  0  0  0  0  0
    3.1548    2.5121   22.4405 H   0  0  0  0  0  0  0  0  0  0  0  0
    1.9332    3.3152   20.4343 H   0  0  0  0  0  0  0  0  0  0  0  0
    2.6838    2.6289   18.1705 H   0  0  0  0  0  0  0  0  0  0  0  0
    4.2236    1.3934   16.7292 H   0  0  0  0  0  0  0  0  0  0  0  0
    7.3024   -0.8716   18.2797 H   0  0  0  0  0  0  0  0  0  0  0  0
    6.3360   -1.3737   21.6969 C   0  0  0  0  0  0  0  0  0  0  0  0
    5.2596   -1.9173   21.5308 O   0  0  0  0  0  0  0  0  0  0  0  0
    7.3177   -1.5659   22.8686 C   0  0  1  0  0  0  0  0  0  0  0  0
    7.4329   -3.0686   23.1358 C   0  0  0  0  0  0  0  0  0  0  0  0
    6.1563   -3.5422   23.6112 N   0  0  0  0  0  0  0  0  0  0  0  0
    5.4872   -4.6114   22.9063 C   0  0  0  0  0  0  0  0  0  0  0  0
    6.0647   -5.9198   23.2997 C   0  0  0  0  0  0  0  0  0  0  0  0
    5.9130   -6.5278   24.4941 C   0  0  0  0  0  0  0  0  0  0  0  0
    6.7661   -7.5772   24.5255 O   0  0  0  0  0  0  0  0  0  0  0  0
    7.4411   -7.5143   23.3630 C   0  0  0  0  0  0  0  0  0  0  0  0
    7.0628   -6.5668   22.5741 N   0  0  0  0  0  0  0  0  0  0  0  0
    8.2738   -8.1941   23.2219 H   0  0  0  0  0  0  0  0  0  0  0  0
    5.3680   -6.2698   25.3923 H   0  0  0  0  0  0  0  0  0  0  0  0
    4.4217   -4.5314   23.1395 H   0  0  0  0  0  0  0  0  0  0  0  0
    5.5992   -4.4313   21.8338 H   0  0  0  0  0  0  0  0  0  0  0  0
    5.6394   -3.0798   24.7836 C   0  0  0  0  0  0  0  0  0  0  0  0
    4.8986   -3.7516   25.4938 O   0  0  0  0  0  0  0  0  0  0  0  0
    5.9913   -1.6555   25.0570 C   0  0  0  0  0  0  0  0  0  0  0  0
    5.4597   -1.0656   26.1998 C   0  0  0  0  0  0  0  0  0  0  0  0
    5.6389    0.2830   26.4348 C   0  0  0  0  0  0  0  0  0  0  0  0
    6.3528    1.0166   25.4940 C   0  0  0  0  0  0  0  0  0  0  0  0
    6.5082    2.3373   25.6982 F   0  0  0  0  0  0  0  0  0  0  0  0
    6.9028    0.4515   24.3585 C   0  0  0  0  0  0  0  0  0  0  0  0
    6.7502   -0.9199   24.1322 C   0  0  0  0  0  0  0  0  0  0  0  0
    7.4418    1.0913   23.6661 H   0  0  0  0  0  0  0  0  0  0  0  0
    5.2233    0.7858   27.2997 H   0  0  0  0  0  0  0  0  0  0  0  0
    4.8901   -1.7004   26.8704 H   0  0  0  0  0  0  0  0  0  0  0  0
    8.2033   -3.2544   23.8969 H   0  0  0  0  0  0  0  0  0  0  0  0
    7.6968   -3.6118   22.2246 H   0  0  0  0  0  0  0  0  0  0  0  0
    8.8723   -0.0979   20.3354 H   0  0  0  0  0  0  0  0  0  0  0  0
    8.1601    1.0595   21.4579 H   0  0  0  0  0  0  0  0  0  0  0  0
    9.0648   -0.3102   23.1657 H   0  0  0  0  0  0  0  0  0  0  0  0
   10.0844   -2.5079   22.7236 H   0  0  0  0  0  0  0  0  0  0  0  0
    9.4009   -2.5217   21.0871 H   0  0  0  0  0  0  0  0  0  0  0  0
   10.6069   -1.3122   21.5380 H   0  0  0  0  0  0  0  0  0  0  0  0
  1  2  1  0
  2  3  1  0
  3  4  1  0
  4  5  1  0
  5  6  2  0
  6  7  1  0
  7  8  2  0
  8  9  1  0
  9 10  2  0
 10 11  1  0
 11 12  2  0
 12 13  1  0
 13 14  2  0
 13 15  1  0
 12 16  1  0
 11 17  1  0
 10 18  1  0
  8 19  1  0
  6 20  1  0
  4 21  1  0
 21 22  2  0
 21 23  1  0
 23 24  1  1
 24 25  1  0
 25 26  1  0
 26 27  1  0
 27 28  2  0
 28 29  1  0
 29 30  1  0
 30 31  2  0
 30 32  1  0
 28 33  1  0
 26 34  1  0
 26 35  1  0
 25 36  1  0
 36 37  2  0
 36 38  1  0
 38 39  2  0
 39 40  1  0
 40 41  2  0
 41 42  1  0
 41 43  1  0
 43 44  2  0
 43 45  1  0
 40 46  1  0
 39 47  1  0
 24 48  1  0
 24 49  1  0
  3 50  1  0
  3 51  1  0
  2 52  1  1
  1 53  1  0
  1 54  1  0
  1 55  1  0
 23  2  1  0
 31 27  1  0
 44 38  1  0
 14  5  1  0
 44 23  1  0
 14  9  1  0
M  END
>  <cnnaffinities>  (83) 
[6.42808]

>  <score>  (83) 
6.42808

>  <index>  (83) 
85

>  <Smiles>  (83) 
C([C@]1(C(N(c2c(nc(c3c(c(c(c(c23)[H])[H])[H])[H])[H])[H])C(=O)[C@]21C(N(C(c1c(oc(n1)[H])[H])([H])[H])C(=O)c1c(c(c(F)c(c21)[H])[H])[H])([H])[H])([H])[H])[H])([H])([H])[H]

>  <h>  (83) 
<NA>

>  <Training>  (83) 
True

>  <Success>  (83) 
True

>  <enamine_searched>  (83) 
False

>  <enamine_id>  (83) 
nan

$$$$

     RDKit          3D

 65 70  0  0  0  0  0  0  0  0999 V2000
    5.1237   -3.0788   18.7297 C   0  0  0  0  0  0  0  0  0  0  0  0
    5.7662   -3.6501   19.8903 N   0  0  0  0  0  0  0  0  0  0  0  0
    6.0048   -4.9774   20.0360 C   0  0  0  0  0  0  0  0  0  0  0  0
    5.5294   -5.8440   19.3226 O   0  0  0  0  0  0  0  0  0  0  0  0
    6.9986   -5.3361   21.1524 C   0  0  0  0  0  0  0  0  0  0  0  0
    7.1340   -4.3367   22.2034 N   0  0  0  0  0  0  0  0  0  0  0  0
    8.0540   -3.2066   22.0757 C   0  0  0  0  0  0  0  0  0  0  0  0
    7.4960   -1.9394   22.7625 C   0  0  2  0  0  0  0  0  0  0  0  0
    6.3189   -1.3151   21.9657 C   0  0  0  0  0  0  0  0  0  0  0  0
    5.1413   -1.5761   22.0861 O   0  0  0  0  0  0  0  0  0  0  0  0
    6.8365   -0.4189   21.0439 N   0  0  0  0  0  0  0  0  0  0  0  0
    6.1467    0.1341   19.9412 C   0  0  0  0  0  0  0  0  0  0  0  0
    6.6465   -0.0306   18.6702 C   0  0  0  0  0  0  0  0  0  0  0  0
    6.0330    0.4111   17.5510 N   0  0  0  0  0  0  0  0  0  0  0  0
    4.9248    1.1003   17.6819 C   0  0  0  0  0  0  0  0  0  0  0  0
    4.3473    1.4214   18.9425 C   0  0  0  0  0  0  0  0  0  0  0  0
    3.1977    2.2514   19.0496 C   0  0  0  0  0  0  0  0  0  0  0  0
    2.7116    2.6072   20.2785 C   0  0  0  0  0  0  0  0  0  0  0  0
    3.3427    2.1418   21.4528 C   0  0  0  0  0  0  0  0  0  0  0  0
    4.4394    1.3204   21.3756 C   0  0  0  0  0  0  0  0  0  0  0  0
    4.9700    0.9356   20.1137 C   0  0  0  0  0  0  0  0  0  0  0  0
    4.9174    0.9662   22.2804 H   0  0  0  0  0  0  0  0  0  0  0  0
    2.9719    2.4481   22.4263 H   0  0  0  0  0  0  0  0  0  0  0  0
    1.8500    3.2648   20.3606 H   0  0  0  0  0  0  0  0  0  0  0  0
    2.7366    2.6169   18.1346 H   0  0  0  0  0  0  0  0  0  0  0  0
    4.4393    1.4494   16.7705 H   0  0  0  0  0  0  0  0  0  0  0  0
    7.5614   -0.5970   18.5042 H   0  0  0  0  0  0  0  0  0  0  0  0
    8.2500   -0.1733   21.2390 C   0  0  0  0  0  0  0  0  0  0  0  0
    8.5130   -0.7651   22.6281 C   0  0  2  0  0  0  0  0  0  0  0  0
    9.9852   -1.0692   22.7625 C   0  0  0  0  0  0  0  0  0  0  0  0
   10.3497   -1.5245   24.0809 N   0  0  0  0  0  0  0  0  0  0  0  0
   11.6475   -1.7289   24.3653 C   0  0  0  0  0  0  0  0  0  0  0  0
   11.9657   -2.2268   25.5732 N   0  0  0  0  0  0  0  0  0  0  0  0
   13.2651   -2.3780   25.7576 C   0  0  0  0  0  0  0  0  0  0  0  0
   14.2465   -2.0912   24.8960 N   0  0  0  0  0  0  0  0  0  0  0  0
   13.7960   -1.6111   23.7365 C   0  0  0  0  0  0  0  0  0  0  0  0
   12.5357   -1.3896   23.4118 N   0  0  0  0  0  0  0  0  0  0  0  0
   14.5403   -1.3600   22.9816 H   0  0  0  0  0  0  0  0  0  0  0  0
   13.5715   -2.7816   26.7224 H   0  0  0  0  0  0  0  0  0  0  0  0
    9.6682   -1.9014   24.7243 H   0  0  0  0  0  0  0  0  0  0  0  0
   10.5706   -0.1706   22.5471 H   0  0  0  0  0  0  0  0  0  0  0  0
   10.2971   -1.8166   22.0171 H   0  0  0  0  0  0  0  0  0  0  0  0
    8.2306   -0.0118   23.3714 H   0  0  0  0  0  0  0  0  0  0  0  0
    8.8724   -0.6664   20.4730 H   0  0  0  0  0  0  0  0  0  0  0  0
    8.4610    0.9015   21.1991 H   0  0  0  0  0  0  0  0  0  0  0  0
    7.0595   -2.3325   24.1590 C   0  0  0  0  0  0  0  0  0  0  0  0
    6.7430   -1.3381   25.0922 C   0  0  0  0  0  0  0  0  0  0  0  0
    6.3325   -1.6931   26.3656 C   0  0  0  0  0  0  0  0  0  0  0  0
    5.8961   -0.4359   27.4848 Cl  0  0  0  0  0  0  0  0  0  0  0  0
    6.2111   -3.0284   26.7532 C   0  0  0  0  0  0  0  0  0  0  0  0
    6.4614   -4.0172   25.8186 C   0  0  0  0  0  0  0  0  0  0  0  0
    6.8390   -3.6757   24.5179 C   0  0  0  0  0  0  0  0  0  0  0  0
    6.8761   -4.7678   23.4912 C   0  0  0  0  0  0  0  0  0  0  0  0
    6.6483   -5.9341   23.7696 O   0  0  0  0  0  0  0  0  0  0  0  0
    6.3322   -5.0679   26.0689 H   0  0  0  0  0  0  0  0  0  0  0  0
    5.8687   -3.2733   27.7530 H   0  0  0  0  0  0  0  0  0  0  0  0
    6.7570   -0.2886   24.8154 H   0  0  0  0  0  0  0  0  0  0  0  0
    9.0109   -3.4752   22.5548 H   0  0  0  0  0  0  0  0  0  0  0  0
    8.2669   -2.9742   21.0330 H   0  0  0  0  0  0  0  0  0  0  0  0
    6.6482   -6.2574   21.6228 H   0  0  0  0  0  0  0  0  0  0  0  0
    7.9858   -5.5829   20.7262 H   0  0  0  0  0  0  0  0  0  0  0  0
    6.2930   -3.0199   20.4729 H   0  0  0  0  0  0  0  0  0  0  0  0
    5.7127   -3.2070   17.8115 H   0  0  0  0  0  0  0  0  0  0  0  0
    4.1385   -3.5072   18.6221 H   0  0  0  0  0  0  0  0  0  0  0  0
    4.9608   -2.0139   18.9029 H   0  0  0  0  0  0  0  0  0  0  0  0
  1  2  1  0
  2  3  1  0
  3  4  2  0
  3  5  1  0
  5  6  1  0
  6  7  1  0
  8  7  1  6
  8  9  1  0
  9 10  2  0
  9 11  1  0
 11 12  1  0
 12 13  2  0
 13 14  1  0
 14 15  2  0
 15 16  1  0
 16 17  2  0
 17 18  1  0
 18 19  2  0
 19 20  1  0
 20 21  2  0
 20 22  1  0
 19 23  1  0
 18 24  1  0
 17 25  1  0
 15 26  1  0
 13 27  1  0
 11 28  1  0
 28 29  1  0
 29 30  1  0
 30 31  1  0
 31 32  1  0
 32 33  2  0
 33 34  1  0
 34 35  2  0
 35 36  1  0
 36 37  2  0
 36 38  1  0
 34 39  1  0
 31 40  1  0
 30 41  1  0
 30 42  1  0
 29 43  1  1
 28 44  1  0
 28 45  1  0
  8 46  1  0
 46 47  2  0
 47 48  1  0
 48 49  1  0
 48 50  2  0
 50 51  1  0
 51 52  2  0
 52 53  1  0
 53 54  2  0
 51 55  1  0
 50 56  1  0
 47 57  1  0
  7 58  1  0
  7 59  1  0
  5 60  1  0
  5 61  1  0
  2 62  1  0
  1 63  1  0
  1 64  1  0
  1 65  1  0
 53  6  1  0
 29  8  1  0
 37 32  1  0
 52 46  1  0
 21 12  1  0
 21 16  1  0
M  END
>  <cnnaffinities>  (84) 
[7.17811]

>  <score>  (84) 
7.17811

>  <index>  (84) 
86

>  <Smiles>  (84) 
C(N(C(=O)C(N1C([C@@]2(C(=O)N(c3c(nc(c4c(c(c(c(c34)[H])[H])[H])[H])[H])[H])C([C@@]2(C(N(c2nc(nc(n2)[H])[H])[H])([H])[H])[H])([H])[H])c2c(c(Cl)c(c(c2C1=O)[H])[H])[H])([H])[H])([H])[H])[H])([H])([H])[H]

>  <h>  (84) 
<NA>

>  <Training>  (84) 
True

>  <Success>  (84) 
True

>  <enamine_searched>  (84) 
False

>  <enamine_id>  (84) 
nan

$$$$

     RDKit          3D

 63 68  0  0  0  0  0  0  0  0999 V2000
    6.0983    1.1775   28.7826 C   0  0  0  0  0  0  0  0  0  0  0  0
    6.2751    1.5091   27.3829 N   0  0  0  0  0  0  0  0  0  0  0  0
    5.6216    0.7983   26.4300 C   0  0  0  0  0  0  0  0  0  0  0  0
    4.8958   -0.1537   26.6924 O   0  0  0  0  0  0  0  0  0  0  0  0
    5.8046    1.3028   24.9933 C   0  0  0  0  0  0  0  0  0  0  0  0
    7.0129    0.8230   24.3604 N   0  0  0  0  0  0  0  0  0  0  0  0
    7.0323   -0.5200   23.8190 C   0  0  0  0  0  0  0  0  0  0  0  0
    8.0682   -0.6606   22.6639 C   0  0  2  0  0  0  0  0  0  0  0  0
    7.5642    0.1829   21.4651 C   0  0  0  0  0  0  0  0  0  0  0  0
    7.7946    1.3438   21.2135 O   0  0  0  0  0  0  0  0  0  0  0  0
    6.7396   -0.6218   20.7073 N   0  0  0  0  0  0  0  0  0  0  0  0
    5.9811   -0.0572   19.6516 C   0  0  0  0  0  0  0  0  0  0  0  0
    6.3134   -0.3118   18.3454 C   0  0  0  0  0  0  0  0  0  0  0  0
    5.6870    0.2309   17.2738 N   0  0  0  0  0  0  0  0  0  0  0  0
    4.6923    1.0531   17.5005 C   0  0  0  0  0  0  0  0  0  0  0  0
    4.2284    1.3965   18.8022 C   0  0  0  0  0  0  0  0  0  0  0  0
    3.1396    2.2897   18.9971 C   0  0  0  0  0  0  0  0  0  0  0  0
    2.7267    2.6193   20.2587 C   0  0  0  0  0  0  0  0  0  0  0  0
    3.3951    2.0783   21.3794 C   0  0  0  0  0  0  0  0  0  0  0  0
    4.4484    1.2161   21.2184 C   0  0  0  0  0  0  0  0  0  0  0  0
    4.8944    0.8412   19.9188 C   0  0  0  0  0  0  0  0  0  0  0  0
    4.9636    0.8332   22.0939 H   0  0  0  0  0  0  0  0  0  0  0  0
    3.0771    2.3590   22.3782 H   0  0  0  0  0  0  0  0  0  0  0  0
    1.8941    3.3008   20.4064 H   0  0  0  0  0  0  0  0  0  0  0  0
    2.6523    2.7118   18.1218 H   0  0  0  0  0  0  0  0  0  0  0  0
    4.2036    1.4915   16.6293 H   0  0  0  0  0  0  0  0  0  0  0  0
    7.1558   -0.9663   18.1268 H   0  0  0  0  0  0  0  0  0  0  0  0
    6.7416   -2.0108   21.1409 C   0  0  0  0  0  0  0  0  0  0  0  0
    8.0032   -2.0890   22.0363 C   0  0  2  0  0  0  0  0  0  0  0  0
    7.9801   -3.3107   22.9734 C   0  0  0  0  0  0  0  0  0  0  0  0
    9.1156   -3.3787   23.8757 N   0  0  0  0  0  0  0  0  0  0  0  0
    9.1593   -3.2124   25.2171 C   0  0  0  0  0  0  0  0  0  0  0  0
   10.4860   -3.3065   25.5886 C   0  0  0  0  0  0  0  0  0  0  0  0
   11.1656   -3.5415   24.3776 C   0  0  0  0  0  0  0  0  0  0  0  0
   10.3234   -3.5976   23.3477 N   0  0  0  0  0  0  0  0  0  0  0  0
   12.2286   -3.6037   24.1902 H   0  0  0  0  0  0  0  0  0  0  0  0
   10.8981   -3.2325   26.5860 H   0  0  0  0  0  0  0  0  0  0  0  0
    8.2487   -3.0593   25.7856 H   0  0  0  0  0  0  0  0  0  0  0  0
    8.0055   -4.2356   22.3902 H   0  0  0  0  0  0  0  0  0  0  0  0
    7.0732   -3.3091   23.5828 H   0  0  0  0  0  0  0  0  0  0  0  0
    8.8742   -2.1947   21.3830 H   0  0  0  0  0  0  0  0  0  0  0  0
    6.7372   -2.6801   20.2801 H   0  0  0  0  0  0  0  0  0  0  0  0
    5.8449   -2.2522   21.7331 H   0  0  0  0  0  0  0  0  0  0  0  0
    9.4011   -0.1462   23.1828 C   0  0  0  0  0  0  0  0  0  0  0  0
   10.6315   -0.5846   22.6919 C   0  0  0  0  0  0  0  0  0  0  0  0
   11.8150   -0.1228   23.2512 C   0  0  0  0  0  0  0  0  0  0  0  0
   13.3422   -0.7774   22.7376 Cl  0  0  0  0  0  0  0  0  0  0  0  0
   11.8225    0.8336   24.2604 C   0  0  0  0  0  0  0  0  0  0  0  0
   10.6172    1.3438   24.6757 C   0  0  0  0  0  0  0  0  0  0  0  0
    9.4192    0.8798   24.1387 C   0  0  0  0  0  0  0  0  0  0  0  0
    8.1505    1.5223   24.6000 C   0  0  0  0  0  0  0  0  0  0  0  0
    8.1147    2.6033   25.1824 O   0  0  0  0  0  0  0  0  0  0  0  0
   10.5835    2.1170   25.4226 H   0  0  0  0  0  0  0  0  0  0  0  0
   12.7707    1.1514   24.6745 H   0  0  0  0  0  0  0  0  0  0  0  0
   10.6720   -1.3185   21.8992 H   0  0  0  0  0  0  0  0  0  0  0  0
    7.2636   -1.2395   24.6126 H   0  0  0  0  0  0  0  0  0  0  0  0
    6.0363   -0.7587   23.4403 H   0  0  0  0  0  0  0  0  0  0  0  0
    4.9391    0.9586   24.4276 H   0  0  0  0  0  0  0  0  0  0  0  0
    5.8642    2.3933   24.9633 H   0  0  0  0  0  0  0  0  0  0  0  0
    7.0028    2.1621   27.1222 H   0  0  0  0  0  0  0  0  0  0  0  0
    6.5212    0.1979   29.0359 H   0  0  0  0  0  0  0  0  0  0  0  0
    6.5932    1.9440   29.3824 H   0  0  0  0  0  0  0  0  0  0  0  0
    5.0338    1.1630   29.0396 H   0  0  0  0  0  0  0  0  0  0  0  0
  1  2  1  0
  2  3  1  0
  3  4  2  0
  3  5  1  0
  5  6  1  0
  6  7  1  0
  8  7  1  1
  8  9  1  0
  9 10  2  0
  9 11  1  0
 11 12  1  0
 12 13  2  0
 13 14  1  0
 14 15  2  0
 15 16  1  0
 16 17  2  0
 17 18  1  0
 18 19  2  0
 19 20  1  0
 20 21  2  0
 20 22  1  0
 19 23  1  0
 18 24  1  0
 17 25  1  0
 15 26  1  0
 13 27  1  0
 11 28  1  0
 28 29  1  0
 29 30  1  0
 30 31  1  0
 31 32  1  0
 32 33  2  0
 33 34  1  0
 34 35  2  0
 34 36  1  0
 33 37  1  0
 32 38  1  0
 30 39  1  0
 30 40  1  0
 29 41  1  6
 28 42  1  0
 28 43  1  0
  8 44  1  0
 44 45  2  0
 45 46  1  0
 46 47  1  0
 46 48  2  0
 48 49  1  0
 49 50  2  0
 50 51  1  0
 51 52  2  0
 49 53  1  0
 48 54  1  0
 45 55  1  0
  7 56  1  0
  7 57  1  0
  5 58  1  0
  5 59  1  0
  2 60  1  0
  1 61  1  0
  1 62  1  0
  1 63  1  0
 51  6  1  0
 29  8  1  0
 35 31  1  0
 50 44  1  0
 21 12  1  0
 21 16  1  0
M  END
>  <cnnaffinities>  (85) 
[6.37776]

>  <score>  (85) 
6.37776

>  <index>  (85) 
87

>  <Smiles>  (85) 
C(N(C(=O)C(N1C([C@@]2(C(=O)N(c3c(nc(c4c(c(c(c(c34)[H])[H])[H])[H])[H])[H])C([C@@]2(C(n2c(c(c(n2)[H])[H])[H])([H])[H])[H])([H])[H])c2c(c(Cl)c(c(c2C1=O)[H])[H])[H])([H])[H])([H])[H])[H])([H])([H])[H]

>  <h>  (85) 
<NA>

>  <Training>  (85) 
True

>  <Success>  (85) 
True

>  <enamine_searched>  (85) 
False

>  <enamine_id>  (85) 
nan

$$$$

     RDKit          3D

 64 68  0  0  0  0  0  0  0  0999 V2000
    1.2690   -2.6093   26.5411 C   0  0  0  0  0  0  0  0  0  0  0  0
    2.7712   -2.4296   26.2528 C   0  0  0  0  0  0  0  0  0  0  0  0
    3.5665   -3.4207   27.1072 C   0  0  0  0  0  0  0  0  0  0  0  0
    3.4132   -3.3875   28.3224 O   0  0  0  0  0  0  0  0  0  0  0  0
    4.1243   -4.5603   26.5364 N   0  0  0  0  0  0  0  0  0  0  0  0
    3.9863   -5.8420   27.2357 C   0  0  0  0  0  0  0  0  0  0  0  0
    3.4334   -6.8582   26.2343 C   0  0  0  0  0  0  0  0  0  0  0  0
    4.4702   -7.0838   25.1362 C   0  0  0  0  0  0  0  0  0  0  0  0
    4.8708   -5.7627   24.5378 C   0  0  0  0  0  0  0  0  0  0  0  0
    5.4963   -5.7559   23.2809 C   0  0  0  0  0  0  0  0  0  0  0  0
    5.8762   -4.5449   22.6995 C   0  0  0  0  0  0  0  0  0  0  0  0
    5.6723   -3.3533   23.3846 C   0  0  0  0  0  0  0  0  0  0  0  0
    6.2257   -2.1830   22.8889 N   0  0  0  0  0  0  0  0  0  0  0  0
    7.0746   -1.4430   23.8196 C   0  0  0  0  0  0  0  0  0  0  0  0
    8.5152   -1.4034   23.3886 C   0  0  0  0  0  0  0  0  0  0  0  0
    9.2892   -2.5666   23.2855 C   0  0  0  0  0  0  0  0  0  0  0  0
   10.6222   -2.4924   22.8822 C   0  0  0  0  0  0  0  0  0  0  0  0
   11.2331   -1.2444   22.6790 C   0  0  0  0  0  0  0  0  0  0  0  0
   10.4636   -0.0729   22.8224 C   0  0  0  0  0  0  0  0  0  0  0  0
   11.1434    1.7024   22.6457 Br  0  0  0  0  0  0  0  0  0  0  0  0
    9.1112   -0.1687   23.1306 C   0  0  0  0  0  0  0  0  0  0  0  0
    8.5256    0.7452   23.1985 H   0  0  0  0  0  0  0  0  0  0  0  0
   12.2909   -1.1924   22.4321 H   0  0  0  0  0  0  0  0  0  0  0  0
   11.1714   -3.4192   22.7660 H   0  0  0  0  0  0  0  0  0  0  0  0
    8.8662   -3.5353   23.5238 H   0  0  0  0  0  0  0  0  0  0  0  0
    7.0224   -1.9290   24.8049 H   0  0  0  0  0  0  0  0  0  0  0  0
    6.6981   -0.4240   23.9401 H   0  0  0  0  0  0  0  0  0  0  0  0
    6.0778   -1.8420   21.5404 C   0  0  0  0  0  0  0  0  0  0  0  0
    5.3714   -2.5242   20.8008 O   0  0  0  0  0  0  0  0  0  0  0  0
    6.7904   -0.5969   20.9785 C   0  0  0  0  0  0  0  0  0  0  0  0
    6.0773    0.0419   19.7876 C   0  0  0  0  0  0  0  0  0  0  0  0
    6.4783   -0.2244   18.4634 C   0  0  0  0  0  0  0  0  0  0  0  0
    5.8529    0.2797   17.3871 N   0  0  0  0  0  0  0  0  0  0  0  0
    4.7923    1.0787   17.5870 C   0  0  0  0  0  0  0  0  0  0  0  0
    4.3207    1.4179   18.8627 C   0  0  0  0  0  0  0  0  0  0  0  0
    3.2119    2.2638   19.0376 C   0  0  0  0  0  0  0  0  0  0  0  0
    2.7848    2.6009   20.3271 C   0  0  0  0  0  0  0  0  0  0  0  0
    3.4550    2.0983   21.4453 C   0  0  0  0  0  0  0  0  0  0  0  0
    4.5460    1.2424   21.2716 C   0  0  0  0  0  0  0  0  0  0  0  0
    4.9853    0.8961   19.9868 C   0  0  0  0  0  0  0  0  0  0  0  0
    5.0649    0.8516   22.1399 H   0  0  0  0  0  0  0  0  0  0  0  0
    3.1303    2.3767   22.4440 H   0  0  0  0  0  0  0  0  0  0  0  0
    1.9347    3.2610   20.4630 H   0  0  0  0  0  0  0  0  0  0  0  0
    2.6869    2.6689   18.1757 H   0  0  0  0  0  0  0  0  0  0  0  0
    4.2826    1.4708   16.7126 H   0  0  0  0  0  0  0  0  0  0  0  0
    7.3287   -0.8808   18.3042 H   0  0  0  0  0  0  0  0  0  0  0  0
    7.8006   -0.8916   20.6866 H   0  0  0  0  0  0  0  0  0  0  0  0
    6.8777    0.1515   21.7741 H   0  0  0  0  0  0  0  0  0  0  0  0
    5.0461   -3.3546   24.6318 C   0  0  0  0  0  0  0  0  0  0  0  0
    4.6524   -4.5512   25.2335 C   0  0  0  0  0  0  0  0  0  0  0  0
    4.9118   -2.4124   25.1485 H   0  0  0  0  0  0  0  0  0  0  0  0
    6.3954   -4.5135   21.7451 H   0  0  0  0  0  0  0  0  0  0  0  0
    5.7165   -6.6917   22.7694 H   0  0  0  0  0  0  0  0  0  0  0  0
    5.3533   -7.5816   25.5473 H   0  0  0  0  0  0  0  0  0  0  0  0
    4.0553   -7.7271   24.3545 H   0  0  0  0  0  0  0  0  0  0  0  0
    3.1888   -7.8035   26.7230 H   0  0  0  0  0  0  0  0  0  0  0  0
    2.5167   -6.4578   25.7886 H   0  0  0  0  0  0  0  0  0  0  0  0
    4.9456   -6.1840   27.6437 H   0  0  0  0  0  0  0  0  0  0  0  0
    3.2842   -5.7462   28.0699 H   0  0  0  0  0  0  0  0  0  0  0  0
    2.9727   -2.6120   25.1956 H   0  0  0  0  0  0  0  0  0  0  0  0
    3.0867   -1.4070   26.4767 H   0  0  0  0  0  0  0  0  0  0  0  0
    0.6644   -1.9115   25.9519 H   0  0  0  0  0  0  0  0  0  0  0  0
    0.9593   -3.6333   26.3008 H   0  0  0  0  0  0  0  0  0  0  0  0
    1.0677   -2.4370   27.6056 H   0  0  0  0  0  0  0  0  0  0  0  0
  1  2  1  0
  2  3  1  0
  3  4  2  0
  3  5  1  0
  5  6  1  0
  6  7  1  0
  7  8  1  0
  8  9  1  0
  9 10  2  0
 10 11  1  0
 11 12  2  0
 12 13  1  0
 13 14  1  0
 14 15  1  0
 15 16  2  0
 16 17  1  0
 17 18  2  0
 18 19  1  0
 19 20  1  0
 19 21  2  0
 21 22  1  0
 18 23  1  0
 17 24  1  0
 16 25  1  0
 14 26  1  0
 14 27  1  0
 13 28  1  0
 28 29  2  0
 28 30  1  0
 30 31  1  0
 31 32  2  0
 32 33  1  0
 33 34  2  0
 34 35  1  0
 35 36  2  0
 36 37  1  0
 37 38  2  0
 38 39  1  0
 39 40  2  0
 39 41  1  0
 38 42  1  0
 37 43  1  0
 36 44  1  0
 34 45  1  0
 32 46  1  0
 30 47  1  0
 30 48  1  0
 12 49  1  0
 49 50  2  0
 49 51  1  0
 11 52  1  0
 10 53  1  0
  8 54  1  0
  8 55  1  0
  7 56  1  0
  7 57  1  0
  6 58  1  0
  6 59  1  0
  2 60  1  0
  2 61  1  0
  1 62  1  0
  1 63  1  0
  1 64  1  0
 50  5  1  0
 50  9  1  0
 21 15  1  0
 40 31  1  0
 40 35  1  0
M  END
>  <cnnaffinities>  (86) 
[6.98228, 6.73116]

>  <score>  (86) 
6.98228

>  <index>  (86) 
88

>  <Smiles>  (86) 
C(C(C(=O)N1C(C(C(c2c(c(c(N(C(c3c(c(c(c(Br)c3[H])[H])[H])[H])([H])[H])C(=O)C(c3c(nc(c4c(c(c(c(c34)[H])[H])[H])[H])[H])[H])([H])[H])c(c12)[H])[H])[H])([H])[H])([H])[H])([H])[H])([H])[H])([H])([H])[H]

>  <h>  (86) 
<NA>

>  <Training>  (86) 
True

>  <Success>  (86) 
True

>  <enamine_searched>  (86) 
False

>  <enamine_id>  (86) 
nan

$$$$

     RDKit          3D

 38 40  0  0  0  0  0  0  0  0999 V2000
    8.0561    1.6775   20.9690 O   0  0  0  0  0  0  0  0  0  0  0  0
    7.8879    0.6111   21.5302 C   0  0  0  0  0  0  0  0  0  0  0  0
    6.9521   -0.4558   20.9127 C   0  0  0  0  0  0  0  0  0  0  0  0
    6.1172    0.0875   19.7743 C   0  0  0  0  0  0  0  0  0  0  0  0
    6.4278   -0.2072   18.4728 C   0  0  0  0  0  0  0  0  0  0  0  0
    5.7598    0.2435   17.3789 N   0  0  0  0  0  0  0  0  0  0  0  0
    4.7348    1.0314   17.5801 C   0  0  0  0  0  0  0  0  0  0  0  0
    4.2890    1.4252   18.8694 C   0  0  0  0  0  0  0  0  0  0  0  0
    3.1707    2.2804   19.0447 C   0  0  0  0  0  0  0  0  0  0  0  0
    2.7664    2.6474   20.2994 C   0  0  0  0  0  0  0  0  0  0  0  0
    3.4669    2.1725   21.4307 C   0  0  0  0  0  0  0  0  0  0  0  0
    4.5535    1.3438   21.2874 C   0  0  0  0  0  0  0  0  0  0  0  0
    4.9978    0.9453   19.9998 C   0  0  0  0  0  0  0  0  0  0  0  0
    5.0844    0.9930   22.1669 H   0  0  0  0  0  0  0  0  0  0  0  0
    3.1419    2.4722   22.4226 H   0  0  0  0  0  0  0  0  0  0  0  0
    1.9130    3.3088   20.4343 H   0  0  0  0  0  0  0  0  0  0  0  0
    2.6499    2.6470   18.1622 H   0  0  0  0  0  0  0  0  0  0  0  0
    4.2014    1.3977   16.6992 H   0  0  0  0  0  0  0  0  0  0  0  0
    7.2733   -0.8554   18.2436 H   0  0  0  0  0  0  0  0  0  0  0  0
    6.2997   -0.8842   21.6866 H   0  0  0  0  0  0  0  0  0  0  0  0
    7.5688   -1.2876   20.5381 H   0  0  0  0  0  0  0  0  0  0  0  0
    8.4992    0.3262   22.7416 N   0  0  0  0  0  0  0  0  0  0  0  0
    8.8166   -1.0455   23.1442 C   0  0  0  0  0  0  0  0  0  0  0  0
    9.9945   -1.6536   22.4088 C   0  0  0  0  0  0  0  0  0  0  0  0
   11.2169   -1.1278   22.4433 C   0  0  0  0  0  0  0  0  0  0  0  0
   11.5842    0.0994   23.2481 C   0  0  0  0  0  0  0  0  0  0  0  0
   10.8031    1.3662   22.8623 C   0  0  0  0  0  0  0  0  0  0  0  0
    9.3451    1.3710   23.3272 C   0  0  0  0  0  0  0  0  0  0  0  0
    9.3334    1.2323   24.4128 H   0  0  0  0  0  0  0  0  0  0  0  0
    8.8846    2.3376   23.1152 H   0  0  0  0  0  0  0  0  0  0  0  0
   10.8154    1.4876   21.7795 H   0  0  0  0  0  0  0  0  0  0  0  0
   11.3153    2.2492   23.2739 H   0  0  0  0  0  0  0  0  0  0  0  0
   12.6578    0.2857   23.1469 H   0  0  0  0  0  0  0  0  0  0  0  0
   11.4222   -0.0928   24.3180 H   0  0  0  0  0  0  0  0  0  0  0  0
   11.9973   -1.5789   21.8288 H   0  0  0  0  0  0  0  0  0  0  0  0
    9.8136   -2.5470   21.8079 H   0  0  0  0  0  0  0  0  0  0  0  0
    9.0347   -1.0189   24.2174 H   0  0  0  0  0  0  0  0  0  0  0  0
    7.9273   -1.6683   23.0334 H   0  0  0  0  0  0  0  0  0  0  0  0
  1  2  2  0
  2  3  1  0
  3  4  1  0
  4  5  2  0
  5  6  1  0
  6  7  2  0
  7  8  1  0
  8  9  2  0
  9 10  1  0
 10 11  2  0
 11 12  1  0
 12 13  2  0
 12 14  1  0
 11 15  1  0
 10 16  1  0
  9 17  1  0
  7 18  1  0
  5 19  1  0
  3 20  1  0
  3 21  1  0
  2 22  1  0
 22 23  1  0
 23 24  1  0
 24 25  2  0
 25 26  1  0
 26 27  1  0
 27 28  1  0
 28 29  1  0
 28 30  1  0
 27 31  1  0
 27 32  1  0
 26 33  1  0
 26 34  1  0
 25 35  1  0
 24 36  1  0
 23 37  1  0
 23 38  1  0
 13  4  1  0
 28 22  1  0
 13  8  1  0
M  END
>  <cnnaffinities>  (87) 
[5.56035]

>  <score>  (87) 
5.56035

>  <index>  (87) 
89

>  <Smiles>  (87) 
O=C(C(c1c(nc(c2c(c(c(c(c12)[H])[H])[H])[H])[H])[H])([H])[H])N1C(C(=C(C(C(C1([H])[H])([H])[H])([H])[H])[H])[H])([H])[H]

>  <h>  (87) 
<NA>

>  <Training>  (87) 
True

>  <Success>  (87) 
True

>  <enamine_searched>  (87) 
False

>  <enamine_id>  (87) 
nan

$$$$

     RDKit          3D

 62 67  0  0  0  0  0  0  0  0999 V2000
    9.9572   -1.5120   22.4559 C   0  0  0  0  0  0  0  0  0  0  0  0
    8.5576   -0.9151   22.3579 C   0  0  1  0  0  0  0  0  0  0  0  0
    8.2804   -0.3677   20.9518 C   0  0  0  0  0  0  0  0  0  0  0  0
    6.8372   -0.4312   20.8648 N   0  0  0  0  0  0  0  0  0  0  0  0
    6.1136    0.1060   19.7865 C   0  0  0  0  0  0  0  0  0  0  0  0
    6.4684   -0.1971   18.4984 C   0  0  0  0  0  0  0  0  0  0  0  0
    5.8095    0.2444   17.4046 N   0  0  0  0  0  0  0  0  0  0  0  0
    4.7775    1.0254   17.6062 C   0  0  0  0  0  0  0  0  0  0  0  0
    4.3120    1.4192   18.8921 C   0  0  0  0  0  0  0  0  0  0  0  0
    3.1933    2.2753   19.0428 C   0  0  0  0  0  0  0  0  0  0  0  0
    2.7807    2.6605   20.2876 C   0  0  0  0  0  0  0  0  0  0  0  0
    3.4666    2.2119   21.4394 C   0  0  0  0  0  0  0  0  0  0  0  0
    4.5499    1.3785   21.3213 C   0  0  0  0  0  0  0  0  0  0  0  0
    4.9949    0.9553   20.0346 C   0  0  0  0  0  0  0  0  0  0  0  0
    5.0725    1.0380   22.2109 H   0  0  0  0  0  0  0  0  0  0  0  0
    3.1333    2.5402   22.4201 H   0  0  0  0  0  0  0  0  0  0  0  0
    1.9320    3.3278   20.3968 H   0  0  0  0  0  0  0  0  0  0  0  0
    2.6964    2.6279   18.1426 H   0  0  0  0  0  0  0  0  0  0  0  0
    4.2449    1.3845   16.7268 H   0  0  0  0  0  0  0  0  0  0  0  0
    7.3162   -0.8562   18.3165 H   0  0  0  0  0  0  0  0  0  0  0  0
    6.2983   -1.4340   21.6429 C   0  0  0  0  0  0  0  0  0  0  0  0
    5.1889   -1.9020   21.4683 O   0  0  0  0  0  0  0  0  0  0  0  0
    7.3711   -1.8815   22.6708 C   0  0  1  0  0  0  0  0  0  0  0  0
    7.7484   -3.3377   22.3364 C   0  0  0  0  0  0  0  0  0  0  0  0
    6.6838   -4.2287   22.7392 N   0  0  0  0  0  0  0  0  0  0  0  0
    6.0598   -5.1102   21.7677 C   0  0  0  0  0  0  0  0  0  0  0  0
    6.9774   -6.2825   21.5195 C   0  0  0  0  0  0  0  0  0  0  0  0
    7.2074   -6.9846   22.8206 N   0  0  0  0  0  4  0  0  0  0  0  0
    6.1607   -7.9991   23.2719 C   0  0  0  0  0  0  0  0  0  0  0  0
    7.1144   -9.1878   22.9824 C   0  0  0  0  0  0  0  0  0  0  0  0
    8.2015   -8.1151   22.7254 C   0  0  0  0  0  0  0  0  0  0  0  0
    8.4909   -8.1431   21.6795 H   0  0  0  0  0  0  0  0  0  0  0  0
    9.0645   -7.9970   23.3754 H   0  0  0  0  0  0  0  0  0  0  0  0
    6.9025   -9.6403   22.0229 H   0  0  0  0  0  0  0  0  0  0  0  0
    7.2082   -9.9773   23.7278 H   0  0  0  0  0  0  0  0  0  0  0  0
    5.9724   -7.8025   24.3208 H   0  0  0  0  0  0  0  0  0  0  0  0
    5.2432   -7.8904   22.6955 H   0  0  0  0  0  0  0  0  0  0  0  0
    7.3500   -6.2872   23.5661 H   0  0  0  0  0  0  0  0  0  0  0  0
    6.5952   -6.9815   20.7657 H   0  0  0  0  0  0  0  0  0  0  0  0
    7.9507   -5.9015   21.1976 H   0  0  0  0  0  0  0  0  0  0  0  0
    5.8475   -4.5408   20.8581 H   0  0  0  0  0  0  0  0  0  0  0  0
    5.1023   -5.4338   22.1864 H   0  0  0  0  0  0  0  0  0  0  0  0
    6.2933   -4.2811   24.0370 C   0  0  0  0  0  0  0  0  0  0  0  0
    5.8892   -5.3277   24.5531 O   0  0  0  0  0  0  0  0  0  0  0  0
    6.3748   -2.9909   24.7580 C   0  0  0  0  0  0  0  0  0  0  0  0
    5.9020   -2.9519   26.0672 C   0  0  0  0  0  0  0  0  0  0  0  0
    5.8920   -1.7655   26.7692 C   0  0  0  0  0  0  0  0  0  0  0  0
    6.3521   -0.6178   26.1241 C   0  0  0  0  0  0  0  0  0  0  0  0
    6.3485    0.8971   26.9829 Cl  0  0  0  0  0  0  0  0  0  0  0  0
    6.8281   -0.6447   24.8266 C   0  0  0  0  0  0  0  0  0  0  0  0
    6.8618   -1.8447   24.1075 C   0  0  0  0  0  0  0  0  0  0  0  0
    7.1879    0.2806   24.3935 H   0  0  0  0  0  0  0  0  0  0  0  0
    5.5440   -1.7276   27.7949 H   0  0  0  0  0  0  0  0  0  0  0  0
    5.5367   -3.8751   26.5043 H   0  0  0  0  0  0  0  0  0  0  0  0
    7.9154   -3.4318   21.2619 H   0  0  0  0  0  0  0  0  0  0  0  0
    8.6912   -3.5882   22.8494 H   0  0  0  0  0  0  0  0  0  0  0  0
    8.7760   -0.9889   20.1861 H   0  0  0  0  0  0  0  0  0  0  0  0
    8.6297    0.6625   20.8286 H   0  0  0  0  0  0  0  0  0  0  0  0
    8.4948   -0.0671   23.0437 H   0  0  0  0  0  0  0  0  0  0  0  0
   10.0913   -2.3035   21.7063 H   0  0  0  0  0  0  0  0  0  0  0  0
   10.1416   -1.9432   23.4464 H   0  0  0  0  0  0  0  0  0  0  0  0
   10.7094   -0.7400   22.2629 H   0  0  0  0  0  0  0  0  0  0  0  0
  1  2  1  0
  2  3  1  0
  3  4  1  0
  4  5  1  0
  5  6  2  0
  6  7  1  0
  7  8  2  0
  8  9  1  0
  9 10  2  0
 10 11  1  0
 11 12  2  0
 12 13  1  0
 13 14  2  0
 13 15  1  0
 12 16  1  0
 11 17  1  0
 10 18  1  0
  8 19  1  0
  6 20  1  0
  4 21  1  0
 21 22  2  0
 21 23  1  0
 23 24  1  6
 24 25  1  0
 25 26  1  0
 26 27  1  0
 27 28  1  0
 28 29  1  0
 29 30  1  0
 30 31  1  0
 31 32  1  0
 31 33  1  0
 30 34  1  0
 30 35  1  0
 29 36  1  0
 29 37  1  0
 28 38  1  0
 27 39  1  0
 27 40  1  0
 26 41  1  0
 26 42  1  0
 25 43  1  0
 43 44  2  0
 43 45  1  0
 45 46  2  0
 46 47  1  0
 47 48  2  0
 48 49  1  0
 48 50  1  0
 50 51  2  0
 50 52  1  0
 47 53  1  0
 46 54  1  0
 24 55  1  0
 24 56  1  0
  3 57  1  0
  3 58  1  0
  2 59  1  1
  1 60  1  0
  1 61  1  0
  1 62  1  0
 23  2  1  0
 31 28  1  0
 51 45  1  0
 14  5  1  0
 51 23  1  0
 14  9  1  0
M  CHG  1  28   1
M  END
>  <cnnaffinities>  (88) 
[6.4718]

>  <score>  (88) 
6.4718

>  <index>  (88) 
90

>  <Smiles>  (88) 
C([C@]1(C(N(c2c(nc(c3c(c(c(c(c23)[H])[H])[H])[H])[H])[H])C(=O)[C@]21C(N(C(C([N+]1(C(C(C1([H])[H])([H])[H])([H])[H])[H])([H])[H])([H])[H])C(=O)c1c(c(c(Cl)c(c21)[H])[H])[H])([H])[H])([H])[H])[H])([H])([H])[H]

>  <h>  (88) 
<NA>

>  <Training>  (88) 
True

>  <Success>  (88) 
True

>  <enamine_searched>  (88) 
False

>  <enamine_id>  (88) 
nan

$$$$

     RDKit          3D

 56 61  0  0  0  0  0  0  0  0999 V2000
    9.7829   -1.9150   21.8299 C   0  0  0  0  0  0  0  0  0  0  0  0
    8.6752   -0.9715   22.3283 C   0  0  1  0  0  0  0  0  0  0  0  0
    8.2101   -0.0441   21.1724 C   0  0  0  0  0  0  0  0  0  0  0  0
    6.8663   -0.4774   20.8471 N   0  0  0  0  0  0  0  0  0  0  0  0
    6.1079    0.0754   19.7674 C   0  0  0  0  0  0  0  0  0  0  0  0
    6.4326   -0.2120   18.4639 C   0  0  0  0  0  0  0  0  0  0  0  0
    5.7587    0.2406   17.3761 N   0  0  0  0  0  0  0  0  0  0  0  0
    4.7322    1.0329   17.5753 C   0  0  0  0  0  0  0  0  0  0  0  0
    4.2854    1.4269   18.8681 C   0  0  0  0  0  0  0  0  0  0  0  0
    3.1683    2.2869   19.0486 C   0  0  0  0  0  0  0  0  0  0  0  0
    2.7784    2.6508   20.3094 C   0  0  0  0  0  0  0  0  0  0  0  0
    3.4832    2.1815   21.4394 C   0  0  0  0  0  0  0  0  0  0  0  0
    4.5656    1.3524   21.2917 C   0  0  0  0  0  0  0  0  0  0  0  0
    4.9888    0.9428   19.9978 C   0  0  0  0  0  0  0  0  0  0  0  0
    5.1117    1.0050   22.1663 H   0  0  0  0  0  0  0  0  0  0  0  0
    3.1682    2.4850   22.4318 H   0  0  0  0  0  0  0  0  0  0  0  0
    1.9275    3.3091   20.4523 H   0  0  0  0  0  0  0  0  0  0  0  0
    2.6348    2.6557   18.1751 H   0  0  0  0  0  0  0  0  0  0  0  0
    4.1932    1.4040   16.7017 H   0  0  0  0  0  0  0  0  0  0  0  0
    7.2749   -0.8728   18.2665 H   0  0  0  0  0  0  0  0  0  0  0  0
    6.3498   -1.3906   21.7512 C   0  0  0  0  0  0  0  0  0  0  0  0
    5.2456   -1.8885   21.6906 O   0  0  0  0  0  0  0  0  0  0  0  0
    7.3764   -1.6601   22.8730 C   0  0  1  0  0  0  0  0  0  0  0  0
    7.5169   -3.2113   23.0755 C   0  0  0  0  0  0  0  0  0  0  0  0
    6.2693   -3.7404   23.6199 N   0  0  0  0  0  0  0  0  0  0  0  0
    5.7789   -4.9962   23.1767 C   0  0  0  0  0  0  0  0  0  0  0  0
    6.5619   -6.1782   23.7879 C   0  0  0  0  0  0  0  0  0  0  0  0
    6.2395   -6.9750   25.0188 C   0  0  0  0  0  0  0  0  0  0  0  0
    6.5617   -6.1781   23.7880 N   0  0  0  0  0  0  0  0  0  0  0  0
    8.1317   -7.8817   23.7741 N   0  0  0  0  0  0  0  0  0  0  0  0
    7.7907   -6.8125   23.2434 C   0  0  0  0  0  0  0  0  0  0  0  0
    8.2947   -6.0570   22.6915 H   0  0  0  0  0  0  0  0  0  0  0  0
    9.0389   -8.1746   24.1099 H   0  0  0  0  0  0  0  0  0  0  0  0
    5.3103   -6.8273   25.5150 H   0  0  0  0  0  0  0  0  0  0  0  0
    4.7410   -5.2026   23.3599 H   0  0  0  0  0  0  0  0  0  0  0  0
    5.9249   -5.1206   22.0569 H   0  0  0  0  0  0  0  0  0  0  0  0
    5.7401   -3.2294   24.7959 C   0  0  0  0  0  0  0  0  0  0  0  0
    4.9987   -3.8849   25.5188 O   0  0  0  0  0  0  0  0  0  0  0  0
    6.0589   -1.7907   25.0791 C   0  0  0  0  0  0  0  0  0  0  0  0
    5.5352   -1.1838   26.2359 C   0  0  0  0  0  0  0  0  0  0  0  0
    5.7178    0.1673   26.4805 C   0  0  0  0  0  0  0  0  0  0  0  0
    6.4109    0.9274   25.5447 C   0  0  0  0  0  0  0  0  0  0  0  0
    6.5586    2.2512   25.7580 F   0  0  0  0  0  0  0  0  0  0  0  0
    6.9390    0.3534   24.3989 C   0  0  0  0  0  0  0  0  0  0  0  0
    6.8150   -1.0302   24.1680 C   0  0  0  0  0  0  0  0  0  0  0  0
    7.4343    1.0070   23.6889 H   0  0  0  0  0  0  0  0  0  0  0  0
    5.3103    0.6342   27.3714 H   0  0  0  0  0  0  0  0  0  0  0  0
    4.9623   -1.7707   26.9507 H   0  0  0  0  0  0  0  0  0  0  0  0
    7.7587   -3.6948   22.1154 H   0  0  0  0  0  0  0  0  0  0  0  0
    8.3611   -3.3989   23.7639 H   0  0  0  0  0  0  0  0  0  0  0  0
    8.2149    1.0098   21.4874 H   0  0  0  0  0  0  0  0  0  0  0  0
    8.8594   -0.1282   20.2939 H   0  0  0  0  0  0  0  0  0  0  0  0
    9.1335   -0.3721   23.1258 H   0  0  0  0  0  0  0  0  0  0  0  0
   10.6317   -1.3241   21.4618 H   0  0  0  0  0  0  0  0  0  0  0  0
    9.4300   -2.5439   21.0023 H   0  0  0  0  0  0  0  0  0  0  0  0
   10.1609   -2.5531   22.6362 H   0  0  0  0  0  0  0  0  0  0  0  0
  1  2  1  0
  2  3  1  0
  3  4  1  0
  4  5  1  0
  5  6  2  0
  6  7  1  0
  7  8  2  0
  8  9  1  0
  9 10  2  0
 10 11  1  0
 11 12  2  0
 12 13  1  0
 13 14  2  0
 13 15  1  0
 12 16  1  0
 11 17  1  0
 10 18  1  0
  8 19  1  0
  6 20  1  0
  4 21  1  0
 21 22  2  0
 21 23  1  0
 23 24  1  1
 24 25  1  0
 25 26  1  0
 26 27  1  0
 27 28  1  0
 28 29  2  0
 29 30  1  0
 30 31  1  0
 31 32  1  0
 30 33  1  0
 28 34  1  0
 26 35  1  0
 26 36  1  0
 25 37  1  0
 37 38  2  0
 37 39  1  0
 39 40  2  0
 40 41  1  0
 41 42  2  0
 42 43  1  0
 42 44  1  0
 44 45  2  0
 44 46  1  0
 41 47  1  0
 40 48  1  0
 24 49  1  0
 24 50  1  0
  3 51  1  0
  3 52  1  0
  2 53  1  1
  1 54  1  0
  1 55  1  0
  1 56  1  0
 23  2  1  0
 31 27  2  0
 45 39  1  0
 14  5  1  0
 45 23  1  0
 14  9  1  0
M  END
>  <cnnaffinities>  (89) 
[6.50327]

>  <score>  (89) 
6.50327

>  <index>  (89) 
91

>  <Smiles>  (89) 
C([C@]1(C(N(c2c(nc(c3c(c(c(c(c23)[H])[H])[H])[H])[H])[H])C(=O)[C@]21C(N(C(c1c(nn(c1[H])[H])[H])([H])[H])C(=O)c1c(c(c(F)c(c21)[H])[H])[H])([H])[H])([H])[H])[H])([H])([H])[H]

>  <h>  (89) 
<NA>

>  <Training>  (89) 
True

>  <Success>  (89) 
True

>  <enamine_searched>  (89) 
False

>  <enamine_id>  (89) 
nan

$$$$

     RDKit          3D

 47 50  0  0  0  0  0  0  0  0999 V2000
    8.2147    1.5855   20.8465 O   0  0  0  0  0  0  0  0  0  0  0  0
    7.8984    0.6073   21.4957 C   0  0  0  0  0  0  0  0  0  0  0  0
    6.9379   -0.4503   20.9149 C   0  0  0  0  0  0  0  0  0  0  0  0
    6.1149    0.0879   19.7734 C   0  0  0  0  0  0  0  0  0  0  0  0
    6.4290   -0.2052   18.4705 C   0  0  0  0  0  0  0  0  0  0  0  0
    5.7592    0.2451   17.3767 N   0  0  0  0  0  0  0  0  0  0  0  0
    4.7329    1.0325   17.5809 C   0  0  0  0  0  0  0  0  0  0  0  0
    4.2868    1.4246   18.8732 C   0  0  0  0  0  0  0  0  0  0  0  0
    3.1684    2.2779   19.0456 C   0  0  0  0  0  0  0  0  0  0  0  0
    2.7620    2.6436   20.2993 C   0  0  0  0  0  0  0  0  0  0  0  0
    3.4675    2.1650   21.4308 C   0  0  0  0  0  0  0  0  0  0  0  0
    4.5572    1.3382   21.2993 C   0  0  0  0  0  0  0  0  0  0  0  0
    4.9959    0.9451   20.0048 C   0  0  0  0  0  0  0  0  0  0  0  0
    5.0826    0.9916   22.1926 H   0  0  0  0  0  0  0  0  0  0  0  0
    3.1396    2.4658   22.4182 H   0  0  0  0  0  0  0  0  0  0  0  0
    1.9094    3.3032   20.4364 H   0  0  0  0  0  0  0  0  0  0  0  0
    2.6511    2.6448   18.1618 H   0  0  0  0  0  0  0  0  0  0  0  0
    4.2024    1.3968   16.6978 H   0  0  0  0  0  0  0  0  0  0  0  0
    7.2722   -0.8543   18.2422 H   0  0  0  0  0  0  0  0  0  0  0  0
    7.5583   -1.2766   20.5440 H   0  0  0  0  0  0  0  0  0  0  0  0
    6.2934   -0.8748   21.6907 H   0  0  0  0  0  0  0  0  0  0  0  0
    8.4586    0.4049   22.7561 N   0  0  0  0  0  0  0  0  0  0  0  0
    9.5516    1.2668   23.0450 C   0  0  0  0  0  0  0  0  0  0  0  0
   10.8242    0.8797   22.9790 C   0  0  0  0  0  0  0  0  0  0  0  0
   11.2495   -0.5157   22.7647 C   0  0  0  0  0  0  0  0  0  0  0  0
   10.9023   -1.5473   23.5412 C   0  0  0  0  0  0  0  0  0  0  0  0
   10.1375   -1.4057   24.7971 C   0  0  0  0  0  0  0  0  0  0  0  0
    8.9206   -0.8676   24.9003 C   0  0  0  0  0  0  0  0  0  0  0  0
    7.9634   -0.5878   23.7492 C   0  0  1  0  0  0  0  0  0  0  0  0
    6.5985   -0.1624   24.2755 C   0  0  0  0  0  0  0  0  0  0  0  0
    6.4079    1.1340   24.7479 C   0  0  0  0  0  0  0  0  0  0  0  0
    5.1749    1.5387   25.2416 C   0  0  0  0  0  0  0  0  0  0  0  0
    4.1148    0.6395   25.2841 C   0  0  0  0  0  0  0  0  0  0  0  0
    4.3145   -0.6687   24.8604 C   0  0  0  0  0  0  0  0  0  0  0  0
    5.5418   -1.0666   24.3418 C   0  0  0  0  0  0  0  0  0  0  0  0
    5.6854   -2.0873   23.9942 H   0  0  0  0  0  0  0  0  0  0  0  0
    3.5110   -1.3850   24.9512 H   0  0  0  0  0  0  0  0  0  0  0  0
    3.1422    0.9470   25.6518 H   0  0  0  0  0  0  0  0  0  0  0  0
    5.0431    2.5531   25.5992 H   0  0  0  0  0  0  0  0  0  0  0  0
    7.2453    1.8237   24.7339 H   0  0  0  0  0  0  0  0  0  0  0  0
    7.8540   -1.5342   23.2064 H   0  0  0  0  0  0  0  0  0  0  0  0
    8.4934   -0.7172   25.8910 H   0  0  0  0  0  0  0  0  0  0  0  0
   10.6657   -1.7434   25.6922 H   0  0  0  0  0  0  0  0  0  0  0  0
   11.2558   -2.5496   23.2957 H   0  0  0  0  0  0  0  0  0  0  0  0
   11.9129   -0.6883   21.9149 H   0  0  0  0  0  0  0  0  0  0  0  0
   11.6161    1.6184   23.0916 H   0  0  0  0  0  0  0  0  0  0  0  0
    9.2835    2.3016   23.2644 H   0  0  0  0  0  0  0  0  0  0  0  0
  1  2  2  0
  2  3  1  0
  3  4  1  0
  4  5  2  0
  5  6  1  0
  6  7  2  0
  7  8  1  0
  8  9  2  0
  9 10  1  0
 10 11  2  0
 11 12  1  0
 12 13  2  0
 12 14  1  0
 11 15  1  0
 10 16  1  0
  9 17  1  0
  7 18  1  0
  5 19  1  0
  3 20  1  0
  3 21  1  0
  2 22  1  0
 22 23  1  0
 23 24  2  3
 24 25  1  0
 25 26  2  3
 26 27  1  0
 27 28  2  3
 28 29  1  0
 29 30  1  0
 30 31  2  0
 31 32  1  0
 32 33  2  0
 33 34  1  0
 34 35  2  0
 35 36  1  0
 34 37  1  0
 33 38  1  0
 32 39  1  0
 31 40  1  0
 29 41  1  6
 28 42  1  0
 27 43  1  0
 26 44  1  0
 25 45  1  0
 24 46  1  0
 23 47  1  0
 13  4  1  0
 29 22  1  0
 35 30  1  0
 13  8  1  0
M  END
>  <cnnaffinities>  (90) 
[6.08441, 6.0842, 5.94826, 5.9487]

>  <score>  (90) 
6.08441

>  <index>  (90) 
92

>  <Smiles>  (90) 
O=C(C(c1c(nc(c2c(c(c(c(c12)[H])[H])[H])[H])[H])[H])([H])[H])N1C(=C(C(=C(C(=C([C@]1(c1c(c(c(c(c1[H])[H])[H])[H])[H])[H])[H])[H])[H])[H])[H])[H]

>  <h>  (90) 
<NA>

>  <Training>  (90) 
True

>  <Success>  (90) 
True

>  <enamine_searched>  (90) 
False

>  <enamine_id>  (90) 
nan

$$$$

     RDKit          3D

 58 62  0  0  0  0  0  0  0  0999 V2000
    2.7448   -5.4089   23.4150 C   0  0  0  0  0  0  0  0  0  0  0  0
    3.5804   -4.4957   22.5897 N   0  0  0  0  0  4  0  0  0  0  0  0
    4.9073   -5.0827   22.2182 C   0  0  0  0  0  0  0  0  0  0  0  0
    5.9108   -5.0675   23.3811 C   0  0  0  0  0  0  0  0  0  0  0  0
    6.2989   -3.7206   23.7677 N   0  0  0  0  0  0  0  0  0  0  0  0
    7.4797   -3.1544   23.1431 C   0  0  0  0  0  0  0  0  0  0  0  0
    7.3350   -1.6450   22.8693 C   0  0  2  0  0  0  0  0  0  0  0  0
    6.3071   -1.4012   21.7379 C   0  0  0  0  0  0  0  0  0  0  0  0
    5.1924   -1.8828   21.6499 O   0  0  0  0  0  0  0  0  0  0  0  0
    6.8478   -0.5065   20.8471 N   0  0  0  0  0  0  0  0  0  0  0  0
    6.0956    0.0472   19.7785 C   0  0  0  0  0  0  0  0  0  0  0  0
    6.4424   -0.2260   18.4808 C   0  0  0  0  0  0  0  0  0  0  0  0
    5.7826    0.2447   17.3984 N   0  0  0  0  0  0  0  0  0  0  0  0
    4.7531    1.0253   17.6059 C   0  0  0  0  0  0  0  0  0  0  0  0
    4.2959    1.4126   18.8960 C   0  0  0  0  0  0  0  0  0  0  0  0
    3.1813    2.2777   19.0629 C   0  0  0  0  0  0  0  0  0  0  0  0
    2.7823    2.6553   20.3135 C   0  0  0  0  0  0  0  0  0  0  0  0
    3.4879    2.1969   21.4493 C   0  0  0  0  0  0  0  0  0  0  0  0
    4.5666    1.3610   21.3181 C   0  0  0  0  0  0  0  0  0  0  0  0
    4.9892    0.9249   20.0269 C   0  0  0  0  0  0  0  0  0  0  0  0
    5.1027    1.0125   22.2020 H   0  0  0  0  0  0  0  0  0  0  0  0
    3.1625    2.5091   22.4395 H   0  0  0  0  0  0  0  0  0  0  0  0
    1.9272    3.3185   20.4374 H   0  0  0  0  0  0  0  0  0  0  0  0
    2.6744    2.6349   18.1692 H   0  0  0  0  0  0  0  0  0  0  0  0
    4.2260    1.3841   16.7227 H   0  0  0  0  0  0  0  0  0  0  0  0
    7.2929   -0.8719   18.2630 H   0  0  0  0  0  0  0  0  0  0  0  0
    8.1980   -0.0784   21.1570 C   0  0  0  0  0  0  0  0  0  0  0  0
    8.6511   -0.9936   22.3185 C   0  0  2  0  0  0  0  0  0  0  0  0
    9.7421   -1.9666   21.8259 C   0  0  0  0  0  0  0  0  0  0  0  0
   10.5981   -1.4046   21.4297 H   0  0  0  0  0  0  0  0  0  0  0  0
   10.1215   -2.6008   22.6336 H   0  0  0  0  0  0  0  0  0  0  0  0
    9.3776   -2.6178   21.0213 H   0  0  0  0  0  0  0  0  0  0  0  0
    9.1114   -0.3980   23.1176 H   0  0  0  0  0  0  0  0  0  0  0  0
    8.8489   -0.2115   20.2903 H   0  0  0  0  0  0  0  0  0  0  0  0
    8.2264    0.9907   21.4196 H   0  0  0  0  0  0  0  0  0  0  0  0
    6.8269   -0.9732   24.1408 C   0  0  0  0  0  0  0  0  0  0  0  0
    7.0082    0.4045   24.3362 C   0  0  0  0  0  0  0  0  0  0  0  0
    6.4945    1.0008   25.4699 C   0  0  0  0  0  0  0  0  0  0  0  0
    6.6828    2.3192   25.6600 F   0  0  0  0  0  0  0  0  0  0  0  0
    5.7841    0.2878   26.4258 C   0  0  0  0  0  0  0  0  0  0  0  0
    5.5726   -1.0611   26.2173 C   0  0  0  0  0  0  0  0  0  0  0  0
    6.0738   -1.6927   25.0803 C   0  0  0  0  0  0  0  0  0  0  0  0
    5.7115   -3.1360   24.8479 C   0  0  0  0  0  0  0  0  0  0  0  0
    4.8975   -3.7293   25.5475 O   0  0  0  0  0  0  0  0  0  0  0  0
    4.9993   -1.6662   26.9109 H   0  0  0  0  0  0  0  0  0  0  0  0
    5.4078    0.8112   27.2952 H   0  0  0  0  0  0  0  0  0  0  0  0
    7.5326    1.0405   23.6300 H   0  0  0  0  0  0  0  0  0  0  0  0
    8.3685   -3.3067   23.7789 H   0  0  0  0  0  0  0  0  0  0  0  0
    7.6167   -3.6748   22.1928 H   0  0  0  0  0  0  0  0  0  0  0  0
    6.8158   -5.6064   23.0803 H   0  0  0  0  0  0  0  0  0  0  0  0
    5.5002   -5.5507   24.2708 H   0  0  0  0  0  0  0  0  0  0  0  0
    5.2866   -4.4819   21.3965 H   0  0  0  0  0  0  0  0  0  0  0  0
    4.7574   -6.1107   21.8828 H   0  0  0  0  0  0  0  0  0  0  0  0
    3.0503   -4.2465   21.7293 H   0  0  0  0  0  0  0  0  0  0  0  0
    3.7720   -3.5968   23.0930 H   0  0  0  0  0  0  0  0  0  0  0  0
    3.2109   -5.5765   24.3854 H   0  0  0  0  0  0  0  0  0  0  0  0
    2.6316   -6.3787   22.9190 H   0  0  0  0  0  0  0  0  0  0  0  0
    1.7555   -4.9798   23.5605 H   0  0  0  0  0  0  0  0  0  0  0  0
  1  2  1  0
  2  3  1  0
  3  4  1  0
  4  5  1  0
  5  6  1  0
  7  6  1  1
  7  8  1  0
  8  9  2  0
  8 10  1  0
 10 11  1  0
 11 12  2  0
 12 13  1  0
 13 14  2  0
 14 15  1  0
 15 16  2  0
 16 17  1  0
 17 18  2  0
 18 19  1  0
 19 20  2  0
 19 21  1  0
 18 22  1  0
 17 23  1  0
 16 24  1  0
 14 25  1  0
 12 26  1  0
 10 27  1  0
 27 28  1  0
 28 29  1  0
 29 30  1  0
 29 31  1  0
 29 32  1  0
 28 33  1  1
 27 34  1  0
 27 35  1  0
  7 36  1  0
 36 37  2  0
 37 38  1  0
 38 39  1  0
 38 40  2  0
 40 41  1  0
 41 42  2  0
 42 43  1  0
 43 44  2  0
 41 45  1  0
 40 46  1  0
 37 47  1  0
  6 48  1  0
  6 49  1  0
  4 50  1  0
  4 51  1  0
  3 52  1  0
  3 53  1  0
  2 54  1  0
  2 55  1  0
  1 56  1  0
  1 57  1  0
  1 58  1  0
 43  5  1  0
 28  7  1  0
 42 36  1  0
 20 11  1  0
 20 15  1  0
M  CHG  1   2   1
M  END
>  <cnnaffinities>  (91) 
[5.9858, 6.08688]

>  <score>  (91) 
5.9858

>  <index>  (91) 
93

>  <Smiles>  (91) 
C([N+](C(C(N1C([C@@]2(C(=O)N(c3c(nc(c4c(c(c(c(c34)[H])[H])[H])[H])[H])[H])C([C@@]2(C([H])([H])[H])[H])([H])[H])c2c(c(F)c(c(c2C1=O)[H])[H])[H])([H])[H])([H])[H])([H])[H])([H])[H])([H])([H])[H]

>  <h>  (91) 
<NA>

>  <Training>  (91) 
True

>  <Success>  (91) 
True

>  <enamine_searched>  (91) 
False

>  <enamine_id>  (91) 
nan

$$$$

     RDKit          3D

 65 69  0  0  0  0  0  0  0  0999 V2000
   11.5570   -4.4649   27.8405 C   0  0  0  0  0  0  0  0  0  0  0  0
   10.0877   -4.1243   27.5689 C   0  0  0  0  0  0  0  0  0  0  0  0
    9.9782   -2.9565   26.6224 C   0  0  0  0  0  0  0  0  0  0  0  0
   10.3908   -1.8568   26.8830 O   0  0  0  0  0  0  0  0  0  0  0  0
    9.3342   -3.2067   25.2695 N   0  0  2  0  0  4  0  0  0  0  0  0
   10.3983   -3.4379   24.1471 C   0  0  0  0  0  0  0  0  0  0  0  0
   10.9929   -2.1016   23.7403 C   0  0  0  0  0  0  0  0  0  0  0  0
    9.9132   -1.1823   23.1589 C   0  0  0  0  0  0  0  0  0  0  0  0
    8.6276   -1.1357   23.9730 C   0  0  0  0  0  0  0  0  0  0  0  0
    7.6766   -0.1121   23.7877 C   0  0  0  0  0  0  0  0  0  0  0  0
    7.9226    0.8974   22.8028 N   0  0  0  0  0  0  0  0  0  0  0  0
    8.2935    2.2506   23.2352 C   0  0  0  0  0  0  0  0  0  0  0  0
    7.1731    3.2488   23.0123 C   0  0  0  0  0  0  0  0  0  0  0  0
    7.0332    3.8854   21.7808 C   0  0  0  0  0  0  0  0  0  0  0  0
    5.9731    4.7521   21.5480 C   0  0  0  0  0  0  0  0  0  0  0  0
    5.0332    5.0031   22.5422 C   0  0  0  0  0  0  0  0  0  0  0  0
    5.1843    4.3698   23.7686 C   0  0  0  0  0  0  0  0  0  0  0  0
    3.9974    4.6427   25.0140 Cl  0  0  0  0  0  0  0  0  0  0  0  0
    6.2400    3.5016   24.0156 C   0  0  0  0  0  0  0  0  0  0  0  0
    6.3175    3.0248   24.9897 H   0  0  0  0  0  0  0  0  0  0  0  0
    4.1849    5.6617   22.3712 H   0  0  0  0  0  0  0  0  0  0  0  0
    5.8611    5.2270   20.5759 H   0  0  0  0  0  0  0  0  0  0  0  0
    7.7472    3.6652   20.9926 H   0  0  0  0  0  0  0  0  0  0  0  0
    9.1845    2.5637   22.6718 H   0  0  0  0  0  0  0  0  0  0  0  0
    8.5333    2.1830   24.2994 H   0  0  0  0  0  0  0  0  0  0  0  0
    7.9045    0.6577   21.4400 C   0  0  0  0  0  0  0  0  0  0  0  0
    8.6123    1.2901   20.6730 O   0  0  0  0  0  0  0  0  0  0  0  0
    6.9485   -0.4280   20.9101 C   0  0  0  0  0  0  0  0  0  0  0  0
    6.1068    0.0882   19.7689 C   0  0  0  0  0  0  0  0  0  0  0  0
    6.4254   -0.2078   18.4695 C   0  0  0  0  0  0  0  0  0  0  0  0
    5.7597    0.2453   17.3768 N   0  0  0  0  0  0  0  0  0  0  0  0
    4.7361    1.0329   17.5791 C   0  0  0  0  0  0  0  0  0  0  0  0
    4.2827    1.4256   18.8691 C   0  0  0  0  0  0  0  0  0  0  0  0
    3.1694    2.2831   19.0480 C   0  0  0  0  0  0  0  0  0  0  0  0
    2.7603    2.6388   20.3021 C   0  0  0  0  0  0  0  0  0  0  0  0
    3.4487    2.1504   21.4369 C   0  0  0  0  0  0  0  0  0  0  0  0
    4.5421    1.3335   21.2894 C   0  0  0  0  0  0  0  0  0  0  0  0
    4.9879    0.9450   19.9994 C   0  0  0  0  0  0  0  0  0  0  0  0
    5.0721    0.9789   22.1713 H   0  0  0  0  0  0  0  0  0  0  0  0
    3.1155    2.4366   22.4323 H   0  0  0  0  0  0  0  0  0  0  0  0
    1.9083    3.3032   20.4296 H   0  0  0  0  0  0  0  0  0  0  0  0
    2.6602    2.6533   18.1615 H   0  0  0  0  0  0  0  0  0  0  0  0
    4.2047    1.3975   16.6974 H   0  0  0  0  0  0  0  0  0  0  0  0
    7.2715   -0.8554   18.2382 H   0  0  0  0  0  0  0  0  0  0  0  0
    7.5785   -1.2432   20.5338 H   0  0  0  0  0  0  0  0  0  0  0  0
    6.3404   -0.8342   21.7274 H   0  0  0  0  0  0  0  0  0  0  0  0
    6.5107   -0.0622   24.5465 C   0  0  0  0  0  0  0  0  0  0  0  0
    6.2342   -1.0598   25.4796 C   0  0  0  0  0  0  0  0  0  0  0  0
    7.1498   -2.0887   25.6571 C   0  0  0  0  0  0  0  0  0  0  0  0
    8.3284   -2.1139   24.9127 C   0  0  0  0  0  0  0  0  0  0  0  0
    6.9900   -2.8729   26.3901 H   0  0  0  0  0  0  0  0  0  0  0  0
    5.3185   -1.0367   26.0646 H   0  0  0  0  0  0  0  0  0  0  0  0
    5.8098    0.7526   24.3758 H   0  0  0  0  0  0  0  0  0  0  0  0
    9.6573   -1.5381   22.1524 H   0  0  0  0  0  0  0  0  0  0  0  0
   10.3051   -0.1664   23.0279 H   0  0  0  0  0  0  0  0  0  0  0  0
   11.7753   -2.2721   22.9919 H   0  0  0  0  0  0  0  0  0  0  0  0
   11.4552   -1.6279   24.6123 H   0  0  0  0  0  0  0  0  0  0  0  0
    9.8898   -3.9066   23.3026 H   0  0  0  0  0  0  0  0  0  0  0  0
   11.1661   -4.1241   24.5218 H   0  0  0  0  0  0  0  0  0  0  0  0
    8.7855   -4.0800   25.3477 H   0  0  0  0  0  0  0  0  0  0  0  0
    9.4985   -4.9871   27.2696 H   0  0  0  0  0  0  0  0  0  0  0  0
    9.5800   -3.7872   28.4594 H   0  0  0  0  0  0  0  0  0  0  0  0
   12.0708   -4.7459   26.9097 H   0  0  0  0  0  0  0  0  0  0  0  0
   11.6423   -5.2927   28.5550 H   0  0  0  0  0  0  0  0  0  0  0  0
   12.0761   -3.5917   28.2497 H   0  0  0  0  0  0  0  0  0  0  0  0
  1  2  1  0
  2  3  1  0
  3  4  2  0
  3  5  1  0
  5  6  1  0
  6  7  1  0
  7  8  1  0
  8  9  1  0
  9 10  2  0
 10 11  1  0
 11 12  1  0
 12 13  1  0
 13 14  2  0
 14 15  1  0
 15 16  2  0
 16 17  1  0
 17 18  1  0
 17 19  2  0
 19 20  1  0
 16 21  1  0
 15 22  1  0
 14 23  1  0
 12 24  1  0
 12 25  1  0
 11 26  1  0
 26 27  2  0
 26 28  1  0
 28 29  1  0
 29 30  2  0
 30 31  1  0
 31 32  2  0
 32 33  1  0
 33 34  2  0
 34 35  1  0
 35 36  2  0
 36 37  1  0
 37 38  2  0
 37 39  1  0
 36 40  1  0
 35 41  1  0
 34 42  1  0
 32 43  1  0
 30 44  1  0
 28 45  1  0
 28 46  1  0
 10 47  1  0
 47 48  2  0
 48 49  1  0
 49 50  2  0
 49 51  1  0
 48 52  1  0
 47 53  1  0
  8 54  1  0
  8 55  1  0
  7 56  1  0
  7 57  1  0
  6 58  1  0
  6 59  1  0
  5 60  1  1
  2 61  1  0
  2 62  1  0
  1 63  1  0
  1 64  1  0
  1 65  1  0
 50  5  1  0
 50  9  1  0
 19 13  1  0
 38 29  1  0
 38 33  1  0
M  CHG  1   5   1
M  END
>  <cnnaffinities>  (92) 
[6.78929]

>  <score>  (92) 
6.78929

>  <index>  (92) 
94

>  <Smiles>  (92) 
C(C(C(=O)[N@@+]1(C(C(C(c2c(N(C(c3c(c(c(c(Cl)c3[H])[H])[H])[H])([H])[H])C(=O)C(c3c(nc(c4c(c(c(c(c34)[H])[H])[H])[H])[H])[H])([H])[H])c(c(c(c12)[H])[H])[H])([H])[H])([H])[H])([H])[H])[H])([H])[H])([H])([H])[H]

>  <h>  (92) 
<NA>

>  <Training>  (92) 
True

>  <Success>  (92) 
True

>  <enamine_searched>  (92) 
False

>  <enamine_id>  (92) 
nan

$$$$

     RDKit          3D

 67 71  0  0  0  0  0  0  0  0999 V2000
    7.5568   -8.4083   22.9662 C   0  0  0  0  0  0  0  0  0  0  0  0
    6.6259   -7.3545   22.6258 N   0  0  0  0  0  0  0  0  0  0  0  0
    6.8881   -6.5526   21.5631 C   0  0  0  0  0  0  0  0  0  0  0  0
    7.7087   -6.8085   20.6975 O   0  0  0  0  0  0  0  0  0  0  0  0
    6.0945   -5.2480   21.5478 C   0  0  0  0  0  0  0  0  0  0  0  0
    6.5966   -4.3105   22.5402 N   0  0  0  0  0  0  0  0  0  0  0  0
    7.7113   -3.4120   22.2609 C   0  0  0  0  0  0  0  0  0  0  0  0
    7.3686   -1.9520   22.6548 C   0  0  2  0  0  0  0  0  0  0  0  0
    6.2887   -1.4590   21.6593 C   0  0  0  0  0  0  0  0  0  0  0  0
    5.1660   -1.9019   21.5315 O   0  0  0  0  0  0  0  0  0  0  0  0
    6.8276   -0.4632   20.8655 N   0  0  0  0  0  0  0  0  0  0  0  0
    6.1097    0.0902   19.7865 C   0  0  0  0  0  0  0  0  0  0  0  0
    6.4677   -0.1963   18.4941 C   0  0  0  0  0  0  0  0  0  0  0  0
    5.8064    0.2512   17.4026 N   0  0  0  0  0  0  0  0  0  0  0  0
    4.7691    1.0268   17.5996 C   0  0  0  0  0  0  0  0  0  0  0  0
    4.3082    1.4252   18.8869 C   0  0  0  0  0  0  0  0  0  0  0  0
    3.1870    2.2824   19.0443 C   0  0  0  0  0  0  0  0  0  0  0  0
    2.7788    2.6644   20.2930 C   0  0  0  0  0  0  0  0  0  0  0  0
    3.4720    2.2118   21.4391 C   0  0  0  0  0  0  0  0  0  0  0  0
    4.5584    1.3807   21.3134 C   0  0  0  0  0  0  0  0  0  0  0  0
    4.9953    0.9549   20.0256 C   0  0  0  0  0  0  0  0  0  0  0  0
    5.0933    1.0385   22.1944 H   0  0  0  0  0  0  0  0  0  0  0  0
    3.1412    2.5296   22.4242 H   0  0  0  0  0  0  0  0  0  0  0  0
    1.9225    3.3238   20.4097 H   0  0  0  0  0  0  0  0  0  0  0  0
    2.6789    2.6309   18.1482 H   0  0  0  0  0  0  0  0  0  0  0  0
    4.2389    1.3835   16.7165 H   0  0  0  0  0  0  0  0  0  0  0  0
    7.3147   -0.8527   18.2990 H   0  0  0  0  0  0  0  0  0  0  0  0
    8.2687   -0.4110   20.9541 C   0  0  0  0  0  0  0  0  0  0  0  0
    8.5248   -0.9383   22.3698 C   0  0  2  0  0  0  0  0  0  0  0  0
    9.9778   -1.3858   22.5014 C   0  0  0  0  0  0  0  0  0  0  0  0
   10.5186   -1.5271   24.2091 S   0  0  0  0  0  0  0  0  0  0  0  0
   10.4406   -0.2056   24.8180 O   0  0  0  0  0  0  0  0  0  0  0  0
    9.8732   -2.6784   24.8134 O   0  0  0  0  0  0  0  0  0  0  0  0
   12.1345   -1.9126   24.0932 N   0  0  0  0  0  0  0  0  0  0  0  0
   13.0646   -0.8968   23.6349 C   0  0  0  0  0  0  0  0  0  0  0  0
   14.0673   -1.2437   23.9025 H   0  0  0  0  0  0  0  0  0  0  0  0
   12.8578    0.0375   24.1533 H   0  0  0  0  0  0  0  0  0  0  0  0
   13.0318   -0.7449   22.5442 H   0  0  0  0  0  0  0  0  0  0  0  0
   12.4059   -3.2201   23.5318 C   0  0  0  0  0  0  0  0  0  0  0  0
   11.7141   -3.9322   23.9767 H   0  0  0  0  0  0  0  0  0  0  0  0
   12.2958   -3.2367   22.4375 H   0  0  0  0  0  0  0  0  0  0  0  0
   13.4281   -3.5007   23.8011 H   0  0  0  0  0  0  0  0  0  0  0  0
   10.1283   -2.3486   21.9986 H   0  0  0  0  0  0  0  0  0  0  0  0
   10.6397   -0.6401   22.0442 H   0  0  0  0  0  0  0  0  0  0  0  0
    8.3747   -0.0903   23.0363 H   0  0  0  0  0  0  0  0  0  0  0  0
    8.6280    0.6152   20.8209 H   0  0  0  0  0  0  0  0  0  0  0  0
    8.7537   -1.0452   20.1947 H   0  0  0  0  0  0  0  0  0  0  0  0
    6.8718   -1.9977   24.0965 C   0  0  0  0  0  0  0  0  0  0  0  0
    6.8869   -0.8644   24.9177 C   0  0  0  0  0  0  0  0  0  0  0  0
    6.4410   -0.9571   26.2217 C   0  0  0  0  0  0  0  0  0  0  0  0
    6.4435    0.1519   26.9800 F   0  0  0  0  0  0  0  0  0  0  0  0
    5.9871   -2.1438   26.7842 C   0  0  0  0  0  0  0  0  0  0  0  0
    5.9455   -3.2622   25.9801 C   0  0  0  0  0  0  0  0  0  0  0  0
    6.3481   -3.1820   24.6494 C   0  0  0  0  0  0  0  0  0  0  0  0
    6.1088   -4.3811   23.8033 C   0  0  0  0  0  0  0  0  0  0  0  0
    5.4692   -5.3575   24.2202 O   0  0  0  0  0  0  0  0  0  0  0  0
    5.5921   -4.2188   26.3506 H   0  0  0  0  0  0  0  0  0  0  0  0
    5.6605   -2.1692   27.8157 H   0  0  0  0  0  0  0  0  0  0  0  0
    7.2356    0.1015   24.5720 H   0  0  0  0  0  0  0  0  0  0  0  0
    8.5837   -3.7364   22.8410 H   0  0  0  0  0  0  0  0  0  0  0  0
    7.9545   -3.4594   21.2035 H   0  0  0  0  0  0  0  0  0  0  0  0
    6.1624   -4.8028   20.5523 H   0  0  0  0  0  0  0  0  0  0  0  0
    5.0415   -5.4416   21.7767 H   0  0  0  0  0  0  0  0  0  0  0  0
    6.0617   -6.9512   23.3744 H   0  0  0  0  0  0  0  0  0  0  0  0
    8.3654   -8.0089   23.5950 H   0  0  0  0  0  0  0  0  0  0  0  0
    7.9954   -8.8135   22.0538 H   0  0  0  0  0  0  0  0  0  0  0  0
    7.0209   -9.2073   23.4914 H   0  0  0  0  0  0  0  0  0  0  0  0
  1  2  1  0
  2  3  1  0
  3  4  2  0
  3  5  1  0
  5  6  1  0
  6  7  1  0
  8  7  1  6
  8  9  1  0
  9 10  2  0
  9 11  1  0
 11 12  1  0
 12 13  2  0
 13 14  1  0
 14 15  2  0
 15 16  1  0
 16 17  2  0
 17 18  1  0
 18 19  2  0
 19 20  1  0
 20 21  2  0
 20 22  1  0
 19 23  1  0
 18 24  1  0
 17 25  1  0
 15 26  1  0
 13 27  1  0
 11 28  1  0
 28 29  1  0
 29 30  1  0
 30 31  1  0
 31 32  2  0
 31 33  2  0
 31 34  1  0
 34 35  1  0
 35 36  1  0
 35 37  1  0
 35 38  1  0
 34 39  1  0
 39 40  1  0
 39 41  1  0
 39 42  1  0
 30 43  1  0
 30 44  1  0
 29 45  1  1
 28 46  1  0
 28 47  1  0
  8 48  1  0
 48 49  2  0
 49 50  1  0
 50 51  1  0
 50 52  2  0
 52 53  1  0
 53 54  2  0
 54 55  1  0
 55 56  2  0
 53 57  1  0
 52 58  1  0
 49 59  1  0
  7 60  1  0
  7 61  1  0
  5 62  1  0
  5 63  1  0
  2 64  1  0
  1 65  1  0
  1 66  1  0
  1 67  1  0
 55  6  1  0
 29  8  1  0
 54 48  1  0
 21 12  1  0
 21 16  1  0
M  END
>  <cnnaffinities>  (93) 
[7.19086, 6.9312]

>  <score>  (93) 
7.19086

>  <index>  (93) 
95

>  <Smiles>  (93) 
C(N(C(=O)C(N1C([C@@]2(C(=O)N(c3c(nc(c4c(c(c(c(c34)[H])[H])[H])[H])[H])[H])C([C@@]2(C(S(=O)(=O)N(C([H])([H])[H])C([H])([H])[H])([H])[H])[H])([H])[H])c2c(c(F)c(c(c2C1=O)[H])[H])[H])([H])[H])([H])[H])[H])([H])([H])[H]

>  <h>  (93) 
<NA>

>  <Training>  (93) 
True

>  <Success>  (93) 
True

>  <enamine_searched>  (93) 
False

>  <enamine_id>  (93) 
nan

$$$$
