
     RDKit          3D

 63 69  0  0  0  0  0  0  0  0999 V2000
   10.4908    2.7804   24.2475 O   0  0  0  0  0  0  0  0  0  0  0  0
    9.8873    1.7702   23.9207 C   0  0  0  0  0  0  0  0  0  0  0  0
   10.5881    0.5843   23.3210 C   0  0  0  0  0  0  0  0  0  0  0  0
   11.9832    0.5741   23.3352 C   0  0  0  0  0  0  0  0  0  0  0  0
   12.6889   -0.3382   22.5735 C   0  0  0  0  0  0  0  0  0  0  0  0
   11.9631   -1.2379   21.7880 C   0  0  0  0  0  0  0  0  0  0  0  0
   12.7519   -2.2171   20.5803 Cl  0  0  0  0  0  0  0  0  0  0  0  0
   10.5874   -1.3238   21.8694 C   0  0  0  0  0  0  0  0  0  0  0  0
    9.8721   -0.4287   22.6721 C   0  0  0  0  0  0  0  0  0  0  0  0
    8.3586   -0.4113   22.6641 C   0  0  1  0  0  0  0  0  0  0  0  0
    7.8744    0.3542   23.9229 C   0  0  0  0  0  0  0  0  0  0  0  0
    8.5260    1.6486   24.0412 N   0  0  0  0  0  0  0  0  0  0  0  0
    7.7755    2.8333   24.4107 C   0  0  0  0  0  0  0  0  0  0  0  0
    7.5114    3.7574   23.2543 C   0  0  0  0  0  0  0  0  0  0  0  0
    7.9734    4.9287   22.9964 N   0  0  0  0  0  0  0  0  0  0  0  0
    7.3131    5.3704   21.8526 N   0  0  0  0  0  0  0  0  0  0  0  0
    6.5209    4.4172   21.5114 C   0  0  0  0  0  0  0  0  0  0  0  0
    6.5788    3.3545   22.3545 O   0  0  0  0  0  0  0  0  0  0  0  0
    5.7875    4.4100   20.7097 H   0  0  0  0  0  0  0  0  0  0  0  0
    6.8083    2.5340   24.8232 H   0  0  0  0  0  0  0  0  0  0  0  0
    8.3242    3.3721   25.1835 H   0  0  0  0  0  0  0  0  0  0  0  0
    6.7943    0.5222   23.8532 H   0  0  0  0  0  0  0  0  0  0  0  0
    8.0907   -0.2492   24.8148 H   0  0  0  0  0  0  0  0  0  0  0  0
    7.8875    0.3311   21.3896 C   0  0  0  0  0  0  0  0  0  0  0  0
    8.2766    1.3923   20.9611 O   0  0  0  0  0  0  0  0  0  0  0  0
    6.9088   -0.4387   20.7929 N   0  0  0  0  0  0  0  0  0  0  0  0
    6.1249    0.0925   19.7434 C   0  0  0  0  0  0  0  0  0  0  0  0
    6.4614   -0.1959   18.4487 C   0  0  0  0  0  0  0  0  0  0  0  0
    5.7793    0.2537   17.3724 N   0  0  0  0  0  0  0  0  0  0  0  0
    4.7452    1.0262   17.5940 C   0  0  0  0  0  0  0  0  0  0  0  0
    4.2919    1.4023   18.8919 C   0  0  0  0  0  0  0  0  0  0  0  0
    3.1656    2.2450   19.0768 C   0  0  0  0  0  0  0  0  0  0  0  0
    2.7553    2.5906   20.3327 C   0  0  0  0  0  0  0  0  0  0  0  0
    3.4405    2.0952   21.4641 C   0  0  0  0  0  0  0  0  0  0  0  0
    4.5368    1.2785   21.3144 C   0  0  0  0  0  0  0  0  0  0  0  0
    4.9908    0.9154   20.0132 C   0  0  0  0  0  0  0  0  0  0  0  0
    5.0663    0.9277   22.1959 H   0  0  0  0  0  0  0  0  0  0  0  0
    3.1067    2.3803   22.4562 H   0  0  0  0  0  0  0  0  0  0  0  0
    1.9032    3.2506   20.4644 H   0  0  0  0  0  0  0  0  0  0  0  0
    2.6492    2.6035   18.1923 H   0  0  0  0  0  0  0  0  0  0  0  0
    4.2056    1.3950   16.7234 H   0  0  0  0  0  0  0  0  0  0  0  0
    7.3279   -0.8241   18.2543 H   0  0  0  0  0  0  0  0  0  0  0  0
    6.4752   -1.5654   21.5918 C   0  0  0  0  0  0  0  0  0  0  0  0
    7.6829   -1.8035   22.5004 C   0  0  2  0  0  0  0  0  0  0  0  0
    7.4123   -2.6469   23.7562 C   0  0  0  0  0  0  0  0  0  0  0  0
    6.1991   -2.3179   24.4885 N   0  0  0  0  0  0  0  0  0  0  0  0
    5.0112   -2.9259   24.2836 C   0  0  0  0  0  0  0  0  0  0  0  0
    3.9916   -2.5415   25.0835 N   0  0  0  0  0  0  0  0  0  0  0  0
    2.8307   -3.0883   24.7685 C   0  0  0  0  0  0  0  0  0  0  0  0
    2.6023   -3.9766   23.7962 N   0  0  0  0  0  0  0  0  0  0  0  0
    3.6943   -4.3191   23.1150 C   0  0  0  0  0  0  0  0  0  0  0  0
    4.9199   -3.8438   23.2950 N   0  0  0  0  0  0  0  0  0  0  0  0
    3.5604   -5.0614   22.3241 H   0  0  0  0  0  0  0  0  0  0  0  0
    1.9623   -2.7799   25.3541 H   0  0  0  0  0  0  0  0  0  0  0  0
    6.2323   -1.6615   25.2568 H   0  0  0  0  0  0  0  0  0  0  0  0
    7.3167   -3.6915   23.4544 H   0  0  0  0  0  0  0  0  0  0  0  0
    8.2727   -2.5619   24.4319 H   0  0  0  0  0  0  0  0  0  0  0  0
    8.3827   -2.3961   21.9050 H   0  0  0  0  0  0  0  0  0  0  0  0
    6.2621   -2.4380   20.9683 H   0  0  0  0  0  0  0  0  0  0  0  0
    5.5545   -1.3207   22.1356 H   0  0  0  0  0  0  0  0  0  0  0  0
   10.1058   -2.0802   21.2584 H   0  0  0  0  0  0  0  0  0  0  0  0
   13.7743   -0.3309   22.5413 H   0  0  0  0  0  0  0  0  0  0  0  0
   12.4922    1.3310   23.9201 H   0  0  0  0  0  0  0  0  0  0  0  0
  1  2  2  0
  2  3  1  0
  3  4  2  0
  4  5  1  0
  5  6  2  0
  6  7  1  0
  6  8  1  0
  8  9  2  0
  9 10  1  0
 10 11  1  1
 11 12  1  0
 12 13  1  0
 13 14  1  0
 14 15  2  0
 15 16  1  0
 16 17  2  0
 17 18  1  0
 17 19  1  0
 13 20  1  0
 13 21  1  0
 11 22  1  0
 11 23  1  0
 10 24  1  0
 24 25  2  0
 24 26  1  0
 26 27  1  0
 27 28  2  0
 28 29  1  0
 29 30  2  0
 30 31  1  0
 31 32  2  0
 32 33  1  0
 33 34  2  0
 34 35  1  0
 35 36  2  0
 35 37  1  0
 34 38  1  0
 33 39  1  0
 32 40  1  0
 30 41  1  0
 28 42  1  0
 26 43  1  0
 43 44  1  0
 44 45  1  0
 45 46  1  0
 46 47  1  0
 47 48  2  0
 48 49  1  0
 49 50  2  0
 50 51  1  0
 51 52  2  0
 51 53  1  0
 49 54  1  0
 46 55  1  0
 45 56  1  0
 45 57  1  0
 44 58  1  6
 43 59  1  0
 43 60  1  0
  8 61  1  0
  5 62  1  0
  4 63  1  0
 12  2  1  0
 18 14  1  0
 36 27  1  0
 52 47  1  0
  9  3  1  0
 44 10  1  0
 36 31  1  0
M  END
>  <cnnaffinities>  (1) 
[6.12845, 6.2328]

>  <score>  (1) 
6.12845

>  <index>  (1) 
0

>  <Smiles>  (1) 
O=C1c2c(c(c(Cl)c(c2[C@@]2(C(N1C(c1nnc(o1)[H])([H])[H])([H])[H])C(=O)N(c1c(nc(c3c(c(c(c(c13)[H])[H])[H])[H])[H])[H])C([C@@]2(C(N(c1nc(nc(n1)[H])[H])[H])([H])[H])[H])([H])[H])[H])[H])[H]

>  <h>  (1) 
<NA>

>  <Training>  (1) 
True

>  <Success>  (1) 
True

>  <enamine_searched>  (1) 
False

>  <enamine_id>  (1) 
nan

$$$$

     RDKit          3D

 51 54  0  0  0  0  0  0  0  0999 V2000
   12.6017   -0.6367   24.7093 C   0  0  0  0  0  0  0  0  0  0  0  0
   12.3305   -1.6234   23.7508 O   0  0  0  0  0  0  0  0  0  0  0  0
   11.0263   -1.8482   23.4538 C   0  0  0  0  0  0  0  0  0  0  0  0
   10.8127   -2.8516   22.5144 C   0  0  0  0  0  0  0  0  0  0  0  0
    9.5317   -3.1147   22.0613 C   0  0  0  0  0  0  0  0  0  0  0  0
    8.4421   -2.3980   22.5518 C   0  0  0  0  0  0  0  0  0  0  0  0
    7.1355   -2.7106   22.0535 N   0  0  0  0  0  0  0  0  0  0  0  0
    6.5461   -4.0041   22.4248 C   0  0  0  0  0  0  0  0  0  0  0  0
    5.9777   -4.0099   23.8354 C   0  0  0  0  0  0  0  0  0  0  0  0
    6.8148   -4.2174   24.9320 C   0  0  0  0  0  0  0  0  0  0  0  0
    6.3143   -4.1554   26.2293 C   0  0  0  0  0  0  0  0  0  0  0  0
    4.9667   -3.8927   26.4507 C   0  0  0  0  0  0  0  0  0  0  0  0
    4.1349   -3.7066   25.3539 C   0  0  0  0  0  0  0  0  0  0  0  0
    2.4453   -3.3655   25.6143 Cl  0  0  0  0  0  0  0  0  0  0  0  0
    4.6210   -3.7654   24.0535 C   0  0  0  0  0  0  0  0  0  0  0  0
    3.9483   -3.5901   23.2186 H   0  0  0  0  0  0  0  0  0  0  0  0
    4.5621   -3.8272   27.4571 H   0  0  0  0  0  0  0  0  0  0  0  0
    6.9825   -4.2982   27.0759 H   0  0  0  0  0  0  0  0  0  0  0  0
    7.8740   -4.4062   24.7696 H   0  0  0  0  0  0  0  0  0  0  0  0
    5.7572   -4.2353   21.7025 H   0  0  0  0  0  0  0  0  0  0  0  0
    7.3301   -4.7661   22.3430 H   0  0  0  0  0  0  0  0  0  0  0  0
    6.2904   -1.7870   21.4688 C   0  0  0  0  0  0  0  0  0  0  0  0
    5.0903   -1.9966   21.3910 O   0  0  0  0  0  0  0  0  0  0  0  0
    6.9295   -0.5146   20.8873 C   0  0  0  0  0  0  0  0  0  0  0  0
    6.1159    0.0835   19.7690 C   0  0  0  0  0  0  0  0  0  0  0  0
    6.4231   -0.2140   18.4681 C   0  0  0  0  0  0  0  0  0  0  0  0
    5.7555    0.2390   17.3782 N   0  0  0  0  0  0  0  0  0  0  0  0
    4.7326    1.0304   17.5851 C   0  0  0  0  0  0  0  0  0  0  0  0
    4.2829    1.4140   18.8762 C   0  0  0  0  0  0  0  0  0  0  0  0
    3.1571    2.2593   19.0510 C   0  0  0  0  0  0  0  0  0  0  0  0
    2.7431    2.6158   20.3053 C   0  0  0  0  0  0  0  0  0  0  0  0
    3.4338    2.1279   21.4370 C   0  0  0  0  0  0  0  0  0  0  0  0
    4.5224    1.3021   21.2931 C   0  0  0  0  0  0  0  0  0  0  0  0
    4.9854    0.9273   20.0027 C   0  0  0  0  0  0  0  0  0  0  0  0
    5.0285    0.9138   22.1704 H   0  0  0  0  0  0  0  0  0  0  0  0
    3.0970    2.4117   22.4302 H   0  0  0  0  0  0  0  0  0  0  0  0
    1.8885    3.2747   20.4313 H   0  0  0  0  0  0  0  0  0  0  0  0
    2.6453    2.6218   18.1635 H   0  0  0  0  0  0  0  0  0  0  0  0
    4.2073    1.3989   16.7033 H   0  0  0  0  0  0  0  0  0  0  0  0
    7.2676   -0.8641   18.2382 H   0  0  0  0  0  0  0  0  0  0  0  0
    7.0751    0.2127   21.6992 H   0  0  0  0  0  0  0  0  0  0  0  0
    7.9374   -0.7784   20.5438 H   0  0  0  0  0  0  0  0  0  0  0  0
    8.6596   -1.4241   23.5196 C   0  0  0  0  0  0  0  0  0  0  0  0
    9.9460   -1.1467   23.9811 C   0  0  0  0  0  0  0  0  0  0  0  0
   10.0773   -0.3648   24.7199 H   0  0  0  0  0  0  0  0  0  0  0  0
    7.8102   -0.8821   23.9276 H   0  0  0  0  0  0  0  0  0  0  0  0
    9.3286   -3.8376   21.2817 H   0  0  0  0  0  0  0  0  0  0  0  0
   11.7085   -3.3514   22.1604 H   0  0  0  0  0  0  0  0  0  0  0  0
   12.4447    0.3596   24.2843 H   0  0  0  0  0  0  0  0  0  0  0  0
   13.6519   -0.7645   24.9724 H   0  0  0  0  0  0  0  0  0  0  0  0
   11.9533   -0.7804   25.5746 H   0  0  0  0  0  0  0  0  0  0  0  0
  1  2  1  0
  2  3  1  0
  3  4  2  0
  4  5  1  0
  5  6  2  0
  6  7  1  0
  7  8  1  0
  8  9  1  0
  9 10  2  0
 10 11  1  0
 11 12  2  0
 12 13  1  0
 13 14  1  0
 13 15  2  0
 15 16  1  0
 12 17  1  0
 11 18  1  0
 10 19  1  0
  8 20  1  0
  8 21  1  0
  7 22  1  0
 22 23  2  0
 22 24  1  0
 24 25  1  0
 25 26  2  0
 26 27  1  0
 27 28  2  0
 28 29  1  0
 29 30  2  0
 30 31  1  0
 31 32  2  0
 32 33  1  0
 33 34  2  0
 33 35  1  0
 32 36  1  0
 31 37  1  0
 30 38  1  0
 28 39  1  0
 26 40  1  0
 24 41  1  0
 24 42  1  0
  6 43  1  0
 43 44  2  0
 44 45  1  0
 43 46  1  0
  5 47  1  0
  4 48  1  0
  1 49  1  0
  1 50  1  0
  1 51  1  0
 44  3  1  0
 15  9  1  0
 34 25  1  0
 34 29  1  0
M  END
>  <cnnaffinities>  (2) 
[6.47752, 5.98904, 5.97079, 6.35338, 6.38527]

>  <score>  (2) 
6.47752

>  <index>  (2) 
1

>  <Smiles>  (2) 
C(Oc1c(c(c(N(C(c2c(c(c(c(Cl)c2[H])[H])[H])[H])([H])[H])C(=O)C(c2c(nc(c3c(c(c(c(c23)[H])[H])[H])[H])[H])[H])([H])[H])c(c1[H])[H])[H])[H])([H])([H])[H]

>  <h>  (2) 
<NA>

>  <Training>  (2) 
True

>  <Success>  (2) 
True

>  <enamine_searched>  (2) 
False

>  <enamine_id>  (2) 
nan

$$$$

     RDKit          3D

 56 60  0  0  0  0  0  0  0  0999 V2000
   13.5309    0.0085   23.7796 C   0  0  0  0  0  0  0  0  0  0  0  0
   12.5502   -0.9865   23.3860 N   0  0  0  0  0  0  0  0  0  0  0  0
   12.4964   -1.2670   22.0475 C   0  0  0  0  0  0  0  0  0  0  0  0
   12.9317   -0.4826   21.2246 O   0  0  0  0  0  0  0  0  0  0  0  0
   11.8697   -2.6192   21.7056 C   0  0  0  0  0  0  0  0  0  0  0  0
   10.5358   -2.7594   22.2566 N   0  0  0  0  0  0  0  0  0  0  0  0
    9.3956   -2.5183   21.3966 C   0  0  0  0  0  0  0  0  0  0  0  0
    8.2237   -1.8694   22.1604 C   0  0  2  0  0  0  0  0  0  0  0  0
    7.0651   -1.7399   21.1631 C   0  0  0  0  0  0  0  0  0  0  0  0
    6.4195   -2.6510   20.6872 O   0  0  0  0  0  0  0  0  0  0  0  0
    6.8688   -0.4033   20.8802 N   0  0  0  0  0  0  0  0  0  0  0  0
    6.0824    0.0301   19.7900 C   0  0  0  0  0  0  0  0  0  0  0  0
    6.4165   -0.2904   18.4987 C   0  0  0  0  0  0  0  0  0  0  0  0
    5.7776    0.2074   17.4121 N   0  0  0  0  0  0  0  0  0  0  0  0
    4.7694    1.0198   17.6110 C   0  0  0  0  0  0  0  0  0  0  0  0
    4.2933    1.3916   18.9013 C   0  0  0  0  0  0  0  0  0  0  0  0
    3.1645    2.2303   19.0802 C   0  0  0  0  0  0  0  0  0  0  0  0
    2.7570    2.5813   20.3367 C   0  0  0  0  0  0  0  0  0  0  0  0
    3.4461    2.1013   21.4729 C   0  0  0  0  0  0  0  0  0  0  0  0
    4.5302    1.2712   21.3280 C   0  0  0  0  0  0  0  0  0  0  0  0
    4.9764    0.8992   20.0320 C   0  0  0  0  0  0  0  0  0  0  0  0
    5.0460    0.8796   22.1992 H   0  0  0  0  0  0  0  0  0  0  0  0
    3.1160    2.3902   22.4654 H   0  0  0  0  0  0  0  0  0  0  0  0
    1.9018    3.2370   20.4694 H   0  0  0  0  0  0  0  0  0  0  0  0
    2.6437    2.5853   18.1955 H   0  0  0  0  0  0  0  0  0  0  0  0
    4.2671    1.4245   16.7306 H   0  0  0  0  0  0  0  0  0  0  0  0
    7.2462   -0.9643   18.2924 H   0  0  0  0  0  0  0  0  0  0  0  0
    7.8530    0.4775   21.4809 C   0  0  0  0  0  0  0  0  0  0  0  0
    8.4218   -0.3826   22.6103 C   0  0  2  0  0  0  0  0  0  0  0  0
    9.8159    0.0123   22.9450 N   0  0  0  0  0  4  0  0  0  0  0  0
   10.2070   -0.6875   23.6014 H   0  0  0  0  0  0  0  0  0  0  0  0
   10.3993    0.0373   22.0826 H   0  0  0  0  0  0  0  0  0  0  0  0
    9.8516    0.9394   23.4111 H   0  0  0  0  0  0  0  0  0  0  0  0
    7.8136   -0.2486   23.5059 H   0  0  0  0  0  0  0  0  0  0  0  0
    8.6452    0.7519   20.7631 H   0  0  0  0  0  0  0  0  0  0  0  0
    7.3825    1.4027   21.8350 H   0  0  0  0  0  0  0  0  0  0  0  0
    7.9197   -2.8055   23.3112 C   0  0  0  0  0  0  0  0  0  0  0  0
    6.6202   -2.9359   23.8042 C   0  0  0  0  0  0  0  0  0  0  0  0
    6.3656   -3.8234   24.8356 C   0  0  0  0  0  0  0  0  0  0  0  0
    4.7494   -3.9414   25.4708 Cl  0  0  0  0  0  0  0  0  0  0  0  0
    7.3657   -4.6514   25.3470 C   0  0  0  0  0  0  0  0  0  0  0  0
    8.6666   -4.4848   24.8953 C   0  0  0  0  0  0  0  0  0  0  0  0
    8.9544   -3.5354   23.9150 C   0  0  0  0  0  0  0  0  0  0  0  0
   10.3736   -3.3002   23.4978 C   0  0  0  0  0  0  0  0  0  0  0  0
   11.3293   -3.5078   24.2488 O   0  0  0  0  0  0  0  0  0  0  0  0
    9.4807   -5.0861   25.2908 H   0  0  0  0  0  0  0  0  0  0  0  0
    7.1183   -5.4030   26.0905 H   0  0  0  0  0  0  0  0  0  0  0  0
    5.8075   -2.3832   23.3462 H   0  0  0  0  0  0  0  0  0  0  0  0
    9.6985   -1.8824   20.5647 H   0  0  0  0  0  0  0  0  0  0  0  0
    9.0253   -3.4717   21.0074 H   0  0  0  0  0  0  0  0  0  0  0  0
   12.4986   -3.3926   22.1550 H   0  0  0  0  0  0  0  0  0  0  0  0
   11.8411   -2.7753   20.6242 H   0  0  0  0  0  0  0  0  0  0  0  0
   12.2845   -1.7116   24.0418 H   0  0  0  0  0  0  0  0  0  0  0  0
   13.0993    1.0069   23.7621 H   0  0  0  0  0  0  0  0  0  0  0  0
   14.3600    0.0133   23.0720 H   0  0  0  0  0  0  0  0  0  0  0  0
   13.9092   -0.2149   24.7743 H   0  0  0  0  0  0  0  0  0  0  0  0
  1  2  1  0
  2  3  1  0
  3  4  2  0
  3  5  1  0
  5  6  1  0
  6  7  1  0
  8  7  1  6
  8  9  1  0
  9 10  2  0
  9 11  1  0
 11 12  1  0
 12 13  2  0
 13 14  1  0
 14 15  2  0
 15 16  1  0
 16 17  2  0
 17 18  1  0
 18 19  2  0
 19 20  1  0
 20 21  2  0
 20 22  1  0
 19 23  1  0
 18 24  1  0
 17 25  1  0
 15 26  1  0
 13 27  1  0
 11 28  1  0
 28 29  1  0
 29 30  1  0
 30 31  1  0
 30 32  1  0
 30 33  1  0
 29 34  1  1
 28 35  1  0
 28 36  1  0
  8 37  1  0
 37 38  2  0
 38 39  1  0
 39 40  1  0
 39 41  2  0
 41 42  1  0
 42 43  2  0
 43 44  1  0
 44 45  2  0
 42 46  1  0
 41 47  1  0
 38 48  1  0
  7 49  1  0
  7 50  1  0
  5 51  1  0
  5 52  1  0
  2 53  1  0
  1 54  1  0
  1 55  1  0
  1 56  1  0
 44  6  1  0
 29  8  1  0
 43 37  1  0
 21 12  1  0
 21 16  1  0
M  CHG  1  30   1
M  END
>  <cnnaffinities>  (3) 
[6.69642]

>  <score>  (3) 
6.69642

>  <index>  (3) 
2

>  <Smiles>  (3) 
C(N(C(=O)C(N1C([C@@]2(C(=O)N(c3c(nc(c4c(c(c(c(c34)[H])[H])[H])[H])[H])[H])C([C@@]2([N+]([H])([H])[H])[H])([H])[H])c2c(c(Cl)c(c(c2C1=O)[H])[H])[H])([H])[H])([H])[H])[H])([H])([H])[H]

>  <h>  (3) 
<NA>

>  <Training>  (3) 
True

>  <Success>  (3) 
True

>  <enamine_searched>  (3) 
False

>  <enamine_id>  (3) 
nan

$$$$

     RDKit          3D

 67 73  0  0  0  0  0  0  0  0999 V2000
   11.2602    2.8147   23.3453 O   0  0  0  0  0  0  0  0  0  0  0  0
   10.6692    1.7456   23.2392 C   0  0  0  0  0  0  0  0  0  0  0  0
   11.1849    0.6408   22.3643 C   0  0  0  0  0  0  0  0  0  0  0  0
   12.5162    0.6953   21.9533 C   0  0  0  0  0  0  0  0  0  0  0  0
   13.0935   -0.3668   21.2891 C   0  0  0  0  0  0  0  0  0  0  0  0
   12.3002   -1.4615   20.9690 C   0  0  0  0  0  0  0  0  0  0  0  0
   12.9873   -2.7662   20.0488 Cl  0  0  0  0  0  0  0  0  0  0  0  0
   10.9625   -1.5020   21.3158 C   0  0  0  0  0  0  0  0  0  0  0  0
   10.3681   -0.4468   22.0229 C   0  0  0  0  0  0  0  0  0  0  0  0
    8.8873   -0.4315   22.4312 C   0  0  1  0  0  0  0  0  0  0  0  0
    8.8871    0.1576   23.8718 C   0  0  0  0  0  0  0  0  0  0  0  0
    9.5211    1.4665   23.9300 N   0  0  0  0  0  0  0  0  0  0  0  0
    8.9099    2.5205   24.7298 C   0  0  0  0  0  0  0  0  0  0  0  0
    7.8154    3.2606   24.0143 C   0  0  0  0  0  0  0  0  0  0  0  0
    8.0960    4.3251   23.1914 C   0  0  0  0  0  0  0  0  0  0  0  0
    7.0112    5.0017   22.6360 C   0  0  0  0  0  0  0  0  0  0  0  0
    5.7461    4.6614   22.8547 N   0  0  0  0  0  0  0  0  0  0  0  0
    5.4815    3.6028   23.6054 N   0  0  0  0  0  0  0  0  0  0  0  0
    6.4755    2.9152   24.1577 C   0  0  0  0  0  0  0  0  0  0  0  0
    6.1798    2.0597   24.7638 H   0  0  0  0  0  0  0  0  0  0  0  0
    7.1591    5.8657   21.9947 H   0  0  0  0  0  0  0  0  0  0  0  0
    9.1238    4.6239   22.9902 H   0  0  0  0  0  0  0  0  0  0  0  0
    8.5044    2.1012   25.6548 H   0  0  0  0  0  0  0  0  0  0  0  0
    9.7090    3.2160   24.9983 H   0  0  0  0  0  0  0  0  0  0  0  0
    9.4286   -0.5523   24.5166 H   0  0  0  0  0  0  0  0  0  0  0  0
    7.8716    0.2626   24.2514 H   0  0  0  0  0  0  0  0  0  0  0  0
    8.0198    0.4587   21.4865 C   0  0  0  0  0  0  0  0  0  0  0  0
    8.2193    1.6184   21.2031 O   0  0  0  0  0  0  0  0  0  0  0  0
    6.9465   -0.3012   21.0087 N   0  0  0  0  0  0  0  0  0  0  0  0
    6.1713    0.1494   19.8975 C   0  0  0  0  0  0  0  0  0  0  0  0
    6.4896   -0.2142   18.6096 C   0  0  0  0  0  0  0  0  0  0  0  0
    5.8196    0.1963   17.5073 N   0  0  0  0  0  0  0  0  0  0  0  0
    4.7821    0.9773   17.6755 C   0  0  0  0  0  0  0  0  0  0  0  0
    4.3073    1.3876   18.9523 C   0  0  0  0  0  0  0  0  0  0  0  0
    3.1532    2.2032   19.0944 C   0  0  0  0  0  0  0  0  0  0  0  0
    2.7149    2.5789   20.3325 C   0  0  0  0  0  0  0  0  0  0  0  0
    3.4115    2.1562   21.4877 C   0  0  0  0  0  0  0  0  0  0  0  0
    4.5304    1.3669   21.3768 C   0  0  0  0  0  0  0  0  0  0  0  0
    5.0127    0.9657   20.1049 C   0  0  0  0  0  0  0  0  0  0  0  0
    5.0736    1.0719   22.2713 H   0  0  0  0  0  0  0  0  0  0  0  0
    3.0940    2.4858   22.4714 H   0  0  0  0  0  0  0  0  0  0  0  0
    1.8418    3.2183   20.4331 H   0  0  0  0  0  0  0  0  0  0  0  0
    2.6392    2.5290   18.1932 H   0  0  0  0  0  0  0  0  0  0  0  0
    4.2552    1.3144   16.7812 H   0  0  0  0  0  0  0  0  0  0  0  0
    7.3420   -0.8616   18.4033 H   0  0  0  0  0  0  0  0  0  0  0  0
    7.2503   -1.7172   21.1151 C   0  0  0  0  0  0  0  0  0  0  0  0
    8.2029   -1.8250   22.3098 C   0  0  2  0  0  0  0  0  0  0  0  0
    7.4975   -2.4060   23.5343 C   0  0  0  0  0  0  0  0  0  0  0  0
    6.2794   -1.7061   23.8683 N   0  0  0  0  0  0  0  0  0  0  0  0
    5.5917   -2.0007   24.9985 C   0  0  0  0  0  0  0  0  0  0  0  0
    4.4869   -1.2276   25.4087 C   0  0  0  0  0  0  0  0  0  0  0  0
    3.8570   -1.6357   26.5607 C   0  0  0  0  0  0  0  0  0  0  0  0
    4.2391   -2.7005   27.2822 N   0  0  0  0  0  0  0  0  0  0  0  0
    5.2968   -3.3429   26.8072 C   0  0  0  0  0  0  0  0  0  0  0  0
    6.0013   -3.0599   25.7121 N   0  0  0  0  0  0  0  0  0  0  0  0
    5.6319   -4.2099   27.3804 H   0  0  0  0  0  0  0  0  0  0  0  0
    2.9918   -1.0904   26.9368 H   0  0  0  0  0  0  0  0  0  0  0  0
    4.1613   -0.3555   24.8470 H   0  0  0  0  0  0  0  0  0  0  0  0
    5.9555   -0.9784   23.2472 H   0  0  0  0  0  0  0  0  0  0  0  0
    7.2637   -3.4630   23.3530 H   0  0  0  0  0  0  0  0  0  0  0  0
    8.1648   -2.4015   24.4030 H   0  0  0  0  0  0  0  0  0  0  0  0
    8.9691   -2.5684   22.1032 H   0  0  0  0  0  0  0  0  0  0  0  0
    7.7470   -2.0626   20.2046 H   0  0  0  0  0  0  0  0  0  0  0  0
    6.3338   -2.3033   21.2406 H   0  0  0  0  0  0  0  0  0  0  0  0
   10.3985   -2.3798   21.0432 H   0  0  0  0  0  0  0  0  0  0  0  0
   14.1406   -0.3704   21.0339 H   0  0  0  0  0  0  0  0  0  0  0  0
   13.1015    1.5703   22.2030 H   0  0  0  0  0  0  0  0  0  0  0  0
  1  2  2  0
  2  3  1  0
  3  4  2  0
  4  5  1  0
  5  6  2  0
  6  7  1  0
  6  8  1  0
  8  9  2  0
  9 10  1  0
 10 11  1  1
 11 12  1  0
 12 13  1  0
 13 14  1  0
 14 15  2  0
 15 16  1  0
 16 17  2  0
 17 18  1  0
 18 19  2  0
 19 20  1  0
 16 21  1  0
 15 22  1  0
 13 23  1  0
 13 24  1  0
 11 25  1  0
 11 26  1  0
 10 27  1  0
 27 28  2  0
 27 29  1  0
 29 30  1  0
 30 31  2  0
 31 32  1  0
 32 33  2  0
 33 34  1  0
 34 35  2  0
 35 36  1  0
 36 37  2  0
 37 38  1  0
 38 39  2  0
 38 40  1  0
 37 41  1  0
 36 42  1  0
 35 43  1  0
 33 44  1  0
 31 45  1  0
 29 46  1  0
 46 47  1  0
 47 48  1  0
 48 49  1  0
 49 50  1  0
 50 51  2  0
 51 52  1  0
 52 53  2  0
 53 54  1  0
 54 55  2  0
 54 56  1  0
 52 57  1  0
 51 58  1  0
 49 59  1  0
 48 60  1  0
 48 61  1  0
 47 62  1  6
 46 63  1  0
 46 64  1  0
  8 65  1  0
  5 66  1  0
  4 67  1  0
 12  2  1  0
 19 14  1  0
 39 30  1  0
 55 50  1  0
  9  3  1  0
 47 10  1  0
 39 34  1  0
M  END
>  <cnnaffinities>  (4) 
[6.90951]

>  <score>  (4) 
6.90951

>  <index>  (4) 
3

>  <Smiles>  (4) 
O=C1c2c(c(c(Cl)c(c2[C@@]2(C(N1C(c1c(c(nnc1[H])[H])[H])([H])[H])([H])[H])C(=O)N(c1c(nc(c3c(c(c(c(c13)[H])[H])[H])[H])[H])[H])C([C@@]2(C(N(c1c(c(nc(n1)[H])[H])[H])[H])([H])[H])[H])([H])[H])[H])[H])[H]

>  <h>  (4) 
<NA>

>  <Training>  (4) 
True

>  <Success>  (4) 
True

>  <enamine_searched>  (4) 
False

>  <enamine_id>  (4) 
nan

$$$$

     RDKit          3D

 41 44  0  0  0  0  0  0  0  0999 V2000
    9.0899    2.1683   23.9924 C   0  0  0  0  0  0  0  0  0  0  0  0
    9.7450    1.2203   22.9816 C   0  0  1  0  0  0  0  0  0  0  0  0
   10.9861    0.6212   23.5559 C   0  0  0  0  0  0  0  0  0  0  0  0
   12.2966    1.2039   23.6227 C   0  0  0  0  0  0  0  0  0  0  0  0
   13.1861    0.3687   24.2228 C   0  0  0  0  0  0  0  0  0  0  0  0
   12.4343   -1.0782   24.7671 S   0  0  0  0  0  0  0  0  0  0  0  0
   10.9130   -0.5888   24.1526 C   0  0  0  0  0  0  0  0  0  0  0  0
    9.6438   -1.3586   24.2867 C   0  0  0  0  0  0  0  0  0  0  0  0
    8.8118   -1.1897   23.0185 C   0  0  0  0  0  0  0  0  0  0  0  0
    8.8008    0.1850   22.5060 N   0  0  0  0  0  0  0  0  0  0  0  0
    7.9553    0.5856   21.5049 C   0  0  0  0  0  0  0  0  0  0  0  0
    7.9864    1.7300   21.0741 O   0  0  0  0  0  0  0  0  0  0  0  0
    6.9637   -0.4513   20.9173 C   0  0  0  0  0  0  0  0  0  0  0  0
    6.1278    0.0934   19.7837 C   0  0  0  0  0  0  0  0  0  0  0  0
    6.4337   -0.2073   18.4834 C   0  0  0  0  0  0  0  0  0  0  0  0
    5.7655    0.2438   17.3912 N   0  0  0  0  0  0  0  0  0  0  0  0
    4.7414    1.0301   17.5919 C   0  0  0  0  0  0  0  0  0  0  0  0
    4.2907    1.4186   18.8808 C   0  0  0  0  0  0  0  0  0  0  0  0
    3.1668    2.2636   19.0565 C   0  0  0  0  0  0  0  0  0  0  0  0
    2.7650    2.6398   20.3054 C   0  0  0  0  0  0  0  0  0  0  0  0
    3.4717    2.1716   21.4399 C   0  0  0  0  0  0  0  0  0  0  0  0
    4.5599    1.3477   21.2957 C   0  0  0  0  0  0  0  0  0  0  0  0
    5.0026    0.9464   20.0084 C   0  0  0  0  0  0  0  0  0  0  0  0
    5.1002    0.9944   22.1697 H   0  0  0  0  0  0  0  0  0  0  0  0
    3.1468    2.4725   22.4303 H   0  0  0  0  0  0  0  0  0  0  0  0
    1.9164    3.3062   20.4310 H   0  0  0  0  0  0  0  0  0  0  0  0
    2.6496    2.6138   18.1664 H   0  0  0  0  0  0  0  0  0  0  0  0
    4.2138    1.3901   16.7070 H   0  0  0  0  0  0  0  0  0  0  0  0
    7.2746   -0.8576   18.2407 H   0  0  0  0  0  0  0  0  0  0  0  0
    6.3181   -0.8452   21.7162 H   0  0  0  0  0  0  0  0  0  0  0  0
    7.5431   -1.3104   20.5509 H   0  0  0  0  0  0  0  0  0  0  0  0
    9.1976   -1.8721   22.2458 H   0  0  0  0  0  0  0  0  0  0  0  0
    7.7829   -1.4818   23.2405 H   0  0  0  0  0  0  0  0  0  0  0  0
    9.8394   -2.4194   24.4503 H   0  0  0  0  0  0  0  0  0  0  0  0
    9.0994   -0.9900   25.1697 H   0  0  0  0  0  0  0  0  0  0  0  0
   14.2604    0.4152   24.2829 H   0  0  0  0  0  0  0  0  0  0  0  0
   12.5604    2.1790   23.2243 H   0  0  0  0  0  0  0  0  0  0  0  0
   10.0076    1.7925   22.0855 H   0  0  0  0  0  0  0  0  0  0  0  0
    8.7867    1.6021   24.8815 H   0  0  0  0  0  0  0  0  0  0  0  0
    9.8360    2.9079   24.2997 H   0  0  0  0  0  0  0  0  0  0  0  0
    8.2280    2.6816   23.5568 H   0  0  0  0  0  0  0  0  0  0  0  0
  1  2  1  0
  2  3  1  0
  3  4  1  0
  4  5  2  0
  5  6  1  0
  6  7  1  0
  7  8  1  0
  8  9  1  0
  9 10  1  0
 10 11  1  0
 11 12  2  0
 11 13  1  0
 13 14  1  0
 14 15  2  0
 15 16  1  0
 16 17  2  0
 17 18  1  0
 18 19  2  0
 19 20  1  0
 20 21  2  0
 21 22  1  0
 22 23  2  0
 22 24  1  0
 21 25  1  0
 20 26  1  0
 19 27  1  0
 17 28  1  0
 15 29  1  0
 13 30  1  0
 13 31  1  0
  9 32  1  0
  9 33  1  0
  8 34  1  0
  8 35  1  0
  5 36  1  0
  4 37  1  0
  2 38  1  6
  1 39  1  0
  1 40  1  0
  1 41  1  0
 10  2  1  0
 23 14  1  0
  7  3  2  0
 23 18  1  0
M  END
>  <cnnaffinities>  (5) 
[5.85215]

>  <score>  (5) 
5.85215

>  <index>  (5) 
4

>  <Smiles>  (5) 
C([C@]1(c2c(c(sc2C(C(N1C(=O)C(c1c(nc(c2c(c(c(c(c12)[H])[H])[H])[H])[H])[H])([H])[H])([H])[H])([H])[H])[H])[H])[H])([H])([H])[H]

>  <h>  (5) 
<NA>

>  <Training>  (5) 
True

>  <Success>  (5) 
True

>  <enamine_searched>  (5) 
False

>  <enamine_id>  (5) 
nan

$$$$

     RDKit          3D

 50 54  0  0  0  0  0  0  0  0999 V2000
    7.0137   -2.4225   23.5145 C   0  0  0  0  0  0  0  0  0  0  0  0
    7.9151   -1.8310   22.4356 C   0  0  1  0  0  0  0  0  0  0  0  0
    7.2292   -1.7123   21.0659 C   0  0  0  0  0  0  0  0  0  0  0  0
    6.9250   -0.3074   20.9219 N   0  0  0  0  0  0  0  0  0  0  0  0
    6.1470    0.1553   19.8389 C   0  0  0  0  0  0  0  0  0  0  0  0
    6.4493   -0.2194   18.5528 C   0  0  0  0  0  0  0  0  0  0  0  0
    5.7865    0.2065   17.4531 N   0  0  0  0  0  0  0  0  0  0  0  0
    4.7633    1.0052   17.6326 C   0  0  0  0  0  0  0  0  0  0  0  0
    4.2939    1.4048   18.9163 C   0  0  0  0  0  0  0  0  0  0  0  0
    3.1529    2.2346   19.0654 C   0  0  0  0  0  0  0  0  0  0  0  0
    2.7169    2.5927   20.3111 C   0  0  0  0  0  0  0  0  0  0  0  0
    3.3764    2.1147   21.4642 C   0  0  0  0  0  0  0  0  0  0  0  0
    4.4745    1.3004   21.3465 C   0  0  0  0  0  0  0  0  0  0  0  0
    4.9833    0.9558   20.0633 C   0  0  0  0  0  0  0  0  0  0  0  0
    4.9659    0.9154   22.2336 H   0  0  0  0  0  0  0  0  0  0  0  0
    3.0126    2.3964   22.4475 H   0  0  0  0  0  0  0  0  0  0  0  0
    1.8592    3.2485   20.4201 H   0  0  0  0  0  0  0  0  0  0  0  0
    2.6459    2.5800   18.1679 H   0  0  0  0  0  0  0  0  0  0  0  0
    4.2404    1.3678   16.7457 H   0  0  0  0  0  0  0  0  0  0  0  0
    7.2916   -0.8820   18.3618 H   0  0  0  0  0  0  0  0  0  0  0  0
    7.6893    0.4999   21.7398 C   0  0  0  0  0  0  0  0  0  0  0  0
    7.7136    1.7141   21.6921 O   0  0  0  0  0  0  0  0  0  0  0  0
    8.4835   -0.4117   22.7123 C   0  0  1  0  0  0  0  0  0  0  0  0
    8.2938    0.0863   24.1682 C   0  0  0  0  0  0  0  0  0  0  0  0
    8.8659    1.4134   24.3367 N   0  0  0  0  0  0  0  0  0  0  0  0
    7.9979    2.5268   24.6361 C   0  0  0  0  0  0  0  0  0  0  0  0
    8.1628    3.0514   25.9988 C   0  0  0  0  0  0  0  0  0  0  0  0
    8.2162    3.4763   27.0737 N   0  0  0  0  0  0  0  0  0  0  0  0
    8.2018    3.3263   23.9183 H   0  0  0  0  0  0  0  0  0  0  0  0
    6.9517    2.2259   24.5221 H   0  0  0  0  0  0  0  0  0  0  0  0
   10.0999    1.7501   23.8265 C   0  0  0  0  0  0  0  0  0  0  0  0
   10.5990    2.8447   24.0490 O   0  0  0  0  0  0  0  0  0  0  0  0
   10.7490    0.7152   22.9717 C   0  0  0  0  0  0  0  0  0  0  0  0
   12.1186    0.8306   22.7259 C   0  0  0  0  0  0  0  0  0  0  0  0
   12.7741   -0.1176   21.9672 C   0  0  0  0  0  0  0  0  0  0  0  0
   12.0045   -1.1482   21.4404 C   0  0  0  0  0  0  0  0  0  0  0  0
   12.6064   -2.0897   20.7029 F   0  0  0  0  0  0  0  0  0  0  0  0
   10.6417   -1.2523   21.6179 C   0  0  0  0  0  0  0  0  0  0  0  0
    9.9854   -0.3314   22.4366 C   0  0  0  0  0  0  0  0  0  0  0  0
   10.1248   -2.0344   21.0751 H   0  0  0  0  0  0  0  0  0  0  0  0
   13.8352   -0.0600   21.7468 H   0  0  0  0  0  0  0  0  0  0  0  0
   12.6420    1.6738   23.1618 H   0  0  0  0  0  0  0  0  0  0  0  0
    8.7648   -0.6259   24.8618 H   0  0  0  0  0  0  0  0  0  0  0  0
    7.2355    0.1349   24.4415 H   0  0  0  0  0  0  0  0  0  0  0  0
    6.3078   -2.2951   20.9965 H   0  0  0  0  0  0  0  0  0  0  0  0
    7.8996   -2.0334   20.2610 H   0  0  0  0  0  0  0  0  0  0  0  0
    8.7512   -2.5279   22.3697 H   0  0  0  0  0  0  0  0  0  0  0  0
    6.1160   -1.8230   23.6909 H   0  0  0  0  0  0  0  0  0  0  0  0
    6.7114   -3.4291   23.2141 H   0  0  0  0  0  0  0  0  0  0  0  0
    7.5606   -2.5176   24.4571 H   0  0  0  0  0  0  0  0  0  0  0  0
  1  2  1  0
  2  3  1  0
  3  4  1  0
  4  5  1  0
  5  6  2  0
  6  7  1  0
  7  8  2  0
  8  9  1  0
  9 10  2  0
 10 11  1  0
 11 12  2  0
 12 13  1  0
 13 14  2  0
 13 15  1  0
 12 16  1  0
 11 17  1  0
 10 18  1  0
  8 19  1  0
  6 20  1  0
  4 21  1  0
 21 22  2  0
 21 23  1  0
 23 24  1  1
 24 25  1  0
 25 26  1  0
 26 27  1  0
 27 28  3  0
 26 29  1  0
 26 30  1  0
 25 31  1  0
 31 32  2  0
 31 33  1  0
 33 34  2  0
 34 35  1  0
 35 36  2  0
 36 37  1  0
 36 38  1  0
 38 39  2  0
 38 40  1  0
 35 41  1  0
 34 42  1  0
 24 43  1  0
 24 44  1  0
  3 45  1  0
  3 46  1  0
  2 47  1  6
  1 48  1  0
  1 49  1  0
  1 50  1  0
 23  2  1  0
 39 33  1  0
 14  5  1  0
 39 23  1  0
 14  9  1  0
M  END
>  <cnnaffinities>  (6) 
[5.73382, 5.94319, 5.99384, 5.92946]

>  <score>  (6) 
5.73382

>  <index>  (6) 
5

>  <Smiles>  (6) 
C([C@]1(C(N(c2c(nc(c3c(c(c(c(c23)[H])[H])[H])[H])[H])[H])C(=O)[C@]21C(N(C(C#N)([H])[H])C(=O)c1c(c(c(F)c(c21)[H])[H])[H])([H])[H])([H])[H])[H])([H])([H])[H]

>  <h>  (6) 
<NA>

>  <Training>  (6) 
True

>  <Success>  (6) 
True

>  <enamine_searched>  (6) 
False

>  <enamine_id>  (6) 
nan

$$$$

     RDKit          3D

 65 69  0  0  0  0  0  0  0  0999 V2000
    8.0397   -8.0641   23.1400 C   0  0  0  0  0  0  0  0  0  0  0  0
    7.6378   -7.0301   24.2161 C   0  0  0  0  0  0  0  0  0  0  0  0
    7.4360   -5.6351   23.7311 C   0  0  0  0  0  0  0  0  0  0  0  0
    6.7543   -5.2218   22.8686 O   0  0  0  0  0  0  0  0  0  0  0  0
    9.1974   -3.6538   24.8916 N   0  0  1  0  0  4  0  0  0  0  0  0
   10.4572   -3.6116   24.1699 C   0  0  0  0  0  0  0  0  0  0  0  0
   10.2273   -3.2207   22.7217 C   0  0  0  0  0  0  0  0  0  0  0  0
    9.6595   -1.8144   22.6367 C   0  0  0  0  0  0  0  0  0  0  0  0
    8.5921   -1.5845   23.6933 C   0  0  0  0  0  0  0  0  0  0  0  0
    7.8252   -0.4122   23.7219 C   0  0  0  0  0  0  0  0  0  0  0  0
    8.1400    0.6905   22.8638 N   0  0  0  0  0  0  0  0  0  0  0  0
    8.8697    1.8132   23.4723 C   0  0  0  0  0  0  0  0  0  0  0  0
   10.3780    1.6233   23.4596 C   0  0  0  0  0  0  0  0  0  0  0  0
   11.1688    2.3748   22.5964 C   0  0  0  0  0  0  0  0  0  0  0  0
   12.5248    2.0875   22.4825 C   0  0  0  0  0  0  0  0  0  0  0  0
   13.0983    1.0383   23.1749 C   0  0  0  0  0  0  0  0  0  0  0  0
   12.3254    0.3500   24.0961 C   0  0  0  0  0  0  0  0  0  0  0  0
   13.0612   -0.9642   24.9570 Cl  0  0  0  0  0  0  0  0  0  0  0  0
   10.9873    0.6767   24.2935 C   0  0  0  0  0  0  0  0  0  0  0  0
   10.4118    0.1504   25.0530 H   0  0  0  0  0  0  0  0  0  0  0  0
   14.1366    0.7667   23.0102 H   0  0  0  0  0  0  0  0  0  0  0  0
   13.1742    2.6563   21.8404 H   0  0  0  0  0  0  0  0  0  0  0  0
   10.7023    3.1627   22.0067 H   0  0  0  0  0  0  0  0  0  0  0  0
    8.5203    1.9040   24.5100 H   0  0  0  0  0  0  0  0  0  0  0  0
    8.6050    2.7270   22.9310 H   0  0  0  0  0  0  0  0  0  0  0  0
    7.9232    0.7029   21.4967 C   0  0  0  0  0  0  0  0  0  0  0  0
    8.4308    1.5439   20.7761 O   0  0  0  0  0  0  0  0  0  0  0  0
    6.9973   -0.3788   20.9039 C   0  0  0  0  0  0  0  0  0  0  0  0
    6.1436    0.1224   19.7706 C   0  0  0  0  0  0  0  0  0  0  0  0
    6.4558   -0.1817   18.4731 C   0  0  0  0  0  0  0  0  0  0  0  0
    5.7700    0.2417   17.3802 N   0  0  0  0  0  0  0  0  0  0  0  0
    4.7269    1.0045   17.5887 C   0  0  0  0  0  0  0  0  0  0  0  0
    4.2725    1.3892   18.8804 C   0  0  0  0  0  0  0  0  0  0  0  0
    3.1338    2.2128   19.0650 C   0  0  0  0  0  0  0  0  0  0  0  0
    2.7380    2.5811   20.3213 C   0  0  0  0  0  0  0  0  0  0  0  0
    3.4626    2.1371   21.4511 C   0  0  0  0  0  0  0  0  0  0  0  0
    4.5665    1.3363   21.3005 C   0  0  0  0  0  0  0  0  0  0  0  0
    5.0009    0.9412   20.0071 C   0  0  0  0  0  0  0  0  0  0  0  0
    5.1189    1.0039   22.1771 H   0  0  0  0  0  0  0  0  0  0  0  0
    3.1408    2.4356   22.4445 H   0  0  0  0  0  0  0  0  0  0  0  0
    1.8728    3.2238   20.4585 H   0  0  0  0  0  0  0  0  0  0  0  0
    2.5947    2.5505   18.1834 H   0  0  0  0  0  0  0  0  0  0  0  0
    4.1787    1.3510   16.7107 H   0  0  0  0  0  0  0  0  0  0  0  0
    7.3180   -0.8122   18.2547 H   0  0  0  0  0  0  0  0  0  0  0  0
    7.6403   -1.1783   20.5131 H   0  0  0  0  0  0  0  0  0  0  0  0
    6.3863   -0.8168   21.6991 H   0  0  0  0  0  0  0  0  0  0  0  0
    6.7818   -0.2650   24.6318 C   0  0  0  0  0  0  0  0  0  0  0  0
    6.4395   -1.3131   25.4834 C   0  0  0  0  0  0  0  0  0  0  0  0
    7.2071   -2.4678   25.4916 C   0  0  0  0  0  0  0  0  0  0  0  0
    8.3401   -2.5581   24.6785 C   0  0  0  0  0  0  0  0  0  0  0  0
    6.9757   -3.3186   26.1302 H   0  0  0  0  0  0  0  0  0  0  0  0
    5.6100   -1.2125   26.1741 H   0  0  0  0  0  0  0  0  0  0  0  0
    6.2491    0.6799   24.6594 H   0  0  0  0  0  0  0  0  0  0  0  0
   10.4459   -1.0645   22.7409 H   0  0  0  0  0  0  0  0  0  0  0  0
    9.2533   -1.6599   21.6345 H   0  0  0  0  0  0  0  0  0  0  0  0
   11.1696   -3.2642   22.1689 H   0  0  0  0  0  0  0  0  0  0  0  0
    9.4866   -3.9040   22.2963 H   0  0  0  0  0  0  0  0  0  0  0  0
   10.9345   -4.5910   24.2629 H   0  0  0  0  0  0  0  0  0  0  0  0
   11.1364   -2.8798   24.6326 H   0  0  0  0  0  0  0  0  0  0  0  0
    8.6744   -4.5251   24.7381 H   0  0  0  0  0  0  0  0  0  0  0  0
    6.6776   -7.2711   24.6836 H   0  0  0  0  0  0  0  0  0  0  0  0
    8.4112   -6.9319   24.9869 H   0  0  0  0  0  0  0  0  0  0  0  0
    7.7027   -9.0680   23.3887 H   0  0  0  0  0  0  0  0  0  0  0  0
    9.1282   -8.1071   23.0630 H   0  0  0  0  0  0  0  0  0  0  0  0
    7.6294   -7.8108   22.1598 H   0  0  0  0  0  0  0  0  0  0  0  0
  1  2  1  0
  2  3  1  0
  3  4  2  0
  3  5  1  0
  5  6  1  0
  6  7  1  0
  7  8  1  0
  8  9  1  0
  9 10  2  0
 10 11  1  0
 11 12  1  0
 12 13  1  0
 13 14  2  0
 14 15  1  0
 15 16  2  0
 16 17  1  0
 17 18  1  0
 17 19  2  0
 19 20  1  0
 16 21  1  0
 15 22  1  0
 14 23  1  0
 12 24  1  0
 12 25  1  0
 11 26  1  0
 26 27  2  0
 26 28  1  0
 28 29  1  0
 29 30  2  0
 30 31  1  0
 31 32  2  0
 32 33  1  0
 33 34  2  0
 34 35  1  0
 35 36  2  0
 36 37  1  0
 37 38  2  0
 37 39  1  0
 36 40  1  0
 35 41  1  0
 34 42  1  0
 32 43  1  0
 30 44  1  0
 28 45  1  0
 28 46  1  0
 10 47  1  0
 47 48  2  0
 48 49  1  0
 49 50  2  0
 49 51  1  0
 48 52  1  0
 47 53  1  0
  8 54  1  0
  8 55  1  0
  7 56  1  0
  7 57  1  0
  6 58  1  0
  6 59  1  0
  5 60  1  1
  2 61  1  0
  2 62  1  0
  1 63  1  0
  1 64  1  0
  1 65  1  0
 50  5  1  0
 50  9  1  0
 19 13  1  0
 38 29  1  0
 38 33  1  0
M  CHG  1   5   1
M  END
>  <cnnaffinities>  (7) 
[7.07388, 6.84145]

>  <score>  (7) 
7.07388

>  <index>  (7) 
6

>  <Smiles>  (7) 
C(C(C(=O)[N@+]1(C(C(C(c2c(N(C(c3c(c(c(c(Cl)c3[H])[H])[H])[H])([H])[H])C(=O)C(c3c(nc(c4c(c(c(c(c34)[H])[H])[H])[H])[H])[H])([H])[H])c(c(c(c12)[H])[H])[H])([H])[H])([H])[H])([H])[H])[H])([H])[H])([H])([H])[H]

>  <h>  (7) 
<NA>

>  <Training>  (7) 
True

>  <Success>  (7) 
True

>  <enamine_searched>  (7) 
False

>  <enamine_id>  (7) 
nan

$$$$

     RDKit          3D

 37 39  0  0  0  0  0  0  0  0999 V2000
    5.0499   -2.2170   20.7959 O   0  0  0  0  0  0  0  0  0  0  0  0
    5.8300   -1.6335   21.5261 C   0  0  0  0  0  0  0  0  0  0  0  0
    6.7603   -0.5434   20.9960 C   0  0  0  0  0  0  0  0  0  0  0  0
    6.1001    0.1201   19.8301 C   0  0  0  0  0  0  0  0  0  0  0  0
    6.4753   -0.1715   18.5468 C   0  0  0  0  0  0  0  0  0  0  0  0
    5.8480    0.2792   17.4340 N   0  0  0  0  0  0  0  0  0  0  0  0
    4.7926    1.0369   17.6083 C   0  0  0  0  0  0  0  0  0  0  0  0
    4.2827    1.4084   18.8813 C   0  0  0  0  0  0  0  0  0  0  0  0
    3.1252    2.2126   19.0268 C   0  0  0  0  0  0  0  0  0  0  0  0
    2.6809    2.5820   20.2666 C   0  0  0  0  0  0  0  0  0  0  0  0
    3.3734    2.1509   21.4194 C   0  0  0  0  0  0  0  0  0  0  0  0
    4.4851    1.3544   21.3044 C   0  0  0  0  0  0  0  0  0  0  0  0
    4.9660    0.9537   20.0292 C   0  0  0  0  0  0  0  0  0  0  0  0
    4.9968    1.0260   22.2010 H   0  0  0  0  0  0  0  0  0  0  0  0
    3.0245    2.4508   22.4031 H   0  0  0  0  0  0  0  0  0  0  0  0
    1.8049    3.2130   20.3708 H   0  0  0  0  0  0  0  0  0  0  0  0
    2.6095    2.5383   18.1265 H   0  0  0  0  0  0  0  0  0  0  0  0
    4.2839    1.3891   16.7102 H   0  0  0  0  0  0  0  0  0  0  0  0
    7.3391   -0.8132   18.3671 H   0  0  0  0  0  0  0  0  0  0  0  0
    7.7060   -1.0126   20.6853 H   0  0  0  0  0  0  0  0  0  0  0  0
    7.0198    0.1704   21.7805 H   0  0  0  0  0  0  0  0  0  0  0  0
    5.9154   -2.0142   22.8815 N   0  0  0  0  0  0  0  0  0  0  0  0
    5.1612   -3.0411   23.1705 C   0  0  0  0  0  0  0  0  0  0  0  0
    4.3848   -1.7598   25.2388 C   0  0  0  0  0  0  0  0  0  0  0  0
    4.3712   -1.6701   25.4946 C   0  0  0  0  0  0  0  0  0  0  0  0
    5.9762    0.0219   24.3514 C   0  0  0  0  0  0  0  0  0  0  0  0
    6.6461   -1.3029   23.9831 C   0  0  0  0  0  0  0  0  0  0  0  0
    6.6734   -2.0069   24.8157 H   0  0  0  0  0  0  0  0  0  0  0  0
    7.6766   -1.1362   23.6658 H   0  0  0  0  0  0  0  0  0  0  0  0
    6.4111    0.8471   23.7709 H   0  0  0  0  0  0  0  0  0  0  0  0
    6.1942    0.3012   25.3871 H   0  0  0  0  0  0  0  0  0  0  0  0
    4.4381   -2.8325   25.9175 H   0  0  0  0  0  0  0  0  0  0  0  0
    4.4812   -1.1112   26.4829 H   0  0  0  0  0  0  0  0  0  0  0  0
    3.1338   -1.5023   25.2959 H   0  0  0  0  0  0  0  0  0  0  0  0
    4.9168    0.0215   24.1313 H   0  0  0  0  0  0  0  0  0  0  0  0
    4.1160   -3.0111   22.9049 H   0  0  0  0  0  0  0  0  0  0  0  0
    5.4101   -3.6752   24.0027 H   0  0  0  0  0  0  0  0  0  0  0  0
  1  2  2  0
  2  3  1  0
  3  4  1  0
  4  5  2  0
  5  6  1  0
  6  7  2  0
  7  8  1  0
  8  9  2  0
  9 10  1  0
 10 11  2  0
 11 12  1  0
 12 13  2  0
 12 14  1  0
 11 15  1  0
 10 16  1  0
  9 17  1  0
  7 18  1  0
  5 19  1  0
  3 20  1  0
  3 21  1  0
  2 22  1  0
 22 23  1  0
 23 24  1  0
 24 25  1  0
 25 26  1  0
 26 27  1  0
 27 28  1  0
 27 29  1  0
 26 30  1  0
 26 31  1  0
 25 32  1  0
 25 33  1  0
 24 34  1  0
 24 35  1  0
 23 36  1  0
 23 37  1  0
 13  4  1  0
 27 22  1  0
 13  8  1  0
M  END
>  <cnnaffinities>  (8) 
[4.75252]

>  <score>  (8) 
4.75252

>  <index>  (8) 
7

>  <Smiles>  (8) 
O=C(C(c1c(nc(c2c(c(c(c(c12)[H])[H])[H])[H])[H])[H])([H])[H])N1C(C(C(C(C1([H])[H])([H])[H])([H])[H])([H])[H])([H])[H]

>  <h>  (8) 
<NA>

>  <Training>  (8) 
True

>  <Success>  (8) 
True

>  <enamine_searched>  (8) 
False

>  <enamine_id>  (8) 
nan

$$$$

     RDKit          3D

 66 71  0  0  0  0  0  0  0  0999 V2000
    7.7409   -3.0200   23.3015 C   0  0  0  0  0  0  0  0  0  0  0  0
    8.0120   -1.9251   22.2653 C   0  0  1  0  0  0  0  0  0  0  0  0
    6.8838   -1.8041   21.2251 C   0  0  0  0  0  0  0  0  0  0  0  0
    6.9174   -0.4145   20.8252 N   0  0  0  0  0  0  0  0  0  0  0  0
    6.1325    0.1036   19.7706 C   0  0  0  0  0  0  0  0  0  0  0  0
    6.4387   -0.2295   18.4755 C   0  0  0  0  0  0  0  0  0  0  0  0
    5.7682    0.2252   17.3933 N   0  0  0  0  0  0  0  0  0  0  0  0
    4.7494    1.0224   17.6021 C   0  0  0  0  0  0  0  0  0  0  0  0
    4.2961    1.4092   18.8948 C   0  0  0  0  0  0  0  0  0  0  0  0
    3.1646    2.2495   19.0668 C   0  0  0  0  0  0  0  0  0  0  0  0
    2.7386    2.5997   20.3171 C   0  0  0  0  0  0  0  0  0  0  0  0
    3.4132    2.1073   21.4575 C   0  0  0  0  0  0  0  0  0  0  0  0
    4.5045    1.2884   21.3176 C   0  0  0  0  0  0  0  0  0  0  0  0
    4.9938    0.9343   20.0253 C   0  0  0  0  0  0  0  0  0  0  0  0
    5.0104    0.9126   22.2031 H   0  0  0  0  0  0  0  0  0  0  0  0
    3.0667    2.3843   22.4487 H   0  0  0  0  0  0  0  0  0  0  0  0
    1.8847    3.2595   20.4395 H   0  0  0  0  0  0  0  0  0  0  0  0
    2.6550    2.6097   18.1776 H   0  0  0  0  0  0  0  0  0  0  0  0
    4.2190    1.3918   16.7246 H   0  0  0  0  0  0  0  0  0  0  0  0
    7.2874   -0.8828   18.2718 H   0  0  0  0  0  0  0  0  0  0  0  0
    7.6198    0.3961   21.6828 C   0  0  0  0  0  0  0  0  0  0  0  0
    7.7258    1.5956   21.5674 O   0  0  0  0  0  0  0  0  0  0  0  0
    8.2091   -0.4799   22.8115 C   0  0  1  0  0  0  0  0  0  0  0  0
    7.4211   -0.2508   24.1365 C   0  0  0  0  0  0  0  0  0  0  0  0
    7.6258    1.0736   24.6826 N   0  0  0  0  0  0  0  0  0  0  0  0
    6.4728    1.8482   25.0992 C   0  0  0  0  0  0  0  0  0  0  0  0
    5.7376    1.3273   26.3353 C   0  0  0  0  0  0  0  0  0  0  0  0
    4.6657    0.7577   26.2407 O   0  0  0  0  0  0  0  0  0  0  0  0
    6.3384    1.6005   27.5401 N   0  0  0  0  0  0  0  0  0  0  0  0
    5.8757    0.8411   28.7063 C   0  0  0  0  0  0  0  0  0  0  0  0
    6.8314    0.8879   29.8563 C   0  0  0  0  0  0  0  0  0  0  0  0
    7.6905   -0.0577   30.3810 C   0  0  0  0  0  0  0  0  0  0  0  0
    8.3359    0.6000   31.4458 C   0  0  0  0  0  0  0  0  0  0  0  0
    7.9044    1.8457   31.5843 N   0  0  0  0  0  0  0  0  0  0  0  0
    6.9951    2.0045   30.6112 N   0  0  0  0  0  0  0  0  0  0  0  0
    6.2733    3.2506   30.5171 C   0  0  0  0  0  0  0  0  0  0  0  0
    6.7299    3.9253   31.2400 H   0  0  0  0  0  0  0  0  0  0  0  0
    5.2165    3.1158   30.7669 H   0  0  0  0  0  0  0  0  0  0  0  0
    6.3580    3.6600   29.5077 H   0  0  0  0  0  0  0  0  0  0  0  0
    9.1002    0.2341   32.1192 H   0  0  0  0  0  0  0  0  0  0  0  0
    7.8371   -1.0671   30.0157 H   0  0  0  0  0  0  0  0  0  0  0  0
    5.7000   -0.2026   28.4259 H   0  0  0  0  0  0  0  0  0  0  0  0
    4.8934    1.2355   28.9933 H   0  0  0  0  0  0  0  0  0  0  0  0
    7.3341    1.7683   27.4502 H   0  0  0  0  0  0  0  0  0  0  0  0
    6.8524    2.8569   25.2634 H   0  0  0  0  0  0  0  0  0  0  0  0
    5.7348    1.8710   24.2917 H   0  0  0  0  0  0  0  0  0  0  0  0
    8.8501    1.6878   24.6473 C   0  0  0  0  0  0  0  0  0  0  0  0
    9.0176    2.8128   25.1011 O   0  0  0  0  0  0  0  0  0  0  0  0
    9.9593    0.8971   23.9832 C   0  0  0  0  0  0  0  0  0  0  0  0
   11.2959    1.2189   24.2216 C   0  0  0  0  0  0  0  0  0  0  0  0
   12.3088    0.7048   23.4368 C   0  0  0  0  0  0  0  0  0  0  0  0
   11.9891   -0.1308   22.3644 C   0  0  0  0  0  0  0  0  0  0  0  0
   10.6685   -0.4984   22.1541 C   0  0  0  0  0  0  0  0  0  0  0  0
    9.6500   -0.0661   23.0170 C   0  0  0  0  0  0  0  0  0  0  0  0
   10.4259   -1.1240   21.2978 H   0  0  0  0  0  0  0  0  0  0  0  0
   12.7676   -0.5026   21.6996 H   0  0  0  0  0  0  0  0  0  0  0  0
   13.3421    0.9801   23.6368 H   0  0  0  0  0  0  0  0  0  0  0  0
   11.5559    1.9038   25.0032 H   0  0  0  0  0  0  0  0  0  0  0  0
    6.3489   -0.3779   23.9466 H   0  0  0  0  0  0  0  0  0  0  0  0
    7.7539   -0.9941   24.8742 H   0  0  0  0  0  0  0  0  0  0  0  0
    5.9107   -2.0689   21.6653 H   0  0  0  0  0  0  0  0  0  0  0  0
    7.0359   -2.4426   20.3547 H   0  0  0  0  0  0  0  0  0  0  0  0
    8.9330   -2.1920   21.7377 H   0  0  0  0  0  0  0  0  0  0  0  0
    7.6793   -4.0052   22.8261 H   0  0  0  0  0  0  0  0  0  0  0  0
    6.7889   -2.8473   23.8186 H   0  0  0  0  0  0  0  0  0  0  0  0
    8.5267   -3.0737   24.0646 H   0  0  0  0  0  0  0  0  0  0  0  0
  1  2  1  0
  2  3  1  0
  3  4  1  0
  4  5  1  0
  5  6  2  0
  6  7  1  0
  7  8  2  0
  8  9  1  0
  9 10  2  0
 10 11  1  0
 11 12  2  0
 12 13  1  0
 13 14  2  0
 13 15  1  0
 12 16  1  0
 11 17  1  0
 10 18  1  0
  8 19  1  0
  6 20  1  0
  4 21  1  0
 21 22  2  0
 21 23  1  0
 23 24  1  1
 24 25  1  0
 25 26  1  0
 26 27  1  0
 27 28  2  0
 27 29  1  0
 29 30  1  0
 30 31  1  0
 31 32  2  0
 32 33  1  0
 33 34  2  0
 34 35  1  0
 35 36  1  0
 36 37  1  0
 36 38  1  0
 36 39  1  0
 33 40  1  0
 32 41  1  0
 30 42  1  0
 30 43  1  0
 29 44  1  0
 26 45  1  0
 26 46  1  0
 25 47  1  0
 47 48  2  0
 47 49  1  0
 49 50  2  0
 50 51  1  0
 51 52  2  0
 52 53  1  0
 53 54  2  0
 53 55  1  0
 52 56  1  0
 51 57  1  0
 50 58  1  0
 24 59  1  0
 24 60  1  0
  3 61  1  0
  3 62  1  0
  2 63  1  6
  1 64  1  0
  1 65  1  0
  1 66  1  0
 23  2  1  0
 35 31  1  0
 54 49  1  0
 14  5  1  0
 54 23  1  0
 14  9  1  0
M  END
>  <cnnaffinities>  (9) 
[6.39708, 6.45854, 6.48885]

>  <score>  (9) 
6.39708

>  <index>  (9) 
8

>  <Smiles>  (9) 
C([C@]1(C(N(c2c(nc(c3c(c(c(c(c23)[H])[H])[H])[H])[H])[H])C(=O)[C@]21C(N(C(C(=O)N(C(c1c(c(nn1C([H])([H])[H])[H])[H])([H])[H])[H])([H])[H])C(=O)c1c(c(c(c(c21)[H])[H])[H])[H])([H])[H])([H])[H])[H])([H])([H])[H]

>  <h>  (9) 
<NA>

>  <Training>  (9) 
True

>  <Success>  (9) 
True

>  <enamine_searched>  (9) 
False

>  <enamine_id>  (9) 
nan

$$$$

     RDKit          3D

 58 63  0  0  0  0  0  0  0  0999 V2000
    5.2987    5.1096   21.6444 C   0  0  0  0  0  0  0  0  0  0  0  0
    6.3726    4.6096   22.5585 C   0  0  0  0  0  0  0  0  0  0  0  0
    6.2874    3.5375   23.4906 C   0  0  0  0  0  0  0  0  0  0  0  0
    7.5387    3.4532   24.0136 C   0  0  0  0  0  0  0  0  0  0  0  0
    8.1863    2.4966   24.9719 C   0  0  0  0  0  0  0  0  0  0  0  0
    8.9068    1.4366   24.2915 N   0  0  0  0  0  0  0  0  0  0  0  0
    8.2582    0.1576   24.0817 C   0  0  0  0  0  0  0  0  0  0  0  0
    8.4698   -0.3942   22.6563 C   0  0  2  0  0  0  0  0  0  0  0  0
    7.7249    0.4562   21.6077 C   0  0  0  0  0  0  0  0  0  0  0  0
    7.8601    1.6427   21.4062 O   0  0  0  0  0  0  0  0  0  0  0  0
    6.8711   -0.3589   20.8995 N   0  0  0  0  0  0  0  0  0  0  0  0
    6.1205    0.1149   19.8035 C   0  0  0  0  0  0  0  0  0  0  0  0
    6.4390   -0.2330   18.5143 C   0  0  0  0  0  0  0  0  0  0  0  0
    5.7779    0.2184   17.4228 N   0  0  0  0  0  0  0  0  0  0  0  0
    4.7577    1.0199   17.6145 C   0  0  0  0  0  0  0  0  0  0  0  0
    4.2934    1.4137   18.9028 C   0  0  0  0  0  0  0  0  0  0  0  0
    3.1591    2.2486   19.0723 C   0  0  0  0  0  0  0  0  0  0  0  0
    2.7316    2.6004   20.3248 C   0  0  0  0  0  0  0  0  0  0  0  0
    3.4100    2.1240   21.4675 C   0  0  0  0  0  0  0  0  0  0  0  0
    4.5070    1.3099   21.3338 C   0  0  0  0  0  0  0  0  0  0  0  0
    4.9860    0.9481   20.0405 C   0  0  0  0  0  0  0  0  0  0  0  0
    5.0172    0.9325   22.2143 H   0  0  0  0  0  0  0  0  0  0  0  0
    3.0571    2.4061   22.4579 H   0  0  0  0  0  0  0  0  0  0  0  0
    1.8697    3.2512   20.4431 H   0  0  0  0  0  0  0  0  0  0  0  0
    2.6427    2.5991   18.1852 H   0  0  0  0  0  0  0  0  0  0  0  0
    4.2282    1.3842   16.7326 H   0  0  0  0  0  0  0  0  0  0  0  0
    7.2936   -0.8795   18.3103 H   0  0  0  0  0  0  0  0  0  0  0  0
    7.1320   -1.7591   21.1073 C   0  0  0  0  0  0  0  0  0  0  0  0
    7.8559   -1.8160   22.4650 C   0  0  2  0  0  0  0  0  0  0  0  0
    6.9281   -2.3292   23.5726 C   0  0  0  0  0  0  0  0  0  0  0  0
    6.5748   -3.3366   23.3248 H   0  0  0  0  0  0  0  0  0  0  0  0
    6.0496   -1.6900   23.7093 H   0  0  0  0  0  0  0  0  0  0  0  0
    7.4507   -2.4067   24.5306 H   0  0  0  0  0  0  0  0  0  0  0  0
    8.6736   -2.5379   22.4211 H   0  0  0  0  0  0  0  0  0  0  0  0
    6.1938   -2.3207   21.0949 H   0  0  0  0  0  0  0  0  0  0  0  0
    7.7703   -2.1445   20.3091 H   0  0  0  0  0  0  0  0  0  0  0  0
    9.9705   -0.3502   22.3964 C   0  0  0  0  0  0  0  0  0  0  0  0
   10.5783   -1.2414   21.5071 C   0  0  0  0  0  0  0  0  0  0  0  0
   11.9459   -1.1669   21.3161 C   0  0  0  0  0  0  0  0  0  0  0  0
   12.5234   -2.0789   20.5160 F   0  0  0  0  0  0  0  0  0  0  0  0
   12.7354   -0.1502   21.8501 C   0  0  0  0  0  0  0  0  0  0  0  0
   12.1178    0.7729   22.6718 C   0  0  0  0  0  0  0  0  0  0  0  0
   10.7683    0.6375   22.9867 C   0  0  0  0  0  0  0  0  0  0  0  0
   10.1754    1.6909   23.8614 C   0  0  0  0  0  0  0  0  0  0  0  0
   10.7729    2.7228   24.1351 O   0  0  0  0  0  0  0  0  0  0  0  0
   12.6428    1.6112   23.1193 H   0  0  0  0  0  0  0  0  0  0  0  0
   13.7870   -0.0929   21.5865 H   0  0  0  0  0  0  0  0  0  0  0  0
   10.0128   -1.9846   20.9534 H   0  0  0  0  0  0  0  0  0  0  0  0
    8.6657   -0.5810   24.7833 H   0  0  0  0  0  0  0  0  0  0  0  0
    7.1944    0.2807   24.2908 H   0  0  0  0  0  0  0  0  0  0  0  0
    7.4327    2.0174   25.6042 H   0  0  0  0  0  0  0  0  0  0  0  0
    8.9025    3.0209   25.6059 H   0  0  0  0  0  0  0  0  0  0  0  0
    8.3077    4.4095   23.4787 O   0  0  0  0  0  0  0  0  0  0  0  0
    7.5716    5.1462   22.5785 N   0  0  0  0  0  0  0  0  0  0  0  0
    5.4340    2.9189   23.7151 H   0  0  0  0  0  0  0  0  0  0  0  0
    5.4690    6.1446   21.3454 H   0  0  0  0  0  0  0  0  0  0  0  0
    5.2601    4.4957   20.7377 H   0  0  0  0  0  0  0  0  0  0  0  0
    4.3192    5.0366   22.1283 H   0  0  0  0  0  0  0  0  0  0  0  0
  1  2  1  0
  2  3  1  0
  3  4  2  0
  4  5  1  0
  5  6  1  0
  6  7  1  0
  8  7  1  1
  8  9  1  0
  9 10  2  0
  9 11  1  0
 11 12  1  0
 12 13  2  0
 13 14  1  0
 14 15  2  0
 15 16  1  0
 16 17  2  0
 17 18  1  0
 18 19  2  0
 19 20  1  0
 20 21  2  0
 20 22  1  0
 19 23  1  0
 18 24  1  0
 17 25  1  0
 15 26  1  0
 13 27  1  0
 11 28  1  0
 28 29  1  0
 29 30  1  0
 30 31  1  0
 30 32  1  0
 30 33  1  0
 29 34  1  6
 28 35  1  0
 28 36  1  0
  8 37  1  0
 37 38  2  0
 38 39  1  0
 39 40  1  0
 39 41  2  0
 41 42  1  0
 42 43  2  0
 43 44  1  0
 44 45  2  0
 42 46  1  0
 41 47  1  0
 38 48  1  0
  7 49  1  0
  7 50  1  0
  5 51  1  0
  5 52  1  0
  4 53  1  0
 53 54  1  0
  3 55  1  0
  1 56  1  0
  1 57  1  0
  1 58  1  0
 54  2  2  0
 44  6  1  0
 29  8  1  0
 43 37  1  0
 21 12  1  0
 21 16  1  0
M  END
>  <cnnaffinities>  (10) 
[6.67324]

>  <score>  (10) 
6.67324

>  <index>  (10) 
9

>  <Smiles>  (10) 
C(c1c(c(C(N2C([C@@]3(C(=O)N(c4c(nc(c5c(c(c(c(c45)[H])[H])[H])[H])[H])[H])C([C@@]3(C([H])([H])[H])[H])([H])[H])c3c(c(F)c(c(c3C2=O)[H])[H])[H])([H])[H])([H])[H])on1)[H])([H])([H])[H]

>  <h>  (10) 
<NA>

>  <Training>  (10) 
True

>  <Success>  (10) 
True

>  <enamine_searched>  (10) 
False

>  <enamine_id>  (10) 
nan

$$$$

     RDKit          3D

 72 77  0  0  0  0  0  0  0  0999 V2000
    5.8870    5.1744   21.5061 C   0  0  0  0  0  0  0  0  0  0  0  0
    5.4109    5.9002   22.7641 C   0  0  1  0  0  0  0  0  0  0  0  0
    5.1285    4.9701   23.9502 C   0  0  0  0  0  0  0  0  0  0  0  0
    6.3648    4.4996   24.6727 N   0  0  0  0  0  4  0  0  0  0  0  0
    7.1265    3.3766   24.0242 C   0  0  0  0  0  0  0  0  0  0  0  0
    7.7854    2.4612   25.0587 C   0  0  0  0  0  0  0  0  0  0  0  0
    8.6092    1.4637   24.4094 N   0  0  0  0  0  0  0  0  0  0  0  0
    8.0635    0.1474   24.1459 C   0  0  0  0  0  0  0  0  0  0  0  0
    8.3930   -0.3604   22.7232 C   0  0  2  0  0  0  0  0  0  0  0  0
    7.6528    0.4833   21.6667 C   0  0  0  0  0  0  0  0  0  0  0  0
    7.7096    1.6889   21.5343 O   0  0  0  0  0  0  0  0  0  0  0  0
    6.8970   -0.3509   20.8805 N   0  0  0  0  0  0  0  0  0  0  0  0
    6.1317    0.1222   19.7959 C   0  0  0  0  0  0  0  0  0  0  0  0
    6.4387   -0.2311   18.5041 C   0  0  0  0  0  0  0  0  0  0  0  0
    5.7743    0.2192   17.4152 N   0  0  0  0  0  0  0  0  0  0  0  0
    4.7574    1.0243   17.6112 C   0  0  0  0  0  0  0  0  0  0  0  0
    4.3020    1.4208   18.9026 C   0  0  0  0  0  0  0  0  0  0  0  0
    3.1660    2.2557   19.0687 C   0  0  0  0  0  0  0  0  0  0  0  0
    2.7301    2.5980   20.3214 C   0  0  0  0  0  0  0  0  0  0  0  0
    3.4046    2.1166   21.4651 C   0  0  0  0  0  0  0  0  0  0  0  0
    4.5115    1.3147   21.3323 C   0  0  0  0  0  0  0  0  0  0  0  0
    4.9981    0.9567   20.0387 C   0  0  0  0  0  0  0  0  0  0  0  0
    5.0191    0.9413   22.2158 H   0  0  0  0  0  0  0  0  0  0  0  0
    3.0383    2.3775   22.4554 H   0  0  0  0  0  0  0  0  0  0  0  0
    1.8679    3.2460   20.4430 H   0  0  0  0  0  0  0  0  0  0  0  0
    2.6502    2.6074   18.1812 H   0  0  0  0  0  0  0  0  0  0  0  0
    4.2253    1.3884   16.7315 H   0  0  0  0  0  0  0  0  0  0  0  0
    7.2900   -0.8822   18.3025 H   0  0  0  0  0  0  0  0  0  0  0  0
    7.2162   -1.7454   21.0651 C   0  0  0  0  0  0  0  0  0  0  0  0
    7.8799   -1.8072   22.4555 C   0  0  2  0  0  0  0  0  0  0  0  0
    6.9352   -2.4085   23.5022 C   0  0  0  0  0  0  0  0  0  0  0  0
    7.4165   -2.4821   24.4821 H   0  0  0  0  0  0  0  0  0  0  0  0
    6.0143   -1.8255   23.6097 H   0  0  0  0  0  0  0  0  0  0  0  0
    6.6563   -3.4267   23.2103 H   0  0  0  0  0  0  0  0  0  0  0  0
    8.7447   -2.4728   22.4257 H   0  0  0  0  0  0  0  0  0  0  0  0
    7.9054   -2.0781   20.2844 H   0  0  0  0  0  0  0  0  0  0  0  0
    6.3063   -2.3478   21.0000 H   0  0  0  0  0  0  0  0  0  0  0  0
    9.8982   -0.2102   22.5333 C   0  0  0  0  0  0  0  0  0  0  0  0
   10.6099   -1.0285   21.6467 C   0  0  0  0  0  0  0  0  0  0  0  0
   11.9793   -0.8587   21.5084 C   0  0  0  0  0  0  0  0  0  0  0  0
   12.8438   -1.8589   20.3639 Cl  0  0  0  0  0  0  0  0  0  0  0  0
   12.6541    0.1954   22.1289 C   0  0  0  0  0  0  0  0  0  0  0  0
   11.9387    1.0477   22.9515 C   0  0  0  0  0  0  0  0  0  0  0  0
   10.5802    0.8345   23.1696 C   0  0  0  0  0  0  0  0  0  0  0  0
    9.8307    1.8554   23.9648 C   0  0  0  0  0  0  0  0  0  0  0  0
   10.2857    2.9750   24.1851 O   0  0  0  0  0  0  0  0  0  0  0  0
   12.4008    1.9042   23.4347 H   0  0  0  0  0  0  0  0  0  0  0  0
   13.7104    0.3458   21.9301 H   0  0  0  0  0  0  0  0  0  0  0  0
   10.1140   -1.7893   21.0502 H   0  0  0  0  0  0  0  0  0  0  0  0
    6.9817    0.1971   24.2915 H   0  0  0  0  0  0  0  0  0  0  0  0
    8.4843   -0.5755   24.8570 H   0  0  0  0  0  0  0  0  0  0  0  0
    7.0410    1.9310   25.6612 H   0  0  0  0  0  0  0  0  0  0  0  0
    8.4311    3.0334   25.7305 H   0  0  0  0  0  0  0  0  0  0  0  0
    7.9073    3.7884   23.3883 H   0  0  0  0  0  0  0  0  0  0  0  0
    6.4574    2.7979   23.3816 H   0  0  0  0  0  0  0  0  0  0  0  0
    7.2256    5.7079   24.9766 C   0  0  0  0  0  0  0  0  0  0  0  0
    7.4915    6.5429   23.7244 C   0  0  2  0  0  0  0  0  0  0  0  0
    8.3085    7.7811   24.0431 C   0  0  0  0  0  0  0  0  0  0  0  0
    9.2760    7.5093   24.4841 H   0  0  0  0  0  0  0  0  0  0  0  0
    8.4916    8.3643   23.1348 H   0  0  0  0  0  0  0  0  0  0  0  0
    7.7630    8.4149   24.7509 H   0  0  0  0  0  0  0  0  0  0  0  0
    6.2672    6.9676   23.1462 O   0  0  0  0  0  0  0  0  0  0  0  0
    8.0346    5.9304   22.9891 H   0  0  0  0  0  0  0  0  0  0  0  0
    6.7033    6.3201   25.7162 H   0  0  0  0  0  0  0  0  0  0  0  0
    8.1728    5.3756   25.4092 H   0  0  0  0  0  0  0  0  0  0  0  0
    6.0500    4.1133   25.5778 H   0  0  0  0  0  0  0  0  0  0  0  0
    4.5167    5.5005   24.6808 H   0  0  0  0  0  0  0  0  0  0  0  0
    4.5634    4.0988   23.6087 H   0  0  0  0  0  0  0  0  0  0  0  0
    4.4631    6.3978   22.5230 H   0  0  0  0  0  0  0  0  0  0  0  0
    6.8337    4.6453   21.6602 H   0  0  0  0  0  0  0  0  0  0  0  0
    6.0229    5.8868   20.6854 H   0  0  0  0  0  0  0  0  0  0  0  0
    5.1489    4.4215   21.2047 H   0  0  0  0  0  0  0  0  0  0  0  0
  1  2  1  0
  2  3  1  0
  3  4  1  0
  4  5  1  0
  5  6  1  0
  6  7  1  0
  7  8  1  0
  9  8  1  1
  9 10  1  0
 10 11  2  0
 10 12  1  0
 12 13  1  0
 13 14  2  0
 14 15  1  0
 15 16  2  0
 16 17  1  0
 17 18  2  0
 18 19  1  0
 19 20  2  0
 20 21  1  0
 21 22  2  0
 21 23  1  0
 20 24  1  0
 19 25  1  0
 18 26  1  0
 16 27  1  0
 14 28  1  0
 12 29  1  0
 29 30  1  0
 30 31  1  0
 31 32  1  0
 31 33  1  0
 31 34  1  0
 30 35  1  6
 29 36  1  0
 29 37  1  0
  9 38  1  0
 38 39  2  0
 39 40  1  0
 40 41  1  0
 40 42  2  0
 42 43  1  0
 43 44  2  0
 44 45  1  0
 45 46  2  0
 43 47  1  0
 42 48  1  0
 39 49  1  0
  8 50  1  0
  8 51  1  0
  6 52  1  0
  6 53  1  0
  5 54  1  0
  5 55  1  0
  4 56  1  0
 56 57  1  0
 57 58  1  0
 58 59  1  0
 58 60  1  0
 58 61  1  0
 57 62  1  0
 57 63  1  6
 56 64  1  0
 56 65  1  0
  4 66  1  0
  3 67  1  0
  3 68  1  0
  2 69  1  6
  1 70  1  0
  1 71  1  0
  1 72  1  0
 62  2  1  0
 45  7  1  0
 30  9  1  0
 44 38  1  0
 22 13  1  0
 22 17  1  0
M  CHG  1   4   1
M  END
>  <cnnaffinities>  (11) 
[6.78312, 6.64489]

>  <score>  (11) 
6.78312

>  <index>  (11) 
10

>  <Smiles>  (11) 
C([C@]1(C([N+](C(C(N2C([C@@]3(C(=O)N(c4c(nc(c5c(c(c(c(c45)[H])[H])[H])[H])[H])[H])C([C@@]3(C([H])([H])[H])[H])([H])[H])c3c(c(Cl)c(c(c3C2=O)[H])[H])[H])([H])[H])([H])[H])([H])[H])(C([C@](C([H])([H])[H])(O1)[H])([H])[H])[H])([H])[H])[H])([H])([H])[H]

>  <h>  (11) 
<NA>

>  <Training>  (11) 
True

>  <Success>  (11) 
True

>  <enamine_searched>  (11) 
False

>  <enamine_id>  (11) 
nan

$$$$

     RDKit          3D

 54 57  0  0  0  0  0  0  0  0999 V2000
    4.8799    1.9201   25.3042 C   0  0  0  0  0  0  0  0  0  0  0  0
    6.1336    1.9660   24.6595 O   0  0  0  0  0  0  0  0  0  0  0  0
    6.4397    2.9888   23.8096 C   0  0  0  0  0  0  0  0  0  0  0  0
    5.5513    4.0281   23.5133 C   0  0  0  0  0  0  0  0  0  0  0  0
    5.9384    5.0323   22.6257 C   0  0  0  0  0  0  0  0  0  0  0  0
    7.1973    5.0155   22.0460 C   0  0  0  0  0  0  0  0  0  0  0  0
    8.0721    3.9819   22.3668 C   0  0  0  0  0  0  0  0  0  0  0  0
    7.7271    2.9603   23.2380 C   0  0  0  0  0  0  0  0  0  0  0  0
    8.6563    1.7830   23.5101 C   0  0  2  0  0  0  0  0  0  0  0  0
   10.1644    2.0522   23.3441 C   0  0  0  0  0  0  0  0  0  0  0  0
   10.9933    0.8533   23.8273 C   0  0  2  0  0  0  0  0  0  0  0  0
   12.4893    1.0790   23.6095 C   0  0  0  0  0  0  0  0  0  0  0  0
   12.8385    1.9806   24.1223 H   0  0  0  0  0  0  0  0  0  0  0  0
   13.0858    0.2309   23.9676 H   0  0  0  0  0  0  0  0  0  0  0  0
   12.7101    1.2061   22.5431 H   0  0  0  0  0  0  0  0  0  0  0  0
   10.5197   -0.4279   23.1376 C   0  0  0  0  0  0  0  0  0  0  0  0
    8.9990   -0.6101   23.2637 C   0  0  0  0  0  0  0  0  0  0  0  0
    8.2618    0.5604   22.7864 N   0  0  0  0  0  0  0  0  0  0  0  0
    7.9307    0.6546   21.4242 C   0  0  0  0  0  0  0  0  0  0  0  0
    8.3453    1.5314   20.6965 O   0  0  0  0  0  0  0  0  0  0  0  0
    6.9765   -0.4301   20.8969 C   0  0  0  0  0  0  0  0  0  0  0  0
    6.1115    0.0835   19.7696 C   0  0  0  0  0  0  0  0  0  0  0  0
    6.4254   -0.2087   18.4686 C   0  0  0  0  0  0  0  0  0  0  0  0
    5.7573    0.2425   17.3751 N   0  0  0  0  0  0  0  0  0  0  0  0
    4.7329    1.0320   17.5799 C   0  0  0  0  0  0  0  0  0  0  0  0
    4.2853    1.4213   18.8701 C   0  0  0  0  0  0  0  0  0  0  0  0
    3.1664    2.2722   19.0492 C   0  0  0  0  0  0  0  0  0  0  0  0
    2.7626    2.6438   20.3018 C   0  0  0  0  0  0  0  0  0  0  0  0
    3.4647    2.1648   21.4336 C   0  0  0  0  0  0  0  0  0  0  0  0
    4.5479    1.3320   21.2913 C   0  0  0  0  0  0  0  0  0  0  0  0
    4.9926    0.9377   20.0021 C   0  0  0  0  0  0  0  0  0  0  0  0
    5.0714    0.9755   22.1743 H   0  0  0  0  0  0  0  0  0  0  0  0
    3.1374    2.4652   22.4259 H   0  0  0  0  0  0  0  0  0  0  0  0
    1.9108    3.3081   20.4273 H   0  0  0  0  0  0  0  0  0  0  0  0
    2.6472    2.6372   18.1661 H   0  0  0  0  0  0  0  0  0  0  0  0
    4.2030    1.3979   16.6972 H   0  0  0  0  0  0  0  0  0  0  0  0
    7.2731   -0.8524   18.2393 H   0  0  0  0  0  0  0  0  0  0  0  0
    6.3698   -0.8299   21.7214 H   0  0  0  0  0  0  0  0  0  0  0  0
    7.5888   -1.2635   20.5238 H   0  0  0  0  0  0  0  0  0  0  0  0
    8.6688   -1.4845   22.6994 H   0  0  0  0  0  0  0  0  0  0  0  0
    8.7403   -0.7772   24.3188 H   0  0  0  0  0  0  0  0  0  0  0  0
   10.7963   -0.3860   22.0773 H   0  0  0  0  0  0  0  0  0  0  0  0
   11.0498   -1.2956   23.5534 H   0  0  0  0  0  0  0  0  0  0  0  0
   10.8244    0.7287   24.9064 H   0  0  0  0  0  0  0  0  0  0  0  0
   10.4539    2.9446   23.9143 H   0  0  0  0  0  0  0  0  0  0  0  0
   10.3980    2.2590   22.2927 H   0  0  0  0  0  0  0  0  0  0  0  0
    8.5159    1.5168   24.5636 H   0  0  0  0  0  0  0  0  0  0  0  0
    9.0398    3.9577   21.8781 H   0  0  0  0  0  0  0  0  0  0  0  0
    7.5025    5.7831   21.3389 H   0  0  0  0  0  0  0  0  0  0  0  0
    5.2502    5.8354   22.3813 H   0  0  0  0  0  0  0  0  0  0  0  0
    4.5621    4.0686   23.9631 H   0  0  0  0  0  0  0  0  0  0  0  0
    4.6971    2.7756   25.9655 H   0  0  0  0  0  0  0  0  0  0  0  0
    4.9080    1.0231   25.9180 H   0  0  0  0  0  0  0  0  0  0  0  0
    4.0299    1.8260   24.6157 H   0  0  0  0  0  0  0  0  0  0  0  0
  1  2  1  0
  2  3  1  0
  3  4  2  0
  4  5  1  0
  5  6  2  0
  6  7  1  0
  7  8  2  0
  8  9  1  0
  9 10  1  0
 10 11  1  0
 11 12  1  0
 12 13  1  0
 12 14  1  0
 12 15  1  0
 11 16  1  0
 16 17  1  0
 17 18  1  0
 18 19  1  0
 19 20  2  0
 19 21  1  0
 21 22  1  0
 22 23  2  0
 23 24  1  0
 24 25  2  0
 25 26  1  0
 26 27  2  0
 27 28  1  0
 28 29  2  0
 29 30  1  0
 30 31  2  0
 30 32  1  0
 29 33  1  0
 28 34  1  0
 27 35  1  0
 25 36  1  0
 23 37  1  0
 21 38  1  0
 21 39  1  0
 17 40  1  0
 17 41  1  0
 16 42  1  0
 16 43  1  0
 11 44  1  1
 10 45  1  0
 10 46  1  0
  9 47  1  1
  7 48  1  0
  6 49  1  0
  5 50  1  0
  4 51  1  0
  1 52  1  0
  1 53  1  0
  1 54  1  0
  8  3  1  0
 18  9  1  0
 31 22  1  0
 31 26  1  0
M  END
>  <cnnaffinities>  (12) 
[5.95364]

>  <score>  (12) 
5.95364

>  <index>  (12) 
11

>  <Smiles>  (12) 
C(Oc1c(c(c(c(c1[C@@]1(C([C@](C([H])([H])[H])(C(C(N1C(=O)C(c1c(nc(c2c(c(c(c(c12)[H])[H])[H])[H])[H])[H])([H])[H])([H])[H])([H])[H])[H])([H])[H])[H])[H])[H])[H])[H])([H])([H])[H]

>  <h>  (12) 
<NA>

>  <Training>  (12) 
True

>  <Success>  (12) 
True

>  <enamine_searched>  (12) 
False

>  <enamine_id>  (12) 
nan

$$$$

     RDKit          3D

 47 50  0  0  0  0  0  0  0  0999 V2000
    5.5792   -2.4856   20.9683 O   0  0  0  0  0  0  0  0  0  0  0  0
    6.1374   -1.6246   21.6286 C   0  0  0  0  0  0  0  0  0  0  0  0
    6.9074   -0.4868   20.9208 C   0  0  0  0  0  0  0  0  0  0  0  0
    6.1155    0.0914   19.7698 C   0  0  0  0  0  0  0  0  0  0  0  0
    6.4210   -0.2145   18.4661 C   0  0  0  0  0  0  0  0  0  0  0  0
    5.7551    0.2390   17.3722 N   0  0  0  0  0  0  0  0  0  0  0  0
    4.7337    1.0343   17.5765 C   0  0  0  0  0  0  0  0  0  0  0  0
    4.2846    1.4229   18.8706 C   0  0  0  0  0  0  0  0  0  0  0  0
    3.1581    2.2678   19.0467 C   0  0  0  0  0  0  0  0  0  0  0  0
    2.7457    2.6248   20.3031 C   0  0  0  0  0  0  0  0  0  0  0  0
    3.4393    2.1409   21.4332 C   0  0  0  0  0  0  0  0  0  0  0  0
    4.5322    1.3195   21.2886 C   0  0  0  0  0  0  0  0  0  0  0  0
    4.9896    0.9409   19.9970 C   0  0  0  0  0  0  0  0  0  0  0  0
    5.0487    0.9564   22.1719 H   0  0  0  0  0  0  0  0  0  0  0  0
    3.1047    2.4249   22.4246 H   0  0  0  0  0  0  0  0  0  0  0  0
    1.8891    3.2783   20.4358 H   0  0  0  0  0  0  0  0  0  0  0  0
    2.6373    2.6358   18.1670 H   0  0  0  0  0  0  0  0  0  0  0  0
    4.1997    1.4002   16.6981 H   0  0  0  0  0  0  0  0  0  0  0  0
    7.2650   -0.8670   18.2463 H   0  0  0  0  0  0  0  0  0  0  0  0
    7.2145    0.3101   21.6088 H   0  0  0  0  0  0  0  0  0  0  0  0
    7.8292   -0.9226   20.5169 H   0  0  0  0  0  0  0  0  0  0  0  0
    6.0710   -1.6163   22.9923 N   0  0  0  0  0  0  0  0  0  0  0  0
    6.9091   -0.8604   23.9119 C   0  0  0  0  0  0  0  0  0  0  0  0
    6.6357   -1.4615   25.3034 C   0  0  2  0  0  0  0  0  0  0  0  0
    7.7175   -2.4351   25.7265 C   0  0  0  0  0  0  0  0  0  0  0  0
    7.7725   -3.5129   24.8555 F   0  0  0  0  0  0  0  0  0  0  0  0
    8.6759   -1.9177   25.6591 H   0  0  0  0  0  0  0  0  0  0  0  0
    7.5707   -2.8391   26.7378 H   0  0  0  0  0  0  0  0  0  0  0  0
    5.2328   -2.0840   25.1858 C   0  0  0  0  0  0  0  0  0  0  0  0
    4.8983   -3.2227   26.1630 C   0  0  0  0  0  0  0  0  0  0  0  0
    3.3669   -3.2851   26.2533 C   0  0  0  0  0  0  0  0  0  0  0  0
    2.8663   -1.8738   25.8933 C   0  0  0  0  0  0  0  0  0  0  0  0
    4.1174   -1.0615   25.5130 C   0  0  0  0  0  0  0  0  0  0  0  0
    3.9424   -0.3726   24.6833 H   0  0  0  0  0  0  0  0  0  0  0  0
    4.4259   -0.4376   26.3598 H   0  0  0  0  0  0  0  0  0  0  0  0
    2.3394   -1.4031   26.7277 H   0  0  0  0  0  0  0  0  0  0  0  0
    2.1579   -1.9194   25.0631 H   0  0  0  0  0  0  0  0  0  0  0  0
    2.9726   -4.0215   25.5471 H   0  0  0  0  0  0  0  0  0  0  0  0
    3.0381   -3.5965   27.2495 H   0  0  0  0  0  0  0  0  0  0  0  0
    5.3396   -4.1744   25.8541 H   0  0  0  0  0  0  0  0  0  0  0  0
    5.3091   -2.9966   27.1549 H   0  0  0  0  0  0  0  0  0  0  0  0
    5.1778   -2.5235   23.7045 C   0  0  0  0  0  0  0  0  0  0  0  0
    4.1677   -2.4617   23.3072 H   0  0  0  0  0  0  0  0  0  0  0  0
    5.4716   -3.5691   23.5797 H   0  0  0  0  0  0  0  0  0  0  0  0
    6.6528   -0.6771   26.0632 H   0  0  0  0  0  0  0  0  0  0  0  0
    7.9659   -0.9491   23.6497 H   0  0  0  0  0  0  0  0  0  0  0  0
    6.6409    0.2016   23.8992 H   0  0  0  0  0  0  0  0  0  0  0  0
  1  2  2  0
  2  3  1  0
  3  4  1  0
  4  5  2  0
  5  6  1  0
  6  7  2  0
  7  8  1  0
  8  9  2  0
  9 10  1  0
 10 11  2  0
 11 12  1  0
 12 13  2  0
 12 14  1  0
 11 15  1  0
 10 16  1  0
  9 17  1  0
  7 18  1  0
  5 19  1  0
  3 20  1  0
  3 21  1  0
  2 22  1  0
 22 23  1  0
 23 24  1  0
 24 25  1  0
 25 26  1  0
 25 27  1  0
 25 28  1  0
 24 29  1  0
 29 30  1  0
 30 31  1  0
 31 32  1  0
 32 33  1  0
 33 34  1  0
 33 35  1  0
 32 36  1  0
 32 37  1  0
 31 38  1  0
 31 39  1  0
 30 40  1  0
 30 41  1  0
 29 42  1  0
 42 43  1  0
 42 44  1  0
 24 45  1  1
 23 46  1  0
 23 47  1  0
 13  4  1  0
 42 22  1  0
 13  8  1  0
 33 29  1  0
M  END
>  <cnnaffinities>  (13) 
[5.39247, 5.20237, 5.42299]

>  <score>  (13) 
5.39247

>  <index>  (13) 
12

>  <Smiles>  (13) 
O=C(C(c1c(nc(c2c(c(c(c(c12)[H])[H])[H])[H])[H])[H])([H])[H])N1C([C@](C(F)([H])[H])(C2(C(C(C(C2([H])[H])([H])[H])([H])[H])([H])[H])C1([H])[H])[H])([H])[H]

>  <h>  (13) 
<NA>

>  <Training>  (13) 
True

>  <Success>  (13) 
True

>  <enamine_searched>  (13) 
False

>  <enamine_id>  (13) 
nan

$$$$

     RDKit          3D

 67 72  0  0  0  0  0  0  0  0999 V2000
    7.7217   -8.3963   22.9925 C   0  0  0  0  0  0  0  0  0  0  0  0
    6.7788   -7.3534   22.6650 N   0  0  0  0  0  0  0  0  0  0  0  0
    7.0771   -6.5169   21.6340 C   0  0  0  0  0  0  0  0  0  0  0  0
    7.9841   -6.7010   20.8370 O   0  0  0  0  0  0  0  0  0  0  0  0
    6.2015   -5.2589   21.5927 C   0  0  0  0  0  0  0  0  0  0  0  0
    6.6694   -4.2966   22.5764 N   0  0  0  0  0  0  0  0  0  0  0  0
    7.7718   -3.3993   22.2735 C   0  0  0  0  0  0  0  0  0  0  0  0
    7.4134   -1.9443   22.6562 C   0  0  2  0  0  0  0  0  0  0  0  0
    6.3236   -1.4673   21.6673 C   0  0  0  0  0  0  0  0  0  0  0  0
    5.2037   -1.9193   21.5536 O   0  0  0  0  0  0  0  0  0  0  0  0
    6.8398   -0.4591   20.8778 N   0  0  0  0  0  0  0  0  0  0  0  0
    6.1042    0.0790   19.8037 C   0  0  0  0  0  0  0  0  0  0  0  0
    6.4632   -0.2023   18.5072 C   0  0  0  0  0  0  0  0  0  0  0  0
    5.8003    0.2457   17.4193 N   0  0  0  0  0  0  0  0  0  0  0  0
    4.7573    1.0130   17.6157 C   0  0  0  0  0  0  0  0  0  0  0  0
    4.2892    1.3961   18.9070 C   0  0  0  0  0  0  0  0  0  0  0  0
    3.1544    2.2318   19.0653 C   0  0  0  0  0  0  0  0  0  0  0  0
    2.7587    2.6323   20.3115 C   0  0  0  0  0  0  0  0  0  0  0  0
    3.4657    2.2003   21.4557 C   0  0  0  0  0  0  0  0  0  0  0  0
    4.5533    1.3704   21.3312 C   0  0  0  0  0  0  0  0  0  0  0  0
    4.9845    0.9371   20.0431 C   0  0  0  0  0  0  0  0  0  0  0  0
    5.0950    1.0349   22.2110 H   0  0  0  0  0  0  0  0  0  0  0  0
    3.1478    2.5308   22.4406 H   0  0  0  0  0  0  0  0  0  0  0  0
    1.9022    3.2915   20.4277 H   0  0  0  0  0  0  0  0  0  0  0  0
    2.6306    2.5595   18.1719 H   0  0  0  0  0  0  0  0  0  0  0  0
    4.2293    1.3770   16.7345 H   0  0  0  0  0  0  0  0  0  0  0  0
    7.3127   -0.8557   18.3086 H   0  0  0  0  0  0  0  0  0  0  0  0
    8.2829   -0.3730   20.9697 C   0  0  0  0  0  0  0  0  0  0  0  0
    8.5691   -0.9419   22.3635 C   0  0  2  0  0  0  0  0  0  0  0  0
    9.9875   -1.4729   22.4708 C   0  0  0  0  0  0  0  0  0  0  0  0
   10.1618   -1.9941   23.7693 O   0  0  0  0  0  0  0  0  0  0  0  0
   11.4943   -2.3600   24.0560 C   0  0  0  0  0  0  0  0  0  0  0  0
   12.3178   -1.2074   24.5702 C   0  0  0  0  0  0  0  0  0  0  0  0
   13.1940   -0.4608   23.6106 C   0  0  0  0  0  0  0  0  0  0  0  0
   13.8007   -1.4049   24.6174 C   0  0  0  0  0  0  0  0  0  0  0  0
   14.3568   -1.0012   25.4574 H   0  0  0  0  0  0  0  0  0  0  0  0
   14.1658   -2.3747   24.2922 H   0  0  0  0  0  0  0  0  0  0  0  0
   13.1545   -0.7508   22.5634 H   0  0  0  0  0  0  0  0  0  0  0  0
   13.3462    0.6030   23.7474 H   0  0  0  0  0  0  0  0  0  0  0  0
   11.8634   -0.6239   25.3622 H   0  0  0  0  0  0  0  0  0  0  0  0
   11.4367   -3.1510   24.8091 H   0  0  0  0  0  0  0  0  0  0  0  0
   11.9950   -2.7979   23.1720 H   0  0  0  0  0  0  0  0  0  0  0  0
   10.1541   -2.2534   21.7059 H   0  0  0  0  0  0  0  0  0  0  0  0
   10.7164   -0.6708   22.2721 H   0  0  0  0  0  0  0  0  0  0  0  0
    8.4668   -0.1260   23.0791 H   0  0  0  0  0  0  0  0  0  0  0  0
    8.6100    0.6649   20.8570 H   0  0  0  0  0  0  0  0  0  0  0  0
    8.7773   -0.9693   20.1868 H   0  0  0  0  0  0  0  0  0  0  0  0
    6.9057   -1.9736   24.0948 C   0  0  0  0  0  0  0  0  0  0  0  0
    6.8164   -0.8030   24.8629 C   0  0  0  0  0  0  0  0  0  0  0  0
    6.2917   -0.8494   26.1442 C   0  0  0  0  0  0  0  0  0  0  0  0
    6.0227    0.6449   27.0066 Cl  0  0  0  0  0  0  0  0  0  0  0  0
    5.9295   -2.0536   26.7485 C   0  0  0  0  0  0  0  0  0  0  0  0
    5.9897   -3.2114   25.9963 C   0  0  0  0  0  0  0  0  0  0  0  0
    6.4086   -3.1552   24.6689 C   0  0  0  0  0  0  0  0  0  0  0  0
    6.1904   -4.3720   23.8413 C   0  0  0  0  0  0  0  0  0  0  0  0
    5.5658   -5.3552   24.2515 O   0  0  0  0  0  0  0  0  0  0  0  0
    5.6885   -4.1696   26.4039 H   0  0  0  0  0  0  0  0  0  0  0  0
    5.5733   -2.0709   27.7707 H   0  0  0  0  0  0  0  0  0  0  0  0
    7.1391    0.1548   24.4718 H   0  0  0  0  0  0  0  0  0  0  0  0
    8.6715   -3.7047   22.8191 H   0  0  0  0  0  0  0  0  0  0  0  0
    7.9878   -3.4525   21.2121 H   0  0  0  0  0  0  0  0  0  0  0  0
    5.1502   -5.4828   21.8209 H   0  0  0  0  0  0  0  0  0  0  0  0
    6.2540   -4.8001   20.6012 H   0  0  0  0  0  0  0  0  0  0  0  0
    6.1977   -6.9710   23.4123 H   0  0  0  0  0  0  0  0  0  0  0  0
    7.1988   -9.2728   23.3636 H   0  0  0  0  0  0  0  0  0  0  0  0
    8.4584   -8.0493   23.7255 H   0  0  0  0  0  0  0  0  0  0  0  0
    8.2380   -8.6852   22.0852 H   0  0  0  0  0  0  0  0  0  0  0  0
  1  2  1  0
  2  3  1  0
  3  4  2  0
  3  5  1  0
  5  6  1  0
  6  7  1  0
  8  7  1  6
  8  9  1  0
  9 10  2  0
  9 11  1  0
 11 12  1  0
 12 13  2  0
 13 14  1  0
 14 15  2  0
 15 16  1  0
 16 17  2  0
 17 18  1  0
 18 19  2  0
 19 20  1  0
 20 21  2  0
 20 22  1  0
 19 23  1  0
 18 24  1  0
 17 25  1  0
 15 26  1  0
 13 27  1  0
 11 28  1  0
 28 29  1  0
 29 30  1  0
 30 31  1  0
 31 32  1  0
 32 33  1  0
 33 34  1  0
 34 35  1  0
 35 36  1  0
 35 37  1  0
 34 38  1  0
 34 39  1  0
 33 40  1  0
 32 41  1  0
 32 42  1  0
 30 43  1  0
 30 44  1  0
 29 45  1  1
 28 46  1  0
 28 47  1  0
  8 48  1  0
 48 49  2  0
 49 50  1  0
 50 51  1  0
 50 52  2  0
 52 53  1  0
 53 54  2  0
 54 55  1  0
 55 56  2  0
 53 57  1  0
 52 58  1  0
 49 59  1  0
  7 60  1  0
  7 61  1  0
  5 62  1  0
  5 63  1  0
  2 64  1  0
  1 65  1  0
  1 66  1  0
  1 67  1  0
 55  6  1  0
 29  8  1  0
 35 33  1  0
 54 48  1  0
 21 12  1  0
 21 16  1  0
M  END
>  <cnnaffinities>  (14) 
[7.17513, 6.51867, 7.20434]

>  <score>  (14) 
7.17513

>  <index>  (14) 
13

>  <Smiles>  (14) 
C(N(C(=O)C(N1C([C@@]2(C(=O)N(c3c(nc(c4c(c(c(c(c34)[H])[H])[H])[H])[H])[H])C([C@@]2(C(OC(C2(C(C2([H])[H])([H])[H])[H])([H])[H])([H])[H])[H])([H])[H])c2c(c(Cl)c(c(c2C1=O)[H])[H])[H])([H])[H])([H])[H])[H])([H])([H])[H]

>  <h>  (14) 
<NA>

>  <Training>  (14) 
True

>  <Success>  (14) 
True

>  <enamine_searched>  (14) 
False

>  <enamine_id>  (14) 
nan

$$$$

     RDKit          3D

 67 73  0  0  0  0  0  0  0  0999 V2000
    7.3901   -2.4028   23.9115 C   0  0  0  0  0  0  0  0  0  0  0  0
    7.7625   -1.7731   22.5631 C   0  0  1  0  0  0  0  0  0  0  0  0
    6.5360   -1.5415   21.6532 C   0  0  0  0  0  0  0  0  0  0  0  0
    6.9238   -0.4127   20.8278 N   0  0  0  0  0  0  0  0  0  0  0  0
    6.1409    0.1102   19.7637 C   0  0  0  0  0  0  0  0  0  0  0  0
    6.4564   -0.2074   18.4693 C   0  0  0  0  0  0  0  0  0  0  0  0
    5.7683    0.2307   17.3894 N   0  0  0  0  0  0  0  0  0  0  0  0
    4.7458    1.0204   17.6003 C   0  0  0  0  0  0  0  0  0  0  0  0
    4.2945    1.4219   18.8890 C   0  0  0  0  0  0  0  0  0  0  0  0
    3.1645    2.2638   19.0689 C   0  0  0  0  0  0  0  0  0  0  0  0
    2.7570    2.6274   20.3218 C   0  0  0  0  0  0  0  0  0  0  0  0
    3.4569    2.1565   21.4538 C   0  0  0  0  0  0  0  0  0  0  0  0
    4.5606    1.3490   21.3077 C   0  0  0  0  0  0  0  0  0  0  0  0
    5.0121    0.9547   20.0178 C   0  0  0  0  0  0  0  0  0  0  0  0
    5.0919    1.0001   22.1877 H   0  0  0  0  0  0  0  0  0  0  0  0
    3.1251    2.4425   22.4476 H   0  0  0  0  0  0  0  0  0  0  0  0
    1.9064    3.2944   20.4467 H   0  0  0  0  0  0  0  0  0  0  0  0
    2.6482    2.6179   18.1814 H   0  0  0  0  0  0  0  0  0  0  0  0
    4.2172    1.3845   16.7193 H   0  0  0  0  0  0  0  0  0  0  0  0
    7.2999   -0.8616   18.2620 H   0  0  0  0  0  0  0  0  0  0  0  0
    8.0452    0.2524   21.2710 C   0  0  0  0  0  0  0  0  0  0  0  0
    8.5629    1.1861   20.6925 O   0  0  0  0  0  0  0  0  0  0  0  0
    8.4969   -0.3937   22.6064 C   0  0  1  0  0  0  0  0  0  0  0  0
    8.0457    0.4626   23.8117 C   0  0  0  0  0  0  0  0  0  0  0  0
    8.7303    1.7396   23.8552 N   0  0  0  0  0  0  0  0  0  0  0  0
    7.9706    2.9653   24.0259 C   0  0  0  0  0  0  0  0  0  0  0  0
    7.7008    3.6429   22.6797 C   0  0  0  0  0  0  0  0  0  0  0  0
    6.9472    4.9288   22.8275 N   0  0  2  0  0  4  0  0  0  0  0  0
    5.4599    4.7674   23.2096 C   0  0  0  0  0  0  0  0  0  0  0  0
    4.7364    5.5056   22.0728 C   0  0  2  0  0  0  0  0  0  0  0  0
    5.5881    5.1315   20.8578 C   0  0  0  0  0  0  0  0  0  0  0  0
    6.8431    5.7174   21.5206 C   0  0  1  0  0  0  0  0  0  0  0  0
    6.3371    7.1141   21.8581 C   0  0  0  0  0  0  0  0  0  0  0  0
    4.9612    6.9118   22.2176 O   0  0  0  0  0  0  0  0  0  0  0  0
    6.8824    7.5634   22.6956 H   0  0  0  0  0  0  0  0  0  0  0  0
    6.3891    7.7932   20.9978 H   0  0  0  0  0  0  0  0  0  0  0  0
    7.7936    5.6859   20.9995 H   0  0  0  0  0  0  0  0  0  0  0  0
    5.6224    4.0511   20.6595 H   0  0  0  0  0  0  0  0  0  0  0  0
    5.2960    5.6710   19.9526 H   0  0  0  0  0  0  0  0  0  0  0  0
    3.6608    5.3436   22.0244 H   0  0  0  0  0  0  0  0  0  0  0  0
    5.2155    3.7019   23.2262 H   0  0  0  0  0  0  0  0  0  0  0  0
    5.2761    5.2123   24.1847 H   0  0  0  0  0  0  0  0  0  0  0  0
    7.4504    5.4944   23.5373 H   0  0  0  0  0  0  0  0  0  0  0  0
    8.6563    3.8515   22.1819 H   0  0  0  0  0  0  0  0  0  0  0  0
    7.1322    2.9621   22.0335 H   0  0  0  0  0  0  0  0  0  0  0  0
    8.5440    3.6247   24.6842 H   0  0  0  0  0  0  0  0  0  0  0  0
    7.0266    2.6956   24.5182 H   0  0  0  0  0  0  0  0  0  0  0  0
   10.0919    1.8201   23.7557 C   0  0  0  0  0  0  0  0  0  0  0  0
   10.7140    2.8312   24.0510 O   0  0  0  0  0  0  0  0  0  0  0  0
   10.7584    0.5915   23.2076 C   0  0  0  0  0  0  0  0  0  0  0  0
   12.1472    0.5370   23.1792 C   0  0  0  0  0  0  0  0  0  0  0  0
   12.8090   -0.4818   22.5290 C   0  0  0  0  0  0  0  0  0  0  0  0
   12.0438   -1.4513   21.8729 C   0  0  0  0  0  0  0  0  0  0  0  0
   12.7210   -2.6820   20.8443 Cl  0  0  0  0  0  0  0  0  0  0  0  0
   10.6700   -1.4496   21.9532 C   0  0  0  0  0  0  0  0  0  0  0  0
   10.0022   -0.4454   22.6467 C   0  0  0  0  0  0  0  0  0  0  0  0
   10.1490   -2.2286   21.4102 H   0  0  0  0  0  0  0  0  0  0  0  0
   13.8912   -0.4698   22.5375 H   0  0  0  0  0  0  0  0  0  0  0  0
   12.6920    1.3435   23.6501 H   0  0  0  0  0  0  0  0  0  0  0  0
    6.9700    0.6533   23.7242 H   0  0  0  0  0  0  0  0  0  0  0  0
    8.2483   -0.1160   24.7300 H   0  0  0  0  0  0  0  0  0  0  0  0
    6.3034   -2.4136   21.0282 H   0  0  0  0  0  0  0  0  0  0  0  0
    5.6368   -1.3158   22.2488 H   0  0  0  0  0  0  0  0  0  0  0  0
    8.4280   -2.4651   22.0374 H   0  0  0  0  0  0  0  0  0  0  0  0
    8.2617   -2.5115   24.5701 H   0  0  0  0  0  0  0  0  0  0  0  0
    6.9487   -3.3986   23.7742 H   0  0  0  0  0  0  0  0  0  0  0  0
    6.6479   -1.7881   24.4387 H   0  0  0  0  0  0  0  0  0  0  0  0
  1  2  1  0
  2  3  1  0
  3  4  1  0
  4  5  1  0
  5  6  2  0
  6  7  1  0
  7  8  2  0
  8  9  1  0
  9 10  2  0
 10 11  1  0
 11 12  2  0
 12 13  1  0
 13 14  2  0
 13 15  1  0
 12 16  1  0
 11 17  1  0
 10 18  1  0
  8 19  1  0
  6 20  1  0
  4 21  1  0
 21 22  2  0
 21 23  1  0
 23 24  1  1
 24 25  1  0
 25 26  1  0
 26 27  1  0
 27 28  1  0
 28 29  1  0
 29 30  1  0
 30 31  1  0
 31 32  1  0
 32 33  1  0
 33 34  1  0
 33 35  1  0
 33 36  1  0
 32 37  1  6
 31 38  1  0
 31 39  1  0
 30 40  1  6
 29 41  1  0
 29 42  1  0
 28 43  1  1
 27 44  1  0
 27 45  1  0
 26 46  1  0
 26 47  1  0
 25 48  1  0
 48 49  2  0
 48 50  1  0
 50 51  2  0
 51 52  1  0
 52 53  2  0
 53 54  1  0
 53 55  1  0
 55 56  2  0
 55 57  1  0
 52 58  1  0
 51 59  1  0
 24 60  1  0
 24 61  1  0
  3 62  1  0
  3 63  1  0
  2 64  1  6
  1 65  1  0
  1 66  1  0
  1 67  1  0
 23  2  1  0
 32 28  1  0
 56 50  1  0
 14  5  1  0
 56 23  1  0
 14  9  1  0
 34 30  1  0
M  CHG  1  28   1
M  END
>  <cnnaffinities>  (15) 
[6.69854]

>  <score>  (15) 
6.69854

>  <index>  (15) 
14

>  <Smiles>  (15) 
C([C@]1(C(N(c2c(nc(c3c(c(c(c(c23)[H])[H])[H])[H])[H])[H])C(=O)[C@]21C(N(C(C([N@@+]1(C([C@@]3(C([C@]1(C(O3)([H])[H])[H])([H])[H])[H])([H])[H])[H])([H])[H])([H])[H])C(=O)c1c(c(c(Cl)c(c21)[H])[H])[H])([H])[H])([H])[H])[H])([H])([H])[H]

>  <h>  (15) 
<NA>

>  <Training>  (15) 
True

>  <Success>  (15) 
True

>  <enamine_searched>  (15) 
False

>  <enamine_id>  (15) 
nan

$$$$

     RDKit          3D

 72 77  0  0  0  0  0  0  0  0999 V2000
    5.1885    5.7202   20.0491 C   0  0  0  0  0  0  0  0  0  0  0  0
    5.6888    5.2327   21.4023 C   0  0  1  0  0  0  0  0  0  0  0  0
    6.8247    4.2315   21.1832 C   0  0  0  0  0  0  0  0  0  0  0  0
    7.7754    4.1312   22.3406 N   0  0  2  0  0  4  0  0  0  0  0  0
    7.0825    3.4171   23.4756 C   0  0  0  0  0  0  0  0  0  0  0  0
    8.0658    2.8430   24.4779 C   0  0  0  0  0  0  0  0  0  0  0  0
    8.7909    1.7226   23.9064 N   0  0  0  0  0  0  0  0  0  0  0  0
    8.1173    0.4395   23.8292 C   0  0  0  0  0  0  0  0  0  0  0  0
    8.5316   -0.3466   22.5578 C   0  0  2  0  0  0  0  0  0  0  0  0
    7.9862    0.3813   21.3036 C   0  0  0  0  0  0  0  0  0  0  0  0
    8.3643    1.4480   20.8500 O   0  0  0  0  0  0  0  0  0  0  0  0
    6.9510   -0.3680   20.7987 N   0  0  0  0  0  0  0  0  0  0  0  0
    6.1443    0.1262   19.7469 C   0  0  0  0  0  0  0  0  0  0  0  0
    6.4777   -0.1699   18.4543 C   0  0  0  0  0  0  0  0  0  0  0  0
    5.7892    0.2576   17.3759 N   0  0  0  0  0  0  0  0  0  0  0  0
    4.7460    1.0217   17.6000 C   0  0  0  0  0  0  0  0  0  0  0  0
    4.2900    1.4026   18.8945 C   0  0  0  0  0  0  0  0  0  0  0  0
    3.1640    2.2441   19.0800 C   0  0  0  0  0  0  0  0  0  0  0  0
    2.7682    2.6165   20.3367 C   0  0  0  0  0  0  0  0  0  0  0  0
    3.4686    2.1446   21.4679 C   0  0  0  0  0  0  0  0  0  0  0  0
    4.5486    1.3076   21.3191 C   0  0  0  0  0  0  0  0  0  0  0  0
    5.0001    0.9303   20.0209 C   0  0  0  0  0  0  0  0  0  0  0  0
    5.0783    0.9612   22.2021 H   0  0  0  0  0  0  0  0  0  0  0  0
    3.1475    2.4547   22.4571 H   0  0  0  0  0  0  0  0  0  0  0  0
    1.9138    3.2728   20.4631 H   0  0  0  0  0  0  0  0  0  0  0  0
    2.6442    2.5955   18.1955 H   0  0  0  0  0  0  0  0  0  0  0  0
    4.2075    1.3865   16.7283 H   0  0  0  0  0  0  0  0  0  0  0  0
    7.3480   -0.7967   18.2704 H   0  0  0  0  0  0  0  0  0  0  0  0
    6.5754   -1.5084   21.6123 C   0  0  0  0  0  0  0  0  0  0  0  0
    7.8240   -1.7356   22.4755 C   0  0  2  0  0  0  0  0  0  0  0  0
    7.5178   -2.4222   23.8016 C   0  0  0  0  0  0  0  0  0  0  0  0
    7.0941   -3.4156   23.6197 H   0  0  0  0  0  0  0  0  0  0  0  0
    8.4325   -2.5355   24.3935 H   0  0  0  0  0  0  0  0  0  0  0  0
    6.7937   -1.8474   24.3939 H   0  0  0  0  0  0  0  0  0  0  0  0
    8.4741   -2.4017   21.9005 H   0  0  0  0  0  0  0  0  0  0  0  0
    6.3449   -2.3764   20.9854 H   0  0  0  0  0  0  0  0  0  0  0  0
    5.6793   -1.3128   22.2251 H   0  0  0  0  0  0  0  0  0  0  0  0
   10.0424   -0.3807   22.4858 C   0  0  0  0  0  0  0  0  0  0  0  0
   10.6952   -1.3273   21.6909 C   0  0  0  0  0  0  0  0  0  0  0  0
   12.0662   -1.2741   21.5455 C   0  0  0  0  0  0  0  0  0  0  0  0
   12.8479   -2.3650   20.4399 Cl  0  0  0  0  0  0  0  0  0  0  0  0
   12.8332   -0.3285   22.2269 C   0  0  0  0  0  0  0  0  0  0  0  0
   12.1941    0.6175   22.9988 C   0  0  0  0  0  0  0  0  0  0  0  0
   10.8013    0.6388   23.0749 C   0  0  0  0  0  0  0  0  0  0  0  0
   10.1398    1.8190   23.7288 C   0  0  0  0  0  0  0  0  0  0  0  0
   10.7865    2.8116   24.0446 O   0  0  0  0  0  0  0  0  0  0  0  0
   12.7520    1.3743   23.5378 H   0  0  0  0  0  0  0  0  0  0  0  0
   13.9113   -0.3313   22.1163 H   0  0  0  0  0  0  0  0  0  0  0  0
   10.1523   -2.0951   21.1493 H   0  0  0  0  0  0  0  0  0  0  0  0
    8.3409   -0.1613   24.7246 H   0  0  0  0  0  0  0  0  0  0  0  0
    7.0370    0.6118   23.8119 H   0  0  0  0  0  0  0  0  0  0  0  0
    7.5351    2.5216   25.3802 H   0  0  0  0  0  0  0  0  0  0  0  0
    8.8107    3.5806   24.7669 H   0  0  0  0  0  0  0  0  0  0  0  0
    6.3840    4.1113   23.9542 H   0  0  0  0  0  0  0  0  0  0  0  0
    6.5100    2.5900   23.0374 H   0  0  0  0  0  0  0  0  0  0  0  0
    8.3013    5.5305   22.7438 C   0  0  1  0  0  0  0  0  0  0  0  0
    9.7832    5.7588   22.4965 C   0  0  0  0  0  0  0  0  0  0  0  0
   10.0479    6.7367   22.9116 H   0  0  0  0  0  0  0  0  0  0  0  0
   10.0397    5.7866   21.4344 H   0  0  0  0  0  0  0  0  0  0  0  0
   10.3760    4.9860   22.9893 H   0  0  0  0  0  0  0  0  0  0  0  0
    7.4377    6.6232   22.1091 C   0  0  0  0  0  0  0  0  0  0  0  0
    6.0736    6.3031   22.2598 O   0  0  0  0  0  0  0  0  0  0  0  0
    7.6158    7.5735   22.6245 H   0  0  0  0  0  0  0  0  0  0  0  0
    7.6931    6.7604   21.0467 H   0  0  0  0  0  0  0  0  0  0  0  0
    8.1361    5.5734   23.8231 H   0  0  0  0  0  0  0  0  0  0  0  0
    8.5549    3.5294   21.9968 H   0  0  0  0  0  0  0  0  0  0  0  0
    7.4133    4.5020   20.3048 H   0  0  0  0  0  0  0  0  0  0  0  0
    6.3923    3.2512   20.9731 H   0  0  0  0  0  0  0  0  0  0  0  0
    4.8838    4.7347   21.9567 H   0  0  0  0  0  0  0  0  0  0  0  0
    4.7341    4.8809   19.5142 H   0  0  0  0  0  0  0  0  0  0  0  0
    4.4405    6.5026   20.1758 H   0  0  0  0  0  0  0  0  0  0  0  0
    6.0212    6.1123   19.4482 H   0  0  0  0  0  0  0  0  0  0  0  0
  1  2  1  0
  2  3  1  0
  3  4  1  0
  4  5  1  0
  5  6  1  0
  6  7  1  0
  7  8  1  0
  9  8  1  1
  9 10  1  0
 10 11  2  0
 10 12  1  0
 12 13  1  0
 13 14  2  0
 14 15  1  0
 15 16  2  0
 16 17  1  0
 17 18  2  0
 18 19  1  0
 19 20  2  0
 20 21  1  0
 21 22  2  0
 21 23  1  0
 20 24  1  0
 19 25  1  0
 18 26  1  0
 16 27  1  0
 14 28  1  0
 12 29  1  0
 29 30  1  0
 30 31  1  0
 31 32  1  0
 31 33  1  0
 31 34  1  0
 30 35  1  6
 29 36  1  0
 29 37  1  0
  9 38  1  0
 38 39  2  0
 39 40  1  0
 40 41  1  0
 40 42  2  0
 42 43  1  0
 43 44  2  0
 44 45  1  0
 45 46  2  0
 43 47  1  0
 42 48  1  0
 39 49  1  0
  8 50  1  0
  8 51  1  0
  6 52  1  0
  6 53  1  0
  5 54  1  0
  5 55  1  0
  4 56  1  0
 56 57  1  0
 57 58  1  0
 57 59  1  0
 57 60  1  0
 56 61  1  0
 61 62  1  0
 61 63  1  0
 61 64  1  0
 56 65  1  1
  4 66  1  6
  3 67  1  0
  3 68  1  0
  2 69  1  1
  1 70  1  0
  1 71  1  0
  1 72  1  0
 62  2  1  0
 45  7  1  0
 30  9  1  0
 44 38  1  0
 22 13  1  0
 22 17  1  0
M  CHG  1   4   1
M  END
>  <cnnaffinities>  (16) 
[6.80309]

>  <score>  (16) 
6.80309

>  <index>  (16) 
15

>  <Smiles>  (16) 
C([C@]1(C([N@+](C(C(N2C([C@@]3(C(=O)N(c4c(nc(c5c(c(c(c(c45)[H])[H])[H])[H])[H])[H])C([C@@]3(C([H])([H])[H])[H])([H])[H])c3c(c(Cl)c(c(c3C2=O)[H])[H])[H])([H])[H])([H])[H])([H])[H])([C@@](C([H])([H])[H])(C(O1)([H])[H])[H])[H])([H])[H])[H])([H])([H])[H]

>  <h>  (16) 
<NA>

>  <Training>  (16) 
True

>  <Success>  (16) 
True

>  <enamine_searched>  (16) 
False

>  <enamine_id>  (16) 
nan

$$$$

     RDKit          3D

 47 50  0  0  0  0  0  0  0  0999 V2000
    7.1253   -4.7468   25.2883 C   0  0  0  0  0  0  0  0  0  0  0  0
    6.6083   -3.3792   24.8581 C   0  0  1  0  0  0  0  0  0  0  0  0
    7.6749   -2.2832   24.9344 C   0  0  0  0  0  0  0  0  0  0  0  0
    7.3650   -1.2917   23.7999 C   0  0  2  0  0  0  0  0  0  0  0  0
    6.6570   -0.0449   24.2965 C   0  0  0  0  0  0  0  0  0  0  0  0
    7.3497    1.1611   24.3873 C   0  0  0  0  0  0  0  0  0  0  0  0
    6.7192    2.3097   24.8530 C   0  0  0  0  0  0  0  0  0  0  0  0
    5.3870    2.2595   25.2523 C   0  0  0  0  0  0  0  0  0  0  0  0
    4.6990    1.0504   25.1978 C   0  0  0  0  0  0  0  0  0  0  0  0
    5.3320   -0.0924   24.7288 C   0  0  0  0  0  0  0  0  0  0  0  0
    4.7802   -1.0271   24.6985 H   0  0  0  0  0  0  0  0  0  0  0  0
    3.6608    0.9978   25.5104 H   0  0  0  0  0  0  0  0  0  0  0  0
    4.8876    3.1562   25.6021 H   0  0  0  0  0  0  0  0  0  0  0  0
    7.2679    3.2444   24.8885 H   0  0  0  0  0  0  0  0  0  0  0  0
    8.3927    1.2007   24.0806 H   0  0  0  0  0  0  0  0  0  0  0  0
    6.5642   -2.0654   22.8608 N   0  0  0  0  0  0  0  0  0  0  0  0
    6.2340   -1.7224   21.5776 C   0  0  0  0  0  0  0  0  0  0  0  0
    5.4448   -2.4047   20.9374 O   0  0  0  0  0  0  0  0  0  0  0  0
    6.9114   -0.4917   20.9246 C   0  0  0  0  0  0  0  0  0  0  0  0
    6.1131    0.0839   19.7752 C   0  0  0  0  0  0  0  0  0  0  0  0
    6.4201   -0.2153   18.4725 C   0  0  0  0  0  0  0  0  0  0  0  0
    5.7538    0.2401   17.3760 N   0  0  0  0  0  0  0  0  0  0  0  0
    4.7346    1.0337   17.5796 C   0  0  0  0  0  0  0  0  0  0  0  0
    4.2832    1.4220   18.8713 C   0  0  0  0  0  0  0  0  0  0  0  0
    3.1604    2.2683   19.0506 C   0  0  0  0  0  0  0  0  0  0  0  0
    2.7495    2.6276   20.3011 C   0  0  0  0  0  0  0  0  0  0  0  0
    3.4469    2.1371   21.4319 C   0  0  0  0  0  0  0  0  0  0  0  0
    4.5337    1.3116   21.2947 C   0  0  0  0  0  0  0  0  0  0  0  0
    4.9889    0.9352   20.0039 C   0  0  0  0  0  0  0  0  0  0  0  0
    5.0482    0.9468   22.1845 H   0  0  0  0  0  0  0  0  0  0  0  0
    3.1121    2.4257   22.4213 H   0  0  0  0  0  0  0  0  0  0  0  0
    1.8951    3.2860   20.4380 H   0  0  0  0  0  0  0  0  0  0  0  0
    2.6408    2.6369   18.1669 H   0  0  0  0  0  0  0  0  0  0  0  0
    4.2016    1.4000   16.6968 H   0  0  0  0  0  0  0  0  0  0  0  0
    7.2638   -0.8654   18.2430 H   0  0  0  0  0  0  0  0  0  0  0  0
    7.8735   -0.8360   20.5203 H   0  0  0  0  0  0  0  0  0  0  0  0
    7.1526    0.2911   21.6549 H   0  0  0  0  0  0  0  0  0  0  0  0
    6.1063   -3.3375   23.4108 C   0  0  0  0  0  0  0  0  0  0  0  0
    6.5189   -4.1591   22.8207 H   0  0  0  0  0  0  0  0  0  0  0  0
    5.0186   -3.4438   23.3460 H   0  0  0  0  0  0  0  0  0  0  0  0
    8.2978   -0.9925   23.3155 H   0  0  0  0  0  0  0  0  0  0  0  0
    8.6694   -2.7183   24.8035 H   0  0  0  0  0  0  0  0  0  0  0  0
    7.6906   -1.7957   25.9102 H   0  0  0  0  0  0  0  0  0  0  0  0
    5.7863   -3.1126   25.5289 H   0  0  0  0  0  0  0  0  0  0  0  0
    7.4986   -4.7443   26.3177 H   0  0  0  0  0  0  0  0  0  0  0  0
    7.9591   -5.0576   24.6527 H   0  0  0  0  0  0  0  0  0  0  0  0
    6.3557   -5.5210   25.2203 H   0  0  0  0  0  0  0  0  0  0  0  0
  1  2  1  0
  2  3  1  0
  3  4  1  0
  4  5  1  0
  5  6  2  0
  6  7  1  0
  7  8  2  0
  8  9  1  0
  9 10  2  0
 10 11  1  0
  9 12  1  0
  8 13  1  0
  7 14  1  0
  6 15  1  0
  4 16  1  0
 16 17  1  0
 17 18  2  0
 17 19  1  0
 19 20  1  0
 20 21  2  0
 21 22  1  0
 22 23  2  0
 23 24  1  0
 24 25  2  0
 25 26  1  0
 26 27  2  0
 27 28  1  0
 28 29  2  0
 28 30  1  0
 27 31  1  0
 26 32  1  0
 25 33  1  0
 23 34  1  0
 21 35  1  0
 19 36  1  0
 19 37  1  0
 16 38  1  0
 38 39  1  0
 38 40  1  0
  4 41  1  6
  3 42  1  0
  3 43  1  0
  2 44  1  1
  1 45  1  0
  1 46  1  0
  1 47  1  0
 38  2  1  0
 10  5  1  0
 29 20  1  0
 29 24  1  0
M  END
>  <cnnaffinities>  (17) 
[5.59379]

>  <score>  (17) 
5.59379

>  <index>  (17) 
16

>  <Smiles>  (17) 
C([C@]1(C([C@](c2c(c(c(c(c2[H])[H])[H])[H])[H])(N(C(=O)C(c2c(nc(c3c(c(c(c(c23)[H])[H])[H])[H])[H])[H])([H])[H])C1([H])[H])[H])([H])[H])[H])([H])([H])[H]

>  <h>  (17) 
<NA>

>  <Training>  (17) 
True

>  <Success>  (17) 
True

>  <enamine_searched>  (17) 
False

>  <enamine_id>  (17) 
nan

$$$$

     RDKit          3D

 58 63  0  0  0  0  0  0  0  0999 V2000
    7.1677   -2.3650   23.5435 C   0  0  0  0  0  0  0  0  0  0  0  0
    7.9926   -1.8473   22.3598 C   0  0  1  0  0  0  0  0  0  0  0  0
    7.1495   -1.7390   21.0773 C   0  0  0  0  0  0  0  0  0  0  0  0
    6.9118   -0.3248   20.9109 N   0  0  0  0  0  0  0  0  0  0  0  0
    6.1404    0.1363   19.8150 C   0  0  0  0  0  0  0  0  0  0  0  0
    6.4527   -0.2197   18.5248 C   0  0  0  0  0  0  0  0  0  0  0  0
    5.7848    0.2147   17.4300 N   0  0  0  0  0  0  0  0  0  0  0  0
    4.7588    1.0065   17.6208 C   0  0  0  0  0  0  0  0  0  0  0  0
    4.2911    1.3998   18.9064 C   0  0  0  0  0  0  0  0  0  0  0  0
    3.1539    2.2321   19.0683 C   0  0  0  0  0  0  0  0  0  0  0  0
    2.7281    2.5881   20.3157 C   0  0  0  0  0  0  0  0  0  0  0  0
    3.3975    2.1092   21.4637 C   0  0  0  0  0  0  0  0  0  0  0  0
    4.4969    1.2945   21.3359 C   0  0  0  0  0  0  0  0  0  0  0  0
    4.9843    0.9430   20.0481 C   0  0  0  0  0  0  0  0  0  0  0  0
    4.9978    0.8987   22.2151 H   0  0  0  0  0  0  0  0  0  0  0  0
    3.0490    2.4033   22.4493 H   0  0  0  0  0  0  0  0  0  0  0  0
    1.8704    3.2447   20.4294 H   0  0  0  0  0  0  0  0  0  0  0  0
    2.6449    2.5831   18.1751 H   0  0  0  0  0  0  0  0  0  0  0  0
    4.2369    1.3712   16.7365 H   0  0  0  0  0  0  0  0  0  0  0  0
    7.3021   -0.8716   18.3189 H   0  0  0  0  0  0  0  0  0  0  0  0
    7.8432    0.4632   21.5636 C   0  0  0  0  0  0  0  0  0  0  0  0
    7.9753    1.6546   21.3931 O   0  0  0  0  0  0  0  0  0  0  0  0
    8.6610   -0.4433   22.5272 C   0  0  1  0  0  0  0  0  0  0  0  0
    8.5616    0.1004   23.9666 C   0  0  0  0  0  0  0  0  0  0  0  0
    9.2441    1.3743   24.1102 N   0  0  0  0  0  0  0  0  0  0  0  0
    8.5790    2.4137   24.8610 C   0  0  0  0  0  0  0  0  0  0  0  0
    7.4570    3.0917   24.1361 C   0  0  0  0  0  0  0  0  0  0  0  0
    6.1876    2.8754   24.3837 N   0  0  0  0  0  0  0  0  0  0  0  0
    5.4625    3.7294   23.5917 N   0  0  0  0  0  0  0  0  0  0  0  0
    6.3167    4.4262   22.8975 C   0  0  0  0  0  0  0  0  0  0  0  0
    7.6018    4.0829   23.2158 N   0  0  0  0  0  0  0  0  0  0  0  0
    8.8606    4.6519   22.7558 C   0  0  0  0  0  0  0  0  0  0  0  0
    9.5102    4.8551   23.6143 H   0  0  0  0  0  0  0  0  0  0  0  0
    8.6593    5.5953   22.2460 H   0  0  0  0  0  0  0  0  0  0  0  0
    9.3697    3.9741   22.0637 H   0  0  0  0  0  0  0  0  0  0  0  0
    6.0533    5.1718   22.1573 H   0  0  0  0  0  0  0  0  0  0  0  0
    9.3451    3.1239   25.1835 H   0  0  0  0  0  0  0  0  0  0  0  0
    8.0997    1.9606   25.7225 H   0  0  0  0  0  0  0  0  0  0  0  0
   10.5010    1.5980   23.6332 C   0  0  0  0  0  0  0  0  0  0  0  0
   11.1895    2.5505   24.0006 O   0  0  0  0  0  0  0  0  0  0  0  0
   10.9976    0.5784   22.6637 C   0  0  0  0  0  0  0  0  0  0  0  0
   12.3511    0.6058   22.3286 C   0  0  0  0  0  0  0  0  0  0  0  0
   12.9186   -0.3893   21.5474 C   0  0  0  0  0  0  0  0  0  0  0  0
   12.0745   -1.4118   21.1121 C   0  0  0  0  0  0  0  0  0  0  0  0
   12.5629   -2.4229   20.3733 F   0  0  0  0  0  0  0  0  0  0  0  0
   10.7218   -1.4259   21.3890 C   0  0  0  0  0  0  0  0  0  0  0  0
   10.1486   -0.4329   22.1850 C   0  0  0  0  0  0  0  0  0  0  0  0
   10.1284   -2.2016   20.9159 H   0  0  0  0  0  0  0  0  0  0  0  0
   13.9710   -0.3829   21.2737 H   0  0  0  0  0  0  0  0  0  0  0  0
   12.9354    1.4456   22.6921 H   0  0  0  0  0  0  0  0  0  0  0  0
    8.9998   -0.6403   24.6487 H   0  0  0  0  0  0  0  0  0  0  0  0
    7.5205    0.2612   24.2516 H   0  0  0  0  0  0  0  0  0  0  0  0
    6.1958   -2.2719   21.1521 H   0  0  0  0  0  0  0  0  0  0  0  0
    7.6909   -2.1335   20.2119 H   0  0  0  0  0  0  0  0  0  0  0  0
    8.7707   -2.5991   22.2281 H   0  0  0  0  0  0  0  0  0  0  0  0
    7.7832   -2.4617   24.4441 H   0  0  0  0  0  0  0  0  0  0  0  0
    6.3189   -1.7120   23.7699 H   0  0  0  0  0  0  0  0  0  0  0  0
    6.7783   -3.3627   23.3110 H   0  0  0  0  0  0  0  0  0  0  0  0
  1  2  1  0
  2  3  1  0
  3  4  1  0
  4  5  1  0
  5  6  2  0
  6  7  1  0
  7  8  2  0
  8  9  1  0
  9 10  2  0
 10 11  1  0
 11 12  2  0
 12 13  1  0
 13 14  2  0
 13 15  1  0
 12 16  1  0
 11 17  1  0
 10 18  1  0
  8 19  1  0
  6 20  1  0
  4 21  1  0
 21 22  2  0
 21 23  1  0
 23 24  1  1
 24 25  1  0
 25 26  1  0
 26 27  1  0
 27 28  2  0
 28 29  1  0
 29 30  2  0
 30 31  1  0
 31 32  1  0
 32 33  1  0
 32 34  1  0
 32 35  1  0
 30 36  1  0
 26 37  1  0
 26 38  1  0
 25 39  1  0
 39 40  2  0
 39 41  1  0
 41 42  2  0
 42 43  1  0
 43 44  2  0
 44 45  1  0
 44 46  1  0
 46 47  2  0
 46 48  1  0
 43 49  1  0
 42 50  1  0
 24 51  1  0
 24 52  1  0
  3 53  1  0
  3 54  1  0
  2 55  1  6
  1 56  1  0
  1 57  1  0
  1 58  1  0
 23  2  1  0
 31 27  1  0
 47 41  1  0
 14  5  1  0
 47 23  1  0
 14  9  1  0
M  END
>  <cnnaffinities>  (18) 
[6.49864, 5.89896]

>  <score>  (18) 
6.49864

>  <index>  (18) 
17

>  <Smiles>  (18) 
C([C@]1(C(N(c2c(nc(c3c(c(c(c(c23)[H])[H])[H])[H])[H])[H])C(=O)[C@]21C(N(C(c1nnc(n1C([H])([H])[H])[H])([H])[H])C(=O)c1c(c(c(F)c(c21)[H])[H])[H])([H])[H])([H])[H])[H])([H])([H])[H]

>  <h>  (18) 
<NA>

>  <Training>  (18) 
True

>  <Success>  (18) 
True

>  <enamine_searched>  (18) 
False

>  <enamine_id>  (18) 
nan

$$$$

     RDKit          3D

 50 53  0  0  0  0  0  0  0  0999 V2000
    3.9010   -1.8263   29.3972 C   0  0  0  0  0  0  0  0  0  0  0  0
    3.9694   -2.1646   27.9152 C   0  0  1  0  0  0  0  0  0  0  0  0
    4.0174   -0.9054   27.0491 C   0  0  0  0  0  0  0  0  0  0  0  0
    4.1271   -1.2249   25.5559 C   0  0  0  0  0  0  0  0  0  0  0  0
    5.2873   -2.1855   25.1959 C   0  0  2  0  0  0  0  0  0  0  0  0
    6.6536   -1.4724   25.2926 C   0  0  0  0  0  0  0  0  0  0  0  0
    6.9252   -0.8662   23.9100 C   0  0  0  0  0  0  0  0  0  0  0  0
    6.0984   -1.6409   22.9923 N   0  0  0  0  0  0  0  0  0  0  0  0
    6.1460   -1.6292   21.6268 C   0  0  0  0  0  0  0  0  0  0  0  0
    5.5833   -2.4857   20.9630 O   0  0  0  0  0  0  0  0  0  0  0  0
    6.9093   -0.4856   20.9200 C   0  0  0  0  0  0  0  0  0  0  0  0
    6.1154    0.0918   19.7691 C   0  0  0  0  0  0  0  0  0  0  0  0
    6.4211   -0.2140   18.4664 C   0  0  0  0  0  0  0  0  0  0  0  0
    5.7549    0.2392   17.3722 N   0  0  0  0  0  0  0  0  0  0  0  0
    4.7338    1.0340   17.5766 C   0  0  0  0  0  0  0  0  0  0  0  0
    4.2845    1.4235   18.8700 C   0  0  0  0  0  0  0  0  0  0  0  0
    3.1587    2.2691   19.0468 C   0  0  0  0  0  0  0  0  0  0  0  0
    2.7473    2.6255   20.3027 C   0  0  0  0  0  0  0  0  0  0  0  0
    3.4405    2.1409   21.4332 C   0  0  0  0  0  0  0  0  0  0  0  0
    4.5322    1.3193   21.2886 C   0  0  0  0  0  0  0  0  0  0  0  0
    4.9894    0.9410   19.9969 C   0  0  0  0  0  0  0  0  0  0  0  0
    5.0483    0.9558   22.1724 H   0  0  0  0  0  0  0  0  0  0  0  0
    3.1057    2.4252   22.4249 H   0  0  0  0  0  0  0  0  0  0  0  0
    1.8907    3.2796   20.4362 H   0  0  0  0  0  0  0  0  0  0  0  0
    2.6371    2.6373   18.1670 H   0  0  0  0  0  0  0  0  0  0  0  0
    4.1991    1.4005   16.6985 H   0  0  0  0  0  0  0  0  0  0  0  0
    7.2656   -0.8671   18.2472 H   0  0  0  0  0  0  0  0  0  0  0  0
    7.8356   -0.9158   20.5175 H   0  0  0  0  0  0  0  0  0  0  0  0
    7.2119    0.3112   21.6096 H   0  0  0  0  0  0  0  0  0  0  0  0
    5.2338   -2.5813   23.7014 C   0  0  0  0  0  0  0  0  0  0  0  0
    5.5697   -3.6133   23.5497 H   0  0  0  0  0  0  0  0  0  0  0  0
    4.2165   -2.5396   23.3111 H   0  0  0  0  0  0  0  0  0  0  0  0
    7.9832   -0.9508   23.6510 H   0  0  0  0  0  0  0  0  0  0  0  0
    6.6511    0.1944   23.8878 H   0  0  0  0  0  0  0  0  0  0  0  0
    6.6772   -0.7044   26.0701 H   0  0  0  0  0  0  0  0  0  0  0  0
    7.4349   -2.1936   25.5541 H   0  0  0  0  0  0  0  0  0  0  0  0
    5.2164   -3.4243   26.1118 C   0  0  0  0  0  0  0  0  0  0  0  0
    5.1542   -3.0770   27.5990 C   0  0  0  0  0  0  0  0  0  0  0  0
    5.0914   -3.9942   28.1992 H   0  0  0  0  0  0  0  0  0  0  0  0
    6.0866   -2.5832   27.9017 H   0  0  0  0  0  0  0  0  0  0  0  0
    4.3270   -4.0140   25.8506 H   0  0  0  0  0  0  0  0  0  0  0  0
    6.0768   -4.0774   25.9184 H   0  0  0  0  0  0  0  0  0  0  0  0
    3.1813   -1.6859   25.2436 H   0  0  0  0  0  0  0  0  0  0  0  0
    4.2226   -0.2977   24.9774 H   0  0  0  0  0  0  0  0  0  0  0  0
    3.1213   -0.2973   27.2313 H   0  0  0  0  0  0  0  0  0  0  0  0
    4.8640   -0.2822   27.3636 H   0  0  0  0  0  0  0  0  0  0  0  0
    3.0563   -2.7116   27.6474 H   0  0  0  0  0  0  0  0  0  0  0  0
    3.0367   -1.1950   29.6233 H   0  0  0  0  0  0  0  0  0  0  0  0
    3.8335   -2.7309   30.0091 H   0  0  0  0  0  0  0  0  0  0  0  0
    4.7999   -1.2838   29.7065 H   0  0  0  0  0  0  0  0  0  0  0  0
  1  2  1  0
  2  3  1  0
  3  4  1  0
  5  4  1  1
  5  6  1  0
  6  7  1  0
  7  8  1  0
  8  9  1  0
  9 10  2  0
  9 11  1  0
 11 12  1  0
 12 13  2  0
 13 14  1  0
 14 15  2  0
 15 16  1  0
 16 17  2  0
 17 18  1  0
 18 19  2  0
 19 20  1  0
 20 21  2  0
 20 22  1  0
 19 23  1  0
 18 24  1  0
 17 25  1  0
 15 26  1  0
 13 27  1  0
 11 28  1  0
 11 29  1  0
  8 30  1  0
 30 31  1  0
 30 32  1  0
  7 33  1  0
  7 34  1  0
  6 35  1  0
  6 36  1  0
  5 37  1  0
 37 38  1  0
 38 39  1  0
 38 40  1  0
 37 41  1  0
 37 42  1  0
  4 43  1  0
  4 44  1  0
  3 45  1  0
  3 46  1  0
  2 47  1  6
  1 48  1  0
  1 49  1  0
  1 50  1  0
 38  2  1  0
 30  5  1  0
 21 12  1  0
 21 16  1  0
M  END
>  <cnnaffinities>  (19) 
[5.42449]

>  <score>  (19) 
5.42449

>  <index>  (19) 
18

>  <Smiles>  (19) 
C([C@]1(C(C([C@@]2(C(C(N(C(=O)C(c3c(nc(c4c(c(c(c(c34)[H])[H])[H])[H])[H])[H])([H])[H])C2([H])[H])([H])[H])([H])[H])C(C1([H])[H])([H])[H])([H])[H])([H])[H])[H])([H])([H])[H]

>  <h>  (19) 
<NA>

>  <Training>  (19) 
True

>  <Success>  (19) 
True

>  <enamine_searched>  (19) 
False

>  <enamine_id>  (19) 
nan

$$$$

     RDKit          3D

 67 71  0  0  0  0  0  0  0  0999 V2000
    3.6061   -5.2756   21.8694 O   0  0  0  0  0  0  0  0  0  0  0  0
    4.1761   -5.8482   22.7898 C   0  0  0  0  0  0  0  0  0  0  0  0
    5.6906   -5.6976   22.8738 C   0  0  0  0  0  0  0  0  0  0  0  0
    5.9138   -4.2227   22.7827 N   0  0  1  0  0  4  0  0  0  0  0  0
    5.1947   -3.5943   23.9514 C   0  0  0  0  0  0  0  0  0  0  0  0
    5.5269   -2.1564   24.2442 C   0  0  0  0  0  0  0  0  0  0  0  0
    4.7266   -1.4480   25.1444 C   0  0  0  0  0  0  0  0  0  0  0  0
    5.0704   -0.1670   25.5511 C   0  0  0  0  0  0  0  0  0  0  0  0
    6.2398    0.4004   25.0501 C   0  0  0  0  0  0  0  0  0  0  0  0
    6.6962    2.0067   25.5547 Cl  0  0  0  0  0  0  0  0  0  0  0  0
    7.0238   -0.2756   24.1256 C   0  0  0  0  0  0  0  0  0  0  0  0
    6.6453   -1.5489   23.6899 C   0  0  0  0  0  0  0  0  0  0  0  0
    7.3483   -2.2401   22.5407 C   0  0  2  0  0  0  0  0  0  0  0  0
    6.6245   -1.8629   21.2379 C   0  0  0  0  0  0  0  0  0  0  0  0
    5.9229   -2.6519   20.6220 O   0  0  0  0  0  0  0  0  0  0  0  0
    6.8040   -0.5590   20.8381 N   0  0  0  0  0  0  0  0  0  0  0  0
    6.0845    0.0186   19.7643 C   0  0  0  0  0  0  0  0  0  0  0  0
    6.4282   -0.2635   18.4698 C   0  0  0  0  0  0  0  0  0  0  0  0
    5.7869    0.2347   17.3848 N   0  0  0  0  0  0  0  0  0  0  0  0
    4.7657    1.0286   17.5932 C   0  0  0  0  0  0  0  0  0  0  0  0
    4.3055    1.4093   18.8872 C   0  0  0  0  0  0  0  0  0  0  0  0
    3.1763    2.2470   19.0658 C   0  0  0  0  0  0  0  0  0  0  0  0
    2.7677    2.5977   20.3228 C   0  0  0  0  0  0  0  0  0  0  0  0
    3.4577    2.1135   21.4553 C   0  0  0  0  0  0  0  0  0  0  0  0
    4.5427    1.2850   21.3127 C   0  0  0  0  0  0  0  0  0  0  0  0
    4.9924    0.9127   20.0143 C   0  0  0  0  0  0  0  0  0  0  0  0
    5.0417    0.8957   22.1965 H   0  0  0  0  0  0  0  0  0  0  0  0
    3.1194    2.4006   22.4463 H   0  0  0  0  0  0  0  0  0  0  0  0
    1.9118    3.2506   20.4546 H   0  0  0  0  0  0  0  0  0  0  0  0
    2.6533    2.5987   18.1830 H   0  0  0  0  0  0  0  0  0  0  0  0
    4.2412    1.4100   16.7172 H   0  0  0  0  0  0  0  0  0  0  0  0
    7.2726   -0.9227   18.2821 H   0  0  0  0  0  0  0  0  0  0  0  0
    7.1887    0.0907   21.5118 H   0  0  0  0  0  0  0  0  0  0  0  0
    7.3294   -3.7631   22.6967 C   0  0  0  0  0  0  0  0  0  0  0  0
    7.8193   -4.2217   21.8357 H   0  0  0  0  0  0  0  0  0  0  0  0
    7.8812   -4.0707   23.5915 H   0  0  0  0  0  0  0  0  0  0  0  0
    8.3798   -1.8734   22.4818 H   0  0  0  0  0  0  0  0  0  0  0  0
    7.9308    0.1922   23.7543 H   0  0  0  0  0  0  0  0  0  0  0  0
    4.4587    0.3811   26.2613 H   0  0  0  0  0  0  0  0  0  0  0  0
    3.8249   -1.9075   25.5458 H   0  0  0  0  0  0  0  0  0  0  0  0
    5.4117   -4.1960   24.8424 H   0  0  0  0  0  0  0  0  0  0  0  0
    4.1201   -3.6701   23.7746 H   0  0  0  0  0  0  0  0  0  0  0  0
    5.4477   -3.9143   21.8961 H   0  0  0  0  0  0  0  0  0  0  0  0
    6.1032   -6.0967   23.8103 H   0  0  0  0  0  0  0  0  0  0  0  0
    6.1361   -6.2110   22.0150 H   0  0  0  0  0  0  0  0  0  0  0  0
    3.5184   -6.4748   23.7931 N   0  0  0  0  0  0  0  0  0  0  0  0
    2.0793   -6.7006   23.7023 C   0  0  0  0  0  0  0  0  0  0  0  0
    1.2868   -5.3830   23.6208 C   0  0  0  0  0  0  0  0  0  0  0  0
   -0.2073   -5.5771   23.5811 C   0  0  0  0  0  0  0  0  0  0  0  0
   -0.9383   -5.6154   24.7691 C   0  0  0  0  0  0  0  0  0  0  0  0
   -2.3119   -5.8329   24.7574 C   0  0  0  0  0  0  0  0  0  0  0  0
   -2.9836   -6.0157   23.5526 C   0  0  0  0  0  0  0  0  0  0  0  0
   -4.4634   -6.2482   23.5369 C   0  0  0  0  0  0  0  0  0  0  0  0
   -5.0830   -5.3348   22.7339 F   0  0  0  0  0  0  0  0  0  0  0  0
   -4.7399   -7.4775   23.0120 F   0  0  0  0  0  0  0  0  0  0  0  0
   -4.9134   -6.1908   24.5358 H   0  0  0  0  0  0  0  0  0  0  0  0
   -2.2632   -5.9787   22.3590 C   0  0  0  0  0  0  0  0  0  0  0  0
   -0.8898   -5.7567   22.3737 C   0  0  0  0  0  0  0  0  0  0  0  0
   -0.3512   -5.7070   21.4269 H   0  0  0  0  0  0  0  0  0  0  0  0
   -2.7831   -6.1062   21.4138 H   0  0  0  0  0  0  0  0  0  0  0  0
   -2.8596   -5.8409   25.6989 H   0  0  0  0  0  0  0  0  0  0  0  0
   -0.4229   -5.4620   25.7157 H   0  0  0  0  0  0  0  0  0  0  0  0
    1.5557   -4.7466   24.4758 H   0  0  0  0  0  0  0  0  0  0  0  0
    1.6292   -4.8702   22.7206 H   0  0  0  0  0  0  0  0  0  0  0  0
    1.7666   -7.2939   24.5645 H   0  0  0  0  0  0  0  0  0  0  0  0
    1.8463   -7.2962   22.8091 H   0  0  0  0  0  0  0  0  0  0  0  0
    4.0319   -6.7894   24.6005 H   0  0  0  0  0  0  0  0  0  0  0  0
  1  2  2  0
  2  3  1  0
  3  4  1  0
  4  5  1  0
  5  6  1  0
  6  7  2  0
  7  8  1  0
  8  9  2  0
  9 10  1  0
  9 11  1  0
 11 12  2  0
 12 13  1  0
 13 14  1  0
 14 15  2  0
 14 16  1  0
 16 17  1  0
 17 18  2  0
 18 19  1  0
 19 20  2  0
 20 21  1  0
 21 22  2  0
 22 23  1  0
 23 24  2  0
 24 25  1  0
 25 26  2  0
 25 27  1  0
 24 28  1  0
 23 29  1  0
 22 30  1  0
 20 31  1  0
 18 32  1  0
 16 33  1  0
 13 34  1  0
 34 35  1  0
 34 36  1  0
 13 37  1  6
 11 38  1  0
  8 39  1  0
  7 40  1  0
  5 41  1  0
  5 42  1  0
  4 43  1  6
  3 44  1  0
  3 45  1  0
  2 46  1  0
 46 47  1  0
 47 48  1  0
 48 49  1  0
 49 50  2  0
 50 51  1  0
 51 52  2  0
 52 53  1  0
 53 54  1  0
 53 55  1  0
 53 56  1  0
 52 57  1  0
 57 58  2  0
 58 59  1  0
 57 60  1  0
 51 61  1  0
 50 62  1  0
 48 63  1  0
 48 64  1  0
 47 65  1  0
 47 66  1  0
 46 67  1  0
 34  4  1  0
 58 49  1  0
 12  6  1  0
 26 17  1  0
 26 21  1  0
M  CHG  1   4   1
M  END
>  <cnnaffinities>  (20) 
[5.64236, 6.18052]

>  <score>  (20) 
5.64236

>  <index>  (20) 
19

>  <Smiles>  (20) 
O=C(C([N@+]1(C(c2c(c(c(Cl)c(c2[C@](C(=O)N(c2c(nc(c3c(c(c(c(c23)[H])[H])[H])[H])[H])[H])[H])(C1([H])[H])[H])[H])[H])[H])([H])[H])[H])([H])[H])N(C(C(c1c(c(c(C(F)(F)[H])c(c1[H])[H])[H])[H])([H])[H])([H])[H])[H]

>  <h>  (20) 
<NA>

>  <Training>  (20) 
True

>  <Success>  (20) 
True

>  <enamine_searched>  (20) 
False

>  <enamine_id>  (20) 
nan

$$$$

     RDKit          3D

 66 70  0  0  0  0  0  0  0  0999 V2000
    4.2643    6.1530   20.5665 C   0  0  0  0  0  0  0  0  0  0  0  0
    5.3343    5.0603   20.7642 C   0  0  0  0  0  0  0  0  0  0  0  0
    6.6943    5.7430   20.6529 C   0  0  0  0  0  0  0  0  0  0  0  0
    7.0134    6.3639   19.6555 O   0  0  0  0  0  0  0  0  0  0  0  0
    7.4772    5.8537   21.8116 N   0  0  0  0  0  0  0  0  0  0  0  0
    8.0707    7.1832   22.0029 C   0  0  0  0  0  0  0  0  0  0  0  0
    8.0495    7.5323   23.4812 C   0  0  0  0  0  0  0  0  0  0  0  0
    8.8924    6.5067   24.2353 C   0  0  0  0  0  0  0  0  0  0  0  0
    8.5419    5.0787   23.8417 C   0  0  0  0  0  0  0  0  0  0  0  0
    8.9066    4.0168   24.6669 C   0  0  0  0  0  0  0  0  0  0  0  0
    8.6635    2.6921   24.3343 C   0  0  0  0  0  0  0  0  0  0  0  0
    8.0537    2.4017   23.1139 C   0  0  0  0  0  0  0  0  0  0  0  0
    7.7753    1.0441   22.7722 N   0  0  0  0  0  0  0  0  0  0  0  0
    7.8652    0.6770   21.4217 C   0  0  0  0  0  0  0  0  0  0  0  0
    8.6468    1.2374   20.6805 O   0  0  0  0  0  0  0  0  0  0  0  0
    6.9397   -0.4289   20.9169 C   0  0  0  0  0  0  0  0  0  0  0  0
    6.1031    0.0861   19.7731 C   0  0  0  0  0  0  0  0  0  0  0  0
    6.4282   -0.2042   18.4737 C   0  0  0  0  0  0  0  0  0  0  0  0
    5.7691    0.2511   17.3805 N   0  0  0  0  0  0  0  0  0  0  0  0
    4.7419    1.0385   17.5840 C   0  0  0  0  0  0  0  0  0  0  0  0
    4.2824    1.4271   18.8734 C   0  0  0  0  0  0  0  0  0  0  0  0
    3.1505    2.2615   19.0549 C   0  0  0  0  0  0  0  0  0  0  0  0
    2.7478    2.6250   20.3104 C   0  0  0  0  0  0  0  0  0  0  0  0
    3.4548    2.1653   21.4419 C   0  0  0  0  0  0  0  0  0  0  0  0
    4.5548    1.3555   21.2926 C   0  0  0  0  0  0  0  0  0  0  0  0
    4.9935    0.9524   20.0022 C   0  0  0  0  0  0  0  0  0  0  0  0
    5.0896    1.0082   22.1735 H   0  0  0  0  0  0  0  0  0  0  0  0
    3.1347    2.4596   22.4372 H   0  0  0  0  0  0  0  0  0  0  0  0
    1.8983    3.2871   20.4355 H   0  0  0  0  0  0  0  0  0  0  0  0
    2.6346    2.6133   18.1683 H   0  0  0  0  0  0  0  0  0  0  0  0
    4.2112    1.3966   16.7002 H   0  0  0  0  0  0  0  0  0  0  0  0
    7.2714   -0.8560   18.2469 H   0  0  0  0  0  0  0  0  0  0  0  0
    6.3387   -0.8194   21.7426 H   0  0  0  0  0  0  0  0  0  0  0  0
    7.5865   -1.2364   20.5586 H   0  0  0  0  0  0  0  0  0  0  0  0
    7.5321    0.1052   23.7696 N   0  0  0  0  0  0  0  0  0  0  0  0
    6.3810    0.3016   24.6239 C   0  0  0  0  0  0  0  0  0  0  0  0
    6.6521    0.0083   25.6466 H   0  0  0  0  0  0  0  0  0  0  0  0
    5.5039   -0.2883   24.3057 H   0  0  0  0  0  0  0  0  0  0  0  0
    6.1248    1.3669   24.6052 H   0  0  0  0  0  0  0  0  0  0  0  0
    8.3110   -1.0570   23.8685 C   0  0  0  0  0  0  0  0  0  0  0  0
    9.6666   -1.0555   23.5049 C   0  0  0  0  0  0  0  0  0  0  0  0
   10.4215   -2.2163   23.6130 C   0  0  0  0  0  0  0  0  0  0  0  0
    9.8533   -3.3989   24.0756 C   0  0  0  0  0  0  0  0  0  0  0  0
    8.5141   -3.3955   24.4261 C   0  0  0  0  0  0  0  0  0  0  0  0
    7.7878   -4.8782   24.9928 Cl  0  0  0  0  0  0  0  0  0  0  0  0
    7.7374   -2.2458   24.3483 C   0  0  0  0  0  0  0  0  0  0  0  0
    6.6971   -2.3001   24.6550 H   0  0  0  0  0  0  0  0  0  0  0  0
   10.4332   -4.3073   24.1756 H   0  0  0  0  0  0  0  0  0  0  0  0
   11.4721   -2.2062   23.3260 H   0  0  0  0  0  0  0  0  0  0  0  0
   10.1299   -0.1421   23.1444 H   0  0  0  0  0  0  0  0  0  0  0  0
    7.6714    3.4408   22.2623 C   0  0  0  0  0  0  0  0  0  0  0  0
    7.8736    4.7815   22.6384 C   0  0  0  0  0  0  0  0  0  0  0  0
    7.2280    3.2084   21.2969 H   0  0  0  0  0  0  0  0  0  0  0  0
    8.9180    1.8879   25.0157 H   0  0  0  0  0  0  0  0  0  0  0  0
    9.3832    4.2547   25.6151 H   0  0  0  0  0  0  0  0  0  0  0  0
    8.7768    6.6299   25.3198 H   0  0  0  0  0  0  0  0  0  0  0  0
    9.9593    6.6953   24.0255 H   0  0  0  0  0  0  0  0  0  0  0  0
    8.4330    8.5474   23.6321 H   0  0  0  0  0  0  0  0  0  0  0  0
    7.0108    7.5155   23.8361 H   0  0  0  0  0  0  0  0  0  0  0  0
    9.0888    7.2152   21.5840 H   0  0  0  0  0  0  0  0  0  0  0  0
    7.4541    7.8708   21.4173 H   0  0  0  0  0  0  0  0  0  0  0  0
    5.1961    4.2741   20.0070 H   0  0  0  0  0  0  0  0  0  0  0  0
    5.2563    4.5720   21.7434 H   0  0  0  0  0  0  0  0  0  0  0  0
    4.3546    6.9526   21.3126 H   0  0  0  0  0  0  0  0  0  0  0  0
    4.3780    6.6154   19.5807 H   0  0  0  0  0  0  0  0  0  0  0  0
    3.2595    5.7294   20.6343 H   0  0  0  0  0  0  0  0  0  0  0  0
  1  2  1  0
  2  3  1  0
  3  4  2  0
  3  5  1  0
  5  6  1  0
  6  7  1  0
  7  8  1  0
  8  9  1  0
  9 10  2  0
 10 11  1  0
 11 12  2  0
 12 13  1  0
 13 14  1  0
 14 15  2  0
 14 16  1  0
 16 17  1  0
 17 18  2  0
 18 19  1  0
 19 20  2  0
 20 21  1  0
 21 22  2  0
 22 23  1  0
 23 24  2  0
 24 25  1  0
 25 26  2  0
 25 27  1  0
 24 28  1  0
 23 29  1  0
 22 30  1  0
 20 31  1  0
 18 32  1  0
 16 33  1  0
 16 34  1  0
 13 35  1  0
 35 36  1  0
 36 37  1  0
 36 38  1  0
 36 39  1  0
 35 40  1  0
 40 41  2  0
 41 42  1  0
 42 43  2  0
 43 44  1  0
 44 45  1  0
 44 46  2  0
 46 47  1  0
 43 48  1  0
 42 49  1  0
 41 50  1  0
 12 51  1  0
 51 52  2  0
 51 53  1  0
 11 54  1  0
 10 55  1  0
  8 56  1  0
  8 57  1  0
  7 58  1  0
  7 59  1  0
  6 60  1  0
  6 61  1  0
  2 62  1  0
  2 63  1  0
  1 64  1  0
  1 65  1  0
  1 66  1  0
 52  5  1  0
 52  9  1  0
 26 17  1  0
 46 40  1  0
 26 21  1  0
M  END
>  <cnnaffinities>  (21) 
[7.24732]

>  <score>  (21) 
7.24732

>  <index>  (21) 
20

>  <Smiles>  (21) 
C(C(C(=O)N1C(C(C(c2c(c(c(N(C(=O)C(c3c(nc(c4c(c(c(c(c34)[H])[H])[H])[H])[H])[H])([H])[H])N(C([H])([H])[H])c3c(c(c(c(Cl)c3[H])[H])[H])[H])c(c12)[H])[H])[H])([H])[H])([H])[H])([H])[H])([H])[H])([H])([H])[H]

>  <h>  (21) 
<NA>

>  <Training>  (21) 
True

>  <Success>  (21) 
True

>  <enamine_searched>  (21) 
False

>  <enamine_id>  (21) 
nan

$$$$

     RDKit          3D

 59 64  0  0  0  0  0  0  0  0999 V2000
    7.0893   -2.3903   23.5140 C   0  0  0  0  0  0  0  0  0  0  0  0
    7.9684   -1.8328   22.3907 C   0  0  1  0  0  0  0  0  0  0  0  0
    7.2211   -1.7328   21.0492 C   0  0  0  0  0  0  0  0  0  0  0  0
    6.8984   -0.3303   20.9167 N   0  0  0  0  0  0  0  0  0  0  0  0
    6.1314    0.1287   19.8198 C   0  0  0  0  0  0  0  0  0  0  0  0
    6.4471   -0.2262   18.5304 C   0  0  0  0  0  0  0  0  0  0  0  0
    5.7845    0.2096   17.4328 N   0  0  0  0  0  0  0  0  0  0  0  0
    4.7573    1.0017   17.6186 C   0  0  0  0  0  0  0  0  0  0  0  0
    4.2856    1.3945   18.9036 C   0  0  0  0  0  0  0  0  0  0  0  0
    3.1478    2.2279   19.0643 C   0  0  0  0  0  0  0  0  0  0  0  0
    2.7241    2.5916   20.3108 C   0  0  0  0  0  0  0  0  0  0  0  0
    3.4022    2.1248   21.4591 C   0  0  0  0  0  0  0  0  0  0  0  0
    4.4903    1.2984   21.3329 C   0  0  0  0  0  0  0  0  0  0  0  0
    4.9756    0.9383   20.0463 C   0  0  0  0  0  0  0  0  0  0  0  0
    4.9934    0.9027   22.2114 H   0  0  0  0  0  0  0  0  0  0  0  0
    3.0724    2.4382   22.4456 H   0  0  0  0  0  0  0  0  0  0  0  0
    1.8641    3.2454   20.4207 H   0  0  0  0  0  0  0  0  0  0  0  0
    2.6400    2.5782   18.1695 H   0  0  0  0  0  0  0  0  0  0  0  0
    4.2404    1.3684   16.7319 H   0  0  0  0  0  0  0  0  0  0  0  0
    7.2971   -0.8781   18.3298 H   0  0  0  0  0  0  0  0  0  0  0  0
    7.7725    0.4810   21.6219 C   0  0  0  0  0  0  0  0  0  0  0  0
    7.8806    1.6754   21.4650 O   0  0  0  0  0  0  0  0  0  0  0  0
    8.5669   -0.4106   22.6179 C   0  0  1  0  0  0  0  0  0  0  0  0
    8.3932    0.0770   24.0765 C   0  0  0  0  0  0  0  0  0  0  0  0
    9.0092    1.3687   24.3123 N   0  0  0  0  0  0  0  0  0  0  0  0
    8.2428    2.3862   25.0147 C   0  0  0  0  0  0  0  0  0  0  0  0
    7.4014    3.2707   24.1296 C   0  0  0  0  0  0  0  0  0  0  0  0
    6.0014    3.2631   23.9446 C   0  0  0  0  0  0  0  0  0  0  0  0
    5.6029    4.2055   23.0997 N   0  0  0  0  0  0  0  0  0  0  0  0
    6.7316    4.8222   22.7287 N   0  0  0  0  0  0  0  0  0  0  0  0
    6.6926    5.8946   21.7620 C   0  0  0  0  0  0  0  0  0  0  0  0
    7.5996    5.8580   21.1532 H   0  0  0  0  0  0  0  0  0  0  0  0
    6.6240    6.8713   22.2532 H   0  0  0  0  0  0  0  0  0  0  0  0
    5.8157    5.7327   21.1309 H   0  0  0  0  0  0  0  0  0  0  0  0
    7.8287    4.3092   23.3313 C   0  0  0  0  0  0  0  0  0  0  0  0
    8.8153    4.7246   23.1349 H   0  0  0  0  0  0  0  0  0  0  0  0
    5.2523    2.5973   24.3625 H   0  0  0  0  0  0  0  0  0  0  0  0
    7.5893    1.8804   25.7298 H   0  0  0  0  0  0  0  0  0  0  0  0
    8.9610    2.9912   25.5738 H   0  0  0  0  0  0  0  0  0  0  0  0
   10.1938    1.7448   23.7479 C   0  0  0  0  0  0  0  0  0  0  0  0
   10.7369    2.8111   24.0139 O   0  0  0  0  0  0  0  0  0  0  0  0
   10.8090    0.7441   22.8292 C   0  0  0  0  0  0  0  0  0  0  0  0
   12.1685    0.8792   22.5263 C   0  0  0  0  0  0  0  0  0  0  0  0
   12.8266   -0.0906   21.7936 C   0  0  0  0  0  0  0  0  0  0  0  0
   12.0776   -1.1700   21.3261 C   0  0  0  0  0  0  0  0  0  0  0  0
   12.6814   -2.1437   20.6187 F   0  0  0  0  0  0  0  0  0  0  0  0
   10.7216   -1.2749   21.5446 C   0  0  0  0  0  0  0  0  0  0  0  0
   10.0620   -0.3297   22.3281 C   0  0  0  0  0  0  0  0  0  0  0  0
   10.1938   -2.0833   21.0460 H   0  0  0  0  0  0  0  0  0  0  0  0
   13.8840   -0.0173   21.5569 H   0  0  0  0  0  0  0  0  0  0  0  0
   12.6822    1.7544   22.9031 H   0  0  0  0  0  0  0  0  0  0  0  0
    8.8369   -0.6758   24.7419 H   0  0  0  0  0  0  0  0  0  0  0  0
    7.3356    0.1695   24.3211 H   0  0  0  0  0  0  0  0  0  0  0  0
    7.8695   -2.0525   20.2247 H   0  0  0  0  0  0  0  0  0  0  0  0
    6.3050   -2.3298   21.0222 H   0  0  0  0  0  0  0  0  0  0  0  0
    8.7888   -2.5469   22.3095 H   0  0  0  0  0  0  0  0  0  0  0  0
    6.7644   -3.4019   23.2551 H   0  0  0  0  0  0  0  0  0  0  0  0
    7.6536   -2.4690   24.4479 H   0  0  0  0  0  0  0  0  0  0  0  0
    6.1989   -1.7816   23.6990 H   0  0  0  0  0  0  0  0  0  0  0  0
  1  2  1  0
  2  3  1  0
  3  4  1  0
  4  5  1  0
  5  6  2  0
  6  7  1  0
  7  8  2  0
  8  9  1  0
  9 10  2  0
 10 11  1  0
 11 12  2  0
 12 13  1  0
 13 14  2  0
 13 15  1  0
 12 16  1  0
 11 17  1  0
 10 18  1  0
  8 19  1  0
  6 20  1  0
  4 21  1  0
 21 22  2  0
 21 23  1  0
 23 24  1  1
 24 25  1  0
 25 26  1  0
 26 27  1  0
 27 28  1  0
 28 29  2  0
 29 30  1  0
 30 31  1  0
 31 32  1  0
 31 33  1  0
 31 34  1  0
 30 35  1  0
 35 36  1  0
 28 37  1  0
 26 38  1  0
 26 39  1  0
 25 40  1  0
 40 41  2  0
 40 42  1  0
 42 43  2  0
 43 44  1  0
 44 45  2  0
 45 46  1  0
 45 47  1  0
 47 48  2  0
 47 49  1  0
 44 50  1  0
 43 51  1  0
 24 52  1  0
 24 53  1  0
  3 54  1  0
  3 55  1  0
  2 56  1  6
  1 57  1  0
  1 58  1  0
  1 59  1  0
 23  2  1  0
 35 27  2  0
 48 42  1  0
 14  5  1  0
 48 23  1  0
 14  9  1  0
M  END
>  <cnnaffinities>  (22) 
[6.55684, 6.74217]

>  <score>  (22) 
6.55684

>  <index>  (22) 
21

>  <Smiles>  (22) 
C([C@]1(C(N(c2c(nc(c3c(c(c(c(c23)[H])[H])[H])[H])[H])[H])C(=O)[C@]21C(N(C(c1c(nn(C([H])([H])[H])c1[H])[H])([H])[H])C(=O)c1c(c(c(F)c(c21)[H])[H])[H])([H])[H])([H])[H])[H])([H])([H])[H]

>  <h>  (22) 
<NA>

>  <Training>  (22) 
True

>  <Success>  (22) 
True

>  <enamine_searched>  (22) 
False

>  <enamine_id>  (22) 
nan

$$$$

     RDKit          3D

 41 44  0  0  0  0  0  0  0  0999 V2000
    7.9932    1.6211   20.3980 O   0  0  0  0  0  0  0  0  0  0  0  0
    7.7054    0.6996   21.1408 C   0  0  0  0  0  0  0  0  0  0  0  0
    6.7317   -0.4042   20.7138 C   0  0  0  0  0  0  0  0  0  0  0  0
    5.8400    0.0361   19.6014 C   0  0  0  0  0  0  0  0  0  0  0  0
    6.0960   -0.3097   18.3025 C   0  0  0  0  0  0  0  0  0  0  0  0
    5.4161    0.1516   17.2231 N   0  0  0  0  0  0  0  0  0  0  0  0
    4.4388    0.9942   17.4527 C   0  0  0  0  0  0  0  0  0  0  0  0
    4.0256    1.4001   18.7533 C   0  0  0  0  0  0  0  0  0  0  0  0
    2.9380    2.2883   18.9603 C   0  0  0  0  0  0  0  0  0  0  0  0
    2.5647    2.6430   20.2286 C   0  0  0  0  0  0  0  0  0  0  0  0
    3.2590    2.1239   21.3433 C   0  0  0  0  0  0  0  0  0  0  0  0
    4.3203    1.2742   21.1667 C   0  0  0  0  0  0  0  0  0  0  0  0
    4.7366    0.8956   19.8650 C   0  0  0  0  0  0  0  0  0  0  0  0
    4.8513    0.8897   22.0284 H   0  0  0  0  0  0  0  0  0  0  0  0
    2.9516    2.4050   22.3453 H   0  0  0  0  0  0  0  0  0  0  0  0
    1.7370    3.3287   20.3825 H   0  0  0  0  0  0  0  0  0  0  0  0
    2.4189    2.6835   18.0876 H   0  0  0  0  0  0  0  0  0  0  0  0
    3.9187    1.3950   16.5809 H   0  0  0  0  0  0  0  0  0  0  0  0
    6.9028   -1.0034   18.0704 H   0  0  0  0  0  0  0  0  0  0  0  0
    6.1455   -0.7261   21.5782 H   0  0  0  0  0  0  0  0  0  0  0  0
    7.3305   -1.2662   20.3922 H   0  0  0  0  0  0  0  0  0  0  0  0
    8.2375    0.5946   22.4183 N   0  0  0  0  0  0  0  0  0  0  0  0
    8.3576   -0.7026   23.0856 C   0  0  0  0  0  0  0  0  0  0  0  0
    9.5094   -1.5084   22.4661 C   0  0  0  0  0  0  0  0  0  0  0  0
   10.7721   -0.6894   22.3660 C   0  0  0  0  0  0  0  0  0  0  0  0
   12.0620   -1.2622   22.1837 C   0  0  0  0  0  0  0  0  0  0  0  0
   12.1004   -2.3827   20.7572 Cl  0  0  0  0  0  0  0  0  0  0  0  0
   13.2478    0.2196   21.8570 C   0  0  0  0  0  0  0  0  0  0  0  0
   13.0409    0.2346   22.1420 C   0  0  0  0  0  0  0  0  0  0  0  0
   11.9313    1.3865   22.1466 C   0  0  0  0  0  0  0  0  0  0  0  0
   10.7120    0.7384   22.3683 C   0  0  0  0  0  0  0  0  0  0  0  0
    9.3954    1.4396   22.7079 C   0  0  0  0  0  0  0  0  0  0  0  0
    9.3629    1.6601   23.7838 H   0  0  0  0  0  0  0  0  0  0  0  0
    9.2641    2.3825   22.1718 H   0  0  0  0  0  0  0  0  0  0  0  0
   12.2054    2.2655   22.7217 H   0  0  0  0  0  0  0  0  0  0  0  0
   14.1962   -0.0195   22.6278 H   0  0  0  0  0  0  0  0  0  0  0  0
   13.5617    0.1136   20.7487 H   0  0  0  0  0  0  0  0  0  0  0  0
    9.2117   -1.8426   21.4590 H   0  0  0  0  0  0  0  0  0  0  0  0
    9.6918   -2.4285   23.0330 H   0  0  0  0  0  0  0  0  0  0  0  0
    8.5555   -0.4958   24.1448 H   0  0  0  0  0  0  0  0  0  0  0  0
    7.4115   -1.2431   23.0572 H   0  0  0  0  0  0  0  0  0  0  0  0
  1  2  2  0
  2  3  1  0
  3  4  1  0
  4  5  2  0
  5  6  1  0
  6  7  2  0
  7  8  1  0
  8  9  2  0
  9 10  1  0
 10 11  2  0
 11 12  1  0
 12 13  2  0
 12 14  1  0
 11 15  1  0
 10 16  1  0
  9 17  1  0
  7 18  1  0
  5 19  1  0
  3 20  1  0
  3 21  1  0
  2 22  1  0
 22 23  1  0
 23 24  1  0
 24 25  1  0
 25 26  2  0
 26 27  1  0
 26 28  1  0
 28 29  2  0
 29 30  1  0
 30 31  2  0
 31 32  1  0
 32 33  1  0
 32 34  1  0
 30 35  1  0
 29 36  1  0
 28 37  1  0
 24 38  1  0
 24 39  1  0
 23 40  1  0
 23 41  1  0
 13  4  1  0
 32 22  1  0
 13  8  1  0
 31 25  1  0
M  END
>  <cnnaffinities>  (23) 
[5.8639]

>  <score>  (23) 
5.8639

>  <index>  (23) 
22

>  <Smiles>  (23) 
O=C(C(c1c(nc(c2c(c(c(c(c12)[H])[H])[H])[H])[H])[H])([H])[H])N1C(C(c2c(Cl)c(c(c(c2C1([H])[H])[H])[H])[H])([H])[H])([H])[H]

>  <h>  (23) 
<NA>

>  <Training>  (23) 
True

>  <Success>  (23) 
True

>  <enamine_searched>  (23) 
False

>  <enamine_id>  (23) 
nan

$$$$

     RDKit          3D

 69 74  0  0  0  0  0  0  0  0999 V2000
    4.5378    6.4632   20.2890 C   0  0  0  0  0  0  0  0  0  0  0  0
    5.1752    6.0635   21.6034 C   0  0  1  0  0  0  0  0  0  0  0  0
    6.1474    4.9068   21.4288 C   0  0  0  0  0  0  0  0  0  0  0  0
    6.8119    4.5441   22.7270 N   0  0  1  0  0  4  0  0  0  0  0  0
    7.7777    3.4258   22.5342 C   0  0  0  0  0  0  0  0  0  0  0  0
    8.2457    2.8029   23.8509 C   0  0  0  0  0  0  0  0  0  0  0  0
    8.9902    1.5884   23.6295 N   0  0  0  0  0  0  0  0  0  0  0  0
    8.3250    0.3055   23.6474 C   0  0  0  0  0  0  0  0  0  0  0  0
    8.6748   -0.5472   22.4070 C   0  0  2  0  0  0  0  0  0  0  0  0
    8.1565    0.1397   21.1225 C   0  0  0  0  0  0  0  0  0  0  0  0
    8.6961    1.0334   20.4949 O   0  0  0  0  0  0  0  0  0  0  0  0
    6.9401   -0.4152   20.8076 N   0  0  0  0  0  0  0  0  0  0  0  0
    6.1483    0.1072   19.7555 C   0  0  0  0  0  0  0  0  0  0  0  0
    6.4611   -0.2096   18.4551 C   0  0  0  0  0  0  0  0  0  0  0  0
    5.7675    0.2280   17.3817 N   0  0  0  0  0  0  0  0  0  0  0  0
    4.7432    1.0169   17.5986 C   0  0  0  0  0  0  0  0  0  0  0  0
    4.2981    1.4129   18.8935 C   0  0  0  0  0  0  0  0  0  0  0  0
    3.1730    2.2628   19.0735 C   0  0  0  0  0  0  0  0  0  0  0  0
    2.7790    2.6398   20.3306 C   0  0  0  0  0  0  0  0  0  0  0  0
    3.4768    2.1679   21.4637 C   0  0  0  0  0  0  0  0  0  0  0  0
    4.5775    1.3514   21.3125 C   0  0  0  0  0  0  0  0  0  0  0  0
    5.0175    0.9473   20.0189 C   0  0  0  0  0  0  0  0  0  0  0  0
    5.1077    1.0065   22.1932 H   0  0  0  0  0  0  0  0  0  0  0  0
    3.1514    2.4631   22.4574 H   0  0  0  0  0  0  0  0  0  0  0  0
    1.9371    3.3149   20.4566 H   0  0  0  0  0  0  0  0  0  0  0  0
    2.6497    2.6140   18.1903 H   0  0  0  0  0  0  0  0  0  0  0  0
    4.2080    1.3819   16.7228 H   0  0  0  0  0  0  0  0  0  0  0  0
    7.3092   -0.8579   18.2452 H   0  0  0  0  0  0  0  0  0  0  0  0
    6.5722   -1.5397   21.6516 C   0  0  0  0  0  0  0  0  0  0  0  0
    7.8889   -1.8899   22.3723 C   0  0  2  0  0  0  0  0  0  0  0  0
    7.6899   -2.5957   23.7124 C   0  0  0  0  0  0  0  0  0  0  0  0
    7.1974   -3.5646   23.5857 H   0  0  0  0  0  0  0  0  0  0  0  0
    7.0608   -1.9949   24.3776 H   0  0  0  0  0  0  0  0  0  0  0  0
    8.6385   -2.7726   24.2315 H   0  0  0  0  0  0  0  0  0  0  0  0
    8.4440   -2.5516   21.7023 H   0  0  0  0  0  0  0  0  0  0  0  0
    6.1839   -2.3634   21.0436 H   0  0  0  0  0  0  0  0  0  0  0  0
    5.7943   -1.2640   22.3783 H   0  0  0  0  0  0  0  0  0  0  0  0
   10.1779   -0.6299   22.3792 C   0  0  0  0  0  0  0  0  0  0  0  0
   10.8325   -1.6936   21.7625 C   0  0  0  0  0  0  0  0  0  0  0  0
   12.1835   -1.6015   21.5043 C   0  0  0  0  0  0  0  0  0  0  0  0
   12.8834   -2.8305   20.4943 Cl  0  0  0  0  0  0  0  0  0  0  0  0
   12.9421   -0.5184   21.9519 C   0  0  0  0  0  0  0  0  0  0  0  0
   12.3145    0.5041   22.6261 C   0  0  0  0  0  0  0  0  0  0  0  0
   10.9386    0.4725   22.7932 C   0  0  0  0  0  0  0  0  0  0  0  0
   10.3110    1.7115   23.3331 C   0  0  0  0  0  0  0  0  0  0  0  0
   10.9333    2.7551   23.4769 O   0  0  0  0  0  0  0  0  0  0  0  0
   12.8503    1.3671   23.0027 H   0  0  0  0  0  0  0  0  0  0  0  0
   14.0063   -0.4673   21.7738 H   0  0  0  0  0  0  0  0  0  0  0  0
   10.3059   -2.5775   21.4262 H   0  0  0  0  0  0  0  0  0  0  0  0
    8.6441   -0.2677   24.5300 H   0  0  0  0  0  0  0  0  0  0  0  0
    7.2468    0.4877   23.6908 H   0  0  0  0  0  0  0  0  0  0  0  0
    7.3853    2.5436   24.4749 H   0  0  0  0  0  0  0  0  0  0  0  0
    8.9143    3.4706   24.3943 H   0  0  0  0  0  0  0  0  0  0  0  0
    8.6406    3.7922   21.9645 H   0  0  0  0  0  0  0  0  0  0  0  0
    7.2898    2.6659   21.9165 H   0  0  0  0  0  0  0  0  0  0  0  0
    7.4301    5.7809   23.3339 C   0  0  0  0  0  0  0  0  0  0  0  0
    6.4082    6.9072   23.3969 C   0  0  0  0  0  0  0  0  0  0  0  0
    5.8469    7.1927   22.1349 O   0  0  0  0  0  0  0  0  0  0  0  0
    5.6133    6.6281   24.1084 H   0  0  0  0  0  0  0  0  0  0  0  0
    6.8736    7.8332   23.7468 H   0  0  0  0  0  0  0  0  0  0  0  0
    7.7942    5.5498   24.3355 H   0  0  0  0  0  0  0  0  0  0  0  0
    8.2767    6.0763   22.7069 H   0  0  0  0  0  0  0  0  0  0  0  0
    6.0742    4.1787   23.3629 H   0  0  0  0  0  0  0  0  0  0  0  0
    5.6262    4.0242   21.0475 H   0  0  0  0  0  0  0  0  0  0  0  0
    6.9284    5.1847   20.7128 H   0  0  0  0  0  0  0  0  0  0  0  0
    4.4116    5.7457   22.3312 H   0  0  0  0  0  0  0  0  0  0  0  0
    3.9918    5.6188   19.8565 H   0  0  0  0  0  0  0  0  0  0  0  0
    3.8420    7.2929   20.4232 H   0  0  0  0  0  0  0  0  0  0  0  0
    5.3054    6.7763   19.5750 H   0  0  0  0  0  0  0  0  0  0  0  0
  1  2  1  0
  2  3  1  0
  3  4  1  0
  4  5  1  0
  5  6  1  0
  6  7  1  0
  7  8  1  0
  9  8  1  1
  9 10  1  0
 10 11  2  0
 10 12  1  0
 12 13  1  0
 13 14  2  0
 14 15  1  0
 15 16  2  0
 16 17  1  0
 17 18  2  0
 18 19  1  0
 19 20  2  0
 20 21  1  0
 21 22  2  0
 21 23  1  0
 20 24  1  0
 19 25  1  0
 18 26  1  0
 16 27  1  0
 14 28  1  0
 12 29  1  0
 29 30  1  0
 30 31  1  0
 31 32  1  0
 31 33  1  0
 31 34  1  0
 30 35  1  6
 29 36  1  0
 29 37  1  0
  9 38  1  0
 38 39  2  0
 39 40  1  0
 40 41  1  0
 40 42  2  0
 42 43  1  0
 43 44  2  0
 44 45  1  0
 45 46  2  0
 43 47  1  0
 42 48  1  0
 39 49  1  0
  8 50  1  0
  8 51  1  0
  6 52  1  0
  6 53  1  0
  5 54  1  0
  5 55  1  0
  4 56  1  0
 56 57  1  0
 57 58  1  0
 57 59  1  0
 57 60  1  0
 56 61  1  0
 56 62  1  0
  4 63  1  1
  3 64  1  0
  3 65  1  0
  2 66  1  1
  1 67  1  0
  1 68  1  0
  1 69  1  0
 58  2  1  0
 45  7  1  0
 30  9  1  0
 44 38  1  0
 22 13  1  0
 22 17  1  0
M  CHG  1   4   1
M  END
>  <cnnaffinities>  (24) 
[6.74653, 6.77417]

>  <score>  (24) 
6.74653

>  <index>  (24) 
23

>  <Smiles>  (24) 
C([C@]1(C([N@@+](C(C(N2C([C@@]3(C(=O)N(c4c(nc(c5c(c(c(c(c45)[H])[H])[H])[H])[H])[H])C([C@@]3(C([H])([H])[H])[H])([H])[H])c3c(c(Cl)c(c(c3C2=O)[H])[H])[H])([H])[H])([H])[H])([H])[H])(C(C(O1)([H])[H])([H])[H])[H])([H])[H])[H])([H])([H])[H]

>  <h>  (24) 
<NA>

>  <Training>  (24) 
True

>  <Success>  (24) 
True

>  <enamine_searched>  (24) 
False

>  <enamine_id>  (24) 
nan

$$$$

     RDKit          3D

 70 75  0  0  0  0  0  0  0  0999 V2000
    6.5374    4.5710   21.3595 C   0  0  0  0  0  0  0  0  0  0  0  0
    6.8516    3.6116   22.4262 N   0  0  0  0  0  4  0  0  0  0  0  0
    7.9342    4.0462   23.3492 C   0  0  0  0  0  0  0  0  0  0  0  0
    8.1352    3.0315   24.4734 C   0  0  0  0  0  0  0  0  0  0  0  0
    8.7524    1.8056   23.9867 N   0  0  0  0  0  0  0  0  0  0  0  0
    7.9999    0.5656   23.9182 C   0  0  0  0  0  0  0  0  0  0  0  0
    8.3911   -0.2871   22.6829 C   0  0  2  0  0  0  0  0  0  0  0  0
    7.8154    0.4127   21.4329 C   0  0  0  0  0  0  0  0  0  0  0  0
    8.0028    1.5778   21.1005 O   0  0  0  0  0  0  0  0  0  0  0  0
    6.9368   -0.4234   20.8044 N   0  0  0  0  0  0  0  0  0  0  0  0
    6.1296    0.1022   19.7568 C   0  0  0  0  0  0  0  0  0  0  0  0
    6.4585   -0.1942   18.4632 C   0  0  0  0  0  0  0  0  0  0  0  0
    5.7710    0.2461   17.3852 N   0  0  0  0  0  0  0  0  0  0  0  0
    4.7423    1.0237   17.6096 C   0  0  0  0  0  0  0  0  0  0  0  0
    4.3054    1.4199   18.9065 C   0  0  0  0  0  0  0  0  0  0  0  0
    3.1798    2.2663   19.0880 C   0  0  0  0  0  0  0  0  0  0  0  0
    2.7955    2.6521   20.3400 C   0  0  0  0  0  0  0  0  0  0  0  0
    3.5010    2.1977   21.4728 C   0  0  0  0  0  0  0  0  0  0  0  0
    4.5872    1.3654   21.3279 C   0  0  0  0  0  0  0  0  0  0  0  0
    5.0233    0.9555   20.0321 C   0  0  0  0  0  0  0  0  0  0  0  0
    5.1003    1.0074   22.2177 H   0  0  0  0  0  0  0  0  0  0  0  0
    3.1767    2.5046   22.4622 H   0  0  0  0  0  0  0  0  0  0  0  0
    1.9368    3.3031   20.4668 H   0  0  0  0  0  0  0  0  0  0  0  0
    2.6449    2.5937   18.2007 H   0  0  0  0  0  0  0  0  0  0  0  0
    4.1922    1.3864   16.7398 H   0  0  0  0  0  0  0  0  0  0  0  0
    7.3248   -0.8220   18.2703 H   0  0  0  0  0  0  0  0  0  0  0  0
    6.5135   -1.5367   21.6378 C   0  0  0  0  0  0  0  0  0  0  0  0
    7.6553   -1.6678   22.6507 C   0  0  2  0  0  0  0  0  0  0  0  0
    7.1913   -2.2658   23.9757 C   0  0  0  0  0  0  0  0  0  0  0  0
    6.0887   -1.5496   24.5087 O   0  0  0  0  0  0  0  0  0  0  0  0
    5.7083   -1.9949   25.7974 C   0  0  0  0  0  0  0  0  0  0  0  0
    4.6076   -1.0921   26.3220 C   0  0  0  0  0  0  0  0  0  0  0  0
    3.2642   -1.2232   25.5941 C   0  0  0  0  0  0  0  0  0  0  0  0
    2.6145   -1.7442   26.7612 O   0  0  0  0  0  0  0  0  0  0  0  0
    3.8279   -1.6424   27.5207 C   0  0  0  0  0  0  0  0  0  0  0  0
    3.7226   -0.9559   28.3692 H   0  0  0  0  0  0  0  0  0  0  0  0
    4.1729   -2.6233   27.8772 H   0  0  0  0  0  0  0  0  0  0  0  0
    2.8178   -0.2786   25.2604 H   0  0  0  0  0  0  0  0  0  0  0  0
    3.2760   -1.9607   24.7818 H   0  0  0  0  0  0  0  0  0  0  0  0
    4.9613   -0.0646   26.4347 H   0  0  0  0  0  0  0  0  0  0  0  0
    6.5736   -1.9910   26.4805 H   0  0  0  0  0  0  0  0  0  0  0  0
    5.3396   -3.0323   25.7405 H   0  0  0  0  0  0  0  0  0  0  0  0
    8.0237   -2.2581   24.6941 H   0  0  0  0  0  0  0  0  0  0  0  0
    6.9140   -3.3174   23.8105 H   0  0  0  0  0  0  0  0  0  0  0  0
    8.3650   -2.3924   22.2480 H   0  0  0  0  0  0  0  0  0  0  0  0
    5.5574   -1.3266   22.1343 H   0  0  0  0  0  0  0  0  0  0  0  0
    6.3935   -2.4376   21.0322 H   0  0  0  0  0  0  0  0  0  0  0  0
    9.9119   -0.3666   22.5933 C   0  0  0  0  0  0  0  0  0  0  0  0
   10.5496   -1.3587   21.8366 C   0  0  0  0  0  0  0  0  0  0  0  0
   11.9249   -1.3595   21.7054 C   0  0  0  0  0  0  0  0  0  0  0  0
   12.6699   -2.5264   20.6535 Cl  0  0  0  0  0  0  0  0  0  0  0  0
   12.7240   -0.4229   22.3618 C   0  0  0  0  0  0  0  0  0  0  0  0
   12.1070    0.5584   23.1057 C   0  0  0  0  0  0  0  0  0  0  0  0
   10.7150    0.6241   23.1747 C   0  0  0  0  0  0  0  0  0  0  0  0
   10.1056    1.8277   23.8189 C   0  0  0  0  0  0  0  0  0  0  0  0
   10.7923    2.7914   24.1562 O   0  0  0  0  0  0  0  0  0  0  0  0
   12.6933    1.3123   23.6206 H   0  0  0  0  0  0  0  0  0  0  0  0
   13.8030   -0.4461   22.2550 H   0  0  0  0  0  0  0  0  0  0  0  0
    9.9924   -2.1355   21.3250 H   0  0  0  0  0  0  0  0  0  0  0  0
    8.1499   -0.0218   24.8311 H   0  0  0  0  0  0  0  0  0  0  0  0
    6.9364    0.7973   23.8501 H   0  0  0  0  0  0  0  0  0  0  0  0
    8.7886    3.4474   25.2434 H   0  0  0  0  0  0  0  0  0  0  0  0
    7.1783    2.7788   24.9419 H   0  0  0  0  0  0  0  0  0  0  0  0
    8.8723    4.1326   22.7893 H   0  0  0  0  0  0  0  0  0  0  0  0
    7.7054    5.0297   23.7794 H   0  0  0  0  0  0  0  0  0  0  0  0
    5.9841    3.4402   22.9714 H   0  0  0  0  0  0  0  0  0  0  0  0
    7.1372    2.7174   21.9727 H   0  0  0  0  0  0  0  0  0  0  0  0
    6.3817    5.5762   21.7658 H   0  0  0  0  0  0  0  0  0  0  0  0
    7.3643    4.6236   20.6472 H   0  0  0  0  0  0  0  0  0  0  0  0
    5.6341    4.2389   20.8396 H   0  0  0  0  0  0  0  0  0  0  0  0
  1  2  1  0
  2  3  1  0
  3  4  1  0
  4  5  1  0
  5  6  1  0
  7  6  1  1
  7  8  1  0
  8  9  2  0
  8 10  1  0
 10 11  1  0
 11 12  2  0
 12 13  1  0
 13 14  2  0
 14 15  1  0
 15 16  2  0
 16 17  1  0
 17 18  2  0
 18 19  1  0
 19 20  2  0
 19 21  1  0
 18 22  1  0
 17 23  1  0
 16 24  1  0
 14 25  1  0
 12 26  1  0
 10 27  1  0
 27 28  1  0
 28 29  1  0
 29 30  1  0
 30 31  1  0
 31 32  1  0
 32 33  1  0
 33 34  1  0
 34 35  1  0
 35 36  1  0
 35 37  1  0
 33 38  1  0
 33 39  1  0
 32 40  1  0
 31 41  1  0
 31 42  1  0
 29 43  1  0
 29 44  1  0
 28 45  1  6
 27 46  1  0
 27 47  1  0
  7 48  1  0
 48 49  2  0
 49 50  1  0
 50 51  1  0
 50 52  2  0
 52 53  1  0
 53 54  2  0
 54 55  1  0
 55 56  2  0
 53 57  1  0
 52 58  1  0
 49 59  1  0
  6 60  1  0
  6 61  1  0
  4 62  1  0
  4 63  1  0
  3 64  1  0
  3 65  1  0
  2 66  1  0
  2 67  1  0
  1 68  1  0
  1 69  1  0
  1 70  1  0
 55  5  1  0
 28  7  1  0
 35 32  1  0
 54 48  1  0
 20 11  1  0
 20 15  1  0
M  CHG  1   2   1
M  END
>  <cnnaffinities>  (25) 
[6.07964]

>  <score>  (25) 
6.07964

>  <index>  (25) 
24

>  <Smiles>  (25) 
C([N+](C(C(N1C([C@@]2(C(=O)N(c3c(nc(c4c(c(c(c(c34)[H])[H])[H])[H])[H])[H])C([C@@]2(C(OC(C2(C(OC2([H])[H])([H])[H])[H])([H])[H])([H])[H])[H])([H])[H])c2c(c(Cl)c(c(c2C1=O)[H])[H])[H])([H])[H])([H])[H])([H])[H])([H])[H])([H])([H])[H]

>  <h>  (25) 
<NA>

>  <Training>  (25) 
True

>  <Success>  (25) 
True

>  <enamine_searched>  (25) 
False

>  <enamine_id>  (25) 
nan

$$$$

     RDKit          3D

 68 73  0  0  0  0  0  0  0  0999 V2000
    6.4153    4.2797   21.4828 C   0  0  0  0  0  0  0  0  0  0  0  0
    7.3450    3.7140   22.4362 N   0  0  0  0  0  0  0  0  0  0  0  0
    6.9645    3.2097   23.6316 C   0  0  0  0  0  0  0  0  0  0  0  0
    5.8046    3.1531   24.0051 O   0  0  0  0  0  0  0  0  0  0  0  0
    8.1361    2.7281   24.4972 C   0  0  0  0  0  0  0  0  0  0  0  0
    8.8266    1.5904   23.9220 N   0  0  0  0  0  0  0  0  0  0  0  0
    8.0934    0.3383   23.8531 C   0  0  0  0  0  0  0  0  0  0  0  0
    8.5036   -0.4967   22.6153 C   0  0  2  0  0  0  0  0  0  0  0  0
    7.9984    0.2354   21.3478 C   0  0  0  0  0  0  0  0  0  0  0  0
    8.4668    1.2429   20.8510 O   0  0  0  0  0  0  0  0  0  0  0  0
    6.9057   -0.4372   20.8597 N   0  0  0  0  0  0  0  0  0  0  0  0
    6.1451    0.0975   19.7920 C   0  0  0  0  0  0  0  0  0  0  0  0
    6.5013   -0.1791   18.4979 C   0  0  0  0  0  0  0  0  0  0  0  0
    5.8129    0.2498   17.4166 N   0  0  0  0  0  0  0  0  0  0  0  0
    4.7514    0.9913   17.6252 C   0  0  0  0  0  0  0  0  0  0  0  0
    4.2826    1.3684   18.9185 C   0  0  0  0  0  0  0  0  0  0  0  0
    3.1363    2.1849   19.1085 C   0  0  0  0  0  0  0  0  0  0  0  0
    2.7558    2.5693   20.3666 C   0  0  0  0  0  0  0  0  0  0  0  0
    3.5016    2.1577   21.4936 C   0  0  0  0  0  0  0  0  0  0  0  0
    4.6024    1.3500   21.3400 C   0  0  0  0  0  0  0  0  0  0  0  0
    5.0114    0.9251   20.0451 C   0  0  0  0  0  0  0  0  0  0  0  0
    5.1849    1.0655   22.2120 H   0  0  0  0  0  0  0  0  0  0  0  0
    3.2283    2.4991   22.4862 H   0  0  0  0  0  0  0  0  0  0  0  0
    1.8844    3.2021   20.4980 H   0  0  0  0  0  0  0  0  0  0  0  0
    2.5854    2.5094   18.2317 H   0  0  0  0  0  0  0  0  0  0  0  0
    4.2057    1.3317   16.7456 H   0  0  0  0  0  0  0  0  0  0  0  0
    7.3841   -0.7855   18.3053 H   0  0  0  0  0  0  0  0  0  0  0  0
    6.4727   -1.5320   21.7012 C   0  0  0  0  0  0  0  0  0  0  0  0
    7.7280   -1.8477   22.5240 C   0  0  2  0  0  0  0  0  0  0  0  0
    7.3922   -2.5851   23.8115 C   0  0  0  0  0  0  0  0  0  0  0  0
    8.5468   -3.2755   24.3423 N   0  0  0  0  0  0  0  0  0  0  0  0
    8.4076   -3.7674   25.6435 C   0  0  0  0  0  0  0  0  0  0  0  0
    7.2568   -3.8129   26.4757 C   0  0  0  0  0  0  0  0  0  0  0  0
    7.5532   -4.2389   27.6973 N   0  0  0  0  0  0  0  0  0  0  0  0
    8.8601   -4.4981   27.6562 N   0  0  0  0  0  0  0  0  0  0  0  0
    9.5588   -4.8044   28.8726 C   0  0  0  0  0  0  0  0  0  0  0  0
    9.4926   -3.9641   29.5624 H   0  0  0  0  0  0  0  0  0  0  0  0
    9.1262   -5.6962   29.3227 H   0  0  0  0  0  0  0  0  0  0  0  0
   10.6099   -4.9781   28.6457 H   0  0  0  0  0  0  0  0  0  0  0  0
    9.4091   -4.2828   26.4349 C   0  0  0  0  0  0  0  0  0  0  0  0
   10.4366   -4.5727   26.2263 H   0  0  0  0  0  0  0  0  0  0  0  0
    6.2287   -3.5529   26.2413 H   0  0  0  0  0  0  0  0  0  0  0  0
    9.4298   -2.7842   24.2143 H   0  0  0  0  0  0  0  0  0  0  0  0
    6.6246   -3.3459   23.6345 H   0  0  0  0  0  0  0  0  0  0  0  0
    6.9463   -1.9033   24.5533 H   0  0  0  0  0  0  0  0  0  0  0  0
    8.3378   -2.5330   21.9338 H   0  0  0  0  0  0  0  0  0  0  0  0
    5.6360   -1.2360   22.3549 H   0  0  0  0  0  0  0  0  0  0  0  0
    6.1374   -2.3788   21.0920 H   0  0  0  0  0  0  0  0  0  0  0  0
   10.0180   -0.5680   22.5262 C   0  0  0  0  0  0  0  0  0  0  0  0
   10.6479   -1.5198   21.7106 C   0  0  0  0  0  0  0  0  0  0  0  0
   12.0046   -1.4260   21.4536 C   0  0  0  0  0  0  0  0  0  0  0  0
   12.7372   -2.5491   20.3402 Cl  0  0  0  0  0  0  0  0  0  0  0  0
   12.7872   -0.4163   22.0144 C   0  0  0  0  0  0  0  0  0  0  0  0
   12.1749    0.5306   22.8099 C   0  0  0  0  0  0  0  0  0  0  0  0
   10.7999    0.4751   23.0411 C   0  0  0  0  0  0  0  0  0  0  0  0
   10.1848    1.6384   23.7601 C   0  0  0  0  0  0  0  0  0  0  0  0
   10.8671    2.5861   24.1359 O   0  0  0  0  0  0  0  0  0  0  0  0
   12.7186    1.3664   23.2360 H   0  0  0  0  0  0  0  0  0  0  0  0
   13.8477   -0.3841   21.7906 H   0  0  0  0  0  0  0  0  0  0  0  0
   10.0979   -2.3078   21.2090 H   0  0  0  0  0  0  0  0  0  0  0  0
    8.2500   -0.2488   24.7691 H   0  0  0  0  0  0  0  0  0  0  0  0
    7.0299    0.5896   23.7918 H   0  0  0  0  0  0  0  0  0  0  0  0
    8.8820    3.5232   24.5847 H   0  0  0  0  0  0  0  0  0  0  0  0
    7.7405    2.4978   25.4895 H   0  0  0  0  0  0  0  0  0  0  0  0
    8.2885    3.5249   22.1183 H   0  0  0  0  0  0  0  0  0  0  0  0
    6.1502    3.5407   20.7122 H   0  0  0  0  0  0  0  0  0  0  0  0
    6.8683    5.1583   21.0116 H   0  0  0  0  0  0  0  0  0  0  0  0
    5.5025    4.5893   22.0051 H   0  0  0  0  0  0  0  0  0  0  0  0
  1  2  1  0
  2  3  1  0
  3  4  2  0
  3  5  1  0
  5  6  1  0
  6  7  1  0
  8  7  1  1
  8  9  1  0
  9 10  2  0
  9 11  1  0
 11 12  1  0
 12 13  2  0
 13 14  1  0
 14 15  2  0
 15 16  1  0
 16 17  2  0
 17 18  1  0
 18 19  2  0
 19 20  1  0
 20 21  2  0
 20 22  1  0
 19 23  1  0
 18 24  1  0
 17 25  1  0
 15 26  1  0
 13 27  1  0
 11 28  1  0
 28 29  1  0
 29 30  1  0
 30 31  1  0
 31 32  1  0
 32 33  1  0
 33 34  2  0
 34 35  1  0
 35 36  1  0
 36 37  1  0
 36 38  1  0
 36 39  1  0
 35 40  1  0
 40 41  1  0
 33 42  1  0
 31 43  1  0
 30 44  1  0
 30 45  1  0
 29 46  1  6
 28 47  1  0
 28 48  1  0
  8 49  1  0
 49 50  2  0
 50 51  1  0
 51 52  1  0
 51 53  2  0
 53 54  1  0
 54 55  2  0
 55 56  1  0
 56 57  2  0
 54 58  1  0
 53 59  1  0
 50 60  1  0
  7 61  1  0
  7 62  1  0
  5 63  1  0
  5 64  1  0
  2 65  1  0
  1 66  1  0
  1 67  1  0
  1 68  1  0
 56  6  1  0
 29  8  1  0
 40 32  2  0
 55 49  1  0
 21 12  1  0
 21 16  1  0
M  END
>  <cnnaffinities>  (26) 
[6.55252]

>  <score>  (26) 
6.55252

>  <index>  (26) 
25

>  <Smiles>  (26) 
C(N(C(=O)C(N1C([C@@]2(C(=O)N(c3c(nc(c4c(c(c(c(c34)[H])[H])[H])[H])[H])[H])C([C@@]2(C(N(c2c(nn(C([H])([H])[H])c2[H])[H])[H])([H])[H])[H])([H])[H])c2c(c(Cl)c(c(c2C1=O)[H])[H])[H])([H])[H])([H])[H])[H])([H])([H])[H]

>  <h>  (26) 
<NA>

>  <Training>  (26) 
True

>  <Success>  (26) 
True

>  <enamine_searched>  (26) 
False

>  <enamine_id>  (26) 
nan

$$$$

     RDKit          3D

 43 47  0  0  0  0  0  0  0  0999 V2000
    8.9729    0.4869   20.6036 O   0  0  0  0  0  0  0  0  0  0  0  0
    8.2750   -0.3968   21.0314 C   0  0  0  0  0  0  0  0  0  0  0  0
    8.6434   -1.4466   21.8287 N   0  0  0  0  0  0  0  0  0  0  0  0
    7.5286   -2.0978   22.4785 C   0  0  1  0  0  0  0  0  0  0  0  0
    7.5631   -3.6364   22.5476 C   0  0  0  0  0  0  0  0  0  0  0  0
    7.5958   -3.5923   24.1038 C   0  0  2  0  0  0  0  0  0  0  0  0
    6.4920   -4.3189   24.8359 C   0  0  0  0  0  0  0  0  0  0  0  0
    5.8181   -5.4003   24.2612 C   0  0  0  0  0  0  0  0  0  0  0  0
    4.7838   -6.0487   24.9233 C   0  0  0  0  0  0  0  0  0  0  0  0
    4.4036   -5.6358   26.1988 C   0  0  0  0  0  0  0  0  0  0  0  0
    5.0865   -4.5910   26.8146 C   0  0  0  0  0  0  0  0  0  0  0  0
    6.1293   -3.9662   26.1403 C   0  0  0  0  0  0  0  0  0  0  0  0
    7.0144   -2.7072   26.9718 Cl  0  0  0  0  0  0  0  0  0  0  0  0
    4.8293   -4.2527   27.8143 H   0  0  0  0  0  0  0  0  0  0  0  0
    3.5961   -6.1368   26.7263 H   0  0  0  0  0  0  0  0  0  0  0  0
    4.2782   -6.8770   24.4342 H   0  0  0  0  0  0  0  0  0  0  0  0
    6.1219   -5.7211   23.2676 H   0  0  0  0  0  0  0  0  0  0  0  0
    7.4738   -2.0369   24.0266 C   0  0  0  0  0  0  0  0  0  0  0  0
    8.3103   -1.4899   24.4777 H   0  0  0  0  0  0  0  0  0  0  0  0
    6.5327   -1.6315   24.4126 H   0  0  0  0  0  0  0  0  0  0  0  0
    8.5753   -3.8979   24.5059 H   0  0  0  0  0  0  0  0  0  0  0  0
    6.6638   -4.0701   22.1000 H   0  0  0  0  0  0  0  0  0  0  0  0
    8.4515   -4.0555   22.0695 H   0  0  0  0  0  0  0  0  0  0  0  0
    6.3439   -1.4978   21.7317 C   0  0  0  0  0  0  0  0  0  0  0  0
    5.1755   -1.7725   21.8837 O   0  0  0  0  0  0  0  0  0  0  0  0
    6.8696   -0.5466   20.8448 N   0  0  0  0  0  0  0  0  0  0  0  0
    6.1260    0.0569   19.7842 C   0  0  0  0  0  0  0  0  0  0  0  0
    6.4593   -0.2276   18.4818 C   0  0  0  0  0  0  0  0  0  0  0  0
    5.7817    0.2353   17.4057 N   0  0  0  0  0  0  0  0  0  0  0  0
    4.7569    1.0180   17.6183 C   0  0  0  0  0  0  0  0  0  0  0  0
    4.3088    1.4109   18.9065 C   0  0  0  0  0  0  0  0  0  0  0  0
    3.1822    2.2609   19.0701 C   0  0  0  0  0  0  0  0  0  0  0  0
    2.7795    2.6469   20.3158 C   0  0  0  0  0  0  0  0  0  0  0  0
    3.4907    2.1909   21.4493 C   0  0  0  0  0  0  0  0  0  0  0  0
    4.5783    1.3620   21.3177 C   0  0  0  0  0  0  0  0  0  0  0  0
    5.0151    0.9322   20.0334 C   0  0  0  0  0  0  0  0  0  0  0  0
    5.1049    1.0144   22.2009 H   0  0  0  0  0  0  0  0  0  0  0  0
    3.1683    2.4995   22.4369 H   0  0  0  0  0  0  0  0  0  0  0  0
    1.9267    3.3106   20.4388 H   0  0  0  0  0  0  0  0  0  0  0  0
    2.6637    2.6050   18.1794 H   0  0  0  0  0  0  0  0  0  0  0  0
    4.2279    1.3791   16.7382 H   0  0  0  0  0  0  0  0  0  0  0  0
    7.2996   -0.8782   18.2564 H   0  0  0  0  0  0  0  0  0  0  0  0
    9.6009   -1.5849   22.1094 H   0  0  0  0  0  0  0  0  0  0  0  0
  1  2  2  0
  2  3  1  0
  4  3  1  6
  4  5  1  0
  5  6  1  0
  6  7  1  0
  7  8  2  0
  8  9  1  0
  9 10  2  0
 10 11  1  0
 11 12  2  0
 12 13  1  0
 11 14  1  0
 10 15  1  0
  9 16  1  0
  8 17  1  0
  6 18  1  0
 18 19  1  0
 18 20  1  0
  6 21  1  1
  5 22  1  0
  5 23  1  0
  4 24  1  0
 24 25  2  0
 24 26  1  0
 26 27  1  0
 27 28  2  0
 28 29  1  0
 29 30  2  0
 30 31  1  0
 31 32  2  0
 32 33  1  0
 33 34  2  0
 34 35  1  0
 35 36  2  0
 35 37  1  0
 34 38  1  0
 33 39  1  0
 32 40  1  0
 30 41  1  0
 28 42  1  0
  3 43  1  0
 26  2  1  0
 36 27  1  0
 18  4  1  0
 36 31  1  0
 12  7  1  0
M  END
>  <cnnaffinities>  (27) 
[6.0707, 5.96657, 5.79934]

>  <score>  (27) 
6.0707

>  <index>  (27) 
26

>  <Smiles>  (27) 
O=C1N([C@]2(C([C@](c3c(c(c(c(c3Cl)[H])[H])[H])[H])(C2([H])[H])[H])([H])[H])C(=O)N1c1c(nc(c2c(c(c(c(c12)[H])[H])[H])[H])[H])[H])[H]

>  <h>  (27) 
<NA>

>  <Training>  (27) 
True

>  <Success>  (27) 
True

>  <enamine_searched>  (27) 
False

>  <enamine_id>  (27) 
nan

$$$$

     RDKit          3D

 46 48  0  0  0  0  0  0  0  0999 V2000
    7.6401    0.6559   24.4130 C   0  0  0  0  0  0  0  0  0  0  0  0
    7.8408   -0.8010   24.8003 C   0  0  0  0  0  0  0  0  0  0  0  0
    7.7533   -1.7562   23.6059 C   0  0  1  0  0  0  0  0  0  0  0  0
    8.2456   -3.1878   23.9092 C   0  0  0  0  0  0  0  0  0  0  0  0
    7.2361   -4.1511   24.5482 C   0  0  1  0  0  0  0  0  0  0  0  0
    7.2210   -4.1384   26.0740 C   0  0  0  0  0  0  0  0  0  0  0  0
    6.5794   -3.0745   26.6019 F   0  0  0  0  0  0  0  0  0  0  0  0
    8.4559   -4.1556   26.6069 F   0  0  0  0  0  0  0  0  0  0  0  0
    6.5833   -5.2270   26.5548 F   0  0  0  0  0  0  0  0  0  0  0  0
    5.8342   -3.9987   23.9564 C   0  0  0  0  0  0  0  0  0  0  0  0
    5.4226   -2.5417   23.7737 C   0  0  0  0  0  0  0  0  0  0  0  0
    6.4119   -1.7876   23.0044 N   0  0  0  0  0  0  0  0  0  0  0  0
    6.1760   -1.6258   21.6395 C   0  0  0  0  0  0  0  0  0  0  0  0
    5.3626   -2.3090   21.0452 O   0  0  0  0  0  0  0  0  0  0  0  0
    6.9243   -0.4889   20.9099 C   0  0  0  0  0  0  0  0  0  0  0  0
    6.1182    0.0910   19.7698 C   0  0  0  0  0  0  0  0  0  0  0  0
    6.4217   -0.2141   18.4663 C   0  0  0  0  0  0  0  0  0  0  0  0
    5.7551    0.2383   17.3730 N   0  0  0  0  0  0  0  0  0  0  0  0
    4.7338    1.0342   17.5774 C   0  0  0  0  0  0  0  0  0  0  0  0
    4.2847    1.4217   18.8702 C   0  0  0  0  0  0  0  0  0  0  0  0
    3.1607    2.2686   19.0472 C   0  0  0  0  0  0  0  0  0  0  0  0
    2.7481    2.6268   20.3033 C   0  0  0  0  0  0  0  0  0  0  0  0
    3.4402    2.1403   21.4335 C   0  0  0  0  0  0  0  0  0  0  0  0
    4.5309    1.3153   21.2880 C   0  0  0  0  0  0  0  0  0  0  0  0
    4.9898    0.9361   19.9988 C   0  0  0  0  0  0  0  0  0  0  0  0
    5.0428    0.9479   22.1719 H   0  0  0  0  0  0  0  0  0  0  0  0
    3.1053    2.4234   22.4251 H   0  0  0  0  0  0  0  0  0  0  0  0
    1.8926    3.2827   20.4364 H   0  0  0  0  0  0  0  0  0  0  0  0
    2.6395    2.6380   18.1673 H   0  0  0  0  0  0  0  0  0  0  0  0
    4.2001    1.4004   16.6982 H   0  0  0  0  0  0  0  0  0  0  0  0
    7.2645   -0.8669   18.2451 H   0  0  0  0  0  0  0  0  0  0  0  0
    7.2160    0.3034   21.6138 H   0  0  0  0  0  0  0  0  0  0  0  0
    7.8566   -0.9069   20.5085 H   0  0  0  0  0  0  0  0  0  0  0  0
    4.4640   -2.4892   23.2564 H   0  0  0  0  0  0  0  0  0  0  0  0
    5.2889   -2.0702   24.7504 H   0  0  0  0  0  0  0  0  0  0  0  0
    5.8239   -4.4624   22.9684 H   0  0  0  0  0  0  0  0  0  0  0  0
    5.0986   -4.5395   24.5648 H   0  0  0  0  0  0  0  0  0  0  0  0
    7.5829   -5.1703   24.3425 H   0  0  0  0  0  0  0  0  0  0  0  0
    8.5470   -3.6355   22.9569 H   0  0  0  0  0  0  0  0  0  0  0  0
    9.1574   -3.1452   24.5135 H   0  0  0  0  0  0  0  0  0  0  0  0
    8.4337   -1.3651   22.8433 H   0  0  0  0  0  0  0  0  0  0  0  0
    8.8331   -0.9080   25.2581 H   0  0  0  0  0  0  0  0  0  0  0  0
    7.1252   -1.0880   25.5705 H   0  0  0  0  0  0  0  0  0  0  0  0
    7.7428    1.3135   25.2787 H   0  0  0  0  0  0  0  0  0  0  0  0
    8.3789    0.9800   23.6714 H   0  0  0  0  0  0  0  0  0  0  0  0
    6.6430    0.8184   23.9941 H   0  0  0  0  0  0  0  0  0  0  0  0
  1  2  1  0
  2  3  1  0
  3  4  1  0
  4  5  1  0
  5  6  1  0
  6  7  1  0
  6  8  1  0
  6  9  1  0
  5 10  1  0
 10 11  1  0
 11 12  1  0
 12 13  1  0
 13 14  2  0
 13 15  1  0
 15 16  1  0
 16 17  2  0
 17 18  1  0
 18 19  2  0
 19 20  1  0
 20 21  2  0
 21 22  1  0
 22 23  2  0
 23 24  1  0
 24 25  2  0
 24 26  1  0
 23 27  1  0
 22 28  1  0
 21 29  1  0
 19 30  1  0
 17 31  1  0
 15 32  1  0
 15 33  1  0
 11 34  1  0
 11 35  1  0
 10 36  1  0
 10 37  1  0
  5 38  1  1
  4 39  1  0
  4 40  1  0
  3 41  1  6
  2 42  1  0
  2 43  1  0
  1 44  1  0
  1 45  1  0
  1 46  1  0
 12  3  1  0
 25 16  1  0
 25 20  1  0
M  END
>  <cnnaffinities>  (28) 
[5.50426]

>  <score>  (28) 
5.50426

>  <index>  (28) 
27

>  <Smiles>  (28) 
C(C([C@]1(C([C@@](C(F)(F)F)(C(C(N1C(=O)C(c1c(nc(c2c(c(c(c(c12)[H])[H])[H])[H])[H])[H])([H])[H])([H])[H])([H])[H])[H])([H])[H])[H])([H])[H])([H])([H])[H]

>  <h>  (28) 
<NA>

>  <Training>  (28) 
True

>  <Success>  (28) 
True

>  <enamine_searched>  (28) 
False

>  <enamine_id>  (28) 
nan

$$$$

     RDKit          3D

 70 75  0  0  0  0  0  0  0  0999 V2000
    6.5797    4.4461   21.3978 C   0  0  0  0  0  0  0  0  0  0  0  0
    6.9557    3.4462   22.3990 N   0  0  0  0  0  4  0  0  0  0  0  0
    7.9685    3.8903   23.3838 C   0  0  0  0  0  0  0  0  0  0  0  0
    8.1688    2.8373   24.4723 C   0  0  0  0  0  0  0  0  0  0  0  0
    8.7955    1.6360   23.9405 N   0  0  0  0  0  0  0  0  0  0  0  0
    8.0812    0.3773   23.8407 C   0  0  0  0  0  0  0  0  0  0  0  0
    8.4836   -0.4318   22.5762 C   0  0  2  0  0  0  0  0  0  0  0  0
    7.8818    0.3099   21.3673 C   0  0  0  0  0  0  0  0  0  0  0  0
    8.1214    1.4636   21.0217 O   0  0  0  0  0  0  0  0  0  0  0  0
    6.9068   -0.4644   20.8050 N   0  0  0  0  0  0  0  0  0  0  0  0
    6.1180    0.0805   19.7630 C   0  0  0  0  0  0  0  0  0  0  0  0
    6.4620   -0.1993   18.4682 C   0  0  0  0  0  0  0  0  0  0  0  0
    5.7779    0.2491   17.3936 N   0  0  0  0  0  0  0  0  0  0  0  0
    4.7429    1.0206   17.6203 C   0  0  0  0  0  0  0  0  0  0  0  0
    4.3048    1.4099   18.9179 C   0  0  0  0  0  0  0  0  0  0  0  0
    3.1818    2.2569   19.1008 C   0  0  0  0  0  0  0  0  0  0  0  0
    2.8023    2.6513   20.3545 C   0  0  0  0  0  0  0  0  0  0  0  0
    3.5195    2.2066   21.4853 C   0  0  0  0  0  0  0  0  0  0  0  0
    4.6054    1.3715   21.3373 C   0  0  0  0  0  0  0  0  0  0  0  0
    5.0228    0.9457   20.0418 C   0  0  0  0  0  0  0  0  0  0  0  0
    5.1304    1.0144   22.2198 H   0  0  0  0  0  0  0  0  0  0  0  0
    3.2065    2.5275   22.4744 H   0  0  0  0  0  0  0  0  0  0  0  0
    1.9475    3.3073   20.4825 H   0  0  0  0  0  0  0  0  0  0  0  0
    2.6455    2.5816   18.2152 H   0  0  0  0  0  0  0  0  0  0  0  0
    4.1929    1.3832   16.7517 H   0  0  0  0  0  0  0  0  0  0  0  0
    7.3346   -0.8183   18.2723 H   0  0  0  0  0  0  0  0  0  0  0  0
    6.4938   -1.5671   21.6554 C   0  0  0  0  0  0  0  0  0  0  0  0
    7.7479   -1.8052   22.5089 C   0  0  2  0  0  0  0  0  0  0  0  0
    7.4487   -2.4338   23.8621 C   0  0  0  0  0  0  0  0  0  0  0  0
    6.8323   -3.6915   23.6749 O   0  0  0  0  0  0  0  0  0  0  0  0
    6.4755   -4.2775   24.9067 C   0  0  0  0  0  0  0  0  0  0  0  0
    5.7682   -5.5914   24.6467 C   0  0  0  0  0  0  0  0  0  0  0  0
    5.4071   -6.1158   25.8717 F   0  0  0  0  0  0  0  0  0  0  0  0
    4.6459   -5.6834   23.6196 C   0  0  0  0  0  0  0  0  0  0  0  0
    5.3993   -6.6081   22.8241 O   0  0  0  0  0  0  0  0  0  0  0  0
    6.5000   -6.5658   23.7395 C   0  0  0  0  0  0  0  0  0  0  0  0
    6.7407   -7.5365   24.1820 H   0  0  0  0  0  0  0  0  0  0  0  0
    7.3769   -6.1154   23.2781 H   0  0  0  0  0  0  0  0  0  0  0  0
    4.4142   -4.7648   23.0750 H   0  0  0  0  0  0  0  0  0  0  0  0
    3.7347   -6.1365   24.0235 H   0  0  0  0  0  0  0  0  0  0  0  0
    7.3698   -4.4823   25.5174 H   0  0  0  0  0  0  0  0  0  0  0  0
    5.8244   -3.6070   25.4842 H   0  0  0  0  0  0  0  0  0  0  0  0
    8.3845   -2.5371   24.4375 H   0  0  0  0  0  0  0  0  0  0  0  0
    6.7695   -1.7802   24.4348 H   0  0  0  0  0  0  0  0  0  0  0  0
    8.3673   -2.5060   21.9499 H   0  0  0  0  0  0  0  0  0  0  0  0
    6.2188   -2.4377   21.0577 H   0  0  0  0  0  0  0  0  0  0  0  0
    5.6226   -1.3049   22.2746 H   0  0  0  0  0  0  0  0  0  0  0  0
    9.9992   -0.4880   22.4830 C   0  0  0  0  0  0  0  0  0  0  0  0
   10.6551   -1.4702   21.7229 C   0  0  0  0  0  0  0  0  0  0  0  0
   12.0169   -1.3761   21.5005 C   0  0  0  0  0  0  0  0  0  0  0  0
   12.7836   -2.4623   20.3711 Cl  0  0  0  0  0  0  0  0  0  0  0  0
   12.7866   -0.3813   22.1054 C   0  0  0  0  0  0  0  0  0  0  0  0
   12.1602    0.5533   22.8959 C   0  0  0  0  0  0  0  0  0  0  0  0
   10.7729    0.5429   23.0394 C   0  0  0  0  0  0  0  0  0  0  0  0
   10.1461    1.7001   23.7481 C   0  0  0  0  0  0  0  0  0  0  0  0
   10.8119    2.6637   24.1127 O   0  0  0  0  0  0  0  0  0  0  0  0
   12.7426    1.3244   23.3875 H   0  0  0  0  0  0  0  0  0  0  0  0
   13.8540   -0.3354   21.9359 H   0  0  0  0  0  0  0  0  0  0  0  0
   10.1245   -2.3027   21.2781 H   0  0  0  0  0  0  0  0  0  0  0  0
    8.2731   -0.2155   24.7417 H   0  0  0  0  0  0  0  0  0  0  0  0
    7.0061    0.5830   23.7854 H   0  0  0  0  0  0  0  0  0  0  0  0
    7.2125    2.5698   24.9339 H   0  0  0  0  0  0  0  0  0  0  0  0
    8.8279    3.2242   25.2524 H   0  0  0  0  0  0  0  0  0  0  0  0
    8.9230    4.0475   22.8772 H   0  0  0  0  0  0  0  0  0  0  0  0
    7.6727    4.8452   23.8318 H   0  0  0  0  0  0  0  0  0  0  0  0
    7.3099    2.6011   21.9098 H   0  0  0  0  0  0  0  0  0  0  0  0
    6.0909    3.1815   22.9011 H   0  0  0  0  0  0  0  0  0  0  0  0
    5.6872    4.1108   20.8635 H   0  0  0  0  0  0  0  0  0  0  0  0
    7.3877    4.5947   20.6830 H   0  0  0  0  0  0  0  0  0  0  0  0
    6.3695    5.4110   21.8661 H   0  0  0  0  0  0  0  0  0  0  0  0
  1  2  1  0
  2  3  1  0
  3  4  1  0
  4  5  1  0
  5  6  1  0
  7  6  1  1
  7  8  1  0
  8  9  2  0
  8 10  1  0
 10 11  1  0
 11 12  2  0
 12 13  1  0
 13 14  2  0
 14 15  1  0
 15 16  2  0
 16 17  1  0
 17 18  2  0
 18 19  1  0
 19 20  2  0
 19 21  1  0
 18 22  1  0
 17 23  1  0
 16 24  1  0
 14 25  1  0
 12 26  1  0
 10 27  1  0
 27 28  1  0
 28 29  1  0
 29 30  1  0
 30 31  1  0
 31 32  1  0
 32 33  1  0
 32 34  1  0
 34 35  1  0
 35 36  1  0
 36 37  1  0
 36 38  1  0
 34 39  1  0
 34 40  1  0
 31 41  1  0
 31 42  1  0
 29 43  1  0
 29 44  1  0
 28 45  1  6
 27 46  1  0
 27 47  1  0
  7 48  1  0
 48 49  2  0
 49 50  1  0
 50 51  1  0
 50 52  2  0
 52 53  1  0
 53 54  2  0
 54 55  1  0
 55 56  2  0
 53 57  1  0
 52 58  1  0
 49 59  1  0
  6 60  1  0
  6 61  1  0
  4 62  1  0
  4 63  1  0
  3 64  1  0
  3 65  1  0
  2 66  1  0
  2 67  1  0
  1 68  1  0
  1 69  1  0
  1 70  1  0
 55  5  1  0
 28  7  1  0
 36 32  1  0
 54 48  1  0
 20 11  1  0
 20 15  1  0
M  CHG  1   2   1
M  END
>  <cnnaffinities>  (29) 
[6.86427, 6.02271]

>  <score>  (29) 
6.86427

>  <index>  (29) 
28

>  <Smiles>  (29) 
C([N+](C(C(N1C([C@@]2(C(=O)N(c3c(nc(c4c(c(c(c(c34)[H])[H])[H])[H])[H])[H])C([C@@]2(C(OC(C2(F)C(OC2([H])[H])([H])[H])([H])[H])([H])[H])[H])([H])[H])c2c(c(Cl)c(c(c2C1=O)[H])[H])[H])([H])[H])([H])[H])([H])[H])([H])[H])([H])([H])[H]

>  <h>  (29) 
<NA>

>  <Training>  (29) 
True

>  <Success>  (29) 
True

>  <enamine_searched>  (29) 
False

>  <enamine_id>  (29) 
nan

$$$$

     RDKit          3D

 67 72  0  0  0  0  0  0  0  0999 V2000
    6.6141    4.3677   21.3249 C   0  0  0  0  0  0  0  0  0  0  0  0
    7.0017    3.3797   22.3349 N   0  0  0  0  0  4  0  0  0  0  0  0
    8.0426    3.8327   23.2821 C   0  0  0  0  0  0  0  0  0  0  0  0
    8.2506    2.8057   24.4003 C   0  0  0  0  0  0  0  0  0  0  0  0
    8.8860    1.5821   23.9251 N   0  0  0  0  0  0  0  0  0  0  0  0
    8.1533    0.3342   23.8148 C   0  0  0  0  0  0  0  0  0  0  0  0
    8.5289   -0.4721   22.5384 C   0  0  2  0  0  0  0  0  0  0  0  0
    7.9324    0.2842   21.3412 C   0  0  0  0  0  0  0  0  0  0  0  0
    8.2286    1.4229   20.9844 O   0  0  0  0  0  0  0  0  0  0  0  0
    6.9105   -0.4367   20.8045 N   0  0  0  0  0  0  0  0  0  0  0  0
    6.1270    0.1047   19.7536 C   0  0  0  0  0  0  0  0  0  0  0  0
    6.4619   -0.1870   18.4579 C   0  0  0  0  0  0  0  0  0  0  0  0
    5.7707    0.2547   17.3850 N   0  0  0  0  0  0  0  0  0  0  0  0
    4.7363    1.0298   17.6053 C   0  0  0  0  0  0  0  0  0  0  0  0
    4.2964    1.4231   18.9030 C   0  0  0  0  0  0  0  0  0  0  0  0
    3.1699    2.2680   19.0957 C   0  0  0  0  0  0  0  0  0  0  0  0
    2.7966    2.6594   20.3538 C   0  0  0  0  0  0  0  0  0  0  0  0
    3.5179    2.2135   21.4817 C   0  0  0  0  0  0  0  0  0  0  0  0
    4.6008    1.3786   21.3207 C   0  0  0  0  0  0  0  0  0  0  0  0
    5.0206    0.9616   20.0242 C   0  0  0  0  0  0  0  0  0  0  0  0
    5.1293    1.0148   22.1980 H   0  0  0  0  0  0  0  0  0  0  0  0
    3.2168    2.5357   22.4761 H   0  0  0  0  0  0  0  0  0  0  0  0
    1.9472    3.3220   20.4859 H   0  0  0  0  0  0  0  0  0  0  0  0
    2.6306    2.6044   18.2145 H   0  0  0  0  0  0  0  0  0  0  0  0
    4.1845    1.3893   16.7347 H   0  0  0  0  0  0  0  0  0  0  0  0
    7.3288   -0.8139   18.2540 H   0  0  0  0  0  0  0  0  0  0  0  0
    6.4823   -1.5295   21.6530 C   0  0  0  0  0  0  0  0  0  0  0  0
    7.7601   -1.8286   22.4524 C   0  0  2  0  0  0  0  0  0  0  0  0
    7.4670   -2.5408   23.7826 C   0  0  0  0  0  0  0  0  0  0  0  0
    6.8663   -3.8538   23.6189 N   0  0  0  0  0  0  0  0  0  0  0  0
    5.5443   -4.1071   23.6489 C   0  0  0  0  0  0  0  0  0  0  0  0
    5.1615   -5.3651   23.3351 N   0  0  0  0  0  0  0  0  0  0  0  0
    3.8577   -5.5610   23.3756 C   0  0  0  0  0  0  0  0  0  0  0  0
    2.9137   -4.6684   23.6962 N   0  0  0  0  0  0  0  0  0  0  0  0
    3.4173   -3.4755   23.9995 C   0  0  0  0  0  0  0  0  0  0  0  0
    4.6941   -3.1155   23.9827 N   0  0  0  0  0  0  0  0  0  0  0  0
    2.7043   -2.7076   24.2946 H   0  0  0  0  0  0  0  0  0  0  0  0
    3.5193   -6.5651   23.1208 H   0  0  0  0  0  0  0  0  0  0  0  0
    7.4529   -4.6495   23.4225 H   0  0  0  0  0  0  0  0  0  0  0  0
    6.7683   -1.9383   24.3700 H   0  0  0  0  0  0  0  0  0  0  0  0
    8.3958   -2.6573   24.3514 H   0  0  0  0  0  0  0  0  0  0  0  0
    8.3627   -2.4973   21.8357 H   0  0  0  0  0  0  0  0  0  0  0  0
    5.6591   -1.2294   22.3224 H   0  0  0  0  0  0  0  0  0  0  0  0
    6.1388   -2.3770   21.0547 H   0  0  0  0  0  0  0  0  0  0  0  0
   10.0460   -0.5491   22.4248 C   0  0  0  0  0  0  0  0  0  0  0  0
   10.6903   -1.5420   21.6670 C   0  0  0  0  0  0  0  0  0  0  0  0
   12.0438   -1.4338   21.3942 C   0  0  0  0  0  0  0  0  0  0  0  0
   12.7807   -2.5650   20.2927 Cl  0  0  0  0  0  0  0  0  0  0  0  0
   12.8205   -0.4066   21.9327 C   0  0  0  0  0  0  0  0  0  0  0  0
   12.2090    0.5338   22.7334 C   0  0  0  0  0  0  0  0  0  0  0  0
   10.8318    0.4876   22.9539 C   0  0  0  0  0  0  0  0  0  0  0  0
   10.2304    1.6424   23.6999 C   0  0  0  0  0  0  0  0  0  0  0  0
   10.9083    2.6052   24.0461 O   0  0  0  0  0  0  0  0  0  0  0  0
   12.7768    1.3402   23.1863 H   0  0  0  0  0  0  0  0  0  0  0  0
   13.8844   -0.3598   21.7177 H   0  0  0  0  0  0  0  0  0  0  0  0
   10.1654   -2.4022   21.2628 H   0  0  0  0  0  0  0  0  0  0  0  0
    7.0778    0.5502   23.7824 H   0  0  0  0  0  0  0  0  0  0  0  0
    8.3487   -0.2843   24.6983 H   0  0  0  0  0  0  0  0  0  0  0  0
    7.2938    2.5465   24.8674 H   0  0  0  0  0  0  0  0  0  0  0  0
    8.9030    3.2239   25.1688 H   0  0  0  0  0  0  0  0  0  0  0  0
    8.9899    3.9744   22.7522 H   0  0  0  0  0  0  0  0  0  0  0  0
    7.7633    4.8035   23.7098 H   0  0  0  0  0  0  0  0  0  0  0  0
    6.1547    3.1144   22.8662 H   0  0  0  0  0  0  0  0  0  0  0  0
    7.3550    2.5331   21.8504 H   0  0  0  0  0  0  0  0  0  0  0  0
    6.4537    5.3521   21.7799 H   0  0  0  0  0  0  0  0  0  0  0  0
    5.6879    4.0410   20.8461 H   0  0  0  0  0  0  0  0  0  0  0  0
    7.3970    4.4529   20.5681 H   0  0  0  0  0  0  0  0  0  0  0  0
  1  2  1  0
  2  3  1  0
  3  4  1  0
  4  5  1  0
  5  6  1  0
  7  6  1  1
  7  8  1  0
  8  9  2  0
  8 10  1  0
 10 11  1  0
 11 12  2  0
 12 13  1  0
 13 14  2  0
 14 15  1  0
 15 16  2  0
 16 17  1  0
 17 18  2  0
 18 19  1  0
 19 20  2  0
 19 21  1  0
 18 22  1  0
 17 23  1  0
 16 24  1  0
 14 25  1  0
 12 26  1  0
 10 27  1  0
 27 28  1  0
 28 29  1  0
 29 30  1  0
 30 31  1  0
 31 32  2  0
 32 33  1  0
 33 34  2  0
 34 35  1  0
 35 36  2  0
 35 37  1  0
 33 38  1  0
 30 39  1  0
 29 40  1  0
 29 41  1  0
 28 42  1  6
 27 43  1  0
 27 44  1  0
  7 45  1  0
 45 46  2  0
 46 47  1  0
 47 48  1  0
 47 49  2  0
 49 50  1  0
 50 51  2  0
 51 52  1  0
 52 53  2  0
 50 54  1  0
 49 55  1  0
 46 56  1  0
  6 57  1  0
  6 58  1  0
  4 59  1  0
  4 60  1  0
  3 61  1  0
  3 62  1  0
  2 63  1  0
  2 64  1  0
  1 65  1  0
  1 66  1  0
  1 67  1  0
 52  5  1  0
 28  7  1  0
 36 31  1  0
 51 45  1  0
 20 11  1  0
 20 15  1  0
M  CHG  1   2   1
M  END
>  <cnnaffinities>  (30) 
[6.56589, 6.6124]

>  <score>  (30) 
6.56589

>  <index>  (30) 
29

>  <Smiles>  (30) 
C([N+](C(C(N1C([C@@]2(C(=O)N(c3c(nc(c4c(c(c(c(c34)[H])[H])[H])[H])[H])[H])C([C@@]2(C(N(c2nc(nc(n2)[H])[H])[H])([H])[H])[H])([H])[H])c2c(c(Cl)c(c(c2C1=O)[H])[H])[H])([H])[H])([H])[H])([H])[H])([H])[H])([H])([H])[H]

>  <h>  (30) 
<NA>

>  <Training>  (30) 
True

>  <Success>  (30) 
True

>  <enamine_searched>  (30) 
False

>  <enamine_id>  (30) 
nan

$$$$

     RDKit          3D

 66 71  0  0  0  0  0  0  0  0999 V2000
    6.5372    4.3745   21.3906 C   0  0  0  0  0  0  0  0  0  0  0  0
    7.5099    3.9248   22.3744 N   0  0  0  0  0  0  0  0  0  0  0  0
    7.0663    3.2899   23.4973 C   0  0  0  0  0  0  0  0  0  0  0  0
    5.8763    3.1446   23.7315 O   0  0  0  0  0  0  0  0  0  0  0  0
    8.1343    2.7743   24.4724 C   0  0  0  0  0  0  0  0  0  0  0  0
    8.8230    1.6121   23.9322 N   0  0  0  0  0  0  0  0  0  0  0  0
    8.0971    0.3504   23.8238 C   0  0  0  0  0  0  0  0  0  0  0  0
    8.5104   -0.4769   22.5708 C   0  0  2  0  0  0  0  0  0  0  0  0
    8.0088    0.2454   21.2945 C   0  0  0  0  0  0  0  0  0  0  0  0
    8.4898    1.2314   20.7768 O   0  0  0  0  0  0  0  0  0  0  0  0
    6.9036   -0.4189   20.8239 N   0  0  0  0  0  0  0  0  0  0  0  0
    6.1317    0.1080   19.7603 C   0  0  0  0  0  0  0  0  0  0  0  0
    6.4689   -0.1847   18.4648 C   0  0  0  0  0  0  0  0  0  0  0  0
    5.7809    0.2529   17.3853 N   0  0  0  0  0  0  0  0  0  0  0  0
    4.7350    1.0137   17.5966 C   0  0  0  0  0  0  0  0  0  0  0  0
    4.2727    1.3911   18.8902 C   0  0  0  0  0  0  0  0  0  0  0  0
    3.1412    2.2277   19.0782 C   0  0  0  0  0  0  0  0  0  0  0  0
    2.7542    2.6059   20.3350 C   0  0  0  0  0  0  0  0  0  0  0  0
    3.4783    2.1625   21.4661 C   0  0  0  0  0  0  0  0  0  0  0  0
    4.5681    1.3388   21.3125 C   0  0  0  0  0  0  0  0  0  0  0  0
    4.9935    0.9313   20.0172 C   0  0  0  0  0  0  0  0  0  0  0  0
    5.1404    1.0289   22.1838 H   0  0  0  0  0  0  0  0  0  0  0  0
    3.1934    2.4947   22.4596 H   0  0  0  0  0  0  0  0  0  0  0  0
    1.8990    3.2626   20.4676 H   0  0  0  0  0  0  0  0  0  0  0  0
    2.6112    2.5732   18.1949 H   0  0  0  0  0  0  0  0  0  0  0  0
    4.1940    1.3744   16.7211 H   0  0  0  0  0  0  0  0  0  0  0  0
    7.3402   -0.8051   18.2628 H   0  0  0  0  0  0  0  0  0  0  0  0
    6.4993   -1.5515   21.6229 C   0  0  0  0  0  0  0  0  0  0  0  0
    7.7422   -1.8497   22.4816 C   0  0  2  0  0  0  0  0  0  0  0  0
    7.3941   -2.5517   23.8174 C   0  0  0  0  0  0  0  0  0  0  0  0
    6.7195   -3.9090   23.6907 C   0  0  0  0  0  0  0  0  0  0  0  0
    5.3340   -4.0257   23.5093 C   0  0  0  0  0  0  0  0  0  0  0  0
    4.7325   -5.2742   23.3507 C   0  0  0  0  0  0  0  0  0  0  0  0
    5.5019   -6.4340   23.3862 C   0  0  0  0  0  0  0  0  0  0  0  0
    6.8712   -6.3378   23.6084 C   0  0  0  0  0  0  0  0  0  0  0  0
    7.4645   -5.0860   23.7754 C   0  0  0  0  0  0  0  0  0  0  0  0
    8.5237   -5.0170   24.0219 H   0  0  0  0  0  0  0  0  0  0  0  0
    7.4951   -7.2286   23.6552 H   0  0  0  0  0  0  0  0  0  0  0  0
    5.0463   -7.4162   23.2713 H   0  0  0  0  0  0  0  0  0  0  0  0
    3.6554   -5.3488   23.2186 H   0  0  0  0  0  0  0  0  0  0  0  0
    4.7032   -3.1360   23.5085 H   0  0  0  0  0  0  0  0  0  0  0  0
    6.7414   -1.8880   24.4009 H   0  0  0  0  0  0  0  0  0  0  0  0
    8.3238   -2.6657   24.3886 H   0  0  0  0  0  0  0  0  0  0  0  0
    8.3661   -2.5366   21.9014 H   0  0  0  0  0  0  0  0  0  0  0  0
    5.6183   -1.3096   22.2347 H   0  0  0  0  0  0  0  0  0  0  0  0
    6.2179   -2.4005   20.9912 H   0  0  0  0  0  0  0  0  0  0  0  0
   10.0301   -0.5228   22.5051 C   0  0  0  0  0  0  0  0  0  0  0  0
   10.6813   -1.4475   21.6765 C   0  0  0  0  0  0  0  0  0  0  0  0
   12.0522   -1.3792   21.4947 C   0  0  0  0  0  0  0  0  0  0  0  0
   12.8188   -2.4530   20.3543 Cl  0  0  0  0  0  0  0  0  0  0  0  0
   12.8228   -0.4249   22.1615 C   0  0  0  0  0  0  0  0  0  0  0  0
   12.1956    0.4940   22.9724 C   0  0  0  0  0  0  0  0  0  0  0  0
   10.8056    0.4909   23.0939 C   0  0  0  0  0  0  0  0  0  0  0  0
   10.1819    1.6687   23.7811 C   0  0  0  0  0  0  0  0  0  0  0  0
   10.8535    2.6267   24.1410 O   0  0  0  0  0  0  0  0  0  0  0  0
   12.7788    1.2477   23.4937 H   0  0  0  0  0  0  0  0  0  0  0  0
   13.8965   -0.3875   22.0245 H   0  0  0  0  0  0  0  0  0  0  0  0
   10.1312   -2.2068   21.1312 H   0  0  0  0  0  0  0  0  0  0  0  0
    8.2712   -0.2430   24.7316 H   0  0  0  0  0  0  0  0  0  0  0  0
    7.0293    0.5829   23.7693 H   0  0  0  0  0  0  0  0  0  0  0  0
    8.9075    3.5293   24.6477 H   0  0  0  0  0  0  0  0  0  0  0  0
    7.6485    2.5498   25.4347 H   0  0  0  0  0  0  0  0  0  0  0  0
    8.4263    3.6753   22.0300 H   0  0  0  0  0  0  0  0  0  0  0  0
    5.6916    4.8135   21.9257 H   0  0  0  0  0  0  0  0  0  0  0  0
    6.1646    3.5292   20.7945 H   0  0  0  0  0  0  0  0  0  0  0  0
    6.9758    5.1292   20.7286 H   0  0  0  0  0  0  0  0  0  0  0  0
  1  2  1  0
  2  3  1  0
  3  4  2  0
  3  5  1  0
  5  6  1  0
  6  7  1  0
  8  7  1  1
  8  9  1  0
  9 10  2  0
  9 11  1  0
 11 12  1  0
 12 13  2  0
 13 14  1  0
 14 15  2  0
 15 16  1  0
 16 17  2  0
 17 18  1  0
 18 19  2  0
 19 20  1  0
 20 21  2  0
 20 22  1  0
 19 23  1  0
 18 24  1  0
 17 25  1  0
 15 26  1  0
 13 27  1  0
 11 28  1  0
 28 29  1  0
 29 30  1  0
 30 31  1  0
 31 32  2  0
 32 33  1  0
 33 34  2  0
 34 35  1  0
 35 36  2  0
 36 37  1  0
 35 38  1  0
 34 39  1  0
 33 40  1  0
 32 41  1  0
 30 42  1  0
 30 43  1  0
 29 44  1  6
 28 45  1  0
 28 46  1  0
  8 47  1  0
 47 48  2  0
 48 49  1  0
 49 50  1  0
 49 51  2  0
 51 52  1  0
 52 53  2  0
 53 54  1  0
 54 55  2  0
 52 56  1  0
 51 57  1  0
 48 58  1  0
  7 59  1  0
  7 60  1  0
  5 61  1  0
  5 62  1  0
  2 63  1  0
  1 64  1  0
  1 65  1  0
  1 66  1  0
 54  6  1  0
 29  8  1  0
 36 31  1  0
 53 47  1  0
 21 12  1  0
 21 16  1  0
M  END
>  <cnnaffinities>  (31) 
[6.93179, 6.95544]

>  <score>  (31) 
6.93179

>  <index>  (31) 
30

>  <Smiles>  (31) 
C(N(C(=O)C(N1C([C@@]2(C(=O)N(c3c(nc(c4c(c(c(c(c34)[H])[H])[H])[H])[H])[H])C([C@@]2(C(c2c(c(c(c(c2[H])[H])[H])[H])[H])([H])[H])[H])([H])[H])c2c(c(Cl)c(c(c2C1=O)[H])[H])[H])([H])[H])([H])[H])[H])([H])([H])[H]

>  <h>  (31) 
<NA>

>  <Training>  (31) 
True

>  <Success>  (31) 
True

>  <enamine_searched>  (31) 
False

>  <enamine_id>  (31) 
nan

$$$$

     RDKit          3D

 64 70  0  0  0  0  0  0  0  0999 V2000
   10.4607    2.7817   24.2723 O   0  0  0  0  0  0  0  0  0  0  0  0
    9.8684    1.7659   23.9349 C   0  0  0  0  0  0  0  0  0  0  0  0
   10.5901    0.6044   23.3204 C   0  0  0  0  0  0  0  0  0  0  0  0
   11.9843    0.6103   23.3473 C   0  0  0  0  0  0  0  0  0  0  0  0
   12.7014   -0.2837   22.5777 C   0  0  0  0  0  0  0  0  0  0  0  0
   11.9936   -1.1694   21.7621 C   0  0  0  0  0  0  0  0  0  0  0  0
   12.8194   -2.1163   20.5560 Cl  0  0  0  0  0  0  0  0  0  0  0  0
   10.6181   -1.2687   21.8212 C   0  0  0  0  0  0  0  0  0  0  0  0
    9.8922   -0.4051   22.6483 C   0  0  0  0  0  0  0  0  0  0  0  0
    8.3803   -0.4213   22.6483 C   0  0  1  0  0  0  0  0  0  0  0  0
    7.8743    0.3198   23.9194 C   0  0  0  0  0  0  0  0  0  0  0  0
    8.5091    1.6233   24.0578 N   0  0  0  0  0  0  0  0  0  0  0  0
    7.7489    2.8033   24.4270 C   0  0  0  0  0  0  0  0  0  0  0  0
    7.4979    3.7222   23.2656 C   0  0  0  0  0  0  0  0  0  0  0  0
    7.9933    4.8761   22.9942 N   0  0  0  0  0  0  0  0  0  0  0  0
    7.3436    5.3263   21.8483 N   0  0  0  0  0  0  0  0  0  0  0  0
    6.5188    4.3950   21.5197 C   0  0  0  0  0  0  0  0  0  0  0  0
    6.5524    3.3415   22.3730 O   0  0  0  0  0  0  0  0  0  0  0  0
    5.7757    4.4101   20.7287 H   0  0  0  0  0  0  0  0  0  0  0  0
    8.2995    3.3449   25.1980 H   0  0  0  0  0  0  0  0  0  0  0  0
    6.7810    2.5051   24.8402 H   0  0  0  0  0  0  0  0  0  0  0  0
    8.0873   -0.2882   24.8104 H   0  0  0  0  0  0  0  0  0  0  0  0
    6.7880    0.4670   23.8530 H   0  0  0  0  0  0  0  0  0  0  0  0
    7.8840    0.3320   21.3931 C   0  0  0  0  0  0  0  0  0  0  0  0
    8.2707    1.3928   20.9640 O   0  0  0  0  0  0  0  0  0  0  0  0
    6.8794   -0.4201   20.8260 N   0  0  0  0  0  0  0  0  0  0  0  0
    6.1072    0.0957   19.7630 C   0  0  0  0  0  0  0  0  0  0  0  0
    6.4548   -0.1988   18.4738 C   0  0  0  0  0  0  0  0  0  0  0  0
    5.7809    0.2474   17.3899 N   0  0  0  0  0  0  0  0  0  0  0  0
    4.7464    1.0219   17.6014 C   0  0  0  0  0  0  0  0  0  0  0  0
    4.2832    1.4046   18.8941 C   0  0  0  0  0  0  0  0  0  0  0  0
    3.1575    2.2489   19.0764 C   0  0  0  0  0  0  0  0  0  0  0  0
    2.7449    2.5951   20.3309 C   0  0  0  0  0  0  0  0  0  0  0  0
    3.4242    2.1009   21.4660 C   0  0  0  0  0  0  0  0  0  0  0  0
    4.5185    1.2820   21.3205 C   0  0  0  0  0  0  0  0  0  0  0  0
    4.9745    0.9194   20.0219 C   0  0  0  0  0  0  0  0  0  0  0  0
    5.0499    0.9293   22.2004 H   0  0  0  0  0  0  0  0  0  0  0  0
    3.0871    2.3883   22.4566 H   0  0  0  0  0  0  0  0  0  0  0  0
    1.8922    3.2555   20.4602 H   0  0  0  0  0  0  0  0  0  0  0  0
    2.6430    2.6083   18.1906 H   0  0  0  0  0  0  0  0  0  0  0  0
    4.2155    1.3887   16.7240 H   0  0  0  0  0  0  0  0  0  0  0  0
    7.3231   -0.8283   18.2895 H   0  0  0  0  0  0  0  0  0  0  0  0
    6.5101   -1.6006   21.5696 C   0  0  0  0  0  0  0  0  0  0  0  0
    7.7321   -1.8249   22.4694 C   0  0  2  0  0  0  0  0  0  0  0  0
    7.4265   -2.6022   23.7633 C   0  0  0  0  0  0  0  0  0  0  0  0
    7.0512   -3.9879   23.5416 N   0  0  0  0  0  0  0  0  0  0  0  0
    5.8094   -4.4188   23.1806 C   0  0  0  0  0  0  0  0  0  0  0  0
    4.6199   -3.7022   23.4417 C   0  0  0  0  0  0  0  0  0  0  0  0
    3.4469   -4.2756   22.9961 C   0  0  0  0  0  0  0  0  0  0  0  0
    3.4051   -5.4479   22.3512 N   0  0  0  0  0  0  0  0  0  0  0  0
    4.5810   -6.0406   22.1810 C   0  0  0  0  0  0  0  0  0  0  0  0
    5.7763   -5.6143   22.5637 N   0  0  0  0  0  0  0  0  0  0  0  0
    4.5524   -6.9962   21.6539 H   0  0  0  0  0  0  0  0  0  0  0  0
    2.4891   -3.7712   23.1603 H   0  0  0  0  0  0  0  0  0  0  0  0
    4.6064   -2.7476   23.9638 H   0  0  0  0  0  0  0  0  0  0  0  0
    7.7849   -4.6141   23.2365 H   0  0  0  0  0  0  0  0  0  0  0  0
    6.6237   -2.1047   24.3241 H   0  0  0  0  0  0  0  0  0  0  0  0
    8.3249   -2.5947   24.3958 H   0  0  0  0  0  0  0  0  0  0  0  0
    8.4302   -2.4331   21.8851 H   0  0  0  0  0  0  0  0  0  0  0  0
    6.3242   -2.4365   20.8897 H   0  0  0  0  0  0  0  0  0  0  0  0
    5.5890   -1.4411   22.1527 H   0  0  0  0  0  0  0  0  0  0  0  0
   10.1452   -2.0051   21.1796 H   0  0  0  0  0  0  0  0  0  0  0  0
   13.7858   -0.2753   22.5562 H   0  0  0  0  0  0  0  0  0  0  0  0
   12.4838    1.3606   23.9495 H   0  0  0  0  0  0  0  0  0  0  0  0
  1  2  2  0
  2  3  1  0
  3  4  2  0
  4  5  1  0
  5  6  2  0
  6  7  1  0
  6  8  1  0
  8  9  2  0
  9 10  1  0
 10 11  1  1
 11 12  1  0
 12 13  1  0
 13 14  1  0
 14 15  2  0
 15 16  1  0
 16 17  2  0
 17 18  1  0
 17 19  1  0
 13 20  1  0
 13 21  1  0
 11 22  1  0
 11 23  1  0
 10 24  1  0
 24 25  2  0
 24 26  1  0
 26 27  1  0
 27 28  2  0
 28 29  1  0
 29 30  2  0
 30 31  1  0
 31 32  2  0
 32 33  1  0
 33 34  2  0
 34 35  1  0
 35 36  2  0
 35 37  1  0
 34 38  1  0
 33 39  1  0
 32 40  1  0
 30 41  1  0
 28 42  1  0
 26 43  1  0
 43 44  1  0
 44 45  1  0
 45 46  1  0
 46 47  1  0
 47 48  2  0
 48 49  1  0
 49 50  2  0
 50 51  1  0
 51 52  2  0
 51 53  1  0
 49 54  1  0
 48 55  1  0
 46 56  1  0
 45 57  1  0
 45 58  1  0
 44 59  1  6
 43 60  1  0
 43 61  1  0
  8 62  1  0
  5 63  1  0
  4 64  1  0
 12  2  1  0
 18 14  1  0
 36 27  1  0
 52 47  1  0
  9  3  1  0
 44 10  1  0
 36 31  1  0
M  END
>  <cnnaffinities>  (32) 
[6.56845, 6.46446]

>  <score>  (32) 
6.56845

>  <index>  (32) 
31

>  <Smiles>  (32) 
O=C1c2c(c(c(Cl)c(c2[C@@]2(C(N1C(c1nnc(o1)[H])([H])[H])([H])[H])C(=O)N(c1c(nc(c3c(c(c(c(c13)[H])[H])[H])[H])[H])[H])C([C@@]2(C(N(c1c(c(nc(n1)[H])[H])[H])[H])([H])[H])[H])([H])[H])[H])[H])[H]

>  <h>  (32) 
<NA>

>  <Training>  (32) 
True

>  <Success>  (32) 
True

>  <enamine_searched>  (32) 
False

>  <enamine_id>  (32) 
nan

$$$$

     RDKit          3D

 72 77  0  0  0  0  0  0  0  0999 V2000
    7.6358   -2.7806   23.5401 C   0  0  0  0  0  0  0  0  0  0  0  0
    7.8494   -1.9759   22.2591 C   0  0  1  0  0  0  0  0  0  0  0  0
    6.5243   -1.5414   21.6154 C   0  0  0  0  0  0  0  0  0  0  0  0
    6.9160   -0.4048   20.8095 N   0  0  0  0  0  0  0  0  0  0  0  0
    6.1292    0.1113   19.7527 C   0  0  0  0  0  0  0  0  0  0  0  0
    6.4838   -0.1548   18.4555 C   0  0  0  0  0  0  0  0  0  0  0  0
    5.7934    0.2872   17.3820 N   0  0  0  0  0  0  0  0  0  0  0  0
    4.7386    1.0310   17.6039 C   0  0  0  0  0  0  0  0  0  0  0  0
    4.2642    1.3849   18.9005 C   0  0  0  0  0  0  0  0  0  0  0  0
    3.1431    2.2329   19.0960 C   0  0  0  0  0  0  0  0  0  0  0  0
    2.7557    2.6023   20.3554 C   0  0  0  0  0  0  0  0  0  0  0  0
    3.4468    2.1156   21.4850 C   0  0  0  0  0  0  0  0  0  0  0  0
    4.5118    1.2577   21.3237 C   0  0  0  0  0  0  0  0  0  0  0  0
    4.9680    0.8929   20.0241 C   0  0  0  0  0  0  0  0  0  0  0  0
    5.0456    0.9013   22.2003 H   0  0  0  0  0  0  0  0  0  0  0  0
    3.1460    2.4291   22.4800 H   0  0  0  0  0  0  0  0  0  0  0  0
    1.9195    3.2824   20.4911 H   0  0  0  0  0  0  0  0  0  0  0  0
    2.6200    2.5974   18.2174 H   0  0  0  0  0  0  0  0  0  0  0  0
    4.1996    1.3992   16.7309 H   0  0  0  0  0  0  0  0  0  0  0  0
    7.3642   -0.7614   18.2527 H   0  0  0  0  0  0  0  0  0  0  0  0
    8.0692    0.2008   21.2379 C   0  0  0  0  0  0  0  0  0  0  0  0
    8.5038    1.2740   20.8474 O   0  0  0  0  0  0  0  0  0  0  0  0
    8.6733   -0.6599   22.3720 C   0  0  1  0  0  0  0  0  0  0  0  0
    8.4082    0.0583   23.7123 C   0  0  0  0  0  0  0  0  0  0  0  0
    9.1446    1.3026   23.8079 N   0  0  0  0  0  0  0  0  0  0  0  0
    8.5027    2.4138   24.4925 C   0  0  0  0  0  0  0  0  0  0  0  0
    7.4085    3.0576   23.6315 C   0  0  0  0  0  0  0  0  0  0  0  0
    7.9888    3.6514   22.3779 N   0  0  1  0  0  4  0  0  0  0  0  0
    7.0486    3.7482   21.2084 C   0  0  0  0  0  0  0  0  0  0  0  0
    6.1662    4.9779   21.2219 C   0  0  0  0  0  0  0  0  0  0  0  0
    6.9386    6.1540   21.2920 O   0  0  0  0  0  0  0  0  0  0  0  0
    7.7145    6.2300   22.4928 C   0  0  0  0  0  0  0  0  0  0  0  0
    8.5551    7.4931   22.3333 C   0  0  0  0  0  0  0  0  0  0  0  0
    9.3379    7.3550   21.5813 H   0  0  0  0  0  0  0  0  0  0  0  0
    9.0308    7.7804   23.2770 H   0  0  0  0  0  0  0  0  0  0  0  0
    7.9073    8.3133   22.0069 H   0  0  0  0  0  0  0  0  0  0  0  0
    6.7921    6.3987   23.7050 C   0  0  0  0  0  0  0  0  0  0  0  0
    6.1172    5.5523   23.8480 H   0  0  0  0  0  0  0  0  0  0  0  0
    6.1708    7.2913   23.5691 H   0  0  0  0  0  0  0  0  0  0  0  0
    7.3842    6.5165   24.6200 H   0  0  0  0  0  0  0  0  0  0  0  0
    8.6508    4.9976   22.5998 C   0  0  0  0  0  0  0  0  0  0  0  0
    9.1249    5.0046   23.5861 H   0  0  0  0  0  0  0  0  0  0  0  0
    9.4428    5.1020   21.8520 H   0  0  0  0  0  0  0  0  0  0  0  0
    5.5823    5.0385   20.2953 H   0  0  0  0  0  0  0  0  0  0  0  0
    5.4480    4.9074   22.0511 H   0  0  0  0  0  0  0  0  0  0  0  0
    7.6686    3.7447   20.3146 H   0  0  0  0  0  0  0  0  0  0  0  0
    6.4521    2.8432   21.1679 H   0  0  0  0  0  0  0  0  0  0  0  0
    8.6900    2.9668   22.0401 H   0  0  0  0  0  0  0  0  0  0  0  0
    6.6498    2.3187   23.3375 H   0  0  0  0  0  0  0  0  0  0  0  0
    6.8996    3.8192   24.2232 H   0  0  0  0  0  0  0  0  0  0  0  0
    8.0765    2.0700   25.4453 H   0  0  0  0  0  0  0  0  0  0  0  0
    9.2942    3.1306   24.7218 H   0  0  0  0  0  0  0  0  0  0  0  0
   10.4833    1.3555   23.5278 C   0  0  0  0  0  0  0  0  0  0  0  0
   11.2087    2.2494   23.9434 O   0  0  0  0  0  0  0  0  0  0  0  0
   11.0078    0.2575   22.6441 C   0  0  0  0  0  0  0  0  0  0  0  0
   12.3482    0.3143   22.2626 C   0  0  0  0  0  0  0  0  0  0  0  0
   12.8934   -0.6748   21.4739 C   0  0  0  0  0  0  0  0  0  0  0  0
   12.0750   -1.7283   21.0689 C   0  0  0  0  0  0  0  0  0  0  0  0
   12.7613   -2.9651   20.0634 Cl  0  0  0  0  0  0  0  0  0  0  0  0
   10.7358   -1.7815   21.4023 C   0  0  0  0  0  0  0  0  0  0  0  0
   10.1708   -0.7697   22.1802 C   0  0  0  0  0  0  0  0  0  0  0  0
   10.1373   -2.6010   21.0211 H   0  0  0  0  0  0  0  0  0  0  0  0
   13.9317   -0.6566   21.1606 H   0  0  0  0  0  0  0  0  0  0  0  0
   12.9298    1.1782   22.5592 H   0  0  0  0  0  0  0  0  0  0  0  0
    8.6800   -0.6149   24.5362 H   0  0  0  0  0  0  0  0  0  0  0  0
    7.3408    0.2791   23.8003 H   0  0  0  0  0  0  0  0  0  0  0  0
    5.7857   -1.2727   22.3908 H   0  0  0  0  0  0  0  0  0  0  0  0
    6.0832   -2.3191   20.9860 H   0  0  0  0  0  0  0  0  0  0  0  0
    8.3503   -2.6120   21.5249 H   0  0  0  0  0  0  0  0  0  0  0  0
    7.0786   -3.6995   23.3263 H   0  0  0  0  0  0  0  0  0  0  0  0
    7.0506   -2.2077   24.2708 H   0  0  0  0  0  0  0  0  0  0  0  0
    8.5820   -3.0649   24.0141 H   0  0  0  0  0  0  0  0  0  0  0  0
  1  2  1  0
  2  3  1  0
  3  4  1  0
  4  5  1  0
  5  6  2  0
  6  7  1  0
  7  8  2  0
  8  9  1  0
  9 10  2  0
 10 11  1  0
 11 12  2  0
 12 13  1  0
 13 14  2  0
 13 15  1  0
 12 16  1  0
 11 17  1  0
 10 18  1  0
  8 19  1  0
  6 20  1  0
  4 21  1  0
 21 22  2  0
 21 23  1  0
 23 24  1  1
 24 25  1  0
 25 26  1  0
 26 27  1  0
 27 28  1  0
 28 29  1  0
 29 30  1  0
 30 31  1  0
 31 32  1  0
 32 33  1  0
 33 34  1  0
 33 35  1  0
 33 36  1  0
 32 37  1  0
 37 38  1  0
 37 39  1  0
 37 40  1  0
 32 41  1  0
 41 42  1  0
 41 43  1  0
 30 44  1  0
 30 45  1  0
 29 46  1  0
 29 47  1  0
 28 48  1  6
 27 49  1  0
 27 50  1  0
 26 51  1  0
 26 52  1  0
 25 53  1  0
 53 54  2  0
 53 55  1  0
 55 56  2  0
 56 57  1  0
 57 58  2  0
 58 59  1  0
 58 60  1  0
 60 61  2  0
 60 62  1  0
 57 63  1  0
 56 64  1  0
 24 65  1  0
 24 66  1  0
  3 67  1  0
  3 68  1  0
  2 69  1  6
  1 70  1  0
  1 71  1  0
  1 72  1  0
 23  2  1  0
 41 28  1  0
 61 55  1  0
 14  5  1  0
 61 23  1  0
 14  9  1  0
M  CHG  1  28   1
M  END
>  <cnnaffinities>  (33) 
[6.89453]

>  <score>  (33) 
6.89453

>  <index>  (33) 
32

>  <Smiles>  (33) 
C([C@]1(C(N(c2c(nc(c3c(c(c(c(c23)[H])[H])[H])[H])[H])[H])C(=O)[C@]21C(N(C(C([N@+]1(C(C(OC(C([H])([H])[H])(C([H])([H])[H])C1([H])[H])([H])[H])([H])[H])[H])([H])[H])([H])[H])C(=O)c1c(c(c(Cl)c(c21)[H])[H])[H])([H])[H])([H])[H])[H])([H])([H])[H]

>  <h>  (33) 
<NA>

>  <Training>  (33) 
True

>  <Success>  (33) 
True

>  <enamine_searched>  (33) 
False

>  <enamine_id>  (33) 
nan

$$$$

     RDKit          3D

 44 47  0  0  0  0  0  0  0  0999 V2000
    5.4451   -2.4019   20.9454 O   0  0  0  0  0  0  0  0  0  0  0  0
    6.2312   -1.7172   21.5864 C   0  0  0  0  0  0  0  0  0  0  0  0
    6.9121   -0.4909   20.9258 C   0  0  0  0  0  0  0  0  0  0  0  0
    6.1132    0.0840   19.7755 C   0  0  0  0  0  0  0  0  0  0  0  0
    6.4201   -0.2152   18.4720 C   0  0  0  0  0  0  0  0  0  0  0  0
    5.7540    0.2399   17.3759 N   0  0  0  0  0  0  0  0  0  0  0  0
    4.7343    1.0340   17.5791 C   0  0  0  0  0  0  0  0  0  0  0  0
    4.2832    1.4221   18.8716 C   0  0  0  0  0  0  0  0  0  0  0  0
    3.1605    2.2685   19.0496 C   0  0  0  0  0  0  0  0  0  0  0  0
    2.7494    2.6278   20.3009 C   0  0  0  0  0  0  0  0  0  0  0  0
    3.4463    2.1373   21.4306 C   0  0  0  0  0  0  0  0  0  0  0  0
    4.5333    1.3116   21.2940 C   0  0  0  0  0  0  0  0  0  0  0  0
    4.9884    0.9354   20.0029 C   0  0  0  0  0  0  0  0  0  0  0  0
    5.0489    0.9454   22.1813 H   0  0  0  0  0  0  0  0  0  0  0  0
    3.1104    2.4284   22.4185 H   0  0  0  0  0  0  0  0  0  0  0  0
    1.8950    3.2863   20.4374 H   0  0  0  0  0  0  0  0  0  0  0  0
    2.6409    2.6373   18.1670 H   0  0  0  0  0  0  0  0  0  0  0  0
    4.2014    1.4002   16.6971 H   0  0  0  0  0  0  0  0  0  0  0  0
    7.2640   -0.8656   18.2435 H   0  0  0  0  0  0  0  0  0  0  0  0
    7.8723   -0.8397   20.5201 H   0  0  0  0  0  0  0  0  0  0  0  0
    7.1574    0.2943   21.6520 H   0  0  0  0  0  0  0  0  0  0  0  0
    6.5561   -2.0578   22.8730 N   0  0  0  0  0  0  0  0  0  0  0  0
    6.0865   -3.3286   23.4229 C   0  0  0  0  0  0  0  0  0  0  0  0
    6.5999   -3.3629   24.8645 C   0  0  0  0  0  0  0  0  0  0  0  0
    7.6638   -2.2661   24.9544 C   0  0  0  0  0  0  0  0  0  0  0  0
    7.3548   -1.2848   23.8128 C   0  0  2  0  0  0  0  0  0  0  0  0
    6.6473   -0.0321   24.2976 C   0  0  0  0  0  0  0  0  0  0  0  0
    7.3292    1.1830   24.3526 C   0  0  0  0  0  0  0  0  0  0  0  0
    6.6917    2.3322   24.8051 C   0  0  0  0  0  0  0  0  0  0  0  0
    5.3692    2.2931   25.2257 C   0  0  0  0  0  0  0  0  0  0  0  0
    4.7239    1.0675   25.1920 C   0  0  0  0  0  0  0  0  0  0  0  0
    3.4437    1.0102   25.5944 F   0  0  0  0  0  0  0  0  0  0  0  0
    5.3316   -0.0928   24.7456 C   0  0  0  0  0  0  0  0  0  0  0  0
    4.7631   -1.0182   24.7446 H   0  0  0  0  0  0  0  0  0  0  0  0
    4.8441    3.1788   25.5665 H   0  0  0  0  0  0  0  0  0  0  0  0
    7.2267    3.2719   24.8163 H   0  0  0  0  0  0  0  0  0  0  0  0
    8.3672    1.2292   24.0314 H   0  0  0  0  0  0  0  0  0  0  0  0
    8.2871   -0.9847   23.3326 H   0  0  0  0  0  0  0  0  0  0  0  0
    7.6558   -1.7661   25.9246 H   0  0  0  0  0  0  0  0  0  0  0  0
    8.6669   -2.6857   24.8396 H   0  0  0  0  0  0  0  0  0  0  0  0
    7.0155   -4.3378   25.1237 H   0  0  0  0  0  0  0  0  0  0  0  0
    5.7939   -3.1834   25.5805 H   0  0  0  0  0  0  0  0  0  0  0  0
    6.4895   -4.1488   22.8247 H   0  0  0  0  0  0  0  0  0  0  0  0
    4.9963   -3.4120   23.3727 H   0  0  0  0  0  0  0  0  0  0  0  0
  1  2  2  0
  2  3  1  0
  3  4  1  0
  4  5  2  0
  5  6  1  0
  6  7  2  0
  7  8  1  0
  8  9  2  0
  9 10  1  0
 10 11  2  0
 11 12  1  0
 12 13  2  0
 12 14  1  0
 11 15  1  0
 10 16  1  0
  9 17  1  0
  7 18  1  0
  5 19  1  0
  3 20  1  0
  3 21  1  0
  2 22  1  0
 22 23  1  0
 23 24  1  0
 24 25  1  0
 25 26  1  0
 26 27  1  0
 27 28  2  0
 28 29  1  0
 29 30  2  0
 30 31  1  0
 31 32  1  0
 31 33  2  0
 33 34  1  0
 30 35  1  0
 29 36  1  0
 28 37  1  0
 26 38  1  6
 25 39  1  0
 25 40  1  0
 24 41  1  0
 24 42  1  0
 23 43  1  0
 23 44  1  0
 13  4  1  0
 26 22  1  0
 33 27  1  0
 13  8  1  0
M  END
>  <cnnaffinities>  (34) 
[5.70332, 5.68674]

>  <score>  (34) 
5.70332

>  <index>  (34) 
33

>  <Smiles>  (34) 
O=C(C(c1c(nc(c2c(c(c(c(c12)[H])[H])[H])[H])[H])[H])([H])[H])N1C(C(C([C@@]1(c1c(c(c(c(F)c1[H])[H])[H])[H])[H])([H])[H])([H])[H])([H])[H]

>  <h>  (34) 
<NA>

>  <Training>  (34) 
True

>  <Success>  (34) 
True

>  <enamine_searched>  (34) 
False

>  <enamine_id>  (34) 
nan

$$$$

     RDKit          3D

 58 63  0  0  0  0  0  0  0  0999 V2000
    7.0791   -2.3883   23.5127 C   0  0  0  0  0  0  0  0  0  0  0  0
    7.9652   -1.8284   22.3963 C   0  0  1  0  0  0  0  0  0  0  0  0
    7.2310   -1.7402   21.0464 C   0  0  0  0  0  0  0  0  0  0  0  0
    6.8918   -0.3428   20.9134 N   0  0  0  0  0  0  0  0  0  0  0  0
    6.1238    0.1226   19.8222 C   0  0  0  0  0  0  0  0  0  0  0  0
    6.4413   -0.2288   18.5331 C   0  0  0  0  0  0  0  0  0  0  0  0
    5.7822    0.2101   17.4360 N   0  0  0  0  0  0  0  0  0  0  0  0
    4.7567    1.0044   17.6217 C   0  0  0  0  0  0  0  0  0  0  0  0
    4.2859    1.3972   18.9065 C   0  0  0  0  0  0  0  0  0  0  0  0
    3.1484    2.2310   19.0652 C   0  0  0  0  0  0  0  0  0  0  0  0
    2.7181    2.5891   20.3115 C   0  0  0  0  0  0  0  0  0  0  0  0
    3.3903    2.1168   21.4617 C   0  0  0  0  0  0  0  0  0  0  0  0
    4.4847    1.2986   21.3372 C   0  0  0  0  0  0  0  0  0  0  0  0
    4.9733    0.9389   20.0504 C   0  0  0  0  0  0  0  0  0  0  0  0
    4.9875    0.9057   22.2171 H   0  0  0  0  0  0  0  0  0  0  0  0
    3.0442    2.4129   22.4490 H   0  0  0  0  0  0  0  0  0  0  0  0
    1.8583    3.2440   20.4211 H   0  0  0  0  0  0  0  0  0  0  0  0
    2.6414    2.5811   18.1699 H   0  0  0  0  0  0  0  0  0  0  0  0
    4.2387    1.3701   16.7348 H   0  0  0  0  0  0  0  0  0  0  0  0
    7.2929   -0.8794   18.3343 H   0  0  0  0  0  0  0  0  0  0  0  0
    7.7510    0.4769   21.6218 C   0  0  0  0  0  0  0  0  0  0  0  0
    7.8363    1.6730   21.4615 O   0  0  0  0  0  0  0  0  0  0  0  0
    8.5532   -0.4010   22.6207 C   0  0  1  0  0  0  0  0  0  0  0  0
    8.3733    0.1079   24.0732 C   0  0  0  0  0  0  0  0  0  0  0  0
    8.9689    1.4189   24.2748 N   0  0  0  0  0  0  0  0  0  0  0  0
    8.2215    2.4308   25.0020 C   0  0  0  0  0  0  0  0  0  0  0  0
    7.3518    3.2758   24.1190 C   0  0  0  0  0  0  0  0  0  0  0  0
    5.9675    3.2426   23.8918 C   0  0  0  0  0  0  0  0  0  0  0  0
    5.6517    4.2017   23.0268 N   0  0  0  0  0  0  0  0  0  0  0  0
    6.8071    4.7804   22.7695 N   0  0  0  0  0  0  0  0  0  0  0  0
    6.9414    5.7693   21.7175 C   0  0  0  0  0  0  0  0  0  0  0  0
    7.7796    6.4233   21.9606 H   0  0  0  0  0  0  0  0  0  0  0  0
    6.0125    6.3374   21.6689 H   0  0  0  0  0  0  0  0  0  0  0  0
    7.1207    5.2723   20.7601 H   0  0  0  0  0  0  0  0  0  0  0  0
    7.8498    4.2700   23.3929 N   0  0  0  0  0  0  0  0  0  0  0  0
    5.1987    2.5799   24.2634 H   0  0  0  0  0  0  0  0  0  0  0  0
    7.6074    1.9425   25.7641 H   0  0  0  0  0  0  0  0  0  0  0  0
    8.9606    3.0718   25.4898 H   0  0  0  0  0  0  0  0  0  0  0  0
   10.1976    1.7547   23.7776 C   0  0  0  0  0  0  0  0  0  0  0  0
   10.7959    2.7710   24.1106 O   0  0  0  0  0  0  0  0  0  0  0  0
   10.7980    0.7538   22.8402 C   0  0  0  0  0  0  0  0  0  0  0  0
   12.1516    0.8940   22.5404 C   0  0  0  0  0  0  0  0  0  0  0  0
   12.8240   -0.0729   21.8177 C   0  0  0  0  0  0  0  0  0  0  0  0
   12.0867   -1.1621   21.3649 C   0  0  0  0  0  0  0  0  0  0  0  0
   12.7020   -2.1227   20.6552 F   0  0  0  0  0  0  0  0  0  0  0  0
   10.7228   -1.2682   21.5574 C   0  0  0  0  0  0  0  0  0  0  0  0
   10.0496   -0.3184   22.3357 C   0  0  0  0  0  0  0  0  0  0  0  0
   10.2155   -2.0967   21.0794 H   0  0  0  0  0  0  0  0  0  0  0  0
   13.8838   -0.0039   21.5972 H   0  0  0  0  0  0  0  0  0  0  0  0
   12.6660    1.7665   22.9289 H   0  0  0  0  0  0  0  0  0  0  0  0
    7.3129    0.1897   24.3148 H   0  0  0  0  0  0  0  0  0  0  0  0
    8.8325   -0.6307   24.7497 H   0  0  0  0  0  0  0  0  0  0  0  0
    6.3242   -2.3498   21.0040 H   0  0  0  0  0  0  0  0  0  0  0  0
    7.8937   -2.0438   20.2279 H   0  0  0  0  0  0  0  0  0  0  0  0
    8.7895   -2.5393   22.3216 H   0  0  0  0  0  0  0  0  0  0  0  0
    7.6401   -2.4626   24.4497 H   0  0  0  0  0  0  0  0  0  0  0  0
    6.1847   -1.7819   23.6912 H   0  0  0  0  0  0  0  0  0  0  0  0
    6.7601   -3.4025   23.2513 H   0  0  0  0  0  0  0  0  0  0  0  0
  1  2  1  0
  2  3  1  0
  3  4  1  0
  4  5  1  0
  5  6  2  0
  6  7  1  0
  7  8  2  0
  8  9  1  0
  9 10  2  0
 10 11  1  0
 11 12  2  0
 12 13  1  0
 13 14  2  0
 13 15  1  0
 12 16  1  0
 11 17  1  0
 10 18  1  0
  8 19  1  0
  6 20  1  0
  4 21  1  0
 21 22  2  0
 21 23  1  0
 23 24  1  1
 24 25  1  0
 25 26  1  0
 26 27  1  0
 27 28  1  0
 28 29  2  0
 29 30  1  0
 30 31  1  0
 31 32  1  0
 31 33  1  0
 31 34  1  0
 30 35  1  0
 28 36  1  0
 26 37  1  0
 26 38  1  0
 25 39  1  0
 39 40  2  0
 39 41  1  0
 41 42  2  0
 42 43  1  0
 43 44  2  0
 44 45  1  0
 44 46  1  0
 46 47  2  0
 46 48  1  0
 43 49  1  0
 42 50  1  0
 24 51  1  0
 24 52  1  0
  3 53  1  0
  3 54  1  0
  2 55  1  6
  1 56  1  0
  1 57  1  0
  1 58  1  0
 23  2  1  0
 35 27  2  0
 47 41  1  0
 14  5  1  0
 47 23  1  0
 14  9  1  0
M  END
>  <cnnaffinities>  (35) 
[6.53283, 6.61073]

>  <score>  (35) 
6.53283

>  <index>  (35) 
34

>  <Smiles>  (35) 
C([C@]1(C(N(c2c(nc(c3c(c(c(c(c23)[H])[H])[H])[H])[H])[H])C(=O)[C@]21C(N(C(c1c(nn(C([H])([H])[H])n1)[H])([H])[H])C(=O)c1c(c(c(F)c(c21)[H])[H])[H])([H])[H])([H])[H])[H])([H])([H])[H]

>  <h>  (35) 
<NA>

>  <Training>  (35) 
True

>  <Success>  (35) 
True

>  <enamine_searched>  (35) 
False

>  <enamine_id>  (35) 
nan

$$$$

     RDKit          3D

 51 54  0  0  0  0  0  0  0  0999 V2000
   13.4400    0.3900   22.4550 N   0  0  0  0  0  0  0  0  0  0  0  0
   13.0022   -0.4699   23.0924 C   0  0  0  0  0  0  0  0  0  0  0  0
   12.4045   -1.5867   23.8432 C   0  0  0  0  0  0  0  0  0  0  0  0
   11.0001   -1.8592   23.3601 C   0  0  0  0  0  0  0  0  0  0  0  0
    9.8975   -1.2426   23.9383 C   0  0  0  0  0  0  0  0  0  0  0  0
    8.6171   -1.4925   23.4629 C   0  0  0  0  0  0  0  0  0  0  0  0
    8.4133   -2.3955   22.4242 C   0  0  0  0  0  0  0  0  0  0  0  0
    7.0965   -2.7195   21.9865 N   0  0  0  0  0  0  0  0  0  0  0  0
    6.5667   -4.0448   22.2831 C   0  0  0  0  0  0  0  0  0  0  0  0
    6.0529   -4.1392   23.7029 C   0  0  0  0  0  0  0  0  0  0  0  0
    4.7086   -3.9052   23.9871 C   0  0  0  0  0  0  0  0  0  0  0  0
    4.2591   -3.9336   25.3024 C   0  0  0  0  0  0  0  0  0  0  0  0
    5.1407   -4.1786   26.3477 C   0  0  0  0  0  0  0  0  0  0  0  0
    6.4801   -4.4009   26.0561 C   0  0  0  0  0  0  0  0  0  0  0  0
    7.5993   -4.6942   27.3581 Cl  0  0  0  0  0  0  0  0  0  0  0  0
    6.9425   -4.3903   24.7470 C   0  0  0  0  0  0  0  0  0  0  0  0
    8.0003   -4.5504   24.5513 H   0  0  0  0  0  0  0  0  0  0  0  0
    4.8014   -4.1963   27.3791 H   0  0  0  0  0  0  0  0  0  0  0  0
    3.2086   -3.7661   25.5189 H   0  0  0  0  0  0  0  0  0  0  0  0
    4.0143   -3.6779   23.1822 H   0  0  0  0  0  0  0  0  0  0  0  0
    5.7674   -4.2269   21.5637 H   0  0  0  0  0  0  0  0  0  0  0  0
    7.3556   -4.7857   22.1121 H   0  0  0  0  0  0  0  0  0  0  0  0
    6.2447   -1.8112   21.4031 C   0  0  0  0  0  0  0  0  0  0  0  0
    5.0512   -2.0392   21.2734 O   0  0  0  0  0  0  0  0  0  0  0  0
    6.8944   -0.5290   20.8871 C   0  0  0  0  0  0  0  0  0  0  0  0
    6.1096    0.0733   19.7670 C   0  0  0  0  0  0  0  0  0  0  0  0
    6.4316   -0.2183   18.4680 C   0  0  0  0  0  0  0  0  0  0  0  0
    5.7704    0.2368   17.3759 N   0  0  0  0  0  0  0  0  0  0  0  0
    4.7403    1.0200   17.5871 C   0  0  0  0  0  0  0  0  0  0  0  0
    4.2812    1.3893   18.8797 C   0  0  0  0  0  0  0  0  0  0  0  0
    3.1545    2.2297   19.0584 C   0  0  0  0  0  0  0  0  0  0  0  0
    2.7497    2.5914   20.3139 C   0  0  0  0  0  0  0  0  0  0  0  0
    3.4392    2.1067   21.4461 C   0  0  0  0  0  0  0  0  0  0  0  0
    4.5195    1.2725   21.3016 C   0  0  0  0  0  0  0  0  0  0  0  0
    4.9784    0.9036   20.0073 C   0  0  0  0  0  0  0  0  0  0  0  0
    5.0201    0.8846   22.1832 H   0  0  0  0  0  0  0  0  0  0  0  0
    3.1116    2.4025   22.4389 H   0  0  0  0  0  0  0  0  0  0  0  0
    1.8999    3.2543   20.4452 H   0  0  0  0  0  0  0  0  0  0  0  0
    2.6335    2.5878   18.1753 H   0  0  0  0  0  0  0  0  0  0  0  0
    4.2078    1.4026   16.7153 H   0  0  0  0  0  0  0  0  0  0  0  0
    7.2790   -0.8692   18.2504 H   0  0  0  0  0  0  0  0  0  0  0  0
    7.0135    0.1699   21.7294 H   0  0  0  0  0  0  0  0  0  0  0  0
    7.9016   -0.8023   20.5516 H   0  0  0  0  0  0  0  0  0  0  0  0
    9.5184   -2.9928   21.8299 C   0  0  0  0  0  0  0  0  0  0  0  0
   10.7950   -2.7115   22.2846 C   0  0  0  0  0  0  0  0  0  0  0  0
   11.6396   -3.1690   21.7845 H   0  0  0  0  0  0  0  0  0  0  0  0
    9.3869   -3.6814   21.0078 H   0  0  0  0  0  0  0  0  0  0  0  0
    7.7631   -1.0008   23.9172 H   0  0  0  0  0  0  0  0  0  0  0  0
   10.0422   -0.5495   24.7611 H   0  0  0  0  0  0  0  0  0  0  0  0
   13.0231   -2.4843   23.7264 H   0  0  0  0  0  0  0  0  0  0  0  0
   12.4129   -1.3287   24.9033 H   0  0  0  0  0  0  0  0  0  0  0  0
  1  2  3  0
  2  3  1  0
  3  4  1  0
  4  5  2  0
  5  6  1  0
  6  7  2  0
  7  8  1  0
  8  9  1  0
  9 10  1  0
 10 11  2  0
 11 12  1  0
 12 13  2  0
 13 14  1  0
 14 15  1  0
 14 16  2  0
 16 17  1  0
 13 18  1  0
 12 19  1  0
 11 20  1  0
  9 21  1  0
  9 22  1  0
  8 23  1  0
 23 24  2  0
 23 25  1  0
 25 26  1  0
 26 27  2  0
 27 28  1  0
 28 29  2  0
 29 30  1  0
 30 31  2  0
 31 32  1  0
 32 33  2  0
 33 34  1  0
 34 35  2  0
 34 36  1  0
 33 37  1  0
 32 38  1  0
 31 39  1  0
 29 40  1  0
 27 41  1  0
 25 42  1  0
 25 43  1  0
  7 44  1  0
 44 45  2  0
 45 46  1  0
 44 47  1  0
  6 48  1  0
  5 49  1  0
  3 50  1  0
  3 51  1  0
 45  4  1  0
 16 10  1  0
 35 26  1  0
 35 30  1  0
M  END
>  <cnnaffinities>  (36) 
[6.92138]

>  <score>  (36) 
6.92138

>  <index>  (36) 
35

>  <Smiles>  (36) 
N#CC(c1c(c(c(N(C(c2c(c(c(c(Cl)c2[H])[H])[H])[H])([H])[H])C(=O)C(c2c(nc(c3c(c(c(c(c23)[H])[H])[H])[H])[H])[H])([H])[H])c(c1[H])[H])[H])[H])([H])[H]

>  <h>  (36) 
<NA>

>  <Training>  (36) 
True

>  <Success>  (36) 
True

>  <enamine_searched>  (36) 
False

>  <enamine_id>  (36) 
nan

$$$$

     RDKit          3D

 59 64  0  0  0  0  0  0  0  0999 V2000
    6.5794   -2.0064   23.7943 C   0  0  0  0  0  0  0  0  0  0  0  0
    7.5887   -1.7795   22.6524 C   0  0  1  0  0  0  0  0  0  0  0  0
    6.8593   -1.7786   21.2854 C   0  0  0  0  0  0  0  0  0  0  0  0
    6.8810   -0.3984   20.8652 N   0  0  0  0  0  0  0  0  0  0  0  0
    6.1283    0.1105   19.7762 C   0  0  0  0  0  0  0  0  0  0  0  0
    6.4406   -0.2247   18.4834 C   0  0  0  0  0  0  0  0  0  0  0  0
    5.7660    0.2224   17.4004 N   0  0  0  0  0  0  0  0  0  0  0  0
    4.7513    1.0288   17.6016 C   0  0  0  0  0  0  0  0  0  0  0  0
    4.3039    1.4421   18.8881 C   0  0  0  0  0  0  0  0  0  0  0  0
    3.1721    2.2814   19.0713 C   0  0  0  0  0  0  0  0  0  0  0  0
    2.7568    2.6357   20.3264 C   0  0  0  0  0  0  0  0  0  0  0  0
    3.4472    2.1531   21.4602 C   0  0  0  0  0  0  0  0  0  0  0  0
    4.5416    1.3365   21.3078 C   0  0  0  0  0  0  0  0  0  0  0  0
    5.0093    0.9673   20.0176 C   0  0  0  0  0  0  0  0  0  0  0  0
    5.0609    0.9554   22.1814 H   0  0  0  0  0  0  0  0  0  0  0  0
    3.1231    2.4428   22.4563 H   0  0  0  0  0  0  0  0  0  0  0  0
    1.9037    3.2964   20.4509 H   0  0  0  0  0  0  0  0  0  0  0  0
    2.6500    2.6350   18.1873 H   0  0  0  0  0  0  0  0  0  0  0  0
    4.2256    1.3854   16.7168 H   0  0  0  0  0  0  0  0  0  0  0  0
    7.2822   -0.8807   18.2667 H   0  0  0  0  0  0  0  0  0  0  0  0
    7.7909    0.3910   21.5341 C   0  0  0  0  0  0  0  0  0  0  0  0
    8.0748    1.5178   21.2041 O   0  0  0  0  0  0  0  0  0  0  0  0
    8.3998   -0.4386   22.6980 C   0  0  1  0  0  0  0  0  0  0  0  0
    8.2651    0.2851   24.0613 C   0  0  0  0  0  0  0  0  0  0  0  0
    9.0988    1.4641   24.1621 N   0  0  0  0  0  0  0  0  0  0  0  0
    8.5106    2.7112   24.6343 C   0  0  0  0  0  0  0  0  0  0  0  0
    8.0877    3.6310   23.5185 C   0  0  0  0  0  0  0  0  0  0  0  0
    8.8955    4.5797   22.8648 C   0  0  0  0  0  0  0  0  0  0  0  0
    8.0394    5.2251   22.0043 C   0  0  0  0  0  0  0  0  0  0  0  0
    6.8379    4.6193   22.1085 N   0  0  0  0  0  0  0  0  0  0  0  0
    5.7060    4.7759   21.2098 C   0  0  0  0  0  0  0  0  0  0  0  0
    4.7989    4.8149   21.8175 H   0  0  0  0  0  0  0  0  0  0  0  0
    5.8571    5.7205   20.6794 H   0  0  0  0  0  0  0  0  0  0  0  0
    5.6118    3.9508   20.4809 H   0  0  0  0  0  0  0  0  0  0  0  0
    6.8411    3.6670   23.0597 N   0  0  0  0  0  0  0  0  0  0  0  0
    8.1809    6.0681   21.3384 H   0  0  0  0  0  0  0  0  0  0  0  0
    9.9652    4.6668   22.9718 H   0  0  0  0  0  0  0  0  0  0  0  0
    9.2668    3.2168   25.2433 H   0  0  0  0  0  0  0  0  0  0  0  0
    7.6458    2.4685   25.2681 H   0  0  0  0  0  0  0  0  0  0  0  0
   10.4092    1.4629   23.7743 C   0  0  0  0  0  0  0  0  0  0  0  0
   11.1771    2.3758   24.0637 O   0  0  0  0  0  0  0  0  0  0  0  0
   10.8244    0.2955   22.9337 C   0  0  0  0  0  0  0  0  0  0  0  0
   12.1702    0.2001   22.5897 C   0  0  0  0  0  0  0  0  0  0  0  0
   12.5932   -0.7677   21.7072 C   0  0  0  0  0  0  0  0  0  0  0  0
   11.6718   -1.6839   21.2207 C   0  0  0  0  0  0  0  0  0  0  0  0
   12.1254   -2.6670   20.4256 F   0  0  0  0  0  0  0  0  0  0  0  0
   10.3264   -1.6025   21.5222 C   0  0  0  0  0  0  0  0  0  0  0  0
    9.8891   -0.6124   22.4153 C   0  0  0  0  0  0  0  0  0  0  0  0
    9.6441   -2.2788   21.0151 H   0  0  0  0  0  0  0  0  0  0  0  0
   13.6141   -0.8090   21.3555 H   0  0  0  0  0  0  0  0  0  0  0  0
   12.8665    0.9066   23.0257 H   0  0  0  0  0  0  0  0  0  0  0  0
    7.2365    0.6286   24.1884 H   0  0  0  0  0  0  0  0  0  0  0  0
    8.5272   -0.4248   24.8634 H   0  0  0  0  0  0  0  0  0  0  0  0
    7.3646   -2.4221   20.5570 H   0  0  0  0  0  0  0  0  0  0  0  0
    5.8212   -2.1243   21.3699 H   0  0  0  0  0  0  0  0  0  0  0  0
    8.3026   -2.6112   22.7008 H   0  0  0  0  0  0  0  0  0  0  0  0
    6.0638   -2.9645   23.6516 H   0  0  0  0  0  0  0  0  0  0  0  0
    5.8144   -1.2191   23.8265 H   0  0  0  0  0  0  0  0  0  0  0  0
    7.0715   -2.0468   24.7715 H   0  0  0  0  0  0  0  0  0  0  0  0
  1  2  1  0
  2  3  1  0
  3  4  1  0
  4  5  1  0
  5  6  2  0
  6  7  1  0
  7  8  2  0
  8  9  1  0
  9 10  2  0
 10 11  1  0
 11 12  2  0
 12 13  1  0
 13 14  2  0
 13 15  1  0
 12 16  1  0
 11 17  1  0
 10 18  1  0
  8 19  1  0
  6 20  1  0
  4 21  1  0
 21 22  2  0
 21 23  1  0
 23 24  1  1
 24 25  1  0
 25 26  1  0
 26 27  1  0
 27 28  1  0
 28 29  2  0
 29 30  1  0
 30 31  1  0
 31 32  1  0
 31 33  1  0
 31 34  1  0
 30 35  1  0
 29 36  1  0
 28 37  1  0
 26 38  1  0
 26 39  1  0
 25 40  1  0
 40 41  2  0
 40 42  1  0
 42 43  2  0
 43 44  1  0
 44 45  2  0
 45 46  1  0
 45 47  1  0
 47 48  2  0
 47 49  1  0
 44 50  1  0
 43 51  1  0
 24 52  1  0
 24 53  1  0
  3 54  1  0
  3 55  1  0
  2 56  1  6
  1 57  1  0
  1 58  1  0
  1 59  1  0
 23  2  1  0
 35 27  2  0
 48 42  1  0
 14  5  1  0
 48 23  1  0
 14  9  1  0
M  END
>  <cnnaffinities>  (37) 
[6.17921]

>  <score>  (37) 
6.17921

>  <index>  (37) 
36

>  <Smiles>  (37) 
C([C@]1(C(N(c2c(nc(c3c(c(c(c(c23)[H])[H])[H])[H])[H])[H])C(=O)[C@]21C(N(C(c1c(c(n(C([H])([H])[H])n1)[H])[H])([H])[H])C(=O)c1c(c(c(F)c(c21)[H])[H])[H])([H])[H])([H])[H])[H])([H])([H])[H]

>  <h>  (37) 
<NA>

>  <Training>  (37) 
True

>  <Success>  (37) 
True

>  <enamine_searched>  (37) 
False

>  <enamine_id>  (37) 
nan

$$$$

     RDKit          3D

 48 51  0  0  0  0  0  0  0  0999 V2000
   13.4150   -1.3583   24.3522 N   0  0  0  0  0  0  0  0  0  0  0  0
   12.3599   -1.6077   23.9456 C   0  0  0  0  0  0  0  0  0  0  0  0
   11.0227   -1.8902   23.4737 C   0  0  0  0  0  0  0  0  0  0  0  0
    9.9252   -1.1772   23.9603 C   0  0  0  0  0  0  0  0  0  0  0  0
    8.6450   -1.4513   23.4981 C   0  0  0  0  0  0  0  0  0  0  0  0
    8.4289   -2.4374   22.5366 C   0  0  0  0  0  0  0  0  0  0  0  0
    7.1258   -2.7418   22.0348 N   0  0  0  0  0  0  0  0  0  0  0  0
    6.5278   -4.0321   22.4243 C   0  0  0  0  0  0  0  0  0  0  0  0
    5.9675   -4.0419   23.8359 C   0  0  0  0  0  0  0  0  0  0  0  0
    6.8145   -4.2332   24.9281 C   0  0  0  0  0  0  0  0  0  0  0  0
    6.3144   -4.1597   26.2220 C   0  0  0  0  0  0  0  0  0  0  0  0
    4.9693   -3.8992   26.4464 C   0  0  0  0  0  0  0  0  0  0  0  0
    4.1363   -3.7075   25.3542 C   0  0  0  0  0  0  0  0  0  0  0  0
    2.4532   -3.3742   25.6170 Cl  0  0  0  0  0  0  0  0  0  0  0  0
    4.6162   -3.7784   24.0543 C   0  0  0  0  0  0  0  0  0  0  0  0
    3.9494   -3.6041   23.2148 H   0  0  0  0  0  0  0  0  0  0  0  0
    4.5762   -3.8437   27.4555 H   0  0  0  0  0  0  0  0  0  0  0  0
    6.9806   -4.3070   27.0647 H   0  0  0  0  0  0  0  0  0  0  0  0
    7.8759   -4.4201   24.7671 H   0  0  0  0  0  0  0  0  0  0  0  0
    7.3039   -4.7993   22.3446 H   0  0  0  0  0  0  0  0  0  0  0  0
    5.7512   -4.2936   21.7030 H   0  0  0  0  0  0  0  0  0  0  0  0
    6.2925   -1.7740   21.4888 C   0  0  0  0  0  0  0  0  0  0  0  0
    5.0909   -1.9452   21.4112 O   0  0  0  0  0  0  0  0  0  0  0  0
    6.9392   -0.5080   20.8869 C   0  0  0  0  0  0  0  0  0  0  0  0
    6.1193    0.0925   19.7691 C   0  0  0  0  0  0  0  0  0  0  0  0
    6.4202   -0.2102   18.4675 C   0  0  0  0  0  0  0  0  0  0  0  0
    5.7542    0.2379   17.3724 N   0  0  0  0  0  0  0  0  0  0  0  0
    4.7342    1.0344   17.5776 C   0  0  0  0  0  0  0  0  0  0  0  0
    4.2834    1.4224   18.8698 C   0  0  0  0  0  0  0  0  0  0  0  0
    3.1578    2.2701   19.0464 C   0  0  0  0  0  0  0  0  0  0  0  0
    2.7436    2.6230   20.3006 C   0  0  0  0  0  0  0  0  0  0  0  0
    3.4318    2.1336   21.4309 C   0  0  0  0  0  0  0  0  0  0  0  0
    4.5228    1.3127   21.2884 C   0  0  0  0  0  0  0  0  0  0  0  0
    4.9863    0.9343   20.0007 C   0  0  0  0  0  0  0  0  0  0  0  0
    5.0262    0.9258   22.1683 H   0  0  0  0  0  0  0  0  0  0  0  0
    3.0919    2.4108   22.4228 H   0  0  0  0  0  0  0  0  0  0  0  0
    1.8867    3.2764   20.4331 H   0  0  0  0  0  0  0  0  0  0  0  0
    2.6387    2.6399   18.1642 H   0  0  0  0  0  0  0  0  0  0  0  0
    4.1987    1.4007   16.6982 H   0  0  0  0  0  0  0  0  0  0  0  0
    7.2625   -0.8644   18.2463 H   0  0  0  0  0  0  0  0  0  0  0  0
    7.9423   -0.7526   20.5198 H   0  0  0  0  0  0  0  0  0  0  0  0
    7.0817    0.2316   21.6824 H   0  0  0  0  0  0  0  0  0  0  0  0
    9.5212   -3.1558   22.0728 C   0  0  0  0  0  0  0  0  0  0  0  0
   10.8061   -2.8839   22.5212 C   0  0  0  0  0  0  0  0  0  0  0  0
   11.6733   -3.4096   22.1498 H   0  0  0  0  0  0  0  0  0  0  0  0
    9.3344   -3.8893   21.3060 H   0  0  0  0  0  0  0  0  0  0  0  0
    7.8036   -0.9004   23.8989 H   0  0  0  0  0  0  0  0  0  0  0  0
   10.0832   -0.3997   24.6981 H   0  0  0  0  0  0  0  0  0  0  0  0
  1  2  3  0
  2  3  1  0
  3  4  2  0
  4  5  1  0
  5  6  2  0
  6  7  1  0
  7  8  1  0
  8  9  1  0
  9 10  2  0
 10 11  1  0
 11 12  2  0
 12 13  1  0
 13 14  1  0
 13 15  2  0
 15 16  1  0
 12 17  1  0
 11 18  1  0
 10 19  1  0
  8 20  1  0
  8 21  1  0
  7 22  1  0
 22 23  2  0
 22 24  1  0
 24 25  1  0
 25 26  2  0
 26 27  1  0
 27 28  2  0
 28 29  1  0
 29 30  2  0
 30 31  1  0
 31 32  2  0
 32 33  1  0
 33 34  2  0
 33 35  1  0
 32 36  1  0
 31 37  1  0
 30 38  1  0
 28 39  1  0
 26 40  1  0
 24 41  1  0
 24 42  1  0
  6 43  1  0
 43 44  2  0
 44 45  1  0
 43 46  1  0
  5 47  1  0
  4 48  1  0
 44  3  1  0
 15  9  1  0
 34 25  1  0
 34 29  1  0
M  END
>  <cnnaffinities>  (38) 
[6.67187, 6.03182, 6.02202, 6.41932]

>  <score>  (38) 
6.67187

>  <index>  (38) 
37

>  <Smiles>  (38) 
N#Cc1c(c(c(N(C(c2c(c(c(c(Cl)c2[H])[H])[H])[H])([H])[H])C(=O)C(c2c(nc(c3c(c(c(c(c23)[H])[H])[H])[H])[H])[H])([H])[H])c(c1[H])[H])[H])[H]

>  <h>  (38) 
<NA>

>  <Training>  (38) 
True

>  <Success>  (38) 
True

>  <enamine_searched>  (38) 
False

>  <enamine_id>  (38) 
nan

$$$$

     RDKit          3D

 72 77  0  0  0  0  0  0  0  0999 V2000
    4.8486   -7.5645   20.1293 C   0  0  0  0  0  0  0  0  0  0  0  0
    5.4259   -6.2937   19.6304 N   0  0  0  0  0  4  0  0  0  0  0  0
    5.6314   -5.2522   20.6851 C   0  0  0  0  0  0  0  0  0  0  0  0
    6.8328   -5.5361   21.5942 C   0  0  0  0  0  0  0  0  0  0  0  0
    7.0011   -4.4591   22.5504 N   0  0  0  0  0  0  0  0  0  0  0  0
    7.9564   -3.4055   22.3089 C   0  0  0  0  0  0  0  0  0  0  0  0
    7.4067   -1.9969   22.6564 C   0  0  2  0  0  0  0  0  0  0  0  0
    6.2791   -1.6101   21.6653 C   0  0  0  0  0  0  0  0  0  0  0  0
    5.1706   -2.1047   21.5981 O   0  0  0  0  0  0  0  0  0  0  0  0
    6.7404   -0.6051   20.8410 N   0  0  0  0  0  0  0  0  0  0  0  0
    5.9921   -0.0382   19.7864 C   0  0  0  0  0  0  0  0  0  0  0  0
    6.3796   -0.2537   18.4879 C   0  0  0  0  0  0  0  0  0  0  0  0
    5.7457    0.2432   17.4017 N   0  0  0  0  0  0  0  0  0  0  0  0
    4.7047    1.0097   17.6096 C   0  0  0  0  0  0  0  0  0  0  0  0
    4.2161    1.3465   18.9034 C   0  0  0  0  0  0  0  0  0  0  0  0
    3.1001    2.2076   19.0665 C   0  0  0  0  0  0  0  0  0  0  0  0
    2.6960    2.5855   20.3165 C   0  0  0  0  0  0  0  0  0  0  0  0
    3.3799    2.1111   21.4585 C   0  0  0  0  0  0  0  0  0  0  0  0
    4.4450    1.2510   21.3281 C   0  0  0  0  0  0  0  0  0  0  0  0
    4.8833    0.8350   20.0383 C   0  0  0  0  0  0  0  0  0  0  0  0
    4.9663    0.8885   22.2089 H   0  0  0  0  0  0  0  0  0  0  0  0
    3.0612    2.4373   22.4445 H   0  0  0  0  0  0  0  0  0  0  0  0
    1.8566    3.2650   20.4357 H   0  0  0  0  0  0  0  0  0  0  0  0
    2.6001    2.5716   18.1726 H   0  0  0  0  0  0  0  0  0  0  0  0
    4.1980    1.4131   16.7330 H   0  0  0  0  0  0  0  0  0  0  0  0
    7.2457   -0.8804   18.2832 H   0  0  0  0  0  0  0  0  0  0  0  0
    8.1671   -0.3933   20.9495 C   0  0  0  0  0  0  0  0  0  0  0  0
    8.4870   -0.9197   22.3599 C   0  0  2  0  0  0  0  0  0  0  0  0
    9.9417   -1.3827   22.4675 C   0  0  0  0  0  0  0  0  0  0  0  0
   10.8097   -0.2938   22.4367 O   0  0  0  0  0  0  0  0  0  0  0  0
   11.3560   -0.0507   23.7085 C   0  0  0  0  0  0  0  0  0  0  0  0
   11.9045    1.3111   23.5634 C   0  0  0  0  0  0  0  0  0  0  0  0
   10.8678    2.2302   23.5221 C   0  0  0  0  0  0  0  0  0  0  0  0
   10.8486    3.9982   23.9309 S   0  0  0  0  0  0  0  0  0  0  0  0
   12.1439    4.6059   24.1787 O   0  0  0  0  0  0  0  0  0  0  0  0
    9.6468    4.3457   24.6782 O   0  0  0  0  0  0  0  0  0  0  0  0
   12.0803    1.2963   23.8627 C   0  0  0  0  0  0  0  0  0  0  0  0
   13.1783    1.0682   24.5507 H   0  0  0  0  0  0  0  0  0  0  0  0
   12.1030    1.3691   25.0759 H   0  0  0  0  0  0  0  0  0  0  0  0
   10.7926    2.1578   22.4451 H   0  0  0  0  0  0  0  0  0  0  0  0
    9.9225    1.8338   23.8756 H   0  0  0  0  0  0  0  0  0  0  0  0
   12.9294    1.7109   22.7302 H   0  0  0  0  0  0  0  0  0  0  0  0
   10.5532   -0.0846   24.4496 H   0  0  0  0  0  0  0  0  0  0  0  0
   12.0601   -0.8605   23.9312 H   0  0  0  0  0  0  0  0  0  0  0  0
   10.1810   -2.0447   21.6209 H   0  0  0  0  0  0  0  0  0  0  0  0
   10.0973   -1.9574   23.3946 H   0  0  0  0  0  0  0  0  0  0  0  0
    8.3460   -0.0887   23.0555 H   0  0  0  0  0  0  0  0  0  0  0  0
    8.3966    0.6688   20.8241 H   0  0  0  0  0  0  0  0  0  0  0  0
    8.7311   -0.9496   20.1851 H   0  0  0  0  0  0  0  0  0  0  0  0
    6.8863   -2.0657   24.0837 C   0  0  0  0  0  0  0  0  0  0  0  0
    6.8204   -0.9421   24.9205 C   0  0  0  0  0  0  0  0  0  0  0  0
    6.2821   -1.0606   26.1914 C   0  0  0  0  0  0  0  0  0  0  0  0
    6.1107    0.3575   27.1884 Cl  0  0  0  0  0  0  0  0  0  0  0  0
    5.8325   -2.2807   26.6922 C   0  0  0  0  0  0  0  0  0  0  0  0
    5.8652   -3.3825   25.8626 C   0  0  0  0  0  0  0  0  0  0  0  0
    6.3606   -3.2761   24.5661 C   0  0  0  0  0  0  0  0  0  0  0  0
    6.2715   -4.4973   23.6981 C   0  0  0  0  0  0  0  0  0  0  0  0
    5.5746   -5.4602   23.9985 O   0  0  0  0  0  0  0  0  0  0  0  0
    5.4949   -4.3477   26.1891 H   0  0  0  0  0  0  0  0  0  0  0  0
    5.4523   -2.3443   27.7066 H   0  0  0  0  0  0  0  0  0  0  0  0
    7.1734    0.0321   24.6007 H   0  0  0  0  0  0  0  0  0  0  0  0
    8.8548   -3.5854   22.9134 H   0  0  0  0  0  0  0  0  0  0  0  0
    8.2440   -3.4190   21.2587 H   0  0  0  0  0  0  0  0  0  0  0  0
    7.7586   -5.6192   21.0116 H   0  0  0  0  0  0  0  0  0  0  0  0
    6.6998   -6.4575   22.1703 H   0  0  0  0  0  0  0  0  0  0  0  0
    4.7353   -5.1907   21.3023 H   0  0  0  0  0  0  0  0  0  0  0  0
    5.7613   -4.2917   20.1947 H   0  0  0  0  0  0  0  0  0  0  0  0
    6.3661   -6.4966   19.2213 H   0  0  0  0  0  0  0  0  0  0  0  0
    4.8176   -5.9363   18.8721 H   0  0  0  0  0  0  0  0  0  0  0  0
    4.0737   -7.3757   20.8729 H   0  0  0  0  0  0  0  0  0  0  0  0
    4.4117   -8.1153   19.2982 H   0  0  0  0  0  0  0  0  0  0  0  0
    5.5993   -8.1892   20.6141 H   0  0  0  0  0  0  0  0  0  0  0  0
  1  2  1  0
  2  3  1  0
  3  4  1  0
  4  5  1  0
  5  6  1  0
  7  6  1  6
  7  8  1  0
  8  9  2  0
  8 10  1  0
 10 11  1  0
 11 12  2  0
 12 13  1  0
 13 14  2  0
 14 15  1  0
 15 16  2  0
 16 17  1  0
 17 18  2  0
 18 19  1  0
 19 20  2  0
 19 21  1  0
 18 22  1  0
 17 23  1  0
 16 24  1  0
 14 25  1  0
 12 26  1  0
 10 27  1  0
 27 28  1  0
 28 29  1  0
 29 30  1  0
 30 31  1  0
 31 32  1  0
 32 33  1  0
 33 34  1  0
 34 35  2  0
 34 36  2  0
 34 37  1  0
 37 38  1  0
 37 39  1  0
 33 40  1  0
 33 41  1  0
 32 42  1  0
 31 43  1  0
 31 44  1  0
 29 45  1  0
 29 46  1  0
 28 47  1  1
 27 48  1  0
 27 49  1  0
  7 50  1  0
 50 51  2  0
 51 52  1  0
 52 53  1  0
 52 54  2  0
 54 55  1  0
 55 56  2  0
 56 57  1  0
 57 58  2  0
 55 59  1  0
 54 60  1  0
 51 61  1  0
  6 62  1  0
  6 63  1  0
  4 64  1  0
  4 65  1  0
  3 66  1  0
  3 67  1  0
  2 68  1  0
  2 69  1  0
  1 70  1  0
  1 71  1  0
  1 72  1  0
 57  5  1  0
 28  7  1  0
 37 32  1  0
 56 50  1  0
 20 11  1  0
 20 15  1  0
M  CHG  1   2   1
M  END
>  <cnnaffinities>  (39) 
[6.24346]

>  <score>  (39) 
6.24346

>  <index>  (39) 
38

>  <Smiles>  (39) 
C([N+](C(C(N1C([C@@]2(C(=O)N(c3c(nc(c4c(c(c(c(c34)[H])[H])[H])[H])[H])[H])C([C@@]2(C(OC(C2(C(S(=O)(=O)C2([H])[H])([H])[H])[H])([H])[H])([H])[H])[H])([H])[H])c2c(c(Cl)c(c(c2C1=O)[H])[H])[H])([H])[H])([H])[H])([H])[H])([H])[H])([H])([H])[H]

>  <h>  (39) 
<NA>

>  <Training>  (39) 
True

>  <Success>  (39) 
True

>  <enamine_searched>  (39) 
False

>  <enamine_id>  (39) 
nan

$$$$

     RDKit          3D

 60 64  0  0  0  0  0  0  0  0999 V2000
   11.4756   -0.5252   23.7659 C   0  0  0  0  0  0  0  0  0  0  0  0
   10.4895   -1.6630   23.5720 C   0  0  0  0  0  0  0  0  0  0  0  0
    9.8329   -1.5538   22.3216 O   0  0  0  0  0  0  0  0  0  0  0  0
    8.5592   -0.9563   22.3438 C   0  0  1  0  0  0  0  0  0  0  0  0
    8.2756   -0.4079   20.9509 C   0  0  0  0  0  0  0  0  0  0  0  0
    6.8331   -0.4777   20.8636 N   0  0  0  0  0  0  0  0  0  0  0  0
    6.1020    0.0735   19.7903 C   0  0  0  0  0  0  0  0  0  0  0  0
    6.4529   -0.2069   18.4955 C   0  0  0  0  0  0  0  0  0  0  0  0
    5.7918    0.2465   17.4050 N   0  0  0  0  0  0  0  0  0  0  0  0
    4.7547    1.0198   17.6117 C   0  0  0  0  0  0  0  0  0  0  0  0
    4.2902    1.3952   18.9029 C   0  0  0  0  0  0  0  0  0  0  0  0
    3.1603    2.2372   19.0647 C   0  0  0  0  0  0  0  0  0  0  0  0
    2.7650    2.6324   20.3106 C   0  0  0  0  0  0  0  0  0  0  0  0
    3.4729    2.1990   21.4541 C   0  0  0  0  0  0  0  0  0  0  0  0
    4.5570    1.3694   21.3252 C   0  0  0  0  0  0  0  0  0  0  0  0
    4.9878    0.9339   20.0401 C   0  0  0  0  0  0  0  0  0  0  0  0
    5.0898    1.0393   22.2115 H   0  0  0  0  0  0  0  0  0  0  0  0
    3.1537    2.5322   22.4374 H   0  0  0  0  0  0  0  0  0  0  0  0
    1.9157    3.2988   20.4277 H   0  0  0  0  0  0  0  0  0  0  0  0
    2.6350    2.5700   18.1714 H   0  0  0  0  0  0  0  0  0  0  0  0
    4.2186    1.3878   16.7354 H   0  0  0  0  0  0  0  0  0  0  0  0
    7.3027   -0.8585   18.2984 H   0  0  0  0  0  0  0  0  0  0  0  0
    6.3004   -1.4596   21.6732 C   0  0  0  0  0  0  0  0  0  0  0  0
    5.1747   -1.9036   21.5648 O   0  0  0  0  0  0  0  0  0  0  0  0
    7.3840   -1.9215   22.6762 C   0  0  1  0  0  0  0  0  0  0  0  0
    7.7613   -3.3939   22.3675 C   0  0  0  0  0  0  0  0  0  0  0  0
    6.6949   -4.2991   22.7799 N   0  0  0  0  0  0  0  0  0  0  0  0
    6.1380   -5.2660   21.8469 C   0  0  0  0  0  0  0  0  0  0  0  0
    7.0168   -6.5105   21.7671 C   0  0  0  0  0  0  0  0  0  0  0  0
    7.8331   -6.6549   20.8726 O   0  0  0  0  0  0  0  0  0  0  0  0
    6.8673   -7.4096   22.7767 N   0  0  0  0  0  0  0  0  0  0  0  0
    7.7860   -8.5254   22.8468 C   0  0  0  0  0  0  0  0  0  0  0  0
    8.7045   -8.2868   23.4013 H   0  0  0  0  0  0  0  0  0  0  0  0
    8.0642   -8.7539   21.8266 H   0  0  0  0  0  0  0  0  0  0  0  0
    7.2972   -9.4081   23.2615 H   0  0  0  0  0  0  0  0  0  0  0  0
    6.3301   -7.1335   23.5881 H   0  0  0  0  0  0  0  0  0  0  0  0
    5.1342   -5.5411   22.1853 H   0  0  0  0  0  0  0  0  0  0  0  0
    6.0543   -4.7866   20.8632 H   0  0  0  0  0  0  0  0  0  0  0  0
    6.2166   -4.2805   24.0546 C   0  0  0  0  0  0  0  0  0  0  0  0
    5.6194   -5.2443   24.5391 O   0  0  0  0  0  0  0  0  0  0  0  0
    6.3873   -2.9813   24.7769 C   0  0  0  0  0  0  0  0  0  0  0  0
    5.9511   -2.9007   26.0980 C   0  0  0  0  0  0  0  0  0  0  0  0
    5.8937   -1.6867   26.7505 C   0  0  0  0  0  0  0  0  0  0  0  0
    6.2686   -0.5442   26.0462 C   0  0  0  0  0  0  0  0  0  0  0  0
    6.0423    1.0128   26.7859 Cl  0  0  0  0  0  0  0  0  0  0  0  0
    6.7853   -0.6159   24.7663 C   0  0  0  0  0  0  0  0  0  0  0  0
    6.8758   -1.8479   24.1081 C   0  0  0  0  0  0  0  0  0  0  0  0
    7.1071    0.3047   24.2944 H   0  0  0  0  0  0  0  0  0  0  0  0
    5.5482   -1.6163   27.7765 H   0  0  0  0  0  0  0  0  0  0  0  0
    5.6212   -3.8135   26.5811 H   0  0  0  0  0  0  0  0  0  0  0  0
    8.7138   -3.6348   22.8637 H   0  0  0  0  0  0  0  0  0  0  0  0
    7.9249   -3.5241   21.3016 H   0  0  0  0  0  0  0  0  0  0  0  0
    8.6242    0.6229   20.8399 H   0  0  0  0  0  0  0  0  0  0  0  0
    8.7969   -1.0390   20.2206 H   0  0  0  0  0  0  0  0  0  0  0  0
    8.5476   -0.1209   23.0528 H   0  0  0  0  0  0  0  0  0  0  0  0
    9.7534   -1.7062   24.3912 H   0  0  0  0  0  0  0  0  0  0  0  0
   11.0217   -2.6212   23.5490 H   0  0  0  0  0  0  0  0  0  0  0  0
   12.2159   -0.5316   22.9612 H   0  0  0  0  0  0  0  0  0  0  0  0
   11.9947   -0.6429   24.7204 H   0  0  0  0  0  0  0  0  0  0  0  0
   10.9714    0.4466   23.7595 H   0  0  0  0  0  0  0  0  0  0  0  0
  1  2  1  0
  2  3  1  0
  3  4  1  0
  4  5  1  0
  5  6  1  0
  6  7  1  0
  7  8  2  0
  8  9  1  0
  9 10  2  0
 10 11  1  0
 11 12  2  0
 12 13  1  0
 13 14  2  0
 14 15  1  0
 15 16  2  0
 15 17  1  0
 14 18  1  0
 13 19  1  0
 12 20  1  0
 10 21  1  0
  8 22  1  0
  6 23  1  0
 23 24  2  0
 23 25  1  0
 25 26  1  6
 26 27  1  0
 27 28  1  0
 28 29  1  0
 29 30  2  0
 29 31  1  0
 31 32  1  0
 32 33  1  0
 32 34  1  0
 32 35  1  0
 31 36  1  0
 28 37  1  0
 28 38  1  0
 27 39  1  0
 39 40  2  0
 39 41  1  0
 41 42  2  0
 42 43  1  0
 43 44  2  0
 44 45  1  0
 44 46  1  0
 46 47  2  0
 46 48  1  0
 43 49  1  0
 42 50  1  0
 26 51  1  0
 26 52  1  0
  5 53  1  0
  5 54  1  0
  4 55  1  1
  2 56  1  0
  2 57  1  0
  1 58  1  0
  1 59  1  0
  1 60  1  0
 25  4  1  0
 47 41  1  0
 16  7  1  0
 47 25  1  0
 16 11  1  0
M  END
>  <cnnaffinities>  (40) 
[6.60847, 6.1274]

>  <score>  (40) 
6.60847

>  <index>  (40) 
39

>  <Smiles>  (40) 
C(C(O[C@]1(C(N(c2c(nc(c3c(c(c(c(c23)[H])[H])[H])[H])[H])[H])C(=O)[C@]21C(N(C(C(=O)N(C([H])([H])[H])[H])([H])[H])C(=O)c1c(c(c(Cl)c(c21)[H])[H])[H])([H])[H])([H])[H])[H])([H])[H])([H])([H])[H]

>  <h>  (40) 
<NA>

>  <Training>  (40) 
True

>  <Success>  (40) 
True

>  <enamine_searched>  (40) 
False

>  <enamine_id>  (40) 
nan

$$$$

     RDKit          3D

 57 61  0  0  0  0  0  0  0  0999 V2000
    6.6390    4.3843   21.3517 C   0  0  0  0  0  0  0  0  0  0  0  0
    7.6051    4.0038   22.3678 N   0  0  0  0  0  0  0  0  0  0  0  0
    7.1122    3.3238   23.4434 C   0  0  0  0  0  0  0  0  0  0  0  0
    5.9122    3.1520   23.6012 O   0  0  0  0  0  0  0  0  0  0  0  0
    8.1009    2.7828   24.4740 C   0  0  0  0  0  0  0  0  0  0  0  0
    8.7997    1.6243   23.9574 N   0  0  0  0  0  0  0  0  0  0  0  0
    8.0850    0.3627   23.8390 C   0  0  0  0  0  0  0  0  0  0  0  0
    8.5079   -0.4180   22.5713 C   0  0  2  0  0  0  0  0  0  0  0  0
    7.9925    0.2961   21.3037 C   0  0  0  0  0  0  0  0  0  0  0  0
    8.4331    1.3126   20.8030 O   0  0  0  0  0  0  0  0  0  0  0  0
    6.9206   -0.4127   20.8192 N   0  0  0  0  0  0  0  0  0  0  0  0
    6.1314    0.1003   19.7647 C   0  0  0  0  0  0  0  0  0  0  0  0
    6.4645   -0.1993   18.4712 C   0  0  0  0  0  0  0  0  0  0  0  0
    5.7845    0.2413   17.3889 N   0  0  0  0  0  0  0  0  0  0  0  0
    4.7484    1.0158   17.5988 C   0  0  0  0  0  0  0  0  0  0  0  0
    4.2915    1.4001   18.8925 C   0  0  0  0  0  0  0  0  0  0  0  0
    3.1641    2.2427   19.0753 C   0  0  0  0  0  0  0  0  0  0  0  0
    2.7722    2.6194   20.3295 C   0  0  0  0  0  0  0  0  0  0  0  0
    3.4787    2.1652   21.4652 C   0  0  0  0  0  0  0  0  0  0  0  0
    4.5647    1.3354   21.3178 C   0  0  0  0  0  0  0  0  0  0  0  0
    5.0012    0.9317   20.0240 C   0  0  0  0  0  0  0  0  0  0  0  0
    5.1133    1.0159   22.1994 H   0  0  0  0  0  0  0  0  0  0  0  0
    3.1739    2.4825   22.4572 H   0  0  0  0  0  0  0  0  0  0  0  0
    1.9152    3.2723   20.4561 H   0  0  0  0  0  0  0  0  0  0  0  0
    2.6362    2.5881   18.1904 H   0  0  0  0  0  0  0  0  0  0  0  0
    4.2041    1.3764   16.7238 H   0  0  0  0  0  0  0  0  0  0  0  0
    7.3303   -0.8292   18.2808 H   0  0  0  0  0  0  0  0  0  0  0  0
    6.5656   -1.5753   21.6026 C   0  0  0  0  0  0  0  0  0  0  0  0
    7.8035   -1.7999   22.4796 C   0  0  2  0  0  0  0  0  0  0  0  0
    7.4693   -2.4944   23.8100 C   0  0  0  0  0  0  0  0  0  0  0  0
    6.9473   -3.8504   23.5889 C   0  0  0  0  0  0  0  0  0  0  0  0
    6.5295   -4.9112   23.3988 N   0  0  0  0  0  0  0  0  0  0  0  0
    8.3570   -2.5697   24.4451 H   0  0  0  0  0  0  0  0  0  0  0  0
    6.7110   -1.9303   24.3627 H   0  0  0  0  0  0  0  0  0  0  0  0
    8.4765   -2.4701   21.9438 H   0  0  0  0  0  0  0  0  0  0  0  0
    6.3632   -2.4323   20.9544 H   0  0  0  0  0  0  0  0  0  0  0  0
    5.6655   -1.3996   22.2117 H   0  0  0  0  0  0  0  0  0  0  0  0
   10.0187   -0.4547   22.5206 C   0  0  0  0  0  0  0  0  0  0  0  0
   10.6679   -1.3643   21.6865 C   0  0  0  0  0  0  0  0  0  0  0  0
   12.0420   -1.3298   21.5652 C   0  0  0  0  0  0  0  0  0  0  0  0
   12.7954   -2.4147   20.4388 Cl  0  0  0  0  0  0  0  0  0  0  0  0
   12.8228   -0.4222   22.2816 C   0  0  0  0  0  0  0  0  0  0  0  0
   12.1849    0.4922   23.0888 C   0  0  0  0  0  0  0  0  0  0  0  0
   10.7949    0.5215   23.1520 C   0  0  0  0  0  0  0  0  0  0  0  0
   10.1537    1.7018   23.8034 C   0  0  0  0  0  0  0  0  0  0  0  0
   10.7948    2.6892   24.1393 O   0  0  0  0  0  0  0  0  0  0  0  0
   12.7318    1.2272   23.6649 H   0  0  0  0  0  0  0  0  0  0  0  0
   13.9001   -0.4177   22.1653 H   0  0  0  0  0  0  0  0  0  0  0  0
   10.1123   -2.0849   21.0993 H   0  0  0  0  0  0  0  0  0  0  0  0
    7.0095    0.5713   23.8243 H   0  0  0  0  0  0  0  0  0  0  0  0
    8.2888   -0.2585   24.7198 H   0  0  0  0  0  0  0  0  0  0  0  0
    7.5273    2.5131   25.3737 H   0  0  0  0  0  0  0  0  0  0  0  0
    8.8633    3.5262   24.7312 H   0  0  0  0  0  0  0  0  0  0  0  0
    8.5505    3.8219   22.0497 H   0  0  0  0  0  0  0  0  0  0  0  0
    5.8542    4.9800   21.8291 H   0  0  0  0  0  0  0  0  0  0  0  0
    7.1411    5.0062   20.6111 H   0  0  0  0  0  0  0  0  0  0  0  0
    6.2018    3.4895   20.8746 H   0  0  0  0  0  0  0  0  0  0  0  0
  1  2  1  0
  2  3  1  0
  3  4  2  0
  3  5  1  0
  5  6  1  0
  6  7  1  0
  8  7  1  1
  8  9  1  0
  9 10  2  0
  9 11  1  0
 11 12  1  0
 12 13  2  0
 13 14  1  0
 14 15  2  0
 15 16  1  0
 16 17  2  0
 17 18  1  0
 18 19  2  0
 19 20  1  0
 20 21  2  0
 20 22  1  0
 19 23  1  0
 18 24  1  0
 17 25  1  0
 15 26  1  0
 13 27  1  0
 11 28  1  0
 28 29  1  0
 29 30  1  0
 30 31  1  0
 31 32  3  0
 30 33  1  0
 30 34  1  0
 29 35  1  6
 28 36  1  0
 28 37  1  0
  8 38  1  0
 38 39  2  0
 39 40  1  0
 40 41  1  0
 40 42  2  0
 42 43  1  0
 43 44  2  0
 44 45  1  0
 45 46  2  0
 43 47  1  0
 42 48  1  0
 39 49  1  0
  7 50  1  0
  7 51  1  0
  5 52  1  0
  5 53  1  0
  2 54  1  0
  1 55  1  0
  1 56  1  0
  1 57  1  0
 45  6  1  0
 29  8  1  0
 44 38  1  0
 21 12  1  0
 21 16  1  0
M  END
>  <cnnaffinities>  (41) 
[6.53665]

>  <score>  (41) 
6.53665

>  <index>  (41) 
40

>  <Smiles>  (41) 
C(N(C(=O)C(N1C([C@@]2(C(=O)N(c3c(nc(c4c(c(c(c(c34)[H])[H])[H])[H])[H])[H])C([C@@]2(C(C#N)([H])[H])[H])([H])[H])c2c(c(Cl)c(c(c2C1=O)[H])[H])[H])([H])[H])([H])[H])[H])([H])([H])[H]

>  <h>  (41) 
<NA>

>  <Training>  (41) 
True

>  <Success>  (41) 
True

>  <enamine_searched>  (41) 
False

>  <enamine_id>  (41) 
nan

$$$$

     RDKit          3D

 68 73  0  0  0  0  0  0  0  0999 V2000
    7.1240   -2.4527   23.4493 C   0  0  0  0  0  0  0  0  0  0  0  0
    8.0043   -1.7780   22.3940 C   0  0  1  0  0  0  0  0  0  0  0  0
    7.3122   -1.6950   21.0202 C   0  0  0  0  0  0  0  0  0  0  0  0
    6.9395   -0.3034   20.8788 N   0  0  0  0  0  0  0  0  0  0  0  0
    6.1494    0.1450   19.8034 C   0  0  0  0  0  0  0  0  0  0  0  0
    6.4459   -0.2252   18.5151 C   0  0  0  0  0  0  0  0  0  0  0  0
    5.7730    0.2098   17.4265 N   0  0  0  0  0  0  0  0  0  0  0  0
    4.7584    1.0146   17.6234 C   0  0  0  0  0  0  0  0  0  0  0  0
    4.3039    1.4154   18.9117 C   0  0  0  0  0  0  0  0  0  0  0  0
    3.1701    2.2522   19.0758 C   0  0  0  0  0  0  0  0  0  0  0  0
    2.7397    2.6077   20.3237 C   0  0  0  0  0  0  0  0  0  0  0  0
    3.4095    2.1236   21.4704 C   0  0  0  0  0  0  0  0  0  0  0  0
    4.5086    1.3136   21.3398 C   0  0  0  0  0  0  0  0  0  0  0  0
    5.0032    0.9599   20.0495 C   0  0  0  0  0  0  0  0  0  0  0  0
    5.0125    0.9419   22.2275 H   0  0  0  0  0  0  0  0  0  0  0  0
    3.0613    2.4108   22.4594 H   0  0  0  0  0  0  0  0  0  0  0  0
    1.8840    3.2654   20.4392 H   0  0  0  0  0  0  0  0  0  0  0  0
    2.6628    2.6034   18.1819 H   0  0  0  0  0  0  0  0  0  0  0  0
    4.2312    1.3797   16.7414 H   0  0  0  0  0  0  0  0  0  0  0  0
    7.2884   -0.8861   18.3131 H   0  0  0  0  0  0  0  0  0  0  0  0
    7.6568    0.5408   21.6921 C   0  0  0  0  0  0  0  0  0  0  0  0
    7.6417    1.7573   21.6268 O   0  0  0  0  0  0  0  0  0  0  0  0
    8.4598   -0.3207   22.6972 C   0  0  1  0  0  0  0  0  0  0  0  0
    8.1346    0.1303   24.1341 C   0  0  0  0  0  0  0  0  0  0  0  0
    8.6113    1.4661   24.4071 N   0  0  0  0  0  0  0  0  0  0  0  0
    7.7751    2.3185   25.2206 C   0  0  0  0  0  0  0  0  0  0  0  0
    6.7519    3.0985   24.4092 C   0  0  0  0  0  0  0  0  0  0  0  0
    7.3754    4.1711   23.5701 N   0  0  0  0  0  4  0  0  0  0  0  0
    7.9202    5.2931   24.4372 C   0  0  0  0  0  0  0  0  0  0  0  0
    8.0219    6.6204   23.7024 C   0  0  0  0  0  0  0  0  0  0  0  0
    6.4038    7.2578   23.2595 S   0  0  0  0  0  0  0  0  0  0  0  0
    5.8222    7.8779   24.4497 O   0  0  0  0  0  0  0  0  0  0  0  0
    6.5406    8.0168   22.0204 O   0  0  0  0  0  0  0  0  0  0  0  0
    5.4931    5.7488   22.9172 C   0  0  0  0  0  0  0  0  0  0  0  0
    6.4367    4.6367   22.4744 C   0  0  0  0  0  0  0  0  0  0  0  0
    5.8644    3.7701   22.1403 H   0  0  0  0  0  0  0  0  0  0  0  0
    7.0473    4.9563   21.6280 H   0  0  0  0  0  0  0  0  0  0  0  0
    4.7742    6.0181   22.1426 H   0  0  0  0  0  0  0  0  0  0  0  0
    4.9516    5.4905   23.8318 H   0  0  0  0  0  0  0  0  0  0  0  0
    8.6023    6.5401   22.7793 H   0  0  0  0  0  0  0  0  0  0  0  0
    8.4575    7.3999   24.3290 H   0  0  0  0  0  0  0  0  0  0  0  0
    7.2775    5.3999   25.3162 H   0  0  0  0  0  0  0  0  0  0  0  0
    8.9141    4.9948   24.7680 H   0  0  0  0  0  0  0  0  0  0  0  0
    8.1800    3.7440   23.0824 H   0  0  0  0  0  0  0  0  0  0  0  0
    6.2297    2.4118   23.7342 H   0  0  0  0  0  0  0  0  0  0  0  0
    6.0098    3.5433   25.0843 H   0  0  0  0  0  0  0  0  0  0  0  0
    8.4328    2.9814   25.7813 H   0  0  0  0  0  0  0  0  0  0  0  0
    7.2339    1.6775   25.9177 H   0  0  0  0  0  0  0  0  0  0  0  0
    9.7911    1.9335   23.9361 C   0  0  0  0  0  0  0  0  0  0  0  0
   10.1885    3.0768   24.1629 O   0  0  0  0  0  0  0  0  0  0  0  0
   10.5799    0.9898   23.0933 C   0  0  0  0  0  0  0  0  0  0  0  0
   11.9425    1.2339   22.9168 C   0  0  0  0  0  0  0  0  0  0  0  0
   12.7154    0.3732   22.1550 C   0  0  0  0  0  0  0  0  0  0  0  0
   12.0890   -0.7271   21.5669 C   0  0  0  0  0  0  0  0  0  0  0  0
   12.9818   -1.7666   20.4914 Cl  0  0  0  0  0  0  0  0  0  0  0  0
   10.7271   -0.9410   21.6924 C   0  0  0  0  0  0  0  0  0  0  0  0
    9.9541   -0.1100   22.5048 C   0  0  0  0  0  0  0  0  0  0  0  0
   10.2731   -1.7292   21.1097 H   0  0  0  0  0  0  0  0  0  0  0  0
   13.7706    0.5622   21.9748 H   0  0  0  0  0  0  0  0  0  0  0  0
   12.3627    2.1257   23.3735 H   0  0  0  0  0  0  0  0  0  0  0  0
    8.5963   -0.5702   24.8397 H   0  0  0  0  0  0  0  0  0  0  0  0
    7.0554    0.1220   24.2897 H   0  0  0  0  0  0  0  0  0  0  0  0
    6.4188   -2.3229   20.9564 H   0  0  0  0  0  0  0  0  0  0  0  0
    7.9998   -1.9868   20.2182 H   0  0  0  0  0  0  0  0  0  0  0  0
    8.8911   -2.4112   22.3248 H   0  0  0  0  0  0  0  0  0  0  0  0
    7.6438   -2.5275   24.4090 H   0  0  0  0  0  0  0  0  0  0  0  0
    6.8890   -3.4727   23.1327 H   0  0  0  0  0  0  0  0  0  0  0  0
    6.1804   -1.9229   23.6091 H   0  0  0  0  0  0  0  0  0  0  0  0
  1  2  1  0
  2  3  1  0
  3  4  1  0
  4  5  1  0
  5  6  2  0
  6  7  1  0
  7  8  2  0
  8  9  1  0
  9 10  2  0
 10 11  1  0
 11 12  2  0
 12 13  1  0
 13 14  2  0
 13 15  1  0
 12 16  1  0
 11 17  1  0
 10 18  1  0
  8 19  1  0
  6 20  1  0
  4 21  1  0
 21 22  2  0
 21 23  1  0
 23 24  1  1
 24 25  1  0
 25 26  1  0
 26 27  1  0
 27 28  1  0
 28 29  1  0
 29 30  1  0
 30 31  1  0
 31 32  2  0
 31 33  2  0
 31 34  1  0
 34 35  1  0
 35 36  1  0
 35 37  1  0
 34 38  1  0
 34 39  1  0
 30 40  1  0
 30 41  1  0
 29 42  1  0
 29 43  1  0
 28 44  1  0
 27 45  1  0
 27 46  1  0
 26 47  1  0
 26 48  1  0
 25 49  1  0
 49 50  2  0
 49 51  1  0
 51 52  2  0
 52 53  1  0
 53 54  2  0
 54 55  1  0
 54 56  1  0
 56 57  2  0
 56 58  1  0
 53 59  1  0
 52 60  1  0
 24 61  1  0
 24 62  1  0
  3 63  1  0
  3 64  1  0
  2 65  1  6
  1 66  1  0
  1 67  1  0
  1 68  1  0
 23  2  1  0
 35 28  1  0
 57 51  1  0
 14  5  1  0
 57 23  1  0
 14  9  1  0
M  CHG  1  28   1
M  END
>  <cnnaffinities>  (42) 
[6.77278]

>  <score>  (42) 
6.77278

>  <index>  (42) 
41

>  <Smiles>  (42) 
C([C@]1(C(N(c2c(nc(c3c(c(c(c(c23)[H])[H])[H])[H])[H])[H])C(=O)[C@]21C(N(C(C([N+]1(C(C(S(=O)(=O)C(C1([H])[H])([H])[H])([H])[H])([H])[H])[H])([H])[H])([H])[H])C(=O)c1c(c(c(Cl)c(c21)[H])[H])[H])([H])[H])([H])[H])[H])([H])([H])[H]

>  <h>  (42) 
<NA>

>  <Training>  (42) 
True

>  <Success>  (42) 
True

>  <enamine_searched>  (42) 
False

>  <enamine_id>  (42) 
nan

$$$$

     RDKit          3D

 60 65  0  0  0  0  0  0  0  0999 V2000
    6.6770    4.3813   21.3124 C   0  0  0  0  0  0  0  0  0  0  0  0
    7.6531    4.0061   22.3220 N   0  0  0  0  0  0  0  0  0  0  0  0
    7.1612    3.3305   23.4005 C   0  0  0  0  0  0  0  0  0  0  0  0
    5.9555    3.1736   23.5569 O   0  0  0  0  0  0  0  0  0  0  0  0
    8.1454    2.7880   24.4325 C   0  0  0  0  0  0  0  0  0  0  0  0
    8.8338    1.6158   23.9437 N   0  0  0  0  0  0  0  0  0  0  0  0
    8.1009    0.3684   23.8282 C   0  0  0  0  0  0  0  0  0  0  0  0
    8.5112   -0.4262   22.5706 C   0  0  2  0  0  0  0  0  0  0  0  0
    7.9957    0.2728   21.2948 C   0  0  0  0  0  0  0  0  0  0  0  0
    8.4445    1.2690   20.7705 O   0  0  0  0  0  0  0  0  0  0  0  0
    6.9073   -0.4272   20.8325 N   0  0  0  0  0  0  0  0  0  0  0  0
    6.1232    0.0870   19.7734 C   0  0  0  0  0  0  0  0  0  0  0  0
    6.4605   -0.2129   18.4791 C   0  0  0  0  0  0  0  0  0  0  0  0
    5.7849    0.2358   17.3960 N   0  0  0  0  0  0  0  0  0  0  0  0
    4.7524    1.0148   17.6003 C   0  0  0  0  0  0  0  0  0  0  0  0
    4.2935    1.4010   18.8925 C   0  0  0  0  0  0  0  0  0  0  0  0
    3.1678    2.2469   19.0756 C   0  0  0  0  0  0  0  0  0  0  0  0
    2.7738    2.6247   20.3283 C   0  0  0  0  0  0  0  0  0  0  0  0
    3.4775    2.1696   21.4666 C   0  0  0  0  0  0  0  0  0  0  0  0
    4.5630    1.3374   21.3193 C   0  0  0  0  0  0  0  0  0  0  0  0
    4.9988    0.9298   20.0262 C   0  0  0  0  0  0  0  0  0  0  0  0
    5.1096    1.0132   22.2008 H   0  0  0  0  0  0  0  0  0  0  0  0
    3.1734    2.4848   22.4603 H   0  0  0  0  0  0  0  0  0  0  0  0
    1.9183    3.2826   20.4551 H   0  0  0  0  0  0  0  0  0  0  0  0
    2.6383    2.5925   18.1914 H   0  0  0  0  0  0  0  0  0  0  0  0
    4.2079    1.3741   16.7236 H   0  0  0  0  0  0  0  0  0  0  0  0
    7.3261   -0.8429   18.2833 H   0  0  0  0  0  0  0  0  0  0  0  0
    6.5642   -1.5929   21.6142 C   0  0  0  0  0  0  0  0  0  0  0  0
    7.7958   -1.8042   22.5019 C   0  0  2  0  0  0  0  0  0  0  0  0
    7.4431   -2.4888   23.8318 C   0  0  0  0  0  0  0  0  0  0  0  0
    6.8821   -3.8507   23.6060 C   0  0  0  0  0  0  0  0  0  0  0  0
    5.5860   -4.1200   23.5060 N   0  0  0  0  0  0  0  0  0  0  0  0
    5.5295   -5.4245   23.2553 N   0  0  0  0  0  0  0  0  0  0  0  0
    6.7431   -5.9107   23.2117 N   0  0  0  0  0  2  0  0  0  0  0  0
    7.6192   -4.9362   23.4301 N   0  0  0  0  0  0  0  0  0  0  0  0
    6.6939   -1.9107   24.3738 H   0  0  0  0  0  0  0  0  0  0  0  0
    8.3271   -2.5871   24.4640 H   0  0  0  0  0  0  0  0  0  0  0  0
    8.4704   -2.4851   21.9830 H   0  0  0  0  0  0  0  0  0  0  0  0
    6.3688   -2.4589   20.9764 H   0  0  0  0  0  0  0  0  0  0  0  0
    5.6646   -1.4279   22.2248 H   0  0  0  0  0  0  0  0  0  0  0  0
   10.0222   -0.4745   22.5242 C   0  0  0  0  0  0  0  0  0  0  0  0
   10.6680   -1.3900   21.6943 C   0  0  0  0  0  0  0  0  0  0  0  0
   12.0434   -1.3603   21.5683 C   0  0  0  0  0  0  0  0  0  0  0  0
   12.7780   -2.4794   20.4567 Cl  0  0  0  0  0  0  0  0  0  0  0  0
   12.8319   -0.4453   22.2704 C   0  0  0  0  0  0  0  0  0  0  0  0
   12.1986    0.4666   23.0858 C   0  0  0  0  0  0  0  0  0  0  0  0
   10.8100    0.4905   23.1581 C   0  0  0  0  0  0  0  0  0  0  0  0
   10.1889    1.6748   23.8121 C   0  0  0  0  0  0  0  0  0  0  0  0
   10.8415    2.6508   24.1616 O   0  0  0  0  0  0  0  0  0  0  0  0
   12.7392    1.2080   23.6621 H   0  0  0  0  0  0  0  0  0  0  0  0
   13.9078   -0.4417   22.1334 H   0  0  0  0  0  0  0  0  0  0  0  0
   10.1056   -2.1125   21.1150 H   0  0  0  0  0  0  0  0  0  0  0  0
    7.0311    0.5966   23.8142 H   0  0  0  0  0  0  0  0  0  0  0  0
    8.2998   -0.2554   24.7066 H   0  0  0  0  0  0  0  0  0  0  0  0
    7.5465    2.5451   25.3207 H   0  0  0  0  0  0  0  0  0  0  0  0
    8.9162    3.5281   24.6753 H   0  0  0  0  0  0  0  0  0  0  0  0
    8.5974    3.8391   21.9999 H   0  0  0  0  0  0  0  0  0  0  0  0
    6.2186    3.4897   20.8587 H   0  0  0  0  0  0  0  0  0  0  0  0
    5.8941    4.9755   21.7922 H   0  0  0  0  0  0  0  0  0  0  0  0
    7.1632    4.9838   20.5527 H   0  0  0  0  0  0  0  0  0  0  0  0
  1  2  1  0
  2  3  1  0
  3  4  2  0
  3  5  1  0
  5  6  1  0
  6  7  1  0
  8  7  1  1
  8  9  1  0
  9 10  2  0
  9 11  1  0
 11 12  1  0
 12 13  2  0
 13 14  1  0
 14 15  2  0
 15 16  1  0
 16 17  2  0
 17 18  1  0
 18 19  2  0
 19 20  1  0
 20 21  2  0
 20 22  1  0
 19 23  1  0
 18 24  1  0
 17 25  1  0
 15 26  1  0
 13 27  1  0
 11 28  1  0
 28 29  1  0
 29 30  1  0
 30 31  1  0
 31 32  1  0
 32 33  2  0
 33 34  1  0
 34 35  1  0
 30 36  1  0
 30 37  1  0
 29 38  1  6
 28 39  1  0
 28 40  1  0
  8 41  1  0
 41 42  2  0
 42 43  1  0
 43 44  1  0
 43 45  2  0
 45 46  1  0
 46 47  2  0
 47 48  1  0
 48 49  2  0
 46 50  1  0
 45 51  1  0
 42 52  1  0
  7 53  1  0
  7 54  1  0
  5 55  1  0
  5 56  1  0
  2 57  1  0
  1 58  1  0
  1 59  1  0
  1 60  1  0
 48  6  1  0
 29  8  1  0
 35 31  2  0
 47 41  1  0
 21 12  1  0
 21 16  1  0
M  CHG  1  34  -1
M  END
>  <cnnaffinities>  (43) 
[6.63563, 6.6965, 6.61269, 6.70139, 6.5241]

>  <score>  (43) 
6.63563

>  <index>  (43) 
42

>  <Smiles>  (43) 
C(N(C(=O)C(N1C([C@@]2(C(=O)N(c3c(nc(c4c(c(c(c(c34)[H])[H])[H])[H])[H])[H])C([C@@]2(C(c2nn[n-]n2)([H])[H])[H])([H])[H])c2c(c(Cl)c(c(c2C1=O)[H])[H])[H])([H])[H])([H])[H])[H])([H])([H])[H]

>  <h>  (43) 
<NA>

>  <Training>  (43) 
True

>  <Success>  (43) 
True

>  <enamine_searched>  (43) 
False

>  <enamine_id>  (43) 
nan

$$$$

     RDKit          3D

 62 67  0  0  0  0  0  0  0  0999 V2000
   10.6827    5.4557   24.8113 C   0  0  0  0  0  0  0  0  0  0  0  0
    9.1761    5.3235   25.0306 C   0  0  0  0  0  0  0  0  0  0  0  0
    8.4409    4.7365   23.9095 N   0  0  0  0  0  0  0  0  0  0  0  0
    7.9237    5.5666   22.9889 N   0  0  0  0  0  0  0  0  0  0  0  0
    7.3796    4.7757   22.0745 C   0  0  0  0  0  0  0  0  0  0  0  0
    7.5456    3.4157   22.3980 C   0  0  0  0  0  0  0  0  0  0  0  0
    8.2345    3.4234   23.5858 C   0  0  0  0  0  0  0  0  0  0  0  0
    8.6900    2.2995   24.4643 C   0  0  0  0  0  0  0  0  0  0  0  0
    9.2122    1.1538   23.7449 N   0  0  0  0  0  0  0  0  0  0  0  0
    8.4313   -0.0665   23.6612 C   0  0  0  0  0  0  0  0  0  0  0  0
    8.6892   -0.8372   22.3362 C   0  0  2  0  0  0  0  0  0  0  0  0
    8.1534   -0.0184   21.1354 C   0  0  0  0  0  0  0  0  0  0  0  0
    8.7387    0.8754   20.5622 O   0  0  0  0  0  0  0  0  0  0  0  0
    6.8903   -0.4710   20.8236 N   0  0  0  0  0  0  0  0  0  0  0  0
    6.1324    0.0833   19.7598 C   0  0  0  0  0  0  0  0  0  0  0  0
    6.4571   -0.2138   18.4597 C   0  0  0  0  0  0  0  0  0  0  0  0
    5.7708    0.2344   17.3830 N   0  0  0  0  0  0  0  0  0  0  0  0
    4.7416    1.0158   17.5962 C   0  0  0  0  0  0  0  0  0  0  0  0
    4.2929    1.4025   18.8914 C   0  0  0  0  0  0  0  0  0  0  0  0
    3.1706    2.2528   19.0706 C   0  0  0  0  0  0  0  0  0  0  0  0
    2.7824    2.6326   20.3253 C   0  0  0  0  0  0  0  0  0  0  0  0
    3.4904    2.1714   21.4554 C   0  0  0  0  0  0  0  0  0  0  0  0
    4.5765    1.3399   21.3091 C   0  0  0  0  0  0  0  0  0  0  0  0
    5.0049    0.9292   20.0169 C   0  0  0  0  0  0  0  0  0  0  0  0
    5.1133    1.0001   22.1898 H   0  0  0  0  0  0  0  0  0  0  0  0
    3.1764    2.4815   22.4470 H   0  0  0  0  0  0  0  0  0  0  0  0
    1.9329    3.2964   20.4550 H   0  0  0  0  0  0  0  0  0  0  0  0
    2.6446    2.6026   18.1870 H   0  0  0  0  0  0  0  0  0  0  0  0
    4.2044    1.3840   16.7213 H   0  0  0  0  0  0  0  0  0  0  0  0
    7.3077   -0.8587   18.2506 H   0  0  0  0  0  0  0  0  0  0  0  0
    6.4686   -1.6082   21.6200 C   0  0  0  0  0  0  0  0  0  0  0  0
    7.7914   -2.1050   22.2490 C   0  0  2  0  0  0  0  0  0  0  0  0
    7.5753   -2.8808   23.5467 C   0  0  0  0  0  0  0  0  0  0  0  0
    7.0152   -2.2779   24.2719 H   0  0  0  0  0  0  0  0  0  0  0  0
    7.0023   -3.7985   23.3717 H   0  0  0  0  0  0  0  0  0  0  0  0
    8.5283   -3.1585   24.0097 H   0  0  0  0  0  0  0  0  0  0  0  0
    8.2553   -2.7639   21.5101 H   0  0  0  0  0  0  0  0  0  0  0  0
    5.9874   -2.3613   20.9843 H   0  0  0  0  0  0  0  0  0  0  0  0
    5.7439   -1.3162   22.3986 H   0  0  0  0  0  0  0  0  0  0  0  0
   10.1886   -1.0047   22.1633 C   0  0  0  0  0  0  0  0  0  0  0  0
   10.7561   -2.0657   21.4512 C   0  0  0  0  0  0  0  0  0  0  0  0
   12.0560   -1.9529   20.9985 C   0  0  0  0  0  0  0  0  0  0  0  0
   12.5409   -2.9064   20.1871 F   0  0  0  0  0  0  0  0  0  0  0  0
   12.8825   -0.8904   21.3437 C   0  0  0  0  0  0  0  0  0  0  0  0
   12.3734    0.0776   22.1915 C   0  0  0  0  0  0  0  0  0  0  0  0
   11.0323    0.0385   22.5704 C   0  0  0  0  0  0  0  0  0  0  0  0
   10.5253    1.1912   23.3782 C   0  0  0  0  0  0  0  0  0  0  0  0
   11.2578    2.1321   23.6730 O   0  0  0  0  0  0  0  0  0  0  0  0
   12.9671    0.8996   22.5729 H   0  0  0  0  0  0  0  0  0  0  0  0
   13.8902   -0.8745   20.9433 H   0  0  0  0  0  0  0  0  0  0  0  0
   10.2123   -2.9646   21.2000 H   0  0  0  0  0  0  0  0  0  0  0  0
    8.6766   -0.7284   24.5051 H   0  0  0  0  0  0  0  0  0  0  0  0
    7.3716    0.2063   23.7448 H   0  0  0  0  0  0  0  0  0  0  0  0
    9.4807    2.7217   25.0709 H   0  0  0  0  0  0  0  0  0  0  0  0
    7.8870    1.9667   25.1342 H   0  0  0  0  0  0  0  0  0  0  0  0
    7.2599    2.5344   21.8374 H   0  0  0  0  0  0  0  0  0  0  0  0
    6.8884    5.2167   21.2158 H   0  0  0  0  0  0  0  0  0  0  0  0
    8.7262    6.3088   25.1795 H   0  0  0  0  0  0  0  0  0  0  0  0
    8.9726    4.7303   25.9284 H   0  0  0  0  0  0  0  0  0  0  0  0
   11.1532    4.4787   24.6531 H   0  0  0  0  0  0  0  0  0  0  0  0
   10.8943    6.0982   23.9520 H   0  0  0  0  0  0  0  0  0  0  0  0
   11.1308    5.9210   25.6962 H   0  0  0  0  0  0  0  0  0  0  0  0
  1  2  1  0
  2  3  1  0
  3  4  1  0
  4  5  2  0
  5  6  1  0
  6  7  2  0
  7  8  1  0
  8  9  1  0
  9 10  1  0
 11 10  1  1
 11 12  1  0
 12 13  2  0
 12 14  1  0
 14 15  1  0
 15 16  2  0
 16 17  1  0
 17 18  2  0
 18 19  1  0
 19 20  2  0
 20 21  1  0
 21 22  2  0
 22 23  1  0
 23 24  2  0
 23 25  1  0
 22 26  1  0
 21 27  1  0
 20 28  1  0
 18 29  1  0
 16 30  1  0
 14 31  1  0
 31 32  1  0
 32 33  1  0
 33 34  1  0
 33 35  1  0
 33 36  1  0
 32 37  1  6
 31 38  1  0
 31 39  1  0
 11 40  1  0
 40 41  2  0
 41 42  1  0
 42 43  1  0
 42 44  2  0
 44 45  1  0
 45 46  2  0
 46 47  1  0
 47 48  2  0
 45 49  1  0
 44 50  1  0
 41 51  1  0
 10 52  1  0
 10 53  1  0
  8 54  1  0
  8 55  1  0
  6 56  1  0
  5 57  1  0
  2 58  1  0
  2 59  1  0
  1 60  1  0
  1 61  1  0
  1 62  1  0
  7  3  1  0
 47  9  1  0
 32 11  1  0
 46 40  1  0
 24 15  1  0
 24 19  1  0
M  END
>  <cnnaffinities>  (44) 
[7.13147]

>  <score>  (44) 
7.13147

>  <index>  (44) 
43

>  <Smiles>  (44) 
C(C(n1nc(c(c1C(N1C([C@@]2(C(=O)N(c3c(nc(c4c(c(c(c(c34)[H])[H])[H])[H])[H])[H])C([C@@]2(C([H])([H])[H])[H])([H])[H])c2c(c(F)c(c(c2C1=O)[H])[H])[H])([H])[H])([H])[H])[H])[H])([H])[H])([H])([H])[H]

>  <h>  (44) 
<NA>

>  <Training>  (44) 
True

>  <Success>  (44) 
True

>  <enamine_searched>  (44) 
False

>  <enamine_id>  (44) 
nan

$$$$

     RDKit          3D

 56 60  0  0  0  0  0  0  0  0999 V2000
    6.6392    4.3680   21.3326 C   0  0  0  0  0  0  0  0  0  0  0  0
    7.6191    3.9719   22.3258 N   0  0  0  0  0  0  0  0  0  0  0  0
    7.1455    3.3120   23.4227 C   0  0  0  0  0  0  0  0  0  0  0  0
    5.9480    3.1502   23.6115 O   0  0  0  0  0  0  0  0  0  0  0  0
    8.1605    2.7839   24.4329 C   0  0  0  0  0  0  0  0  0  0  0  0
    8.8475    1.6146   23.9155 N   0  0  0  0  0  0  0  0  0  0  0  0
    8.1326    0.3475   23.8104 C   0  0  0  0  0  0  0  0  0  0  0  0
    8.5446   -0.4426   22.5388 C   0  0  2  0  0  0  0  0  0  0  0  0
    8.0292    0.2640   21.2629 C   0  0  0  0  0  0  0  0  0  0  0  0
    8.4920    1.2528   20.7275 O   0  0  0  0  0  0  0  0  0  0  0  0
    6.9183   -0.4138   20.8197 N   0  0  0  0  0  0  0  0  0  0  0  0
    6.1301    0.1005   19.7646 C   0  0  0  0  0  0  0  0  0  0  0  0
    6.4647   -0.1946   18.4699 C   0  0  0  0  0  0  0  0  0  0  0  0
    5.7815    0.2428   17.3888 N   0  0  0  0  0  0  0  0  0  0  0  0
    4.7437    1.0139   17.6004 C   0  0  0  0  0  0  0  0  0  0  0  0
    4.2860    1.3966   18.8935 C   0  0  0  0  0  0  0  0  0  0  0  0
    3.1602    2.2396   19.0771 C   0  0  0  0  0  0  0  0  0  0  0  0
    2.7721    2.6202   20.3311 C   0  0  0  0  0  0  0  0  0  0  0  0
    3.4833    2.1682   21.4654 C   0  0  0  0  0  0  0  0  0  0  0  0
    4.5667    1.3353   21.3170 C   0  0  0  0  0  0  0  0  0  0  0  0
    4.9981    0.9287   20.0242 C   0  0  0  0  0  0  0  0  0  0  0  0
    5.1213    1.0209   22.1965 H   0  0  0  0  0  0  0  0  0  0  0  0
    3.1816    2.4896   22.4562 H   0  0  0  0  0  0  0  0  0  0  0  0
    1.9160    3.2737   20.4593 H   0  0  0  0  0  0  0  0  0  0  0  0
    2.6325    2.5860   18.1924 H   0  0  0  0  0  0  0  0  0  0  0  0
    4.2051    1.3763   16.7237 H   0  0  0  0  0  0  0  0  0  0  0  0
    7.3292   -0.8255   18.2801 H   0  0  0  0  0  0  0  0  0  0  0  0
    6.5456   -1.5549   21.6266 C   0  0  0  0  0  0  0  0  0  0  0  0
    7.8170   -1.8190   22.4477 C   0  0  2  0  0  0  0  0  0  0  0  0
    7.4576   -2.5414   23.7386 C   0  0  0  0  0  0  0  0  0  0  0  0
    8.8960   -3.0236   24.6809 Cl  0  0  0  0  0  0  0  0  0  0  0  0
    6.8464   -1.9088   24.3892 H   0  0  0  0  0  0  0  0  0  0  0  0
    6.9040   -3.4582   23.5196 H   0  0  0  0  0  0  0  0  0  0  0  0
    8.4492   -2.4904   21.8645 H   0  0  0  0  0  0  0  0  0  0  0  0
    5.6783   -1.3494   22.2771 H   0  0  0  0  0  0  0  0  0  0  0  0
    6.2857   -2.4076   20.9926 H   0  0  0  0  0  0  0  0  0  0  0  0
   10.0545   -0.4898   22.4861 C   0  0  0  0  0  0  0  0  0  0  0  0
   10.6991   -1.4136   21.6616 C   0  0  0  0  0  0  0  0  0  0  0  0
   12.0695   -1.3687   21.5132 C   0  0  0  0  0  0  0  0  0  0  0  0
   12.8209   -2.4672   20.4024 Cl  0  0  0  0  0  0  0  0  0  0  0  0
   12.8546   -0.4409   22.1934 C   0  0  0  0  0  0  0  0  0  0  0  0
   12.2271    0.4734   23.0082 C   0  0  0  0  0  0  0  0  0  0  0  0
   10.8372    0.4926   23.1042 C   0  0  0  0  0  0  0  0  0  0  0  0
   10.2062    1.6683   23.7828 C   0  0  0  0  0  0  0  0  0  0  0  0
   10.8650    2.6319   24.1537 O   0  0  0  0  0  0  0  0  0  0  0  0
   12.7829    1.2168   23.5639 H   0  0  0  0  0  0  0  0  0  0  0  0
   13.9281   -0.4265   22.0427 H   0  0  0  0  0  0  0  0  0  0  0  0
   10.1468   -2.1620   21.1066 H   0  0  0  0  0  0  0  0  0  0  0  0
    7.0567    0.5509   23.7992 H   0  0  0  0  0  0  0  0  0  0  0  0
    8.3353   -0.2723   24.6955 H   0  0  0  0  0  0  0  0  0  0  0  0
    7.6331    2.5273   25.3595 H   0  0  0  0  0  0  0  0  0  0  0  0
    8.9329    3.5185   24.6824 H   0  0  0  0  0  0  0  0  0  0  0  0
    8.5456    3.7571   21.9752 H   0  0  0  0  0  0  0  0  0  0  0  0
    5.8468    4.9138   21.8501 H   0  0  0  0  0  0  0  0  0  0  0  0
    7.1016    5.0541   20.6213 H   0  0  0  0  0  0  0  0  0  0  0  0
    6.2163    3.4821   20.8254 H   0  0  0  0  0  0  0  0  0  0  0  0
  1  2  1  0
  2  3  1  0
  3  4  2  0
  3  5  1  0
  5  6  1  0
  6  7  1  0
  8  7  1  1
  8  9  1  0
  9 10  2  0
  9 11  1  0
 11 12  1  0
 12 13  2  0
 13 14  1  0
 14 15  2  0
 15 16  1  0
 16 17  2  0
 17 18  1  0
 18 19  2  0
 19 20  1  0
 20 21  2  0
 20 22  1  0
 19 23  1  0
 18 24  1  0
 17 25  1  0
 15 26  1  0
 13 27  1  0
 11 28  1  0
 28 29  1  0
 29 30  1  0
 30 31  1  0
 30 32  1  0
 30 33  1  0
 29 34  1  6
 28 35  1  0
 28 36  1  0
  8 37  1  0
 37 38  2  0
 38 39  1  0
 39 40  1  0
 39 41  2  0
 41 42  1  0
 42 43  2  0
 43 44  1  0
 44 45  2  0
 42 46  1  0
 41 47  1  0
 38 48  1  0
  7 49  1  0
  7 50  1  0
  5 51  1  0
  5 52  1  0
  2 53  1  0
  1 54  1  0
  1 55  1  0
  1 56  1  0
 44  6  1  0
 29  8  1  0
 43 37  1  0
 21 12  1  0
 21 16  1  0
M  END
>  <cnnaffinities>  (45) 
[6.72796]

>  <score>  (45) 
6.72796

>  <index>  (45) 
44

>  <Smiles>  (45) 
C(N(C(=O)C(N1C([C@@]2(C(=O)N(c3c(nc(c4c(c(c(c(c34)[H])[H])[H])[H])[H])[H])C([C@@]2(C(Cl)([H])[H])[H])([H])[H])c2c(c(Cl)c(c(c2C1=O)[H])[H])[H])([H])[H])([H])[H])[H])([H])([H])[H]

>  <h>  (45) 
<NA>

>  <Training>  (45) 
True

>  <Success>  (45) 
True

>  <enamine_searched>  (45) 
False

>  <enamine_id>  (45) 
nan

$$$$

     RDKit          3D

 60 64  0  0  0  0  0  0  0  0999 V2000
    7.7415   -8.4886   22.8850 C   0  0  0  0  0  0  0  0  0  0  0  0
    6.8148   -7.3941   22.6897 N   0  0  0  0  0  0  0  0  0  0  0  0
    7.0572   -6.5052   21.6919 C   0  0  0  0  0  0  0  0  0  0  0  0
    7.9450   -6.6568   20.8620 O   0  0  0  0  0  0  0  0  0  0  0  0
    6.1703   -5.2599   21.7166 C   0  0  0  0  0  0  0  0  0  0  0  0
    6.6715   -4.2998   22.6820 N   0  0  0  0  0  0  0  0  0  0  0  0
    7.7468   -3.3961   22.3228 C   0  0  0  0  0  0  0  0  0  0  0  0
    7.3865   -1.9285   22.6662 C   0  0  2  0  0  0  0  0  0  0  0  0
    6.3046   -1.4499   21.6697 C   0  0  0  0  0  0  0  0  0  0  0  0
    5.1779   -1.8819   21.5585 O   0  0  0  0  0  0  0  0  0  0  0  0
    6.8497   -0.4692   20.8651 N   0  0  0  0  0  0  0  0  0  0  0  0
    6.1155    0.0815   19.7940 C   0  0  0  0  0  0  0  0  0  0  0  0
    6.4605   -0.2113   18.5006 C   0  0  0  0  0  0  0  0  0  0  0  0
    5.7981    0.2386   17.4096 N   0  0  0  0  0  0  0  0  0  0  0  0
    4.7614    1.0129   17.6170 C   0  0  0  0  0  0  0  0  0  0  0  0
    4.2969    1.3940   18.9073 C   0  0  0  0  0  0  0  0  0  0  0  0
    3.1676    2.2366   19.0691 C   0  0  0  0  0  0  0  0  0  0  0  0
    2.7699    2.6327   20.3142 C   0  0  0  0  0  0  0  0  0  0  0  0
    3.4749    2.1975   21.4579 C   0  0  0  0  0  0  0  0  0  0  0  0
    4.5597    1.3682   21.3307 C   0  0  0  0  0  0  0  0  0  0  0  0
    4.9945    0.9339   20.0446 C   0  0  0  0  0  0  0  0  0  0  0  0
    5.0884    1.0382   22.2199 H   0  0  0  0  0  0  0  0  0  0  0  0
    3.1538    2.5314   22.4403 H   0  0  0  0  0  0  0  0  0  0  0  0
    1.9205    3.2992   20.4273 H   0  0  0  0  0  0  0  0  0  0  0  0
    2.6451    2.5668   18.1747 H   0  0  0  0  0  0  0  0  0  0  0  0
    4.2290    1.3840   16.7412 H   0  0  0  0  0  0  0  0  0  0  0  0
    7.3065   -0.8702   18.3087 H   0  0  0  0  0  0  0  0  0  0  0  0
    8.2945   -0.3816   20.9694 C   0  0  0  0  0  0  0  0  0  0  0  0
    8.5686   -0.9636   22.3659 C   0  0  2  0  0  0  0  0  0  0  0  0
    9.9615   -1.5693   22.4587 C   0  0  0  0  0  0  0  0  0  0  0  0
   10.9010   -0.5433   22.2661 O   0  0  0  0  0  0  0  0  0  0  0  0
   12.2215   -1.0191   22.3134 C   0  0  0  0  0  0  0  0  0  0  0  0
   12.8894   -0.1655   22.1748 H   0  0  0  0  0  0  0  0  0  0  0  0
   12.4514   -1.4919   23.2818 H   0  0  0  0  0  0  0  0  0  0  0  0
   12.4188   -1.7541   21.5168 H   0  0  0  0  0  0  0  0  0  0  0  0
   10.1115   -2.0516   23.4393 H   0  0  0  0  0  0  0  0  0  0  0  0
   10.0850   -2.3500   21.6865 H   0  0  0  0  0  0  0  0  0  0  0  0
    8.5356   -0.1373   23.0766 H   0  0  0  0  0  0  0  0  0  0  0  0
    8.8038   -0.9695   20.1894 H   0  0  0  0  0  0  0  0  0  0  0  0
    8.6209    0.6577   20.8772 H   0  0  0  0  0  0  0  0  0  0  0  0
    6.8718   -1.9003   24.0955 C   0  0  0  0  0  0  0  0  0  0  0  0
    6.7887   -0.6971   24.8030 C   0  0  0  0  0  0  0  0  0  0  0  0
    6.2606   -0.6816   26.0800 C   0  0  0  0  0  0  0  0  0  0  0  0
    6.0131    0.8425   26.8752 Cl  0  0  0  0  0  0  0  0  0  0  0  0
    5.8812   -1.8510   26.7382 C   0  0  0  0  0  0  0  0  0  0  0  0
    5.9335   -3.0346   26.0366 C   0  0  0  0  0  0  0  0  0  0  0  0
    6.3705   -3.0539   24.7169 C   0  0  0  0  0  0  0  0  0  0  0  0
    6.1803   -4.3196   23.9495 C   0  0  0  0  0  0  0  0  0  0  0  0
    5.5697   -5.2902   24.4005 O   0  0  0  0  0  0  0  0  0  0  0  0
    5.6029   -3.9723   26.4665 H   0  0  0  0  0  0  0  0  0  0  0  0
    5.5363   -1.8189   27.7648 H   0  0  0  0  0  0  0  0  0  0  0  0
    7.1343    0.2362   24.3724 H   0  0  0  0  0  0  0  0  0  0  0  0
    7.9273   -3.4951   21.2549 H   0  0  0  0  0  0  0  0  0  0  0  0
    8.6703   -3.6742   22.8508 H   0  0  0  0  0  0  0  0  0  0  0  0
    6.1358   -4.7782   20.7300 H   0  0  0  0  0  0  0  0  0  0  0  0
    5.1531   -5.5285   22.0194 H   0  0  0  0  0  0  0  0  0  0  0  0
    6.1415   -7.1528   23.4103 H   0  0  0  0  0  0  0  0  0  0  0  0
    8.6509   -8.1812   23.4310 H   0  0  0  0  0  0  0  0  0  0  0  0
    8.0281   -8.8538   21.9039 H   0  0  0  0  0  0  0  0  0  0  0  0
    7.2218   -9.3016   23.3826 H   0  0  0  0  0  0  0  0  0  0  0  0
  1  2  1  0
  2  3  1  0
  3  4  2  0
  3  5  1  0
  5  6  1  0
  6  7  1  0
  8  7  1  6
  8  9  1  0
  9 10  2  0
  9 11  1  0
 11 12  1  0
 12 13  2  0
 13 14  1  0
 14 15  2  0
 15 16  1  0
 16 17  2  0
 17 18  1  0
 18 19  2  0
 19 20  1  0
 20 21  2  0
 20 22  1  0
 19 23  1  0
 18 24  1  0
 17 25  1  0
 15 26  1  0
 13 27  1  0
 11 28  1  0
 28 29  1  0
 29 30  1  0
 30 31  1  0
 31 32  1  0
 32 33  1  0
 32 34  1  0
 32 35  1  0
 30 36  1  0
 30 37  1  0
 29 38  1  1
 28 39  1  0
 28 40  1  0
  8 41  1  0
 41 42  2  0
 42 43  1  0
 43 44  1  0
 43 45  2  0
 45 46  1  0
 46 47  2  0
 47 48  1  0
 48 49  2  0
 46 50  1  0
 45 51  1  0
 42 52  1  0
  7 53  1  0
  7 54  1  0
  5 55  1  0
  5 56  1  0
  2 57  1  0
  1 58  1  0
  1 59  1  0
  1 60  1  0
 48  6  1  0
 29  8  1  0
 47 41  1  0
 21 12  1  0
 21 16  1  0
M  END
>  <cnnaffinities>  (46) 
[6.83249, 6.78953, 6.79814]

>  <score>  (46) 
6.83249

>  <index>  (46) 
45

>  <Smiles>  (46) 
C(N(C(=O)C(N1C([C@@]2(C(=O)N(c3c(nc(c4c(c(c(c(c34)[H])[H])[H])[H])[H])[H])C([C@@]2(C(OC([H])([H])[H])([H])[H])[H])([H])[H])c2c(c(Cl)c(c(c2C1=O)[H])[H])[H])([H])[H])([H])[H])[H])([H])([H])[H]

>  <h>  (46) 
<NA>

>  <Training>  (46) 
True

>  <Success>  (46) 
True

>  <enamine_searched>  (46) 
False

>  <enamine_id>  (46) 
nan

$$$$

     RDKit          3D

 64 68  0  0  0  0  0  0  0  0999 V2000
    5.8670   -6.0535   25.0487 C   0  0  0  0  0  0  0  0  0  0  0  0
    6.6539   -4.7467   25.0979 C   0  0  0  0  0  0  0  0  0  0  0  0
    6.7126   -4.0504   23.4505 S   0  0  0  0  0  0  0  0  0  0  0  0
    7.5270   -4.9095   22.6023 O   0  0  0  0  0  0  0  0  0  0  0  0
    5.3337   -3.7674   23.0737 O   0  0  0  0  0  0  0  0  0  0  0  0
    7.5152   -2.5679   23.6702 N   0  0  0  0  0  0  0  0  0  0  0  0
    7.7850   -1.8721   22.3894 C   0  0  1  0  0  0  0  0  0  0  0  0
    6.5028   -1.5459   21.6167 C   0  0  0  0  0  0  0  0  0  0  0  0
    6.8945   -0.3991   20.8352 N   0  0  0  0  0  0  0  0  0  0  0  0
    6.1283    0.1112   19.7643 C   0  0  0  0  0  0  0  0  0  0  0  0
    6.4755   -0.1833   18.4705 C   0  0  0  0  0  0  0  0  0  0  0  0
    5.7903    0.2515   17.3908 N   0  0  0  0  0  0  0  0  0  0  0  0
    4.7410    1.0093   17.6022 C   0  0  0  0  0  0  0  0  0  0  0  0
    4.2716    1.3850   18.8949 C   0  0  0  0  0  0  0  0  0  0  0  0
    3.1443    2.2244   19.0808 C   0  0  0  0  0  0  0  0  0  0  0  0
    2.7574    2.6054   20.3387 C   0  0  0  0  0  0  0  0  0  0  0  0
    3.4743    2.1554   21.4707 C   0  0  0  0  0  0  0  0  0  0  0  0
    4.5571    1.3255   21.3194 C   0  0  0  0  0  0  0  0  0  0  0  0
    4.9855    0.9230   20.0226 C   0  0  0  0  0  0  0  0  0  0  0  0
    5.1275    1.0147   22.1925 H   0  0  0  0  0  0  0  0  0  0  0  0
    3.1904    2.4893   22.4650 H   0  0  0  0  0  0  0  0  0  0  0  0
    1.9066    3.2668   20.4682 H   0  0  0  0  0  0  0  0  0  0  0  0
    2.6169    2.5710   18.1975 H   0  0  0  0  0  0  0  0  0  0  0  0
    4.2044    1.3717   16.7267 H   0  0  0  0  0  0  0  0  0  0  0  0
    7.3491   -0.8039   18.2765 H   0  0  0  0  0  0  0  0  0  0  0  0
    8.0422    0.2249   21.2647 C   0  0  0  0  0  0  0  0  0  0  0  0
    8.5518    1.1850   20.7271 O   0  0  0  0  0  0  0  0  0  0  0  0
    8.5463   -0.5295   22.5205 C   0  0  1  0  0  0  0  0  0  0  0  0
    8.1279    0.2238   23.8093 C   0  0  0  0  0  0  0  0  0  0  0  0
    8.8722    1.4725   23.9647 N   0  0  0  0  0  0  0  0  0  0  0  0
    8.1973    2.6444   24.5016 C   0  0  0  0  0  0  0  0  0  0  0  0
    7.1314    3.1734   23.5293 C   0  0  0  0  0  0  0  0  0  0  0  0
    5.9342    3.0274   23.7450 O   0  0  0  0  0  0  0  0  0  0  0  0
    7.5820    3.8347   22.4212 N   0  0  0  0  0  0  0  0  0  0  0  0
    6.5930    4.2796   21.4484 C   0  0  0  0  0  0  0  0  0  0  0  0
    7.0325    5.0090   20.7631 H   0  0  0  0  0  0  0  0  0  0  0  0
    5.7643    4.7514   21.9876 H   0  0  0  0  0  0  0  0  0  0  0  0
    6.1856    3.4311   20.8768 H   0  0  0  0  0  0  0  0  0  0  0  0
    8.4813    3.5655   22.0368 H   0  0  0  0  0  0  0  0  0  0  0  0
    7.7046    2.4325   25.4599 H   0  0  0  0  0  0  0  0  0  0  0  0
    8.9799    3.3950   24.6759 H   0  0  0  0  0  0  0  0  0  0  0  0
   10.2258    1.5437   23.7815 C   0  0  0  0  0  0  0  0  0  0  0  0
   10.8950    2.5011   24.1585 O   0  0  0  0  0  0  0  0  0  0  0  0
   10.8408    0.4022   23.0407 C   0  0  0  0  0  0  0  0  0  0  0  0
   12.2241    0.4298   22.8676 C   0  0  0  0  0  0  0  0  0  0  0  0
   12.8320   -0.4673   22.0208 C   0  0  0  0  0  0  0  0  0  0  0  0
   12.0563   -1.4371   21.3863 C   0  0  0  0  0  0  0  0  0  0  0  0
   12.8027   -2.4864   20.2092 Cl  0  0  0  0  0  0  0  0  0  0  0  0
   10.6945   -1.5347   21.6227 C   0  0  0  0  0  0  0  0  0  0  0  0
   10.0582   -0.5998   22.4517 C   0  0  0  0  0  0  0  0  0  0  0  0
   10.1452   -2.3261   21.1269 H   0  0  0  0  0  0  0  0  0  0  0  0
   13.8990   -0.4193   21.8390 H   0  0  0  0  0  0  0  0  0  0  0  0
   12.8129    1.1811   23.3818 H   0  0  0  0  0  0  0  0  0  0  0  0
    8.2849   -0.4272   24.6770 H   0  0  0  0  0  0  0  0  0  0  0  0
    7.0591    0.4603   23.7562 H   0  0  0  0  0  0  0  0  0  0  0  0
    6.1829   -2.3736   20.9776 H   0  0  0  0  0  0  0  0  0  0  0  0
    5.6842   -1.3200   22.3084 H   0  0  0  0  0  0  0  0  0  0  0  0
    8.3752   -2.5422   21.7607 H   0  0  0  0  0  0  0  0  0  0  0  0
    8.4029   -2.7087   24.1559 H   0  0  0  0  0  0  0  0  0  0  0  0
    6.1669   -3.9951   25.7227 H   0  0  0  0  0  0  0  0  0  0  0  0
    7.6827   -4.8973   25.4485 H   0  0  0  0  0  0  0  0  0  0  0  0
    6.4817   -6.8440   24.6149 H   0  0  0  0  0  0  0  0  0  0  0  0
    5.5674   -6.3658   26.0522 H   0  0  0  0  0  0  0  0  0  0  0  0
    4.9719   -5.9485   24.4302 H   0  0  0  0  0  0  0  0  0  0  0  0
  1  2  1  0
  2  3  1  0
  3  4  2  0
  3  5  2  0
  3  6  1  0
  6  7  1  0
  7  8  1  0
  8  9  1  0
  9 10  1  0
 10 11  2  0
 11 12  1  0
 12 13  2  0
 13 14  1  0
 14 15  2  0
 15 16  1  0
 16 17  2  0
 17 18  1  0
 18 19  2  0
 18 20  1  0
 17 21  1  0
 16 22  1  0
 15 23  1  0
 13 24  1  0
 11 25  1  0
  9 26  1  0
 26 27  2  0
 26 28  1  0
 28 29  1  1
 29 30  1  0
 30 31  1  0
 31 32  1  0
 32 33  2  0
 32 34  1  0
 34 35  1  0
 35 36  1  0
 35 37  1  0
 35 38  1  0
 34 39  1  0
 31 40  1  0
 31 41  1  0
 30 42  1  0
 42 43  2  0
 42 44  1  0
 44 45  2  0
 45 46  1  0
 46 47  2  0
 47 48  1  0
 47 49  1  0
 49 50  2  0
 49 51  1  0
 46 52  1  0
 45 53  1  0
 29 54  1  0
 29 55  1  0
  8 56  1  0
  8 57  1  0
  7 58  1  6
  6 59  1  0
  2 60  1  0
  2 61  1  0
  1 62  1  0
  1 63  1  0
  1 64  1  0
 28  7  1  0
 50 44  1  0
 19 10  1  0
 50 28  1  0
 19 14  1  0
M  END
>  <cnnaffinities>  (47) 
[6.54632]

>  <score>  (47) 
6.54632

>  <index>  (47) 
46

>  <Smiles>  (47) 
C(C(S(=O)(=O)N([C@]1(C(N(c2c(nc(c3c(c(c(c(c23)[H])[H])[H])[H])[H])[H])C(=O)[C@]21C(N(C(C(=O)N(C([H])([H])[H])[H])([H])[H])C(=O)c1c(c(c(Cl)c(c21)[H])[H])[H])([H])[H])([H])[H])[H])[H])([H])[H])([H])([H])[H]

>  <h>  (47) 
<NA>

>  <Training>  (47) 
True

>  <Success>  (47) 
True

>  <enamine_searched>  (47) 
False

>  <enamine_id>  (47) 
nan

$$$$

     RDKit          3D

 56 60  0  0  0  0  0  0  0  0999 V2000
    7.7170   -8.5010   22.8797 C   0  0  0  0  0  0  0  0  0  0  0  0
    6.8084   -7.3868   22.7180 N   0  0  0  0  0  0  0  0  0  0  0  0
    7.0374   -6.5078   21.7041 C   0  0  0  0  0  0  0  0  0  0  0  0
    7.8977   -6.6758   20.8550 O   0  0  0  0  0  0  0  0  0  0  0  0
    6.1538   -5.2586   21.7521 C   0  0  0  0  0  0  0  0  0  0  0  0
    6.6781   -4.3078   22.7144 N   0  0  0  0  0  0  0  0  0  0  0  0
    7.7453   -3.4027   22.3372 C   0  0  0  0  0  0  0  0  0  0  0  0
    7.3852   -1.9323   22.6582 C   0  0  2  0  0  0  0  0  0  0  0  0
    6.2998   -1.4579   21.6607 C   0  0  0  0  0  0  0  0  0  0  0  0
    5.1737   -1.8986   21.5425 O   0  0  0  0  0  0  0  0  0  0  0  0
    6.8369   -0.4692   20.8652 N   0  0  0  0  0  0  0  0  0  0  0  0
    6.1067    0.0798   19.7941 C   0  0  0  0  0  0  0  0  0  0  0  0
    6.4582   -0.2113   18.5026 C   0  0  0  0  0  0  0  0  0  0  0  0
    5.7986    0.2393   17.4116 N   0  0  0  0  0  0  0  0  0  0  0  0
    4.7602    1.0124   17.6174 C   0  0  0  0  0  0  0  0  0  0  0  0
    4.2938    1.3932   18.9076 C   0  0  0  0  0  0  0  0  0  0  0  0
    3.1650    2.2355   19.0690 C   0  0  0  0  0  0  0  0  0  0  0  0
    2.7670    2.6337   20.3141 C   0  0  0  0  0  0  0  0  0  0  0  0
    3.4715    2.1996   21.4586 C   0  0  0  0  0  0  0  0  0  0  0  0
    4.5555    1.3691   21.3325 C   0  0  0  0  0  0  0  0  0  0  0  0
    4.9890    0.9335   20.0459 C   0  0  0  0  0  0  0  0  0  0  0  0
    5.0840    1.0401   22.2225 H   0  0  0  0  0  0  0  0  0  0  0  0
    3.1505    2.5358   22.4403 H   0  0  0  0  0  0  0  0  0  0  0  0
    1.9184    3.3005   20.4257 H   0  0  0  0  0  0  0  0  0  0  0  0
    2.6426    2.5642   18.1745 H   0  0  0  0  0  0  0  0  0  0  0  0
    4.2295    1.3850   16.7407 H   0  0  0  0  0  0  0  0  0  0  0  0
    7.3055   -0.8695   18.3131 H   0  0  0  0  0  0  0  0  0  0  0  0
    8.2797   -0.3862   20.9601 C   0  0  0  0  0  0  0  0  0  0  0  0
    8.5717   -0.9645   22.3516 C   0  0  2  0  0  0  0  0  0  0  0  0
    9.9796   -1.5455   22.4328 C   0  0  0  0  0  0  0  0  0  0  0  0
   10.1204   -2.3253   21.6750 H   0  0  0  0  0  0  0  0  0  0  0  0
   10.1904   -1.9827   23.4141 H   0  0  0  0  0  0  0  0  0  0  0  0
   10.7232   -0.7645   22.2447 H   0  0  0  0  0  0  0  0  0  0  0  0
    8.5040   -0.1359   23.0591 H   0  0  0  0  0  0  0  0  0  0  0  0
    8.7869   -0.9743   20.1780 H   0  0  0  0  0  0  0  0  0  0  0  0
    8.6054    0.6545   20.8643 H   0  0  0  0  0  0  0  0  0  0  0  0
    6.8741   -1.8871   24.0877 C   0  0  0  0  0  0  0  0  0  0  0  0
    6.8226   -0.6793   24.7880 C   0  0  0  0  0  0  0  0  0  0  0  0
    6.3191   -0.6617   26.0708 C   0  0  0  0  0  0  0  0  0  0  0  0
    6.2205    0.5154   26.7066 F   0  0  0  0  0  0  0  0  0  0  0  0
    5.9006   -1.8035   26.7415 C   0  0  0  0  0  0  0  0  0  0  0  0
    5.9257   -2.9906   26.0448 C   0  0  0  0  0  0  0  0  0  0  0  0
    6.3645   -3.0284   24.7248 C   0  0  0  0  0  0  0  0  0  0  0  0
    6.1757   -4.3061   23.9778 C   0  0  0  0  0  0  0  0  0  0  0  0
    5.5621   -5.2682   24.4355 O   0  0  0  0  0  0  0  0  0  0  0  0
    5.5849   -3.9196   26.4814 H   0  0  0  0  0  0  0  0  0  0  0  0
    5.5598   -1.7372   27.7677 H   0  0  0  0  0  0  0  0  0  0  0  0
    7.1815    0.2503   24.3621 H   0  0  0  0  0  0  0  0  0  0  0  0
    8.6766   -3.6616   22.8609 H   0  0  0  0  0  0  0  0  0  0  0  0
    7.9186   -3.5205   21.2714 H   0  0  0  0  0  0  0  0  0  0  0  0
    5.1395   -5.5216   22.0729 H   0  0  0  0  0  0  0  0  0  0  0  0
    6.1053   -4.7701   20.7696 H   0  0  0  0  0  0  0  0  0  0  0  0
    6.1624   -7.1355   23.4589 H   0  0  0  0  0  0  0  0  0  0  0  0
    8.6415   -8.2237   23.4128 H   0  0  0  0  0  0  0  0  0  0  0  0
    7.1957   -9.3200   23.3693 H   0  0  0  0  0  0  0  0  0  0  0  0
    7.9887   -8.8451   21.8894 H   0  0  0  0  0  0  0  0  0  0  0  0
  1  2  1  0
  2  3  1  0
  3  4  2  0
  3  5  1  0
  5  6  1  0
  6  7  1  0
  8  7  1  6
  8  9  1  0
  9 10  2  0
  9 11  1  0
 11 12  1  0
 12 13  2  0
 13 14  1  0
 14 15  2  0
 15 16  1  0
 16 17  2  0
 17 18  1  0
 18 19  2  0
 19 20  1  0
 20 21  2  0
 20 22  1  0
 19 23  1  0
 18 24  1  0
 17 25  1  0
 15 26  1  0
 13 27  1  0
 11 28  1  0
 28 29  1  0
 29 30  1  0
 30 31  1  0
 30 32  1  0
 30 33  1  0
 29 34  1  1
 28 35  1  0
 28 36  1  0
  8 37  1  0
 37 38  2  0
 38 39  1  0
 39 40  1  0
 39 41  2  0
 41 42  1  0
 42 43  2  0
 43 44  1  0
 44 45  2  0
 42 46  1  0
 41 47  1  0
 38 48  1  0
  7 49  1  0
  7 50  1  0
  5 51  1  0
  5 52  1  0
  2 53  1  0
  1 54  1  0
  1 55  1  0
  1 56  1  0
 44  6  1  0
 29  8  1  0
 43 37  1  0
 21 12  1  0
 21 16  1  0
M  END
>  <cnnaffinities>  (48) 
[6.54278]

>  <score>  (48) 
6.54278

>  <index>  (48) 
47

>  <Smiles>  (48) 
C(N(C(=O)C(N1C([C@@]2(C(=O)N(c3c(nc(c4c(c(c(c(c34)[H])[H])[H])[H])[H])[H])C([C@@]2(C([H])([H])[H])[H])([H])[H])c2c(c(F)c(c(c2C1=O)[H])[H])[H])([H])[H])([H])[H])[H])([H])([H])[H]

>  <h>  (48) 
<NA>

>  <Training>  (48) 
True

>  <Success>  (48) 
True

>  <enamine_searched>  (48) 
False

>  <enamine_id>  (48) 
nan

$$$$

     RDKit          3D

 41 43  0  0  0  0  0  0  0  0999 V2000
   10.9105   -2.4512   23.7830 C   0  0  0  0  0  0  0  0  0  0  0  0
   10.0173   -1.2724   23.4546 C   0  0  1  0  0  0  0  0  0  0  0  0
    8.5429   -1.5707   23.7525 C   0  0  0  0  0  0  0  0  0  0  0  0
    7.6638   -0.3147   23.8331 C   0  0  0  0  0  0  0  0  0  0  0  0
    8.0155    0.7496   22.8947 N   0  0  0  0  0  0  0  0  0  0  0  0
    7.8627    0.6368   21.5254 C   0  0  0  0  0  0  0  0  0  0  0  0
    8.4389    1.3995   20.7682 O   0  0  0  0  0  0  0  0  0  0  0  0
    6.9381   -0.4474   20.9211 C   0  0  0  0  0  0  0  0  0  0  0  0
    6.1115    0.0854   19.7702 C   0  0  0  0  0  0  0  0  0  0  0  0
    6.4261   -0.2068   18.4659 C   0  0  0  0  0  0  0  0  0  0  0  0
    5.7576    0.2434   17.3717 N   0  0  0  0  0  0  0  0  0  0  0  0
    4.7326    1.0329   17.5769 C   0  0  0  0  0  0  0  0  0  0  0  0
    4.2844    1.4230   18.8699 C   0  0  0  0  0  0  0  0  0  0  0  0
    3.1640    2.2748   19.0472 C   0  0  0  0  0  0  0  0  0  0  0  0
    2.7620    2.6444   20.3023 C   0  0  0  0  0  0  0  0  0  0  0  0
    3.4629    2.1679   21.4318 C   0  0  0  0  0  0  0  0  0  0  0  0
    4.5481    1.3384   21.2871 C   0  0  0  0  0  0  0  0  0  0  0  0
    4.9917    0.9420   19.9972 C   0  0  0  0  0  0  0  0  0  0  0  0
    5.0720    0.9890   22.1709 H   0  0  0  0  0  0  0  0  0  0  0  0
    3.1373    2.4629   22.4235 H   0  0  0  0  0  0  0  0  0  0  0  0
    1.9102    3.3048   20.4363 H   0  0  0  0  0  0  0  0  0  0  0  0
    2.6405    2.6408   18.1674 H   0  0  0  0  0  0  0  0  0  0  0  0
    4.1991    1.4003   16.6985 H   0  0  0  0  0  0  0  0  0  0  0  0
    7.2725   -0.8561   18.2443 H   0  0  0  0  0  0  0  0  0  0  0  0
    7.5899   -1.2391   20.5269 H   0  0  0  0  0  0  0  0  0  0  0  0
    6.2858   -0.9120   21.6675 H   0  0  0  0  0  0  0  0  0  0  0  0
    9.0461    1.6757   23.3762 C   0  0  0  0  0  0  0  0  0  0  0  0
   10.4539    1.0768   23.4658 C   0  0  0  0  0  0  0  0  0  0  0  0
   10.4972   -0.1432   24.1767 O   0  0  0  0  0  0  0  0  0  0  0  0
   10.8637    0.9353   22.4556 H   0  0  0  0  0  0  0  0  0  0  0  0
   11.1268    1.7678   23.9975 H   0  0  0  0  0  0  0  0  0  0  0  0
    8.7535    1.9957   24.3797 H   0  0  0  0  0  0  0  0  0  0  0  0
    9.0627    2.5586   22.7334 H   0  0  0  0  0  0  0  0  0  0  0  0
    6.6078   -0.5749   23.7202 H   0  0  0  0  0  0  0  0  0  0  0  0
    7.7561    0.1115   24.8329 H   0  0  0  0  0  0  0  0  0  0  0  0
    8.4668   -2.1270   24.6970 H   0  0  0  0  0  0  0  0  0  0  0  0
    8.1657   -2.2441   22.9726 H   0  0  0  0  0  0  0  0  0  0  0  0
   10.1179   -1.0534   22.3870 H   0  0  0  0  0  0  0  0  0  0  0  0
   10.5946   -3.3353   23.2208 H   0  0  0  0  0  0  0  0  0  0  0  0
   11.9465   -2.2265   23.5150 H   0  0  0  0  0  0  0  0  0  0  0  0
   10.8695   -2.6768   24.8514 H   0  0  0  0  0  0  0  0  0  0  0  0
  1  2  1  0
  2  3  1  0
  3  4  1  0
  4  5  1  0
  5  6  1  0
  6  7  2  0
  6  8  1  0
  8  9  1  0
  9 10  2  0
 10 11  1  0
 11 12  2  0
 12 13  1  0
 13 14  2  0
 14 15  1  0
 15 16  2  0
 16 17  1  0
 17 18  2  0
 17 19  1  0
 16 20  1  0
 15 21  1  0
 14 22  1  0
 12 23  1  0
 10 24  1  0
  8 25  1  0
  8 26  1  0
  5 27  1  0
 27 28  1  0
 28 29  1  0
 28 30  1  0
 28 31  1  0
 27 32  1  0
 27 33  1  0
  4 34  1  0
  4 35  1  0
  3 36  1  0
  3 37  1  0
  2 38  1  6
  1 39  1  0
  1 40  1  0
  1 41  1  0
 29  2  1  0
 18  9  1  0
 18 13  1  0
M  END
>  <cnnaffinities>  (49) 
[5.53873, 5.02687, 5.27302]

>  <score>  (49) 
5.53873

>  <index>  (49) 
48

>  <Smiles>  (49) 
C([C@]1(C(C(N(C(=O)C(c2c(nc(c3c(c(c(c(c23)[H])[H])[H])[H])[H])[H])([H])[H])C(C(O1)([H])[H])([H])[H])([H])[H])([H])[H])[H])([H])([H])[H]

>  <h>  (49) 
<NA>

>  <Training>  (49) 
True

>  <Success>  (49) 
True

>  <enamine_searched>  (49) 
False

>  <enamine_id>  (49) 
nan

$$$$

     RDKit          3D

 42 45  0  0  0  0  0  0  0  0999 V2000
   12.2326   -1.1540   22.4320 C   0  0  0  0  0  0  0  0  0  0  0  0
   10.8199   -1.2892   22.6981 N   0  0  0  0  0  0  0  0  0  0  0  0
    9.8767   -0.7121   21.7681 C   0  0  0  0  0  0  0  0  0  0  0  0
    8.6655   -0.2305   22.5656 C   0  0  1  0  0  0  0  0  0  0  0  0
    7.6646    0.4427   21.6372 C   0  0  0  0  0  0  0  0  0  0  0  0
    7.5785    1.6535   21.5746 O   0  0  0  0  0  0  0  0  0  0  0  0
    6.9128   -0.3962   20.8425 N   0  0  0  0  0  0  0  0  0  0  0  0
    6.1260    0.1009   19.7729 C   0  0  0  0  0  0  0  0  0  0  0  0
    6.4370   -0.2200   18.4757 C   0  0  0  0  0  0  0  0  0  0  0  0
    5.7649    0.2324   17.3909 N   0  0  0  0  0  0  0  0  0  0  0  0
    4.7451    1.0276   17.5954 C   0  0  0  0  0  0  0  0  0  0  0  0
    4.2899    1.4143   18.8853 C   0  0  0  0  0  0  0  0  0  0  0  0
    3.1578    2.2550   19.0600 C   0  0  0  0  0  0  0  0  0  0  0  0
    2.7330    2.5962   20.3139 C   0  0  0  0  0  0  0  0  0  0  0  0
    3.4100    2.0956   21.4488 C   0  0  0  0  0  0  0  0  0  0  0  0
    4.5026    1.2784   21.3051 C   0  0  0  0  0  0  0  0  0  0  0  0
    4.9910    0.9346   20.0138 C   0  0  0  0  0  0  0  0  0  0  0  0
    5.0166    0.8938   22.1791 H   0  0  0  0  0  0  0  0  0  0  0  0
    3.0670    2.3668   22.4418 H   0  0  0  0  0  0  0  0  0  0  0  0
    1.8775    3.2528   20.4401 H   0  0  0  0  0  0  0  0  0  0  0  0
    2.6502    2.6213   18.1711 H   0  0  0  0  0  0  0  0  0  0  0  0
    4.2210    1.3925   16.7131 H   0  0  0  0  0  0  0  0  0  0  0  0
    7.2814   -0.8711   18.2551 H   0  0  0  0  0  0  0  0  0  0  0  0
    7.1390   -1.3827   20.8463 H   0  0  0  0  0  0  0  0  0  0  0  0
    8.1496   -1.3467   23.4482 C   0  0  0  0  0  0  0  0  0  0  0  0
    6.8456   -1.3120   23.9341 C   0  0  0  0  0  0  0  0  0  0  0  0
    6.3918   -2.3279   24.7543 C   0  0  0  0  0  0  0  0  0  0  0  0
    4.7444   -2.2875   25.3092 Cl  0  0  0  0  0  0  0  0  0  0  0  0
    7.2210   -3.3795   25.1387 C   0  0  0  0  0  0  0  0  0  0  0  0
    8.5372   -3.3866   24.7050 C   0  0  0  0  0  0  0  0  0  0  0  0
    9.0073   -2.3656   23.8762 C   0  0  0  0  0  0  0  0  0  0  0  0
   10.4609   -2.3209   23.5249 C   0  0  0  0  0  0  0  0  0  0  0  0
   11.2840   -3.1131   23.9625 O   0  0  0  0  0  0  0  0  0  0  0  0
    9.2300   -4.1666   25.0138 H   0  0  0  0  0  0  0  0  0  0  0  0
    6.8377   -4.1611   25.7848 H   0  0  0  0  0  0  0  0  0  0  0  0
    6.1843   -0.4943   23.6717 H   0  0  0  0  0  0  0  0  0  0  0  0
    9.0227    0.5790   23.2094 H   0  0  0  0  0  0  0  0  0  0  0  0
   10.3687    0.1506   21.3134 H   0  0  0  0  0  0  0  0  0  0  0  0
    9.5741   -1.4031   20.9562 H   0  0  0  0  0  0  0  0  0  0  0  0
   12.3964   -0.3723   21.6873 H   0  0  0  0  0  0  0  0  0  0  0  0
   12.6031   -2.1141   22.0686 H   0  0  0  0  0  0  0  0  0  0  0  0
   12.7643   -0.8755   23.3463 H   0  0  0  0  0  0  0  0  0  0  0  0
  1  2  1  0
  2  3  1  0
  3  4  1  0
  4  5  1  0
  5  6  2  0
  5  7  1  0
  7  8  1  0
  8  9  2  0
  9 10  1  0
 10 11  2  0
 11 12  1  0
 12 13  2  0
 13 14  1  0
 14 15  2  0
 15 16  1  0
 16 17  2  0
 16 18  1  0
 15 19  1  0
 14 20  1  0
 13 21  1  0
 11 22  1  0
  9 23  1  0
  7 24  1  0
  4 25  1  0
 25 26  2  0
 26 27  1  0
 27 28  1  0
 27 29  2  0
 29 30  1  0
 30 31  2  0
 31 32  1  0
 32 33  2  0
 30 34  1  0
 29 35  1  0
 26 36  1  0
  4 37  1  1
  3 38  1  0
  3 39  1  0
  1 40  1  0
  1 41  1  0
  1 42  1  0
 32  2  1  0
 17  8  1  0
 31 25  1  0
 17 12  1  0
M  END
>  <cnnaffinities>  (50) 
[6.13022, 5.57873, 5.65512]

>  <score>  (50) 
6.13022

>  <index>  (50) 
49

>  <Smiles>  (50) 
C(N1C([C@@](C(=O)N(c2c(nc(c3c(c(c(c(c23)[H])[H])[H])[H])[H])[H])[H])(c2c(c(Cl)c(c(c2C1=O)[H])[H])[H])[H])([H])[H])([H])([H])[H]

>  <h>  (50) 
<NA>

>  <Training>  (50) 
True

>  <Success>  (50) 
True

>  <enamine_searched>  (50) 
False

>  <enamine_id>  (50) 
nan

$$$$

     RDKit          3D

 38 41  0  0  0  0  0  0  0  0999 V2000
    5.0894   -2.0050   21.3280 O   0  0  0  0  0  0  0  0  0  0  0  0
    6.2720   -1.7751   21.5149 C   0  0  0  0  0  0  0  0  0  0  0  0
    6.9363   -0.5141   20.9020 C   0  0  0  0  0  0  0  0  0  0  0  0
    6.1188    0.0847   19.7773 C   0  0  0  0  0  0  0  0  0  0  0  0
    6.4224   -0.2113   18.4751 C   0  0  0  0  0  0  0  0  0  0  0  0
    5.7542    0.2380   17.3819 N   0  0  0  0  0  0  0  0  0  0  0  0
    4.7345    1.0326   17.5832 C   0  0  0  0  0  0  0  0  0  0  0  0
    4.2844    1.4176   18.8723 C   0  0  0  0  0  0  0  0  0  0  0  0
    3.1602    2.2633   19.0494 C   0  0  0  0  0  0  0  0  0  0  0  0
    2.7433    2.6206   20.3016 C   0  0  0  0  0  0  0  0  0  0  0  0
    3.4334    2.1318   21.4333 C   0  0  0  0  0  0  0  0  0  0  0  0
    4.5240    1.3080   21.2890 C   0  0  0  0  0  0  0  0  0  0  0  0
    4.9890    0.9298   20.0047 C   0  0  0  0  0  0  0  0  0  0  0  0
    5.0307    0.9216   22.1679 H   0  0  0  0  0  0  0  0  0  0  0  0
    3.0948    2.4118   22.4261 H   0  0  0  0  0  0  0  0  0  0  0  0
    1.8865    3.2789   20.4324 H   0  0  0  0  0  0  0  0  0  0  0  0
    2.6437    2.6325   18.1648 H   0  0  0  0  0  0  0  0  0  0  0  0
    4.2048    1.3982   16.6987 H   0  0  0  0  0  0  0  0  0  0  0  0
    7.2620   -0.8630   18.2393 H   0  0  0  0  0  0  0  0  0  0  0  0
    7.0922    0.2405   21.6862 H   0  0  0  0  0  0  0  0  0  0  0  0
    7.9376   -0.7635   20.5143 H   0  0  0  0  0  0  0  0  0  0  0  0
    7.0570   -2.6383   22.2561 N   0  0  0  0  0  0  0  0  0  0  0  0
    6.6218   -4.0272   22.4041 C   0  0  0  0  0  0  0  0  0  0  0  0
    6.7346   -4.4884   23.8459 C   0  0  0  0  0  0  0  0  0  0  0  0
    8.0718   -4.0850   24.3648 C   0  0  0  0  0  0  0  0  0  0  0  0
    8.7814   -4.7809   25.7423 S   0  0  0  0  0  0  0  0  0  0  0  0
   10.1914   -3.8174   25.5952 C   0  0  0  0  0  0  0  0  0  0  0  0
   10.0745   -2.9265   24.5716 C   0  0  0  0  0  0  0  0  0  0  0  0
    8.8503   -3.1021   23.8587 C   0  0  0  0  0  0  0  0  0  0  0  0
    8.4109   -2.3113   22.6708 C   0  0  0  0  0  0  0  0  0  0  0  0
    9.1483   -2.4536   21.8698 H   0  0  0  0  0  0  0  0  0  0  0  0
    8.4634   -1.2573   22.9417 H   0  0  0  0  0  0  0  0  0  0  0  0
   10.8207   -2.1639   24.3558 H   0  0  0  0  0  0  0  0  0  0  0  0
   10.9688   -3.9151   26.3441 H   0  0  0  0  0  0  0  0  0  0  0  0
    5.9612   -4.0204   24.4625 H   0  0  0  0  0  0  0  0  0  0  0  0
    6.5710   -5.5673   23.9315 H   0  0  0  0  0  0  0  0  0  0  0  0
    5.5936   -4.0963   22.0547 H   0  0  0  0  0  0  0  0  0  0  0  0
    7.2376   -4.6804   21.7706 H   0  0  0  0  0  0  0  0  0  0  0  0
  1  2  2  0
  2  3  1  0
  3  4  1  0
  4  5  2  0
  5  6  1  0
  6  7  2  0
  7  8  1  0
  8  9  2  0
  9 10  1  0
 10 11  2  0
 11 12  1  0
 12 13  2  0
 12 14  1  0
 11 15  1  0
 10 16  1  0
  9 17  1  0
  7 18  1  0
  5 19  1  0
  3 20  1  0
  3 21  1  0
  2 22  1  0
 22 23  1  0
 23 24  1  0
 24 25  1  0
 25 26  1  0
 26 27  1  0
 27 28  2  0
 28 29  1  0
 29 30  1  0
 30 31  1  0
 30 32  1  0
 28 33  1  0
 27 34  1  0
 24 35  1  0
 24 36  1  0
 23 37  1  0
 23 38  1  0
 13  4  1  0
 30 22  1  0
 13  8  1  0
 29 25  2  0
M  END
>  <cnnaffinities>  (51) 
[5.35759]

>  <score>  (51) 
5.35759

>  <index>  (51) 
50

>  <Smiles>  (51) 
O=C(C(c1c(nc(c2c(c(c(c(c12)[H])[H])[H])[H])[H])[H])([H])[H])N1C(C(c2sc(c(c2C1([H])[H])[H])[H])([H])[H])([H])[H]

>  <h>  (51) 
<NA>

>  <Training>  (51) 
True

>  <Success>  (51) 
True

>  <enamine_searched>  (51) 
False

>  <enamine_id>  (51) 
nan

$$$$

     RDKit          3D

 67 73  0  0  0  0  0  0  0  0999 V2000
    6.2170    1.5881   29.9843 C   0  0  0  0  0  0  0  0  0  0  0  0
    5.8583    1.2885   28.5753 C   0  0  0  0  0  0  0  0  0  0  0  0
    5.0324    0.4053   28.1265 N   0  0  0  0  0  0  0  0  0  0  0  0
    5.0907    0.4850   26.7384 N   0  0  0  0  0  0  0  0  0  0  0  0
    5.9481    1.4039   26.4597 C   0  0  0  0  0  0  0  0  0  0  0  0
    6.3987    1.8505   25.1011 C   0  0  0  0  0  0  0  0  0  0  0  0
    7.5569    1.1283   24.6023 N   0  0  0  0  0  0  0  0  0  0  0  0
    7.3825   -0.2288   24.1044 C   0  0  0  0  0  0  0  0  0  0  0  0
    8.1987   -0.4723   22.7976 C   0  0  2  0  0  0  0  0  0  0  0  0
    7.6328    0.3979   21.6597 C   0  0  0  0  0  0  0  0  0  0  0  0
    7.7827    1.5898   21.5084 O   0  0  0  0  0  0  0  0  0  0  0  0
    6.9098   -0.4157   20.8221 N   0  0  0  0  0  0  0  0  0  0  0  0
    6.1228    0.0959   19.7730 C   0  0  0  0  0  0  0  0  0  0  0  0
    6.4341   -0.2354   18.4793 C   0  0  0  0  0  0  0  0  0  0  0  0
    5.7729    0.2225   17.3919 N   0  0  0  0  0  0  0  0  0  0  0  0
    4.7523    1.0199   17.6013 C   0  0  0  0  0  0  0  0  0  0  0  0
    4.2988    1.4025   18.8961 C   0  0  0  0  0  0  0  0  0  0  0  0
    3.1664    2.2400   19.0641 C   0  0  0  0  0  0  0  0  0  0  0  0
    2.7401    2.5935   20.3136 C   0  0  0  0  0  0  0  0  0  0  0  0
    3.4116    2.1108   21.4594 C   0  0  0  0  0  0  0  0  0  0  0  0
    4.5049    1.2931   21.3255 C   0  0  0  0  0  0  0  0  0  0  0  0
    4.9905    0.9312   20.0313 C   0  0  0  0  0  0  0  0  0  0  0  0
    5.0025    0.9242   22.2190 H   0  0  0  0  0  0  0  0  0  0  0  0
    3.0519    2.3864   22.4467 H   0  0  0  0  0  0  0  0  0  0  0  0
    1.8820    3.2462   20.4327 H   0  0  0  0  0  0  0  0  0  0  0  0
    2.6535    2.5913   18.1735 H   0  0  0  0  0  0  0  0  0  0  0  0
    4.2117    1.3920   16.7302 H   0  0  0  0  0  0  0  0  0  0  0  0
    7.2903   -0.8848   18.2949 H   0  0  0  0  0  0  0  0  0  0  0  0
    6.8605   -1.7971   21.2387 C   0  0  0  0  0  0  0  0  0  0  0  0
    8.0271   -1.9046   22.2294 C   0  0  2  0  0  0  0  0  0  0  0  0
    7.8791   -3.0196   23.2731 C   0  0  0  0  0  0  0  0  0  0  0  0
    7.9570   -4.3584   22.7256 N   0  0  0  0  0  0  0  0  0  0  0  0
    6.9334   -4.9949   22.0955 C   0  0  0  0  0  0  0  0  0  0  0  0
    5.5741   -4.7514   22.3724 C   0  0  0  0  0  0  0  0  0  0  0  0
    4.6622   -5.5016   21.6665 C   0  0  0  0  0  0  0  0  0  0  0  0
    5.0036   -6.3842   20.7213 N   0  0  0  0  0  0  0  0  0  0  0  0
    6.3045   -6.5198   20.5398 C   0  0  0  0  0  0  0  0  0  0  0  0
    7.2897   -5.9218   21.1931 N   0  0  0  0  0  0  0  0  0  0  0  0
    6.6145   -7.2003   19.7531 H   0  0  0  0  0  0  0  0  0  0  0  0
    3.5947   -5.3824   21.8466 H   0  0  0  0  0  0  0  0  0  0  0  0
    5.2488   -3.9960   23.0790 H   0  0  0  0  0  0  0  0  0  0  0  0
    8.8675   -4.6460   22.3938 H   0  0  0  0  0  0  0  0  0  0  0  0
    8.6459   -2.9137   24.0510 H   0  0  0  0  0  0  0  0  0  0  0  0
    6.9202   -2.9149   23.7821 H   0  0  0  0  0  0  0  0  0  0  0  0
    8.9198   -2.1305   21.6393 H   0  0  0  0  0  0  0  0  0  0  0  0
    6.9618   -2.4425   20.3670 H   0  0  0  0  0  0  0  0  0  0  0  0
    5.8934   -2.0255   21.7091 H   0  0  0  0  0  0  0  0  0  0  0  0
    9.6269   -0.0491   23.0329 C   0  0  0  0  0  0  0  0  0  0  0  0
   10.6627   -0.4775   22.1933 C   0  0  0  0  0  0  0  0  0  0  0  0
   11.9553   -0.0398   22.4147 C   0  0  0  0  0  0  0  0  0  0  0  0
   13.2082   -0.4416   21.2794 Cl  0  0  0  0  0  0  0  0  0  0  0  0
   12.2644    0.8048   23.4779 C   0  0  0  0  0  0  0  0  0  0  0  0
   11.2222    1.3397   24.1992 C   0  0  0  0  0  0  0  0  0  0  0  0
    9.9047    0.9514   23.9672 C   0  0  0  0  0  0  0  0  0  0  0  0
    8.7881    1.7343   24.6040 C   0  0  0  0  0  0  0  0  0  0  0  0
    8.9589    2.8665   25.0376 O   0  0  0  0  0  0  0  0  0  0  0  0
   11.4444    2.1333   24.8862 H   0  0  0  0  0  0  0  0  0  0  0  0
   13.2913    1.0804   23.6942 H   0  0  0  0  0  0  0  0  0  0  0  0
   10.4617   -1.1278   21.3494 H   0  0  0  0  0  0  0  0  0  0  0  0
    6.3162   -0.4114   23.9169 H   0  0  0  0  0  0  0  0  0  0  0  0
    7.7067   -0.9504   24.8668 H   0  0  0  0  0  0  0  0  0  0  0  0
    5.5632    1.6877   24.4078 H   0  0  0  0  0  0  0  0  0  0  0  0
    6.6372    2.9168   25.1016 H   0  0  0  0  0  0  0  0  0  0  0  0
    6.4671    1.9785   27.5766 O   0  0  0  0  0  0  0  0  0  0  0  0
    7.0023    0.9016   30.3178 H   0  0  0  0  0  0  0  0  0  0  0  0
    5.3455    1.4349   30.6215 H   0  0  0  0  0  0  0  0  0  0  0  0
    6.5792    2.6105   30.1025 H   0  0  0  0  0  0  0  0  0  0  0  0
  1  2  1  0
  2  3  2  0
  3  4  1  0
  4  5  2  0
  5  6  1  0
  6  7  1  0
  7  8  1  0
  9  8  1  1
  9 10  1  0
 10 11  2  0
 10 12  1  0
 12 13  1  0
 13 14  2  0
 14 15  1  0
 15 16  2  0
 16 17  1  0
 17 18  2  0
 18 19  1  0
 19 20  2  0
 20 21  1  0
 21 22  2  0
 21 23  1  0
 20 24  1  0
 19 25  1  0
 18 26  1  0
 16 27  1  0
 14 28  1  0
 12 29  1  0
 29 30  1  0
 30 31  1  0
 31 32  1  0
 32 33  1  0
 33 34  2  0
 34 35  1  0
 35 36  2  0
 36 37  1  0
 37 38  2  0
 37 39  1  0
 35 40  1  0
 34 41  1  0
 32 42  1  0
 31 43  1  0
 31 44  1  0
 30 45  1  6
 29 46  1  0
 29 47  1  0
  9 48  1  0
 48 49  2  0
 49 50  1  0
 50 51  1  0
 50 52  2  0
 52 53  1  0
 53 54  2  0
 54 55  1  0
 55 56  2  0
 53 57  1  0
 52 58  1  0
 49 59  1  0
  8 60  1  0
  8 61  1  0
  6 62  1  0
  6 63  1  0
  5 64  1  0
  1 65  1  0
  1 66  1  0
  1 67  1  0
 64  2  1  0
 55  7  1  0
 30  9  1  0
 38 33  1  0
 54 48  1  0
 22 13  1  0
 22 17  1  0
M  END
>  <cnnaffinities>  (52) 
[6.23015, 6.21648, 6.27643]

>  <score>  (52) 
6.23015

>  <index>  (52) 
51

>  <Smiles>  (52) 
C(c1nnc(C(N2C([C@@]3(C(=O)N(c4c(nc(c5c(c(c(c(c45)[H])[H])[H])[H])[H])[H])C([C@@]3(C(N(c3c(c(nc(n3)[H])[H])[H])[H])([H])[H])[H])([H])[H])c3c(c(Cl)c(c(c3C2=O)[H])[H])[H])([H])[H])([H])[H])o1)([H])([H])[H]

>  <h>  (52) 
<NA>

>  <Training>  (52) 
True

>  <Success>  (52) 
True

>  <enamine_searched>  (52) 
False

>  <enamine_id>  (52) 
nan

$$$$

     RDKit          3D

 66 71  0  0  0  0  0  0  0  0999 V2000
    6.6073    4.3558   21.3601 C   0  0  0  0  0  0  0  0  0  0  0  0
    7.5962    3.9285   22.3366 N   0  0  0  0  0  0  0  0  0  0  0  0
    7.1423    3.2829   23.4540 C   0  0  0  0  0  0  0  0  0  0  0  0
    5.9467    3.1282   23.6632 O   0  0  0  0  0  0  0  0  0  0  0  0
    8.1824    2.7551   24.4461 C   0  0  0  0  0  0  0  0  0  0  0  0
    8.8522    1.5747   23.9298 N   0  0  0  0  0  0  0  0  0  0  0  0
    8.1168    0.3175   23.8207 C   0  0  0  0  0  0  0  0  0  0  0  0
    8.5287   -0.4842   22.5525 C   0  0  2  0  0  0  0  0  0  0  0  0
    8.0357    0.2448   21.2763 C   0  0  0  0  0  0  0  0  0  0  0  0
    8.5403    1.2154   20.7431 O   0  0  0  0  0  0  0  0  0  0  0  0
    6.9072   -0.3976   20.8286 N   0  0  0  0  0  0  0  0  0  0  0  0
    6.1337    0.1177   19.7650 C   0  0  0  0  0  0  0  0  0  0  0  0
    6.4693   -0.1870   18.4721 C   0  0  0  0  0  0  0  0  0  0  0  0
    5.7837    0.2450   17.3908 N   0  0  0  0  0  0  0  0  0  0  0  0
    4.7414    1.0113   17.6023 C   0  0  0  0  0  0  0  0  0  0  0  0
    4.2815    1.3970   18.8945 C   0  0  0  0  0  0  0  0  0  0  0  0
    3.1514    2.2351   19.0768 C   0  0  0  0  0  0  0  0  0  0  0  0
    2.7628    2.6169   20.3315 C   0  0  0  0  0  0  0  0  0  0  0  0
    3.4815    2.1742   21.4643 C   0  0  0  0  0  0  0  0  0  0  0  0
    4.5703    1.3490   21.3176 C   0  0  0  0  0  0  0  0  0  0  0  0
    4.9976    0.9402   20.0236 C   0  0  0  0  0  0  0  0  0  0  0  0
    5.1350    1.0425   22.1937 H   0  0  0  0  0  0  0  0  0  0  0  0
    3.1871    2.5014   22.4554 H   0  0  0  0  0  0  0  0  0  0  0  0
    1.9062    3.2714   20.4594 H   0  0  0  0  0  0  0  0  0  0  0  0
    2.6217    2.5761   18.1925 H   0  0  0  0  0  0  0  0  0  0  0  0
    4.2041    1.3700   16.7251 H   0  0  0  0  0  0  0  0  0  0  0  0
    7.3348   -0.8185   18.2819 H   0  0  0  0  0  0  0  0  0  0  0  0
    6.5074   -1.5429   21.6141 C   0  0  0  0  0  0  0  0  0  0  0  0
    7.7683   -1.8460   22.4395 C   0  0  2  0  0  0  0  0  0  0  0  0
    7.4712   -2.5783   23.7630 C   0  0  0  0  0  0  0  0  0  0  0  0
    6.9586   -3.9272   23.5911 N   0  0  0  0  0  0  0  0  0  0  0  0
    5.6645   -4.2708   23.3347 C   0  0  0  0  0  0  0  0  0  0  0  0
    4.5545   -3.4580   23.6720 C   0  0  0  0  0  0  0  0  0  0  0  0
    3.3114   -3.9502   23.3176 C   0  0  0  0  0  0  0  0  0  0  0  0
    3.1332   -5.1215   22.6945 N   0  0  0  0  0  0  0  0  0  0  0  0
    4.2461   -5.8035   22.4549 C   0  0  0  0  0  0  0  0  0  0  0  0
    5.4973   -5.4698   22.7447 N   0  0  0  0  0  0  0  0  0  0  0  0
    4.1105   -6.7595   21.9503 H   0  0  0  0  0  0  0  0  0  0  0  0
    2.4096   -3.3714   23.5442 H   0  0  0  0  0  0  0  0  0  0  0  0
    4.6492   -2.4971   24.1837 H   0  0  0  0  0  0  0  0  0  0  0  0
    7.6202   -4.6174   23.2626 H   0  0  0  0  0  0  0  0  0  0  0  0
    6.7465   -1.9968   24.3466 H   0  0  0  0  0  0  0  0  0  0  0  0
    8.4011   -2.6293   24.3482 H   0  0  0  0  0  0  0  0  0  0  0  0
    8.3822   -2.5078   21.8200 H   0  0  0  0  0  0  0  0  0  0  0  0
    6.2133   -2.3743   20.9650 H   0  0  0  0  0  0  0  0  0  0  0  0
    5.6413   -1.3103   22.2531 H   0  0  0  0  0  0  0  0  0  0  0  0
   10.0439   -0.5492   22.5001 C   0  0  0  0  0  0  0  0  0  0  0  0
   10.6873   -1.4889   21.6836 C   0  0  0  0  0  0  0  0  0  0  0  0
   12.0533   -1.4170   21.4851 C   0  0  0  0  0  0  0  0  0  0  0  0
   12.8060   -2.4983   20.3449 Cl  0  0  0  0  0  0  0  0  0  0  0  0
   12.8321   -0.4584   22.1338 C   0  0  0  0  0  0  0  0  0  0  0  0
   12.2157    0.4536   22.9604 C   0  0  0  0  0  0  0  0  0  0  0  0
   10.8281    0.4506   23.0936 C   0  0  0  0  0  0  0  0  0  0  0  0
   10.2112    1.6225   23.7860 C   0  0  0  0  0  0  0  0  0  0  0  0
   10.8871    2.5751   24.1578 O   0  0  0  0  0  0  0  0  0  0  0  0
   12.7924    1.2056   23.4877 H   0  0  0  0  0  0  0  0  0  0  0  0
   13.9008   -0.4149   21.9609 H   0  0  0  0  0  0  0  0  0  0  0  0
   10.1400   -2.2650   21.1608 H   0  0  0  0  0  0  0  0  0  0  0  0
    8.2964   -0.2953   24.7167 H   0  0  0  0  0  0  0  0  0  0  0  0
    7.0454    0.5436   23.7840 H   0  0  0  0  0  0  0  0  0  0  0  0
    8.9666    3.4934   24.6427 H   0  0  0  0  0  0  0  0  0  0  0  0
    7.6800    2.5390   25.3970 H   0  0  0  0  0  0  0  0  0  0  0  0
    8.5030    3.6699   21.9653 H   0  0  0  0  0  0  0  0  0  0  0  0
    5.7805    4.8243   21.9011 H   0  0  0  0  0  0  0  0  0  0  0  0
    7.0344    5.1021   20.6851 H   0  0  0  0  0  0  0  0  0  0  0  0
    6.2236    3.4965   20.7909 H   0  0  0  0  0  0  0  0  0  0  0  0
  1  2  1  0
  2  3  1  0
  3  4  2  0
  3  5  1  0
  5  6  1  0
  6  7  1  0
  8  7  1  1
  8  9  1  0
  9 10  2  0
  9 11  1  0
 11 12  1  0
 12 13  2  0
 13 14  1  0
 14 15  2  0
 15 16  1  0
 16 17  2  0
 17 18  1  0
 18 19  2  0
 19 20  1  0
 20 21  2  0
 20 22  1  0
 19 23  1  0
 18 24  1  0
 17 25  1  0
 15 26  1  0
 13 27  1  0
 11 28  1  0
 28 29  1  0
 29 30  1  0
 30 31  1  0
 31 32  1  0
 32 33  2  0
 33 34  1  0
 34 35  2  0
 35 36  1  0
 36 37  2  0
 36 38  1  0
 34 39  1  0
 33 40  1  0
 31 41  1  0
 30 42  1  0
 30 43  1  0
 29 44  1  6
 28 45  1  0
 28 46  1  0
  8 47  1  0
 47 48  2  0
 48 49  1  0
 49 50  1  0
 49 51  2  0
 51 52  1  0
 52 53  2  0
 53 54  1  0
 54 55  2  0
 52 56  1  0
 51 57  1  0
 48 58  1  0
  7 59  1  0
  7 60  1  0
  5 61  1  0
  5 62  1  0
  2 63  1  0
  1 64  1  0
  1 65  1  0
  1 66  1  0
 54  6  1  0
 29  8  1  0
 37 32  1  0
 53 47  1  0
 21 12  1  0
 21 16  1  0
M  END
>  <cnnaffinities>  (53) 
[6.81131]

>  <score>  (53) 
6.81131

>  <index>  (53) 
52

>  <Smiles>  (53) 
C(N(C(=O)C(N1C([C@@]2(C(=O)N(c3c(nc(c4c(c(c(c(c34)[H])[H])[H])[H])[H])[H])C([C@@]2(C(N(c2c(c(nc(n2)[H])[H])[H])[H])([H])[H])[H])([H])[H])c2c(c(Cl)c(c(c2C1=O)[H])[H])[H])([H])[H])([H])[H])[H])([H])([H])[H]

>  <h>  (53) 
<NA>

>  <Training>  (53) 
True

>  <Success>  (53) 
True

>  <enamine_searched>  (53) 
False

>  <enamine_id>  (53) 
nan

$$$$

     RDKit          3D

 77 84  0  0  0  0  0  0  0  0999 V2000
    4.7648   -3.2456   25.8352 O   0  0  0  0  0  0  0  0  0  0  0  0
    5.5503   -2.6291   25.1214 C   0  0  0  0  0  0  0  0  0  0  0  0
    5.8209   -1.1636   25.2857 C   0  0  0  0  0  0  0  0  0  0  0  0
    5.4152   -0.5385   26.4633 C   0  0  0  0  0  0  0  0  0  0  0  0
    5.5729    0.8238   26.6280 C   0  0  0  0  0  0  0  0  0  0  0  0
    6.0885    1.5646   25.5670 C   0  0  0  0  0  0  0  0  0  0  0  0
    6.2332    3.2947   25.7329 Cl  0  0  0  0  0  0  0  0  0  0  0  0
    6.5118    0.9535   24.3958 C   0  0  0  0  0  0  0  0  0  0  0  0
    6.4668   -0.4443   24.2724 C   0  0  0  0  0  0  0  0  0  0  0  0
    7.1520   -1.1601   23.1061 C   0  0  1  0  0  0  0  0  0  0  0  0
    7.4255   -2.6144   23.5571 C   0  0  0  0  0  0  0  0  0  0  0  0
    6.2307   -3.2189   24.1009 N   0  0  0  0  0  0  0  0  0  0  0  0
    5.8989   -4.5819   23.7601 C   0  0  0  0  0  0  0  0  0  0  0  0
    6.5524   -5.5738   24.7245 C   0  0  0  0  0  0  0  0  0  0  0  0
    5.8506   -6.8986   24.7561 N   0  0  0  0  0  4  0  0  0  0  0  0
    4.4489   -6.9458   25.3777 C   0  0  0  0  0  0  0  0  0  0  0  0
    3.8477   -7.5158   24.0743 C   0  0  0  0  0  0  0  0  0  0  0  0
    2.9364   -8.7384   24.0594 C   0  0  0  0  0  0  0  0  0  0  0  0
    1.8620   -7.9819   23.4845 O   0  0  0  0  0  0  0  0  0  0  0  0
    2.6805   -6.8112   23.3962 C   0  0  0  0  0  0  0  0  0  0  0  0
    2.2517   -5.9670   23.9544 H   0  0  0  0  0  0  0  0  0  0  0  0
    2.8655   -6.5081   22.3561 H   0  0  0  0  0  0  0  0  0  0  0  0
    2.6776   -9.1541   25.0420 H   0  0  0  0  0  0  0  0  0  0  0  0
    3.2568   -9.5486   23.3947 H   0  0  0  0  0  0  0  0  0  0  0  0
    5.2689   -7.5047   23.4761 C   0  0  0  0  0  0  0  0  0  0  0  0
    5.7333   -8.4711   23.3001 H   0  0  0  0  0  0  0  0  0  0  0  0
    5.4204   -6.8563   22.6208 H   0  0  0  0  0  0  0  0  0  0  0  0
    4.1314   -5.9463   25.6646 H   0  0  0  0  0  0  0  0  0  0  0  0
    4.4511   -7.6176   26.2326 H   0  0  0  0  0  0  0  0  0  0  0  0
    6.4888   -7.5511   25.2332 H   0  0  0  0  0  0  0  0  0  0  0  0
    6.5087   -5.1849   25.7426 H   0  0  0  0  0  0  0  0  0  0  0  0
    7.5965   -5.7592   24.4606 H   0  0  0  0  0  0  0  0  0  0  0  0
    6.2175   -4.7499   22.7244 H   0  0  0  0  0  0  0  0  0  0  0  0
    4.8065   -4.6632   23.7810 H   0  0  0  0  0  0  0  0  0  0  0  0
    7.7633   -3.2158   22.7123 H   0  0  0  0  0  0  0  0  0  0  0  0
    8.2133   -2.6131   24.3224 H   0  0  0  0  0  0  0  0  0  0  0  0
    6.2711   -1.1874   21.8393 C   0  0  0  0  0  0  0  0  0  0  0  0
    5.2998   -1.8845   21.6316 O   0  0  0  0  0  0  0  0  0  0  0  0
    6.7775   -0.2831   20.9363 N   0  0  0  0  0  0  0  0  0  0  0  0
    5.9980    0.1741   19.8447 C   0  0  0  0  0  0  0  0  0  0  0  0
    6.3637   -0.1184   18.5567 C   0  0  0  0  0  0  0  0  0  0  0  0
    5.6853    0.2928   17.4601 N   0  0  0  0  0  0  0  0  0  0  0  0
    4.6222    1.0365   17.6420 C   0  0  0  0  0  0  0  0  0  0  0  0
    4.1351    1.4170   18.9250 C   0  0  0  0  0  0  0  0  0  0  0  0
    2.9860    2.2378   19.0735 C   0  0  0  0  0  0  0  0  0  0  0  0
    2.5513    2.6027   20.3165 C   0  0  0  0  0  0  0  0  0  0  0  0
    3.2427    2.1612   21.4683 C   0  0  0  0  0  0  0  0  0  0  0  0
    4.3557    1.3676   21.3561 C   0  0  0  0  0  0  0  0  0  0  0  0
    4.8318    0.9729   20.0700 C   0  0  0  0  0  0  0  0  0  0  0  0
    4.8776    1.0448   22.2566 H   0  0  0  0  0  0  0  0  0  0  0  0
    2.8907    2.4566   22.4520 H   0  0  0  0  0  0  0  0  0  0  0  0
    1.6789    3.2402   20.4301 H   0  0  0  0  0  0  0  0  0  0  0  0
    2.4781    2.5808   18.1752 H   0  0  0  0  0  0  0  0  0  0  0  0
    4.0876    1.3720   16.7516 H   0  0  0  0  0  0  0  0  0  0  0  0
    7.2386   -0.7385   18.3683 H   0  0  0  0  0  0  0  0  0  0  0  0
    8.0355    0.3222   21.3214 C   0  0  0  0  0  0  0  0  0  0  0  0
    8.4192   -0.3786   22.6418 C   0  0  2  0  0  0  0  0  0  0  0  0
    9.6824   -1.2419   22.5197 C   0  0  0  0  0  0  0  0  0  0  0  0
   10.8400   -0.4352   22.2409 N   0  0  0  0  0  0  0  0  0  0  0  0
   11.9066   -0.9305   21.5748 C   0  0  0  0  0  0  0  0  0  0  0  0
   13.0167   -0.2856   21.3361 N   0  0  0  0  0  0  0  0  0  0  0  0
   13.6291   -1.1420   20.3268 C   0  0  0  0  0  0  0  0  0  0  0  0
   12.8551   -2.2621   20.0441 C   0  0  0  0  0  0  0  0  0  0  0  0
   12.8558   -2.5112   20.2288 C   0  0  0  0  0  0  0  0  0  0  0  0
   11.7522   -2.3012   21.0586 N   0  0  0  0  0  0  0  0  0  0  0  0
   13.2716   -3.4846   20.8304 H   0  0  0  0  0  0  0  0  0  0  0  0
   12.5310   -3.1331   19.2130 H   0  0  0  0  0  0  0  0  0  0  0  0
   13.4317   -0.7764   19.3752 H   0  0  0  0  0  0  0  0  0  0  0  0
   11.0194    0.3958   22.7789 H   0  0  0  0  0  0  0  0  0  0  0  0
    9.8440   -1.8157   23.4400 H   0  0  0  0  0  0  0  0  0  0  0  0
    9.5920   -1.9488   21.6960 H   0  0  0  0  0  0  0  0  0  0  0  0
    8.6675    0.3679   23.4066 H   0  0  0  0  0  0  0  0  0  0  0  0
    8.7724    0.1821   20.5290 H   0  0  0  0  0  0  0  0  0  0  0  0
    7.9242    1.4063   21.4536 H   0  0  0  0  0  0  0  0  0  0  0  0
    6.8940    1.5824   23.5950 H   0  0  0  0  0  0  0  0  0  0  0  0
    5.2902    1.3200   27.5483 H   0  0  0  0  0  0  0  0  0  0  0  0
    4.9786   -1.1554   27.2402 H   0  0  0  0  0  0  0  0  0  0  0  0
  1  2  2  0
  2  3  1  0
  3  4  2  0
  4  5  1  0
  5  6  2  0
  6  7  1  0
  6  8  1  0
  8  9  2  0
  9 10  1  0
 10 11  1  1
 11 12  1  0
 12 13  1  0
 13 14  1  0
 14 15  1  0
 15 16  1  0
 16 17  1  0
 17 18  1  0
 18 19  1  0
 19 20  1  0
 20 21  1  0
 20 22  1  0
 18 23  1  0
 18 24  1  0
 17 25  1  0
 25 26  1  0
 25 27  1  0
 16 28  1  0
 16 29  1  0
 15 30  1  0
 14 31  1  0
 14 32  1  0
 13 33  1  0
 13 34  1  0
 11 35  1  0
 11 36  1  0
 10 37  1  0
 37 38  2  0
 37 39  1  0
 39 40  1  0
 40 41  2  0
 41 42  1  0
 42 43  2  0
 43 44  1  0
 44 45  2  0
 45 46  1  0
 46 47  2  0
 47 48  1  0
 48 49  2  0
 48 50  1  0
 47 51  1  0
 46 52  1  0
 45 53  1  0
 43 54  1  0
 41 55  1  0
 39 56  1  0
 56 57  1  0
 57 58  1  0
 58 59  1  0
 59 60  1  0
 60 61  2  0
 61 62  1  0
 62 63  2  0
 63 64  1  0
 64 65  2  0
 64 66  1  0
 63 67  1  0
 62 68  1  0
 59 69  1  0
 58 70  1  0
 58 71  1  0
 57 72  1  1
 56 73  1  0
 56 74  1  0
  8 75  1  0
  5 76  1  0
  4 77  1  0
 12  2  1  0
 25 15  1  0
 49 40  1  0
 65 60  1  0
  9  3  1  0
 57 10  1  0
 20 17  1  0
 49 44  1  0
M  CHG  1  15   1
M  END
>  <cnnaffinities>  (54) 
[7.14774]

>  <score>  (54) 
7.14774

>  <index>  (54) 
53

>  <Smiles>  (54) 
O=C1c2c(c(c(Cl)c(c2[C@@]2(C(N1C(C([N+]1(C(C3(C(OC3([H])[H])([H])[H])C1([H])[H])([H])[H])[H])([H])[H])([H])[H])([H])[H])C(=O)N(c1c(nc(c3c(c(c(c(c13)[H])[H])[H])[H])[H])[H])C([C@@]2(C(N(c1nc(c(c(n1)[H])[H])[H])[H])([H])[H])[H])([H])[H])[H])[H])[H]

>  <h>  (54) 
<NA>

>  <Training>  (54) 
True

>  <Success>  (54) 
True

>  <enamine_searched>  (54) 
False

>  <enamine_id>  (54) 
nan

$$$$

     RDKit          3D

 66 71  0  0  0  0  0  0  0  0999 V2000
    6.5871    4.3513   21.3658 C   0  0  0  0  0  0  0  0  0  0  0  0
    7.5719    3.9077   22.3395 N   0  0  0  0  0  0  0  0  0  0  0  0
    7.1166    3.2867   23.4700 C   0  0  0  0  0  0  0  0  0  0  0  0
    5.9210    3.1578   23.6855 O   0  0  0  0  0  0  0  0  0  0  0  0
    8.1615    2.7517   24.4549 C   0  0  0  0  0  0  0  0  0  0  0  0
    8.8441    1.5889   23.9184 N   0  0  0  0  0  0  0  0  0  0  0  0
    8.1156    0.3292   23.8221 C   0  0  0  0  0  0  0  0  0  0  0  0
    8.5188   -0.4793   22.5606 C   0  0  2  0  0  0  0  0  0  0  0  0
    8.0392    0.2406   21.2703 C   0  0  0  0  0  0  0  0  0  0  0  0
    8.5459    1.2036   20.7297 O   0  0  0  0  0  0  0  0  0  0  0  0
    6.9240   -0.4194   20.8037 N   0  0  0  0  0  0  0  0  0  0  0  0
    6.1419    0.1091   19.7500 C   0  0  0  0  0  0  0  0  0  0  0  0
    6.4722   -0.1856   18.4528 C   0  0  0  0  0  0  0  0  0  0  0  0
    5.7819    0.2530   17.3757 N   0  0  0  0  0  0  0  0  0  0  0  0
    4.7405    1.0153   17.5963 C   0  0  0  0  0  0  0  0  0  0  0  0
    4.2846    1.3929   18.8914 C   0  0  0  0  0  0  0  0  0  0  0  0
    3.1550    2.2305   19.0782 C   0  0  0  0  0  0  0  0  0  0  0  0
    2.7681    2.6100   20.3328 C   0  0  0  0  0  0  0  0  0  0  0  0
    3.4895    2.1637   21.4637 C   0  0  0  0  0  0  0  0  0  0  0  0
    4.5776    1.3380   21.3124 C   0  0  0  0  0  0  0  0  0  0  0  0
    5.0049    0.9306   20.0174 C   0  0  0  0  0  0  0  0  0  0  0  0
    5.1384    1.0248   22.1900 H   0  0  0  0  0  0  0  0  0  0  0  0
    3.1984    2.4901   22.4559 H   0  0  0  0  0  0  0  0  0  0  0  0
    1.9134    3.2666   20.4640 H   0  0  0  0  0  0  0  0  0  0  0  0
    2.6260    2.5735   18.1937 H   0  0  0  0  0  0  0  0  0  0  0  0
    4.1976    1.3787   16.7239 H   0  0  0  0  0  0  0  0  0  0  0  0
    7.3371   -0.8152   18.2565 H   0  0  0  0  0  0  0  0  0  0  0  0
    6.4802   -1.5106   21.6449 C   0  0  0  0  0  0  0  0  0  0  0  0
    7.7445   -1.8303   22.4512 C   0  0  2  0  0  0  0  0  0  0  0  0
    7.5133   -2.6603   23.7243 C   0  0  0  0  0  0  0  0  0  0  0  0
    6.3915   -2.2549   24.5472 N   0  0  0  0  0  0  0  0  0  0  0  0
    5.1249   -2.7499   24.4042 C   0  0  0  0  0  0  0  0  0  0  0  0
    4.0774   -2.2510   25.2108 C   0  0  0  0  0  0  0  0  0  0  0  0
    2.8304   -2.6659   25.0883 N   0  0  0  0  0  0  0  0  0  0  0  0
    2.5914   -3.5987   24.1552 C   0  0  0  0  0  0  0  0  0  0  0  0
    3.6156   -4.0973   23.3737 C   0  0  0  0  0  0  0  0  0  0  0  0
    4.8837   -3.6817   23.4804 N   0  0  0  0  0  0  0  0  0  0  0  0
    3.4076   -4.8605   22.6285 H   0  0  0  0  0  0  0  0  0  0  0  0
    1.5645   -3.9427   24.0356 H   0  0  0  0  0  0  0  0  0  0  0  0
    4.2800   -1.4869   25.9602 H   0  0  0  0  0  0  0  0  0  0  0  0
    6.5232   -1.5403   25.2469 H   0  0  0  0  0  0  0  0  0  0  0  0
    7.3174   -3.6963   23.4349 H   0  0  0  0  0  0  0  0  0  0  0  0
    8.4269   -2.6328   24.3319 H   0  0  0  0  0  0  0  0  0  0  0  0
    8.3512   -2.4612   21.7961 H   0  0  0  0  0  0  0  0  0  0  0  0
    5.6271   -1.2052   22.2653 H   0  0  0  0  0  0  0  0  0  0  0  0
    6.1490   -2.3700   21.0530 H   0  0  0  0  0  0  0  0  0  0  0  0
   10.0348   -0.5567   22.5152 C   0  0  0  0  0  0  0  0  0  0  0  0
   10.6848   -1.5232   21.7339 C   0  0  0  0  0  0  0  0  0  0  0  0
   12.0467   -1.4351   21.5079 C   0  0  0  0  0  0  0  0  0  0  0  0
   12.8028   -2.5229   20.3723 Cl  0  0  0  0  0  0  0  0  0  0  0  0
   12.8206   -0.4473   22.1182 C   0  0  0  0  0  0  0  0  0  0  0  0
   12.2028    0.4783   22.9287 C   0  0  0  0  0  0  0  0  0  0  0  0
   10.8172    0.4654   23.0787 C   0  0  0  0  0  0  0  0  0  0  0  0
   10.2019    1.6416   23.7699 C   0  0  0  0  0  0  0  0  0  0  0  0
   10.8757    2.5979   24.1390 O   0  0  0  0  0  0  0  0  0  0  0  0
   12.7816    1.2478   23.4286 H   0  0  0  0  0  0  0  0  0  0  0  0
   13.8865   -0.3993   21.9340 H   0  0  0  0  0  0  0  0  0  0  0  0
   10.1466   -2.3410   21.2668 H   0  0  0  0  0  0  0  0  0  0  0  0
    7.0466    0.5566   23.7826 H   0  0  0  0  0  0  0  0  0  0  0  0
    8.3089   -0.2804   24.7171 H   0  0  0  0  0  0  0  0  0  0  0  0
    8.9365    3.4937   24.6717 H   0  0  0  0  0  0  0  0  0  0  0  0
    7.6533    2.5128   25.3988 H   0  0  0  0  0  0  0  0  0  0  0  0
    8.4675    3.6313   21.9674 H   0  0  0  0  0  0  0  0  0  0  0  0
    5.7629    4.8209   21.9067 H   0  0  0  0  0  0  0  0  0  0  0  0
    6.2009    3.5043   20.7783 H   0  0  0  0  0  0  0  0  0  0  0  0
    7.0194    5.1004   20.6972 H   0  0  0  0  0  0  0  0  0  0  0  0
  1  2  1  0
  2  3  1  0
  3  4  2  0
  3  5  1  0
  5  6  1  0
  6  7  1  0
  8  7  1  1
  8  9  1  0
  9 10  2  0
  9 11  1  0
 11 12  1  0
 12 13  2  0
 13 14  1  0
 14 15  2  0
 15 16  1  0
 16 17  2  0
 17 18  1  0
 18 19  2  0
 19 20  1  0
 20 21  2  0
 20 22  1  0
 19 23  1  0
 18 24  1  0
 17 25  1  0
 15 26  1  0
 13 27  1  0
 11 28  1  0
 28 29  1  0
 29 30  1  0
 30 31  1  0
 31 32  1  0
 32 33  2  0
 33 34  1  0
 34 35  2  0
 35 36  1  0
 36 37  2  0
 36 38  1  0
 35 39  1  0
 33 40  1  0
 31 41  1  0
 30 42  1  0
 30 43  1  0
 29 44  1  6
 28 45  1  0
 28 46  1  0
  8 47  1  0
 47 48  2  0
 48 49  1  0
 49 50  1  0
 49 51  2  0
 51 52  1  0
 52 53  2  0
 53 54  1  0
 54 55  2  0
 52 56  1  0
 51 57  1  0
 48 58  1  0
  7 59  1  0
  7 60  1  0
  5 61  1  0
  5 62  1  0
  2 63  1  0
  1 64  1  0
  1 65  1  0
  1 66  1  0
 54  6  1  0
 29  8  1  0
 37 32  1  0
 53 47  1  0
 21 12  1  0
 21 16  1  0
M  END
>  <cnnaffinities>  (55) 
[6.42186]

>  <score>  (55) 
6.42186

>  <index>  (55) 
54

>  <Smiles>  (55) 
C(N(C(=O)C(N1C([C@@]2(C(=O)N(c3c(nc(c4c(c(c(c(c34)[H])[H])[H])[H])[H])[H])C([C@@]2(C(N(c2c(nc(c(n2)[H])[H])[H])[H])([H])[H])[H])([H])[H])c2c(c(Cl)c(c(c2C1=O)[H])[H])[H])([H])[H])([H])[H])[H])([H])([H])[H]

>  <h>  (55) 
<NA>

>  <Training>  (55) 
True

>  <Success>  (55) 
True

>  <enamine_searched>  (55) 
False

>  <enamine_id>  (55) 
nan

$$$$

     RDKit          3D

 56 61  0  0  0  0  0  0  0  0999 V2000
   12.6805    2.0536   22.2646 C   0  0  0  0  0  0  0  0  0  0  0  0
   12.7152    0.6900   22.7169 N   0  0  0  0  0  0  0  0  0  0  0  0
   13.0109    0.1961   23.9364 C   0  0  0  0  0  0  0  0  0  0  0  0
   12.7897   -1.1558   23.8795 C   0  0  0  0  0  0  0  0  0  0  0  0
   12.3426   -1.3803   22.5585 C   0  0  0  0  0  0  0  0  0  0  0  0
   11.8986   -2.6435   21.9058 C   0  0  0  0  0  0  0  0  0  0  0  0
   10.5162   -2.9222   22.2625 N   0  0  0  0  0  0  0  0  0  0  0  0
    9.4317   -2.6046   21.3521 C   0  0  0  0  0  0  0  0  0  0  0  0
    8.2331   -1.9499   22.0769 C   0  0  1  0  0  0  0  0  0  0  0  0
    8.5501   -0.5015   22.5250 C   0  0  0  0  0  0  0  0  0  0  0  0
    7.8959    0.4253   21.4961 C   0  0  0  0  0  0  0  0  0  0  0  0
    6.8974   -0.4194   20.8602 N   0  0  0  0  0  0  0  0  0  0  0  0
    6.1078    0.0484   19.7812 C   0  0  0  0  0  0  0  0  0  0  0  0
    6.4365   -0.2615   18.4854 C   0  0  0  0  0  0  0  0  0  0  0  0
    5.7812    0.2171   17.3991 N   0  0  0  0  0  0  0  0  0  0  0  0
    4.7623    1.0142   17.6064 C   0  0  0  0  0  0  0  0  0  0  0  0
    4.2989    1.3896   18.9002 C   0  0  0  0  0  0  0  0  0  0  0  0
    3.1726    2.2313   19.0771 C   0  0  0  0  0  0  0  0  0  0  0  0
    2.7647    2.5852   20.3329 C   0  0  0  0  0  0  0  0  0  0  0  0
    3.4519    2.1052   21.4701 C   0  0  0  0  0  0  0  0  0  0  0  0
    4.5416    1.2805   21.3277 C   0  0  0  0  0  0  0  0  0  0  0  0
    4.9932    0.9078   20.0316 C   0  0  0  0  0  0  0  0  0  0  0  0
    5.0608    0.9054   22.2051 H   0  0  0  0  0  0  0  0  0  0  0  0
    3.1161    2.3952   22.4614 H   0  0  0  0  0  0  0  0  0  0  0  0
    1.9115    3.2436   20.4618 H   0  0  0  0  0  0  0  0  0  0  0  0
    2.6561    2.5896   18.1910 H   0  0  0  0  0  0  0  0  0  0  0  0
    4.2423    1.4076   16.7313 H   0  0  0  0  0  0  0  0  0  0  0  0
    7.2747   -0.9248   18.2805 H   0  0  0  0  0  0  0  0  0  0  0  0
    7.0739   -1.7660   21.0900 C   0  0  0  0  0  0  0  0  0  0  0  0
    6.3865   -2.6400   20.5978 O   0  0  0  0  0  0  0  0  0  0  0  0
    8.6234    0.7808   20.7537 H   0  0  0  0  0  0  0  0  0  0  0  0
    7.4241    1.3031   21.9520 H   0  0  0  0  0  0  0  0  0  0  0  0
    9.6290   -0.3501   22.5744 H   0  0  0  0  0  0  0  0  0  0  0  0
    8.1327   -0.3383   23.5214 H   0  0  0  0  0  0  0  0  0  0  0  0
    7.8816   -2.8557   23.2349 C   0  0  0  0  0  0  0  0  0  0  0  0
    6.5857   -2.9176   23.7347 C   0  0  0  0  0  0  0  0  0  0  0  0
    6.3212   -3.7115   24.8388 C   0  0  0  0  0  0  0  0  0  0  0  0
    4.7172   -3.7051   25.5053 Cl  0  0  0  0  0  0  0  0  0  0  0  0
    7.3114   -4.4827   25.4524 C   0  0  0  0  0  0  0  0  0  0  0  0
    8.6020   -4.4058   24.9686 C   0  0  0  0  0  0  0  0  0  0  0  0
    8.8844   -3.5643   23.9000 C   0  0  0  0  0  0  0  0  0  0  0  0
   10.3069   -3.3929   23.5263 C   0  0  0  0  0  0  0  0  0  0  0  0
   11.2203   -3.6468   24.3035 O   0  0  0  0  0  0  0  0  0  0  0  0
    9.4263   -4.9793   25.3850 H   0  0  0  0  0  0  0  0  0  0  0  0
    7.0782   -5.0988   26.3134 H   0  0  0  0  0  0  0  0  0  0  0  0
    5.7980   -2.3428   23.2607 H   0  0  0  0  0  0  0  0  0  0  0  0
    9.8062   -1.9271   20.5824 H   0  0  0  0  0  0  0  0  0  0  0  0
    9.0892   -3.5321   20.8997 H   0  0  0  0  0  0  0  0  0  0  0  0
   11.9630   -2.5292   20.8184 H   0  0  0  0  0  0  0  0  0  0  0  0
   12.5206   -3.4813   22.2337 H   0  0  0  0  0  0  0  0  0  0  0  0
   12.2824   -0.2549   21.8707 N   0  0  0  0  0  0  0  0  0  0  0  0
   12.8913   -1.9078   24.6475 H   0  0  0  0  0  0  0  0  0  0  0  0
   13.3073    0.8359   24.7523 H   0  0  0  0  0  0  0  0  0  0  0  0
   13.6770    2.5160   22.2802 H   0  0  0  0  0  0  0  0  0  0  0  0
   12.2890    1.9309   21.2531 H   0  0  0  0  0  0  0  0  0  0  0  0
   12.0015    2.6491   22.8857 H   0  0  0  0  0  0  0  0  0  0  0  0
  1  2  1  0
  2  3  1  0
  3  4  2  0
  4  5  1  0
  5  6  1  0
  6  7  1  0
  7  8  1  0
  9  8  1  6
  9 10  1  0
 10 11  1  0
 11 12  1  0
 12 13  1  0
 13 14  2  0
 14 15  1  0
 15 16  2  0
 16 17  1  0
 17 18  2  0
 18 19  1  0
 19 20  2  0
 20 21  1  0
 21 22  2  0
 21 23  1  0
 20 24  1  0
 19 25  1  0
 18 26  1  0
 16 27  1  0
 14 28  1  0
 12 29  1  0
 29 30  2  0
 11 31  1  0
 11 32  1  0
 10 33  1  0
 10 34  1  0
  9 35  1  0
 35 36  2  0
 36 37  1  0
 37 38  1  0
 37 39  2  0
 39 40  1  0
 40 41  2  0
 41 42  1  0
 42 43  2  0
 40 44  1  0
 39 45  1  0
 36 46  1  0
  8 47  1  0
  8 48  1  0
  6 49  1  0
  6 50  1  0
  5 51  2  0
  4 52  1  0
  3 53  1  0
  1 54  1  0
  1 55  1  0
  1 56  1  0
 51  2  1  0
 42  7  1  0
 29  9  1  0
 41 35  1  0
 22 13  1  0
 22 17  1  0
M  END
>  <cnnaffinities>  (56) 
[6.94029]

>  <score>  (56) 
6.94029

>  <index>  (56) 
55

>  <Smiles>  (56) 
C(n1c(c(c(C(N2C([C@]3(C(C(N(c4c(nc(c5c(c(c(c(c45)[H])[H])[H])[H])[H])[H])C3=O)([H])[H])([H])[H])c3c(c(Cl)c(c(c3C2=O)[H])[H])[H])([H])[H])([H])[H])n1)[H])[H])([H])([H])[H]

>  <h>  (56) 
<NA>

>  <Training>  (56) 
True

>  <Success>  (56) 
True

>  <enamine_searched>  (56) 
False

>  <enamine_id>  (56) 
nan

$$$$

     RDKit          3D

 41 43  0  0  0  0  0  0  0  0999 V2000
    8.3914    1.4753   20.6704 O   0  0  0  0  0  0  0  0  0  0  0  0
    7.9659    0.6266   21.4265 C   0  0  0  0  0  0  0  0  0  0  0  0
    6.9668   -0.4303   20.9093 C   0  0  0  0  0  0  0  0  0  0  0  0
    6.1115    0.0849   19.7718 C   0  0  0  0  0  0  0  0  0  0  0  0
    6.4254   -0.2076   18.4667 C   0  0  0  0  0  0  0  0  0  0  0  0
    5.7576    0.2419   17.3730 N   0  0  0  0  0  0  0  0  0  0  0  0
    4.7323    1.0328   17.5768 C   0  0  0  0  0  0  0  0  0  0  0  0
    4.2850    1.4234   18.8693 C   0  0  0  0  0  0  0  0  0  0  0  0
    3.1665    2.2772   19.0456 C   0  0  0  0  0  0  0  0  0  0  0  0
    2.7651    2.6483   20.3015 C   0  0  0  0  0  0  0  0  0  0  0  0
    3.4643    2.1696   21.4313 C   0  0  0  0  0  0  0  0  0  0  0  0
    4.5511    1.3369   21.2890 C   0  0  0  0  0  0  0  0  0  0  0  0
    4.9915    0.9399   19.9985 C   0  0  0  0  0  0  0  0  0  0  0  0
    5.0759    0.9842   22.1728 H   0  0  0  0  0  0  0  0  0  0  0  0
    3.1358    2.4663   22.4219 H   0  0  0  0  0  0  0  0  0  0  0  0
    1.9151    3.3115   20.4346 H   0  0  0  0  0  0  0  0  0  0  0  0
    2.6432    2.6438   18.1659 H   0  0  0  0  0  0  0  0  0  0  0  0
    4.1996    1.4002   16.6979 H   0  0  0  0  0  0  0  0  0  0  0  0
    7.2732   -0.8528   18.2427 H   0  0  0  0  0  0  0  0  0  0  0  0
    6.3335   -0.8096   21.7228 H   0  0  0  0  0  0  0  0  0  0  0  0
    7.5525   -1.2857   20.5416 H   0  0  0  0  0  0  0  0  0  0  0  0
    8.3510    0.5368   22.7717 N   0  0  0  0  0  0  0  0  0  0  0  0
    8.7800   -0.7585   23.3047 C   0  0  0  0  0  0  0  0  0  0  0  0
   10.0256   -1.3680   22.6284 C   0  0  0  0  0  0  0  0  0  0  0  0
   11.0875   -0.3452   22.2286 C   0  0  0  0  0  0  0  0  0  0  0  0
   11.5110    0.8841   23.4942 S   0  0  0  0  0  0  0  0  0  0  0  0
   10.2796    2.1493   23.0883 C   0  0  0  0  0  0  0  0  0  0  0  0
    8.8599    1.7238   23.4607 C   0  0  1  0  0  0  0  0  0  0  0  0
    7.8729    2.8889   23.3752 C   0  0  0  0  0  0  0  0  0  0  0  0
    8.1702    3.8179   24.3131 F   0  0  0  0  0  0  0  0  0  0  0  0
    6.6198    2.4733   23.6208 F   0  0  0  0  0  0  0  0  0  0  0  0
    7.8749    3.5127   22.1970 F   0  0  0  0  0  0  0  0  0  0  0  0
    8.8733    1.4760   24.5254 H   0  0  0  0  0  0  0  0  0  0  0  0
   10.5730    3.0519   23.6399 H   0  0  0  0  0  0  0  0  0  0  0  0
   10.3416    2.3612   22.0215 H   0  0  0  0  0  0  0  0  0  0  0  0
   10.7461    0.2216   21.3626 H   0  0  0  0  0  0  0  0  0  0  0  0
   12.0179   -0.8540   21.9516 H   0  0  0  0  0  0  0  0  0  0  0  0
   10.4778   -2.1032   23.3046 H   0  0  0  0  0  0  0  0  0  0  0  0
    9.7283   -1.9221   21.7257 H   0  0  0  0  0  0  0  0  0  0  0  0
    7.9455   -1.4601   23.2326 H   0  0  0  0  0  0  0  0  0  0  0  0
    8.9811   -0.6294   24.3716 H   0  0  0  0  0  0  0  0  0  0  0  0
  1  2  2  0
  2  3  1  0
  3  4  1  0
  4  5  2  0
  5  6  1  0
  6  7  2  0
  7  8  1  0
  8  9  2  0
  9 10  1  0
 10 11  2  0
 11 12  1  0
 12 13  2  0
 12 14  1  0
 11 15  1  0
 10 16  1  0
  9 17  1  0
  7 18  1  0
  5 19  1  0
  3 20  1  0
  3 21  1  0
  2 22  1  0
 22 23  1  0
 23 24  1  0
 24 25  1  0
 25 26  1  0
 26 27  1  0
 27 28  1  0
 28 29  1  0
 29 30  1  0
 29 31  1  0
 29 32  1  0
 28 33  1  1
 27 34  1  0
 27 35  1  0
 25 36  1  0
 25 37  1  0
 24 38  1  0
 24 39  1  0
 23 40  1  0
 23 41  1  0
 13  4  1  0
 28 22  1  0
 13  8  1  0
M  END
>  <cnnaffinities>  (57) 
[5.8585, 5.85586, 5.93344, 5.93314, 5.93309, 5.84535, 5.84495]

>  <score>  (57) 
5.8585

>  <index>  (57) 
56

>  <Smiles>  (57) 
O=C(C(c1c(nc(c2c(c(c(c(c12)[H])[H])[H])[H])[H])[H])([H])[H])N1C(C(C(SC([C@]1(C(F)(F)F)[H])([H])[H])([H])[H])([H])[H])([H])[H]

>  <h>  (57) 
<NA>

>  <Training>  (57) 
True

>  <Success>  (57) 
True

>  <enamine_searched>  (57) 
False

>  <enamine_id>  (57) 
nan

$$$$

     RDKit          3D

 67 72  0  0  0  0  0  0  0  0999 V2000
    6.6057    4.3825   21.3465 C   0  0  0  0  0  0  0  0  0  0  0  0
    7.5720    3.9835   22.3554 N   0  0  0  0  0  0  0  0  0  0  0  0
    7.0804    3.3315   23.4562 C   0  0  0  0  0  0  0  0  0  0  0  0
    5.8822    3.1712   23.6273 O   0  0  0  0  0  0  0  0  0  0  0  0
    8.0917    2.8038   24.4686 C   0  0  0  0  0  0  0  0  0  0  0  0
    8.7776    1.6393   23.9473 N   0  0  0  0  0  0  0  0  0  0  0  0
    8.0620    0.3718   23.8493 C   0  0  0  0  0  0  0  0  0  0  0  0
    8.4863   -0.4342   22.5895 C   0  0  2  0  0  0  0  0  0  0  0  0
    7.9829    0.2667   21.3068 C   0  0  0  0  0  0  0  0  0  0  0  0
    8.4410    1.2663   20.7832 O   0  0  0  0  0  0  0  0  0  0  0  0
    6.8922   -0.4277   20.8368 N   0  0  0  0  0  0  0  0  0  0  0  0
    6.1152    0.0897   19.7766 C   0  0  0  0  0  0  0  0  0  0  0  0
    6.4629   -0.2007   18.4841 C   0  0  0  0  0  0  0  0  0  0  0  0
    5.7879    0.2413   17.3987 N   0  0  0  0  0  0  0  0  0  0  0  0
    4.7482    1.0103   17.6064 C   0  0  0  0  0  0  0  0  0  0  0  0
    4.2840    1.3940   18.8974 C   0  0  0  0  0  0  0  0  0  0  0  0
    3.1558    2.2363   19.0771 C   0  0  0  0  0  0  0  0  0  0  0  0
    2.7655    2.6170   20.3301 C   0  0  0  0  0  0  0  0  0  0  0  0
    3.4757    2.1720   21.4659 C   0  0  0  0  0  0  0  0  0  0  0  0
    4.5614    1.3411   21.3228 C   0  0  0  0  0  0  0  0  0  0  0  0
    4.9908    0.9278   20.0302 C   0  0  0  0  0  0  0  0  0  0  0  0
    5.1192    1.0310   22.2015 H   0  0  0  0  0  0  0  0  0  0  0  0
    3.1744    2.4983   22.4561 H   0  0  0  0  0  0  0  0  0  0  0  0
    1.9058    3.2694   20.4551 H   0  0  0  0  0  0  0  0  0  0  0  0
    2.6296    2.5792   18.1907 H   0  0  0  0  0  0  0  0  0  0  0  0
    4.2152    1.3728   16.7268 H   0  0  0  0  0  0  0  0  0  0  0  0
    7.3303   -0.8290   18.3010 H   0  0  0  0  0  0  0  0  0  0  0  0
    6.5185   -1.5755   21.6296 C   0  0  0  0  0  0  0  0  0  0  0  0
    7.7642   -1.8126   22.4919 C   0  0  2  0  0  0  0  0  0  0  0  0
    7.4149   -2.5234   23.8044 C   0  0  0  0  0  0  0  0  0  0  0  0
    6.9159   -3.8556   23.5630 N   0  0  0  0  0  0  0  0  0  0  0  0
    5.5884   -4.1565   23.4395 C   0  0  0  0  0  0  0  0  0  0  0  0
    4.4848   -3.4141   23.7536 C   0  0  0  0  0  0  0  0  0  0  0  0
    3.2650   -4.0214   23.5560 N   0  0  0  0  0  0  0  0  0  0  0  0
    3.4081   -5.2268   23.1048 C   0  0  0  0  0  0  0  0  0  0  0  0
    2.2655   -6.1409   22.7932 C   0  0  0  0  0  0  0  0  0  0  0  0
    2.0102   -6.0858   21.7292 H   0  0  0  0  0  0  0  0  0  0  0  0
    2.5191   -7.1790   23.0202 H   0  0  0  0  0  0  0  0  0  0  0  0
    1.3879   -5.8341   23.3697 H   0  0  0  0  0  0  0  0  0  0  0  0
    5.0720   -5.7235   22.8613 S   0  0  0  0  0  0  0  0  0  0  0  0
    4.5019   -2.4057   24.1538 H   0  0  0  0  0  0  0  0  0  0  0  0
    7.5807   -4.6016   23.4216 H   0  0  0  0  0  0  0  0  0  0  0  0
    8.3050   -2.5915   24.4397 H   0  0  0  0  0  0  0  0  0  0  0  0
    6.6442   -1.9580   24.3475 H   0  0  0  0  0  0  0  0  0  0  0  0
    8.4201   -2.4825   21.9252 H   0  0  0  0  0  0  0  0  0  0  0  0
    5.6192   -1.3895   22.2413 H   0  0  0  0  0  0  0  0  0  0  0  0
    6.2854   -2.4412   21.0020 H   0  0  0  0  0  0  0  0  0  0  0  0
    9.9983   -0.4774   22.5424 C   0  0  0  0  0  0  0  0  0  0  0  0
   10.6498   -1.4047   21.7222 C   0  0  0  0  0  0  0  0  0  0  0  0
   12.0233   -1.3616   21.5911 C   0  0  0  0  0  0  0  0  0  0  0  0
   12.7905   -2.4439   20.4716 Cl  0  0  0  0  0  0  0  0  0  0  0  0
   12.8005   -0.4414   22.2940 C   0  0  0  0  0  0  0  0  0  0  0  0
   12.1641    0.4820   23.0924 C   0  0  0  0  0  0  0  0  0  0  0  0
   10.7734    0.5132   23.1577 C   0  0  0  0  0  0  0  0  0  0  0  0
   10.1337    1.7033   23.8001 C   0  0  0  0  0  0  0  0  0  0  0  0
   10.7894    2.6824   24.1320 O   0  0  0  0  0  0  0  0  0  0  0  0
   12.7228    1.2204   23.6560 H   0  0  0  0  0  0  0  0  0  0  0  0
   13.8770   -0.4317   22.1715 H   0  0  0  0  0  0  0  0  0  0  0  0
   10.1021   -2.1447   21.1533 H   0  0  0  0  0  0  0  0  0  0  0  0
    6.9863    0.5780   23.8234 H   0  0  0  0  0  0  0  0  0  0  0  0
    8.2574   -0.2319   24.7463 H   0  0  0  0  0  0  0  0  0  0  0  0
    8.8606    3.5402   24.7156 H   0  0  0  0  0  0  0  0  0  0  0  0
    7.5641    2.5485   25.3913 H   0  0  0  0  0  0  0  0  0  0  0  0
    8.4944    3.7544   22.0161 H   0  0  0  0  0  0  0  0  0  0  0  0
    6.1895    3.4981   20.8313 H   0  0  0  0  0  0  0  0  0  0  0  0
    5.8043    4.9299   21.8469 H   0  0  0  0  0  0  0  0  0  0  0  0
    7.0788    5.0657   20.6326 H   0  0  0  0  0  0  0  0  0  0  0  0
  1  2  1  0
  2  3  1  0
  3  4  2  0
  3  5  1  0
  5  6  1  0
  6  7  1  0
  8  7  1  1
  8  9  1  0
  9 10  2  0
  9 11  1  0
 11 12  1  0
 12 13  2  0
 13 14  1  0
 14 15  2  0
 15 16  1  0
 16 17  2  0
 17 18  1  0
 18 19  2  0
 19 20  1  0
 20 21  2  0
 20 22  1  0
 19 23  1  0
 18 24  1  0
 17 25  1  0
 15 26  1  0
 13 27  1  0
 11 28  1  0
 28 29  1  0
 29 30  1  0
 30 31  1  0
 31 32  1  0
 32 33  2  0
 33 34  1  0
 34 35  2  0
 35 36  1  0
 36 37  1  0
 36 38  1  0
 36 39  1  0
 35 40  1  0
 33 41  1  0
 31 42  1  0
 30 43  1  0
 30 44  1  0
 29 45  1  6
 28 46  1  0
 28 47  1  0
  8 48  1  0
 48 49  2  0
 49 50  1  0
 50 51  1  0
 50 52  2  0
 52 53  1  0
 53 54  2  0
 54 55  1  0
 55 56  2  0
 53 57  1  0
 52 58  1  0
 49 59  1  0
  7 60  1  0
  7 61  1  0
  5 62  1  0
  5 63  1  0
  2 64  1  0
  1 65  1  0
  1 66  1  0
  1 67  1  0
 55  6  1  0
 29  8  1  0
 40 32  1  0
 54 48  1  0
 21 12  1  0
 21 16  1  0
M  END
>  <cnnaffinities>  (58) 
[6.88877]

>  <score>  (58) 
6.88877

>  <index>  (58) 
57

>  <Smiles>  (58) 
C(N(C(=O)C(N1C([C@@]2(C(=O)N(c3c(nc(c4c(c(c(c(c34)[H])[H])[H])[H])[H])[H])C([C@@]2(C(N(c2c(nc(C([H])([H])[H])s2)[H])[H])([H])[H])[H])([H])[H])c2c(c(Cl)c(c(c2C1=O)[H])[H])[H])([H])[H])([H])[H])[H])([H])([H])[H]

>  <h>  (58) 
<NA>

>  <Training>  (58) 
True

>  <Success>  (58) 
True

>  <enamine_searched>  (58) 
False

>  <enamine_id>  (58) 
nan

$$$$

     RDKit          3D

 57 62  0  0  0  0  0  0  0  0999 V2000
    7.0164   -2.2849   23.6166 C   0  0  0  0  0  0  0  0  0  0  0  0
    7.8850   -1.8647   22.4211 C   0  0  1  0  0  0  0  0  0  0  0  0
    7.0276   -1.7812   21.1430 C   0  0  0  0  0  0  0  0  0  0  0  0
    6.8870   -0.3721   20.8897 N   0  0  0  0  0  0  0  0  0  0  0  0
    6.1244    0.1129   19.7992 C   0  0  0  0  0  0  0  0  0  0  0  0
    6.4402   -0.2273   18.5064 C   0  0  0  0  0  0  0  0  0  0  0  0
    5.7762    0.2231   17.4164 N   0  0  0  0  0  0  0  0  0  0  0  0
    4.7529    1.0191   17.6115 C   0  0  0  0  0  0  0  0  0  0  0  0
    4.2904    1.4071   18.9018 C   0  0  0  0  0  0  0  0  0  0  0  0
    3.1541    2.2418   19.0668 C   0  0  0  0  0  0  0  0  0  0  0  0
    2.7187    2.5812   20.3186 C   0  0  0  0  0  0  0  0  0  0  0  0
    3.3860    2.0898   21.4608 C   0  0  0  0  0  0  0  0  0  0  0  0
    4.5022    1.2990   21.3314 C   0  0  0  0  0  0  0  0  0  0  0  0
    4.9851    0.9419   20.0394 C   0  0  0  0  0  0  0  0  0  0  0  0
    5.0233    0.9483   22.2169 H   0  0  0  0  0  0  0  0  0  0  0  0
    3.0212    2.3530   22.4519 H   0  0  0  0  0  0  0  0  0  0  0  0
    1.8608    3.2356   20.4431 H   0  0  0  0  0  0  0  0  0  0  0  0
    2.6463    2.6011   18.1776 H   0  0  0  0  0  0  0  0  0  0  0  0
    4.2267    1.3850   16.7295 H   0  0  0  0  0  0  0  0  0  0  0  0
    7.2921   -0.8749   18.2937 H   0  0  0  0  0  0  0  0  0  0  0  0
    7.8292    0.4055   21.5296 C   0  0  0  0  0  0  0  0  0  0  0  0
    7.9877    1.5838   21.3223 O   0  0  0  0  0  0  0  0  0  0  0  0
    8.6128   -0.4838   22.5308 C   0  0  1  0  0  0  0  0  0  0  0  0
    8.5312    0.1142   23.9505 C   0  0  0  0  0  0  0  0  0  0  0  0
    9.2873    1.3443   24.0908 N   0  0  0  0  0  0  0  0  0  0  0  0
    8.6663    2.4718   24.7541 C   0  0  0  0  0  0  0  0  0  0  0  0
    7.9933    3.4124   23.8014 C   0  0  0  0  0  0  0  0  0  0  0  0
    8.7634    4.3593   23.1365 C   0  0  0  0  0  0  0  0  0  0  0  0
    8.0808    5.2374   22.3147 C   0  0  0  0  0  0  0  0  0  0  0  0
    6.7503    5.2084   22.1821 N   0  0  0  0  0  0  0  0  0  0  0  0
    6.1297    4.2462   22.8532 C   0  0  0  0  0  0  0  0  0  0  0  0
    6.6700    3.3237   23.6441 N   0  0  0  0  0  0  0  0  0  0  0  0
    5.0464    4.2038   22.7498 H   0  0  0  0  0  0  0  0  0  0  0  0
    8.6063    6.0069   21.7561 H   0  0  0  0  0  0  0  0  0  0  0  0
    9.8372    4.3964   23.2946 H   0  0  0  0  0  0  0  0  0  0  0  0
    9.4520    3.0206   25.2650 H   0  0  0  0  0  0  0  0  0  0  0  0
    7.9480    2.0921   25.4802 H   0  0  0  0  0  0  0  0  0  0  0  0
   10.5642    1.4767   23.6337 C   0  0  0  0  0  0  0  0  0  0  0  0
   11.2817    2.4294   23.9325 O   0  0  0  0  0  0  0  0  0  0  0  0
   11.0053    0.3992   22.6994 C   0  0  0  0  0  0  0  0  0  0  0  0
   12.3381    0.4241   22.2938 C   0  0  0  0  0  0  0  0  0  0  0  0
   12.8478   -0.5528   21.4615 C   0  0  0  0  0  0  0  0  0  0  0  0
   11.9532   -1.5193   21.0103 C   0  0  0  0  0  0  0  0  0  0  0  0
   12.4065   -2.5116   20.2268 F   0  0  0  0  0  0  0  0  0  0  0  0
   10.5992   -1.4852   21.2856 C   0  0  0  0  0  0  0  0  0  0  0  0
   10.0993   -0.5430   22.1850 C   0  0  0  0  0  0  0  0  0  0  0  0
    9.9596   -2.1922   20.7700 H   0  0  0  0  0  0  0  0  0  0  0  0
   13.8861   -0.5679   21.1361 H   0  0  0  0  0  0  0  0  0  0  0  0
   12.9564    1.2239   22.6831 H   0  0  0  0  0  0  0  0  0  0  0  0
    7.4901    0.3387   24.1918 H   0  0  0  0  0  0  0  0  0  0  0  0
    8.9190   -0.6462   24.6415 H   0  0  0  0  0  0  0  0  0  0  0  0
    7.5130   -2.2621   20.2939 H   0  0  0  0  0  0  0  0  0  0  0  0
    6.0409   -2.2417   21.2657 H   0  0  0  0  0  0  0  0  0  0  0  0
    8.6374   -2.6498   22.3170 H   0  0  0  0  0  0  0  0  0  0  0  0
    6.2036   -1.5744   23.8059 H   0  0  0  0  0  0  0  0  0  0  0  0
    6.5610   -3.2624   23.4180 H   0  0  0  0  0  0  0  0  0  0  0  0
    7.6043   -2.3878   24.5334 H   0  0  0  0  0  0  0  0  0  0  0  0
  1  2  1  0
  2  3  1  0
  3  4  1  0
  4  5  1  0
  5  6  2  0
  6  7  1  0
  7  8  2  0
  8  9  1  0
  9 10  2  0
 10 11  1  0
 11 12  2  0
 12 13  1  0
 13 14  2  0
 13 15  1  0
 12 16  1  0
 11 17  1  0
 10 18  1  0
  8 19  1  0
  6 20  1  0
  4 21  1  0
 21 22  2  0
 21 23  1  0
 23 24  1  1
 24 25  1  0
 25 26  1  0
 26 27  1  0
 27 28  2  0
 28 29  1  0
 29 30  2  0
 30 31  1  0
 31 32  2  0
 31 33  1  0
 29 34  1  0
 28 35  1  0
 26 36  1  0
 26 37  1  0
 25 38  1  0
 38 39  2  0
 38 40  1  0
 40 41  2  0
 41 42  1  0
 42 43  2  0
 43 44  1  0
 43 45  1  0
 45 46  2  0
 45 47  1  0
 42 48  1  0
 41 49  1  0
 24 50  1  0
 24 51  1  0
  3 52  1  0
  3 53  1  0
  2 54  1  6
  1 55  1  0
  1 56  1  0
  1 57  1  0
 23  2  1  0
 32 27  1  0
 46 40  1  0
 14  5  1  0
 46 23  1  0
 14  9  1  0
M  END
>  <cnnaffinities>  (59) 
[6.50232, 6.49041]

>  <score>  (59) 
6.50232

>  <index>  (59) 
58

>  <Smiles>  (59) 
C([C@]1(C(N(c2c(nc(c3c(c(c(c(c23)[H])[H])[H])[H])[H])[H])C(=O)[C@]21C(N(C(c1c(c(nc(n1)[H])[H])[H])([H])[H])C(=O)c1c(c(c(F)c(c21)[H])[H])[H])([H])[H])([H])[H])[H])([H])([H])[H]

>  <h>  (59) 
<NA>

>  <Training>  (59) 
True

>  <Success>  (59) 
True

>  <enamine_searched>  (59) 
False

>  <enamine_id>  (59) 
nan

$$$$

     RDKit          3D

 60 65  0  0  0  0  0  0  0  0999 V2000
    7.3767   -4.7197   23.7975 C   0  0  0  0  0  0  0  0  0  0  0  0
    6.5719   -3.7105   23.2371 O   0  0  0  0  0  0  0  0  0  0  0  0
    6.9956   -2.3946   23.5314 C   0  0  0  0  0  0  0  0  0  0  0  0
    7.9173   -1.8455   22.4244 C   0  0  1  0  0  0  0  0  0  0  0  0
    7.1678   -1.7654   21.0791 C   0  0  0  0  0  0  0  0  0  0  0  0
    6.8868   -0.3614   20.9030 N   0  0  0  0  0  0  0  0  0  0  0  0
    6.1225    0.1148   19.8102 C   0  0  0  0  0  0  0  0  0  0  0  0
    6.4391   -0.2282   18.5180 C   0  0  0  0  0  0  0  0  0  0  0  0
    5.7782    0.2215   17.4233 N   0  0  0  0  0  0  0  0  0  0  0  0
    4.7539    1.0179   17.6122 C   0  0  0  0  0  0  0  0  0  0  0  0
    4.2885    1.4056   18.9016 C   0  0  0  0  0  0  0  0  0  0  0  0
    3.1566    2.2461   19.0653 C   0  0  0  0  0  0  0  0  0  0  0  0
    2.7272    2.5979   20.3152 C   0  0  0  0  0  0  0  0  0  0  0  0
    3.3927    2.1078   21.4599 C   0  0  0  0  0  0  0  0  0  0  0  0
    4.4868    1.2891   21.3318 C   0  0  0  0  0  0  0  0  0  0  0  0
    4.9772    0.9374   20.0428 C   0  0  0  0  0  0  0  0  0  0  0  0
    4.9752    0.8986   22.2178 H   0  0  0  0  0  0  0  0  0  0  0  0
    3.0444    2.3903   22.4496 H   0  0  0  0  0  0  0  0  0  0  0  0
    1.8741    3.2570   20.4397 H   0  0  0  0  0  0  0  0  0  0  0  0
    2.6455    2.6042   18.1765 H   0  0  0  0  0  0  0  0  0  0  0  0
    4.2263    1.3850   16.7294 H   0  0  0  0  0  0  0  0  0  0  0  0
    7.2939   -0.8736   18.3144 H   0  0  0  0  0  0  0  0  0  0  0  0
    7.7395    0.4495   21.6293 C   0  0  0  0  0  0  0  0  0  0  0  0
    7.8563    1.6417   21.4749 O   0  0  0  0  0  0  0  0  0  0  0  0
    8.5038   -0.4237   22.6514 C   0  0  1  0  0  0  0  0  0  0  0  0
    8.2746    0.0953   24.0905 C   0  0  0  0  0  0  0  0  0  0  0  0
    8.8854    1.3889   24.3258 N   0  0  0  0  0  0  0  0  0  0  0  0
    8.1407    2.4117   25.0342 C   0  0  0  0  0  0  0  0  0  0  0  0
    7.4482    3.3489   24.0948 C   0  0  0  0  0  0  0  0  0  0  0  0
    6.1811    3.2735   23.7451 N   0  0  0  0  0  0  0  0  0  0  0  0
    6.0064    4.3074   22.8586 C   0  0  0  0  0  0  0  0  0  0  0  0
    7.1632    5.0156   22.6857 C   0  0  0  0  0  0  0  0  0  0  0  0
    8.0845    4.3888   23.4889 N   0  0  0  0  0  0  0  0  0  0  0  0
    9.0755    4.5751   23.5520 H   0  0  0  0  0  0  0  0  0  0  0  0
    7.4164    5.8633   22.0631 H   0  0  0  0  0  0  0  0  0  0  0  0
    5.0550    4.4627   22.3765 H   0  0  0  0  0  0  0  0  0  0  0  0
    8.8483    2.9729   25.6491 H   0  0  0  0  0  0  0  0  0  0  0  0
    7.3965    1.9232   25.6701 H   0  0  0  0  0  0  0  0  0  0  0  0
   10.0991    1.7337   23.8209 C   0  0  0  0  0  0  0  0  0  0  0  0
   10.5897    2.8458   24.0219 O   0  0  0  0  0  0  0  0  0  0  0  0
   10.7600    0.7031   22.9704 C   0  0  0  0  0  0  0  0  0  0  0  0
   12.1126    0.8797   22.6693 C   0  0  0  0  0  0  0  0  0  0  0  0
   12.7730   -0.0280   21.8597 C   0  0  0  0  0  0  0  0  0  0  0  0
   12.0298   -1.0876   21.3209 C   0  0  0  0  0  0  0  0  0  0  0  0
   12.8075   -2.2600   20.2893 Cl  0  0  0  0  0  0  0  0  0  0  0  0
   10.6590   -1.1986   21.5138 C   0  0  0  0  0  0  0  0  0  0  0  0
   10.0080   -0.3328   22.3965 C   0  0  0  0  0  0  0  0  0  0  0  0
   10.1203   -1.9666   20.9657 H   0  0  0  0  0  0  0  0  0  0  0  0
   13.8329    0.0683   21.6420 H   0  0  0  0  0  0  0  0  0  0  0  0
   12.6082    1.7460   23.0939 H   0  0  0  0  0  0  0  0  0  0  0  0
    7.2080    0.1851   24.3070 H   0  0  0  0  0  0  0  0  0  0  0  0
    8.7161   -0.6283   24.7827 H   0  0  0  0  0  0  0  0  0  0  0  0
    7.7976   -2.1222   20.2612 H   0  0  0  0  0  0  0  0  0  0  0  0
    6.2403   -2.3425   21.0742 H   0  0  0  0  0  0  0  0  0  0  0  0
    8.7382   -2.5657   22.3675 H   0  0  0  0  0  0  0  0  0  0  0  0
    6.0868   -1.7879   23.6115 H   0  0  0  0  0  0  0  0  0  0  0  0
    7.4921   -2.3713   24.5124 H   0  0  0  0  0  0  0  0  0  0  0  0
    8.4400   -4.6088   23.5322 H   0  0  0  0  0  0  0  0  0  0  0  0
    7.2893   -4.7400   24.8950 H   0  0  0  0  0  0  0  0  0  0  0  0
    7.0206   -5.6766   23.4060 H   0  0  0  0  0  0  0  0  0  0  0  0
  1  2  1  0
  2  3  1  0
  3  4  1  0
  4  5  1  0
  5  6  1  0
  6  7  1  0
  7  8  2  0
  8  9  1  0
  9 10  2  0
 10 11  1  0
 11 12  2  0
 12 13  1  0
 13 14  2  0
 14 15  1  0
 15 16  2  0
 15 17  1  0
 14 18  1  0
 13 19  1  0
 12 20  1  0
 10 21  1  0
  8 22  1  0
  6 23  1  0
 23 24  2  0
 23 25  1  0
 25 26  1  1
 26 27  1  0
 27 28  1  0
 28 29  1  0
 29 30  2  0
 30 31  1  0
 31 32  2  0
 32 33  1  0
 33 34  1  0
 32 35  1  0
 31 36  1  0
 28 37  1  0
 28 38  1  0
 27 39  1  0
 39 40  2  0
 39 41  1  0
 41 42  2  0
 42 43  1  0
 43 44  2  0
 44 45  1  0
 44 46  1  0
 46 47  2  0
 46 48  1  0
 43 49  1  0
 42 50  1  0
 26 51  1  0
 26 52  1  0
  5 53  1  0
  5 54  1  0
  4 55  1  6
  3 56  1  0
  3 57  1  0
  1 58  1  0
  1 59  1  0
  1 60  1  0
 25  4  1  0
 33 29  1  0
 47 41  1  0
 16  7  1  0
 47 25  1  0
 16 11  1  0
M  END
>  <cnnaffinities>  (60) 
[6.71735, 6.66659]

>  <score>  (60) 
6.71735

>  <index>  (60) 
59

>  <Smiles>  (60) 
C(OC([C@]1(C(N(c2c(nc(c3c(c(c(c(c23)[H])[H])[H])[H])[H])[H])C(=O)[C@]21C(N(C(c1nc(c(n1[H])[H])[H])([H])[H])C(=O)c1c(c(c(Cl)c(c21)[H])[H])[H])([H])[H])([H])[H])[H])([H])[H])([H])([H])[H]

>  <h>  (60) 
<NA>

>  <Training>  (60) 
True

>  <Success>  (60) 
True

>  <enamine_searched>  (60) 
False

>  <enamine_id>  (60) 
nan

$$$$

     RDKit          3D

 38 41  0  0  0  0  0  0  0  0999 V2000
    5.0894   -2.0050   21.3280 O   0  0  0  0  0  0  0  0  0  0  0  0
    6.2720   -1.7751   21.5149 C   0  0  0  0  0  0  0  0  0  0  0  0
    6.9363   -0.5141   20.9020 C   0  0  0  0  0  0  0  0  0  0  0  0
    6.1188    0.0847   19.7773 C   0  0  0  0  0  0  0  0  0  0  0  0
    6.4224   -0.2113   18.4751 C   0  0  0  0  0  0  0  0  0  0  0  0
    5.7542    0.2380   17.3819 N   0  0  0  0  0  0  0  0  0  0  0  0
    4.7345    1.0326   17.5832 C   0  0  0  0  0  0  0  0  0  0  0  0
    4.2844    1.4176   18.8723 C   0  0  0  0  0  0  0  0  0  0  0  0
    3.1602    2.2633   19.0494 C   0  0  0  0  0  0  0  0  0  0  0  0
    2.7433    2.6206   20.3016 C   0  0  0  0  0  0  0  0  0  0  0  0
    3.4334    2.1318   21.4333 C   0  0  0  0  0  0  0  0  0  0  0  0
    4.5240    1.3080   21.2890 C   0  0  0  0  0  0  0  0  0  0  0  0
    4.9890    0.9298   20.0047 C   0  0  0  0  0  0  0  0  0  0  0  0
    5.0307    0.9216   22.1679 H   0  0  0  0  0  0  0  0  0  0  0  0
    3.0948    2.4118   22.4261 H   0  0  0  0  0  0  0  0  0  0  0  0
    1.8865    3.2789   20.4324 H   0  0  0  0  0  0  0  0  0  0  0  0
    2.6437    2.6325   18.1648 H   0  0  0  0  0  0  0  0  0  0  0  0
    4.2048    1.3982   16.6987 H   0  0  0  0  0  0  0  0  0  0  0  0
    7.2620   -0.8630   18.2393 H   0  0  0  0  0  0  0  0  0  0  0  0
    7.0922    0.2405   21.6862 H   0  0  0  0  0  0  0  0  0  0  0  0
    7.9376   -0.7635   20.5143 H   0  0  0  0  0  0  0  0  0  0  0  0
    7.0570   -2.6383   22.2561 N   0  0  0  0  0  0  0  0  0  0  0  0
    6.6218   -4.0272   22.4041 C   0  0  0  0  0  0  0  0  0  0  0  0
    6.7346   -4.4884   23.8459 C   0  0  0  0  0  0  0  0  0  0  0  0
    8.0718   -4.0850   24.3648 C   0  0  0  0  0  0  0  0  0  0  0  0
    8.7814   -4.7809   25.7423 S   0  0  0  0  0  0  0  0  0  0  0  0
   10.1914   -3.8174   25.5952 C   0  0  0  0  0  0  0  0  0  0  0  0
   10.0745   -2.9265   24.5716 C   0  0  0  0  0  0  0  0  0  0  0  0
    8.8503   -3.1021   23.8587 C   0  0  0  0  0  0  0  0  0  0  0  0
    8.4109   -2.3113   22.6708 C   0  0  0  0  0  0  0  0  0  0  0  0
    9.1483   -2.4536   21.8698 H   0  0  0  0  0  0  0  0  0  0  0  0
    8.4634   -1.2573   22.9417 H   0  0  0  0  0  0  0  0  0  0  0  0
   10.8207   -2.1639   24.3558 H   0  0  0  0  0  0  0  0  0  0  0  0
   10.9688   -3.9151   26.3441 H   0  0  0  0  0  0  0  0  0  0  0  0
    5.9612   -4.0204   24.4625 H   0  0  0  0  0  0  0  0  0  0  0  0
    6.5710   -5.5673   23.9315 H   0  0  0  0  0  0  0  0  0  0  0  0
    5.5936   -4.0963   22.0547 H   0  0  0  0  0  0  0  0  0  0  0  0
    7.2376   -4.6804   21.7706 H   0  0  0  0  0  0  0  0  0  0  0  0
  1  2  2  0
  2  3  1  0
  3  4  1  0
  4  5  2  0
  5  6  1  0
  6  7  2  0
  7  8  1  0
  8  9  2  0
  9 10  1  0
 10 11  2  0
 11 12  1  0
 12 13  2  0
 12 14  1  0
 11 15  1  0
 10 16  1  0
  9 17  1  0
  7 18  1  0
  5 19  1  0
  3 20  1  0
  3 21  1  0
  2 22  1  0
 22 23  1  0
 23 24  1  0
 24 25  1  0
 25 26  1  0
 26 27  1  0
 27 28  2  0
 28 29  1  0
 29 30  1  0
 30 31  1  0
 30 32  1  0
 28 33  1  0
 27 34  1  0
 24 35  1  0
 24 36  1  0
 23 37  1  0
 23 38  1  0
 13  4  1  0
 30 22  1  0
 13  8  1  0
 29 25  2  0
M  END
>  <cnnaffinities>  (61) 
[5.35759]

>  <score>  (61) 
5.35759

>  <index>  (61) 
60

>  <Smiles>  (61) 
O=C(C(c1c(nc(c2c(c(c(c(c12)[H])[H])[H])[H])[H])[H])([H])[H])N1C(C(c2sc(c(c2C1([H])[H])[H])[H])([H])[H])([H])[H]

>  <h>  (61) 
<NA>

>  <Training>  (61) 
True

>  <Success>  (61) 
True

>  <enamine_searched>  (61) 
False

>  <enamine_id>  (61) 
nan

$$$$

     RDKit          3D

 64 70  0  0  0  0  0  0  0  0999 V2000
   11.0062    2.6297   24.0056 O   0  0  0  0  0  0  0  0  0  0  0  0
   10.3524    1.6359   23.6946 C   0  0  0  0  0  0  0  0  0  0  0  0
   10.8929    0.6030   22.7612 C   0  0  0  0  0  0  0  0  0  0  0  0
   12.2456    0.6844   22.4233 C   0  0  0  0  0  0  0  0  0  0  0  0
   12.8338   -0.2972   21.6504 C   0  0  0  0  0  0  0  0  0  0  0  0
   12.0337   -1.3406   21.1869 C   0  0  0  0  0  0  0  0  0  0  0  0
   12.7267   -2.6449   20.2720 Cl  0  0  0  0  0  0  0  0  0  0  0  0
   10.6710   -1.3644   21.4220 C   0  0  0  0  0  0  0  0  0  0  0  0
   10.0741   -0.4117   22.2502 C   0  0  0  0  0  0  0  0  0  0  0  0
    8.5801   -0.4522   22.5825 C   0  0  1  0  0  0  0  0  0  0  0  0
    8.4468    0.1075   24.0250 C   0  0  0  0  0  0  0  0  0  0  0  0
    9.1070    1.3916   24.1950 N   0  0  0  0  0  0  0  0  0  0  0  0
    8.4350    2.4664   24.9115 C   0  0  0  0  0  0  0  0  0  0  0  0
    7.6951    3.4090   23.9990 C   0  0  0  0  0  0  0  0  0  0  0  0
    8.3257    4.4497   23.3591 C   0  0  0  0  0  0  0  0  0  0  0  0
    7.5462    5.2572   22.5323 C   0  0  0  0  0  0  0  0  0  0  0  0
    6.2408    5.0837   22.3404 N   0  0  0  0  0  0  0  0  0  0  0  0
    5.6373    4.0772   22.9539 N   0  0  0  0  0  0  0  0  0  0  0  0
    6.3328    3.2653   23.7417 C   0  0  0  0  0  0  0  0  0  0  0  0
    5.7630    2.4606   24.1986 H   0  0  0  0  0  0  0  0  0  0  0  0
    7.9912    6.0927   22.0029 H   0  0  0  0  0  0  0  0  0  0  0  0
    9.3913    4.6318   23.4936 H   0  0  0  0  0  0  0  0  0  0  0  0
    7.7421    2.0281   25.6346 H   0  0  0  0  0  0  0  0  0  0  0  0
    9.1906    3.0318   25.4584 H   0  0  0  0  0  0  0  0  0  0  0  0
    8.8923   -0.6241   24.7170 H   0  0  0  0  0  0  0  0  0  0  0  0
    7.3937    0.2419   24.2810 H   0  0  0  0  0  0  0  0  0  0  0  0
    7.7943    0.4292   21.5810 C   0  0  0  0  0  0  0  0  0  0  0  0
    7.9454    1.6130   21.3860 O   0  0  0  0  0  0  0  0  0  0  0  0
    6.8947   -0.3675   20.9026 N   0  0  0  0  0  0  0  0  0  0  0  0
    6.1276    0.1120   19.8130 C   0  0  0  0  0  0  0  0  0  0  0  0
    6.4422   -0.2286   18.5204 C   0  0  0  0  0  0  0  0  0  0  0  0
    5.7758    0.2151   17.4288 N   0  0  0  0  0  0  0  0  0  0  0  0
    4.7490    1.0057   17.6213 C   0  0  0  0  0  0  0  0  0  0  0  0
    4.2840    1.3938   18.9095 C   0  0  0  0  0  0  0  0  0  0  0  0
    3.1506    2.2324   19.0743 C   0  0  0  0  0  0  0  0  0  0  0  0
    2.7361    2.6035   20.3222 C   0  0  0  0  0  0  0  0  0  0  0  0
    3.4277    2.1459   21.4643 C   0  0  0  0  0  0  0  0  0  0  0  0
    4.5230    1.3289   21.3328 C   0  0  0  0  0  0  0  0  0  0  0  0
    4.9858    0.9388   20.0471 C   0  0  0  0  0  0  0  0  0  0  0  0
    5.0659    1.0118   22.2188 H   0  0  0  0  0  0  0  0  0  0  0  0
    3.1429    2.4937   22.4530 H   0  0  0  0  0  0  0  0  0  0  0  0
    1.8776    3.2583   20.4384 H   0  0  0  0  0  0  0  0  0  0  0  0
    2.6381    2.5847   18.1830 H   0  0  0  0  0  0  0  0  0  0  0  0
    4.2291    1.3769   16.7373 H   0  0  0  0  0  0  0  0  0  0  0  0
    7.2950   -0.8736   18.3105 H   0  0  0  0  0  0  0  0  0  0  0  0
    7.1054   -1.7792   21.1113 C   0  0  0  0  0  0  0  0  0  0  0  0
    7.9320   -1.8696   22.4075 C   0  0  2  0  0  0  0  0  0  0  0  0
    7.0814   -2.4009   23.5895 C   0  0  0  0  0  0  0  0  0  0  0  0
    6.6249   -3.7618   23.3927 N   0  0  0  0  0  0  0  0  0  0  0  0
    7.2264   -4.8938   23.8521 C   0  0  0  0  0  0  0  0  0  0  0  0
    6.7396   -6.0852   23.6296 N   0  0  0  0  0  0  0  0  0  0  0  0
    7.5418   -7.0772   24.1177 N   0  0  0  0  0  0  0  0  0  0  0  0
    8.5876   -6.6284   24.7223 C   0  0  0  0  0  0  0  0  0  0  0  0
    8.6795   -4.8860   24.8078 S   0  0  0  0  0  0  0  0  0  0  0  0
    9.3286   -7.2798   25.1757 H   0  0  0  0  0  0  0  0  0  0  0  0
    5.7288   -3.9228   22.9577 H   0  0  0  0  0  0  0  0  0  0  0  0
    7.6577   -2.3487   24.5192 H   0  0  0  0  0  0  0  0  0  0  0  0
    6.1937   -1.7723   23.7097 H   0  0  0  0  0  0  0  0  0  0  0  0
    8.7295   -2.6090   22.3032 H   0  0  0  0  0  0  0  0  0  0  0  0
    6.1418   -2.2951   21.1742 H   0  0  0  0  0  0  0  0  0  0  0  0
    7.6594   -2.1953   20.2685 H   0  0  0  0  0  0  0  0  0  0  0  0
   10.0862   -2.1204   20.9153 H   0  0  0  0  0  0  0  0  0  0  0  0
   13.8880   -0.2644   21.3999 H   0  0  0  0  0  0  0  0  0  0  0  0
   12.8108    1.5374   22.7834 H   0  0  0  0  0  0  0  0  0  0  0  0
  1  2  2  0
  2  3  1  0
  3  4  2  0
  4  5  1  0
  5  6  2  0
  6  7  1  0
  6  8  1  0
  8  9  2  0
  9 10  1  0
 10 11  1  1
 11 12  1  0
 12 13  1  0
 13 14  1  0
 14 15  2  0
 15 16  1  0
 16 17  2  0
 17 18  1  0
 18 19  2  0
 19 20  1  0
 16 21  1  0
 15 22  1  0
 13 23  1  0
 13 24  1  0
 11 25  1  0
 11 26  1  0
 10 27  1  0
 27 28  2  0
 27 29  1  0
 29 30  1  0
 30 31  2  0
 31 32  1  0
 32 33  2  0
 33 34  1  0
 34 35  2  0
 35 36  1  0
 36 37  2  0
 37 38  1  0
 38 39  2  0
 38 40  1  0
 37 41  1  0
 36 42  1  0
 35 43  1  0
 33 44  1  0
 31 45  1  0
 29 46  1  0
 46 47  1  0
 47 48  1  0
 48 49  1  0
 49 50  1  0
 50 51  2  0
 51 52  1  0
 52 53  2  0
 53 54  1  0
 53 55  1  0
 49 56  1  0
 48 57  1  0
 48 58  1  0
 47 59  1  6
 46 60  1  0
 46 61  1  0
  8 62  1  0
  5 63  1  0
  4 64  1  0
 12  2  1  0
 19 14  1  0
 39 30  1  0
 54 50  1  0
  9  3  1  0
 47 10  1  0
 39 34  1  0
M  END
>  <cnnaffinities>  (62) 
[7.1262]

>  <score>  (62) 
7.1262

>  <index>  (62) 
61

>  <Smiles>  (62) 
O=C1c2c(c(c(Cl)c(c2[C@@]2(C(N1C(c1c(c(nnc1[H])[H])[H])([H])[H])([H])[H])C(=O)N(c1c(nc(c3c(c(c(c(c13)[H])[H])[H])[H])[H])[H])C([C@@]2(C(N(c1nnc(s1)[H])[H])([H])[H])[H])([H])[H])[H])[H])[H]

>  <h>  (62) 
<NA>

>  <Training>  (62) 
True

>  <Success>  (62) 
True

>  <enamine_searched>  (62) 
False

>  <enamine_id>  (62) 
nan

$$$$

     RDKit          3D

 70 76  0  0  0  0  0  0  0  0999 V2000
    7.7257   -2.5689   23.7214 C   0  0  0  0  0  0  0  0  0  0  0  0
    7.9119   -1.9024   22.3566 C   0  0  1  0  0  0  0  0  0  0  0  0
    6.5771   -1.5162   21.6750 C   0  0  0  0  0  0  0  0  0  0  0  0
    6.9482   -0.4088   20.8095 N   0  0  0  0  0  0  0  0  0  0  0  0
    6.1474    0.1072   19.7563 C   0  0  0  0  0  0  0  0  0  0  0  0
    6.4589   -0.2092   18.4547 C   0  0  0  0  0  0  0  0  0  0  0  0
    5.7639    0.2277   17.3815 N   0  0  0  0  0  0  0  0  0  0  0  0
    4.7434    1.0192   17.5982 C   0  0  0  0  0  0  0  0  0  0  0  0
    4.3011    1.4224   18.8920 C   0  0  0  0  0  0  0  0  0  0  0  0
    3.1794    2.2753   19.0722 C   0  0  0  0  0  0  0  0  0  0  0  0
    2.7840    2.6520   20.3266 C   0  0  0  0  0  0  0  0  0  0  0  0
    3.4876    2.1878   21.4572 C   0  0  0  0  0  0  0  0  0  0  0  0
    4.5800    1.3596   21.3097 C   0  0  0  0  0  0  0  0  0  0  0  0
    5.0187    0.9522   20.0173 C   0  0  0  0  0  0  0  0  0  0  0  0
    5.1074    1.0030   22.1883 H   0  0  0  0  0  0  0  0  0  0  0  0
    3.1638    2.4859   22.4493 H   0  0  0  0  0  0  0  0  0  0  0  0
    1.9328    3.3201   20.4456 H   0  0  0  0  0  0  0  0  0  0  0  0
    2.6578    2.6236   18.1870 H   0  0  0  0  0  0  0  0  0  0  0  0
    4.2088    1.3850   16.7218 H   0  0  0  0  0  0  0  0  0  0  0  0
    7.3047   -0.8587   18.2432 H   0  0  0  0  0  0  0  0  0  0  0  0
    8.1918    0.1139   21.0806 C   0  0  0  0  0  0  0  0  0  0  0  0
    8.7149    1.0101   20.4477 O   0  0  0  0  0  0  0  0  0  0  0  0
    8.7564   -0.5923   22.3397 C   0  0  1  0  0  0  0  0  0  0  0  0
    8.4818    0.2895   23.5867 C   0  0  0  0  0  0  0  0  0  0  0  0
    9.1946    1.5468   23.5315 N   0  0  0  0  0  0  0  0  0  0  0  0
    8.4929    2.7936   23.7400 C   0  0  0  0  0  0  0  0  0  0  0  0
    7.8130    3.2564   22.4502 C   0  0  0  0  0  0  0  0  0  0  0  0
    7.0221    4.4990   22.6328 N   0  0  2  0  0  4  0  0  0  0  0  0
    5.8482    4.3666   23.5883 C   0  0  0  0  0  0  0  0  0  0  0  0
    4.8173    5.4081   23.1363 C   0  0  0  0  0  0  0  0  0  0  0  0
    5.2191    5.8485   21.7220 C   0  0  0  0  0  0  0  0  0  0  0  0
    4.1209    5.9330   20.6459 C   0  0  0  0  0  0  0  0  0  0  0  0
    4.3121    7.3436   20.4810 O   0  0  0  0  0  0  0  0  0  0  0  0
    5.3455    7.3655   21.4709 C   0  0  0  0  0  0  0  0  0  0  0  0
    5.0838    8.0094   22.3210 H   0  0  0  0  0  0  0  0  0  0  0  0
    6.3051    7.7028   21.0542 H   0  0  0  0  0  0  0  0  0  0  0  0
    3.1036    5.6971   20.9841 H   0  0  0  0  0  0  0  0  0  0  0  0
    4.3241    5.3681   19.7217 H   0  0  0  0  0  0  0  0  0  0  0  0
    6.4306    4.9977   21.3498 C   0  0  0  0  0  0  0  0  0  0  0  0
    6.1274    4.1133   20.7725 H   0  0  0  0  0  0  0  0  0  0  0  0
    7.1893    5.5464   20.7823 H   0  0  0  0  0  0  0  0  0  0  0  0
    4.7947    6.2711   23.8092 H   0  0  0  0  0  0  0  0  0  0  0  0
    3.8131    4.9718   23.1379 H   0  0  0  0  0  0  0  0  0  0  0  0
    5.4670    3.3446   23.4967 H   0  0  0  0  0  0  0  0  0  0  0  0
    6.1877    4.5129   24.6138 H   0  0  0  0  0  0  0  0  0  0  0  0
    7.6791    5.2261   22.9916 H   0  0  0  0  0  0  0  0  0  0  0  0
    7.1344    2.4683   22.0967 H   0  0  0  0  0  0  0  0  0  0  0  0
    8.5587    3.4056   21.6590 H   0  0  0  0  0  0  0  0  0  0  0  0
    9.2471    3.5110   24.0727 H   0  0  0  0  0  0  0  0  0  0  0  0
    7.7600    2.6278   24.5406 H   0  0  0  0  0  0  0  0  0  0  0  0
   10.5135    1.5978   23.2219 C   0  0  0  0  0  0  0  0  0  0  0  0
   11.1906    2.6081   23.3668 O   0  0  0  0  0  0  0  0  0  0  0  0
   11.0788    0.3425   22.6377 C   0  0  0  0  0  0  0  0  0  0  0  0
   12.4427    0.3599   22.3883 C   0  0  0  0  0  0  0  0  0  0  0  0
   12.9979   -0.6356   21.6196 C   0  0  0  0  0  0  0  0  0  0  0  0
   12.2007   -1.7029   21.2045 C   0  0  0  0  0  0  0  0  0  0  0  0
   12.9292   -2.9374   20.2153 Cl  0  0  0  0  0  0  0  0  0  0  0  0
   10.8634   -1.7872   21.5423 C   0  0  0  0  0  0  0  0  0  0  0  0
   10.2626   -0.7292   22.2358 C   0  0  0  0  0  0  0  0  0  0  0  0
   10.3057   -2.6609   21.2162 H   0  0  0  0  0  0  0  0  0  0  0  0
   14.0394   -0.6120   21.3289 H   0  0  0  0  0  0  0  0  0  0  0  0
   13.0008    1.1918   22.8071 H   0  0  0  0  0  0  0  0  0  0  0  0
    8.8136   -0.2838   24.4669 H   0  0  0  0  0  0  0  0  0  0  0  0
    7.4109    0.5122   23.6662 H   0  0  0  0  0  0  0  0  0  0  0  0
    6.1462   -2.3358   21.0880 H   0  0  0  0  0  0  0  0  0  0  0  0
    5.8297   -1.2099   22.4231 H   0  0  0  0  0  0  0  0  0  0  0  0
    8.4139   -2.6054   21.6841 H   0  0  0  0  0  0  0  0  0  0  0  0
    7.1964   -3.5231   23.6282 H   0  0  0  0  0  0  0  0  0  0  0  0
    7.1351   -1.9306   24.3894 H   0  0  0  0  0  0  0  0  0  0  0  0
    8.6857   -2.7644   24.2135 H   0  0  0  0  0  0  0  0  0  0  0  0
  1  2  1  0
  2  3  1  0
  3  4  1  0
  4  5  1  0
  5  6  2  0
  6  7  1  0
  7  8  2  0
  8  9  1  0
  9 10  2  0
 10 11  1  0
 11 12  2  0
 12 13  1  0
 13 14  2  0
 13 15  1  0
 12 16  1  0
 11 17  1  0
 10 18  1  0
  8 19  1  0
  6 20  1  0
  4 21  1  0
 21 22  2  0
 21 23  1  0
 23 24  1  1
 24 25  1  0
 25 26  1  0
 26 27  1  0
 27 28  1  0
 28 29  1  0
 29 30  1  0
 30 31  1  0
 31 32  1  0
 32 33  1  0
 33 34  1  0
 34 35  1  0
 34 36  1  0
 32 37  1  0
 32 38  1  0
 31 39  1  0
 39 40  1  0
 39 41  1  0
 30 42  1  0
 30 43  1  0
 29 44  1  0
 29 45  1  0
 28 46  1  1
 27 47  1  0
 27 48  1  0
 26 49  1  0
 26 50  1  0
 25 51  1  0
 51 52  2  0
 51 53  1  0
 53 54  2  0
 54 55  1  0
 55 56  2  0
 56 57  1  0
 56 58  1  0
 58 59  2  0
 58 60  1  0
 55 61  1  0
 54 62  1  0
 24 63  1  0
 24 64  1  0
  3 65  1  0
  3 66  1  0
  2 67  1  6
  1 68  1  0
  1 69  1  0
  1 70  1  0
 23  2  1  0
 39 28  1  0
 59 53  1  0
 14  5  1  0
 59 23  1  0
 14  9  1  0
 34 31  1  0
M  CHG  1  28   1
M  END
>  <cnnaffinities>  (63) 
[7.05564]

>  <score>  (63) 
7.05564

>  <index>  (63) 
62

>  <Smiles>  (63) 
C([C@]1(C(N(c2c(nc(c3c(c(c(c(c23)[H])[H])[H])[H])[H])[H])C(=O)[C@]21C(N(C(C([N@@+]1(C(C(C3(C(OC3([H])[H])([H])[H])C1([H])[H])([H])[H])([H])[H])[H])([H])[H])([H])[H])C(=O)c1c(c(c(Cl)c(c21)[H])[H])[H])([H])[H])([H])[H])[H])([H])([H])[H]

>  <h>  (63) 
<NA>

>  <Training>  (63) 
True

>  <Success>  (63) 
True

>  <enamine_searched>  (63) 
False

>  <enamine_id>  (63) 
nan

$$$$

     RDKit          3D

 56 61  0  0  0  0  0  0  0  0999 V2000
   12.6805    2.0537   22.2648 C   0  0  0  0  0  0  0  0  0  0  0  0
   12.7152    0.6900   22.7171 N   0  0  0  0  0  0  0  0  0  0  0  0
   13.0109    0.1960   23.9365 C   0  0  0  0  0  0  0  0  0  0  0  0
   12.7897   -1.1558   23.8797 C   0  0  0  0  0  0  0  0  0  0  0  0
   12.3426   -1.3803   22.5587 C   0  0  0  0  0  0  0  0  0  0  0  0
   11.8986   -2.6435   21.9059 C   0  0  0  0  0  0  0  0  0  0  0  0
   10.5162   -2.9221   22.2626 N   0  0  0  0  0  0  0  0  0  0  0  0
    9.4316   -2.6046   21.3521 C   0  0  0  0  0  0  0  0  0  0  0  0
    8.2331   -1.9499   22.0769 C   0  0  1  0  0  0  0  0  0  0  0  0
    8.5501   -0.5014   22.5250 C   0  0  0  0  0  0  0  0  0  0  0  0
    7.8960    0.4253   21.4960 C   0  0  0  0  0  0  0  0  0  0  0  0
    6.8974   -0.4194   20.8602 N   0  0  0  0  0  0  0  0  0  0  0  0
    6.1078    0.0484   19.7812 C   0  0  0  0  0  0  0  0  0  0  0  0
    6.4365   -0.2615   18.4854 C   0  0  0  0  0  0  0  0  0  0  0  0
    5.7812    0.2171   17.3991 N   0  0  0  0  0  0  0  0  0  0  0  0
    4.7623    1.0142   17.6064 C   0  0  0  0  0  0  0  0  0  0  0  0
    4.2989    1.3896   18.9002 C   0  0  0  0  0  0  0  0  0  0  0  0
    3.1726    2.2313   19.0771 C   0  0  0  0  0  0  0  0  0  0  0  0
    2.7647    2.5852   20.3329 C   0  0  0  0  0  0  0  0  0  0  0  0
    3.4519    2.1052   21.4701 C   0  0  0  0  0  0  0  0  0  0  0  0
    4.5416    1.2805   21.3277 C   0  0  0  0  0  0  0  0  0  0  0  0
    4.9932    0.9078   20.0316 C   0  0  0  0  0  0  0  0  0  0  0  0
    5.0609    0.9054   22.2051 H   0  0  0  0  0  0  0  0  0  0  0  0
    3.1161    2.3952   22.4614 H   0  0  0  0  0  0  0  0  0  0  0  0
    1.9115    3.2436   20.4618 H   0  0  0  0  0  0  0  0  0  0  0  0
    2.6561    2.5896   18.1910 H   0  0  0  0  0  0  0  0  0  0  0  0
    4.2423    1.4076   16.7313 H   0  0  0  0  0  0  0  0  0  0  0  0
    7.2747   -0.9248   18.2806 H   0  0  0  0  0  0  0  0  0  0  0  0
    7.0739   -1.7659   21.0901 C   0  0  0  0  0  0  0  0  0  0  0  0
    6.3865   -2.6400   20.5978 O   0  0  0  0  0  0  0  0  0  0  0  0
    8.6234    0.7808   20.7536 H   0  0  0  0  0  0  0  0  0  0  0  0
    7.4241    1.3031   21.9520 H   0  0  0  0  0  0  0  0  0  0  0  0
    9.6290   -0.3500   22.5744 H   0  0  0  0  0  0  0  0  0  0  0  0
    8.1326   -0.3382   23.5214 H   0  0  0  0  0  0  0  0  0  0  0  0
    7.8816   -2.8557   23.2349 C   0  0  0  0  0  0  0  0  0  0  0  0
    6.5856   -2.9176   23.7347 C   0  0  0  0  0  0  0  0  0  0  0  0
    6.3212   -3.7115   24.8388 C   0  0  0  0  0  0  0  0  0  0  0  0
    4.7171   -3.7052   25.5053 Cl  0  0  0  0  0  0  0  0  0  0  0  0
    7.3114   -4.4827   25.4524 C   0  0  0  0  0  0  0  0  0  0  0  0
    8.6020   -4.4058   24.9686 C   0  0  0  0  0  0  0  0  0  0  0  0
    8.8843   -3.5642   23.9000 C   0  0  0  0  0  0  0  0  0  0  0  0
   10.3069   -3.3929   23.5264 C   0  0  0  0  0  0  0  0  0  0  0  0
   11.2203   -3.6467   24.3036 O   0  0  0  0  0  0  0  0  0  0  0  0
    9.4262   -4.9793   25.3850 H   0  0  0  0  0  0  0  0  0  0  0  0
    7.0782   -5.0988   26.3134 H   0  0  0  0  0  0  0  0  0  0  0  0
    5.7979   -2.3429   23.2607 H   0  0  0  0  0  0  0  0  0  0  0  0
    9.8062   -1.9271   20.5824 H   0  0  0  0  0  0  0  0  0  0  0  0
    9.0892   -3.5321   20.8998 H   0  0  0  0  0  0  0  0  0  0  0  0
   11.9631   -2.5291   20.8185 H   0  0  0  0  0  0  0  0  0  0  0  0
   12.5206   -3.4812   22.2338 H   0  0  0  0  0  0  0  0  0  0  0  0
   12.2824   -0.2549   21.8709 N   0  0  0  0  0  0  0  0  0  0  0  0
   12.8913   -1.9079   24.6477 H   0  0  0  0  0  0  0  0  0  0  0  0
   13.3073    0.8358   24.7524 H   0  0  0  0  0  0  0  0  0  0  0  0
   13.6770    2.5160   22.2804 H   0  0  0  0  0  0  0  0  0  0  0  0
   12.2890    1.9310   21.2532 H   0  0  0  0  0  0  0  0  0  0  0  0
   12.0014    2.6491   22.8858 H   0  0  0  0  0  0  0  0  0  0  0  0
  1  2  1  0
  2  3  1  0
  3  4  2  0
  4  5  1  0
  5  6  1  0
  6  7  1  0
  7  8  1  0
  9  8  1  6
  9 10  1  0
 10 11  1  0
 11 12  1  0
 12 13  1  0
 13 14  2  0
 14 15  1  0
 15 16  2  0
 16 17  1  0
 17 18  2  0
 18 19  1  0
 19 20  2  0
 20 21  1  0
 21 22  2  0
 21 23  1  0
 20 24  1  0
 19 25  1  0
 18 26  1  0
 16 27  1  0
 14 28  1  0
 12 29  1  0
 29 30  2  0
 11 31  1  0
 11 32  1  0
 10 33  1  0
 10 34  1  0
  9 35  1  0
 35 36  2  0
 36 37  1  0
 37 38  1  0
 37 39  2  0
 39 40  1  0
 40 41  2  0
 41 42  1  0
 42 43  2  0
 40 44  1  0
 39 45  1  0
 36 46  1  0
  8 47  1  0
  8 48  1  0
  6 49  1  0
  6 50  1  0
  5 51  2  0
  4 52  1  0
  3 53  1  0
  1 54  1  0
  1 55  1  0
  1 56  1  0
 51  2  1  0
 42  7  1  0
 29  9  1  0
 41 35  1  0
 22 13  1  0
 22 17  1  0
M  END
>  <cnnaffinities>  (64) 
[6.94037]

>  <score>  (64) 
6.94037

>  <index>  (64) 
63

>  <Smiles>  (64) 
C(n1c(c(c(C(N2C([C@]3(C(C(N(c4c(nc(c5c(c(c(c(c45)[H])[H])[H])[H])[H])[H])C3=O)([H])[H])([H])[H])c3c(c(Cl)c(c(c3C2=O)[H])[H])[H])([H])[H])([H])[H])n1)[H])[H])([H])([H])[H]

>  <h>  (64) 
<NA>

>  <Training>  (64) 
True

>  <Success>  (64) 
True

>  <enamine_searched>  (64) 
False

>  <enamine_id>  (64) 
nan

$$$$

     RDKit          3D

 66 71  0  0  0  0  0  0  0  0999 V2000
    7.6468   -2.5992   23.6675 C   0  0  0  0  0  0  0  0  0  0  0  0
    7.9955   -1.7536   22.4331 C   0  0  1  0  0  0  0  0  0  0  0  0
    6.8120   -1.6560   21.4432 C   0  0  0  0  0  0  0  0  0  0  0  0
    6.9723   -0.3533   20.8299 N   0  0  0  0  0  0  0  0  0  0  0  0
    6.1571    0.1229   19.7654 C   0  0  0  0  0  0  0  0  0  0  0  0
    6.4498   -0.2173   18.4704 C   0  0  0  0  0  0  0  0  0  0  0  0
    5.7584    0.2201   17.3919 N   0  0  0  0  0  0  0  0  0  0  0  0
    4.7452    1.0225   17.6009 C   0  0  0  0  0  0  0  0  0  0  0  0
    4.3040    1.4283   18.8921 C   0  0  0  0  0  0  0  0  0  0  0  0
    3.1799    2.2790   19.0757 C   0  0  0  0  0  0  0  0  0  0  0  0
    2.7724    2.6413   20.3297 C   0  0  0  0  0  0  0  0  0  0  0  0
    3.4557    2.1464   21.4633 C   0  0  0  0  0  0  0  0  0  0  0  0
    4.5381    1.3111   21.3111 C   0  0  0  0  0  0  0  0  0  0  0  0
    5.0181    0.9535   20.0189 C   0  0  0  0  0  0  0  0  0  0  0  0
    5.0323    0.9012   22.1869 H   0  0  0  0  0  0  0  0  0  0  0  0
    3.1232    2.4356   22.4569 H   0  0  0  0  0  0  0  0  0  0  0  0
    1.9262    3.3133   20.4541 H   0  0  0  0  0  0  0  0  0  0  0  0
    2.6633    2.6416   18.1906 H   0  0  0  0  0  0  0  0  0  0  0  0
    4.2190    1.3877   16.7185 H   0  0  0  0  0  0  0  0  0  0  0  0
    7.2907   -0.8729   18.2494 H   0  0  0  0  0  0  0  0  0  0  0  0
    7.8414    0.4822   21.4891 C   0  0  0  0  0  0  0  0  0  0  0  0
    8.0556    1.6367   21.1712 O   0  0  0  0  0  0  0  0  0  0  0  0
    8.4698   -0.2830   22.6828 C   0  0  1  0  0  0  0  0  0  0  0  0
    7.9227    0.2845   24.0152 C   0  0  0  0  0  0  0  0  0  0  0  0
    8.4082    1.6203   24.2940 N   0  0  0  0  0  0  0  0  0  0  0  0
    7.4906    2.5609   24.9137 C   0  0  0  0  0  0  0  0  0  0  0  0
    6.6366    3.3208   23.9014 C   0  0  0  0  0  0  0  0  0  0  0  0
    7.4548    4.2330   23.0309 N   0  0  0  0  0  4  0  0  0  0  0  0
    6.7618    4.5583   21.7206 C   0  0  0  0  0  0  0  0  0  0  0  0
    5.6500    5.5848   21.9042 C   0  0  0  0  0  0  0  0  0  0  0  0
    6.1457    6.7794   22.4769 O   0  0  0  0  0  0  0  0  0  0  0  0
    6.6896    6.5398   23.7597 C   0  0  0  0  0  0  0  0  0  0  0  0
    7.8465    5.5397   23.7077 C   0  0  0  0  0  0  0  0  0  0  0  0
    8.6641    5.9771   23.1303 H   0  0  0  0  0  0  0  0  0  0  0  0
    8.2161    5.3160   24.7110 H   0  0  0  0  0  0  0  0  0  0  0  0
    7.0463    7.5083   24.1211 H   0  0  0  0  0  0  0  0  0  0  0  0
    5.9058    6.1846   24.4475 H   0  0  0  0  0  0  0  0  0  0  0  0
    5.2221    5.8628   20.9363 H   0  0  0  0  0  0  0  0  0  0  0  0
    4.8480    5.1572   22.5304 H   0  0  0  0  0  0  0  0  0  0  0  0
    6.3817    3.6219   21.3030 H   0  0  0  0  0  0  0  0  0  0  0  0
    7.5219    4.9633   21.0498 H   0  0  0  0  0  0  0  0  0  0  0  0
    8.3155    3.7189   22.7779 H   0  0  0  0  0  0  0  0  0  0  0  0
    5.8790    3.9011   24.4340 H   0  0  0  0  0  0  0  0  0  0  0  0
    6.1119    2.6156   23.2446 H   0  0  0  0  0  0  0  0  0  0  0  0
    8.0847    3.2514   25.5145 H   0  0  0  0  0  0  0  0  0  0  0  0
    6.8249    2.0049   25.5829 H   0  0  0  0  0  0  0  0  0  0  0  0
    9.6916    1.9984   24.0510 C   0  0  0  0  0  0  0  0  0  0  0  0
   10.0807    3.1409   24.2968 O   0  0  0  0  0  0  0  0  0  0  0  0
   10.5635    0.9727   23.3844 C   0  0  0  0  0  0  0  0  0  0  0  0
   11.9483    1.1405   23.3854 C   0  0  0  0  0  0  0  0  0  0  0  0
   12.7481    0.3699   22.5623 C   0  0  0  0  0  0  0  0  0  0  0  0
   12.1391   -0.5649   21.7258 C   0  0  0  0  0  0  0  0  0  0  0  0
   13.0789   -1.3843   20.5072 Cl  0  0  0  0  0  0  0  0  0  0  0  0
   10.7760   -0.7896   21.7646 C   0  0  0  0  0  0  0  0  0  0  0  0
    9.9753   -0.0773   22.6629 C   0  0  0  0  0  0  0  0  0  0  0  0
   10.3478   -1.4545   21.0220 H   0  0  0  0  0  0  0  0  0  0  0  0
   13.8162    0.5379   22.4923 H   0  0  0  0  0  0  0  0  0  0  0  0
   12.3706    1.9262   24.0017 H   0  0  0  0  0  0  0  0  0  0  0  0
    6.8316    0.3427   23.9507 H   0  0  0  0  0  0  0  0  0  0  0  0
    8.1931   -0.4028   24.8315 H   0  0  0  0  0  0  0  0  0  0  0  0
    6.8274   -2.4419   20.6785 H   0  0  0  0  0  0  0  0  0  0  0  0
    5.8486   -1.7415   21.9727 H   0  0  0  0  0  0  0  0  0  0  0  0
    8.8204   -2.2496   21.9175 H   0  0  0  0  0  0  0  0  0  0  0  0
    7.3875   -3.6249   23.3753 H   0  0  0  0  0  0  0  0  0  0  0  0
    6.7827   -2.1866   24.2051 H   0  0  0  0  0  0  0  0  0  0  0  0
    8.4819   -2.6592   24.3762 H   0  0  0  0  0  0  0  0  0  0  0  0
  1  2  1  0
  2  3  1  0
  3  4  1  0
  4  5  1  0
  5  6  2  0
  6  7  1  0
  7  8  2  0
  8  9  1  0
  9 10  2  0
 10 11  1  0
 11 12  2  0
 12 13  1  0
 13 14  2  0
 13 15  1  0
 12 16  1  0
 11 17  1  0
 10 18  1  0
  8 19  1  0
  6 20  1  0
  4 21  1  0
 21 22  2  0
 21 23  1  0
 23 24  1  1
 24 25  1  0
 25 26  1  0
 26 27  1  0
 27 28  1  0
 28 29  1  0
 29 30  1  0
 30 31  1  0
 31 32  1  0
 32 33  1  0
 33 34  1  0
 33 35  1  0
 32 36  1  0
 32 37  1  0
 30 38  1  0
 30 39  1  0
 29 40  1  0
 29 41  1  0
 28 42  1  0
 27 43  1  0
 27 44  1  0
 26 45  1  0
 26 46  1  0
 25 47  1  0
 47 48  2  0
 47 49  1  0
 49 50  2  0
 50 51  1  0
 51 52  2  0
 52 53  1  0
 52 54  1  0
 54 55  2  0
 54 56  1  0
 51 57  1  0
 50 58  1  0
 24 59  1  0
 24 60  1  0
  3 61  1  0
  3 62  1  0
  2 63  1  6
  1 64  1  0
  1 65  1  0
  1 66  1  0
 23  2  1  0
 33 28  1  0
 55 49  1  0
 14  5  1  0
 55 23  1  0
 14  9  1  0
M  CHG  1  28   1
M  END
>  <cnnaffinities>  (65) 
[6.78369, 6.65069]

>  <score>  (65) 
6.78369

>  <index>  (65) 
64

>  <Smiles>  (65) 
C([C@]1(C(N(c2c(nc(c3c(c(c(c(c23)[H])[H])[H])[H])[H])[H])C(=O)[C@]21C(N(C(C([N+]1(C(C(OC(C1([H])[H])([H])[H])([H])[H])([H])[H])[H])([H])[H])([H])[H])C(=O)c1c(c(c(Cl)c(c21)[H])[H])[H])([H])[H])([H])[H])[H])([H])([H])[H]

>  <h>  (65) 
<NA>

>  <Training>  (65) 
True

>  <Success>  (65) 
True

>  <enamine_searched>  (65) 
False

>  <enamine_id>  (65) 
nan

$$$$

     RDKit          3D

 54 59  0  0  0  0  0  0  0  0999 V2000
    8.4526    3.3244   23.1133 C   0  0  0  0  0  0  0  0  0  0  0  0
    7.5266    2.3263   23.6343 N   0  0  0  0  0  0  0  0  0  0  0  0
    7.5304    2.0675   24.9742 C   0  0  0  0  0  0  0  0  0  0  0  0
    8.3197    2.6382   25.7064 O   0  0  0  0  0  0  0  0  0  0  0  0
    6.4493    1.1124   25.5137 C   0  0  0  0  0  0  0  0  0  0  0  0
    6.6263   -0.2922   25.2180 N   0  0  0  0  0  0  0  0  0  0  0  0
    7.1873   -1.2003   26.1197 C   0  0  0  0  0  0  0  0  0  0  0  0
    7.4000   -1.0106   27.3000 O   0  0  0  0  0  0  0  0  0  0  0  0
    7.3299   -2.4759   25.3650 C   0  0  0  0  0  0  0  0  0  0  0  0
    7.8669   -3.6402   25.8457 C   0  0  0  0  0  0  0  0  0  0  0  0
    7.6862   -4.8258   25.0974 C   0  0  0  0  0  0  0  0  0  0  0  0
    6.8162   -4.8347   24.0443 C   0  0  0  0  0  0  0  0  0  0  0  0
    6.5880   -6.2935   23.1389 Cl  0  0  0  0  0  0  0  0  0  0  0  0
    6.0001   -3.6650   23.6199 C   0  0  0  0  0  0  0  0  0  0  0  0
    6.6616   -2.3658   24.0755 C   0  0  1  0  0  0  0  0  0  0  0  0
    6.0998   -0.9610   24.0679 C   0  0  2  0  0  0  0  0  0  0  0  0
    7.0427   -1.3795   22.9564 C   0  0  2  0  0  0  0  0  0  0  0  0
    6.3139   -1.4307   21.6198 C   0  0  0  0  0  0  0  0  0  0  0  0
    5.3020   -2.0438   21.3255 O   0  0  0  0  0  0  0  0  0  0  0  0
    6.9300   -0.5485   20.7602 N   0  0  0  0  0  0  0  0  0  0  0  0
    6.1594    0.0377   19.7131 C   0  0  0  0  0  0  0  0  0  0  0  0
    6.4785   -0.2079   18.4041 C   0  0  0  0  0  0  0  0  0  0  0  0
    5.7815    0.2688   17.3468 N   0  0  0  0  0  0  0  0  0  0  0  0
    4.7399    1.0255   17.5874 C   0  0  0  0  0  0  0  0  0  0  0  0
    4.3009    1.3690   18.8954 C   0  0  0  0  0  0  0  0  0  0  0  0
    3.1720    2.2053   19.1050 C   0  0  0  0  0  0  0  0  0  0  0  0
    2.8071    2.5764   20.3692 C   0  0  0  0  0  0  0  0  0  0  0  0
    3.5426    2.1074   21.4829 C   0  0  0  0  0  0  0  0  0  0  0  0
    4.6171    1.2678   21.3046 C   0  0  0  0  0  0  0  0  0  0  0  0
    5.0300    0.8749   19.9984 C   0  0  0  0  0  0  0  0  0  0  0  0
    5.1671    0.8890   22.1624 H   0  0  0  0  0  0  0  0  0  0  0  0
    3.2498    2.4206   22.4810 H   0  0  0  0  0  0  0  0  0  0  0  0
    1.9545    3.2330   20.5237 H   0  0  0  0  0  0  0  0  0  0  0  0
    2.6234    2.5599   18.2358 H   0  0  0  0  0  0  0  0  0  0  0  0
    4.1883    1.4079   16.7272 H   0  0  0  0  0  0  0  0  0  0  0  0
    7.3287   -0.8424   18.1672 H   0  0  0  0  0  0  0  0  0  0  0  0
    8.1556    0.0233   21.3031 C   0  0  0  0  0  0  0  0  0  0  0  0
    8.3166   -0.6850   22.6403 C   0  0  0  0  0  0  0  0  0  0  0  0
    9.4724   -0.5975   23.3057 C   0  0  0  0  0  0  0  0  0  0  0  0
   10.4615    0.1924   22.8268 F   0  0  0  0  0  0  0  0  0  0  0  0
    9.7896   -1.1109   24.2050 H   0  0  0  0  0  0  0  0  0  0  0  0
    8.0443    1.1069   21.4368 H   0  0  0  0  0  0  0  0  0  0  0  0
    9.0126   -0.1463   20.6448 H   0  0  0  0  0  0  0  0  0  0  0  0
    5.0640   -0.7744   23.7867 H   0  0  0  0  0  0  0  0  0  0  0  0
    5.8764   -3.7262   22.5360 H   0  0  0  0  0  0  0  0  0  0  0  0
    4.9673   -3.6984   24.0118 H   0  0  0  0  0  0  0  0  0  0  0  0
    8.2163   -5.7301   25.3835 H   0  0  0  0  0  0  0  0  0  0  0  0
    8.3963   -3.6421   26.7896 H   0  0  0  0  0  0  0  0  0  0  0  0
    6.4373    1.2178   26.5964 H   0  0  0  0  0  0  0  0  0  0  0  0
    5.4701    1.4310   25.1400 H   0  0  0  0  0  0  0  0  0  0  0  0
    6.7288    2.0693   23.0747 H   0  0  0  0  0  0  0  0  0  0  0  0
    8.5351    4.1533   23.8206 H   0  0  0  0  0  0  0  0  0  0  0  0
    9.4518    2.9008   22.9477 H   0  0  0  0  0  0  0  0  0  0  0  0
    8.0752    3.7129   22.1635 H   0  0  0  0  0  0  0  0  0  0  0  0
  1  2  1  0
  2  3  1  0
  3  4  2  0
  3  5  1  0
  5  6  1  0
  6  7  1  0
  7  8  2  0
  7  9  1  0
  9 10  2  0
 10 11  1  0
 11 12  2  0
 12 13  1  0
 12 14  1  0
 15 14  1  6
 15 16  1  0
 16 17  1  0
 17 18  1  6
 18 19  2  0
 18 20  1  0
 20 21  1  0
 21 22  2  0
 22 23  1  0
 23 24  2  0
 24 25  1  0
 25 26  2  0
 26 27  1  0
 27 28  2  0
 28 29  1  0
 29 30  2  0
 29 31  1  0
 28 32  1  0
 27 33  1  0
 26 34  1  0
 24 35  1  0
 22 36  1  0
 20 37  1  0
 37 38  1  0
 38 39  2  0
 39 40  1  0
 39 41  1  0
 37 42  1  0
 37 43  1  0
 16 44  1  6
 14 45  1  0
 14 46  1  0
 11 47  1  0
 10 48  1  0
  5 49  1  0
  5 50  1  0
  2 51  1  0
  1 52  1  0
  1 53  1  0
  1 54  1  0
 16  6  1  0
 38 17  1  0
 15  9  1  0
 30 21  1  0
 17 15  1  0
 30 25  1  0
M  END
>  <cnnaffinities>  (66) 
[6.65619]

>  <score>  (66) 
6.65619

>  <index>  (66) 
65

>  <Smiles>  (66) 
C(N(C(=O)C(N1C(=O)C2=C(C(=C(Cl)C([C@]32[C@@]1([C@@]13C(=O)N(c2c(nc(c3c(c(c(c(c23)[H])[H])[H])[H])[H])[H])C(/C/1=C(\F)/[H])([H])[H])[H])([H])[H])[H])[H])([H])[H])[H])([H])([H])[H]

>  <h>  (66) 
<NA>

>  <Training>  (66) 
True

>  <Success>  (66) 
True

>  <enamine_searched>  (66) 
False

>  <enamine_id>  (66) 
nan

$$$$

     RDKit          3D

 47 50  0  0  0  0  0  0  0  0999 V2000
    8.4662    1.2671   20.2733 O   0  0  0  0  0  0  0  0  0  0  0  0
    7.7295    0.6906   21.0519 C   0  0  0  0  0  0  0  0  0  0  0  0
    6.9359   -0.5425   20.5870 C   0  0  0  0  0  0  0  0  0  0  0  0
    5.9985   -0.0772   19.5106 C   0  0  0  0  0  0  0  0  0  0  0  0
    6.2701   -0.3149   18.1922 C   0  0  0  0  0  0  0  0  0  0  0  0
    5.5778    0.2147   17.1549 N   0  0  0  0  0  0  0  0  0  0  0  0
    4.5879    1.0166   17.4480 C   0  0  0  0  0  0  0  0  0  0  0  0
    4.1767    1.3328   18.7691 C   0  0  0  0  0  0  0  0  0  0  0  0
    3.0926    2.2032   19.0329 C   0  0  0  0  0  0  0  0  0  0  0  0
    2.7596    2.5433   20.3149 C   0  0  0  0  0  0  0  0  0  0  0  0
    3.5007    2.0145   21.3959 C   0  0  0  0  0  0  0  0  0  0  0  0
    4.5350    1.1421   21.1582 C   0  0  0  0  0  0  0  0  0  0  0  0
    4.9099    0.7790   19.8399 C   0  0  0  0  0  0  0  0  0  0  0  0
    5.0728    0.7427   22.0073 H   0  0  0  0  0  0  0  0  0  0  0  0
    3.2668    2.3030   22.4139 H   0  0  0  0  0  0  0  0  0  0  0  0
    1.9374    3.2193   20.5085 H   0  0  0  0  0  0  0  0  0  0  0  0
    2.5465    2.6067   18.1870 H   0  0  0  0  0  0  0  0  0  0  0  0
    4.0511    1.4651   16.6132 H   0  0  0  0  0  0  0  0  0  0  0  0
    7.1053   -0.9602   17.9150 H   0  0  0  0  0  0  0  0  0  0  0  0
    7.6577   -1.2610   20.1857 H   0  0  0  0  0  0  0  0  0  0  0  0
    6.3877   -1.0429   21.3896 H   0  0  0  0  0  0  0  0  0  0  0  0
    7.5462    1.1334   22.3467 N   0  0  0  0  0  0  0  0  0  0  0  0
    7.4129    2.5686   22.6009 C   0  0  0  0  0  0  0  0  0  0  0  0
    7.9777    2.9590   23.9654 C   0  0  0  0  0  0  0  0  0  0  0  0
    7.5155    2.0366   25.0981 C   0  0  1  0  0  0  0  0  0  0  0  0
    6.0758    2.3088   25.5532 C   0  0  0  0  0  0  0  0  0  0  0  0
    5.7341    1.4218   26.7492 C   0  0  0  0  0  0  0  0  0  0  0  0
    5.8776   -0.0374   26.3630 C   0  0  0  0  0  0  0  0  0  0  0  0
    5.6446   -0.8299   27.4541 F   0  0  0  0  0  0  0  0  0  0  0  0
    4.8537   -0.2945   25.4643 F   0  0  0  0  0  0  0  0  0  0  0  0
    7.1941   -0.4664   25.7283 C   0  0  0  0  0  0  0  0  0  0  0  0
    7.7468    0.5595   24.7257 C   0  0  1  0  0  0  0  0  0  0  0  0
    7.1135    0.2303   23.3814 C   0  0  0  0  0  0  0  0  0  0  0  0
    6.0221    0.2076   23.5116 H   0  0  0  0  0  0  0  0  0  0  0  0
    7.4351   -0.7717   23.0929 H   0  0  0  0  0  0  0  0  0  0  0  0
    8.8247    0.4106   24.6021 H   0  0  0  0  0  0  0  0  0  0  0  0
    7.9016   -0.7228   26.5165 H   0  0  0  0  0  0  0  0  0  0  0  0
    7.0007   -1.4093   25.2010 H   0  0  0  0  0  0  0  0  0  0  0  0
    6.4100    1.6299   27.5813 H   0  0  0  0  0  0  0  0  0  0  0  0
    4.7085    1.5807   27.1014 H   0  0  0  0  0  0  0  0  0  0  0  0
    6.0032    3.3680   25.8237 H   0  0  0  0  0  0  0  0  0  0  0  0
    5.3562    2.1298   24.7439 H   0  0  0  0  0  0  0  0  0  0  0  0
    8.1498    2.2971   25.9496 H   0  0  0  0  0  0  0  0  0  0  0  0
    7.6857    3.9915   24.2199 H   0  0  0  0  0  0  0  0  0  0  0  0
    9.0743    2.9231   23.9101 H   0  0  0  0  0  0  0  0  0  0  0  0
    6.3538    2.8646   22.5309 H   0  0  0  0  0  0  0  0  0  0  0  0
    7.9393    3.0884   21.7965 H   0  0  0  0  0  0  0  0  0  0  0  0
  1  2  2  0
  2  3  1  0
  3  4  1  0
  4  5  2  0
  5  6  1  0
  6  7  2  0
  7  8  1  0
  8  9  2  0
  9 10  1  0
 10 11  2  0
 11 12  1  0
 12 13  2  0
 12 14  1  0
 11 15  1  0
 10 16  1  0
  9 17  1  0
  7 18  1  0
  5 19  1  0
  3 20  1  0
  3 21  1  0
  2 22  1  0
 22 23  1  0
 23 24  1  0
 24 25  1  0
 25 26  1  0
 26 27  1  0
 27 28  1  0
 28 29  1  0
 28 30  1  0
 28 31  1  0
 31 32  1  0
 32 33  1  0
 33 34  1  0
 33 35  1  0
 32 36  1  6
 31 37  1  0
 31 38  1  0
 27 39  1  0
 27 40  1  0
 26 41  1  0
 26 42  1  0
 25 43  1  1
 24 44  1  0
 24 45  1  0
 23 46  1  0
 23 47  1  0
 13  4  1  0
 33 22  1  0
 13  8  1  0
 32 25  1  0
M  END
>  <cnnaffinities>  (67) 
[5.4869, 5.47718, 5.52719, 5.52435, 5.30949]

>  <score>  (67) 
5.4869

>  <index>  (67) 
66

>  <Smiles>  (67) 
O=C(C(c1c(nc(c2c(c(c(c(c12)[H])[H])[H])[H])[H])[H])([H])[H])N1C(C([C@]2(C(C(C(F)(F)C([C@]2(C1([H])[H])[H])([H])[H])([H])[H])([H])[H])[H])([H])[H])([H])[H]

>  <h>  (67) 
<NA>

>  <Training>  (67) 
True

>  <Success>  (67) 
True

>  <enamine_searched>  (67) 
False

>  <enamine_id>  (67) 
nan

$$$$

     RDKit          3D

 69 74  0  0  0  0  0  0  0  0999 V2000
    5.0210    4.7557   23.4610 C   0  0  0  0  0  0  0  0  0  0  0  0
    6.4822    4.9692   23.5305 N   0  0  0  0  0  4  0  0  0  0  0  0
    7.2737    3.7293   23.2457 C   0  0  0  0  0  0  0  0  0  0  0  0
    7.4983    2.8516   24.4870 C   0  0  0  0  0  0  0  0  0  0  0  0
    8.3145    1.6999   24.1458 N   0  0  0  0  0  0  0  0  0  0  0  0
    7.6968    0.4097   23.9238 C   0  0  0  0  0  0  0  0  0  0  0  0
    8.2531   -0.3234   22.6752 C   0  0  2  0  0  0  0  0  0  0  0  0
    7.7834    0.3536   21.3719 C   0  0  0  0  0  0  0  0  0  0  0  0
    8.1858    1.3985   20.9020 O   0  0  0  0  0  0  0  0  0  0  0  0
    6.8212   -0.4345   20.7884 N   0  0  0  0  0  0  0  0  0  0  0  0
    6.0466    0.0965   19.7274 C   0  0  0  0  0  0  0  0  0  0  0  0
    6.3869   -0.1777   18.4310 C   0  0  0  0  0  0  0  0  0  0  0  0
    5.7060    0.2809   17.3537 N   0  0  0  0  0  0  0  0  0  0  0  0
    4.6683    1.0491   17.5734 C   0  0  0  0  0  0  0  0  0  0  0  0
    4.2135    1.4207   18.8716 C   0  0  0  0  0  0  0  0  0  0  0  0
    3.0780    2.2512   19.0635 C   0  0  0  0  0  0  0  0  0  0  0  0
    2.6865    2.6100   20.3223 C   0  0  0  0  0  0  0  0  0  0  0  0
    3.4073    2.1555   21.4486 C   0  0  0  0  0  0  0  0  0  0  0  0
    4.5089    1.3526   21.2920 C   0  0  0  0  0  0  0  0  0  0  0  0
    4.9332    0.9500   19.9924 C   0  0  0  0  0  0  0  0  0  0  0  0
    5.0567    1.0193   22.1673 H   0  0  0  0  0  0  0  0  0  0  0  0
    3.0976    2.4580   22.4455 H   0  0  0  0  0  0  0  0  0  0  0  0
    1.8229    3.2519   20.4653 H   0  0  0  0  0  0  0  0  0  0  0  0
    2.5452    2.6001   18.1832 H   0  0  0  0  0  0  0  0  0  0  0  0
    4.1280    1.4170   16.7001 H   0  0  0  0  0  0  0  0  0  0  0  0
    7.2601   -0.7934   18.2227 H   0  0  0  0  0  0  0  0  0  0  0  0
    6.4569   -1.6016   21.5700 C   0  0  0  0  0  0  0  0  0  0  0  0
    7.6435   -1.7481   22.5344 C   0  0  2  0  0  0  0  0  0  0  0  0
    7.2287   -2.4539   23.8177 C   0  0  0  0  0  0  0  0  0  0  0  0
    6.6615   -3.6898   23.4530 O   0  0  0  0  0  0  0  0  0  0  0  0
    6.6239   -4.6373   24.4913 C   0  0  0  0  0  0  0  0  0  0  0  0
    7.7933   -5.4778   24.2290 C   0  0  0  0  0  0  0  0  0  0  0  0
    8.9392   -4.7729   24.0703 F   0  0  0  0  0  0  0  0  0  0  0  0
    7.7899   -6.9695   24.2443 C   0  0  0  0  0  0  0  0  0  0  0  0
    7.6026   -6.8336   24.0984 C   0  0  0  0  0  0  0  0  0  0  0  0
    9.0543   -7.3340   25.1061 H   0  0  0  0  0  0  0  0  0  0  0  0
    6.6514   -7.0709   24.8354 H   0  0  0  0  0  0  0  0  0  0  0  0
    7.7167   -7.8213   23.3351 H   0  0  0  0  0  0  0  0  0  0  0  0
    6.7703   -6.6041   22.8547 H   0  0  0  0  0  0  0  0  0  0  0  0
    6.7077   -4.1276   25.4730 H   0  0  0  0  0  0  0  0  0  0  0  0
    5.6427   -5.1375   24.4317 H   0  0  0  0  0  0  0  0  0  0  0  0
    6.4693   -1.8633   24.3580 H   0  0  0  0  0  0  0  0  0  0  0  0
    8.0962   -2.5834   24.4829 H   0  0  0  0  0  0  0  0  0  0  0  0
    8.4015   -2.3726   22.0549 H   0  0  0  0  0  0  0  0  0  0  0  0
    6.3212   -2.4768   20.9290 H   0  0  0  0  0  0  0  0  0  0  0  0
    5.5166   -1.4401   22.1207 H   0  0  0  0  0  0  0  0  0  0  0  0
    9.7609   -0.2433   22.6954 C   0  0  0  0  0  0  0  0  0  0  0  0
   10.5071   -1.0466   21.8299 C   0  0  0  0  0  0  0  0  0  0  0  0
   11.8853   -0.9567   21.8184 C   0  0  0  0  0  0  0  0  0  0  0  0
   12.7548   -1.9082   20.6466 Cl  0  0  0  0  0  0  0  0  0  0  0  0
   12.5646   -0.0615   22.6494 C   0  0  0  0  0  0  0  0  0  0  0  0
   11.8223    0.8131   23.4215 C   0  0  0  0  0  0  0  0  0  0  0  0
   10.4281    0.7624   23.4051 C   0  0  0  0  0  0  0  0  0  0  0  0
    9.6558    1.8940   24.0194 C   0  0  0  0  0  0  0  0  0  0  0  0
   10.1925    2.9532   24.3316 O   0  0  0  0  0  0  0  0  0  0  0  0
   12.3068    1.5731   24.0263 H   0  0  0  0  0  0  0  0  0  0  0  0
   13.6498   -0.0316   22.6451 H   0  0  0  0  0  0  0  0  0  0  0  0
   10.0301   -1.7163   21.1229 H   0  0  0  0  0  0  0  0  0  0  0  0
    7.8537   -0.2219   24.8071 H   0  0  0  0  0  0  0  0  0  0  0  0
    6.6185    0.5605   23.8076 H   0  0  0  0  0  0  0  0  0  0  0  0
    8.0263    3.4079   25.2688 H   0  0  0  0  0  0  0  0  0  0  0  0
    6.5498    2.4865   24.9035 H   0  0  0  0  0  0  0  0  0  0  0  0
    8.2367    4.0321   22.8458 H   0  0  0  0  0  0  0  0  0  0  0  0
    6.7574    3.1491   22.4775 H   0  0  0  0  0  0  0  0  0  0  0  0
    6.7414    5.7121   22.8482 H   0  0  0  0  0  0  0  0  0  0  0  0
    6.7275    5.2733   24.5016 H   0  0  0  0  0  0  0  0  0  0  0  0
    4.6884    4.0597   24.2350 H   0  0  0  0  0  0  0  0  0  0  0  0
    4.7484    4.3217   22.4961 H   0  0  0  0  0  0  0  0  0  0  0  0
    4.4955    5.6994   23.5865 H   0  0  0  0  0  0  0  0  0  0  0  0
  1  2  1  0
  2  3  1  0
  3  4  1  0
  4  5  1  0
  5  6  1  0
  7  6  1  1
  7  8  1  0
  8  9  2  0
  8 10  1  0
 10 11  1  0
 11 12  2  0
 12 13  1  0
 13 14  2  0
 14 15  1  0
 15 16  2  0
 16 17  1  0
 17 18  2  0
 18 19  1  0
 19 20  2  0
 19 21  1  0
 18 22  1  0
 17 23  1  0
 16 24  1  0
 14 25  1  0
 12 26  1  0
 10 27  1  0
 27 28  1  0
 28 29  1  0
 29 30  1  0
 30 31  1  0
 31 32  1  0
 32 33  1  0
 32 34  1  0
 34 35  1  0
 35 36  1  0
 35 37  1  0
 34 38  1  0
 34 39  1  0
 31 40  1  0
 31 41  1  0
 29 42  1  0
 29 43  1  0
 28 44  1  6
 27 45  1  0
 27 46  1  0
  7 47  1  0
 47 48  2  0
 48 49  1  0
 49 50  1  0
 49 51  2  0
 51 52  1  0
 52 53  2  0
 53 54  1  0
 54 55  2  0
 52 56  1  0
 51 57  1  0
 48 58  1  0
  6 59  1  0
  6 60  1  0
  4 61  1  0
  4 62  1  0
  3 63  1  0
  3 64  1  0
  2 65  1  0
  2 66  1  0
  1 67  1  0
  1 68  1  0
  1 69  1  0
 54  5  1  0
 28  7  1  0
 35 32  1  0
 53 47  1  0
 20 11  1  0
 20 15  1  0
M  CHG  1   2   1
M  END
>  <cnnaffinities>  (68) 
[6.45938]

>  <score>  (68) 
6.45938

>  <index>  (68) 
67

>  <Smiles>  (68) 
C([N+](C(C(N1C([C@@]2(C(=O)N(c3c(nc(c4c(c(c(c(c34)[H])[H])[H])[H])[H])[H])C([C@@]2(C(OC(C2(F)C(C2([H])[H])([H])[H])([H])[H])([H])[H])[H])([H])[H])c2c(c(Cl)c(c(c2C1=O)[H])[H])[H])([H])[H])([H])[H])([H])[H])([H])[H])([H])([H])[H]

>  <h>  (68) 
<NA>

>  <Training>  (68) 
True

>  <Success>  (68) 
True

>  <enamine_searched>  (68) 
False

>  <enamine_id>  (68) 
nan

$$$$

     RDKit          3D

 57 62  0  0  0  0  0  0  0  0999 V2000
    5.4014    4.9786   21.5235 C   0  0  0  0  0  0  0  0  0  0  0  0
    6.3752    4.5194   22.5566 C   0  0  0  0  0  0  0  0  0  0  0  0
    6.2956    3.5151   23.3814 N   0  0  0  0  0  0  0  0  0  0  0  0
    7.5219    3.5496   24.0037 C   0  0  0  0  0  0  0  0  0  0  0  0
    7.9646    2.5141   24.9993 C   0  0  0  0  0  0  0  0  0  0  0  0
    8.7274    1.4370   24.3834 N   0  0  0  0  0  0  0  0  0  0  0  0
    8.1016    0.1432   24.1541 C   0  0  0  0  0  0  0  0  0  0  0  0
    8.3820   -0.4126   22.7335 C   0  0  2  0  0  0  0  0  0  0  0  0
    7.6699    0.4489   21.6490 C   0  0  0  0  0  0  0  0  0  0  0  0
    7.7945    1.6381   21.4686 O   0  0  0  0  0  0  0  0  0  0  0  0
    6.8807   -0.3790   20.8764 N   0  0  0  0  0  0  0  0  0  0  0  0
    6.1261    0.1070   19.7812 C   0  0  0  0  0  0  0  0  0  0  0  0
    6.4411   -0.2270   18.4868 C   0  0  0  0  0  0  0  0  0  0  0  0
    5.7694    0.2232   17.4012 N   0  0  0  0  0  0  0  0  0  0  0  0
    4.7483    1.0208   17.6013 C   0  0  0  0  0  0  0  0  0  0  0  0
    4.2888    1.4184   18.8882 C   0  0  0  0  0  0  0  0  0  0  0  0
    3.1556    2.2588   19.0658 C   0  0  0  0  0  0  0  0  0  0  0  0
    2.7297    2.6027   20.3202 C   0  0  0  0  0  0  0  0  0  0  0  0
    3.4129    2.1125   21.4547 C   0  0  0  0  0  0  0  0  0  0  0  0
    4.5094    1.3014   21.3094 C   0  0  0  0  0  0  0  0  0  0  0  0
    4.9905    0.9445   20.0191 C   0  0  0  0  0  0  0  0  0  0  0  0
    5.0199    0.9217   22.1871 H   0  0  0  0  0  0  0  0  0  0  0  0
    3.0812    2.3901   22.4520 H   0  0  0  0  0  0  0  0  0  0  0  0
    1.8728    3.2592   20.4439 H   0  0  0  0  0  0  0  0  0  0  0  0
    2.6460    2.6222   18.1785 H   0  0  0  0  0  0  0  0  0  0  0  0
    4.2272    1.3859   16.7174 H   0  0  0  0  0  0  0  0  0  0  0  0
    7.2889   -0.8738   18.2646 H   0  0  0  0  0  0  0  0  0  0  0  0
    7.1127   -1.7851   21.1135 C   0  0  0  0  0  0  0  0  0  0  0  0
    7.7972   -1.8459   22.4995 C   0  0  2  0  0  0  0  0  0  0  0  0
    6.8272   -2.3814   23.5646 C   0  0  0  0  0  0  0  0  0  0  0  0
    7.3054   -2.4618   24.5456 H   0  0  0  0  0  0  0  0  0  0  0  0
    5.9399   -1.7452   23.6614 H   0  0  0  0  0  0  0  0  0  0  0  0
    6.4913   -3.3868   23.2847 H   0  0  0  0  0  0  0  0  0  0  0  0
    8.6374   -2.5475   22.4655 H   0  0  0  0  0  0  0  0  0  0  0  0
    6.1607   -2.3294   21.0951 H   0  0  0  0  0  0  0  0  0  0  0  0
    7.7656   -2.1963   20.3379 H   0  0  0  0  0  0  0  0  0  0  0  0
    9.8933   -0.3406   22.5179 C   0  0  0  0  0  0  0  0  0  0  0  0
   10.5239   -1.1586   21.5723 C   0  0  0  0  0  0  0  0  0  0  0  0
   11.8848   -1.0277   21.3735 C   0  0  0  0  0  0  0  0  0  0  0  0
   12.4847   -1.7795   20.4347 F   0  0  0  0  0  0  0  0  0  0  0  0
   12.6510   -0.0678   22.0246 C   0  0  0  0  0  0  0  0  0  0  0  0
   12.0207    0.7789   22.9120 C   0  0  0  0  0  0  0  0  0  0  0  0
   10.6496    0.6613   23.1358 C   0  0  0  0  0  0  0  0  0  0  0  0
   10.0025    1.7092   23.9762 C   0  0  0  0  0  0  0  0  0  0  0  0
   10.5713    2.7574   24.2579 O   0  0  0  0  0  0  0  0  0  0  0  0
   12.5419    1.5900   23.4098 H   0  0  0  0  0  0  0  0  0  0  0  0
   13.6907    0.0531   21.7512 H   0  0  0  0  0  0  0  0  0  0  0  0
    9.9718   -1.8169   20.9102 H   0  0  0  0  0  0  0  0  0  0  0  0
    7.0258    0.2833   24.2780 H   0  0  0  0  0  0  0  0  0  0  0  0
    8.4553   -0.6012   24.8857 H   0  0  0  0  0  0  0  0  0  0  0  0
    8.5758    2.9844   25.7738 H   0  0  0  0  0  0  0  0  0  0  0  0
    7.0724    2.0759   25.4538 H   0  0  0  0  0  0  0  0  0  0  0  0
    8.2766    4.5484   23.6476 N   0  0  0  0  0  0  0  0  0  0  0  0
    7.5254    5.1948   22.6807 O   0  0  0  0  0  0  0  0  0  0  0  0
    5.6435    5.9915   21.2001 H   0  0  0  0  0  0  0  0  0  0  0  0
    4.3948    4.9466   21.9393 H   0  0  0  0  0  0  0  0  0  0  0  0
    5.4227    4.3010   20.6652 H   0  0  0  0  0  0  0  0  0  0  0  0
  1  2  1  0
  2  3  2  0
  3  4  1  0
  4  5  1  0
  5  6  1  0
  6  7  1  0
  8  7  1  1
  8  9  1  0
  9 10  2  0
  9 11  1  0
 11 12  1  0
 12 13  2  0
 13 14  1  0
 14 15  2  0
 15 16  1  0
 16 17  2  0
 17 18  1  0
 18 19  2  0
 19 20  1  0
 20 21  2  0
 20 22  1  0
 19 23  1  0
 18 24  1  0
 17 25  1  0
 15 26  1  0
 13 27  1  0
 11 28  1  0
 28 29  1  0
 29 30  1  0
 30 31  1  0
 30 32  1  0
 30 33  1  0
 29 34  1  6
 28 35  1  0
 28 36  1  0
  8 37  1  0
 37 38  2  0
 38 39  1  0
 39 40  1  0
 39 41  2  0
 41 42  1  0
 42 43  2  0
 43 44  1  0
 44 45  2  0
 42 46  1  0
 41 47  1  0
 38 48  1  0
  7 49  1  0
  7 50  1  0
  5 51  1  0
  5 52  1  0
  4 53  2  0
 53 54  1  0
  1 55  1  0
  1 56  1  0
  1 57  1  0
 54  2  1  0
 44  6  1  0
 29  8  1  0
 43 37  1  0
 21 12  1  0
 21 16  1  0
M  END
>  <cnnaffinities>  (69) 
[6.59631]

>  <score>  (69) 
6.59631

>  <index>  (69) 
68

>  <Smiles>  (69) 
C(c1nc(C(N2C([C@@]3(C(=O)N(c4c(nc(c5c(c(c(c(c45)[H])[H])[H])[H])[H])[H])C([C@@]3(C([H])([H])[H])[H])([H])[H])c3c(c(F)c(c(c3C2=O)[H])[H])[H])([H])[H])([H])[H])no1)([H])([H])[H]

>  <h>  (69) 
<NA>

>  <Training>  (69) 
True

>  <Success>  (69) 
True

>  <enamine_searched>  (69) 
False

>  <enamine_id>  (69) 
nan

$$$$

     RDKit          3D

 64 68  0  0  0  0  0  0  0  0999 V2000
    2.5733   -3.6633   29.0469 C   0  0  0  0  0  0  0  0  0  0  0  0
    3.9324   -3.6787   28.3518 C   0  0  0  0  0  0  0  0  0  0  0  0
    3.8349   -3.6563   26.8412 C   0  0  0  0  0  0  0  0  0  0  0  0
    3.4328   -2.6667   26.2595 O   0  0  0  0  0  0  0  0  0  0  0  0
    4.2433   -4.8126   26.1830 N   0  0  0  0  0  0  0  0  0  0  0  0
    4.0889   -6.1281   26.8062 C   0  0  0  0  0  0  0  0  0  0  0  0
    3.5644   -7.1040   25.7675 C   0  0  0  0  0  0  0  0  0  0  0  0
    4.6054   -7.2414   24.6595 C   0  0  0  0  0  0  0  0  0  0  0  0
    5.0785   -5.8910   24.1582 C   0  0  0  0  0  0  0  0  0  0  0  0
    5.7228   -5.7659   22.9262 C   0  0  0  0  0  0  0  0  0  0  0  0
    6.1750   -4.5440   22.4489 C   0  0  0  0  0  0  0  0  0  0  0  0
    5.9941   -3.4041   23.2340 C   0  0  0  0  0  0  0  0  0  0  0  0
    6.4589   -2.1355   22.7754 N   0  0  0  0  0  0  0  0  0  0  0  0
    7.3873   -1.3637   23.6016 C   0  0  0  0  0  0  0  0  0  0  0  0
    8.8475   -1.4672   23.1882 C   0  0  0  0  0  0  0  0  0  0  0  0
    9.3893   -2.7489   23.2414 C   0  0  0  0  0  0  0  0  0  0  0  0
   10.7159   -2.9672   22.9295 C   0  0  0  0  0  0  0  0  0  0  0  0
   11.5328   -1.9329   22.5054 C   0  0  0  0  0  0  0  0  0  0  0  0
   10.9966   -0.6530   22.4293 C   0  0  0  0  0  0  0  0  0  0  0  0
   12.0446    0.6616   21.9388 Cl  0  0  0  0  0  0  0  0  0  0  0  0
    9.6630   -0.4057   22.7712 C   0  0  0  0  0  0  0  0  0  0  0  0
    9.3081    0.6268   22.7361 H   0  0  0  0  0  0  0  0  0  0  0  0
   12.5556   -2.1309   22.2200 H   0  0  0  0  0  0  0  0  0  0  0  0
   11.1170   -3.9553   23.0615 H   0  0  0  0  0  0  0  0  0  0  0  0
    8.7598   -3.5833   23.5331 H   0  0  0  0  0  0  0  0  0  0  0  0
    7.2900   -1.7948   24.5998 H   0  0  0  0  0  0  0  0  0  0  0  0
    7.0636   -0.3224   23.6633 H   0  0  0  0  0  0  0  0  0  0  0  0
    6.0616   -1.7640   21.5057 C   0  0  0  0  0  0  0  0  0  0  0  0
    5.1975   -2.3758   20.9038 O   0  0  0  0  0  0  0  0  0  0  0  0
    6.7896   -0.5766   20.8981 C   0  0  0  0  0  0  0  0  0  0  0  0
    6.0376    0.0482   19.7814 C   0  0  0  0  0  0  0  0  0  0  0  0
    6.3835   -0.2100   18.4817 C   0  0  0  0  0  0  0  0  0  0  0  0
    5.7353    0.2702   17.3963 N   0  0  0  0  0  0  0  0  0  0  0  0
    4.6769    1.0169   17.6110 C   0  0  0  0  0  0  0  0  0  0  0  0
    4.1946    1.3328   18.9118 C   0  0  0  0  0  0  0  0  0  0  0  0
    3.0366    2.1085   19.1290 C   0  0  0  0  0  0  0  0  0  0  0  0
    2.2974    2.4345   18.0554 F   0  0  0  0  0  0  0  0  0  0  0  0
    2.6536    2.5318   20.3682 C   0  0  0  0  0  0  0  0  0  0  0  0
    3.4156    2.1312   21.4832 C   0  0  0  0  0  0  0  0  0  0  0  0
    4.5005    1.3050   21.3347 C   0  0  0  0  0  0  0  0  0  0  0  0
    4.9145    0.8827   20.0403 C   0  0  0  0  0  0  0  0  0  0  0  0
    5.0511    0.9896   22.2148 H   0  0  0  0  0  0  0  0  0  0  0  0
    3.1365    2.4932   22.4687 H   0  0  0  0  0  0  0  0  0  0  0  0
    1.7884    3.1739   20.4756 H   0  0  0  0  0  0  0  0  0  0  0  0
    4.1512    1.4068   16.7437 H   0  0  0  0  0  0  0  0  0  0  0  0
    7.2469   -0.8438   18.2677 H   0  0  0  0  0  0  0  0  0  0  0  0
    6.9961    0.1543   21.6785 H   0  0  0  0  0  0  0  0  0  0  0  0
    7.7566   -0.9538   20.5456 H   0  0  0  0  0  0  0  0  0  0  0  0
    5.3722   -3.4976   24.4683 C   0  0  0  0  0  0  0  0  0  0  0  0
    4.8818   -4.7281   24.9241 C   0  0  0  0  0  0  0  0  0  0  0  0
    5.2502   -2.5989   25.0604 H   0  0  0  0  0  0  0  0  0  0  0  0
    6.6517   -4.4684   21.4750 H   0  0  0  0  0  0  0  0  0  0  0  0
    5.8681   -6.6532   22.3127 H   0  0  0  0  0  0  0  0  0  0  0  0
    5.4692   -7.8019   25.0516 H   0  0  0  0  0  0  0  0  0  0  0  0
    4.2042   -7.8329   23.8263 H   0  0  0  0  0  0  0  0  0  0  0  0
    3.3599   -8.0743   26.2311 H   0  0  0  0  0  0  0  0  0  0  0  0
    2.6178   -6.7189   25.3685 H   0  0  0  0  0  0  0  0  0  0  0  0
    5.0518   -6.4787   27.2120 H   0  0  0  0  0  0  0  0  0  0  0  0
    3.3845   -6.0353   27.6374 H   0  0  0  0  0  0  0  0  0  0  0  0
    4.5317   -4.5341   28.6719 H   0  0  0  0  0  0  0  0  0  0  0  0
    4.4861   -2.7769   28.6298 H   0  0  0  0  0  0  0  0  0  0  0  0
    2.7307   -3.5190   30.1199 H   0  0  0  0  0  0  0  0  0  0  0  0
    2.0212   -4.5990   28.8991 H   0  0  0  0  0  0  0  0  0  0  0  0
    1.9572   -2.8383   28.6774 H   0  0  0  0  0  0  0  0  0  0  0  0
  1  2  1  0
  2  3  1  0
  3  4  2  0
  3  5  1  0
  5  6  1  0
  6  7  1  0
  7  8  1  0
  8  9  1  0
  9 10  2  0
 10 11  1  0
 11 12  2  0
 12 13  1  0
 13 14  1  0
 14 15  1  0
 15 16  2  0
 16 17  1  0
 17 18  2  0
 18 19  1  0
 19 20  1  0
 19 21  2  0
 21 22  1  0
 18 23  1  0
 17 24  1  0
 16 25  1  0
 14 26  1  0
 14 27  1  0
 13 28  1  0
 28 29  2  0
 28 30  1  0
 30 31  1  0
 31 32  2  0
 32 33  1  0
 33 34  2  0
 34 35  1  0
 35 36  2  0
 36 37  1  0
 36 38  1  0
 38 39  2  0
 39 40  1  0
 40 41  2  0
 40 42  1  0
 39 43  1  0
 38 44  1  0
 34 45  1  0
 32 46  1  0
 30 47  1  0
 30 48  1  0
 12 49  1  0
 49 50  2  0
 49 51  1  0
 11 52  1  0
 10 53  1  0
  8 54  1  0
  8 55  1  0
  7 56  1  0
  7 57  1  0
  6 58  1  0
  6 59  1  0
  2 60  1  0
  2 61  1  0
  1 62  1  0
  1 63  1  0
  1 64  1  0
 50  5  1  0
 50  9  1  0
 21 15  1  0
 41 31  1  0
 41 35  1  0
M  END
>  <cnnaffinities>  (70) 
[6.93287, 6.63349]

>  <score>  (70) 
6.93287

>  <index>  (70) 
69

>  <Smiles>  (70) 
C(C(C(=O)N1C(C(C(c2c(c(c(N(C(c3c(c(c(c(Cl)c3[H])[H])[H])[H])([H])[H])C(=O)C(c3c(nc(c4c(F)c(c(c(c34)[H])[H])[H])[H])[H])([H])[H])c(c12)[H])[H])[H])([H])[H])([H])[H])([H])[H])([H])[H])([H])([H])[H]

>  <h>  (70) 
<NA>

>  <Training>  (70) 
True

>  <Success>  (70) 
True

>  <enamine_searched>  (70) 
False

>  <enamine_id>  (70) 
nan

$$$$

     RDKit          3D

 57 62  0  0  0  0  0  0  0  0999 V2000
    7.2711   -2.3732   23.5471 C   0  0  0  0  0  0  0  0  0  0  0  0
    8.0403   -1.8321   22.3318 C   0  0  1  0  0  0  0  0  0  0  0  0
    7.0982   -1.7229   21.1096 C   0  0  0  0  0  0  0  0  0  0  0  0
    6.9518   -0.3075   20.8751 N   0  0  0  0  0  0  0  0  0  0  0  0
    6.1654    0.1681   19.7935 C   0  0  0  0  0  0  0  0  0  0  0  0
    6.4594   -0.1915   18.5002 C   0  0  0  0  0  0  0  0  0  0  0  0
    5.7748    0.2329   17.4129 N   0  0  0  0  0  0  0  0  0  0  0  0
    4.7485    1.0229   17.6120 C   0  0  0  0  0  0  0  0  0  0  0  0
    4.2968    1.4262   18.9000 C   0  0  0  0  0  0  0  0  0  0  0  0
    3.1517    2.2502   19.0698 C   0  0  0  0  0  0  0  0  0  0  0  0
    2.7305    2.6060   20.3215 C   0  0  0  0  0  0  0  0  0  0  0  0
    3.4192    2.1378   21.4621 C   0  0  0  0  0  0  0  0  0  0  0  0
    4.5253    1.3315   21.3239 C   0  0  0  0  0  0  0  0  0  0  0  0
    5.0097    0.9751   20.0360 C   0  0  0  0  0  0  0  0  0  0  0  0
    5.0311    0.9451   22.2034 H   0  0  0  0  0  0  0  0  0  0  0  0
    3.0982    2.4390   22.4556 H   0  0  0  0  0  0  0  0  0  0  0  0
    1.8646    3.2518   20.4382 H   0  0  0  0  0  0  0  0  0  0  0  0
    2.6304    2.5930   18.1802 H   0  0  0  0  0  0  0  0  0  0  0  0
    4.2122    1.3771   16.7323 H   0  0  0  0  0  0  0  0  0  0  0  0
    7.3058   -0.8447   18.2879 H   0  0  0  0  0  0  0  0  0  0  0  0
    7.9061    0.4674   21.5016 C   0  0  0  0  0  0  0  0  0  0  0  0
    8.0844    1.6422   21.2725 O   0  0  0  0  0  0  0  0  0  0  0  0
    8.7019   -0.4229   22.4928 C   0  0  1  0  0  0  0  0  0  0  0  0
    8.5965    0.1467   23.9362 C   0  0  0  0  0  0  0  0  0  0  0  0
    9.2336    1.4491   24.0581 N   0  0  0  0  0  0  0  0  0  0  0  0
    8.5807    2.4799   24.8551 C   0  0  0  0  0  0  0  0  0  0  0  0
    7.3793    3.0829   24.2099 C   0  0  0  0  0  0  0  0  0  0  0  0
    6.1105    2.7725   24.5712 N   0  0  0  0  0  0  0  0  0  0  0  0
    5.3322    3.4786   23.7972 N   0  0  0  0  0  0  0  0  0  0  0  0
    6.1241    4.1874   23.0228 N   0  0  0  0  0  0  0  0  0  0  0  0
    5.6324    4.9314   21.8861 C   0  0  0  0  0  0  0  0  0  0  0  0
    6.2941    5.7824   21.7231 H   0  0  0  0  0  0  0  0  0  0  0  0
    4.6233    5.2731   22.1142 H   0  0  0  0  0  0  0  0  0  0  0  0
    5.6253    4.2779   21.0063 H   0  0  0  0  0  0  0  0  0  0  0  0
    7.4129    3.9882   23.2457 N   0  0  0  0  0  0  0  0  0  0  0  0
    8.2249    2.0806   25.8013 H   0  0  0  0  0  0  0  0  0  0  0  0
    9.3366    3.2438   25.0523 H   0  0  0  0  0  0  0  0  0  0  0  0
   10.4714    1.7098   23.5263 C   0  0  0  0  0  0  0  0  0  0  0  0
   11.1082    2.7120   23.8269 O   0  0  0  0  0  0  0  0  0  0  0  0
   10.9998    0.6819   22.5657 C   0  0  0  0  0  0  0  0  0  0  0  0
   12.3284    0.8196   22.1477 C   0  0  0  0  0  0  0  0  0  0  0  0
   12.9469   -0.1708   21.4059 C   0  0  0  0  0  0  0  0  0  0  0  0
   12.1589   -1.2614   21.0353 C   0  0  0  0  0  0  0  0  0  0  0  0
   12.6992   -2.2158   20.2610 F   0  0  0  0  0  0  0  0  0  0  0  0
   10.8053   -1.3509   21.3121 C   0  0  0  0  0  0  0  0  0  0  0  0
   10.1945   -0.3875   22.1305 C   0  0  0  0  0  0  0  0  0  0  0  0
   10.2844   -2.1813   20.8541 H   0  0  0  0  0  0  0  0  0  0  0  0
   13.9682   -0.0876   21.0468 H   0  0  0  0  0  0  0  0  0  0  0  0
   12.8749    1.7073   22.4562 H   0  0  0  0  0  0  0  0  0  0  0  0
    7.5542    0.2623   24.2443 H   0  0  0  0  0  0  0  0  0  0  0  0
    9.0699   -0.5746   24.6186 H   0  0  0  0  0  0  0  0  0  0  0  0
    6.1147   -2.1686   21.3044 H   0  0  0  0  0  0  0  0  0  0  0  0
    7.4962   -2.1999   20.2119 H   0  0  0  0  0  0  0  0  0  0  0  0
    8.8334   -2.5591   22.1414 H   0  0  0  0  0  0  0  0  0  0  0  0
    6.4127   -1.7395   23.7999 H   0  0  0  0  0  0  0  0  0  0  0  0
    7.9089   -2.4568   24.4315 H   0  0  0  0  0  0  0  0  0  0  0  0
    6.8922   -3.3783   23.3304 H   0  0  0  0  0  0  0  0  0  0  0  0
  1  2  1  0
  2  3  1  0
  3  4  1  0
  4  5  1  0
  5  6  2  0
  6  7  1  0
  7  8  2  0
  8  9  1  0
  9 10  2  0
 10 11  1  0
 11 12  2  0
 12 13  1  0
 13 14  2  0
 13 15  1  0
 12 16  1  0
 11 17  1  0
 10 18  1  0
  8 19  1  0
  6 20  1  0
  4 21  1  0
 21 22  2  0
 21 23  1  0
 23 24  1  1
 24 25  1  0
 25 26  1  0
 26 27  1  0
 27 28  1  0
 28 29  2  0
 29 30  1  0
 30 31  1  0
 31 32  1  0
 31 33  1  0
 31 34  1  0
 30 35  1  0
 26 36  1  0
 26 37  1  0
 25 38  1  0
 38 39  2  0
 38 40  1  0
 40 41  2  0
 41 42  1  0
 42 43  2  0
 43 44  1  0
 43 45  1  0
 45 46  2  0
 45 47  1  0
 42 48  1  0
 41 49  1  0
 24 50  1  0
 24 51  1  0
  3 52  1  0
  3 53  1  0
  2 54  1  6
  1 55  1  0
  1 56  1  0
  1 57  1  0
 23  2  1  0
 35 27  2  0
 46 40  1  0
 14  5  1  0
 46 23  1  0
 14  9  1  0
M  END
>  <cnnaffinities>  (71) 
[6.44086, 6.54174]

>  <score>  (71) 
6.44086

>  <index>  (71) 
70

>  <Smiles>  (71) 
C([C@]1(C(N(c2c(nc(c3c(c(c(c(c23)[H])[H])[H])[H])[H])[H])C(=O)[C@]21C(N(C(c1nnn(C([H])([H])[H])n1)([H])[H])C(=O)c1c(c(c(F)c(c21)[H])[H])[H])([H])[H])([H])[H])[H])([H])([H])[H]

>  <h>  (71) 
<NA>

>  <Training>  (71) 
True

>  <Success>  (71) 
True

>  <enamine_searched>  (71) 
False

>  <enamine_id>  (71) 
nan

$$$$

     RDKit          3D

 59 64  0  0  0  0  0  0  0  0999 V2000
    7.1298   -2.2737   23.6093 C   0  0  0  0  0  0  0  0  0  0  0  0
    7.9533   -1.8588   22.3836 C   0  0  1  0  0  0  0  0  0  0  0  0
    7.0481   -1.7535   21.1431 C   0  0  0  0  0  0  0  0  0  0  0  0
    6.9174   -0.3381   20.9020 N   0  0  0  0  0  0  0  0  0  0  0  0
    6.1431    0.1321   19.8109 C   0  0  0  0  0  0  0  0  0  0  0  0
    6.4532   -0.2202   18.5210 C   0  0  0  0  0  0  0  0  0  0  0  0
    5.7840    0.2169   17.4277 N   0  0  0  0  0  0  0  0  0  0  0  0
    4.7595    1.0104   17.6164 C   0  0  0  0  0  0  0  0  0  0  0  0
    4.2917    1.3992   18.9030 C   0  0  0  0  0  0  0  0  0  0  0  0
    3.1528    2.2288   19.0638 C   0  0  0  0  0  0  0  0  0  0  0  0
    2.7160    2.5710   20.3111 C   0  0  0  0  0  0  0  0  0  0  0  0
    3.3814    2.0810   21.4565 C   0  0  0  0  0  0  0  0  0  0  0  0
    4.4879    1.2784   21.3317 C   0  0  0  0  0  0  0  0  0  0  0  0
    4.9848    0.9358   20.0453 C   0  0  0  0  0  0  0  0  0  0  0  0
    4.9863    0.8893   22.2144 H   0  0  0  0  0  0  0  0  0  0  0  0
    3.0119    2.3472   22.4432 H   0  0  0  0  0  0  0  0  0  0  0  0
    1.8553    3.2214   20.4316 H   0  0  0  0  0  0  0  0  0  0  0  0
    2.6448    2.5841   18.1717 H   0  0  0  0  0  0  0  0  0  0  0  0
    4.2333    1.3761   16.7327 H   0  0  0  0  0  0  0  0  0  0  0  0
    7.3001   -0.8737   18.3102 H   0  0  0  0  0  0  0  0  0  0  0  0
    7.9189    0.4164   21.4832 C   0  0  0  0  0  0  0  0  0  0  0  0
    8.1172    1.5868   21.2643 O   0  0  0  0  0  0  0  0  0  0  0  0
    8.7080   -0.4886   22.4696 C   0  0  1  0  0  0  0  0  0  0  0  0
    8.6687    0.1199   23.8915 C   0  0  0  0  0  0  0  0  0  0  0  0
    9.4244    1.3527   23.9815 N   0  0  0  0  0  0  0  0  0  0  0  0
    8.8689    2.4690   24.7189 C   0  0  0  0  0  0  0  0  0  0  0  0
    7.7927    3.1924   23.9721 C   0  0  0  0  0  0  0  0  0  0  0  0
    6.5029    3.0416   24.1871 N   0  0  0  0  0  0  0  0  0  0  0  0
    5.9003    3.9459   23.3510 C   0  0  0  0  0  0  0  0  0  0  0  0
    6.8338    4.6231   22.6183 C   0  0  0  0  0  0  0  0  0  0  0  0
    8.0550    4.1383   23.0307 N   0  0  0  0  0  0  0  0  0  0  0  0
    9.3686    4.5275   22.5450 C   0  0  0  0  0  0  0  0  0  0  0  0
    9.2839    5.4682   22.0005 H   0  0  0  0  0  0  0  0  0  0  0  0
   10.0499    4.6880   23.3846 H   0  0  0  0  0  0  0  0  0  0  0  0
    9.7819    3.7679   21.8747 H   0  0  0  0  0  0  0  0  0  0  0  0
    6.7679    5.3591   21.8309 H   0  0  0  0  0  0  0  0  0  0  0  0
    4.8277    4.0666   23.3489 H   0  0  0  0  0  0  0  0  0  0  0  0
    9.7057    3.1333   24.9527 H   0  0  0  0  0  0  0  0  0  0  0  0
    8.4361    2.0867   25.6448 H   0  0  0  0  0  0  0  0  0  0  0  0
   10.7064    1.4336   23.5365 C   0  0  0  0  0  0  0  0  0  0  0  0
   11.4674    2.3347   23.8750 O   0  0  0  0  0  0  0  0  0  0  0  0
   11.1178    0.3763   22.5729 C   0  0  0  0  0  0  0  0  0  0  0  0
   12.4536    0.3722   22.1733 C   0  0  0  0  0  0  0  0  0  0  0  0
   12.9360   -0.6510   21.3821 C   0  0  0  0  0  0  0  0  0  0  0  0
   12.0402   -1.6428   20.9906 C   0  0  0  0  0  0  0  0  0  0  0  0
   12.5095   -2.6941   20.2922 F   0  0  0  0  0  0  0  0  0  0  0  0
   10.6939   -1.5974   21.2894 C   0  0  0  0  0  0  0  0  0  0  0  0
   10.1932   -0.5706   22.0967 C   0  0  0  0  0  0  0  0  0  0  0  0
   10.0574   -2.3817   20.8900 H   0  0  0  0  0  0  0  0  0  0  0  0
   13.9741   -0.7251   21.0782 H   0  0  0  0  0  0  0  0  0  0  0  0
   13.1031    1.1660   22.5272 H   0  0  0  0  0  0  0  0  0  0  0  0
    9.0854   -0.6152   24.5915 H   0  0  0  0  0  0  0  0  0  0  0  0
    7.6486    0.3481   24.1977 H   0  0  0  0  0  0  0  0  0  0  0  0
    7.4919   -2.2409   20.2741 H   0  0  0  0  0  0  0  0  0  0  0  0
    6.0605   -2.2004   21.3039 H   0  0  0  0  0  0  0  0  0  0  0  0
    8.6827   -2.6601   22.2523 H   0  0  0  0  0  0  0  0  0  0  0  0
    6.6594   -3.2460   23.4230 H   0  0  0  0  0  0  0  0  0  0  0  0
    6.3344   -1.5538   23.8280 H   0  0  0  0  0  0  0  0  0  0  0  0
    7.7553   -2.3825   24.4995 H   0  0  0  0  0  0  0  0  0  0  0  0
  1  2  1  0
  2  3  1  0
  3  4  1  0
  4  5  1  0
  5  6  2  0
  6  7  1  0
  7  8  2  0
  8  9  1  0
  9 10  2  0
 10 11  1  0
 11 12  2  0
 12 13  1  0
 13 14  2  0
 13 15  1  0
 12 16  1  0
 11 17  1  0
 10 18  1  0
  8 19  1  0
  6 20  1  0
  4 21  1  0
 21 22  2  0
 21 23  1  0
 23 24  1  1
 24 25  1  0
 25 26  1  0
 26 27  1  0
 27 28  2  0
 28 29  1  0
 29 30  2  0
 30 31  1  0
 31 32  1  0
 32 33  1  0
 32 34  1  0
 32 35  1  0
 30 36  1  0
 29 37  1  0
 26 38  1  0
 26 39  1  0
 25 40  1  0
 40 41  2  0
 40 42  1  0
 42 43  2  0
 43 44  1  0
 44 45  2  0
 45 46  1  0
 45 47  1  0
 47 48  2  0
 47 49  1  0
 44 50  1  0
 43 51  1  0
 24 52  1  0
 24 53  1  0
  3 54  1  0
  3 55  1  0
  2 56  1  6
  1 57  1  0
  1 58  1  0
  1 59  1  0
 23  2  1  0
 31 27  1  0
 48 42  1  0
 14  5  1  0
 48 23  1  0
 14  9  1  0
M  END
>  <cnnaffinities>  (72) 
[6.60328]

>  <score>  (72) 
6.60328

>  <index>  (72) 
71

>  <Smiles>  (72) 
C([C@]1(C(N(c2c(nc(c3c(c(c(c(c23)[H])[H])[H])[H])[H])[H])C(=O)[C@]21C(N(C(c1nc(c(n1C([H])([H])[H])[H])[H])([H])[H])C(=O)c1c(c(c(F)c(c21)[H])[H])[H])([H])[H])([H])[H])[H])([H])([H])[H]

>  <h>  (72) 
<NA>

>  <Training>  (72) 
True

>  <Success>  (72) 
True

>  <enamine_searched>  (72) 
False

>  <enamine_id>  (72) 
nan

$$$$

     RDKit          3D

 60 64  0  0  0  0  0  0  0  0999 V2000
    7.8084   -8.4617   22.8857 C   0  0  0  0  0  0  0  0  0  0  0  0
    6.8538   -7.3865   22.7240 N   0  0  0  0  0  0  0  0  0  0  0  0
    7.0402   -6.5138   21.7002 C   0  0  0  0  0  0  0  0  0  0  0  0
    7.9086   -6.6635   20.8577 O   0  0  0  0  0  0  0  0  0  0  0  0
    6.1441   -5.2789   21.7238 C   0  0  0  0  0  0  0  0  0  0  0  0
    6.6476   -4.3058   22.6752 N   0  0  0  0  0  0  0  0  0  0  0  0
    7.7521   -3.4226   22.3234 C   0  0  0  0  0  0  0  0  0  0  0  0
    7.3930   -1.9557   22.6640 C   0  0  2  0  0  0  0  0  0  0  0  0
    6.3234   -1.4573   21.6697 C   0  0  0  0  0  0  0  0  0  0  0  0
    5.1987   -1.8928   21.5302 O   0  0  0  0  0  0  0  0  0  0  0  0
    6.8659   -0.4451   20.9019 N   0  0  0  0  0  0  0  0  0  0  0  0
    6.1371    0.0935   19.8192 C   0  0  0  0  0  0  0  0  0  0  0  0
    6.4825   -0.2069   18.5258 C   0  0  0  0  0  0  0  0  0  0  0  0
    5.8167    0.2327   17.4336 N   0  0  0  0  0  0  0  0  0  0  0  0
    4.7783    1.0067   17.6296 C   0  0  0  0  0  0  0  0  0  0  0  0
    4.3127    1.3926   18.9175 C   0  0  0  0  0  0  0  0  0  0  0  0
    3.1768    2.2257   19.0702 C   0  0  0  0  0  0  0  0  0  0  0  0
    2.7738    2.6264   20.3138 C   0  0  0  0  0  0  0  0  0  0  0  0
    3.4778    2.1983   21.4607 C   0  0  0  0  0  0  0  0  0  0  0  0
    4.5679    1.3745   21.3400 C   0  0  0  0  0  0  0  0  0  0  0  0
    5.0114    0.9435   20.0570 C   0  0  0  0  0  0  0  0  0  0  0  0
    5.0955    1.0391   22.2274 H   0  0  0  0  0  0  0  0  0  0  0  0
    3.1519    2.5278   22.4426 H   0  0  0  0  0  0  0  0  0  0  0  0
    1.9206    3.2872   20.4247 H   0  0  0  0  0  0  0  0  0  0  0  0
    2.6541    2.5501   18.1752 H   0  0  0  0  0  0  0  0  0  0  0  0
    4.2425    1.3623   16.7492 H   0  0  0  0  0  0  0  0  0  0  0  0
    7.3274   -0.8649   18.3267 H   0  0  0  0  0  0  0  0  0  0  0  0
    8.3128   -0.4058   20.9892 C   0  0  0  0  0  0  0  0  0  0  0  0
    8.5766   -0.9842   22.3831 C   0  0  2  0  0  0  0  0  0  0  0  0
    9.8998   -1.5375   22.4815 N   0  0  0  0  0  0  0  0  0  0  0  0
   10.5207   -1.7516   23.6811 C   0  0  0  0  0  0  0  0  0  0  0  0
   10.0293   -1.3871   24.7355 O   0  0  0  0  0  0  0  0  0  0  0  0
   11.8383   -2.4743   23.5587 C   0  0  0  0  0  0  0  0  0  0  0  0
   11.6915   -3.4692   23.1316 H   0  0  0  0  0  0  0  0  0  0  0  0
   12.2979   -2.5772   24.5374 H   0  0  0  0  0  0  0  0  0  0  0  0
   12.5151   -1.9263   22.9012 H   0  0  0  0  0  0  0  0  0  0  0  0
   10.3490   -1.8337   21.6328 H   0  0  0  0  0  0  0  0  0  0  0  0
    8.5224   -0.1779   23.1106 H   0  0  0  0  0  0  0  0  0  0  0  0
    8.6765    0.6199   20.8976 H   0  0  0  0  0  0  0  0  0  0  0  0
    8.7994   -1.0184   20.2110 H   0  0  0  0  0  0  0  0  0  0  0  0
    6.8688   -1.9313   24.0909 C   0  0  0  0  0  0  0  0  0  0  0  0
    6.7690   -0.7211   24.7891 C   0  0  0  0  0  0  0  0  0  0  0  0
    6.2519   -0.6935   26.0713 C   0  0  0  0  0  0  0  0  0  0  0  0
    6.0160    0.8410   26.8604 Cl  0  0  0  0  0  0  0  0  0  0  0  0
    5.8876   -1.8611   26.7412 C   0  0  0  0  0  0  0  0  0  0  0  0
    5.9468   -3.0534   26.0470 C   0  0  0  0  0  0  0  0  0  0  0  0
    6.3734   -3.0835   24.7208 C   0  0  0  0  0  0  0  0  0  0  0  0
    6.1830   -4.3498   23.9528 C   0  0  0  0  0  0  0  0  0  0  0  0
    5.5998   -5.3339   24.4045 O   0  0  0  0  0  0  0  0  0  0  0  0
    5.6281   -3.9830   26.5015 H   0  0  0  0  0  0  0  0  0  0  0  0
    5.5438   -1.8250   27.7702 H   0  0  0  0  0  0  0  0  0  0  0  0
    7.1006    0.2135   24.3532 H   0  0  0  0  0  0  0  0  0  0  0  0
    7.9383   -3.5285   21.2588 H   0  0  0  0  0  0  0  0  0  0  0  0
    8.6742   -3.7064   22.8491 H   0  0  0  0  0  0  0  0  0  0  0  0
    6.1149   -4.8062   20.7379 H   0  0  0  0  0  0  0  0  0  0  0  0
    5.1240   -5.5503   22.0085 H   0  0  0  0  0  0  0  0  0  0  0  0
    6.2829   -7.0773   23.4979 H   0  0  0  0  0  0  0  0  0  0  0  0
    8.7059   -8.1567   23.4450 H   0  0  0  0  0  0  0  0  0  0  0  0
    8.1074   -8.7799   21.8944 H   0  0  0  0  0  0  0  0  0  0  0  0
    7.3276   -9.3125   23.3618 H   0  0  0  0  0  0  0  0  0  0  0  0
  1  2  1  0
  2  3  1  0
  3  4  2  0
  3  5  1  0
  5  6  1  0
  6  7  1  0
  8  7  1  6
  8  9  1  0
  9 10  2  0
  9 11  1  0
 11 12  1  0
 12 13  2  0
 13 14  1  0
 14 15  2  0
 15 16  1  0
 16 17  2  0
 17 18  1  0
 18 19  2  0
 19 20  1  0
 20 21  2  0
 20 22  1  0
 19 23  1  0
 18 24  1  0
 17 25  1  0
 15 26  1  0
 13 27  1  0
 11 28  1  0
 28 29  1  0
 29 30  1  0
 30 31  1  0
 31 32  2  0
 31 33  1  0
 33 34  1  0
 33 35  1  0
 33 36  1  0
 30 37  1  0
 29 38  1  1
 28 39  1  0
 28 40  1  0
  8 41  1  0
 41 42  2  0
 42 43  1  0
 43 44  1  0
 43 45  2  0
 45 46  1  0
 46 47  2  0
 47 48  1  0
 48 49  2  0
 46 50  1  0
 45 51  1  0
 42 52  1  0
  7 53  1  0
  7 54  1  0
  5 55  1  0
  5 56  1  0
  2 57  1  0
  1 58  1  0
  1 59  1  0
  1 60  1  0
 48  6  1  0
 29  8  1  0
 47 41  1  0
 21 12  1  0
 21 16  1  0
M  END
>  <cnnaffinities>  (73) 
[6.94241]

>  <score>  (73) 
6.94241

>  <index>  (73) 
72

>  <Smiles>  (73) 
C(N(C(=O)C(N1C([C@@]2(C(=O)N(c3c(nc(c4c(c(c(c(c34)[H])[H])[H])[H])[H])[H])C([C@@]2(N(C(=O)C([H])([H])[H])[H])[H])([H])[H])c2c(c(Cl)c(c(c2C1=O)[H])[H])[H])([H])[H])([H])[H])[H])([H])([H])[H]

>  <h>  (73) 
<NA>

>  <Training>  (73) 
True

>  <Success>  (73) 
True

>  <enamine_searched>  (73) 
False

>  <enamine_id>  (73) 
nan

$$$$

     RDKit          3D

 56 61  0  0  0  0  0  0  0  0999 V2000
    8.0668   -3.0085   23.1350 C   0  0  0  0  0  0  0  0  0  0  0  0
    8.0994   -1.8574   22.1288 C   0  0  1  0  0  0  0  0  0  0  0  0
    6.8325   -1.7819   21.2572 C   0  0  0  0  0  0  0  0  0  0  0  0
    6.8267   -0.4063   20.8188 N   0  0  0  0  0  0  0  0  0  0  0  0
    6.0574    0.0858   19.7483 C   0  0  0  0  0  0  0  0  0  0  0  0
    6.3851   -0.2315   18.4551 C   0  0  0  0  0  0  0  0  0  0  0  0
    5.7281    0.2360   17.3707 N   0  0  0  0  0  0  0  0  0  0  0  0
    4.7025    1.0268   17.5797 C   0  0  0  0  0  0  0  0  0  0  0  0
    4.2371    1.4028   18.8729 C   0  0  0  0  0  0  0  0  0  0  0  0
    3.1039    2.2387   19.0535 C   0  0  0  0  0  0  0  0  0  0  0  0
    2.6871    2.5891   20.3087 C   0  0  0  0  0  0  0  0  0  0  0  0
    3.3786    2.1110   21.4450 C   0  0  0  0  0  0  0  0  0  0  0  0
    4.4641    1.2893   21.2985 C   0  0  0  0  0  0  0  0  0  0  0  0
    4.9298    0.9228   20.0021 C   0  0  0  0  0  0  0  0  0  0  0  0
    4.9898    0.9169   22.1740 H   0  0  0  0  0  0  0  0  0  0  0  0
    3.0447    2.3974   22.4398 H   0  0  0  0  0  0  0  0  0  0  0  0
    1.8303    3.2420   20.4411 H   0  0  0  0  0  0  0  0  0  0  0  0
    2.5828    2.5988   18.1711 H   0  0  0  0  0  0  0  0  0  0  0  0
    4.1800    1.3978   16.6987 H   0  0  0  0  0  0  0  0  0  0  0  0
    7.2482   -0.8714   18.2677 H   0  0  0  0  0  0  0  0  0  0  0  0
    7.5913    0.4371   21.5899 C   0  0  0  0  0  0  0  0  0  0  0  0
    7.7176    1.6211   21.3808 O   0  0  0  0  0  0  0  0  0  0  0  0
    8.2644   -0.4165   22.6948 C   0  0  1  0  0  0  0  0  0  0  0  0
    7.5068   -0.2358   24.0213 C   0  0  0  0  0  0  0  0  0  0  0  0
    7.4975    1.1677   24.4053 N   0  0  0  0  0  0  0  0  0  0  0  0
    6.2152    1.7479   24.8149 C   0  0  0  0  0  0  0  0  0  0  0  0
    6.1226    2.2523   26.2755 C   0  0  0  0  0  0  0  0  0  0  0  0
    6.3753    3.6527   25.7877 N   0  0  0  0  0  4  0  0  0  0  0  0
    5.9526    3.2186   24.4076 C   0  0  0  0  0  0  0  0  0  0  0  0
    6.5962    3.6130   23.6232 H   0  0  0  0  0  0  0  0  0  0  0  0
    4.8970    3.4315   24.2127 H   0  0  0  0  0  0  0  0  0  0  0  0
    5.9891    4.4825   26.2573 H   0  0  0  0  0  0  0  0  0  0  0  0
    7.4197    3.7188   25.7061 H   0  0  0  0  0  0  0  0  0  0  0  0
    6.8855    1.8972   26.9643 H   0  0  0  0  0  0  0  0  0  0  0  0
    5.1245    2.1275   26.6991 H   0  0  0  0  0  0  0  0  0  0  0  0
    5.4600    1.0179   24.4944 H   0  0  0  0  0  0  0  0  0  0  0  0
    8.6596    1.8826   24.4340 C   0  0  0  0  0  0  0  0  0  0  0  0
    8.7680    2.9883   24.9870 O   0  0  0  0  0  0  0  0  0  0  0  0
    9.8211    1.2710   23.7105 C   0  0  0  0  0  0  0  0  0  0  0  0
   11.0744    1.8713   23.8177 C   0  0  0  0  0  0  0  0  0  0  0  0
   12.1640    1.3563   23.1481 C   0  0  0  0  0  0  0  0  0  0  0  0
   11.9909    0.2302   22.3487 C   0  0  0  0  0  0  0  0  0  0  0  0
   13.3282   -0.3741   21.4231 Cl  0  0  0  0  0  0  0  0  0  0  0  0
   10.7628   -0.3930   22.2401 C   0  0  0  0  0  0  0  0  0  0  0  0
    9.6589    0.1186   22.9213 C   0  0  0  0  0  0  0  0  0  0  0  0
   10.6703   -1.2610   21.6027 H   0  0  0  0  0  0  0  0  0  0  0  0
   13.1438    1.8127   23.2132 H   0  0  0  0  0  0  0  0  0  0  0  0
   11.2026    2.7661   24.4141 H   0  0  0  0  0  0  0  0  0  0  0  0
    8.0055   -0.8368   24.7978 H   0  0  0  0  0  0  0  0  0  0  0  0
    6.4761   -0.5863   23.9021 H   0  0  0  0  0  0  0  0  0  0  0  0
    5.9259   -2.0372   21.8306 H   0  0  0  0  0  0  0  0  0  0  0  0
    6.8582   -2.4437   20.3909 H   0  0  0  0  0  0  0  0  0  0  0  0
    8.9298   -2.0125   21.4359 H   0  0  0  0  0  0  0  0  0  0  0  0
    8.0617   -3.9778   22.6236 H   0  0  0  0  0  0  0  0  0  0  0  0
    8.9297   -2.9984   23.8101 H   0  0  0  0  0  0  0  0  0  0  0  0
    7.1658   -2.9611   23.7584 H   0  0  0  0  0  0  0  0  0  0  0  0
  1  2  1  0
  2  3  1  0
  3  4  1  0
  4  5  1  0
  5  6  2  0
  6  7  1  0
  7  8  2  0
  8  9  1  0
  9 10  2  0
 10 11  1  0
 11 12  2  0
 12 13  1  0
 13 14  2  0
 13 15  1  0
 12 16  1  0
 11 17  1  0
 10 18  1  0
  8 19  1  0
  6 20  1  0
  4 21  1  0
 21 22  2  0
 21 23  1  0
 23 24  1  1
 24 25  1  0
 25 26  1  0
 26 27  1  0
 27 28  1  0
 28 29  1  0
 29 30  1  0
 29 31  1  0
 28 32  1  0
 28 33  1  0
 27 34  1  0
 27 35  1  0
 26 36  1  0
 25 37  1  0
 37 38  2  0
 37 39  1  0
 39 40  2  0
 40 41  1  0
 41 42  2  0
 42 43  1  0
 42 44  1  0
 44 45  2  0
 44 46  1  0
 41 47  1  0
 40 48  1  0
 24 49  1  0
 24 50  1  0
  3 51  1  0
  3 52  1  0
  2 53  1  6
  1 54  1  0
  1 55  1  0
  1 56  1  0
 23  2  1  0
 29 26  1  0
 45 39  1  0
 14  5  1  0
 45 23  1  0
 14  9  1  0
M  CHG  1  28   1
M  END
>  <cnnaffinities>  (74) 
[6.11164, 6.1068]

>  <score>  (74) 
6.11164

>  <index>  (74) 
73

>  <Smiles>  (74) 
C([C@]1(C(N(c2c(nc(c3c(c(c(c(c23)[H])[H])[H])[H])[H])[H])C(=O)[C@]21C(N(C1(C([N+](C1([H])[H])([H])[H])([H])[H])[H])C(=O)c1c(c(c(Cl)c(c21)[H])[H])[H])([H])[H])([H])[H])[H])([H])([H])[H]

>  <h>  (74) 
<NA>

>  <Training>  (74) 
True

>  <Success>  (74) 
True

>  <enamine_searched>  (74) 
False

>  <enamine_id>  (74) 
nan

$$$$

     RDKit          3D

 55 60  0  0  0  0  0  0  0  0999 V2000
    7.0616   -2.4343   23.4855 C   0  0  0  0  0  0  0  0  0  0  0  0
    7.9534   -1.8452   22.3889 C   0  0  1  0  0  0  0  0  0  0  0  0
    7.2370   -1.7398   21.0311 C   0  0  0  0  0  0  0  0  0  0  0  0
    6.8950   -0.3413   20.9100 N   0  0  0  0  0  0  0  0  0  0  0  0
    6.1254    0.1236   19.8201 C   0  0  0  0  0  0  0  0  0  0  0  0
    6.4417   -0.2273   18.5313 C   0  0  0  0  0  0  0  0  0  0  0  0
    5.7810    0.2119   17.4347 N   0  0  0  0  0  0  0  0  0  0  0  0
    4.7570    1.0072   17.6221 C   0  0  0  0  0  0  0  0  0  0  0  0
    4.2856    1.3986   18.9072 C   0  0  0  0  0  0  0  0  0  0  0  0
    3.1549    2.2417   19.0695 C   0  0  0  0  0  0  0  0  0  0  0  0
    2.7277    2.5980   20.3166 C   0  0  0  0  0  0  0  0  0  0  0  0
    3.3796    2.0955   21.4643 C   0  0  0  0  0  0  0  0  0  0  0  0
    4.4595    1.2578   21.3355 C   0  0  0  0  0  0  0  0  0  0  0  0
    4.9661    0.9270   20.0512 C   0  0  0  0  0  0  0  0  0  0  0  0
    4.9408    0.8451   22.2177 H   0  0  0  0  0  0  0  0  0  0  0  0
    3.0408    2.3910   22.4520 H   0  0  0  0  0  0  0  0  0  0  0  0
    1.8829    3.2704   20.4317 H   0  0  0  0  0  0  0  0  0  0  0  0
    2.6496    2.5982   18.1751 H   0  0  0  0  0  0  0  0  0  0  0  0
    4.2400    1.3748   16.7352 H   0  0  0  0  0  0  0  0  0  0  0  0
    7.2912   -0.8801   18.3311 H   0  0  0  0  0  0  0  0  0  0  0  0
    7.7451    0.4730   21.6349 C   0  0  0  0  0  0  0  0  0  0  0  0
    7.8531    1.6694   21.4779 O   0  0  0  0  0  0  0  0  0  0  0  0
    8.5197   -0.4156   22.6459 C   0  0  1  0  0  0  0  0  0  0  0  0
    8.2889    0.0699   24.0995 C   0  0  0  0  0  0  0  0  0  0  0  0
    8.8754    1.3735   24.3489 N   0  0  0  0  0  0  0  0  0  0  0  0
    8.1088    2.3682   25.0747 C   0  0  0  0  0  0  0  0  0  0  0  0
    7.3565    3.3008   24.1623 C   0  0  0  0  0  0  0  0  0  0  0  0
    7.8333    4.4334   23.4381 C   0  0  0  0  0  0  0  0  0  0  0  0
    6.7280    4.8836   22.8002 C   0  0  0  0  0  0  0  0  0  0  0  0
    5.6691    4.1349   23.1230 O   0  0  0  0  0  0  0  0  0  0  0  0
    6.0715    3.1276   23.9729 N   0  0  0  0  0  0  0  0  0  0  0  0
    6.5245    5.6875   22.1017 H   0  0  0  0  0  0  0  0  0  0  0  0
    8.8411    4.8166   23.4054 H   0  0  0  0  0  0  0  0  0  0  0  0
    7.3855    1.8535   25.7126 H   0  0  0  0  0  0  0  0  0  0  0  0
    8.8086    2.9271   25.6992 H   0  0  0  0  0  0  0  0  0  0  0  0
   10.0711    1.7687   23.8198 C   0  0  0  0  0  0  0  0  0  0  0  0
   10.5910    2.8443   24.1016 O   0  0  0  0  0  0  0  0  0  0  0  0
   10.7314    0.7764   22.9211 C   0  0  0  0  0  0  0  0  0  0  0  0
   12.0870    0.9450   22.6512 C   0  0  0  0  0  0  0  0  0  0  0  0
   12.7814    0.0119   21.9024 C   0  0  0  0  0  0  0  0  0  0  0  0
   12.0677   -1.0817   21.4131 C   0  0  0  0  0  0  0  0  0  0  0  0
   12.7119   -2.0149   20.6887 F   0  0  0  0  0  0  0  0  0  0  0  0
   10.7057   -1.2167   21.5891 C   0  0  0  0  0  0  0  0  0  0  0  0
   10.0154   -0.3020   22.3901 C   0  0  0  0  0  0  0  0  0  0  0  0
   10.2050   -2.0275   21.0752 H   0  0  0  0  0  0  0  0  0  0  0  0
   13.8370    0.1156   21.6830 H   0  0  0  0  0  0  0  0  0  0  0  0
   12.5827    1.8134   23.0681 H   0  0  0  0  0  0  0  0  0  0  0  0
    8.7161   -0.6787   24.7837 H   0  0  0  0  0  0  0  0  0  0  0  0
    7.2185    0.1561   24.2954 H   0  0  0  0  0  0  0  0  0  0  0  0
    7.9119   -2.0340   20.2184 H   0  0  0  0  0  0  0  0  0  0  0  0
    6.3320   -2.3501   20.9689 H   0  0  0  0  0  0  0  0  0  0  0  0
    8.7886   -2.5441   22.3131 H   0  0  0  0  0  0  0  0  0  0  0  0
    6.7582   -3.4473   23.2058 H   0  0  0  0  0  0  0  0  0  0  0  0
    6.1579   -1.8432   23.6638 H   0  0  0  0  0  0  0  0  0  0  0  0
    7.6111   -2.5168   24.4280 H   0  0  0  0  0  0  0  0  0  0  0  0
  1  2  1  0
  2  3  1  0
  3  4  1  0
  4  5  1  0
  5  6  2  0
  6  7  1  0
  7  8  2  0
  8  9  1  0
  9 10  2  0
 10 11  1  0
 11 12  2  0
 12 13  1  0
 13 14  2  0
 13 15  1  0
 12 16  1  0
 11 17  1  0
 10 18  1  0
  8 19  1  0
  6 20  1  0
  4 21  1  0
 21 22  2  0
 21 23  1  0
 23 24  1  1
 24 25  1  0
 25 26  1  0
 26 27  1  0
 27 28  1  0
 28 29  2  0
 29 30  1  0
 30 31  1  0
 29 32  1  0
 28 33  1  0
 26 34  1  0
 26 35  1  0
 25 36  1  0
 36 37  2  0
 36 38  1  0
 38 39  2  0
 39 40  1  0
 40 41  2  0
 41 42  1  0
 41 43  1  0
 43 44  2  0
 43 45  1  0
 40 46  1  0
 39 47  1  0
 24 48  1  0
 24 49  1  0
  3 50  1  0
  3 51  1  0
  2 52  1  6
  1 53  1  0
  1 54  1  0
  1 55  1  0
 23  2  1  0
 31 27  2  0
 44 38  1  0
 14  5  1  0
 44 23  1  0
 14  9  1  0
M  END
>  <cnnaffinities>  (75) 
[6.27074, 6.10521, 6.27599]

>  <score>  (75) 
6.27074

>  <index>  (75) 
74

>  <Smiles>  (75) 
C([C@]1(C(N(c2c(nc(c3c(c(c(c(c23)[H])[H])[H])[H])[H])[H])C(=O)[C@]21C(N(C(c1c(c(on1)[H])[H])([H])[H])C(=O)c1c(c(c(F)c(c21)[H])[H])[H])([H])[H])([H])[H])[H])([H])([H])[H]

>  <h>  (75) 
<NA>

>  <Training>  (75) 
True

>  <Success>  (75) 
True

>  <enamine_searched>  (75) 
False

>  <enamine_id>  (75) 
nan

$$$$

     RDKit          3D

 70 75  0  0  0  0  0  0  0  0999 V2000
    6.8644    8.1930   31.6423 C   0  0  0  0  0  0  0  0  0  0  0  0
    6.3337    7.0663   30.9825 O   0  0  0  0  0  0  0  0  0  0  0  0
    7.1663    6.0422   30.6591 C   0  0  0  0  0  0  0  0  0  0  0  0
    8.5246    6.0040   30.9601 C   0  0  0  0  0  0  0  0  0  0  0  0
    9.2577    4.8833   30.5714 C   0  0  0  0  0  0  0  0  0  0  0  0
    8.6514    3.8318   29.8970 C   0  0  0  0  0  0  0  0  0  0  0  0
    7.2872    3.8703   29.5825 C   0  0  0  0  0  0  0  0  0  0  0  0
    6.6463    2.7310   28.8103 C   0  0  0  0  0  0  0  0  0  0  0  0
    6.7601    2.8907   27.3614 N   0  0  0  0  0  0  0  0  0  0  0  0
    6.3205    1.8817   26.5597 C   0  0  0  0  0  0  0  0  0  0  0  0
    5.7084    0.9212   26.9971 O   0  0  0  0  0  0  0  0  0  0  0  0
    6.5883    2.0616   25.0597 C   0  0  0  0  0  0  0  0  0  0  0  0
    7.6901    1.2729   24.5611 N   0  0  0  0  0  0  0  0  0  0  0  0
    7.5034   -0.0886   24.1033 C   0  0  0  0  0  0  0  0  0  0  0  0
    8.2766   -0.3653   22.7873 C   0  0  2  0  0  0  0  0  0  0  0  0
    7.6523    0.4695   21.6486 C   0  0  0  0  0  0  0  0  0  0  0  0
    7.7582    1.6653   21.4854 O   0  0  0  0  0  0  0  0  0  0  0  0
    6.9506   -0.3745   20.8250 N   0  0  0  0  0  0  0  0  0  0  0  0
    6.1467    0.1169   19.7713 C   0  0  0  0  0  0  0  0  0  0  0  0
    6.4453   -0.2238   18.4761 C   0  0  0  0  0  0  0  0  0  0  0  0
    5.7646    0.2197   17.3952 N   0  0  0  0  0  0  0  0  0  0  0  0
    4.7466    1.0170   17.6047 C   0  0  0  0  0  0  0  0  0  0  0  0
    4.2971    1.4108   18.8966 C   0  0  0  0  0  0  0  0  0  0  0  0
    3.1639    2.2503   19.0683 C   0  0  0  0  0  0  0  0  0  0  0  0
    2.7375    2.6035   20.3178 C   0  0  0  0  0  0  0  0  0  0  0  0
    3.4161    2.1119   21.4589 C   0  0  0  0  0  0  0  0  0  0  0  0
    4.5112    1.2971   21.3179 C   0  0  0  0  0  0  0  0  0  0  0  0
    5.0020    0.9421   20.0263 C   0  0  0  0  0  0  0  0  0  0  0  0
    5.0213    0.9234   22.2019 H   0  0  0  0  0  0  0  0  0  0  0  0
    3.0717    2.3935   22.4484 H   0  0  0  0  0  0  0  0  0  0  0  0
    1.8867    3.2674   20.4397 H   0  0  0  0  0  0  0  0  0  0  0  0
    2.6541    2.6099   18.1780 H   0  0  0  0  0  0  0  0  0  0  0  0
    4.2204    1.3840   16.7242 H   0  0  0  0  0  0  0  0  0  0  0  0
    7.2905   -0.8785   18.2680 H   0  0  0  0  0  0  0  0  0  0  0  0
    6.9540   -1.7586   21.2541 C   0  0  0  0  0  0  0  0  0  0  0  0
    8.0905   -1.8291   22.2926 C   0  0  2  0  0  0  0  0  0  0  0  0
    7.8510   -2.8995   23.3651 C   0  0  0  0  0  0  0  0  0  0  0  0
    7.7972   -3.9001   22.9185 H   0  0  0  0  0  0  0  0  0  0  0  0
    6.9012   -2.7209   23.8835 H   0  0  0  0  0  0  0  0  0  0  0  0
    8.6454   -2.9159   24.1224 H   0  0  0  0  0  0  0  0  0  0  0  0
    9.0118   -2.0816   21.7681 H   0  0  0  0  0  0  0  0  0  0  0  0
    5.9924   -2.0326   21.7108 H   0  0  0  0  0  0  0  0  0  0  0  0
    7.1121   -2.4111   20.3931 H   0  0  0  0  0  0  0  0  0  0  0  0
    9.7082    0.0845   22.9685 C   0  0  0  0  0  0  0  0  0  0  0  0
   10.7139   -0.3665   22.0994 C   0  0  0  0  0  0  0  0  0  0  0  0
   12.0130    0.0711   22.2855 C   0  0  0  0  0  0  0  0  0  0  0  0
   13.2631   -0.4213   21.1811 Cl  0  0  0  0  0  0  0  0  0  0  0  0
   12.3447    0.9566   23.3133 C   0  0  0  0  0  0  0  0  0  0  0  0
   11.3279    1.4835   24.0832 C   0  0  0  0  0  0  0  0  0  0  0  0
   10.0102    1.0912   23.8911 C   0  0  0  0  0  0  0  0  0  0  0  0
    8.9148    1.8628   24.5658 C   0  0  0  0  0  0  0  0  0  0  0  0
    9.0802    2.9775   25.0623 O   0  0  0  0  0  0  0  0  0  0  0  0
   11.4979    2.2452   24.8231 H   0  0  0  0  0  0  0  0  0  0  0  0
   13.3755    1.2676   23.4563 H   0  0  0  0  0  0  0  0  0  0  0  0
   10.4904   -1.0087   21.2495 H   0  0  0  0  0  0  0  0  0  0  0  0
    6.4325   -0.2544   23.9476 H   0  0  0  0  0  0  0  0  0  0  0  0
    7.8542   -0.7723   24.8868 H   0  0  0  0  0  0  0  0  0  0  0  0
    6.8112    3.1044   24.8202 H   0  0  0  0  0  0  0  0  0  0  0  0
    5.6812    1.7608   24.5306 H   0  0  0  0  0  0  0  0  0  0  0  0
    7.3724    3.5940   26.9660 H   0  0  0  0  0  0  0  0  0  0  0  0
    7.1078    1.7751   29.0938 H   0  0  0  0  0  0  0  0  0  0  0  0
    5.5829    2.6354   29.0660 H   0  0  0  0  0  0  0  0  0  0  0  0
    6.5535    4.9808   29.9811 C   0  0  0  0  0  0  0  0  0  0  0  0
    5.4841    5.0574   29.7946 H   0  0  0  0  0  0  0  0  0  0  0  0
    9.2357    2.9624   29.6178 H   0  0  0  0  0  0  0  0  0  0  0  0
   10.3197    4.8384   30.8024 H   0  0  0  0  0  0  0  0  0  0  0  0
    9.0132    6.8235   31.4800 H   0  0  0  0  0  0  0  0  0  0  0  0
    6.0104    8.8618   31.7723 H   0  0  0  0  0  0  0  0  0  0  0  0
    7.2863    7.9288   32.6219 H   0  0  0  0  0  0  0  0  0  0  0  0
    7.6404    8.6893   31.0426 H   0  0  0  0  0  0  0  0  0  0  0  0
  1  2  1  0
  2  3  1  0
  3  4  2  0
  4  5  1  0
  5  6  2  0
  6  7  1  0
  7  8  1  0
  8  9  1  0
  9 10  1  0
 10 11  2  0
 10 12  1  0
 12 13  1  0
 13 14  1  0
 15 14  1  1
 15 16  1  0
 16 17  2  0
 16 18  1  0
 18 19  1  0
 19 20  2  0
 20 21  1  0
 21 22  2  0
 22 23  1  0
 23 24  2  0
 24 25  1  0
 25 26  2  0
 26 27  1  0
 27 28  2  0
 27 29  1  0
 26 30  1  0
 25 31  1  0
 24 32  1  0
 22 33  1  0
 20 34  1  0
 18 35  1  0
 35 36  1  0
 36 37  1  0
 37 38  1  0
 37 39  1  0
 37 40  1  0
 36 41  1  6
 35 42  1  0
 35 43  1  0
 15 44  1  0
 44 45  2  0
 45 46  1  0
 46 47  1  0
 46 48  2  0
 48 49  1  0
 49 50  2  0
 50 51  1  0
 51 52  2  0
 49 53  1  0
 48 54  1  0
 45 55  1  0
 14 56  1  0
 14 57  1  0
 12 58  1  0
 12 59  1  0
  9 60  1  0
  8 61  1  0
  8 62  1  0
  7 63  2  0
 63 64  1  0
  6 65  1  0
  5 66  1  0
  4 67  1  0
  1 68  1  0
  1 69  1  0
  1 70  1  0
 63  3  1  0
 51 13  1  0
 36 15  1  0
 50 44  1  0
 28 19  1  0
 28 23  1  0
M  END
>  <cnnaffinities>  (76) 
[6.59895]

>  <score>  (76) 
6.59895

>  <index>  (76) 
75

>  <Smiles>  (76) 
C(Oc1c(c(c(c(C(N(C(=O)C(N2C([C@@]3(C(=O)N(c4c(nc(c5c(c(c(c(c45)[H])[H])[H])[H])[H])[H])C([C@@]3(C([H])([H])[H])[H])([H])[H])c3c(c(Cl)c(c(c3C2=O)[H])[H])[H])([H])[H])([H])[H])[H])([H])[H])c1[H])[H])[H])[H])([H])([H])[H]

>  <h>  (76) 
<NA>

>  <Training>  (76) 
True

>  <Success>  (76) 
True

>  <enamine_searched>  (76) 
False

>  <enamine_id>  (76) 
nan

$$$$

     RDKit          3D

 61 65  0  0  0  0  0  0  0  0999 V2000
    7.4786   -2.5266   23.7804 C   0  0  0  0  0  0  0  0  0  0  0  0
    7.8741   -1.7498   22.5162 C   0  0  1  0  0  0  0  0  0  0  0  0
    6.6986   -1.6210   21.5217 C   0  0  0  0  0  0  0  0  0  0  0  0
    6.9605   -0.3708   20.8325 N   0  0  0  0  0  0  0  0  0  0  0  0
    6.1530    0.1204   19.7658 C   0  0  0  0  0  0  0  0  0  0  0  0
    6.4489   -0.2143   18.4699 C   0  0  0  0  0  0  0  0  0  0  0  0
    5.7573    0.2224   17.3916 N   0  0  0  0  0  0  0  0  0  0  0  0
    4.7406    1.0224   17.5971 C   0  0  0  0  0  0  0  0  0  0  0  0
    4.2991    1.4245   18.8898 C   0  0  0  0  0  0  0  0  0  0  0  0
    3.1750    2.2781   19.0691 C   0  0  0  0  0  0  0  0  0  0  0  0
    2.7750    2.6479   20.3249 C   0  0  0  0  0  0  0  0  0  0  0  0
    3.4643    2.1618   21.4564 C   0  0  0  0  0  0  0  0  0  0  0  0
    4.5468    1.3267   21.3081 C   0  0  0  0  0  0  0  0  0  0  0  0
    5.0134    0.9539   20.0137 C   0  0  0  0  0  0  0  0  0  0  0  0
    5.0587    0.9460   22.1864 H   0  0  0  0  0  0  0  0  0  0  0  0
    3.1411    2.4564   22.4513 H   0  0  0  0  0  0  0  0  0  0  0  0
    1.9310    3.3213   20.4503 H   0  0  0  0  0  0  0  0  0  0  0  0
    2.6567    2.6382   18.1861 H   0  0  0  0  0  0  0  0  0  0  0  0
    4.2160    1.3871   16.7142 H   0  0  0  0  0  0  0  0  0  0  0  0
    7.2901   -0.8687   18.2471 H   0  0  0  0  0  0  0  0  0  0  0  0
    7.8680    0.4432   21.4686 C   0  0  0  0  0  0  0  0  0  0  0  0
    8.1586    1.5652   21.1032 O   0  0  0  0  0  0  0  0  0  0  0  0
    8.4247   -0.2988   22.7126 C   0  0  1  0  0  0  0  0  0  0  0  0
    7.8793    0.3598   24.0027 C   0  0  0  0  0  0  0  0  0  0  0  0
    8.4365    1.6783   24.2316 N   0  0  0  0  0  0  0  0  0  0  0  0
    7.5482    2.7211   24.7290 C   0  0  0  0  0  0  0  0  0  0  0  0
    6.8887    3.5284   23.6133 C   0  0  0  0  0  0  0  0  0  0  0  0
    7.8608    4.3487   22.8272 N   0  0  0  0  0  4  0  0  0  0  0  0
    8.3698    5.5265   23.5833 C   0  0  0  0  0  0  0  0  0  0  0  0
    8.9491    5.2047   24.4469 H   0  0  0  0  0  0  0  0  0  0  0  0
    7.5239    6.1475   23.9055 H   0  0  0  0  0  0  0  0  0  0  0  0
    9.0063    6.1260   22.9263 H   0  0  0  0  0  0  0  0  0  0  0  0
    7.2092    4.8332   21.5814 C   0  0  0  0  0  0  0  0  0  0  0  0
    6.9416    3.9697   20.9696 H   0  0  0  0  0  0  0  0  0  0  0  0
    7.8943    5.4968   21.0558 H   0  0  0  0  0  0  0  0  0  0  0  0
    6.3094    5.4173   21.8190 H   0  0  0  0  0  0  0  0  0  0  0  0
    8.6457    3.7316   22.5645 H   0  0  0  0  0  0  0  0  0  0  0  0
    6.1321    4.2057   24.0289 H   0  0  0  0  0  0  0  0  0  0  0  0
    6.3858    2.8540   22.9105 H   0  0  0  0  0  0  0  0  0  0  0  0
    6.7627    2.2439   25.3255 H   0  0  0  0  0  0  0  0  0  0  0  0
    8.1298    3.3706   25.3872 H   0  0  0  0  0  0  0  0  0  0  0  0
    9.7490    1.9584   24.0279 C   0  0  0  0  0  0  0  0  0  0  0  0
   10.2145    3.0735   24.2548 O   0  0  0  0  0  0  0  0  0  0  0  0
   10.5754    0.8567   23.4201 C   0  0  0  0  0  0  0  0  0  0  0  0
   11.9683    0.9366   23.4390 C   0  0  0  0  0  0  0  0  0  0  0  0
   12.7353    0.1043   22.6413 C   0  0  0  0  0  0  0  0  0  0  0  0
   12.0731   -0.7932   21.7987 C   0  0  0  0  0  0  0  0  0  0  0  0
   12.9156   -1.6852   20.5614 Cl  0  0  0  0  0  0  0  0  0  0  0  0
   10.7036   -0.9492   21.8499 C   0  0  0  0  0  0  0  0  0  0  0  0
    9.9357   -0.1759   22.7223 C   0  0  0  0  0  0  0  0  0  0  0  0
   10.2576   -1.6332   21.1369 H   0  0  0  0  0  0  0  0  0  0  0  0
   13.8163    0.1928   22.6141 H   0  0  0  0  0  0  0  0  0  0  0  0
   12.4270    1.7132   24.0412 H   0  0  0  0  0  0  0  0  0  0  0  0
    6.7959    0.4722   23.9045 H   0  0  0  0  0  0  0  0  0  0  0  0
    8.0924   -0.3023   24.8559 H   0  0  0  0  0  0  0  0  0  0  0  0
    6.6523   -2.4517   20.8084 H   0  0  0  0  0  0  0  0  0  0  0  0
    5.7329   -1.6020   22.0547 H   0  0  0  0  0  0  0  0  0  0  0  0
    8.6681   -2.3115   22.0180 H   0  0  0  0  0  0  0  0  0  0  0  0
    6.6345   -2.0493   24.2955 H   0  0  0  0  0  0  0  0  0  0  0  0
    7.1697   -3.5496   23.5298 H   0  0  0  0  0  0  0  0  0  0  0  0
    8.3067   -2.5976   24.4960 H   0  0  0  0  0  0  0  0  0  0  0  0
  1  2  1  0
  2  3  1  0
  3  4  1  0
  4  5  1  0
  5  6  2  0
  6  7  1  0
  7  8  2  0
  8  9  1  0
  9 10  2  0
 10 11  1  0
 11 12  2  0
 12 13  1  0
 13 14  2  0
 13 15  1  0
 12 16  1  0
 11 17  1  0
 10 18  1  0
  8 19  1  0
  6 20  1  0
  4 21  1  0
 21 22  2  0
 21 23  1  0
 23 24  1  1
 24 25  1  0
 25 26  1  0
 26 27  1  0
 27 28  1  0
 28 29  1  0
 29 30  1  0
 29 31  1  0
 29 32  1  0
 28 33  1  0
 33 34  1  0
 33 35  1  0
 33 36  1  0
 28 37  1  0
 27 38  1  0
 27 39  1  0
 26 40  1  0
 26 41  1  0
 25 42  1  0
 42 43  2  0
 42 44  1  0
 44 45  2  0
 45 46  1  0
 46 47  2  0
 47 48  1  0
 47 49  1  0
 49 50  2  0
 49 51  1  0
 46 52  1  0
 45 53  1  0
 24 54  1  0
 24 55  1  0
  3 56  1  0
  3 57  1  0
  2 58  1  6
  1 59  1  0
  1 60  1  0
  1 61  1  0
 23  2  1  0
 50 44  1  0
 14  5  1  0
 50 23  1  0
 14  9  1  0
M  CHG  1  28   1
M  END
>  <cnnaffinities>  (77) 
[6.42875]

>  <score>  (77) 
6.42875

>  <index>  (77) 
76

>  <Smiles>  (77) 
C([C@]1(C(N(c2c(nc(c3c(c(c(c(c23)[H])[H])[H])[H])[H])[H])C(=O)[C@]21C(N(C(C([N+](C([H])([H])[H])(C([H])([H])[H])[H])([H])[H])([H])[H])C(=O)c1c(c(c(Cl)c(c21)[H])[H])[H])([H])[H])([H])[H])[H])([H])([H])[H]

>  <h>  (77) 
<NA>

>  <Training>  (77) 
True

>  <Success>  (77) 
True

>  <enamine_searched>  (77) 
False

>  <enamine_id>  (77) 
nan

$$$$

     RDKit          3D

 57 60  0  0  0  0  0  0  0  0999 V2000
    3.1197   -6.1596   26.7851 C   0  0  0  0  0  0  0  0  0  0  0  0
    3.6755   -6.4100   25.3696 C   0  0  0  0  0  0  0  0  0  0  0  0
    2.5132   -6.8277   24.4370 C   0  0  0  0  0  0  0  0  0  0  0  0
    2.8825   -7.0918   23.4395 H   0  0  0  0  0  0  0  0  0  0  0  0
    1.9776   -7.6878   24.8542 H   0  0  0  0  0  0  0  0  0  0  0  0
    1.8103   -5.9952   24.3355 H   0  0  0  0  0  0  0  0  0  0  0  0
    4.5872   -7.5762   25.4660 C   0  0  0  0  0  0  0  0  0  0  0  0
    5.2161   -8.5445   25.5403 N   0  0  0  0  0  0  0  0  0  0  0  0
    4.4374   -5.2135   24.7776 C   0  0  0  0  0  0  0  0  0  0  0  0
    5.2290   -5.3921   23.6398 C   0  0  0  0  0  0  0  0  0  0  0  0
    5.8791   -4.3241   23.0331 C   0  0  0  0  0  0  0  0  0  0  0  0
    5.7532   -3.0383   23.5583 C   0  0  0  0  0  0  0  0  0  0  0  0
    6.4212   -1.9219   22.9559 N   0  0  0  0  0  0  0  0  0  0  0  0
    7.4169   -1.2048   23.7495 C   0  0  0  0  0  0  0  0  0  0  0  0
    8.8393   -1.4576   23.2938 C   0  0  0  0  0  0  0  0  0  0  0  0
    9.3225   -2.7621   23.2888 C   0  0  0  0  0  0  0  0  0  0  0  0
   10.6213   -3.0163   22.8803 C   0  0  0  0  0  0  0  0  0  0  0  0
   11.4532   -2.0008   22.4234 C   0  0  0  0  0  0  0  0  0  0  0  0
   10.9815   -0.6955   22.4678 C   0  0  0  0  0  0  0  0  0  0  0  0
   12.0390    0.6241   22.0253 Cl  0  0  0  0  0  0  0  0  0  0  0  0
    9.6873   -0.4188   22.9018 C   0  0  0  0  0  0  0  0  0  0  0  0
    9.3574    0.6170   22.9255 H   0  0  0  0  0  0  0  0  0  0  0  0
   12.4517   -2.2167   22.0608 H   0  0  0  0  0  0  0  0  0  0  0  0
   10.9844   -4.0231   22.9757 H   0  0  0  0  0  0  0  0  0  0  0  0
    8.6869   -3.5840   23.6146 H   0  0  0  0  0  0  0  0  0  0  0  0
    7.2897   -1.5855   24.7692 H   0  0  0  0  0  0  0  0  0  0  0  0
    7.2335   -0.1217   23.7523 H   0  0  0  0  0  0  0  0  0  0  0  0
    6.1473   -1.6579   21.6243 C   0  0  0  0  0  0  0  0  0  0  0  0
    5.3458   -2.3368   21.0052 O   0  0  0  0  0  0  0  0  0  0  0  0
    6.8887   -0.4968   20.9314 C   0  0  0  0  0  0  0  0  0  0  0  0
    6.1044    0.0832   19.7842 C   0  0  0  0  0  0  0  0  0  0  0  0
    6.4200   -0.2197   18.4855 C   0  0  0  0  0  0  0  0  0  0  0  0
    5.7606    0.2369   17.3893 N   0  0  0  0  0  0  0  0  0  0  0  0
    4.7377    1.0280   17.5879 C   0  0  0  0  0  0  0  0  0  0  0  0
    4.2803    1.4155   18.8760 C   0  0  0  0  0  0  0  0  0  0  0  0
    3.1555    2.2587   19.0522 C   0  0  0  0  0  0  0  0  0  0  0  0
    2.7431    2.6194   20.3047 C   0  0  0  0  0  0  0  0  0  0  0  0
    3.4366    2.1397   21.4394 C   0  0  0  0  0  0  0  0  0  0  0  0
    4.5249    1.3178   21.2937 C   0  0  0  0  0  0  0  0  0  0  0  0
    4.9803    0.9326   20.0067 C   0  0  0  0  0  0  0  0  0  0  0  0
    5.0458    0.9496   22.1720 H   0  0  0  0  0  0  0  0  0  0  0  0
    3.1090    2.4251   22.4334 H   0  0  0  0  0  0  0  0  0  0  0  0
    1.8916    3.2799   20.4315 H   0  0  0  0  0  0  0  0  0  0  0  0
    2.6437    2.6170   18.1627 H   0  0  0  0  0  0  0  0  0  0  0  0
    4.2146    1.3958   16.7032 H   0  0  0  0  0  0  0  0  0  0  0  0
    7.2634   -0.8690   18.2524 H   0  0  0  0  0  0  0  0  0  0  0  0
    7.1699    0.2809   21.6509 H   0  0  0  0  0  0  0  0  0  0  0  0
    7.8315   -0.9057   20.5446 H   0  0  0  0  0  0  0  0  0  0  0  0
    4.9797   -2.8532   24.7036 C   0  0  0  0  0  0  0  0  0  0  0  0
    4.3179   -3.9251   25.2943 C   0  0  0  0  0  0  0  0  0  0  0  0
    3.7246   -3.7532   26.1865 H   0  0  0  0  0  0  0  0  0  0  0  0
    4.9007   -1.8560   25.1288 H   0  0  0  0  0  0  0  0  0  0  0  0
    6.4775   -4.4992   22.1445 H   0  0  0  0  0  0  0  0  0  0  0  0
    5.3297   -6.3896   23.2193 H   0  0  0  0  0  0  0  0  0  0  0  0
    2.3216   -5.4093   26.7576 H   0  0  0  0  0  0  0  0  0  0  0  0
    2.6956   -7.0915   27.1733 H   0  0  0  0  0  0  0  0  0  0  0  0
    3.9030   -5.8242   27.4747 H   0  0  0  0  0  0  0  0  0  0  0  0
  1  2  1  0
  2  3  1  0
  3  4  1  0
  3  5  1  0
  3  6  1  0
  2  7  1  0
  7  8  3  0
  2  9  1  0
  9 10  2  0
 10 11  1  0
 11 12  2  0
 12 13  1  0
 13 14  1  0
 14 15  1  0
 15 16  2  0
 16 17  1  0
 17 18  2  0
 18 19  1  0
 19 20  1  0
 19 21  2  0
 21 22  1  0
 18 23  1  0
 17 24  1  0
 16 25  1  0
 14 26  1  0
 14 27  1  0
 13 28  1  0
 28 29  2  0
 28 30  1  0
 30 31  1  0
 31 32  2  0
 32 33  1  0
 33 34  2  0
 34 35  1  0
 35 36  2  0
 36 37  1  0
 37 38  2  0
 38 39  1  0
 39 40  2  0
 39 41  1  0
 38 42  1  0
 37 43  1  0
 36 44  1  0
 34 45  1  0
 32 46  1  0
 30 47  1  0
 30 48  1  0
 12 49  1  0
 49 50  2  0
 50 51  1  0
 49 52  1  0
 11 53  1  0
 10 54  1  0
  1 55  1  0
  1 56  1  0
  1 57  1  0
 50  9  1  0
 21 15  1  0
 40 31  1  0
 40 35  1  0
M  END
>  <cnnaffinities>  (78) 
[6.8976, 6.9132, 6.92367, 6.89326, 6.81521, 6.89386, 6.87547, 6.47873, 6.89285]

>  <score>  (78) 
6.8976

>  <index>  (78) 
77

>  <Smiles>  (78) 
C(C(C([H])([H])[H])(C#N)c1c(c(c(N(C(c2c(c(c(c(Cl)c2[H])[H])[H])[H])([H])[H])C(=O)C(c2c(nc(c3c(c(c(c(c23)[H])[H])[H])[H])[H])[H])([H])[H])c(c1[H])[H])[H])[H])([H])([H])[H]

>  <h>  (78) 
<NA>

>  <Training>  (78) 
True

>  <Success>  (78) 
True

>  <enamine_searched>  (78) 
False

>  <enamine_id>  (78) 
nan

$$$$

     RDKit          3D

 40 42  0  0  0  0  0  0  0  0999 V2000
    9.7752   -3.8217   24.7473 C   0  0  0  0  0  0  0  0  0  0  0  0
    8.2687   -3.6011   24.8976 C   0  0  0  0  0  0  0  0  0  0  0  0
    7.9053   -2.1137   24.9617 C   0  0  0  0  0  0  0  0  0  0  0  0
    7.7147   -1.4596   23.5956 C   0  0  0  0  0  0  0  0  0  0  0  0
    6.7462   -2.1831   22.7774 N   0  0  0  0  0  0  0  0  0  0  0  0
    6.2060   -1.6864   21.6114 C   0  0  0  0  0  0  0  0  0  0  0  0
    5.2160   -2.1899   21.1064 O   0  0  0  0  0  0  0  0  0  0  0  0
    6.9167   -0.4921   20.9205 C   0  0  0  0  0  0  0  0  0  0  0  0
    6.1129    0.0849   19.7772 C   0  0  0  0  0  0  0  0  0  0  0  0
    6.4210   -0.2154   18.4764 C   0  0  0  0  0  0  0  0  0  0  0  0
    5.7562    0.2379   17.3806 N   0  0  0  0  0  0  0  0  0  0  0  0
    4.7355    1.0321   17.5814 C   0  0  0  0  0  0  0  0  0  0  0  0
    4.2841    1.4188   18.8707 C   0  0  0  0  0  0  0  0  0  0  0  0
    3.1606    2.2654   19.0496 C   0  0  0  0  0  0  0  0  0  0  0  0
    2.7470    2.6231   20.3031 C   0  0  0  0  0  0  0  0  0  0  0  0
    3.4380    2.1367   21.4342 C   0  0  0  0  0  0  0  0  0  0  0  0
    4.5270    1.3128   21.2884 C   0  0  0  0  0  0  0  0  0  0  0  0
    4.9871    0.9322   20.0017 C   0  0  0  0  0  0  0  0  0  0  0  0
    5.0423    0.9411   22.1676 H   0  0  0  0  0  0  0  0  0  0  0  0
    3.1035    2.4199   22.4273 H   0  0  0  0  0  0  0  0  0  0  0  0
    1.8910    3.2807   20.4359 H   0  0  0  0  0  0  0  0  0  0  0  0
    2.6418    2.6340   18.1676 H   0  0  0  0  0  0  0  0  0  0  0  0
    4.2035    1.3990   16.6995 H   0  0  0  0  0  0  0  0  0  0  0  0
    7.2639   -0.8668   18.2458 H   0  0  0  0  0  0  0  0  0  0  0  0
    7.8754   -0.8564   20.5196 H   0  0  0  0  0  0  0  0  0  0  0  0
    7.1752    0.3009   21.6358 H   0  0  0  0  0  0  0  0  0  0  0  0
    6.3038   -3.4921   23.2623 C   0  0  0  0  0  0  0  0  0  0  0  0
    7.4911   -4.3043   23.7688 C   0  0  0  0  0  0  0  0  0  0  0  0
    7.1518   -5.2866   24.1105 H   0  0  0  0  0  0  0  0  0  0  0  0
    8.1535   -4.4984   22.9193 H   0  0  0  0  0  0  0  0  0  0  0  0
    5.8078   -4.0055   22.4410 H   0  0  0  0  0  0  0  0  0  0  0  0
    5.5552   -3.3783   24.0571 H   0  0  0  0  0  0  0  0  0  0  0  0
    7.3686   -0.4349   23.7653 H   0  0  0  0  0  0  0  0  0  0  0  0
    8.6797   -1.3812   23.0792 H   0  0  0  0  0  0  0  0  0  0  0  0
    8.6904   -1.5704   25.4922 H   0  0  0  0  0  0  0  0  0  0  0  0
    7.0037   -1.9723   25.5668 H   0  0  0  0  0  0  0  0  0  0  0  0
    7.9733   -4.0483   25.8540 H   0  0  0  0  0  0  0  0  0  0  0  0
   10.1587   -3.3646   23.8271 H   0  0  0  0  0  0  0  0  0  0  0  0
   10.0065   -4.8886   24.7218 H   0  0  0  0  0  0  0  0  0  0  0  0
   10.3409   -3.3994   25.5831 H   0  0  0  0  0  0  0  0  0  0  0  0
  1  2  1  0
  2  3  1  0
  3  4  1  0
  4  5  1  0
  5  6  1  0
  6  7  2  0
  6  8  1  0
  8  9  1  0
  9 10  2  0
 10 11  1  0
 11 12  2  0
 12 13  1  0
 13 14  2  0
 14 15  1  0
 15 16  2  0
 16 17  1  0
 17 18  2  0
 17 19  1  0
 16 20  1  0
 15 21  1  0
 14 22  1  0
 12 23  1  0
 10 24  1  0
  8 25  1  0
  8 26  1  0
  5 27  1  0
 27 28  1  0
 28 29  1  0
 28 30  1  0
 27 31  1  0
 27 32  1  0
  4 33  1  0
  4 34  1  0
  3 35  1  0
  3 36  1  0
  2 37  1  0
  1 38  1  0
  1 39  1  0
  1 40  1  0
 28  2  1  0
 18  9  1  0
 18 13  1  0
M  END
>  <cnnaffinities>  (79) 
[4.95315, 4.68191, 4.68189, 5.17225, 5.17175, 5.28847, 5.28858]

>  <score>  (79) 
4.95315

>  <index>  (79) 
79

>  <Smiles>  (79) 
C(C1(C(C(N(C(=O)C(c2c(nc(c3c(c(c(c(c23)[H])[H])[H])[H])[H])[H])([H])[H])C(C1([H])[H])([H])[H])([H])[H])([H])[H])[H])([H])([H])[H]

>  <h>  (79) 
<NA>

>  <Training>  (79) 
True

>  <Success>  (79) 
True

>  <enamine_searched>  (79) 
False

>  <enamine_id>  (79) 
nan

$$$$

     RDKit          3D

 59 64  0  0  0  0  0  0  0  0999 V2000
    6.8402   -2.2250   23.6742 C   0  0  0  0  0  0  0  0  0  0  0  0
    7.7658   -1.8491   22.5069 C   0  0  1  0  0  0  0  0  0  0  0  0
    6.9618   -1.7872   21.1915 C   0  0  0  0  0  0  0  0  0  0  0  0
    6.8703   -0.3826   20.8896 N   0  0  0  0  0  0  0  0  0  0  0  0
    6.1173    0.1054   19.7937 C   0  0  0  0  0  0  0  0  0  0  0  0
    6.4383   -0.2318   18.5017 C   0  0  0  0  0  0  0  0  0  0  0  0
    5.7768    0.2223   17.4111 N   0  0  0  0  0  0  0  0  0  0  0  0
    4.7547    1.0198   17.6023 C   0  0  0  0  0  0  0  0  0  0  0  0
    4.2891    1.4100   18.8927 C   0  0  0  0  0  0  0  0  0  0  0  0
    3.1560    2.2492   19.0636 C   0  0  0  0  0  0  0  0  0  0  0  0
    2.7288    2.5903   20.3166 C   0  0  0  0  0  0  0  0  0  0  0  0
    3.3963    2.0925   21.4566 C   0  0  0  0  0  0  0  0  0  0  0  0
    4.4931    1.2799   21.3202 C   0  0  0  0  0  0  0  0  0  0  0  0
    4.9781    0.9353   20.0278 C   0  0  0  0  0  0  0  0  0  0  0  0
    4.9999    0.8888   22.1972 H   0  0  0  0  0  0  0  0  0  0  0  0
    3.0455    2.3712   22.4480 H   0  0  0  0  0  0  0  0  0  0  0  0
    1.8743    3.2488   20.4460 H   0  0  0  0  0  0  0  0  0  0  0  0
    2.6416    2.6099   18.1778 H   0  0  0  0  0  0  0  0  0  0  0  0
    4.2263    1.3853   16.7205 H   0  0  0  0  0  0  0  0  0  0  0  0
    7.2917   -0.8811   18.2991 H   0  0  0  0  0  0  0  0  0  0  0  0
    7.8011    0.3894   21.5413 C   0  0  0  0  0  0  0  0  0  0  0  0
    8.0171    1.5536   21.2934 O   0  0  0  0  0  0  0  0  0  0  0  0
    8.5120   -0.4756   22.6071 C   0  0  1  0  0  0  0  0  0  0  0  0
    8.3899    0.1573   24.0116 C   0  0  0  0  0  0  0  0  0  0  0  0
    9.1881    1.3607   24.1674 N   0  0  0  0  0  0  0  0  0  0  0  0
    8.5825    2.5126   24.8249 C   0  0  0  0  0  0  0  0  0  0  0  0
    7.6721    3.3049   23.9337 C   0  0  0  0  0  0  0  0  0  0  0  0
    6.2972    3.2953   23.8006 C   0  0  0  0  0  0  0  0  0  0  0  0
    6.0322    4.2338   22.7861 C   0  0  0  0  0  0  0  0  0  0  0  0
    7.1443    4.7962   22.3407 N   0  0  0  0  0  0  0  0  0  0  0  0
    8.1302    4.2240   23.0457 N   0  0  0  0  0  0  0  0  0  0  0  0
    9.4969    4.5838   22.7406 C   0  0  0  0  0  0  0  0  0  0  0  0
    9.9885    3.7972   22.1631 H   0  0  0  0  0  0  0  0  0  0  0  0
   10.0665    4.7766   23.6515 H   0  0  0  0  0  0  0  0  0  0  0  0
    9.4615    5.4917   22.1416 H   0  0  0  0  0  0  0  0  0  0  0  0
    5.0925    4.5112   22.3279 H   0  0  0  0  0  0  0  0  0  0  0  0
    5.6063    2.6811   24.3686 H   0  0  0  0  0  0  0  0  0  0  0  0
    9.4010    3.1353   25.1906 H   0  0  0  0  0  0  0  0  0  0  0  0
    8.0110    2.1591   25.6904 H   0  0  0  0  0  0  0  0  0  0  0  0
   10.4984    1.4079   23.7894 C   0  0  0  0  0  0  0  0  0  0  0  0
   11.2801    2.2754   24.1707 O   0  0  0  0  0  0  0  0  0  0  0  0
   10.9237    0.3390   22.8369 C   0  0  0  0  0  0  0  0  0  0  0  0
   12.2728    0.3196   22.4875 C   0  0  0  0  0  0  0  0  0  0  0  0
   12.7548   -0.6182   21.5965 C   0  0  0  0  0  0  0  0  0  0  0  0
   11.8429   -1.5301   21.0768 C   0  0  0  0  0  0  0  0  0  0  0  0
   12.2837   -2.4935   20.2493 F   0  0  0  0  0  0  0  0  0  0  0  0
   10.4866   -1.4782   21.3491 C   0  0  0  0  0  0  0  0  0  0  0  0
   10.0044   -0.5600   22.2855 C   0  0  0  0  0  0  0  0  0  0  0  0
    9.8345   -2.1453   20.7939 H   0  0  0  0  0  0  0  0  0  0  0  0
   13.7979   -0.6357   21.2891 H   0  0  0  0  0  0  0  0  0  0  0  0
   12.9082    1.0701   22.9420 H   0  0  0  0  0  0  0  0  0  0  0  0
    8.7144   -0.5966   24.7402 H   0  0  0  0  0  0  0  0  0  0  0  0
    7.3517    0.4167   24.2206 H   0  0  0  0  0  0  0  0  0  0  0  0
    5.9588   -2.2154   21.2890 H   0  0  0  0  0  0  0  0  0  0  0  0
    7.4691   -2.3164   20.3849 H   0  0  0  0  0  0  0  0  0  0  0  0
    8.5156   -2.6444   22.4566 H   0  0  0  0  0  0  0  0  0  0  0  0
    6.3726   -3.1957   23.4773 H   0  0  0  0  0  0  0  0  0  0  0  0
    6.0336   -1.4968   23.8145 H   0  0  0  0  0  0  0  0  0  0  0  0
    7.3842   -2.3239   24.6177 H   0  0  0  0  0  0  0  0  0  0  0  0
  1  2  1  0
  2  3  1  0
  3  4  1  0
  4  5  1  0
  5  6  2  0
  6  7  1  0
  7  8  2  0
  8  9  1  0
  9 10  2  0
 10 11  1  0
 11 12  2  0
 12 13  1  0
 13 14  2  0
 13 15  1  0
 12 16  1  0
 11 17  1  0
 10 18  1  0
  8 19  1  0
  6 20  1  0
  4 21  1  0
 21 22  2  0
 21 23  1  0
 23 24  1  1
 24 25  1  0
 25 26  1  0
 26 27  1  0
 27 28  2  0
 28 29  1  0
 29 30  2  0
 30 31  1  0
 31 32  1  0
 32 33  1  0
 32 34  1  0
 32 35  1  0
 29 36  1  0
 28 37  1  0
 26 38  1  0
 26 39  1  0
 25 40  1  0
 40 41  2  0
 40 42  1  0
 42 43  2  0
 43 44  1  0
 44 45  2  0
 45 46  1  0
 45 47  1  0
 47 48  2  0
 47 49  1  0
 44 50  1  0
 43 51  1  0
 24 52  1  0
 24 53  1  0
  3 54  1  0
  3 55  1  0
  2 56  1  6
  1 57  1  0
  1 58  1  0
  1 59  1  0
 23  2  1  0
 31 27  1  0
 48 42  1  0
 14  5  1  0
 48 23  1  0
 14  9  1  0
M  END
>  <cnnaffinities>  (80) 
[6.66639, 6.47053, 6.91483]

>  <score>  (80) 
6.66639

>  <index>  (80) 
80

>  <Smiles>  (80) 
C([C@]1(C(N(c2c(nc(c3c(c(c(c(c23)[H])[H])[H])[H])[H])[H])C(=O)[C@]21C(N(C(c1c(c(nn1C([H])([H])[H])[H])[H])([H])[H])C(=O)c1c(c(c(F)c(c21)[H])[H])[H])([H])[H])([H])[H])[H])([H])([H])[H]

>  <h>  (80) 
<NA>

>  <Training>  (80) 
True

>  <Success>  (80) 
True

>  <enamine_searched>  (80) 
False

>  <enamine_id>  (80) 
nan

$$$$

     RDKit          3D

 58 63  0  0  0  0  0  0  0  0999 V2000
    5.4549    4.9489   21.4162 C   0  0  0  0  0  0  0  0  0  0  0  0
    6.4422    4.5440   22.4672 C   0  0  0  0  0  0  0  0  0  0  0  0
    6.3513    3.5872   23.3379 N   0  0  0  0  0  0  0  0  0  0  0  0
    7.5865    3.5786   23.9841 C   0  0  0  0  0  0  0  0  0  0  0  0
    7.9878    2.5338   24.9878 C   0  0  0  0  0  0  0  0  0  0  0  0
    8.7420    1.4255   24.4033 N   0  0  0  0  0  0  0  0  0  0  0  0
    8.0782    0.1555   24.1620 C   0  0  0  0  0  0  0  0  0  0  0  0
    8.3611   -0.4204   22.7485 C   0  0  2  0  0  0  0  0  0  0  0  0
    7.6855    0.4377   21.6380 C   0  0  0  0  0  0  0  0  0  0  0  0
    7.8528    1.6162   21.4249 O   0  0  0  0  0  0  0  0  0  0  0  0
    6.8791   -0.3827   20.8765 N   0  0  0  0  0  0  0  0  0  0  0  0
    6.1265    0.1072   19.7806 C   0  0  0  0  0  0  0  0  0  0  0  0
    6.4408   -0.2267   18.4862 C   0  0  0  0  0  0  0  0  0  0  0  0
    5.7688    0.2234   17.4004 N   0  0  0  0  0  0  0  0  0  0  0  0
    4.7479    1.0213   17.5997 C   0  0  0  0  0  0  0  0  0  0  0  0
    4.2889    1.4191   18.8867 C   0  0  0  0  0  0  0  0  0  0  0  0
    3.1556    2.2591   19.0659 C   0  0  0  0  0  0  0  0  0  0  0  0
    2.7293    2.6012   20.3204 C   0  0  0  0  0  0  0  0  0  0  0  0
    3.4129    2.1116   21.4551 C   0  0  0  0  0  0  0  0  0  0  0  0
    4.5112    1.3033   21.3081 C   0  0  0  0  0  0  0  0  0  0  0  0
    4.9917    0.9463   20.0176 C   0  0  0  0  0  0  0  0  0  0  0  0
    5.0223    0.9242   22.1860 H   0  0  0  0  0  0  0  0  0  0  0  0
    3.0802    2.3886   22.4523 H   0  0  0  0  0  0  0  0  0  0  0  0
    1.8714    3.2560   20.4456 H   0  0  0  0  0  0  0  0  0  0  0  0
    2.6448    2.6236   18.1799 H   0  0  0  0  0  0  0  0  0  0  0  0
    4.2259    1.3862   16.7159 H   0  0  0  0  0  0  0  0  0  0  0  0
    7.2880   -0.8745   18.2646 H   0  0  0  0  0  0  0  0  0  0  0  0
    7.0623   -1.7901   21.1447 C   0  0  0  0  0  0  0  0  0  0  0  0
    7.7403   -1.8426   22.5345 C   0  0  2  0  0  0  0  0  0  0  0  0
    6.7471   -2.3341   23.6016 C   0  0  0  0  0  0  0  0  0  0  0  0
    7.2148   -2.4124   24.5878 H   0  0  0  0  0  0  0  0  0  0  0  0
    5.8763   -1.6728   23.6824 H   0  0  0  0  0  0  0  0  0  0  0  0
    6.3837   -3.3341   23.3360 H   0  0  0  0  0  0  0  0  0  0  0  0
    8.5614   -2.5678   22.5198 H   0  0  0  0  0  0  0  0  0  0  0  0
    6.0921   -2.3019   21.1337 H   0  0  0  0  0  0  0  0  0  0  0  0
    7.7009   -2.2435   20.3816 H   0  0  0  0  0  0  0  0  0  0  0  0
    9.8735   -0.3814   22.5341 C   0  0  0  0  0  0  0  0  0  0  0  0
   10.4817   -1.2100   21.5824 C   0  0  0  0  0  0  0  0  0  0  0  0
   11.8444   -1.1099   21.3781 C   0  0  0  0  0  0  0  0  0  0  0  0
   12.4271   -1.8807   20.4445 F   0  0  0  0  0  0  0  0  0  0  0  0
   12.6367   -0.1815   22.0437 C   0  0  0  0  0  0  0  0  0  0  0  0
   12.0273    0.6778   22.9346 C   0  0  0  0  0  0  0  0  0  0  0  0
   10.6522    0.6014   23.1571 C   0  0  0  0  0  0  0  0  0  0  0  0
   10.0153    1.6756   23.9773 C   0  0  0  0  0  0  0  0  0  0  0  0
   10.5887    2.7353   24.2162 O   0  0  0  0  0  0  0  0  0  0  0  0
   12.5777    1.4578   23.4497 H   0  0  0  0  0  0  0  0  0  0  0  0
   13.6890   -0.1108   21.7972 H   0  0  0  0  0  0  0  0  0  0  0  0
    9.9154   -1.8783   20.9413 H   0  0  0  0  0  0  0  0  0  0  0  0
    7.0067    0.3358   24.2621 H   0  0  0  0  0  0  0  0  0  0  0  0
    8.3879   -0.5934   24.9077 H   0  0  0  0  0  0  0  0  0  0  0  0
    7.0875    2.1206   25.4520 H   0  0  0  0  0  0  0  0  0  0  0  0
    8.6012    2.9925   25.7691 H   0  0  0  0  0  0  0  0  0  0  0  0
    8.3289    4.5968   23.5038 C   0  0  0  0  0  0  0  0  0  0  0  0
    7.6156    5.2253   22.5290 O   0  0  0  0  0  0  0  0  0  0  0  0
    9.3166    4.9628   23.7414 H   0  0  0  0  0  0  0  0  0  0  0  0
    5.6687    5.9483   21.0323 H   0  0  0  0  0  0  0  0  0  0  0  0
    4.4541    4.9213   21.8463 H   0  0  0  0  0  0  0  0  0  0  0  0
    5.4641    4.2308   20.5896 H   0  0  0  0  0  0  0  0  0  0  0  0
  1  2  1  0
  2  3  2  0
  3  4  1  0
  4  5  1  0
  5  6  1  0
  6  7  1  0
  8  7  1  1
  8  9  1  0
  9 10  2  0
  9 11  1  0
 11 12  1  0
 12 13  2  0
 13 14  1  0
 14 15  2  0
 15 16  1  0
 16 17  2  0
 17 18  1  0
 18 19  2  0
 19 20  1  0
 20 21  2  0
 20 22  1  0
 19 23  1  0
 18 24  1  0
 17 25  1  0
 15 26  1  0
 13 27  1  0
 11 28  1  0
 28 29  1  0
 29 30  1  0
 30 31  1  0
 30 32  1  0
 30 33  1  0
 29 34  1  6
 28 35  1  0
 28 36  1  0
  8 37  1  0
 37 38  2  0
 38 39  1  0
 39 40  1  0
 39 41  2  0
 41 42  1  0
 42 43  2  0
 43 44  1  0
 44 45  2  0
 42 46  1  0
 41 47  1  0
 38 48  1  0
  7 49  1  0
  7 50  1  0
  5 51  1  0
  5 52  1  0
  4 53  2  0
 53 54  1  0
 53 55  1  0
  1 56  1  0
  1 57  1  0
  1 58  1  0
 54  2  1  0
 44  6  1  0
 29  8  1  0
 43 37  1  0
 21 12  1  0
 21 16  1  0
M  END
>  <cnnaffinities>  (81) 
[6.56957]

>  <score>  (81) 
6.56957

>  <index>  (81) 
81

>  <Smiles>  (81) 
C(c1nc(C(N2C([C@@]3(C(=O)N(c4c(nc(c5c(c(c(c(c45)[H])[H])[H])[H])[H])[H])C([C@@]3(C([H])([H])[H])[H])([H])[H])c3c(c(F)c(c(c3C2=O)[H])[H])[H])([H])[H])([H])[H])c(o1)[H])([H])([H])[H]

>  <h>  (81) 
<NA>

>  <Training>  (81) 
True

>  <Success>  (81) 
True

>  <enamine_searched>  (81) 
False

>  <enamine_id>  (81) 
nan

$$$$

     RDKit          3D

 55 60  0  0  0  0  0  0  0  0999 V2000
    7.0301   -2.4370   23.4851 C   0  0  0  0  0  0  0  0  0  0  0  0
    7.9316   -1.8340   22.4060 C   0  0  1  0  0  0  0  0  0  0  0  0
    7.2266   -1.7429   21.0389 C   0  0  0  0  0  0  0  0  0  0  0  0
    6.8936   -0.3448   20.8907 N   0  0  0  0  0  0  0  0  0  0  0  0
    6.1217    0.1174   19.8018 C   0  0  0  0  0  0  0  0  0  0  0  0
    6.4364   -0.2301   18.5115 C   0  0  0  0  0  0  0  0  0  0  0  0
    5.7766    0.2172   17.4162 N   0  0  0  0  0  0  0  0  0  0  0  0
    4.7529    1.0145   17.6066 C   0  0  0  0  0  0  0  0  0  0  0  0
    4.2856    1.4007   18.8960 C   0  0  0  0  0  0  0  0  0  0  0  0
    3.1558    2.2441   19.0627 C   0  0  0  0  0  0  0  0  0  0  0  0
    2.7309    2.5957   20.3132 C   0  0  0  0  0  0  0  0  0  0  0  0
    3.3934    2.1000   21.4570 C   0  0  0  0  0  0  0  0  0  0  0  0
    4.4797    1.2734   21.3276 C   0  0  0  0  0  0  0  0  0  0  0  0
    4.9712    0.9305   20.0364 C   0  0  0  0  0  0  0  0  0  0  0  0
    4.9671    0.8780   22.2127 H   0  0  0  0  0  0  0  0  0  0  0  0
    3.0477    2.3843   22.4475 H   0  0  0  0  0  0  0  0  0  0  0  0
    1.8806    3.2586   20.4370 H   0  0  0  0  0  0  0  0  0  0  0  0
    2.6461    2.6067   18.1748 H   0  0  0  0  0  0  0  0  0  0  0  0
    4.2258    1.3854   16.7255 H   0  0  0  0  0  0  0  0  0  0  0  0
    7.2913   -0.8790   18.3193 H   0  0  0  0  0  0  0  0  0  0  0  0
    7.6927    0.4795   21.6621 C   0  0  0  0  0  0  0  0  0  0  0  0
    7.7632    1.6810   21.5591 O   0  0  0  0  0  0  0  0  0  0  0  0
    8.4729   -0.3975   22.6709 C   0  0  1  0  0  0  0  0  0  0  0  0
    8.2144    0.0996   24.1141 C   0  0  0  0  0  0  0  0  0  0  0  0
    8.7785    1.4118   24.3522 N   0  0  0  0  0  0  0  0  0  0  0  0
    8.0038    2.3963   25.0732 C   0  0  0  0  0  0  0  0  0  0  0  0
    7.2922    3.3153   24.1315 C   0  0  0  0  0  0  0  0  0  0  0  0
    6.0434    3.2906   23.7964 N   0  0  0  0  0  0  0  0  0  0  0  0
    5.9274    4.3549   22.9115 C   0  0  0  0  0  0  0  0  0  0  0  0
    7.1216    4.9674   22.7707 C   0  0  0  0  0  0  0  0  0  0  0  0
    8.0127    4.2975   23.5560 O   0  0  0  0  0  0  0  0  0  0  0  0
    7.4784    5.8214   22.2165 H   0  0  0  0  0  0  0  0  0  0  0  0
    4.9904    4.5932   22.4409 H   0  0  0  0  0  0  0  0  0  0  0  0
    8.6848    2.9661   25.7059 H   0  0  0  0  0  0  0  0  0  0  0  0
    7.2641    1.8785   25.6892 H   0  0  0  0  0  0  0  0  0  0  0  0
   10.0096    1.7815   23.8874 C   0  0  0  0  0  0  0  0  0  0  0  0
   10.5248    2.8546   24.1596 O   0  0  0  0  0  0  0  0  0  0  0  0
   10.6918    0.7894   23.0002 C   0  0  0  0  0  0  0  0  0  0  0  0
   12.0490    0.9825   22.7312 C   0  0  0  0  0  0  0  0  0  0  0  0
   12.7376    0.0876   21.9278 C   0  0  0  0  0  0  0  0  0  0  0  0
   12.0228   -0.9896   21.4065 C   0  0  0  0  0  0  0  0  0  0  0  0
   12.6677   -1.8967   20.6485 F   0  0  0  0  0  0  0  0  0  0  0  0
   10.6560   -1.1273   21.5545 C   0  0  0  0  0  0  0  0  0  0  0  0
    9.9739   -0.2635   22.4201 C   0  0  0  0  0  0  0  0  0  0  0  0
   10.1547   -1.9211   21.0128 H   0  0  0  0  0  0  0  0  0  0  0  0
   13.7963    0.1891   21.7082 H   0  0  0  0  0  0  0  0  0  0  0  0
   12.5396    1.8499   23.1671 H   0  0  0  0  0  0  0  0  0  0  0  0
    8.6744   -0.6107   24.8085 H   0  0  0  0  0  0  0  0  0  0  0  0
    7.1414    0.1399   24.3199 H   0  0  0  0  0  0  0  0  0  0  0  0
    6.3188   -2.3508   20.9825 H   0  0  0  0  0  0  0  0  0  0  0  0
    7.9031   -2.0566   20.2371 H   0  0  0  0  0  0  0  0  0  0  0  0
    8.7775   -2.5212   22.3424 H   0  0  0  0  0  0  0  0  0  0  0  0
    6.7394   -3.4508   23.1952 H   0  0  0  0  0  0  0  0  0  0  0  0
    6.1174   -1.8551   23.6436 H   0  0  0  0  0  0  0  0  0  0  0  0
    7.5610   -2.5225   24.4376 H   0  0  0  0  0  0  0  0  0  0  0  0
  1  2  1  0
  2  3  1  0
  3  4  1  0
  4  5  1  0
  5  6  2  0
  6  7  1  0
  7  8  2  0
  8  9  1  0
  9 10  2  0
 10 11  1  0
 11 12  2  0
 12 13  1  0
 13 14  2  0
 13 15  1  0
 12 16  1  0
 11 17  1  0
 10 18  1  0
  8 19  1  0
  6 20  1  0
  4 21  1  0
 21 22  2  0
 21 23  1  0
 23 24  1  1
 24 25  1  0
 25 26  1  0
 26 27  1  0
 27 28  2  0
 28 29  1  0
 29 30  2  0
 30 31  1  0
 30 32  1  0
 29 33  1  0
 26 34  1  0
 26 35  1  0
 25 36  1  0
 36 37  2  0
 36 38  1  0
 38 39  2  0
 39 40  1  0
 40 41  2  0
 41 42  1  0
 41 43  1  0
 43 44  2  0
 43 45  1  0
 40 46  1  0
 39 47  1  0
 24 48  1  0
 24 49  1  0
  3 50  1  0
  3 51  1  0
  2 52  1  6
  1 53  1  0
  1 54  1  0
  1 55  1  0
 23  2  1  0
 31 27  1  0
 44 38  1  0
 14  5  1  0
 44 23  1  0
 14  9  1  0
M  END
>  <cnnaffinities>  (82) 
[6.32054, 6.35186, 6.15147]

>  <score>  (82) 
6.32054

>  <index>  (82) 
82

>  <Smiles>  (82) 
C([C@]1(C(N(c2c(nc(c3c(c(c(c(c23)[H])[H])[H])[H])[H])[H])C(=O)[C@]21C(N(C(c1nc(c(o1)[H])[H])([H])[H])C(=O)c1c(c(c(F)c(c21)[H])[H])[H])([H])[H])([H])[H])[H])([H])([H])[H]

>  <h>  (82) 
<NA>

>  <Training>  (82) 
True

>  <Success>  (82) 
True

>  <enamine_searched>  (82) 
False

>  <enamine_id>  (82) 
nan

$$$$

     RDKit          3D

 72 77  0  0  0  0  0  0  0  0999 V2000
    6.6581    4.7034   21.4016 C   0  0  0  0  0  0  0  0  0  0  0  0
    6.7162    5.4303   22.7369 C   0  0  2  0  0  0  0  0  0  0  0  0
    7.6083    6.6643   22.6250 C   0  0  0  0  0  0  0  0  0  0  0  0
    7.7489    7.3503   23.8485 O   0  0  0  0  0  0  0  0  0  0  0  0
    8.3478    6.5035   24.8018 C   0  0  0  0  0  0  0  0  0  0  0  0
    7.4657    5.3094   25.1441 C   0  0  1  0  0  0  0  0  0  0  0  0
    6.1934    5.7344   25.8677 C   0  0  0  0  0  0  0  0  0  0  0  0
    5.6450    4.8688   26.2515 H   0  0  0  0  0  0  0  0  0  0  0  0
    5.5339    6.3152   25.2157 H   0  0  0  0  0  0  0  0  0  0  0  0
    6.4522    6.3687   26.7219 H   0  0  0  0  0  0  0  0  0  0  0  0
    7.1988    4.5242   23.8576 N   0  0  0  0  0  4  0  0  0  0  0  0
    6.3083    3.3293   24.0395 C   0  0  0  0  0  0  0  0  0  0  0  0
    6.8366    2.2901   25.0331 C   0  0  0  0  0  0  0  0  0  0  0  0
    7.9006    1.4366   24.5116 N   0  0  0  0  0  0  0  0  0  0  0  0
    7.5959    0.0800   24.0855 C   0  0  0  0  0  0  0  0  0  0  0  0
    8.3180   -0.3161   22.7707 C   0  0  2  0  0  0  0  0  0  0  0  0
    7.7123    0.4806   21.6004 C   0  0  0  0  0  0  0  0  0  0  0  0
    7.8697    1.6695   21.3866 O   0  0  0  0  0  0  0  0  0  0  0  0
    6.9593   -0.3619   20.8287 N   0  0  0  0  0  0  0  0  0  0  0  0
    6.1527    0.1228   19.7688 C   0  0  0  0  0  0  0  0  0  0  0  0
    6.4457   -0.2240   18.4747 C   0  0  0  0  0  0  0  0  0  0  0  0
    5.7616    0.2187   17.3958 N   0  0  0  0  0  0  0  0  0  0  0  0
    4.7481    1.0233   17.6032 C   0  0  0  0  0  0  0  0  0  0  0  0
    4.3062    1.4258   18.8960 C   0  0  0  0  0  0  0  0  0  0  0  0
    3.1765    2.2704   19.0741 C   0  0  0  0  0  0  0  0  0  0  0  0
    2.7585    2.6250   20.3282 C   0  0  0  0  0  0  0  0  0  0  0  0
    3.4391    2.1305   21.4628 C   0  0  0  0  0  0  0  0  0  0  0  0
    4.5318    1.3110   21.3162 C   0  0  0  0  0  0  0  0  0  0  0  0
    5.0169    0.9545   20.0229 C   0  0  0  0  0  0  0  0  0  0  0  0
    5.0322    0.9183   22.1956 H   0  0  0  0  0  0  0  0  0  0  0  0
    3.1008    2.4090   22.4574 H   0  0  0  0  0  0  0  0  0  0  0  0
    1.9075    3.2889   20.4523 H   0  0  0  0  0  0  0  0  0  0  0  0
    2.6599    2.6300   18.1884 H   0  0  0  0  0  0  0  0  0  0  0  0
    4.2165    1.3876   16.7237 H   0  0  0  0  0  0  0  0  0  0  0  0
    7.2908   -0.8792   18.2649 H   0  0  0  0  0  0  0  0  0  0  0  0
    6.8943   -1.7192   21.3335 C   0  0  0  0  0  0  0  0  0  0  0  0
    8.0360   -1.7925   22.3668 C   0  0  2  0  0  0  0  0  0  0  0  0
    7.7452   -2.7795   23.5032 C   0  0  0  0  0  0  0  0  0  0  0  0
    6.8126   -2.5209   24.0195 H   0  0  0  0  0  0  0  0  0  0  0  0
    8.5466   -2.7958   24.2525 H   0  0  0  0  0  0  0  0  0  0  0  0
    7.6324   -3.7996   23.1172 H   0  0  0  0  0  0  0  0  0  0  0  0
    8.9358   -2.1360   21.8544 H   0  0  0  0  0  0  0  0  0  0  0  0
    5.9240   -1.9203   21.8111 H   0  0  0  0  0  0  0  0  0  0  0  0
    7.0159   -2.4328   20.5148 H   0  0  0  0  0  0  0  0  0  0  0  0
    9.7827    0.0452   22.8839 C   0  0  0  0  0  0  0  0  0  0  0  0
   10.7327   -0.4786   21.9986 C   0  0  0  0  0  0  0  0  0  0  0  0
   12.0605   -0.1028   22.1226 C   0  0  0  0  0  0  0  0  0  0  0  0
   13.2337   -0.6933   20.9806 Cl  0  0  0  0  0  0  0  0  0  0  0  0
   12.4818    0.8013   23.1019 C   0  0  0  0  0  0  0  0  0  0  0  0
   11.5203    1.4014   23.8855 C   0  0  0  0  0  0  0  0  0  0  0  0
   10.1781    1.0643   23.7513 C   0  0  0  0  0  0  0  0  0  0  0  0
    9.1571    1.9372   24.4080 C   0  0  0  0  0  0  0  0  0  0  0  0
    9.4353    3.0872   24.7641 O   0  0  0  0  0  0  0  0  0  0  0  0
   11.7595    2.1730   24.5967 H   0  0  0  0  0  0  0  0  0  0  0  0
   13.5309    1.0640   23.2052 H   0  0  0  0  0  0  0  0  0  0  0  0
   10.4445   -1.1325   21.1788 H   0  0  0  0  0  0  0  0  0  0  0  0
    6.5153   -0.0029   23.9310 H   0  0  0  0  0  0  0  0  0  0  0  0
    7.8742   -0.6283   24.8747 H   0  0  0  0  0  0  0  0  0  0  0  0
    7.1635    2.7502   25.9695 H   0  0  0  0  0  0  0  0  0  0  0  0
    6.0134    1.6258   25.2994 H   0  0  0  0  0  0  0  0  0  0  0  0
    6.1936    2.8248   23.0769 H   0  0  0  0  0  0  0  0  0  0  0  0
    5.3061    3.6566   24.3452 H   0  0  0  0  0  0  0  0  0  0  0  0
    8.1247    4.1334   23.5819 H   0  0  0  0  0  0  0  0  0  0  0  0
    8.0608    4.6527   25.7782 H   0  0  0  0  0  0  0  0  0  0  0  0
    8.5245    7.1169   25.6925 H   0  0  0  0  0  0  0  0  0  0  0  0
    9.3203    6.1357   24.4337 H   0  0  0  0  0  0  0  0  0  0  0  0
    8.5978    6.3656   22.2359 H   0  0  0  0  0  0  0  0  0  0  0  0
    7.1667    7.3759   21.9194 H   0  0  0  0  0  0  0  0  0  0  0  0
    5.7082    5.7742   23.0001 H   0  0  0  0  0  0  0  0  0  0  0  0
    5.8559    3.9608   21.3541 H   0  0  0  0  0  0  0  0  0  0  0  0
    6.4820    5.4295   20.6015 H   0  0  0  0  0  0  0  0  0  0  0  0
    7.6003    4.1834   21.2065 H   0  0  0  0  0  0  0  0  0  0  0  0
  1  2  1  0
  2  3  1  0
  3  4  1  0
  4  5  1  0
  5  6  1  0
  6  7  1  0
  7  8  1  0
  7  9  1  0
  7 10  1  0
  6 11  1  0
 11 12  1  0
 12 13  1  0
 13 14  1  0
 14 15  1  0
 16 15  1  1
 16 17  1  0
 17 18  2  0
 17 19  1  0
 19 20  1  0
 20 21  2  0
 21 22  1  0
 22 23  2  0
 23 24  1  0
 24 25  2  0
 25 26  1  0
 26 27  2  0
 27 28  1  0
 28 29  2  0
 28 30  1  0
 27 31  1  0
 26 32  1  0
 25 33  1  0
 23 34  1  0
 21 35  1  0
 19 36  1  0
 36 37  1  0
 37 38  1  0
 38 39  1  0
 38 40  1  0
 38 41  1  0
 37 42  1  6
 36 43  1  0
 36 44  1  0
 16 45  1  0
 45 46  2  0
 46 47  1  0
 47 48  1  0
 47 49  2  0
 49 50  1  0
 50 51  2  0
 51 52  1  0
 52 53  2  0
 50 54  1  0
 49 55  1  0
 46 56  1  0
 15 57  1  0
 15 58  1  0
 13 59  1  0
 13 60  1  0
 12 61  1  0
 12 62  1  0
 11 63  1  0
  6 64  1  1
  5 65  1  0
  5 66  1  0
  3 67  1  0
  3 68  1  0
  2 69  1  1
  1 70  1  0
  1 71  1  0
  1 72  1  0
 11  2  1  0
 52 14  1  0
 37 16  1  0
 51 45  1  0
 29 20  1  0
 29 24  1  0
M  CHG  1  11   1
M  END
>  <cnnaffinities>  (83) 
[6.83588, 6.82833, 7.09168]

>  <score>  (83) 
6.83588

>  <index>  (83) 
83

>  <Smiles>  (83) 
C([C@@]1(C(OC([C@@](C([H])([H])[H])([N+]1(C(C(N1C([C@@]2(C(=O)N(c3c(nc(c4c(c(c(c(c34)[H])[H])[H])[H])[H])[H])C([C@@]2(C([H])([H])[H])[H])([H])[H])c2c(c(Cl)c(c(c2C1=O)[H])[H])[H])([H])[H])([H])[H])([H])[H])[H])[H])([H])[H])([H])[H])[H])([H])([H])[H]

>  <h>  (83) 
<NA>

>  <Training>  (83) 
True

>  <Success>  (83) 
True

>  <enamine_searched>  (83) 
False

>  <enamine_id>  (83) 
nan

$$$$

     RDKit          3D

 60 65  0  0  0  0  0  0  0  0999 V2000
    7.4868   -8.5431   22.7195 C   0  0  0  0  0  0  0  0  0  0  0  0
    6.5699   -7.5328   22.2457 N   0  0  0  0  0  0  0  0  0  0  0  0
    7.1250   -6.5595   21.4562 C   0  0  0  0  0  0  0  0  0  0  0  0
    8.1488   -6.7050   20.8097 O   0  0  0  0  0  0  0  0  0  0  0  0
    6.3458   -5.2762   21.4594 C   0  0  0  0  0  0  0  0  0  0  0  0
    6.7318   -4.3275   22.4498 N   0  0  0  0  0  0  0  0  0  0  0  0
    7.8220   -3.4144   22.2002 C   0  0  0  0  0  0  0  0  0  0  0  0
    7.4155   -1.9890   22.6214 C   0  0  2  0  0  0  0  0  0  0  0  0
    6.3186   -1.4845   21.6491 C   0  0  0  0  0  0  0  0  0  0  0  0
    5.1871   -1.9153   21.5314 O   0  0  0  0  0  0  0  0  0  0  0  0
    6.8364   -0.4683   20.8745 N   0  0  0  0  0  0  0  0  0  0  0  0
    6.1064    0.0779   19.7964 C   0  0  0  0  0  0  0  0  0  0  0  0
    6.4598   -0.2043   18.5014 C   0  0  0  0  0  0  0  0  0  0  0  0
    5.7975    0.2456   17.4110 N   0  0  0  0  0  0  0  0  0  0  0  0
    4.7569    1.0166   17.6123 C   0  0  0  0  0  0  0  0  0  0  0  0
    4.2905    1.3948   18.9036 C   0  0  0  0  0  0  0  0  0  0  0  0
    3.1586    2.2345   19.0657 C   0  0  0  0  0  0  0  0  0  0  0  0
    2.7634    2.6267   20.3149 C   0  0  0  0  0  0  0  0  0  0  0  0
    3.4682    2.1873   21.4573 C   0  0  0  0  0  0  0  0  0  0  0  0
    4.5526    1.3556   21.3287 C   0  0  0  0  0  0  0  0  0  0  0  0
    4.9854    0.9307   20.0396 C   0  0  0  0  0  0  0  0  0  0  0  0
    5.0878    1.0114   22.2081 H   0  0  0  0  0  0  0  0  0  0  0  0
    3.1493    2.5173   22.4418 H   0  0  0  0  0  0  0  0  0  0  0  0
    1.9133    3.2915   20.4339 H   0  0  0  0  0  0  0  0  0  0  0  0
    2.6343    2.5706   18.1750 H   0  0  0  0  0  0  0  0  0  0  0  0
    4.2247    1.3819   16.7338 H   0  0  0  0  0  0  0  0  0  0  0  0
    7.3106   -0.8554   18.3055 H   0  0  0  0  0  0  0  0  0  0  0  0
    8.2783   -0.3737   20.9786 C   0  0  0  0  0  0  0  0  0  0  0  0
    8.5676   -0.9715   22.3639 C   0  0  2  0  0  0  0  0  0  0  0  0
    9.9896   -1.5161   22.4509 C   0  0  0  0  0  0  0  0  0  0  0  0
   10.7150   -0.7074   22.3124 H   0  0  0  0  0  0  0  0  0  0  0  0
   10.1800   -1.9897   23.4195 H   0  0  0  0  0  0  0  0  0  0  0  0
   10.1738   -2.2620   21.6672 H   0  0  0  0  0  0  0  0  0  0  0  0
    8.4652   -0.1583   23.0865 H   0  0  0  0  0  0  0  0  0  0  0  0
    8.7885   -0.9472   20.1880 H   0  0  0  0  0  0  0  0  0  0  0  0
    8.6035    0.6680   20.9026 H   0  0  0  0  0  0  0  0  0  0  0  0
    6.8897   -2.0740   24.0481 C   0  0  0  0  0  0  0  0  0  0  0  0
    6.8022   -0.9296   24.8490 C   0  0  0  0  0  0  0  0  0  0  0  0
    6.2773   -1.0079   26.1268 C   0  0  0  0  0  0  0  0  0  0  0  0
    6.0753    0.4598   27.0439 Cl  0  0  0  0  0  0  0  0  0  0  0  0
    5.8827   -2.2238   26.6860 C   0  0  0  0  0  0  0  0  0  0  0  0
    5.9384   -3.3534   25.8959 C   0  0  0  0  0  0  0  0  0  0  0  0
    6.3844   -3.2755   24.5770 C   0  0  0  0  0  0  0  0  0  0  0  0
    6.2360   -4.4791   23.7159 C   0  0  0  0  0  0  0  0  0  0  0  0
    5.6552   -5.5061   24.0646 O   0  0  0  0  0  0  0  0  0  0  0  0
    5.6100   -4.3131   26.2784 H   0  0  0  0  0  0  0  0  0  0  0  0
    5.5241   -2.2667   27.7092 H   0  0  0  0  0  0  0  0  0  0  0  0
    7.1405    0.0357   24.4898 H   0  0  0  0  0  0  0  0  0  0  0  0
    8.0621   -3.4387   21.1478 H   0  0  0  0  0  0  0  0  0  0  0  0
    8.7147   -3.7314   22.7558 H   0  0  0  0  0  0  0  0  0  0  0  0
    4.9020   -5.4666   21.1493 C   0  0  0  0  0  0  0  0  0  0  0  0
    5.8049   -4.8375   20.1360 C   0  0  0  0  0  0  0  0  0  0  0  0
    6.1157   -5.4200   19.2772 H   0  0  0  0  0  0  0  0  0  0  0  0
    5.7053   -3.7684   19.9907 H   0  0  0  0  0  0  0  0  0  0  0  0
    4.6271   -6.5134   21.0250 H   0  0  0  0  0  0  0  0  0  0  0  0
    4.2269   -4.8342   21.7125 H   0  0  0  0  0  0  0  0  0  0  0  0
    5.8539   -7.2124   22.8959 H   0  0  0  0  0  0  0  0  0  0  0  0
    7.8789   -8.2616   23.6993 H   0  0  0  0  0  0  0  0  0  0  0  0
    8.3135   -8.5058   22.0238 H   0  0  0  0  0  0  0  0  0  0  0  0
    7.0510   -9.5464   22.7138 H   0  0  0  0  0  0  0  0  0  0  0  0
  1  2  1  0
  2  3  1  0
  3  4  2  0
  3  5  1  0
  5  6  1  0
  6  7  1  0
  8  7  1  6
  8  9  1  0
  9 10  2  0
  9 11  1  0
 11 12  1  0
 12 13  2  0
 13 14  1  0
 14 15  2  0
 15 16  1  0
 16 17  2  0
 17 18  1  0
 18 19  2  0
 19 20  1  0
 20 21  2  0
 20 22  1  0
 19 23  1  0
 18 24  1  0
 17 25  1  0
 15 26  1  0
 13 27  1  0
 11 28  1  0
 28 29  1  0
 29 30  1  0
 30 31  1  0
 30 32  1  0
 30 33  1  0
 29 34  1  1
 28 35  1  0
 28 36  1  0
  8 37  1  0
 37 38  2  0
 38 39  1  0
 39 40  1  0
 39 41  2  0
 41 42  1  0
 42 43  2  0
 43 44  1  0
 44 45  2  0
 42 46  1  0
 41 47  1  0
 38 48  1  0
  7 49  1  0
  7 50  1  0
  5 51  1  0
 51 52  1  0
 52 53  1  0
 52 54  1  0
 51 55  1  0
 51 56  1  0
  2 57  1  0
  1 58  1  0
  1 59  1  0
  1 60  1  0
 52  5  1  0
 44  6  1  0
 29  8  1  0
 43 37  1  0
 21 12  1  0
 21 16  1  0
M  END
>  <cnnaffinities>  (84) 
[6.56747]

>  <score>  (84) 
6.56747

>  <index>  (84) 
84

>  <Smiles>  (84) 
C(N(C(=O)C1(N2C([C@@]3(C(=O)N(c4c(nc(c5c(c(c(c(c45)[H])[H])[H])[H])[H])[H])C([C@@]3(C([H])([H])[H])[H])([H])[H])c3c(c(Cl)c(c(c3C2=O)[H])[H])[H])([H])[H])C(C1([H])[H])([H])[H])[H])([H])([H])[H]

>  <h>  (84) 
<NA>

>  <Training>  (84) 
True

>  <Success>  (84) 
True

>  <enamine_searched>  (84) 
False

>  <enamine_id>  (84) 
nan

$$$$

     RDKit          3D

 55 60  0  0  0  0  0  0  0  0999 V2000
    6.9960   -2.4216   23.5044 C   0  0  0  0  0  0  0  0  0  0  0  0
    7.9075   -1.8464   22.4158 C   0  0  1  0  0  0  0  0  0  0  0  0
    7.1945   -1.7508   21.0540 C   0  0  0  0  0  0  0  0  0  0  0  0
    6.8900   -0.3481   20.9004 N   0  0  0  0  0  0  0  0  0  0  0  0
    6.1223    0.1218   19.8113 C   0  0  0  0  0  0  0  0  0  0  0  0
    6.4380   -0.2264   18.5213 C   0  0  0  0  0  0  0  0  0  0  0  0
    5.7781    0.2185   17.4259 N   0  0  0  0  0  0  0  0  0  0  0  0
    4.7540    1.0152   17.6123 C   0  0  0  0  0  0  0  0  0  0  0  0
    4.2850    1.4016   18.9002 C   0  0  0  0  0  0  0  0  0  0  0  0
    3.1542    2.2427   19.0650 C   0  0  0  0  0  0  0  0  0  0  0  0
    2.7273    2.5951   20.3145 C   0  0  0  0  0  0  0  0  0  0  0  0
    3.3890    2.1007   21.4588 C   0  0  0  0  0  0  0  0  0  0  0  0
    4.4781    1.2764   21.3317 C   0  0  0  0  0  0  0  0  0  0  0  0
    4.9713    0.9351   20.0415 C   0  0  0  0  0  0  0  0  0  0  0  0
    4.9655    0.8847   22.2184 H   0  0  0  0  0  0  0  0  0  0  0  0
    3.0467    2.3927   22.4483 H   0  0  0  0  0  0  0  0  0  0  0  0
    1.8735    3.2544   20.4359 H   0  0  0  0  0  0  0  0  0  0  0  0
    2.6445    2.6020   18.1770 H   0  0  0  0  0  0  0  0  0  0  0  0
    4.2284    1.3837   16.7300 H   0  0  0  0  0  0  0  0  0  0  0  0
    7.2909   -0.8769   18.3263 H   0  0  0  0  0  0  0  0  0  0  0  0
    7.7151    0.4636   21.6549 C   0  0  0  0  0  0  0  0  0  0  0  0
    7.8162    1.6603   21.5310 O   0  0  0  0  0  0  0  0  0  0  0  0
    8.4805   -0.4207   22.6678 C   0  0  1  0  0  0  0  0  0  0  0  0
    8.2357    0.0761   24.1150 C   0  0  0  0  0  0  0  0  0  0  0  0
    8.8433    1.3656   24.3725 N   0  0  0  0  0  0  0  0  0  0  0  0
    8.0888    2.3947   25.0718 C   0  0  0  0  0  0  0  0  0  0  0  0
    7.4600    3.3842   24.1389 C   0  0  0  0  0  0  0  0  0  0  0  0
    8.0129    4.4709   23.5567 C   0  0  0  0  0  0  0  0  0  0  0  0
    7.0705    5.0571   22.7666 O   0  0  0  0  0  0  0  0  0  0  0  0
    5.9854    4.2689   22.9044 C   0  0  0  0  0  0  0  0  0  0  0  0
    6.1415    3.2686   23.7048 N   0  0  0  0  0  0  0  0  0  0  0  0
    5.0926    4.5509   22.3595 H   0  0  0  0  0  0  0  0  0  0  0  0
    8.9960    4.9145   23.5831 H   0  0  0  0  0  0  0  0  0  0  0  0
    8.7737    2.8974   25.7590 H   0  0  0  0  0  0  0  0  0  0  0  0
    7.3166    1.8976   25.6655 H   0  0  0  0  0  0  0  0  0  0  0  0
   10.0560    1.7273   23.8604 C   0  0  0  0  0  0  0  0  0  0  0  0
   10.5551    2.8219   24.1018 O   0  0  0  0  0  0  0  0  0  0  0  0
   10.7258    0.7160   22.9818 C   0  0  0  0  0  0  0  0  0  0  0  0
   12.0835    0.8810   22.6996 C   0  0  0  0  0  0  0  0  0  0  0  0
   12.7482   -0.0261   21.8964 C   0  0  0  0  0  0  0  0  0  0  0  0
   11.9994   -1.0685   21.3635 C   0  0  0  0  0  0  0  0  0  0  0  0
   12.6163   -1.9936   20.6078 F   0  0  0  0  0  0  0  0  0  0  0  0
   10.6360   -1.1932   21.5354 C   0  0  0  0  0  0  0  0  0  0  0  0
    9.9805   -0.3197   22.4060 C   0  0  0  0  0  0  0  0  0  0  0  0
   10.1133   -1.9773   20.9979 H   0  0  0  0  0  0  0  0  0  0  0  0
   13.8096    0.0515   21.6753 H   0  0  0  0  0  0  0  0  0  0  0  0
   12.5973    1.7286   23.1416 H   0  0  0  0  0  0  0  0  0  0  0  0
    7.1636    0.1491   24.3159 H   0  0  0  0  0  0  0  0  0  0  0  0
    8.6595   -0.6615   24.8043 H   0  0  0  0  0  0  0  0  0  0  0  0
    6.2737   -2.3400   21.0057 H   0  0  0  0  0  0  0  0  0  0  0  0
    7.8574   -2.0825   20.2489 H   0  0  0  0  0  0  0  0  0  0  0  0
    8.7373   -2.5534   22.3520 H   0  0  0  0  0  0  0  0  0  0  0  0
    6.6778   -3.4317   23.2254 H   0  0  0  0  0  0  0  0  0  0  0  0
    7.5290   -2.5090   24.4560 H   0  0  0  0  0  0  0  0  0  0  0  0
    6.0988   -1.8153   23.6646 H   0  0  0  0  0  0  0  0  0  0  0  0
  1  2  1  0
  2  3  1  0
  3  4  1  0
  4  5  1  0
  5  6  2  0
  6  7  1  0
  7  8  2  0
  8  9  1  0
  9 10  2  0
 10 11  1  0
 11 12  2  0
 12 13  1  0
 13 14  2  0
 13 15  1  0
 12 16  1  0
 11 17  1  0
 10 18  1  0
  8 19  1  0
  6 20  1  0
  4 21  1  0
 21 22  2  0
 21 23  1  0
 23 24  1  1
 24 25  1  0
 25 26  1  0
 26 27  1  0
 27 28  2  0
 28 29  1  0
 29 30  1  0
 30 31  2  0
 30 32  1  0
 28 33  1  0
 26 34  1  0
 26 35  1  0
 25 36  1  0
 36 37  2  0
 36 38  1  0
 38 39  2  0
 39 40  1  0
 40 41  2  0
 41 42  1  0
 41 43  1  0
 43 44  2  0
 43 45  1  0
 40 46  1  0
 39 47  1  0
 24 48  1  0
 24 49  1  0
  3 50  1  0
  3 51  1  0
  2 52  1  6
  1 53  1  0
  1 54  1  0
  1 55  1  0
 23  2  1  0
 31 27  1  0
 44 38  1  0
 14  5  1  0
 44 23  1  0
 14  9  1  0
M  END
>  <cnnaffinities>  (85) 
[6.2258, 6.05694, 5.94042, 6.27358]

>  <score>  (85) 
6.2258

>  <index>  (85) 
85

>  <Smiles>  (85) 
C([C@]1(C(N(c2c(nc(c3c(c(c(c(c23)[H])[H])[H])[H])[H])[H])C(=O)[C@]21C(N(C(c1c(oc(n1)[H])[H])([H])[H])C(=O)c1c(c(c(F)c(c21)[H])[H])[H])([H])[H])([H])[H])[H])([H])([H])[H]

>  <h>  (85) 
<NA>

>  <Training>  (85) 
True

>  <Success>  (85) 
True

>  <enamine_searched>  (85) 
False

>  <enamine_id>  (85) 
nan

$$$$

     RDKit          3D

 65 70  0  0  0  0  0  0  0  0999 V2000
    6.6455    4.3735   21.3279 C   0  0  0  0  0  0  0  0  0  0  0  0
    7.6178    3.9842   22.3362 N   0  0  0  0  0  0  0  0  0  0  0  0
    7.1303    3.3192   23.4238 C   0  0  0  0  0  0  0  0  0  0  0  0
    5.9298    3.1567   23.5966 O   0  0  0  0  0  0  0  0  0  0  0  0
    8.1246    2.7850   24.4470 C   0  0  0  0  0  0  0  0  0  0  0  0
    8.8046    1.6077   23.9488 N   0  0  0  0  0  0  0  0  0  0  0  0
    8.0774    0.3498   23.8464 C   0  0  0  0  0  0  0  0  0  0  0  0
    8.4954   -0.4536   22.5843 C   0  0  2  0  0  0  0  0  0  0  0  0
    8.0008    0.2625   21.3076 C   0  0  0  0  0  0  0  0  0  0  0  0
    8.4724    1.2566   20.7952 O   0  0  0  0  0  0  0  0  0  0  0  0
    6.9056   -0.4165   20.8312 N   0  0  0  0  0  0  0  0  0  0  0  0
    6.1291    0.1017   19.7708 C   0  0  0  0  0  0  0  0  0  0  0  0
    6.4650   -0.1989   18.4777 C   0  0  0  0  0  0  0  0  0  0  0  0
    5.7864    0.2410   17.3945 N   0  0  0  0  0  0  0  0  0  0  0  0
    4.7493    1.0152   17.6005 C   0  0  0  0  0  0  0  0  0  0  0  0
    4.2903    1.4012   18.8934 C   0  0  0  0  0  0  0  0  0  0  0  0
    3.1622    2.2435   19.0750 C   0  0  0  0  0  0  0  0  0  0  0  0
    2.7698    2.6220   20.3293 C   0  0  0  0  0  0  0  0  0  0  0  0
    3.4775    2.1700   21.4651 C   0  0  0  0  0  0  0  0  0  0  0  0
    4.5628    1.3388   21.3181 C   0  0  0  0  0  0  0  0  0  0  0  0
    4.9987    0.9339   20.0250 C   0  0  0  0  0  0  0  0  0  0  0  0
    5.1123    1.0180   22.1985 H   0  0  0  0  0  0  0  0  0  0  0  0
    3.1749    2.4900   22.4572 H   0  0  0  0  0  0  0  0  0  0  0  0
    1.9133    3.2770   20.4553 H   0  0  0  0  0  0  0  0  0  0  0  0
    2.6341    2.5887   18.1905 H   0  0  0  0  0  0  0  0  0  0  0  0
    4.2104    1.3752   16.7225 H   0  0  0  0  0  0  0  0  0  0  0  0
    7.3277   -0.8333   18.2883 H   0  0  0  0  0  0  0  0  0  0  0  0
    6.5164   -1.5645   21.6148 C   0  0  0  0  0  0  0  0  0  0  0  0
    7.7599   -1.8243   22.4806 C   0  0  2  0  0  0  0  0  0  0  0  0
    7.3919   -2.5275   23.7966 C   0  0  0  0  0  0  0  0  0  0  0  0
    6.8424   -3.8519   23.5664 N   0  0  0  0  0  0  0  0  0  0  0  0
    5.5299   -4.1575   23.5512 C   0  0  0  0  0  0  0  0  0  0  0  0
    4.6126   -3.2146   23.8571 N   0  0  0  0  0  0  0  0  0  0  0  0
    3.3533   -3.6364   23.7945 C   0  0  0  0  0  0  0  0  0  0  0  0
    2.9312   -4.8490   23.4457 N   0  0  0  0  0  0  0  0  0  0  0  0
    3.9334   -5.6942   23.1772 C   0  0  0  0  0  0  0  0  0  0  0  0
    5.2252   -5.4333   23.2171 N   0  0  0  0  0  0  0  0  0  0  0  0
    3.6476   -6.7100   22.8950 H   0  0  0  0  0  0  0  0  0  0  0  0
    2.5824   -2.9095   24.0556 H   0  0  0  0  0  0  0  0  0  0  0  0
    7.4661   -4.6276   23.3972 H   0  0  0  0  0  0  0  0  0  0  0  0
    6.6221   -1.9653   24.3349 H   0  0  0  0  0  0  0  0  0  0  0  0
    8.2705   -2.6167   24.4465 H   0  0  0  0  0  0  0  0  0  0  0  0
    8.4157   -2.5028   21.9213 H   0  0  0  0  0  0  0  0  0  0  0  0
    6.2766   -2.4098   20.9644 H   0  0  0  0  0  0  0  0  0  0  0  0
    5.6195   -1.3602   22.2215 H   0  0  0  0  0  0  0  0  0  0  0  0
   10.0072   -0.5082   22.5415 C   0  0  0  0  0  0  0  0  0  0  0  0
   10.6525   -1.4271   21.7125 C   0  0  0  0  0  0  0  0  0  0  0  0
   12.0254   -1.3866   21.5765 C   0  0  0  0  0  0  0  0  0  0  0  0
   12.7760   -2.4849   20.4613 Cl  0  0  0  0  0  0  0  0  0  0  0  0
   12.8095   -0.4650   22.2715 C   0  0  0  0  0  0  0  0  0  0  0  0
   12.1781    0.4504   23.0826 C   0  0  0  0  0  0  0  0  0  0  0  0
   10.7888    0.4735   23.1596 C   0  0  0  0  0  0  0  0  0  0  0  0
   10.1595    1.6618   23.8062 C   0  0  0  0  0  0  0  0  0  0  0  0
   10.8219    2.6390   24.1440 O   0  0  0  0  0  0  0  0  0  0  0  0
   12.7260    1.1947   23.6476 H   0  0  0  0  0  0  0  0  0  0  0  0
   13.8837   -0.4471   22.1322 H   0  0  0  0  0  0  0  0  0  0  0  0
   10.0978   -2.1607   21.1404 H   0  0  0  0  0  0  0  0  0  0  0  0
    8.2708   -0.2627   24.7382 H   0  0  0  0  0  0  0  0  0  0  0  0
    7.0042    0.5713   23.8264 H   0  0  0  0  0  0  0  0  0  0  0  0
    8.9039    3.5145   24.6850 H   0  0  0  0  0  0  0  0  0  0  0  0
    7.5726    2.5412   25.3623 H   0  0  0  0  0  0  0  0  0  0  0  0
    8.5510    3.7785   22.0031 H   0  0  0  0  0  0  0  0  0  0  0  0
    5.8532    4.9365   21.8310 H   0  0  0  0  0  0  0  0  0  0  0  0
    7.1240    5.0260   20.5916 H   0  0  0  0  0  0  0  0  0  0  0  0
    6.2099    3.4798   20.8461 H   0  0  0  0  0  0  0  0  0  0  0  0
  1  2  1  0
  2  3  1  0
  3  4  2  0
  3  5  1  0
  5  6  1  0
  6  7  1  0
  8  7  1  1
  8  9  1  0
  9 10  2  0
  9 11  1  0
 11 12  1  0
 12 13  2  0
 13 14  1  0
 14 15  2  0
 15 16  1  0
 16 17  2  0
 17 18  1  0
 18 19  2  0
 19 20  1  0
 20 21  2  0
 20 22  1  0
 19 23  1  0
 18 24  1  0
 17 25  1  0
 15 26  1  0
 13 27  1  0
 11 28  1  0
 28 29  1  0
 29 30  1  0
 30 31  1  0
 31 32  1  0
 32 33  2  0
 33 34  1  0
 34 35  2  0
 35 36  1  0
 36 37  2  0
 36 38  1  0
 34 39  1  0
 31 40  1  0
 30 41  1  0
 30 42  1  0
 29 43  1  6
 28 44  1  0
 28 45  1  0
  8 46  1  0
 46 47  2  0
 47 48  1  0
 48 49  1  0
 48 50  2  0
 50 51  1  0
 51 52  2  0
 52 53  1  0
 53 54  2  0
 51 55  1  0
 50 56  1  0
 47 57  1  0
  7 58  1  0
  7 59  1  0
  5 60  1  0
  5 61  1  0
  2 62  1  0
  1 63  1  0
  1 64  1  0
  1 65  1  0
 53  6  1  0
 29  8  1  0
 37 32  1  0
 52 46  1  0
 21 12  1  0
 21 16  1  0
M  END
>  <cnnaffinities>  (86) 
[6.54806]

>  <score>  (86) 
6.54806

>  <index>  (86) 
86

>  <Smiles>  (86) 
C(N(C(=O)C(N1C([C@@]2(C(=O)N(c3c(nc(c4c(c(c(c(c34)[H])[H])[H])[H])[H])[H])C([C@@]2(C(N(c2nc(nc(n2)[H])[H])[H])([H])[H])[H])([H])[H])c2c(c(Cl)c(c(c2C1=O)[H])[H])[H])([H])[H])([H])[H])[H])([H])([H])[H]

>  <h>  (86) 
<NA>

>  <Training>  (86) 
True

>  <Success>  (86) 
True

>  <enamine_searched>  (86) 
False

>  <enamine_id>  (86) 
nan

$$$$

     RDKit          3D

 63 68  0  0  0  0  0  0  0  0999 V2000
    6.6765    4.3816   21.3063 C   0  0  0  0  0  0  0  0  0  0  0  0
    7.6500    4.0059   22.3176 N   0  0  0  0  0  0  0  0  0  0  0  0
    7.1511    3.3317   23.3950 C   0  0  0  0  0  0  0  0  0  0  0  0
    5.9506    3.1818   23.5551 O   0  0  0  0  0  0  0  0  0  0  0  0
    8.1335    2.7859   24.4301 C   0  0  0  0  0  0  0  0  0  0  0  0
    8.8184    1.6060   23.9483 N   0  0  0  0  0  0  0  0  0  0  0  0
    8.0867    0.3539   23.8409 C   0  0  0  0  0  0  0  0  0  0  0  0
    8.4990   -0.4452   22.5829 C   0  0  2  0  0  0  0  0  0  0  0  0
    7.9961    0.2680   21.3093 C   0  0  0  0  0  0  0  0  0  0  0  0
    8.4563    1.2692   20.7960 O   0  0  0  0  0  0  0  0  0  0  0  0
    6.9081   -0.4207   20.8329 N   0  0  0  0  0  0  0  0  0  0  0  0
    6.1278    0.0960   19.7737 C   0  0  0  0  0  0  0  0  0  0  0  0
    6.4625   -0.2099   18.4804 C   0  0  0  0  0  0  0  0  0  0  0  0
    5.7854    0.2360   17.3971 N   0  0  0  0  0  0  0  0  0  0  0  0
    4.7541    1.0155   17.6015 C   0  0  0  0  0  0  0  0  0  0  0  0
    4.2947    1.4034   18.8928 C   0  0  0  0  0  0  0  0  0  0  0  0
    3.1687    2.2487   19.0753 C   0  0  0  0  0  0  0  0  0  0  0  0
    2.7740    2.6264   20.3271 C   0  0  0  0  0  0  0  0  0  0  0  0
    3.4768    2.1716   21.4659 C   0  0  0  0  0  0  0  0  0  0  0  0
    4.5628    1.3402   21.3196 C   0  0  0  0  0  0  0  0  0  0  0  0
    5.0007    0.9339   20.0269 C   0  0  0  0  0  0  0  0  0  0  0  0
    5.1087    1.0170   22.2022 H   0  0  0  0  0  0  0  0  0  0  0  0
    3.1721    2.4873   22.4593 H   0  0  0  0  0  0  0  0  0  0  0  0
    1.9182    3.2846   20.4530 H   0  0  0  0  0  0  0  0  0  0  0  0
    2.6417    2.5947   18.1897 H   0  0  0  0  0  0  0  0  0  0  0  0
    4.2113    1.3754   16.7242 H   0  0  0  0  0  0  0  0  0  0  0  0
    7.3254   -0.8438   18.2867 H   0  0  0  0  0  0  0  0  0  0  0  0
    6.5422   -1.5818   21.6093 C   0  0  0  0  0  0  0  0  0  0  0  0
    7.7750   -1.8196   22.4877 C   0  0  2  0  0  0  0  0  0  0  0  0
    7.4075   -2.5045   23.8090 C   0  0  0  0  0  0  0  0  0  0  0  0
    6.8265   -3.8168   23.6087 N   0  0  0  0  0  0  0  0  0  0  0  0
    5.5150   -4.1349   23.5193 C   0  0  0  0  0  0  0  0  0  0  0  0
    5.4489   -5.4876   23.2651 C   0  0  0  0  0  0  0  0  0  0  0  0
    6.7974   -5.8918   23.2188 C   0  0  0  0  0  0  0  0  0  0  0  0
    7.6231   -4.8715   23.4126 N   0  0  0  0  0  0  0  0  0  0  0  0
    7.1975   -6.8866   23.0508 H   0  0  0  0  0  0  0  0  0  0  0  0
    4.5673   -6.0977   23.1370 H   0  0  0  0  0  0  0  0  0  0  0  0
    4.7466   -3.3854   23.6591 H   0  0  0  0  0  0  0  0  0  0  0  0
    8.2848   -2.6439   24.4411 H   0  0  0  0  0  0  0  0  0  0  0  0
    6.6815   -1.8982   24.3539 H   0  0  0  0  0  0  0  0  0  0  0  0
    8.4440   -2.4996   21.9626 H   0  0  0  0  0  0  0  0  0  0  0  0
    5.6485   -1.4024   22.2285 H   0  0  0  0  0  0  0  0  0  0  0  0
    6.3252   -2.4307   20.9566 H   0  0  0  0  0  0  0  0  0  0  0  0
   10.0107   -0.4941   22.5434 C   0  0  0  0  0  0  0  0  0  0  0  0
   10.6603   -1.4066   21.7134 C   0  0  0  0  0  0  0  0  0  0  0  0
   12.0361   -1.3755   21.5919 C   0  0  0  0  0  0  0  0  0  0  0  0
   12.7732   -2.4945   20.4832 Cl  0  0  0  0  0  0  0  0  0  0  0  0
   12.8221   -0.4596   22.2945 C   0  0  0  0  0  0  0  0  0  0  0  0
   12.1859    0.4543   23.1044 C   0  0  0  0  0  0  0  0  0  0  0  0
   10.7972    0.4760   23.1731 C   0  0  0  0  0  0  0  0  0  0  0  0
   10.1732    1.6654   23.8154 C   0  0  0  0  0  0  0  0  0  0  0  0
   10.8243    2.6454   24.1559 O   0  0  0  0  0  0  0  0  0  0  0  0
   12.7235    1.1997   23.6784 H   0  0  0  0  0  0  0  0  0  0  0  0
   13.8980   -0.4541   22.1610 H   0  0  0  0  0  0  0  0  0  0  0  0
   10.1043   -2.1264   21.1262 H   0  0  0  0  0  0  0  0  0  0  0  0
    7.0169    0.5835   23.8254 H   0  0  0  0  0  0  0  0  0  0  0  0
    8.2858   -0.2587   24.7275 H   0  0  0  0  0  0  0  0  0  0  0  0
    8.9110    3.5205   24.6728 H   0  0  0  0  0  0  0  0  0  0  0  0
    7.5375    2.5508   25.3242 H   0  0  0  0  0  0  0  0  0  0  0  0
    8.5938    3.8286   21.9985 H   0  0  0  0  0  0  0  0  0  0  0  0
    5.8947    4.9756   21.7885 H   0  0  0  0  0  0  0  0  0  0  0  0
    7.1650    4.9876   20.5517 H   0  0  0  0  0  0  0  0  0  0  0  0
    6.2199    3.4884   20.8524 H   0  0  0  0  0  0  0  0  0  0  0  0
  1  2  1  0
  2  3  1  0
  3  4  2  0
  3  5  1  0
  5  6  1  0
  6  7  1  0
  8  7  1  1
  8  9  1  0
  9 10  2  0
  9 11  1  0
 11 12  1  0
 12 13  2  0
 13 14  1  0
 14 15  2  0
 15 16  1  0
 16 17  2  0
 17 18  1  0
 18 19  2  0
 19 20  1  0
 20 21  2  0
 20 22  1  0
 19 23  1  0
 18 24  1  0
 17 25  1  0
 15 26  1  0
 13 27  1  0
 11 28  1  0
 28 29  1  0
 29 30  1  0
 30 31  1  0
 31 32  1  0
 32 33  2  0
 33 34  1  0
 34 35  2  0
 34 36  1  0
 33 37  1  0
 32 38  1  0
 30 39  1  0
 30 40  1  0
 29 41  1  6
 28 42  1  0
 28 43  1  0
  8 44  1  0
 44 45  2  0
 45 46  1  0
 46 47  1  0
 46 48  2  0
 48 49  1  0
 49 50  2  0
 50 51  1  0
 51 52  2  0
 49 53  1  0
 48 54  1  0
 45 55  1  0
  7 56  1  0
  7 57  1  0
  5 58  1  0
  5 59  1  0
  2 60  1  0
  1 61  1  0
  1 62  1  0
  1 63  1  0
 51  6  1  0
 29  8  1  0
 35 31  1  0
 50 44  1  0
 21 12  1  0
 21 16  1  0
M  END
>  <cnnaffinities>  (87) 
[6.68951]

>  <score>  (87) 
6.68951

>  <index>  (87) 
87

>  <Smiles>  (87) 
C(N(C(=O)C(N1C([C@@]2(C(=O)N(c3c(nc(c4c(c(c(c(c34)[H])[H])[H])[H])[H])[H])C([C@@]2(C(n2c(c(c(n2)[H])[H])[H])([H])[H])[H])([H])[H])c2c(c(Cl)c(c(c2C1=O)[H])[H])[H])([H])[H])([H])[H])[H])([H])([H])[H]

>  <h>  (87) 
<NA>

>  <Training>  (87) 
True

>  <Success>  (87) 
True

>  <enamine_searched>  (87) 
False

>  <enamine_id>  (87) 
nan

$$$$

     RDKit          3D

 64 68  0  0  0  0  0  0  0  0999 V2000
    2.6496   -3.1751   27.0880 C   0  0  0  0  0  0  0  0  0  0  0  0
    3.6609   -3.9771   27.9223 C   0  0  0  0  0  0  0  0  0  0  0  0
    4.8777   -4.2805   27.0536 C   0  0  0  0  0  0  0  0  0  0  0  0
    5.7534   -3.4266   27.0307 O   0  0  0  0  0  0  0  0  0  0  0  0
    4.8232   -5.3042   26.1101 N   0  0  0  0  0  0  0  0  0  0  0  0
    3.8904   -6.4220   26.2979 C   0  0  0  0  0  0  0  0  0  0  0  0
    4.4491   -7.7004   25.6623 C   0  0  0  0  0  0  0  0  0  0  0  0
    4.7657   -7.4950   24.1755 C   0  0  0  0  0  0  0  0  0  0  0  0
    5.3820   -6.1429   23.8824 C   0  0  0  0  0  0  0  0  0  0  0  0
    5.8920   -5.8984   22.5981 C   0  0  0  0  0  0  0  0  0  0  0  0
    6.3412   -4.6261   22.2468 C   0  0  0  0  0  0  0  0  0  0  0  0
    6.3256   -3.5900   23.1748 C   0  0  0  0  0  0  0  0  0  0  0  0
    6.6855   -2.3064   22.7678 N   0  0  0  0  0  0  0  0  0  0  0  0
    7.5617   -1.4828   23.6016 C   0  0  0  0  0  0  0  0  0  0  0  0
    8.9856   -1.4781   23.0954 C   0  0  0  0  0  0  0  0  0  0  0  0
    9.7324   -2.6642   23.0866 C   0  0  0  0  0  0  0  0  0  0  0  0
   11.0745   -2.6407   22.6997 C   0  0  0  0  0  0  0  0  0  0  0  0
   11.6959   -1.4525   22.3392 C   0  0  0  0  0  0  0  0  0  0  0  0
   10.9810   -0.2609   22.3631 C   0  0  0  0  0  0  0  0  0  0  0  0
   11.8821    1.3772   21.9824 Br  0  0  0  0  0  0  0  0  0  0  0  0
    9.6271   -0.2750   22.7224 C   0  0  0  0  0  0  0  0  0  0  0  0
    9.1034    0.6734   22.7205 H   0  0  0  0  0  0  0  0  0  0  0  0
   12.7382   -1.4565   22.0444 H   0  0  0  0  0  0  0  0  0  0  0  0
   11.6623   -3.5428   22.6838 H   0  0  0  0  0  0  0  0  0  0  0  0
    9.2861   -3.6039   23.3996 H   0  0  0  0  0  0  0  0  0  0  0  0
    7.2126   -0.4499   23.6341 H   0  0  0  0  0  0  0  0  0  0  0  0
    7.5270   -1.8530   24.6327 H   0  0  0  0  0  0  0  0  0  0  0  0
    6.2196   -1.8402   21.5434 C   0  0  0  0  0  0  0  0  0  0  0  0
    5.3973   -2.5058   20.9203 O   0  0  0  0  0  0  0  0  0  0  0  0
    6.8245   -0.5616   20.9387 C   0  0  0  0  0  0  0  0  0  0  0  0
    6.0644    0.0413   19.7571 C   0  0  0  0  0  0  0  0  0  0  0  0
    6.4532   -0.2139   18.4254 C   0  0  0  0  0  0  0  0  0  0  0  0
    5.8076    0.2876   17.3583 N   0  0  0  0  0  0  0  0  0  0  0  0
    4.7345    1.0686   17.5729 C   0  0  0  0  0  0  0  0  0  0  0  0
    4.2740    1.3869   18.8575 C   0  0  0  0  0  0  0  0  0  0  0  0
    3.1517    2.2077   19.0545 C   0  0  0  0  0  0  0  0  0  0  0  0
    2.7443    2.5551   20.3468 C   0  0  0  0  0  0  0  0  0  0  0  0
    3.4493    2.0803   21.4550 C   0  0  0  0  0  0  0  0  0  0  0  0
    4.5478    1.2371   21.2615 C   0  0  0  0  0  0  0  0  0  0  0  0
    4.9638    0.8805   19.9716 C   0  0  0  0  0  0  0  0  0  0  0  0
    5.0959    0.8637   22.1187 H   0  0  0  0  0  0  0  0  0  0  0  0
    3.1498    2.3655   22.4600 H   0  0  0  0  0  0  0  0  0  0  0  0
    1.8880    3.2058   20.4921 H   0  0  0  0  0  0  0  0  0  0  0  0
    2.6018    2.5981   18.2041 H   0  0  0  0  0  0  0  0  0  0  0  0
    4.2021    1.4695   16.7135 H   0  0  0  0  0  0  0  0  0  0  0  0
    7.3206   -0.8441   18.2478 H   0  0  0  0  0  0  0  0  0  0  0  0
    6.8887    0.1785   21.7403 H   0  0  0  0  0  0  0  0  0  0  0  0
    7.8452   -0.7960   20.6322 H   0  0  0  0  0  0  0  0  0  0  0  0
    5.8615   -3.8326   24.4582 C   0  0  0  0  0  0  0  0  0  0  0  0
    5.3869   -5.1040   24.8373 C   0  0  0  0  0  0  0  0  0  0  0  0
    5.8112   -2.9778   25.1196 H   0  0  0  0  0  0  0  0  0  0  0  0
    6.6862   -4.4003   21.2425 H   0  0  0  0  0  0  0  0  0  0  0  0
    5.9184   -6.6916   21.8580 H   0  0  0  0  0  0  0  0  0  0  0  0
    5.4461   -8.2861   23.8419 H   0  0  0  0  0  0  0  0  0  0  0  0
    3.8370   -7.5820   23.6010 H   0  0  0  0  0  0  0  0  0  0  0  0
    3.7316   -8.5209   25.7783 H   0  0  0  0  0  0  0  0  0  0  0  0
    5.3598   -7.9947   26.1862 H   0  0  0  0  0  0  0  0  0  0  0  0
    3.7487   -6.6102   27.3673 H   0  0  0  0  0  0  0  0  0  0  0  0
    2.9126   -6.1776   25.8656 H   0  0  0  0  0  0  0  0  0  0  0  0
    3.2218   -4.9092   28.2822 H   0  0  0  0  0  0  0  0  0  0  0  0
    3.9776   -3.3950   28.7916 H   0  0  0  0  0  0  0  0  0  0  0  0
    2.2843   -3.7801   26.2525 H   0  0  0  0  0  0  0  0  0  0  0  0
    1.7966   -2.8652   27.6952 H   0  0  0  0  0  0  0  0  0  0  0  0
    3.1133   -2.2710   26.6797 H   0  0  0  0  0  0  0  0  0  0  0  0
  1  2  1  0
  2  3  1  0
  3  4  2  0
  3  5  1  0
  5  6  1  0
  6  7  1  0
  7  8  1  0
  8  9  1  0
  9 10  2  0
 10 11  1  0
 11 12  2  0
 12 13  1  0
 13 14  1  0
 14 15  1  0
 15 16  2  0
 16 17  1  0
 17 18  2  0
 18 19  1  0
 19 20  1  0
 19 21  2  0
 21 22  1  0
 18 23  1  0
 17 24  1  0
 16 25  1  0
 14 26  1  0
 14 27  1  0
 13 28  1  0
 28 29  2  0
 28 30  1  0
 30 31  1  0
 31 32  2  0
 32 33  1  0
 33 34  2  0
 34 35  1  0
 35 36  2  0
 36 37  1  0
 37 38  2  0
 38 39  1  0
 39 40  2  0
 39 41  1  0
 38 42  1  0
 37 43  1  0
 36 44  1  0
 34 45  1  0
 32 46  1  0
 30 47  1  0
 30 48  1  0
 12 49  1  0
 49 50  2  0
 49 51  1  0
 11 52  1  0
 10 53  1  0
  8 54  1  0
  8 55  1  0
  7 56  1  0
  7 57  1  0
  6 58  1  0
  6 59  1  0
  2 60  1  0
  2 61  1  0
  1 62  1  0
  1 63  1  0
  1 64  1  0
 50  5  1  0
 50  9  1  0
 21 15  1  0
 40 31  1  0
 40 35  1  0
M  END
>  <cnnaffinities>  (88) 
[6.75849]

>  <score>  (88) 
6.75849

>  <index>  (88) 
88

>  <Smiles>  (88) 
C(C(C(=O)N1C(C(C(c2c(c(c(N(C(c3c(c(c(c(Br)c3[H])[H])[H])[H])([H])[H])C(=O)C(c3c(nc(c4c(c(c(c(c34)[H])[H])[H])[H])[H])[H])([H])[H])c(c12)[H])[H])[H])([H])[H])([H])[H])([H])[H])([H])[H])([H])([H])[H]

>  <h>  (88) 
<NA>

>  <Training>  (88) 
True

>  <Success>  (88) 
True

>  <enamine_searched>  (88) 
False

>  <enamine_id>  (88) 
nan

$$$$

     RDKit          3D

 38 40  0  0  0  0  0  0  0  0999 V2000
    8.0564    1.6777   20.9688 O   0  0  0  0  0  0  0  0  0  0  0  0
    7.8878    0.6113   21.5302 C   0  0  0  0  0  0  0  0  0  0  0  0
    6.9523   -0.4556   20.9130 C   0  0  0  0  0  0  0  0  0  0  0  0
    6.1174    0.0875   19.7747 C   0  0  0  0  0  0  0  0  0  0  0  0
    6.4275   -0.2070   18.4730 C   0  0  0  0  0  0  0  0  0  0  0  0
    5.7597    0.2435   17.3787 N   0  0  0  0  0  0  0  0  0  0  0  0
    4.7345    1.0319   17.5805 C   0  0  0  0  0  0  0  0  0  0  0  0
    4.2878    1.4229   18.8707 C   0  0  0  0  0  0  0  0  0  0  0  0
    3.1662    2.2731   19.0484 C   0  0  0  0  0  0  0  0  0  0  0  0
    2.7647    2.6456   20.3018 C   0  0  0  0  0  0  0  0  0  0  0  0
    3.4672    2.1725   21.4323 C   0  0  0  0  0  0  0  0  0  0  0  0
    4.5537    1.3439   21.2880 C   0  0  0  0  0  0  0  0  0  0  0  0
    4.9980    0.9449   20.0004 C   0  0  0  0  0  0  0  0  0  0  0  0
    5.0843    0.9922   22.1671 H   0  0  0  0  0  0  0  0  0  0  0  0
    3.1423    2.4713   22.4241 H   0  0  0  0  0  0  0  0  0  0  0  0
    1.9122    3.3082   20.4346 H   0  0  0  0  0  0  0  0  0  0  0  0
    2.6422    2.6369   18.1672 H   0  0  0  0  0  0  0  0  0  0  0  0
    4.2013    1.3984   16.6994 H   0  0  0  0  0  0  0  0  0  0  0  0
    7.2730   -0.8552   18.2437 H   0  0  0  0  0  0  0  0  0  0  0  0
    6.3000   -0.8841   21.6869 H   0  0  0  0  0  0  0  0  0  0  0  0
    7.5688   -1.2874   20.5384 H   0  0  0  0  0  0  0  0  0  0  0  0
    8.4979    0.3265   22.7416 N   0  0  0  0  0  0  0  0  0  0  0  0
    8.8164   -1.0450   23.1441 C   0  0  0  0  0  0  0  0  0  0  0  0
    9.9941   -1.6532   22.4086 C   0  0  0  0  0  0  0  0  0  0  0  0
   11.2168   -1.1278   22.4431 C   0  0  0  0  0  0  0  0  0  0  0  0
   11.5860    0.1022   23.2423 C   0  0  0  0  0  0  0  0  0  0  0  0
   10.8024    1.3669   22.8549 C   0  0  0  0  0  0  0  0  0  0  0  0
    9.3457    1.3706   23.3246 C   0  0  0  0  0  0  0  0  0  0  0  0
    9.3344    1.2308   24.4103 H   0  0  0  0  0  0  0  0  0  0  0  0
    8.8841    2.3370   23.1152 H   0  0  0  0  0  0  0  0  0  0  0  0
   10.8166    1.4885   21.7694 H   0  0  0  0  0  0  0  0  0  0  0  0
   11.3142    2.2483   23.2707 H   0  0  0  0  0  0  0  0  0  0  0  0
   12.6585    0.2939   23.1285 H   0  0  0  0  0  0  0  0  0  0  0  0
   11.4265   -0.0901   24.3136 H   0  0  0  0  0  0  0  0  0  0  0  0
   11.9983   -1.5815   21.8327 H   0  0  0  0  0  0  0  0  0  0  0  0
    9.8139   -2.5476   21.8088 H   0  0  0  0  0  0  0  0  0  0  0  0
    9.0346   -1.0178   24.2172 H   0  0  0  0  0  0  0  0  0  0  0  0
    7.9273   -1.6679   23.0337 H   0  0  0  0  0  0  0  0  0  0  0  0
  1  2  2  0
  2  3  1  0
  3  4  1  0
  4  5  2  0
  5  6  1  0
  6  7  2  0
  7  8  1  0
  8  9  2  0
  9 10  1  0
 10 11  2  0
 11 12  1  0
 12 13  2  0
 12 14  1  0
 11 15  1  0
 10 16  1  0
  9 17  1  0
  7 18  1  0
  5 19  1  0
  3 20  1  0
  3 21  1  0
  2 22  1  0
 22 23  1  0
 23 24  1  0
 24 25  2  0
 25 26  1  0
 26 27  1  0
 27 28  1  0
 28 29  1  0
 28 30  1  0
 27 31  1  0
 27 32  1  0
 26 33  1  0
 26 34  1  0
 25 35  1  0
 24 36  1  0
 23 37  1  0
 23 38  1  0
 13  4  1  0
 28 22  1  0
 13  8  1  0
M  END
>  <cnnaffinities>  (89) 
[5.60116, 5.35149]

>  <score>  (89) 
5.60116

>  <index>  (89) 
89

>  <Smiles>  (89) 
O=C(C(c1c(nc(c2c(c(c(c(c12)[H])[H])[H])[H])[H])[H])([H])[H])N1C(C(=C(C(C(C1([H])[H])([H])[H])([H])[H])[H])[H])([H])[H]

>  <h>  (89) 
<NA>

>  <Training>  (89) 
True

>  <Success>  (89) 
True

>  <enamine_searched>  (89) 
False

>  <enamine_id>  (89) 
nan

$$$$

     RDKit          3D

 62 67  0  0  0  0  0  0  0  0999 V2000
    8.0337   -3.0596   23.0775 C   0  0  0  0  0  0  0  0  0  0  0  0
    8.0079   -1.8882   22.0943 C   0  0  1  0  0  0  0  0  0  0  0  0
    6.7338   -1.8079   21.2387 C   0  0  0  0  0  0  0  0  0  0  0  0
    6.7556   -0.4415   20.7536 N   0  0  0  0  0  0  0  0  0  0  0  0
    5.9745    0.0601   19.6766 C   0  0  0  0  0  0  0  0  0  0  0  0
    6.2874   -0.2244   18.3671 C   0  0  0  0  0  0  0  0  0  0  0  0
    5.6188    0.2731   17.2961 N   0  0  0  0  0  0  0  0  0  0  0  0
    4.6038    1.0723   17.5105 C   0  0  0  0  0  0  0  0  0  0  0  0
    4.1448    1.4162   18.8144 C   0  0  0  0  0  0  0  0  0  0  0  0
    3.0253    2.2685   19.0215 C   0  0  0  0  0  0  0  0  0  0  0  0
    2.6158    2.5827   20.2870 C   0  0  0  0  0  0  0  0  0  0  0  0
    3.2897    2.0445   21.4065 C   0  0  0  0  0  0  0  0  0  0  0  0
    4.3601    1.2053   21.2302 C   0  0  0  0  0  0  0  0  0  0  0  0
    4.8373    0.8900   19.9287 C   0  0  0  0  0  0  0  0  0  0  0  0
    4.8743    0.7794   22.0867 H   0  0  0  0  0  0  0  0  0  0  0  0
    2.9579    2.2934   22.4103 H   0  0  0  0  0  0  0  0  0  0  0  0
    1.7683    3.2453   20.4435 H   0  0  0  0  0  0  0  0  0  0  0  0
    2.5097    2.6703   18.1501 H   0  0  0  0  0  0  0  0  0  0  0  0
    4.0864    1.4833   16.6382 H   0  0  0  0  0  0  0  0  0  0  0  0
    7.1357   -0.8655   18.1301 H   0  0  0  0  0  0  0  0  0  0  0  0
    7.4750    0.3936   21.5760 C   0  0  0  0  0  0  0  0  0  0  0  0
    7.5292    1.6005   21.4495 O   0  0  0  0  0  0  0  0  0  0  0  0
    8.1807   -0.4557   22.6743 C   0  0  1  0  0  0  0  0  0  0  0  0
    7.4500   -0.2845   24.0318 C   0  0  0  0  0  0  0  0  0  0  0  0
    7.5859    1.0648   24.5542 N   0  0  0  0  0  0  0  0  0  0  0  0
    6.4271    1.8112   25.0137 C   0  0  0  0  0  0  0  0  0  0  0  0
    6.0550    2.9406   24.0516 C   0  0  0  0  0  0  0  0  0  0  0  0
    6.9338    4.1367   24.1958 N   0  0  0  0  0  4  0  0  0  0  0  0
    7.8148    4.5278   23.0082 C   0  0  0  0  0  0  0  0  0  0  0  0
    7.1779    5.9357   22.9228 C   0  0  0  0  0  0  0  0  0  0  0  0
    6.2638    5.4868   24.0927 C   0  0  0  0  0  0  0  0  0  0  0  0
    5.2249    5.3624   23.7876 H   0  0  0  0  0  0  0  0  0  0  0  0
    6.3132    6.0384   25.0289 H   0  0  0  0  0  0  0  0  0  0  0  0
    6.6632    6.1273   21.9741 H   0  0  0  0  0  0  0  0  0  0  0  0
    7.8605    6.7572   23.1523 H   0  0  0  0  0  0  0  0  0  0  0  0
    7.6308    3.8522   22.1752 H   0  0  0  0  0  0  0  0  0  0  0  0
    8.8678    4.5085   23.2920 H   0  0  0  0  0  0  0  0  0  0  0  0
    7.5596    3.9915   25.0051 H   0  0  0  0  0  0  0  0  0  0  0  0
    6.1543    2.5950   23.0179 H   0  0  0  0  0  0  0  0  0  0  0  0
    5.0208    3.2485   24.2359 H   0  0  0  0  0  0  0  0  0  0  0  0
    5.5943    1.1113   25.0830 H   0  0  0  0  0  0  0  0  0  0  0  0
    6.6215    2.2178   26.0150 H   0  0  0  0  0  0  0  0  0  0  0  0
    8.7669    1.7138   24.5633 C   0  0  0  0  0  0  0  0  0  0  0  0
    8.9113    2.7905   25.1597 O   0  0  0  0  0  0  0  0  0  0  0  0
    9.8590    1.1006   23.7555 C   0  0  0  0  0  0  0  0  0  0  0  0
   11.1206    1.6759   23.8621 C   0  0  0  0  0  0  0  0  0  0  0  0
   12.1723    1.1994   23.1090 C   0  0  0  0  0  0  0  0  0  0  0  0
   11.9445    0.1199   22.2614 C   0  0  0  0  0  0  0  0  0  0  0  0
   13.2567   -0.4380   21.2596 Cl  0  0  0  0  0  0  0  0  0  0  0  0
   10.7034   -0.4868   22.1699 C   0  0  0  0  0  0  0  0  0  0  0  0
    9.6122    0.0232   22.8881 C   0  0  0  0  0  0  0  0  0  0  0  0
   10.5995   -1.3319   21.5015 H   0  0  0  0  0  0  0  0  0  0  0  0
   13.1490    1.6653   23.1361 H   0  0  0  0  0  0  0  0  0  0  0  0
   11.2442    2.5117   24.5371 H   0  0  0  0  0  0  0  0  0  0  0  0
    7.8765   -0.9916   24.7572 H   0  0  0  0  0  0  0  0  0  0  0  0
    6.3810   -0.5004   23.9358 H   0  0  0  0  0  0  0  0  0  0  0  0
    6.7157   -2.5120   20.4047 H   0  0  0  0  0  0  0  0  0  0  0  0
    5.8463   -1.9973   21.8605 H   0  0  0  0  0  0  0  0  0  0  0  0
    8.8253   -2.0197   21.3849 H   0  0  0  0  0  0  0  0  0  0  0  0
    7.1528   -3.0592   23.7337 H   0  0  0  0  0  0  0  0  0  0  0  0
    8.0486   -4.0121   22.5321 H   0  0  0  0  0  0  0  0  0  0  0  0
    8.9260   -3.0267   23.7154 H   0  0  0  0  0  0  0  0  0  0  0  0
  1  2  1  0
  2  3  1  0
  3  4  1  0
  4  5  1  0
  5  6  2  0
  6  7  1  0
  7  8  2  0
  8  9  1  0
  9 10  2  0
 10 11  1  0
 11 12  2  0
 12 13  1  0
 13 14  2  0
 13 15  1  0
 12 16  1  0
 11 17  1  0
 10 18  1  0
  8 19  1  0
  6 20  1  0
  4 21  1  0
 21 22  2  0
 21 23  1  0
 23 24  1  1
 24 25  1  0
 25 26  1  0
 26 27  1  0
 27 28  1  0
 28 29  1  0
 29 30  1  0
 30 31  1  0
 31 32  1  0
 31 33  1  0
 30 34  1  0
 30 35  1  0
 29 36  1  0
 29 37  1  0
 28 38  1  0
 27 39  1  0
 27 40  1  0
 26 41  1  0
 26 42  1  0
 25 43  1  0
 43 44  2  0
 43 45  1  0
 45 46  2  0
 46 47  1  0
 47 48  2  0
 48 49  1  0
 48 50  1  0
 50 51  2  0
 50 52  1  0
 47 53  1  0
 46 54  1  0
 24 55  1  0
 24 56  1  0
  3 57  1  0
  3 58  1  0
  2 59  1  6
  1 60  1  0
  1 61  1  0
  1 62  1  0
 23  2  1  0
 31 28  1  0
 51 45  1  0
 14  5  1  0
 51 23  1  0
 14  9  1  0
M  CHG  1  28   1
M  END
>  <cnnaffinities>  (90) 
[6.69261]

>  <score>  (90) 
6.69261

>  <index>  (90) 
90

>  <Smiles>  (90) 
C([C@]1(C(N(c2c(nc(c3c(c(c(c(c23)[H])[H])[H])[H])[H])[H])C(=O)[C@]21C(N(C(C([N+]1(C(C(C1([H])[H])([H])[H])([H])[H])[H])([H])[H])([H])[H])C(=O)c1c(c(c(Cl)c(c21)[H])[H])[H])([H])[H])([H])[H])[H])([H])([H])[H]

>  <h>  (90) 
<NA>

>  <Training>  (90) 
True

>  <Success>  (90) 
True

>  <enamine_searched>  (90) 
False

>  <enamine_id>  (90) 
nan

$$$$

     RDKit          3D

 56 61  0  0  0  0  0  0  0  0999 V2000
    7.0489   -2.4080   23.5114 C   0  0  0  0  0  0  0  0  0  0  0  0
    7.9483   -1.8526   22.4018 C   0  0  1  0  0  0  0  0  0  0  0  0
    7.2204   -1.7478   21.0509 C   0  0  0  0  0  0  0  0  0  0  0  0
    6.8912   -0.3469   20.9266 N   0  0  0  0  0  0  0  0  0  0  0  0
    6.1289    0.1217   19.8325 C   0  0  0  0  0  0  0  0  0  0  0  0
    6.4457   -0.2293   18.5439 C   0  0  0  0  0  0  0  0  0  0  0  0
    5.7861    0.2098   17.4467 N   0  0  0  0  0  0  0  0  0  0  0  0
    4.7598    1.0033   17.6304 C   0  0  0  0  0  0  0  0  0  0  0  0
    4.2886    1.3956   18.9156 C   0  0  0  0  0  0  0  0  0  0  0  0
    3.1543    2.2332   19.0776 C   0  0  0  0  0  0  0  0  0  0  0  0
    2.7368    2.6017   20.3259 C   0  0  0  0  0  0  0  0  0  0  0  0
    3.4126    2.1301   21.4749 C   0  0  0  0  0  0  0  0  0  0  0  0
    4.4892    1.2884   21.3459 C   0  0  0  0  0  0  0  0  0  0  0  0
    4.9758    0.9342   20.0586 C   0  0  0  0  0  0  0  0  0  0  0  0
    4.9823    0.8720   22.2199 H   0  0  0  0  0  0  0  0  0  0  0  0
    3.0898    2.4522   22.4623 H   0  0  0  0  0  0  0  0  0  0  0  0
    1.8807    3.2604   20.4388 H   0  0  0  0  0  0  0  0  0  0  0  0
    2.6399    2.5796   18.1848 H   0  0  0  0  0  0  0  0  0  0  0  0
    4.2412    1.3688   16.7435 H   0  0  0  0  0  0  0  0  0  0  0  0
    7.2965   -0.8801   18.3445 H   0  0  0  0  0  0  0  0  0  0  0  0
    7.7753    0.4570   21.6245 C   0  0  0  0  0  0  0  0  0  0  0  0
    7.9177    1.6439   21.4419 O   0  0  0  0  0  0  0  0  0  0  0  0
    8.5454   -0.4320   22.6365 C   0  0  1  0  0  0  0  0  0  0  0  0
    8.3461    0.0665   24.0900 C   0  0  0  0  0  0  0  0  0  0  0  0
    8.9436    1.3726   24.3138 N   0  0  0  0  0  0  0  0  0  0  0  0
    8.1791    2.3895   25.0255 C   0  0  0  0  0  0  0  0  0  0  0  0
    7.3998    3.3238   24.1302 C   0  0  0  0  0  0  0  0  0  0  0  0
    6.0177    3.3390   23.8255 C   0  0  0  0  0  0  0  0  0  0  0  0
    5.6816    4.3469   23.0298 N   0  0  0  0  0  0  0  0  0  0  0  0
    6.8419    4.9850   22.8227 N   0  0  0  0  0  0  0  0  0  0  0  0
    7.8953    4.4109   23.4496 C   0  0  0  0  0  0  0  0  0  0  0  0
    8.8994    4.8106   23.3776 H   0  0  0  0  0  0  0  0  0  0  0  0
    6.8797    5.7311   22.1489 H   0  0  0  0  0  0  0  0  0  0  0  0
    5.2440    2.6420   24.1225 H   0  0  0  0  0  0  0  0  0  0  0  0
    8.8941    2.9583   25.6264 H   0  0  0  0  0  0  0  0  0  0  0  0
    7.4987    1.8758   25.7130 H   0  0  0  0  0  0  0  0  0  0  0  0
   10.1408    1.7471   23.7674 C   0  0  0  0  0  0  0  0  0  0  0  0
   10.6759    2.8195   24.0292 O   0  0  0  0  0  0  0  0  0  0  0  0
   10.7779    0.7329   22.8665 C   0  0  0  0  0  0  0  0  0  0  0  0
   12.1365    0.8705   22.5847 C   0  0  0  0  0  0  0  0  0  0  0  0
   12.8113   -0.0994   21.8640 C   0  0  0  0  0  0  0  0  0  0  0  0
   12.0780   -1.1811   21.3962 C   0  0  0  0  0  0  0  0  0  0  0  0
   12.6969   -2.1288   20.6734 F   0  0  0  0  0  0  0  0  0  0  0  0
   10.7165   -1.2923   21.5813 C   0  0  0  0  0  0  0  0  0  0  0  0
   10.0434   -0.3488   22.3650 C   0  0  0  0  0  0  0  0  0  0  0  0
   10.2048   -2.1034   21.0773 H   0  0  0  0  0  0  0  0  0  0  0  0
   13.8729   -0.0350   21.6449 H   0  0  0  0  0  0  0  0  0  0  0  0
   12.6575    1.7302   22.9879 H   0  0  0  0  0  0  0  0  0  0  0  0
    8.7848   -0.6862   24.7661 H   0  0  0  0  0  0  0  0  0  0  0  0
    7.2813    0.1512   24.3111 H   0  0  0  0  0  0  0  0  0  0  0  0
    6.3107   -2.3517   20.9970 H   0  0  0  0  0  0  0  0  0  0  0  0
    7.8844   -2.0474   20.2324 H   0  0  0  0  0  0  0  0  0  0  0  0
    8.7661   -2.5712   22.3280 H   0  0  0  0  0  0  0  0  0  0  0  0
    7.6019   -2.4890   24.4529 H   0  0  0  0  0  0  0  0  0  0  0  0
    6.1594   -1.7919   23.6848 H   0  0  0  0  0  0  0  0  0  0  0  0
    6.7211   -3.4187   23.2469 H   0  0  0  0  0  0  0  0  0  0  0  0
  1  2  1  0
  2  3  1  0
  3  4  1  0
  4  5  1  0
  5  6  2  0
  6  7  1  0
  7  8  2  0
  8  9  1  0
  9 10  2  0
 10 11  1  0
 11 12  2  0
 12 13  1  0
 13 14  2  0
 13 15  1  0
 12 16  1  0
 11 17  1  0
 10 18  1  0
  8 19  1  0
  6 20  1  0
  4 21  1  0
 21 22  2  0
 21 23  1  0
 23 24  1  1
 24 25  1  0
 25 26  1  0
 26 27  1  0
 27 28  1  0
 28 29  2  0
 29 30  1  0
 30 31  1  0
 31 32  1  0
 30 33  1  0
 28 34  1  0
 26 35  1  0
 26 36  1  0
 25 37  1  0
 37 38  2  0
 37 39  1  0
 39 40  2  0
 40 41  1  0
 41 42  2  0
 42 43  1  0
 42 44  1  0
 44 45  2  0
 44 46  1  0
 41 47  1  0
 40 48  1  0
 24 49  1  0
 24 50  1  0
  3 51  1  0
  3 52  1  0
  2 53  1  6
  1 54  1  0
  1 55  1  0
  1 56  1  0
 23  2  1  0
 31 27  2  0
 45 39  1  0
 14  5  1  0
 45 23  1  0
 14  9  1  0
M  END
>  <cnnaffinities>  (91) 
[6.39054, 6.41856]

>  <score>  (91) 
6.39054

>  <index>  (91) 
91

>  <Smiles>  (91) 
C([C@]1(C(N(c2c(nc(c3c(c(c(c(c23)[H])[H])[H])[H])[H])[H])C(=O)[C@]21C(N(C(c1c(nn(c1[H])[H])[H])([H])[H])C(=O)c1c(c(c(F)c(c21)[H])[H])[H])([H])[H])([H])[H])[H])([H])([H])[H]

>  <h>  (91) 
<NA>

>  <Training>  (91) 
True

>  <Success>  (91) 
True

>  <enamine_searched>  (91) 
False

>  <enamine_id>  (91) 
nan

$$$$

     RDKit          3D

 47 50  0  0  0  0  0  0  0  0999 V2000
    5.3703   -2.3464   20.9672 O   0  0  0  0  0  0  0  0  0  0  0  0
    6.1181   -1.6343   21.6089 C   0  0  0  0  0  0  0  0  0  0  0  0
    6.9215   -0.5185   20.9319 C   0  0  0  0  0  0  0  0  0  0  0  0
    6.1312    0.0684   19.7940 C   0  0  0  0  0  0  0  0  0  0  0  0
    6.4409   -0.2329   18.4959 C   0  0  0  0  0  0  0  0  0  0  0  0
    5.7818    0.2270   17.4012 N   0  0  0  0  0  0  0  0  0  0  0  0
    4.7561    1.0130   17.6111 C   0  0  0  0  0  0  0  0  0  0  0  0
    4.2919    1.3851   18.9010 C   0  0  0  0  0  0  0  0  0  0  0  0
    3.1615    2.2236   19.0711 C   0  0  0  0  0  0  0  0  0  0  0  0
    2.7510    2.5930   20.3208 C   0  0  0  0  0  0  0  0  0  0  0  0
    3.4462    2.1141   21.4536 C   0  0  0  0  0  0  0  0  0  0  0  0
    4.5291    1.2828   21.3185 C   0  0  0  0  0  0  0  0  0  0  0  0
    4.9935    0.8996   20.0299 C   0  0  0  0  0  0  0  0  0  0  0  0
    5.0381    0.9137   22.2062 H   0  0  0  0  0  0  0  0  0  0  0  0
    3.1149    2.4120   22.4425 H   0  0  0  0  0  0  0  0  0  0  0  0
    1.8964    3.2519   20.4478 H   0  0  0  0  0  0  0  0  0  0  0  0
    2.6383    2.5704   18.1841 H   0  0  0  0  0  0  0  0  0  0  0  0
    4.2263    1.3896   16.7353 H   0  0  0  0  0  0  0  0  0  0  0  0
    7.2887   -0.8855   18.2850 H   0  0  0  0  0  0  0  0  0  0  0  0
    7.2076    0.2472   21.6555 H   0  0  0  0  0  0  0  0  0  0  0  0
    7.8587   -0.9637   20.5705 H   0  0  0  0  0  0  0  0  0  0  0  0
    6.2485   -1.8451   22.9869 N   0  0  0  0  0  0  0  0  0  0  0  0
    5.1643   -2.5593   23.5517 C   0  0  0  0  0  0  0  0  0  0  0  0
    5.1909   -3.7986   24.0498 C   0  0  0  0  0  0  0  0  0  0  0  0
    6.3375   -4.4733   24.6211 C   0  0  0  0  0  0  0  0  0  0  0  0
    7.2410   -3.8669   25.4198 C   0  0  0  0  0  0  0  0  0  0  0  0
    7.1329   -2.5124   25.9572 C   0  0  0  0  0  0  0  0  0  0  0  0
    6.8811   -1.3615   25.3314 C   0  0  0  0  0  0  0  0  0  0  0  0
    7.1162   -1.0342   23.8725 C   0  0  1  0  0  0  0  0  0  0  0  0
    8.5794   -1.2243   23.5073 C   0  0  0  0  0  0  0  0  0  0  0  0
    8.9720   -2.4380   22.9629 C   0  0  0  0  0  0  0  0  0  0  0  0
   10.3047   -2.6634   22.6638 C   0  0  0  0  0  0  0  0  0  0  0  0
   11.2555   -1.6809   22.9049 C   0  0  0  0  0  0  0  0  0  0  0  0
   10.8709   -0.4650   23.4609 C   0  0  0  0  0  0  0  0  0  0  0  0
    9.5309   -0.2380   23.7682 C   0  0  0  0  0  0  0  0  0  0  0  0
    9.2326    0.7086   24.2200 H   0  0  0  0  0  0  0  0  0  0  0  0
   11.6193    0.2975   23.6564 H   0  0  0  0  0  0  0  0  0  0  0  0
   12.2970   -1.8806   22.6723 H   0  0  0  0  0  0  0  0  0  0  0  0
   10.5983   -3.6143   22.2452 H   0  0  0  0  0  0  0  0  0  0  0  0
    8.2167   -3.2020   22.7947 H   0  0  0  0  0  0  0  0  0  0  0  0
    6.8669    0.0309   23.7575 H   0  0  0  0  0  0  0  0  0  0  0  0
    6.6425   -0.5255   25.9805 H   0  0  0  0  0  0  0  0  0  0  0  0
    7.2941   -2.4773   27.0414 H   0  0  0  0  0  0  0  0  0  0  0  0
    7.9715   -4.4920   25.9186 H   0  0  0  0  0  0  0  0  0  0  0  0
    6.3527   -5.5618   24.5721 H   0  0  0  0  0  0  0  0  0  0  0  0
    4.2305   -4.3089   24.1279 H   0  0  0  0  0  0  0  0  0  0  0  0
    4.2392   -1.9972   23.5669 H   0  0  0  0  0  0  0  0  0  0  0  0
  1  2  2  0
  2  3  1  0
  3  4  1  0
  4  5  2  0
  5  6  1  0
  6  7  2  0
  7  8  1  0
  8  9  2  0
  9 10  1  0
 10 11  2  0
 11 12  1  0
 12 13  2  0
 12 14  1  0
 11 15  1  0
 10 16  1  0
  9 17  1  0
  7 18  1  0
  5 19  1  0
  3 20  1  0
  3 21  1  0
  2 22  1  0
 22 23  1  0
 23 24  2  3
 24 25  1  0
 25 26  2  3
 26 27  1  0
 27 28  2  3
 28 29  1  0
 29 30  1  0
 30 31  2  0
 31 32  1  0
 32 33  2  0
 33 34  1  0
 34 35  2  0
 35 36  1  0
 34 37  1  0
 33 38  1  0
 32 39  1  0
 31 40  1  0
 29 41  1  1
 28 42  1  0
 27 43  1  0
 26 44  1  0
 25 45  1  0
 24 46  1  0
 23 47  1  0
 13  4  1  0
 29 22  1  0
 35 30  1  0
 13  8  1  0
M  END
>  <cnnaffinities>  (92) 
[6.07977, 6.07952]

>  <score>  (92) 
6.07977

>  <index>  (92) 
92

>  <Smiles>  (92) 
O=C(C(c1c(nc(c2c(c(c(c(c12)[H])[H])[H])[H])[H])[H])([H])[H])N1C(=C(C(=C(C(=C([C@]1(c1c(c(c(c(c1[H])[H])[H])[H])[H])[H])[H])[H])[H])[H])[H])[H]

>  <h>  (92) 
<NA>

>  <Training>  (92) 
True

>  <Success>  (92) 
True

>  <enamine_searched>  (92) 
False

>  <enamine_id>  (92) 
nan

$$$$

     RDKit          3D

 58 62  0  0  0  0  0  0  0  0999 V2000
    6.5898    4.5854   21.4512 C   0  0  0  0  0  0  0  0  0  0  0  0
    6.8175    3.5982   22.5096 N   0  0  0  0  0  4  0  0  0  0  0  0
    7.9629    3.9359   23.4087 C   0  0  0  0  0  0  0  0  0  0  0  0
    8.2032    2.8337   24.4374 C   0  0  0  0  0  0  0  0  0  0  0  0
    8.8506    1.6598   23.8767 N   0  0  0  0  0  0  0  0  0  0  0  0
    8.1392    0.3986   23.8040 C   0  0  0  0  0  0  0  0  0  0  0  0
    8.5410   -0.4340   22.5620 C   0  0  2  0  0  0  0  0  0  0  0  0
    8.0323    0.2632   21.2745 C   0  0  0  0  0  0  0  0  0  0  0  0
    8.4825    1.2695   20.7572 O   0  0  0  0  0  0  0  0  0  0  0  0
    6.9309   -0.4169   20.8200 N   0  0  0  0  0  0  0  0  0  0  0  0
    6.1397    0.1062   19.7615 C   0  0  0  0  0  0  0  0  0  0  0  0
    6.4557   -0.2080   18.4662 C   0  0  0  0  0  0  0  0  0  0  0  0
    5.7679    0.2296   17.3890 N   0  0  0  0  0  0  0  0  0  0  0  0
    4.7460    1.0194   17.6017 C   0  0  0  0  0  0  0  0  0  0  0  0
    4.3013    1.4229   18.8961 C   0  0  0  0  0  0  0  0  0  0  0  0
    3.1755    2.2752   19.0741 C   0  0  0  0  0  0  0  0  0  0  0  0
    2.7815    2.6543   20.3278 C   0  0  0  0  0  0  0  0  0  0  0  0
    3.4815    2.1859   21.4568 C   0  0  0  0  0  0  0  0  0  0  0  0
    4.5662    1.3547   21.3146 C   0  0  0  0  0  0  0  0  0  0  0  0
    5.0157    0.9531   20.0208 C   0  0  0  0  0  0  0  0  0  0  0  0
    5.0753    0.9817   22.1989 H   0  0  0  0  0  0  0  0  0  0  0  0
    3.1627    2.4869   22.4544 H   0  0  0  0  0  0  0  0  0  0  0  0
    1.9306    3.3216   20.4495 H   0  0  0  0  0  0  0  0  0  0  0  0
    2.6545    2.6219   18.1864 H   0  0  0  0  0  0  0  0  0  0  0  0
    4.2154    1.3830   16.7223 H   0  0  0  0  0  0  0  0  0  0  0  0
    7.3042   -0.8586   18.2578 H   0  0  0  0  0  0  0  0  0  0  0  0
    6.5486   -1.5522   21.6383 C   0  0  0  0  0  0  0  0  0  0  0  0
    7.7867   -1.8005   22.5253 C   0  0  2  0  0  0  0  0  0  0  0  0
    7.4282   -2.4319   23.8761 C   0  0  0  0  0  0  0  0  0  0  0  0
    6.9674   -3.4157   23.7379 H   0  0  0  0  0  0  0  0  0  0  0  0
    8.3055   -2.5623   24.5216 H   0  0  0  0  0  0  0  0  0  0  0  0
    6.7059   -1.8097   24.4188 H   0  0  0  0  0  0  0  0  0  0  0  0
    8.4411   -2.4896   21.9861 H   0  0  0  0  0  0  0  0  0  0  0  0
    6.3019   -2.4120   21.0059 H   0  0  0  0  0  0  0  0  0  0  0  0
    5.6640   -1.3239   22.2524 H   0  0  0  0  0  0  0  0  0  0  0  0
   10.0514   -0.5114   22.5279 C   0  0  0  0  0  0  0  0  0  0  0  0
   10.7031   -1.5031   21.7874 C   0  0  0  0  0  0  0  0  0  0  0  0
   12.0761   -1.4834   21.6870 C   0  0  0  0  0  0  0  0  0  0  0  0
   12.6505   -2.4510   20.9527 F   0  0  0  0  0  0  0  0  0  0  0  0
   12.8504   -0.4960   22.2942 C   0  0  0  0  0  0  0  0  0  0  0  0
   12.2124    0.4829   23.0192 C   0  0  0  0  0  0  0  0  0  0  0  0
   10.8263    0.5065   23.1015 C   0  0  0  0  0  0  0  0  0  0  0  0
   10.2033    1.7127   23.7286 C   0  0  0  0  0  0  0  0  0  0  0  0
   10.8709    2.6866   24.0608 O   0  0  0  0  0  0  0  0  0  0  0  0
   12.7663    1.2702   23.5195 H   0  0  0  0  0  0  0  0  0  0  0  0
   13.9265   -0.4564   22.1959 H   0  0  0  0  0  0  0  0  0  0  0  0
   10.1788   -2.2716   21.2296 H   0  0  0  0  0  0  0  0  0  0  0  0
    8.3408   -0.2109   24.6992 H   0  0  0  0  0  0  0  0  0  0  0  0
    7.0687    0.6200   23.7449 H   0  0  0  0  0  0  0  0  0  0  0  0
    7.2557    2.5030   24.8751 H   0  0  0  0  0  0  0  0  0  0  0  0
    8.8568    3.2119   25.2251 H   0  0  0  0  0  0  0  0  0  0  0  0
    8.8582    4.0781   22.7934 H   0  0  0  0  0  0  0  0  0  0  0  0
    7.7571    4.8764   23.9261 H   0  0  0  0  0  0  0  0  0  0  0  0
    5.9443    3.4950   23.0803 H   0  0  0  0  0  0  0  0  0  0  0  0
    7.0337    2.6804   22.0612 H   0  0  0  0  0  0  0  0  0  0  0  0
    5.7269    4.2812   20.8615 H   0  0  0  0  0  0  0  0  0  0  0  0
    7.4692    4.6420   20.8088 H   0  0  0  0  0  0  0  0  0  0  0  0
    6.4189    5.5836   21.8652 H   0  0  0  0  0  0  0  0  0  0  0  0
  1  2  1  0
  2  3  1  0
  3  4  1  0
  4  5  1  0
  5  6  1  0
  7  6  1  1
  7  8  1  0
  8  9  2  0
  8 10  1  0
 10 11  1  0
 11 12  2  0
 12 13  1  0
 13 14  2  0
 14 15  1  0
 15 16  2  0
 16 17  1  0
 17 18  2  0
 18 19  1  0
 19 20  2  0
 19 21  1  0
 18 22  1  0
 17 23  1  0
 16 24  1  0
 14 25  1  0
 12 26  1  0
 10 27  1  0
 27 28  1  0
 28 29  1  0
 29 30  1  0
 29 31  1  0
 29 32  1  0
 28 33  1  6
 27 34  1  0
 27 35  1  0
  7 36  1  0
 36 37  2  0
 37 38  1  0
 38 39  1  0
 38 40  2  0
 40 41  1  0
 41 42  2  0
 42 43  1  0
 43 44  2  0
 41 45  1  0
 40 46  1  0
 37 47  1  0
  6 48  1  0
  6 49  1  0
  4 50  1  0
  4 51  1  0
  3 52  1  0
  3 53  1  0
  2 54  1  0
  2 55  1  0
  1 56  1  0
  1 57  1  0
  1 58  1  0
 43  5  1  0
 28  7  1  0
 42 36  1  0
 20 11  1  0
 20 15  1  0
M  CHG  1   2   1
M  END
>  <cnnaffinities>  (93) 
[6.04704]

>  <score>  (93) 
6.04704

>  <index>  (93) 
93

>  <Smiles>  (93) 
C([N+](C(C(N1C([C@@]2(C(=O)N(c3c(nc(c4c(c(c(c(c34)[H])[H])[H])[H])[H])[H])C([C@@]2(C([H])([H])[H])[H])([H])[H])c2c(c(F)c(c(c2C1=O)[H])[H])[H])([H])[H])([H])[H])([H])[H])([H])[H])([H])([H])[H]

>  <h>  (93) 
<NA>

>  <Training>  (93) 
True

>  <Success>  (93) 
True

>  <enamine_searched>  (93) 
False

>  <enamine_id>  (93) 
nan

$$$$

     RDKit          3D

 65 69  0  0  0  0  0  0  0  0999 V2000
   13.7704    0.5853   23.0286 C   0  0  0  0  0  0  0  0  0  0  0  0
   12.6733    0.8158   24.0703 C   0  0  0  0  0  0  0  0  0  0  0  0
   11.4115    0.2006   23.5211 C   0  0  0  0  0  0  0  0  0  0  0  0
   10.9655    0.4882   22.4424 O   0  0  0  0  0  0  0  0  0  0  0  0
   10.7381   -0.8309   24.3581 N   0  0  2  0  0  4  0  0  0  0  0  0
   11.1618   -2.2744   24.0220 C   0  0  0  0  0  0  0  0  0  0  0  0
   10.4254   -2.7265   22.7767 C   0  0  0  0  0  0  0  0  0  0  0  0
    8.9242   -2.8162   23.0425 C   0  0  0  0  0  0  0  0  0  0  0  0
    8.3644   -1.5400   23.6528 C   0  0  0  0  0  0  0  0  0  0  0  0
    6.9992   -1.1711   23.6310 C   0  0  0  0  0  0  0  0  0  0  0  0
    6.0371   -1.8554   22.8408 N   0  0  0  0  0  0  0  0  0  0  0  0
    5.0601   -2.6446   23.5917 C   0  0  0  0  0  0  0  0  0  0  0  0
    5.7498   -3.9019   24.0544 C   0  0  0  0  0  0  0  0  0  0  0  0
    6.3656   -4.0143   25.3032 C   0  0  0  0  0  0  0  0  0  0  0  0
    7.2480   -5.0623   25.5581 C   0  0  0  0  0  0  0  0  0  0  0  0
    7.4708   -6.0351   24.5864 C   0  0  0  0  0  0  0  0  0  0  0  0
    6.7795   -5.9606   23.3823 C   0  0  0  0  0  0  0  0  0  0  0  0
    6.9660   -7.2364   22.2091 Cl  0  0  0  0  0  0  0  0  0  0  0  0
    5.9641   -4.8805   23.0848 C   0  0  0  0  0  0  0  0  0  0  0  0
    5.5549   -4.7932   22.0795 H   0  0  0  0  0  0  0  0  0  0  0  0
    8.1819   -6.8370   24.7442 H   0  0  0  0  0  0  0  0  0  0  0  0
    7.7759   -5.0905   26.5098 H   0  0  0  0  0  0  0  0  0  0  0  0
    6.1839   -3.2427   26.0502 H   0  0  0  0  0  0  0  0  0  0  0  0
    4.7365   -2.0488   24.4517 H   0  0  0  0  0  0  0  0  0  0  0  0
    4.2058   -2.8663   22.9416 H   0  0  0  0  0  0  0  0  0  0  0  0
    5.9887   -1.7557   21.4703 C   0  0  0  0  0  0  0  0  0  0  0  0
    5.3047   -2.5025   20.7914 O   0  0  0  0  0  0  0  0  0  0  0  0
    6.8191   -0.6220   20.8397 C   0  0  0  0  0  0  0  0  0  0  0  0
    6.0828    0.0417   19.7205 C   0  0  0  0  0  0  0  0  0  0  0  0
    6.4079   -0.2254   18.4189 C   0  0  0  0  0  0  0  0  0  0  0  0
    5.7502    0.2599   17.3366 N   0  0  0  0  0  0  0  0  0  0  0  0
    4.7262    1.0408   17.5699 C   0  0  0  0  0  0  0  0  0  0  0  0
    4.2722    1.3986   18.8692 C   0  0  0  0  0  0  0  0  0  0  0  0
    3.1426    2.2336   19.0587 C   0  0  0  0  0  0  0  0  0  0  0  0
    2.7430    2.5906   20.3152 C   0  0  0  0  0  0  0  0  0  0  0  0
    3.4529    2.1181   21.4429 C   0  0  0  0  0  0  0  0  0  0  0  0
    4.5427    1.2946   21.2902 C   0  0  0  0  0  0  0  0  0  0  0  0
    4.9793    0.9050   19.9893 C   0  0  0  0  0  0  0  0  0  0  0  0
    5.0687    0.9498   22.1787 H   0  0  0  0  0  0  0  0  0  0  0  0
    3.1288    2.4149   22.4369 H   0  0  0  0  0  0  0  0  0  0  0  0
    1.8848    3.2423   20.4544 H   0  0  0  0  0  0  0  0  0  0  0  0
    2.6141    2.5911   18.1783 H   0  0  0  0  0  0  0  0  0  0  0  0
    4.1910    1.4280   16.7026 H   0  0  0  0  0  0  0  0  0  0  0  0
    7.2516   -0.8797   18.1942 H   0  0  0  0  0  0  0  0  0  0  0  0
    7.1009    0.1224   21.5892 H   0  0  0  0  0  0  0  0  0  0  0  0
    7.7546   -1.0510   20.4589 H   0  0  0  0  0  0  0  0  0  0  0  0
    6.5187   -0.0737   24.3378 C   0  0  0  0  0  0  0  0  0  0  0  0
    7.4073    0.7864   24.9587 C   0  0  0  0  0  0  0  0  0  0  0  0
    8.7549    0.4874   24.9162 C   0  0  0  0  0  0  0  0  0  0  0  0
    9.2235   -0.6683   24.3204 C   0  0  0  0  0  0  0  0  0  0  0  0
    9.4716    1.1489   25.3600 H   0  0  0  0  0  0  0  0  0  0  0  0
    7.0715    1.6786   25.4689 H   0  0  0  0  0  0  0  0  0  0  0  0
    5.4483    0.1264   24.3469 H   0  0  0  0  0  0  0  0  0  0  0  0
    8.4093   -3.0790   22.1149 H   0  0  0  0  0  0  0  0  0  0  0  0
    8.7453   -3.6405   23.7435 H   0  0  0  0  0  0  0  0  0  0  0  0
   10.6273   -2.0405   21.9469 H   0  0  0  0  0  0  0  0  0  0  0  0
   10.8183   -3.7006   22.5065 H   0  0  0  0  0  0  0  0  0  0  0  0
   10.8625   -2.8913   24.8709 H   0  0  0  0  0  0  0  0  0  0  0  0
   12.2511   -2.3259   23.9159 H   0  0  0  0  0  0  0  0  0  0  0  0
   11.0384   -0.6524   25.3359 H   0  0  0  0  0  0  0  0  0  0  0  0
   12.9257    0.3922   25.0478 H   0  0  0  0  0  0  0  0  0  0  0  0
   12.4572    1.8796   24.2211 H   0  0  0  0  0  0  0  0  0  0  0  0
   13.3104    0.4752   22.0432 H   0  0  0  0  0  0  0  0  0  0  0  0
   14.4833    1.4081   22.9869 H   0  0  0  0  0  0  0  0  0  0  0  0
   14.2885   -0.3496   23.2491 H   0  0  0  0  0  0  0  0  0  0  0  0
  1  2  1  0
  2  3  1  0
  3  4  2  0
  3  5  1  0
  5  6  1  0
  6  7  1  0
  7  8  1  0
  8  9  1  0
  9 10  2  0
 10 11  1  0
 11 12  1  0
 12 13  1  0
 13 14  2  0
 14 15  1  0
 15 16  2  0
 16 17  1  0
 17 18  1  0
 17 19  2  0
 19 20  1  0
 16 21  1  0
 15 22  1  0
 14 23  1  0
 12 24  1  0
 12 25  1  0
 11 26  1  0
 26 27  2  0
 26 28  1  0
 28 29  1  0
 29 30  2  0
 30 31  1  0
 31 32  2  0
 32 33  1  0
 33 34  2  0
 34 35  1  0
 35 36  2  0
 36 37  1  0
 37 38  2  0
 37 39  1  0
 36 40  1  0
 35 41  1  0
 34 42  1  0
 32 43  1  0
 30 44  1  0
 28 45  1  0
 28 46  1  0
 10 47  1  0
 47 48  2  0
 48 49  1  0
 49 50  2  0
 49 51  1  0
 48 52  1  0
 47 53  1  0
  8 54  1  0
  8 55  1  0
  7 56  1  0
  7 57  1  0
  6 58  1  0
  6 59  1  0
  5 60  1  1
  2 61  1  0
  2 62  1  0
  1 63  1  0
  1 64  1  0
  1 65  1  0
 50  5  1  0
 50  9  1  0
 19 13  1  0
 38 29  1  0
 38 33  1  0
M  CHG  1   5   1
M  END
>  <cnnaffinities>  (94) 
[6.78264, 6.60215]

>  <score>  (94) 
6.78264

>  <index>  (94) 
94

>  <Smiles>  (94) 
C(C(C(=O)[N@@+]1(C(C(C(c2c(N(C(c3c(c(c(c(Cl)c3[H])[H])[H])[H])([H])[H])C(=O)C(c3c(nc(c4c(c(c(c(c34)[H])[H])[H])[H])[H])[H])([H])[H])c(c(c(c12)[H])[H])[H])([H])[H])([H])[H])([H])[H])[H])([H])[H])([H])([H])[H]

>  <h>  (94) 
<NA>

>  <Training>  (94) 
True

>  <Success>  (94) 
True

>  <enamine_searched>  (94) 
False

>  <enamine_id>  (94) 
nan

$$$$

     RDKit          3D

 67 71  0  0  0  0  0  0  0  0999 V2000
    7.6793   -8.3882   22.9386 C   0  0  0  0  0  0  0  0  0  0  0  0
    6.7278   -7.3677   22.5646 N   0  0  0  0  0  0  0  0  0  0  0  0
    7.0645   -6.5025   21.5677 C   0  0  0  0  0  0  0  0  0  0  0  0
    8.0218   -6.6621   20.8268 O   0  0  0  0  0  0  0  0  0  0  0  0
    6.1863   -5.2472   21.4895 C   0  0  0  0  0  0  0  0  0  0  0  0
    6.6113   -4.2795   22.4870 N   0  0  0  0  0  0  0  0  0  0  0  0
    7.7344   -3.3848   22.2443 C   0  0  0  0  0  0  0  0  0  0  0  0
    7.3709   -1.9354   22.6445 C   0  0  2  0  0  0  0  0  0  0  0  0
    6.2832   -1.4448   21.6579 C   0  0  0  0  0  0  0  0  0  0  0  0
    5.1546   -1.8669   21.5472 O   0  0  0  0  0  0  0  0  0  0  0  0
    6.8292   -0.4601   20.8568 N   0  0  0  0  0  0  0  0  0  0  0  0
    6.1027    0.0880   19.7845 C   0  0  0  0  0  0  0  0  0  0  0  0
    6.4601   -0.1957   18.4926 C   0  0  0  0  0  0  0  0  0  0  0  0
    5.7948    0.2515   17.4041 N   0  0  0  0  0  0  0  0  0  0  0  0
    4.7534    1.0198   17.6092 C   0  0  0  0  0  0  0  0  0  0  0  0
    4.2887    1.4028   18.8989 C   0  0  0  0  0  0  0  0  0  0  0  0
    3.1544    2.2366   19.0641 C   0  0  0  0  0  0  0  0  0  0  0  0
    2.7605    2.6335   20.3111 C   0  0  0  0  0  0  0  0  0  0  0  0
    3.4708    2.2005   21.4544 C   0  0  0  0  0  0  0  0  0  0  0  0
    4.5592    1.3752   21.3248 C   0  0  0  0  0  0  0  0  0  0  0  0
    4.9873    0.9448   20.0354 C   0  0  0  0  0  0  0  0  0  0  0  0
    5.1005    1.0367   22.2046 H   0  0  0  0  0  0  0  0  0  0  0  0
    3.1518    2.5275   22.4399 H   0  0  0  0  0  0  0  0  0  0  0  0
    1.9054    3.2920   20.4300 H   0  0  0  0  0  0  0  0  0  0  0  0
    2.6292    2.5660   18.1717 H   0  0  0  0  0  0  0  0  0  0  0  0
    4.2226    1.3822   16.7291 H   0  0  0  0  0  0  0  0  0  0  0  0
    7.3084   -0.8514   18.2964 H   0  0  0  0  0  0  0  0  0  0  0  0
    8.2706   -0.3981   20.9514 C   0  0  0  0  0  0  0  0  0  0  0  0
    8.5197   -0.9173   22.3714 C   0  0  2  0  0  0  0  0  0  0  0  0
    9.9595   -1.3901   22.5246 C   0  0  0  0  0  0  0  0  0  0  0  0
   10.4308   -1.5684   24.2474 S   0  0  0  0  0  0  0  0  0  0  0  0
   10.2648   -0.2699   24.8844 O   0  0  0  0  0  0  0  0  0  0  0  0
    9.8180   -2.7767   24.7804 O   0  0  0  0  0  0  0  0  0  0  0  0
   12.0556   -1.8868   24.1821 N   0  0  0  0  0  0  0  0  0  0  0  0
   12.9638   -0.7913   23.8934 C   0  0  0  0  0  0  0  0  0  0  0  0
   13.9570   -1.0585   24.2647 H   0  0  0  0  0  0  0  0  0  0  0  0
   12.6224    0.1027   24.4164 H   0  0  0  0  0  0  0  0  0  0  0  0
   13.0501   -0.5828   22.8186 H   0  0  0  0  0  0  0  0  0  0  0  0
   12.3968   -3.1750   23.6061 C   0  0  0  0  0  0  0  0  0  0  0  0
   11.7917   -3.9285   24.1056 H   0  0  0  0  0  0  0  0  0  0  0  0
   12.2219   -3.2540   22.5226 H   0  0  0  0  0  0  0  0  0  0  0  0
   13.4483   -3.3823   23.8105 H   0  0  0  0  0  0  0  0  0  0  0  0
   10.1097   -2.3480   22.0100 H   0  0  0  0  0  0  0  0  0  0  0  0
   10.6464   -0.6500   22.0996 H   0  0  0  0  0  0  0  0  0  0  0  0
    8.3643   -0.0631   23.0310 H   0  0  0  0  0  0  0  0  0  0  0  0
    8.6193    0.6298   20.8154 H   0  0  0  0  0  0  0  0  0  0  0  0
    8.7665   -1.0274   20.1955 H   0  0  0  0  0  0  0  0  0  0  0  0
    6.8701   -2.0044   24.0800 C   0  0  0  0  0  0  0  0  0  0  0  0
    6.8587   -0.8765   24.9080 C   0  0  0  0  0  0  0  0  0  0  0  0
    6.3790   -0.9784   26.2000 C   0  0  0  0  0  0  0  0  0  0  0  0
    6.3042    0.1318   26.9547 F   0  0  0  0  0  0  0  0  0  0  0  0
    5.9611   -2.1837   26.7526 C   0  0  0  0  0  0  0  0  0  0  0  0
    5.9536   -3.2994   25.9426 C   0  0  0  0  0  0  0  0  0  0  0  0
    6.3514   -3.2003   24.6121 C   0  0  0  0  0  0  0  0  0  0  0  0
    6.1168   -4.3892   23.7459 C   0  0  0  0  0  0  0  0  0  0  0  0
    5.4817   -5.3764   24.1229 O   0  0  0  0  0  0  0  0  0  0  0  0
    5.6208   -4.2655   26.3081 H   0  0  0  0  0  0  0  0  0  0  0  0
    5.6252   -2.2210   27.7809 H   0  0  0  0  0  0  0  0  0  0  0  0
    7.2219    0.0887   24.5756 H   0  0  0  0  0  0  0  0  0  0  0  0
    8.5939   -3.7177   22.8400 H   0  0  0  0  0  0  0  0  0  0  0  0
    7.9985   -3.4289   21.1928 H   0  0  0  0  0  0  0  0  0  0  0  0
    6.2723   -4.7897   20.4996 H   0  0  0  0  0  0  0  0  0  0  0  0
    5.1288   -5.4771   21.6690 H   0  0  0  0  0  0  0  0  0  0  0  0
    6.0987   -7.0122   23.2828 H   0  0  0  0  0  0  0  0  0  0  0  0
    8.3794   -8.0342   23.7018 H   0  0  0  0  0  0  0  0  0  0  0  0
    8.2457   -8.6631   22.0560 H   0  0  0  0  0  0  0  0  0  0  0  0
    7.1619   -9.2720   23.2998 H   0  0  0  0  0  0  0  0  0  0  0  0
  1  2  1  0
  2  3  1  0
  3  4  2  0
  3  5  1  0
  5  6  1  0
  6  7  1  0
  8  7  1  6
  8  9  1  0
  9 10  2  0
  9 11  1  0
 11 12  1  0
 12 13  2  0
 13 14  1  0
 14 15  2  0
 15 16  1  0
 16 17  2  0
 17 18  1  0
 18 19  2  0
 19 20  1  0
 20 21  2  0
 20 22  1  0
 19 23  1  0
 18 24  1  0
 17 25  1  0
 15 26  1  0
 13 27  1  0
 11 28  1  0
 28 29  1  0
 29 30  1  0
 30 31  1  0
 31 32  2  0
 31 33  2  0
 31 34  1  0
 34 35  1  0
 35 36  1  0
 35 37  1  0
 35 38  1  0
 34 39  1  0
 39 40  1  0
 39 41  1  0
 39 42  1  0
 30 43  1  0
 30 44  1  0
 29 45  1  1
 28 46  1  0
 28 47  1  0
  8 48  1  0
 48 49  2  0
 49 50  1  0
 50 51  1  0
 50 52  2  0
 52 53  1  0
 53 54  2  0
 54 55  1  0
 55 56  2  0
 53 57  1  0
 52 58  1  0
 49 59  1  0
  7 60  1  0
  7 61  1  0
  5 62  1  0
  5 63  1  0
  2 64  1  0
  1 65  1  0
  1 66  1  0
  1 67  1  0
 55  6  1  0
 29  8  1  0
 54 48  1  0
 21 12  1  0
 21 16  1  0
M  END
>  <cnnaffinities>  (95) 
[7.24748]

>  <score>  (95) 
7.24748

>  <index>  (95) 
95

>  <Smiles>  (95) 
C(N(C(=O)C(N1C([C@@]2(C(=O)N(c3c(nc(c4c(c(c(c(c34)[H])[H])[H])[H])[H])[H])C([C@@]2(C(S(=O)(=O)N(C([H])([H])[H])C([H])([H])[H])([H])[H])[H])([H])[H])c2c(c(F)c(c(c2C1=O)[H])[H])[H])([H])[H])([H])[H])[H])([H])([H])[H]

>  <h>  (95) 
<NA>

>  <Training>  (95) 
True

>  <Success>  (95) 
True

>  <enamine_searched>  (95) 
False

>  <enamine_id>  (95) 
nan

$$$$

     RDKit          3D

 37 39  0  0  0  0  0  0  0  0999 V2000
    8.6807    1.3124   20.6412 O   0  0  0  0  0  0  0  0  0  0  0  0
    7.9075    0.7268   21.3806 C   0  0  0  0  0  0  0  0  0  0  0  0
    6.9894   -0.3961   20.8969 C   0  0  0  0  0  0  0  0  0  0  0  0
    6.1121    0.0932   19.7780 C   0  0  0  0  0  0  0  0  0  0  0  0
    6.4295   -0.2036   18.4792 C   0  0  0  0  0  0  0  0  0  0  0  0
    5.7584    0.2379   17.3881 N   0  0  0  0  0  0  0  0  0  0  0  0
    4.7293    1.0184   17.5985 C   0  0  0  0  0  0  0  0  0  0  0  0
    4.2739    1.4042   18.8889 C   0  0  0  0  0  0  0  0  0  0  0  0
    3.1401    2.2381   19.0604 C   0  0  0  0  0  0  0  0  0  0  0  0
    2.7354    2.6166   20.3094 C   0  0  0  0  0  0  0  0  0  0  0  0
    3.4441    2.1619   21.4428 C   0  0  0  0  0  0  0  0  0  0  0  0
    4.5389    1.3435   21.3044 C   0  0  0  0  0  0  0  0  0  0  0  0
    4.9884    0.9405   20.0175 C   0  0  0  0  0  0  0  0  0  0  0  0
    5.0603    1.0084   22.1947 H   0  0  0  0  0  0  0  0  0  0  0  0
    3.1125    2.4670   22.4293 H   0  0  0  0  0  0  0  0  0  0  0  0
    1.8806    3.2745   20.4371 H   0  0  0  0  0  0  0  0  0  0  0  0
    2.6086    2.5815   18.1775 H   0  0  0  0  0  0  0  0  0  0  0  0
    4.1983    1.3825   16.7194 H   0  0  0  0  0  0  0  0  0  0  0  0
    7.2842   -0.8458   18.2657 H   0  0  0  0  0  0  0  0  0  0  0  0
    7.6128   -1.2202   20.5245 H   0  0  0  0  0  0  0  0  0  0  0  0
    6.4002   -0.7884   21.7348 H   0  0  0  0  0  0  0  0  0  0  0  0
    7.7593    1.0696   22.6943 N   0  0  0  0  0  0  0  0  0  0  0  0
    8.6938    2.0233   23.2689 C   0  0  0  0  0  0  0  0  0  0  0  0
   10.1070    1.4847   23.3612 C   0  0  0  0  0  0  0  0  0  0  0  0
   11.1565    2.1016   22.6835 C   0  0  0  0  0  0  0  0  0  0  0  0
   12.4461    1.5768   22.7532 C   0  0  0  0  0  0  0  0  0  0  0  0
   12.6680    0.3636   23.3947 C   0  0  0  0  0  0  0  0  0  0  0  0
   11.6088   -0.2473   24.0586 C   0  0  0  0  0  0  0  0  0  0  0  0
   11.8330   -1.8317   24.7339 Cl  0  0  0  0  0  0  0  0  0  0  0  0
   10.3539    0.3376   24.1176 C   0  0  0  0  0  0  0  0  0  0  0  0
    9.5845   -0.1073   24.7481 H   0  0  0  0  0  0  0  0  0  0  0  0
   13.6432   -0.1169   23.3717 H   0  0  0  0  0  0  0  0  0  0  0  0
   13.2789    2.1414   22.3380 H   0  0  0  0  0  0  0  0  0  0  0  0
   10.9344    2.9810   22.0830 H   0  0  0  0  0  0  0  0  0  0  0  0
    8.6708    2.9369   22.6602 H   0  0  0  0  0  0  0  0  0  0  0  0
    8.3447    2.2490   24.2787 H   0  0  0  0  0  0  0  0  0  0  0  0
    7.2656    0.4364   23.3102 H   0  0  0  0  0  0  0  0  0  0  0  0
  1  2  2  0
  2  3  1  0
  3  4  1  0
  4  5  2  0
  5  6  1  0
  6  7  2  0
  7  8  1  0
  8  9  2  0
  9 10  1  0
 10 11  2  0
 11 12  1  0
 12 13  2  0
 12 14  1  0
 11 15  1  0
 10 16  1  0
  9 17  1  0
  7 18  1  0
  5 19  1  0
  3 20  1  0
  3 21  1  0
  2 22  1  0
 22 23  1  0
 23 24  1  0
 24 25  2  0
 25 26  1  0
 26 27  2  0
 27 28  1  0
 28 29  1  0
 28 30  2  0
 30 31  1  0
 27 32  1  0
 26 33  1  0
 25 34  1  0
 23 35  1  0
 23 36  1  0
 22 37  1  0
 13  4  1  0
 30 24  1  0
 13  8  1  0
M  END
>  <cnnaffinities>  (96) 
[5.11838, 5.01988, 4.59454]

>  <score>  (96) 
5.11838

>  <index>  (96) 
96

>  <Smiles>  (96) 
O=C(C(c1c(nc(c2c(c(c(c(c12)[H])[H])[H])[H])[H])[H])([H])[H])N(C(c1c(c(c(c(Cl)c1[H])[H])[H])[H])([H])[H])[H]

>  <h>  (96) 
<NA>

>  <Training>  (96) 
True

>  <Success>  (96) 
True

>  <enamine_searched>  (96) 
False

>  <enamine_id>  (96) 
nan

$$$$
