
     RDKit          3D

 63 69  0  0  0  0  0  0  0  0999 V2000
   10.0888    2.4461   25.1442 O   0  0  0  0  0  0  0  0  0  0  0  0
    9.5510    1.5867   24.4591 C   0  0  0  0  0  0  0  0  0  0  0  0
   10.3405    0.6299   23.6174 C   0  0  0  0  0  0  0  0  0  0  0  0
   11.7333    0.7333   23.6276 C   0  0  0  0  0  0  0  0  0  0  0  0
   12.4989    0.0495   22.6986 C   0  0  0  0  0  0  0  0  0  0  0  0
   11.8395   -0.7640   21.7696 C   0  0  0  0  0  0  0  0  0  0  0  0
   12.6780   -1.5431   20.4543 Cl  0  0  0  0  0  0  0  0  0  0  0  0
   10.4731   -0.9517   21.8188 C   0  0  0  0  0  0  0  0  0  0  0  0
    9.6954   -0.2755   22.7620 C   0  0  0  0  0  0  0  0  0  0  0  0
    8.1857   -0.4397   22.7325 C   0  0  1  0  0  0  0  0  0  0  0  0
    7.5949    0.1685   24.0271 C   0  0  0  0  0  0  0  0  0  0  0  0
    8.1874    1.4529   24.3623 N   0  0  0  0  0  0  0  0  0  0  0  0
    7.3525    2.5784   24.7143 C   0  0  0  0  0  0  0  0  0  0  0  0
    7.1207    3.5256   23.5760 C   0  0  0  0  0  0  0  0  0  0  0  0
    5.9919    3.9418   23.1068 N   0  0  0  0  0  0  0  0  0  0  0  0
    6.2952    4.9262   22.1715 N   0  0  0  0  0  0  0  0  0  0  0  0
    7.5768    5.0184   22.1605 C   0  0  0  0  0  0  0  0  0  0  0  0
    8.1773    4.1554   23.0145 O   0  0  0  0  0  0  0  0  0  0  0  0
    8.1950    5.7084   21.6039 H   0  0  0  0  0  0  0  0  0  0  0  0
    6.3719    2.2339   25.0480 H   0  0  0  0  0  0  0  0  0  0  0  0
    7.8386    3.1214   25.5309 H   0  0  0  0  0  0  0  0  0  0  0  0
    7.7793   -0.5324   24.8503 H   0  0  0  0  0  0  0  0  0  0  0  0
    6.5118    0.2944   23.9176 H   0  0  0  0  0  0  0  0  0  0  0  0
    7.6229    0.2925   21.4834 C   0  0  0  0  0  0  0  0  0  0  0  0
    7.9695    1.3687   21.0460 O   0  0  0  0  0  0  0  0  0  0  0  0
    6.6450   -0.5025   20.9233 N   0  0  0  0  0  0  0  0  0  0  0  0
    5.8370   -0.0871   19.8361 C   0  0  0  0  0  0  0  0  0  0  0  0
    6.3183   -0.1549   18.5513 C   0  0  0  0  0  0  0  0  0  0  0  0
    5.6099    0.1868   17.4413 N   0  0  0  0  0  0  0  0  0  0  0  0
    4.3862    0.6214   17.6253 C   0  0  0  0  0  0  0  0  0  0  0  0
    3.7630    0.7283   18.9049 C   0  0  0  0  0  0  0  0  0  0  0  0
    2.4652    1.2735   19.0696 C   0  0  0  0  0  0  0  0  0  0  0  0
    1.9270    1.4714   20.3120 C   0  0  0  0  0  0  0  0  0  0  0  0
    2.6628    1.1305   21.4665 C   0  0  0  0  0  0  0  0  0  0  0  0
    3.8962    0.5349   21.3439 C   0  0  0  0  0  0  0  0  0  0  0  0
    4.4954    0.3611   20.0577 C   0  0  0  0  0  0  0  0  0  0  0  0
    4.4173    0.1963   22.2359 H   0  0  0  0  0  0  0  0  0  0  0  0
    2.2579    1.3588   22.4476 H   0  0  0  0  0  0  0  0  0  0  0  0
    0.9433    1.9196   20.4218 H   0  0  0  0  0  0  0  0  0  0  0  0
    1.9504    1.6094   18.1856 H   0  0  0  0  0  0  0  0  0  0  0  0
    3.8189    0.9078   16.7371 H   0  0  0  0  0  0  0  0  0  0  0  0
    7.3372   -0.4939   18.3698 H   0  0  0  0  0  0  0  0  0  0  0  0
    6.4634   -1.7862   21.5563 C   0  0  0  0  0  0  0  0  0  0  0  0
    7.6772   -1.8986   22.4866 C   0  0  2  0  0  0  0  0  0  0  0  0
    7.3401   -2.7885   23.6924 C   0  0  0  0  0  0  0  0  0  0  0  0
    7.1124   -4.1680   23.2863 N   0  0  0  0  0  0  0  0  0  0  0  0
    5.9139   -4.7567   23.0826 C   0  0  0  0  0  0  0  0  0  0  0  0
    5.9301   -5.9186   22.3829 N   0  0  0  0  0  0  0  0  0  0  0  0
    4.7493   -6.4911   22.2577 C   0  0  0  0  0  0  0  0  0  0  0  0
    3.5839   -6.0545   22.7508 N   0  0  0  0  0  0  0  0  0  0  0  0
    3.6983   -4.9110   23.4236 C   0  0  0  0  0  0  0  0  0  0  0  0
    4.7975   -4.1861   23.5812 N   0  0  0  0  0  0  0  0  0  0  0  0
    2.7886   -4.5444   23.9060 H   0  0  0  0  0  0  0  0  0  0  0  0
    4.7182   -7.4259   21.6943 H   0  0  0  0  0  0  0  0  0  0  0  0
    7.8906   -4.6617   22.8825 H   0  0  0  0  0  0  0  0  0  0  0  0
    8.1535   -2.7630   24.4251 H   0  0  0  0  0  0  0  0  0  0  0  0
    6.4309   -2.4392   24.1885 H   0  0  0  0  0  0  0  0  0  0  0  0
    8.4756   -2.3981   21.9316 H   0  0  0  0  0  0  0  0  0  0  0  0
    6.4373   -2.5844   20.8047 H   0  0  0  0  0  0  0  0  0  0  0  0
    5.5146   -1.8413   22.1161 H   0  0  0  0  0  0  0  0  0  0  0  0
   10.0262   -1.6237   21.0922 H   0  0  0  0  0  0  0  0  0  0  0  0
   13.5788    0.1608   22.6775 H   0  0  0  0  0  0  0  0  0  0  0  0
   12.1956    1.3934   24.3577 H   0  0  0  0  0  0  0  0  0  0  0  0
  1  2  2  0
  2  3  1  0
  3  4  2  0
  4  5  1  0
  5  6  2  0
  6  7  1  0
  6  8  1  0
  8  9  2  0
  9 10  1  0
 10 11  1  1
 11 12  1  0
 12 13  1  0
 13 14  1  0
 14 15  2  0
 15 16  1  0
 16 17  2  0
 17 18  1  0
 17 19  1  0
 13 20  1  0
 13 21  1  0
 11 22  1  0
 11 23  1  0
 10 24  1  0
 24 25  2  0
 24 26  1  0
 26 27  1  0
 27 28  2  0
 28 29  1  0
 29 30  2  0
 30 31  1  0
 31 32  2  0
 32 33  1  0
 33 34  2  0
 34 35  1  0
 35 36  2  0
 35 37  1  0
 34 38  1  0
 33 39  1  0
 32 40  1  0
 30 41  1  0
 28 42  1  0
 26 43  1  0
 43 44  1  0
 44 45  1  0
 45 46  1  0
 46 47  1  0
 47 48  2  0
 48 49  1  0
 49 50  2  0
 50 51  1  0
 51 52  2  0
 51 53  1  0
 49 54  1  0
 46 55  1  0
 45 56  1  0
 45 57  1  0
 44 58  1  6
 43 59  1  0
 43 60  1  0
  8 61  1  0
  5 62  1  0
  4 63  1  0
 12  2  1  0
 18 14  1  0
 36 27  1  0
 52 47  1  0
  9  3  1  0
 44 10  1  0
 36 31  1  0
M  END
>  <cnnaffinities>  (1) 
[6.68222]

>  <score>  (1) 
6.68222

>  <index>  (1) 
0

>  <Smiles>  (1) 
O=C1c2c(c(c(Cl)c(c2[C@@]2(C(N1C(c1nnc(o1)[H])([H])[H])([H])[H])C(=O)N(c1c(nc(c3c(c(c(c(c13)[H])[H])[H])[H])[H])[H])C([C@@]2(C(N(c1nc(nc(n1)[H])[H])[H])([H])[H])[H])([H])[H])[H])[H])[H]

>  <h>  (1) 
<NA>

>  <Training>  (1) 
True

>  <Success>  (1) 
True

>  <enamine_searched>  (1) 
False

>  <enamine_id>  (1) 
nan

$$$$

     RDKit          3D

 51 54  0  0  0  0  0  0  0  0999 V2000
    1.2924   -4.8241   26.0231 C   0  0  0  0  0  0  0  0  0  0  0  0
    2.0305   -3.6737   26.3785 O   0  0  0  0  0  0  0  0  0  0  0  0
    3.1013   -3.3543   25.6004 C   0  0  0  0  0  0  0  0  0  0  0  0
    3.6870   -4.2125   24.6728 C   0  0  0  0  0  0  0  0  0  0  0  0
    4.7180   -3.7595   23.8500 C   0  0  0  0  0  0  0  0  0  0  0  0
    5.2061   -2.4588   23.9707 C   0  0  0  0  0  0  0  0  0  0  0  0
    6.2347   -1.9658   23.0888 N   0  0  0  0  0  0  0  0  0  0  0  0
    7.4917   -1.4937   23.6639 C   0  0  0  0  0  0  0  0  0  0  0  0
    8.4032   -2.5809   24.1513 C   0  0  0  0  0  0  0  0  0  0  0  0
    9.7679   -2.7599   23.8032 C   0  0  0  0  0  0  0  0  0  0  0  0
    9.8786   -2.6388   23.8862 C   0  0  0  0  0  0  0  0  0  0  0  0
    8.8885   -4.4929   25.4785 C   0  0  0  0  0  0  0  0  0  0  0  0
    8.9397   -5.6080   26.1555 C   0  0  0  0  0  0  0  0  0  0  0  0
    7.4646   -6.1375   26.9629 Cl  0  0  0  0  0  0  0  0  0  0  0  0
    8.0414   -3.5047   25.0984 C   0  0  0  0  0  0  0  0  0  0  0  0
    7.0558   -3.5006   25.5526 H   0  0  0  0  0  0  0  0  0  0  0  0
    9.7626   -6.3004   26.2844 H   0  0  0  0  0  0  0  0  0  0  0  0
   10.5138   -2.7768   24.8557 H   0  0  0  0  0  0  0  0  0  0  0  0
   10.4162   -3.2122   22.8786 H   0  0  0  0  0  0  0  0  0  0  0  0
    8.0403   -0.8739   22.9517 H   0  0  0  0  0  0  0  0  0  0  0  0
    7.2658   -0.9042   24.5511 H   0  0  0  0  0  0  0  0  0  0  0  0
    5.9368   -1.9272   21.7229 C   0  0  0  0  0  0  0  0  0  0  0  0
    5.1912   -2.7336   21.2011 O   0  0  0  0  0  0  0  0  0  0  0  0
    6.5150   -0.7450   20.9103 C   0  0  0  0  0  0  0  0  0  0  0  0
    5.6870   -0.4037   19.7091 C   0  0  0  0  0  0  0  0  0  0  0  0
    6.1519   -0.5673   18.4325 C   0  0  0  0  0  0  0  0  0  0  0  0
    5.5029   -0.1655   17.3067 N   0  0  0  0  0  0  0  0  0  0  0  0
    4.3487    0.4349   17.4795 C   0  0  0  0  0  0  0  0  0  0  0  0
    3.7361    0.6476   18.7442 C   0  0  0  0  0  0  0  0  0  0  0  0
    2.5137    1.3515   18.8914 C   0  0  0  0  0  0  0  0  0  0  0  0
    1.9442    1.5100   20.1254 C   0  0  0  0  0  0  0  0  0  0  0  0
    2.5838    0.9917   21.2747 C   0  0  0  0  0  0  0  0  0  0  0  0
    3.7813    0.3336   21.1648 C   0  0  0  0  0  0  0  0  0  0  0  0
    4.3987    0.1704   19.8941 C   0  0  0  0  0  0  0  0  0  0  0  0
    4.2723   -0.0576   22.0494 H   0  0  0  0  0  0  0  0  0  0  0  0
    2.1330    1.1295   22.2525 H   0  0  0  0  0  0  0  0  0  0  0  0
    1.0067    2.0469   20.2323 H   0  0  0  0  0  0  0  0  0  0  0  0
    2.0736    1.7888   18.0031 H   0  0  0  0  0  0  0  0  0  0  0  0
    3.8307    0.7778   16.5843 H   0  0  0  0  0  0  0  0  0  0  0  0
    7.1174   -1.0489   18.2660 H   0  0  0  0  0  0  0  0  0  0  0  0
    6.5538    0.1496   21.5481 H   0  0  0  0  0  0  0  0  0  0  0  0
    7.5458   -0.9743   20.6084 H   0  0  0  0  0  0  0  0  0  0  0  0
    4.6664   -1.6320   24.9662 C   0  0  0  0  0  0  0  0  0  0  0  0
    3.6205   -2.0673   25.7635 C   0  0  0  0  0  0  0  0  0  0  0  0
    3.1819   -1.4192   26.5163 H   0  0  0  0  0  0  0  0  0  0  0  0
    5.0478   -0.6197   25.0927 H   0  0  0  0  0  0  0  0  0  0  0  0
    5.1108   -4.4104   23.0741 H   0  0  0  0  0  0  0  0  0  0  0  0
    3.3162   -5.2230   24.5468 H   0  0  0  0  0  0  0  0  0  0  0  0
    1.8588   -5.7443   26.2159 H   0  0  0  0  0  0  0  0  0  0  0  0
    0.3965   -4.8192   26.6459 H   0  0  0  0  0  0  0  0  0  0  0  0
    0.9986   -4.8008   24.9650 H   0  0  0  0  0  0  0  0  0  0  0  0
  1  2  1  0
  2  3  1  0
  3  4  2  0
  4  5  1  0
  5  6  2  0
  6  7  1  0
  7  8  1  0
  8  9  1  0
  9 10  2  0
 10 11  1  0
 11 12  2  0
 12 13  1  0
 13 14  1  0
 13 15  2  0
 15 16  1  0
 12 17  1  0
 11 18  1  0
 10 19  1  0
  8 20  1  0
  8 21  1  0
  7 22  1  0
 22 23  2  0
 22 24  1  0
 24 25  1  0
 25 26  2  0
 26 27  1  0
 27 28  2  0
 28 29  1  0
 29 30  2  0
 30 31  1  0
 31 32  2  0
 32 33  1  0
 33 34  2  0
 33 35  1  0
 32 36  1  0
 31 37  1  0
 30 38  1  0
 28 39  1  0
 26 40  1  0
 24 41  1  0
 24 42  1  0
  6 43  1  0
 43 44  2  0
 44 45  1  0
 43 46  1  0
  5 47  1  0
  4 48  1  0
  1 49  1  0
  1 50  1  0
  1 51  1  0
 44  3  1  0
 15  9  1  0
 34 25  1  0
 34 29  1  0
M  END
>  <cnnaffinities>  (2) 
[5.79532]

>  <score>  (2) 
5.79532

>  <index>  (2) 
1

>  <Smiles>  (2) 
C(Oc1c(c(c(N(C(c2c(c(c(c(Cl)c2[H])[H])[H])[H])([H])[H])C(=O)C(c2c(nc(c3c(c(c(c(c23)[H])[H])[H])[H])[H])[H])([H])[H])c(c1[H])[H])[H])[H])([H])([H])[H]

>  <h>  (2) 
<NA>

>  <Training>  (2) 
True

>  <Success>  (2) 
True

>  <enamine_searched>  (2) 
False

>  <enamine_id>  (2) 
nan

$$$$

     RDKit          3D

 56 60  0  0  0  0  0  0  0  0999 V2000
    7.2147    0.6852   28.5918 C   0  0  0  0  0  0  0  0  0  0  0  0
    7.6865    0.2192   27.3693 N   0  0  0  0  0  0  0  0  0  0  0  0
    8.2355    2.8643   26.6535 C   0  0  0  0  0  0  0  0  0  0  0  0
    8.4588    3.1231   26.7942 O   0  0  0  0  0  0  0  0  0  0  0  0
    7.9617    2.4916   24.6466 C   0  0  0  0  0  0  0  0  0  0  0  0
    8.7567    1.4161   24.2143 N   0  0  0  0  0  0  0  0  0  0  0  0
    8.2217    0.0720   24.0545 C   0  0  0  0  0  0  0  0  0  0  0  0
    8.4468   -0.4496   22.6193 C   0  0  2  0  0  0  0  0  0  0  0  0
    7.5623    0.3636   21.6304 C   0  0  0  0  0  0  0  0  0  0  0  0
    7.5284    1.5702   21.5262 O   0  0  0  0  0  0  0  0  0  0  0  0
    6.7758   -0.5189   20.9084 N   0  0  0  0  0  0  0  0  0  0  0  0
    5.9225   -0.1242   19.8376 C   0  0  0  0  0  0  0  0  0  0  0  0
    6.3625   -0.2461   18.5399 C   0  0  0  0  0  0  0  0  0  0  0  0
    5.6502    0.0879   17.4319 N   0  0  0  0  0  0  0  0  0  0  0  0
    4.4343    0.5338   17.6246 C   0  0  0  0  0  0  0  0  0  0  0  0
    3.8247    0.6688   18.9026 C   0  0  0  0  0  0  0  0  0  0  0  0
    2.5257    1.2241   19.0394 C   0  0  0  0  0  0  0  0  0  0  0  0
    1.9592    1.3826   20.2737 C   0  0  0  0  0  0  0  0  0  0  0  0
    2.6872    1.0311   21.4305 C   0  0  0  0  0  0  0  0  0  0  0  0
    3.9477    0.4916   21.3259 C   0  0  0  0  0  0  0  0  0  0  0  0
    4.5737    0.3267   20.0573 C   0  0  0  0  0  0  0  0  0  0  0  0
    4.4988    0.2491   22.2253 H   0  0  0  0  0  0  0  0  0  0  0  0
    2.2424    1.2377   22.3999 H   0  0  0  0  0  0  0  0  0  0  0  0
    0.9727    1.8235   20.3803 H   0  0  0  0  0  0  0  0  0  0  0  0
    2.0389    1.5836   18.1420 H   0  0  0  0  0  0  0  0  0  0  0  0
    3.8529    0.8061   16.7421 H   0  0  0  0  0  0  0  0  0  0  0  0
    7.3696   -0.6093   18.3491 H   0  0  0  0  0  0  0  0  0  0  0  0
    7.1829   -1.9011   21.0800 C   0  0  0  0  0  0  0  0  0  0  0  0
    7.9450   -1.9069   22.4144 C   0  0  2  0  0  0  0  0  0  0  0  0
    7.0599   -2.4180   23.5364 N   0  0  0  0  0  4  0  0  0  0  0  0
    6.1952   -1.8539   23.6022 H   0  0  0  0  0  0  0  0  0  0  0  0
    7.5727   -2.3764   24.4304 H   0  0  0  0  0  0  0  0  0  0  0  0
    6.8082   -3.4034   23.3509 H   0  0  0  0  0  0  0  0  0  0  0  0
    8.7887   -2.5866   22.3930 H   0  0  0  0  0  0  0  0  0  0  0  0
    7.8390   -2.2176   20.2614 H   0  0  0  0  0  0  0  0  0  0  0  0
    6.3157   -2.5698   21.1145 H   0  0  0  0  0  0  0  0  0  0  0  0
    9.9436   -0.3126   22.3513 C   0  0  0  0  0  0  0  0  0  0  0  0
   10.6039   -1.1746   21.4662 C   0  0  0  0  0  0  0  0  0  0  0  0
   11.9705   -1.0730   21.2807 C   0  0  0  0  0  0  0  0  0  0  0  0
   12.7317   -2.1459   20.1342 Cl  0  0  0  0  0  0  0  0  0  0  0  0
   12.7353   -0.1114   21.9385 C   0  0  0  0  0  0  0  0  0  0  0  0
   12.0877    0.7610   22.7920 C   0  0  0  0  0  0  0  0  0  0  0  0
   10.7121    0.6630   23.0028 C   0  0  0  0  0  0  0  0  0  0  0  0
   10.0717    1.6610   23.9158 C   0  0  0  0  0  0  0  0  0  0  0  0
   10.6653    2.6407   24.3413 O   0  0  0  0  0  0  0  0  0  0  0  0
   12.6372    1.5380   23.3115 H   0  0  0  0  0  0  0  0  0  0  0  0
   13.8071   -0.0593   21.7724 H   0  0  0  0  0  0  0  0  0  0  0  0
   10.0719   -1.9404   20.9146 H   0  0  0  0  0  0  0  0  0  0  0  0
    8.7409   -0.5886   24.7605 H   0  0  0  0  0  0  0  0  0  0  0  0
    7.1574    0.1151   24.2920 H   0  0  0  0  0  0  0  0  0  0  0  0
    6.8999    2.2499   24.6899 H   0  0  0  0  0  0  0  0  0  0  0  0
    8.2067    3.4336   24.1577 H   0  0  0  0  0  0  0  0  0  0  0  0
    7.1948    0.7603   26.6691 H   0  0  0  0  0  0  0  0  0  0  0  0
    6.1699    0.3866   28.8598 H   0  0  0  0  0  0  0  0  0  0  0  0
    7.8264    0.3079   29.4358 H   0  0  0  0  0  0  0  0  0  0  0  0
    7.1783    1.7900   28.7050 H   0  0  0  0  0  0  0  0  0  0  0  0
  1  2  1  0
  2  3  1  0
  3  4  2  0
  3  5  1  0
  5  6  1  0
  6  7  1  0
  8  7  1  1
  8  9  1  0
  9 10  2  0
  9 11  1  0
 11 12  1  0
 12 13  2  0
 13 14  1  0
 14 15  2  0
 15 16  1  0
 16 17  2  0
 17 18  1  0
 18 19  2  0
 19 20  1  0
 20 21  2  0
 20 22  1  0
 19 23  1  0
 18 24  1  0
 17 25  1  0
 15 26  1  0
 13 27  1  0
 11 28  1  0
 28 29  1  0
 29 30  1  0
 30 31  1  0
 30 32  1  0
 30 33  1  0
 29 34  1  6
 28 35  1  0
 28 36  1  0
  8 37  1  0
 37 38  2  0
 38 39  1  0
 39 40  1  0
 39 41  2  0
 41 42  1  0
 42 43  2  0
 43 44  1  0
 44 45  2  0
 42 46  1  0
 41 47  1  0
 38 48  1  0
  7 49  1  0
  7 50  1  0
  5 51  1  0
  5 52  1  0
  2 53  1  0
  1 54  1  0
  1 55  1  0
  1 56  1  0
 44  6  1  0
 29  8  1  0
 43 37  1  0
 21 12  1  0
 21 16  1  0
M  CHG  1  30   1
M  END
>  <cnnaffinities>  (3) 
[5.68897]

>  <score>  (3) 
5.68897

>  <index>  (3) 
2

>  <Smiles>  (3) 
C(N(C(=O)C(N1C([C@@]2(C(=O)N(c3c(nc(c4c(c(c(c(c34)[H])[H])[H])[H])[H])[H])C([C@@]2([N+]([H])([H])[H])[H])([H])[H])c2c(c(Cl)c(c(c2C1=O)[H])[H])[H])([H])[H])([H])[H])[H])([H])([H])[H]

>  <h>  (3) 
<NA>

>  <Training>  (3) 
True

>  <Success>  (3) 
True

>  <enamine_searched>  (3) 
False

>  <enamine_id>  (3) 
nan

$$$$

     RDKit          3D

 67 73  0  0  0  0  0  0  0  0999 V2000
   11.1315    2.5650   23.9154 O   0  0  0  0  0  0  0  0  0  0  0  0
   10.4699    1.5740   23.6110 C   0  0  0  0  0  0  0  0  0  0  0  0
   10.9427    0.5711   22.6152 C   0  0  0  0  0  0  0  0  0  0  0  0
   12.2873    0.6322   22.2526 C   0  0  0  0  0  0  0  0  0  0  0  0
   12.8489   -0.3558   21.4762 C   0  0  0  0  0  0  0  0  0  0  0  0
   12.0365   -1.4001   21.0430 C   0  0  0  0  0  0  0  0  0  0  0  0
   12.7421   -2.6929   20.1141 Cl  0  0  0  0  0  0  0  0  0  0  0  0
   10.6835   -1.4290   21.3211 C   0  0  0  0  0  0  0  0  0  0  0  0
   10.0972   -0.4337   22.1192 C   0  0  0  0  0  0  0  0  0  0  0  0
    8.6124   -0.4923   22.5090 C   0  0  1  0  0  0  0  0  0  0  0  0
    8.5765    0.0291   23.9755 C   0  0  0  0  0  0  0  0  0  0  0  0
    9.2597    1.2987   24.1743 N   0  0  0  0  0  0  0  0  0  0  0  0
    8.6820    2.3191   25.0372 C   0  0  0  0  0  0  0  0  0  0  0  0
    7.9330    3.3599   24.2378 C   0  0  0  0  0  0  0  0  0  0  0  0
    6.6024    3.2324   23.9136 C   0  0  0  0  0  0  0  0  0  0  0  0
    6.0222    4.2498   23.1601 C   0  0  0  0  0  0  0  0  0  0  0  0
    6.6875    5.3217   22.7418 N   0  0  0  0  0  0  0  0  0  0  0  0
    7.9815    5.4312   23.0159 N   0  0  0  0  0  0  0  0  0  0  0  0
    8.5873    4.4820   23.7213 C   0  0  0  0  0  0  0  0  0  0  0  0
    9.6543    4.6224   23.8903 H   0  0  0  0  0  0  0  0  0  0  0  0
    4.9699    4.2119   22.8838 H   0  0  0  0  0  0  0  0  0  0  0  0
    6.0177    2.3666   24.2256 H   0  0  0  0  0  0  0  0  0  0  0  0
    8.0141    1.8438   25.7632 H   0  0  0  0  0  0  0  0  0  0  0  0
    9.5035    2.7840   25.5894 H   0  0  0  0  0  0  0  0  0  0  0  0
    7.5507    0.1422   24.3250 H   0  0  0  0  0  0  0  0  0  0  0  0
    9.0688   -0.7368   24.5907 H   0  0  0  0  0  0  0  0  0  0  0  0
    7.7086    0.3464   21.5477 C   0  0  0  0  0  0  0  0  0  0  0  0
    7.8345    1.5233   21.2954 O   0  0  0  0  0  0  0  0  0  0  0  0
    6.7281   -0.4914   21.0052 N   0  0  0  0  0  0  0  0  0  0  0  0
    5.9033   -0.1083   19.8959 C   0  0  0  0  0  0  0  0  0  0  0  0
    6.3521   -0.2153   18.5984 C   0  0  0  0  0  0  0  0  0  0  0  0
    5.6574    0.1494   17.4910 N   0  0  0  0  0  0  0  0  0  0  0  0
    4.4552    0.6388   17.6632 C   0  0  0  0  0  0  0  0  0  0  0  0
    3.8370    0.7545   18.9365 C   0  0  0  0  0  0  0  0  0  0  0  0
    2.5525    1.3426   19.0828 C   0  0  0  0  0  0  0  0  0  0  0  0
    2.0311    1.6136   20.3184 C   0  0  0  0  0  0  0  0  0  0  0  0
    2.7609    1.2626   21.4755 C   0  0  0  0  0  0  0  0  0  0  0  0
    3.9831    0.6367   21.3619 C   0  0  0  0  0  0  0  0  0  0  0  0
    4.5730    0.3868   20.0926 C   0  0  0  0  0  0  0  0  0  0  0  0
    4.5020    0.3438   22.2630 H   0  0  0  0  0  0  0  0  0  0  0  0
    2.3754    1.5403   22.4526 H   0  0  0  0  0  0  0  0  0  0  0  0
    1.0718    2.1165   20.4273 H   0  0  0  0  0  0  0  0  0  0  0  0
    2.0401    1.6607   18.1878 H   0  0  0  0  0  0  0  0  0  0  0  0
    3.9252    0.9806   16.7723 H   0  0  0  0  0  0  0  0  0  0  0  0
    7.3441   -0.6061   18.3829 H   0  0  0  0  0  0  0  0  0  0  0  0
    7.1017   -1.8858   21.1300 C   0  0  0  0  0  0  0  0  0  0  0  0
    8.0105   -1.9282   22.3602 C   0  0  2  0  0  0  0  0  0  0  0  0
    7.2741   -2.5516   23.5483 C   0  0  0  0  0  0  0  0  0  0  0  0
    6.0366   -1.8877   23.8571 N   0  0  0  0  0  0  0  0  0  0  0  0
    5.2598   -2.2131   24.9176 C   0  0  0  0  0  0  0  0  0  0  0  0
    5.5375   -3.3235   25.7380 C   0  0  0  0  0  0  0  0  0  0  0  0
    4.6571   -3.5493   26.7725 C   0  0  0  0  0  0  0  0  0  0  0  0
    3.5912   -2.7739   27.0192 N   0  0  0  0  0  0  0  0  0  0  0  0
    3.4373   -1.7548   26.1841 C   0  0  0  0  0  0  0  0  0  0  0  0
    4.1954   -1.4261   25.1455 N   0  0  0  0  0  0  0  0  0  0  0  0
    2.5801   -1.1046   26.3638 H   0  0  0  0  0  0  0  0  0  0  0  0
    4.8044   -4.3951   27.4463 H   0  0  0  0  0  0  0  0  0  0  0  0
    6.3942   -3.9714   25.5667 H   0  0  0  0  0  0  0  0  0  0  0  0
    5.7229   -1.1088   23.3021 H   0  0  0  0  0  0  0  0  0  0  0  0
    7.9280   -2.5712   24.4274 H   0  0  0  0  0  0  0  0  0  0  0  0
    7.0736   -3.6060   23.3079 H   0  0  0  0  0  0  0  0  0  0  0  0
    8.8268   -2.6275   22.1984 H   0  0  0  0  0  0  0  0  0  0  0  0
    7.6227   -2.2240   20.2246 H   0  0  0  0  0  0  0  0  0  0  0  0
    6.2124   -2.5149   21.2476 H   0  0  0  0  0  0  0  0  0  0  0  0
   10.0975   -2.2502   20.9299 H   0  0  0  0  0  0  0  0  0  0  0  0
   13.9059   -0.3354   21.2406 H   0  0  0  0  0  0  0  0  0  0  0  0
   12.9074    1.4332   22.6334 H   0  0  0  0  0  0  0  0  0  0  0  0
  1  2  2  0
  2  3  1  0
  3  4  2  0
  4  5  1  0
  5  6  2  0
  6  7  1  0
  6  8  1  0
  8  9  2  0
  9 10  1  0
 10 11  1  1
 11 12  1  0
 12 13  1  0
 13 14  1  0
 14 15  2  0
 15 16  1  0
 16 17  2  0
 17 18  1  0
 18 19  2  0
 19 20  1  0
 16 21  1  0
 15 22  1  0
 13 23  1  0
 13 24  1  0
 11 25  1  0
 11 26  1  0
 10 27  1  0
 27 28  2  0
 27 29  1  0
 29 30  1  0
 30 31  2  0
 31 32  1  0
 32 33  2  0
 33 34  1  0
 34 35  2  0
 35 36  1  0
 36 37  2  0
 37 38  1  0
 38 39  2  0
 38 40  1  0
 37 41  1  0
 36 42  1  0
 35 43  1  0
 33 44  1  0
 31 45  1  0
 29 46  1  0
 46 47  1  0
 47 48  1  0
 48 49  1  0
 49 50  1  0
 50 51  2  0
 51 52  1  0
 52 53  2  0
 53 54  1  0
 54 55  2  0
 54 56  1  0
 52 57  1  0
 51 58  1  0
 49 59  1  0
 48 60  1  0
 48 61  1  0
 47 62  1  6
 46 63  1  0
 46 64  1  0
  8 65  1  0
  5 66  1  0
  4 67  1  0
 12  2  1  0
 19 14  1  0
 39 30  1  0
 55 50  1  0
  9  3  1  0
 47 10  1  0
 39 34  1  0
M  END
>  <cnnaffinities>  (4) 
[6.78829]

>  <score>  (4) 
6.78829

>  <index>  (4) 
3

>  <Smiles>  (4) 
O=C1c2c(c(c(Cl)c(c2[C@@]2(C(N1C(c1c(c(nnc1[H])[H])[H])([H])[H])([H])[H])C(=O)N(c1c(nc(c3c(c(c(c(c13)[H])[H])[H])[H])[H])[H])C([C@@]2(C(N(c1c(c(nc(n1)[H])[H])[H])[H])([H])[H])[H])([H])[H])[H])[H])[H]

>  <h>  (4) 
<NA>

>  <Training>  (4) 
True

>  <Success>  (4) 
True

>  <enamine_searched>  (4) 
False

>  <enamine_id>  (4) 
nan

$$$$

     RDKit          3D

 50 54  0  0  0  0  0  0  0  0999 V2000
    7.8799   -3.0690   23.2765 C   0  0  0  0  0  0  0  0  0  0  0  0
    8.0382   -1.9838   22.2154 C   0  0  1  0  0  0  0  0  0  0  0  0
    6.8352   -1.9372   21.2593 C   0  0  0  0  0  0  0  0  0  0  0  0
    6.7410   -0.5453   20.8796 N   0  0  0  0  0  0  0  0  0  0  0  0
    5.8983   -0.1096   19.8176 C   0  0  0  0  0  0  0  0  0  0  0  0
    6.3578   -0.1815   18.5261 C   0  0  0  0  0  0  0  0  0  0  0  0
    5.6367    0.1471   17.4240 N   0  0  0  0  0  0  0  0  0  0  0  0
    4.4180    0.5899   17.6214 C   0  0  0  0  0  0  0  0  0  0  0  0
    3.8108    0.7386   18.8991 C   0  0  0  0  0  0  0  0  0  0  0  0
    2.5182    1.3218   19.0531 C   0  0  0  0  0  0  0  0  0  0  0  0
    1.9690    1.4748   20.2999 C   0  0  0  0  0  0  0  0  0  0  0  0
    2.6823    1.0517   21.4491 C   0  0  0  0  0  0  0  0  0  0  0  0
    3.9424    0.5088   21.3269 C   0  0  0  0  0  0  0  0  0  0  0  0
    4.5493    0.3385   20.0445 C   0  0  0  0  0  0  0  0  0  0  0  0
    4.4928    0.2245   22.2201 H   0  0  0  0  0  0  0  0  0  0  0  0
    2.2562    1.2359   22.4358 H   0  0  0  0  0  0  0  0  0  0  0  0
    0.9864    1.9294   20.4178 H   0  0  0  0  0  0  0  0  0  0  0  0
    2.0212    1.7203   18.1705 H   0  0  0  0  0  0  0  0  0  0  0  0
    3.8364    0.8407   16.7361 H   0  0  0  0  0  0  0  0  0  0  0  0
    7.3547   -0.5793   18.3391 H   0  0  0  0  0  0  0  0  0  0  0  0
    7.5951    0.2926   21.5684 C   0  0  0  0  0  0  0  0  0  0  0  0
    7.7547    1.4671   21.3105 O   0  0  0  0  0  0  0  0  0  0  0  0
    8.2226   -0.5106   22.7318 C   0  0  1  0  0  0  0  0  0  0  0  0
    7.3777   -0.1584   23.9871 C   0  0  0  0  0  0  0  0  0  0  0  0
    7.9946   -0.5859   25.2389 N   0  0  0  0  0  0  0  0  0  0  0  0
    7.2067   -1.0345   26.3770 C   0  0  0  0  0  0  0  0  0  0  0  0
    7.3716   -2.4757   26.6640 C   0  0  0  0  0  0  0  0  0  0  0  0
    7.4965   -3.6078   26.8754 N   0  0  0  0  0  0  0  0  0  0  0  0
    6.1442   -0.8374   26.2112 H   0  0  0  0  0  0  0  0  0  0  0  0
    7.5516   -0.4869   27.2596 H   0  0  0  0  0  0  0  0  0  0  0  0
    9.2954   -0.2395   25.5140 C   0  0  0  0  0  0  0  0  0  0  0  0
    9.7041   -0.0904   26.6575 O   0  0  0  0  0  0  0  0  0  0  0  0
   10.1732   -0.0826   24.3143 C   0  0  0  0  0  0  0  0  0  0  0  0
   11.5334    0.0999   24.5598 C   0  0  0  0  0  0  0  0  0  0  0  0
   12.4238    0.2669   23.5224 C   0  0  0  0  0  0  0  0  0  0  0  0
   11.9233    0.2715   22.2294 C   0  0  0  0  0  0  0  0  0  0  0  0
   12.8123    0.5062   21.2504 F   0  0  0  0  0  0  0  0  0  0  0  0
   10.5839    0.0488   21.9467 C   0  0  0  0  0  0  0  0  0  0  0  0
    9.6772   -0.1531   23.0035 C   0  0  0  0  0  0  0  0  0  0  0  0
   10.2528    0.0312   20.9142 H   0  0  0  0  0  0  0  0  0  0  0  0
   13.4905    0.3919   23.6749 H   0  0  0  0  0  0  0  0  0  0  0  0
   11.8698    0.1095   25.5884 H   0  0  0  0  0  0  0  0  0  0  0  0
    6.3924   -0.6317   23.9082 H   0  0  0  0  0  0  0  0  0  0  0  0
    7.2267    0.9332   23.9870 H   0  0  0  0  0  0  0  0  0  0  0  0
    6.9795   -2.5624   20.3709 H   0  0  0  0  0  0  0  0  0  0  0  0
    5.9110   -2.2770   21.7520 H   0  0  0  0  0  0  0  0  0  0  0  0
    8.9429   -2.1906   21.6245 H   0  0  0  0  0  0  0  0  0  0  0  0
    8.7316   -3.0882   23.9614 H   0  0  0  0  0  0  0  0  0  0  0  0
    7.7828   -4.0548   22.8082 H   0  0  0  0  0  0  0  0  0  0  0  0
    6.9740   -2.9048   23.8707 H   0  0  0  0  0  0  0  0  0  0  0  0
  1  2  1  0
  2  3  1  0
  3  4  1  0
  4  5  1  0
  5  6  2  0
  6  7  1  0
  7  8  2  0
  8  9  1  0
  9 10  2  0
 10 11  1  0
 11 12  2  0
 12 13  1  0
 13 14  2  0
 13 15  1  0
 12 16  1  0
 11 17  1  0
 10 18  1  0
  8 19  1  0
  6 20  1  0
  4 21  1  0
 21 22  2  0
 21 23  1  0
 23 24  1  1
 24 25  1  0
 25 26  1  0
 26 27  1  0
 27 28  3  0
 26 29  1  0
 26 30  1  0
 25 31  1  0
 31 32  2  0
 31 33  1  0
 33 34  2  0
 34 35  1  0
 35 36  2  0
 36 37  1  0
 36 38  1  0
 38 39  2  0
 38 40  1  0
 35 41  1  0
 34 42  1  0
 24 43  1  0
 24 44  1  0
  3 45  1  0
  3 46  1  0
  2 47  1  6
  1 48  1  0
  1 49  1  0
  1 50  1  0
 23  2  1  0
 39 33  1  0
 14  5  1  0
 39 23  1  0
 14  9  1  0
M  END
>  <cnnaffinities>  (5) 
[6.21485]

>  <score>  (5) 
6.21485

>  <index>  (5) 
5

>  <Smiles>  (5) 
C([C@]1(C(N(c2c(nc(c3c(c(c(c(c23)[H])[H])[H])[H])[H])[H])C(=O)[C@]21C(N(C(C#N)([H])[H])C(=O)c1c(c(c(F)c(c21)[H])[H])[H])([H])[H])([H])[H])[H])([H])([H])[H]

>  <h>  (5) 
<NA>

>  <Training>  (5) 
True

>  <Success>  (5) 
True

>  <enamine_searched>  (5) 
False

>  <enamine_id>  (5) 
nan

$$$$

     RDKit          3D

 65 69  0  0  0  0  0  0  0  0999 V2000
    1.0531   -5.2738   28.2330 C   0  0  0  0  0  0  0  0  0  0  0  0
    0.6740   -3.8494   27.8162 C   0  0  0  0  0  0  0  0  0  0  0  0
    1.9232   -3.1152   27.3834 C   0  0  0  0  0  0  0  0  0  0  0  0
    2.7807   -2.7501   28.1416 O   0  0  0  0  0  0  0  0  0  0  0  0
    2.0406   -2.8310   25.8939 N   0  0  1  0  0  4  0  0  0  0  0  0
    1.5192   -1.3958   25.4979 C   0  0  0  0  0  0  0  0  0  0  0  0
    2.6350   -0.3883   25.6778 C   0  0  0  0  0  0  0  0  0  0  0  0
    3.9212   -0.7450   24.9116 C   0  0  0  0  0  0  0  0  0  0  0  0
    4.2558   -2.2222   24.7688 C   0  0  0  0  0  0  0  0  0  0  0  0
    5.2922   -2.6627   23.9096 C   0  0  0  0  0  0  0  0  0  0  0  0
    6.0577   -1.6998   23.1693 N   0  0  0  0  0  0  0  0  0  0  0  0
    7.0606   -0.9267   23.8937 C   0  0  0  0  0  0  0  0  0  0  0  0
    8.4474   -1.5204   23.7987 C   0  0  0  0  0  0  0  0  0  0  0  0
    8.7197   -2.7245   24.4464 C   0  0  0  0  0  0  0  0  0  0  0  0
    9.9964   -3.2728   24.3999 C   0  0  0  0  0  0  0  0  0  0  0  0
   11.0157   -2.6399   23.6960 C   0  0  0  0  0  0  0  0  0  0  0  0
   10.7294   -1.4528   23.0360 C   0  0  0  0  0  0  0  0  0  0  0  0
   11.9911   -0.6399   22.1497 Cl  0  0  0  0  0  0  0  0  0  0  0  0
    9.4583   -0.8891   23.0790 C   0  0  0  0  0  0  0  0  0  0  0  0
    9.2703    0.0399   22.5449 H   0  0  0  0  0  0  0  0  0  0  0  0
   12.0208   -3.0509   23.6692 H   0  0  0  0  0  0  0  0  0  0  0  0
   10.2044   -4.1977   24.9292 H   0  0  0  0  0  0  0  0  0  0  0  0
    7.9273   -3.2329   24.9944 H   0  0  0  0  0  0  0  0  0  0  0  0
    7.0657    0.1072   23.5359 H   0  0  0  0  0  0  0  0  0  0  0  0
    6.7474   -0.9008   24.9405 H   0  0  0  0  0  0  0  0  0  0  0  0
    6.0159   -1.7682   21.7795 C   0  0  0  0  0  0  0  0  0  0  0  0
    5.4440   -2.6650   21.1907 O   0  0  0  0  0  0  0  0  0  0  0  0
    6.6604   -0.6211   20.9826 C   0  0  0  0  0  0  0  0  0  0  0  0
    5.8007   -0.2411   19.7982 C   0  0  0  0  0  0  0  0  0  0  0  0
    6.2591   -0.3308   18.5146 C   0  0  0  0  0  0  0  0  0  0  0  0
    5.5543   -0.0003   17.3989 N   0  0  0  0  0  0  0  0  0  0  0  0
    4.3426    0.4670   17.5794 C   0  0  0  0  0  0  0  0  0  0  0  0
    3.7387    0.6482   18.8477 C   0  0  0  0  0  0  0  0  0  0  0  0
    2.4612    1.2557   19.0079 C   0  0  0  0  0  0  0  0  0  0  0  0
    1.8725    1.3000   20.2418 C   0  0  0  0  0  0  0  0  0  0  0  0
    2.5982    0.8823   21.3809 C   0  0  0  0  0  0  0  0  0  0  0  0
    3.8705    0.3908   21.2556 C   0  0  0  0  0  0  0  0  0  0  0  0
    4.4683    0.2280   19.9842 C   0  0  0  0  0  0  0  0  0  0  0  0
    4.4611    0.1806   22.1349 H   0  0  0  0  0  0  0  0  0  0  0  0
    2.1243    0.9384   22.3576 H   0  0  0  0  0  0  0  0  0  0  0  0
    0.8555    1.6667   20.3562 H   0  0  0  0  0  0  0  0  0  0  0  0
    2.0053    1.7487   18.1501 H   0  0  0  0  0  0  0  0  0  0  0  0
    3.7666    0.7276   16.6916 H   0  0  0  0  0  0  0  0  0  0  0  0
    7.2723   -0.6875   18.3367 H   0  0  0  0  0  0  0  0  0  0  0  0
    6.8431    0.2444   21.6278 H   0  0  0  0  0  0  0  0  0  0  0  0
    7.6353   -0.9754   20.6232 H   0  0  0  0  0  0  0  0  0  0  0  0
    5.5645   -4.0166   23.7488 C   0  0  0  0  0  0  0  0  0  0  0  0
    4.7412   -4.9740   24.3388 C   0  0  0  0  0  0  0  0  0  0  0  0
    3.6516   -4.5575   25.0926 C   0  0  0  0  0  0  0  0  0  0  0  0
    3.4029   -3.1964   25.2779 C   0  0  0  0  0  0  0  0  0  0  0  0
    2.9542   -5.2887   25.4913 H   0  0  0  0  0  0  0  0  0  0  0  0
    4.9211   -6.0336   24.1688 H   0  0  0  0  0  0  0  0  0  0  0  0
    6.4123   -4.3190   23.1380 H   0  0  0  0  0  0  0  0  0  0  0  0
    4.7521   -0.2103   25.3798 H   0  0  0  0  0  0  0  0  0  0  0  0
    3.8201   -0.3401   23.9002 H   0  0  0  0  0  0  0  0  0  0  0  0
    2.8381   -0.2796   26.7445 H   0  0  0  0  0  0  0  0  0  0  0  0
    2.2792    0.5842   25.3179 H   0  0  0  0  0  0  0  0  0  0  0  0
    1.1850   -1.4326   24.4595 H   0  0  0  0  0  0  0  0  0  0  0  0
    0.6528   -1.1519   26.1145 H   0  0  0  0  0  0  0  0  0  0  0  0
    1.3966   -3.5133   25.4513 H   0  0  0  0  0  0  0  0  0  0  0  0
   -0.0851   -3.8520   27.0247 H   0  0  0  0  0  0  0  0  0  0  0  0
    0.2853   -3.2734   28.6585 H   0  0  0  0  0  0  0  0  0  0  0  0
    1.8647   -5.2399   28.9641 H   0  0  0  0  0  0  0  0  0  0  0  0
    0.2061   -5.8145   28.6645 H   0  0  0  0  0  0  0  0  0  0  0  0
    1.4126   -5.8371   27.3645 H   0  0  0  0  0  0  0  0  0  0  0  0
  1  2  1  0
  2  3  1  0
  3  4  2  0
  3  5  1  0
  5  6  1  0
  6  7  1  0
  7  8  1  0
  8  9  1  0
  9 10  2  0
 10 11  1  0
 11 12  1  0
 12 13  1  0
 13 14  2  0
 14 15  1  0
 15 16  2  0
 16 17  1  0
 17 18  1  0
 17 19  2  0
 19 20  1  0
 16 21  1  0
 15 22  1  0
 14 23  1  0
 12 24  1  0
 12 25  1  0
 11 26  1  0
 26 27  2  0
 26 28  1  0
 28 29  1  0
 29 30  2  0
 30 31  1  0
 31 32  2  0
 32 33  1  0
 33 34  2  0
 34 35  1  0
 35 36  2  0
 36 37  1  0
 37 38  2  0
 37 39  1  0
 36 40  1  0
 35 41  1  0
 34 42  1  0
 32 43  1  0
 30 44  1  0
 28 45  1  0
 28 46  1  0
 10 47  1  0
 47 48  2  0
 48 49  1  0
 49 50  2  0
 49 51  1  0
 48 52  1  0
 47 53  1  0
  8 54  1  0
  8 55  1  0
  7 56  1  0
  7 57  1  0
  6 58  1  0
  6 59  1  0
  5 60  1  6
  2 61  1  0
  2 62  1  0
  1 63  1  0
  1 64  1  0
  1 65  1  0
 50  5  1  0
 50  9  1  0
 19 13  1  0
 38 29  1  0
 38 33  1  0
M  CHG  1   5   1
M  END
>  <cnnaffinities>  (6) 
[6.61556]

>  <score>  (6) 
6.61556

>  <index>  (6) 
6

>  <Smiles>  (6) 
C(C(C(=O)[N@+]1(C(C(C(c2c(N(C(c3c(c(c(c(Cl)c3[H])[H])[H])[H])([H])[H])C(=O)C(c3c(nc(c4c(c(c(c(c34)[H])[H])[H])[H])[H])[H])([H])[H])c(c(c(c12)[H])[H])[H])([H])[H])([H])[H])([H])[H])[H])([H])[H])([H])([H])[H]

>  <h>  (6) 
<NA>

>  <Training>  (6) 
True

>  <Success>  (6) 
True

>  <enamine_searched>  (6) 
False

>  <enamine_id>  (6) 
nan

$$$$

     RDKit          3D

 66 71  0  0  0  0  0  0  0  0999 V2000
    7.9216   -3.2287   23.1266 C   0  0  0  0  0  0  0  0  0  0  0  0
    7.9707   -2.1066   22.0879 C   0  0  1  0  0  0  0  0  0  0  0  0
    6.7477   -2.0393   21.1600 C   0  0  0  0  0  0  0  0  0  0  0  0
    6.6734   -0.6412   20.7875 N   0  0  0  0  0  0  0  0  0  0  0  0
    5.8288   -0.1852   19.7421 C   0  0  0  0  0  0  0  0  0  0  0  0
    6.2875   -0.2373   18.4540 C   0  0  0  0  0  0  0  0  0  0  0  0
    5.5638    0.1096   17.3603 N   0  0  0  0  0  0  0  0  0  0  0  0
    4.3349    0.5201   17.5577 C   0  0  0  0  0  0  0  0  0  0  0  0
    3.7365    0.6594   18.8394 C   0  0  0  0  0  0  0  0  0  0  0  0
    2.4608    1.2625   19.0136 C   0  0  0  0  0  0  0  0  0  0  0  0
    1.8939    1.3299   20.2564 C   0  0  0  0  0  0  0  0  0  0  0  0
    2.6172    0.8936   21.3864 C   0  0  0  0  0  0  0  0  0  0  0  0
    3.8832    0.3764   21.2545 C   0  0  0  0  0  0  0  0  0  0  0  0
    4.4861    0.2613   19.9731 C   0  0  0  0  0  0  0  0  0  0  0  0
    4.4561    0.1023   22.1341 H   0  0  0  0  0  0  0  0  0  0  0  0
    2.1748    0.9805   22.3728 H   0  0  0  0  0  0  0  0  0  0  0  0
    0.9026    1.7475   20.3913 H   0  0  0  0  0  0  0  0  0  0  0  0
    1.9810    1.7326   18.1639 H   0  0  0  0  0  0  0  0  0  0  0  0
    3.7450    0.7682   16.6735 H   0  0  0  0  0  0  0  0  0  0  0  0
    7.3113   -0.5566   18.2731 H   0  0  0  0  0  0  0  0  0  0  0  0
    7.4957    0.1851   21.5214 C   0  0  0  0  0  0  0  0  0  0  0  0
    7.6610    1.3720   21.3138 O   0  0  0  0  0  0  0  0  0  0  0  0
    8.1204   -0.6501   22.6507 C   0  0  1  0  0  0  0  0  0  0  0  0
    7.2803   -0.3786   23.9194 C   0  0  0  0  0  0  0  0  0  0  0  0
    7.9249   -0.8807   25.1334 N   0  0  0  0  0  0  0  0  0  0  0  0
    7.0462   -1.1227   26.2791 C   0  0  0  0  0  0  0  0  0  0  0  0
    6.4944    0.1834   26.8618 C   0  0  0  0  0  0  0  0  0  0  0  0
    5.3556    0.5619   26.6420 O   0  0  0  0  0  0  0  0  0  0  0  0
    7.3924    0.8854   27.6211 N   0  0  0  0  0  0  0  0  0  0  0  0
    7.3232    2.3378   27.5828 C   0  0  0  0  0  0  0  0  0  0  0  0
    8.0044    2.8632   26.3413 C   0  0  0  0  0  0  0  0  0  0  0  0
    9.2951    2.6439   25.9167 C   0  0  0  0  0  0  0  0  0  0  0  0
    9.4082    3.3511   24.7020 C   0  0  0  0  0  0  0  0  0  0  0  0
    8.2598    3.9385   24.3795 N   0  0  0  0  0  0  0  0  0  0  0  0
    7.4158    3.6207   25.3783 N   0  0  0  0  0  0  0  0  0  0  0  0
    5.9908    3.8067   25.1910 C   0  0  0  0  0  0  0  0  0  0  0  0
    5.5782    4.4812   25.9463 H   0  0  0  0  0  0  0  0  0  0  0  0
    5.8709    4.2436   24.2009 H   0  0  0  0  0  0  0  0  0  0  0  0
    5.4722    2.8410   25.2411 H   0  0  0  0  0  0  0  0  0  0  0  0
   10.2450    3.4454   24.0207 H   0  0  0  0  0  0  0  0  0  0  0  0
    9.9810    1.9539   26.3831 H   0  0  0  0  0  0  0  0  0  0  0  0
    7.8162    2.7118   28.4884 H   0  0  0  0  0  0  0  0  0  0  0  0
    6.2668    2.6219   27.6223 H   0  0  0  0  0  0  0  0  0  0  0  0
    8.3325    0.5004   27.6116 H   0  0  0  0  0  0  0  0  0  0  0  0
    7.6225   -1.6694   27.0294 H   0  0  0  0  0  0  0  0  0  0  0  0
    6.1983   -1.7299   25.9524 H   0  0  0  0  0  0  0  0  0  0  0  0
    9.2220   -0.5377   25.3895 C   0  0  0  0  0  0  0  0  0  0  0  0
    9.6560   -0.3989   26.5359 O   0  0  0  0  0  0  0  0  0  0  0  0
   10.0974   -0.2750   24.2037 C   0  0  0  0  0  0  0  0  0  0  0  0
   11.4512   -0.0063   24.4176 C   0  0  0  0  0  0  0  0  0  0  0  0
   12.2904    0.2415   23.3470 C   0  0  0  0  0  0  0  0  0  0  0  0
   11.7700    0.2461   22.0549 C   0  0  0  0  0  0  0  0  0  0  0  0
   10.4222    0.0051   21.8406 C   0  0  0  0  0  0  0  0  0  0  0  0
    9.5635   -0.2730   22.9124 C   0  0  0  0  0  0  0  0  0  0  0  0
   10.0123    0.0556   20.8351 H   0  0  0  0  0  0  0  0  0  0  0  0
   12.4381    0.4782   21.2327 H   0  0  0  0  0  0  0  0  0  0  0  0
   13.3520    0.4202   23.5024 H   0  0  0  0  0  0  0  0  0  0  0  0
   11.8317    0.0001   25.4333 H   0  0  0  0  0  0  0  0  0  0  0  0
    6.2989   -0.8620   23.8328 H   0  0  0  0  0  0  0  0  0  0  0  0
    7.0974    0.7023   23.9876 H   0  0  0  0  0  0  0  0  0  0  0  0
    5.8307   -2.3686   21.6692 H   0  0  0  0  0  0  0  0  0  0  0  0
    6.8593   -2.6627   20.2691 H   0  0  0  0  0  0  0  0  0  0  0  0
    8.8617   -2.2642   21.4615 H   0  0  0  0  0  0  0  0  0  0  0  0
    7.0452   -3.1322   23.7782 H   0  0  0  0  0  0  0  0  0  0  0  0
    7.8762   -4.2131   22.6472 H   0  0  0  0  0  0  0  0  0  0  0  0
    8.8136   -3.2006   23.7629 H   0  0  0  0  0  0  0  0  0  0  0  0
  1  2  1  0
  2  3  1  0
  3  4  1  0
  4  5  1  0
  5  6  2  0
  6  7  1  0
  7  8  2  0
  8  9  1  0
  9 10  2  0
 10 11  1  0
 11 12  2  0
 12 13  1  0
 13 14  2  0
 13 15  1  0
 12 16  1  0
 11 17  1  0
 10 18  1  0
  8 19  1  0
  6 20  1  0
  4 21  1  0
 21 22  2  0
 21 23  1  0
 23 24  1  1
 24 25  1  0
 25 26  1  0
 26 27  1  0
 27 28  2  0
 27 29  1  0
 29 30  1  0
 30 31  1  0
 31 32  2  0
 32 33  1  0
 33 34  2  0
 34 35  1  0
 35 36  1  0
 36 37  1  0
 36 38  1  0
 36 39  1  0
 33 40  1  0
 32 41  1  0
 30 42  1  0
 30 43  1  0
 29 44  1  0
 26 45  1  0
 26 46  1  0
 25 47  1  0
 47 48  2  0
 47 49  1  0
 49 50  2  0
 50 51  1  0
 51 52  2  0
 52 53  1  0
 53 54  2  0
 53 55  1  0
 52 56  1  0
 51 57  1  0
 50 58  1  0
 24 59  1  0
 24 60  1  0
  3 61  1  0
  3 62  1  0
  2 63  1  6
  1 64  1  0
  1 65  1  0
  1 66  1  0
 23  2  1  0
 35 31  1  0
 54 49  1  0
 14  5  1  0
 54 23  1  0
 14  9  1  0
M  END
>  <cnnaffinities>  (7) 
[6.54915]

>  <score>  (7) 
6.54915

>  <index>  (7) 
8

>  <Smiles>  (7) 
C([C@]1(C(N(c2c(nc(c3c(c(c(c(c23)[H])[H])[H])[H])[H])[H])C(=O)[C@]21C(N(C(C(=O)N(C(c1c(c(nn1C([H])([H])[H])[H])[H])([H])[H])[H])([H])[H])C(=O)c1c(c(c(c(c21)[H])[H])[H])[H])([H])[H])([H])[H])[H])([H])([H])[H]

>  <h>  (7) 
<NA>

>  <Training>  (7) 
True

>  <Success>  (7) 
True

>  <enamine_searched>  (7) 
False

>  <enamine_id>  (7) 
nan

$$$$

     RDKit          3D

 58 63  0  0  0  0  0  0  0  0999 V2000
    8.5904   -9.6254   22.6405 C   0  0  0  0  0  0  0  0  0  0  0  0
    8.2026   -8.2671   22.1839 C   0  0  0  0  0  0  0  0  0  0  0  0
    7.0195   -7.5280   22.5296 C   0  0  0  0  0  0  0  0  0  0  0  0
    7.0710   -6.4395   21.7507 C   0  0  0  0  0  0  0  0  0  0  0  0
    6.1993   -5.2928   21.7189 C   0  0  0  0  0  0  0  0  0  0  0  0
    6.6418   -4.2689   22.6670 N   0  0  0  0  0  0  0  0  0  0  0  0
    7.7509   -3.3887   22.3020 C   0  0  0  0  0  0  0  0  0  0  0  0
    7.4396   -1.9073   22.6998 C   0  0  2  0  0  0  0  0  0  0  0  0
    6.3279   -1.3980   21.7479 C   0  0  0  0  0  0  0  0  0  0  0  0
    5.1906   -1.7900   21.7687 O   0  0  0  0  0  0  0  0  0  0  0  0
    6.8604   -0.4693   20.8596 N   0  0  0  0  0  0  0  0  0  0  0  0
    6.1145    0.0665   19.7680 C   0  0  0  0  0  0  0  0  0  0  0  0
    6.4438   -0.2189   18.4459 C   0  0  0  0  0  0  0  0  0  0  0  0
    5.8168    0.2147   17.3489 N   0  0  0  0  0  0  0  0  0  0  0  0
    4.7637    0.9974   17.5369 C   0  0  0  0  0  0  0  0  0  0  0  0
    4.1796    1.2408   18.7754 C   0  0  0  0  0  0  0  0  0  0  0  0
    2.7725    1.8361   18.6640 C   0  0  0  0  0  0  0  0  0  0  0  0
    0.8025    2.6377   20.5695 C   0  0  0  0  0  0  0  0  0  0  0  0
    3.3436    1.7872   21.7720 C   0  0  0  0  0  0  0  0  0  0  0  0
    4.4289    1.2018   21.4433 C   0  0  0  0  0  0  0  0  0  0  0  0
    4.9913    0.7917   19.9536 C   0  0  0  0  0  0  0  0  0  0  0  0
    5.2284    0.9741   22.2239 H   0  0  0  0  0  0  0  0  0  0  0  0
    3.0512    2.6733   22.5421 H   0  0  0  0  0  0  0  0  0  0  0  0
    1.9972    3.3164   20.4581 H   0  0  0  0  0  0  0  0  0  0  0  0
    2.5385    2.8936   18.1018 H   0  0  0  0  0  0  0  0  0  0  0  0
    4.1954    1.4028   16.6901 H   0  0  0  0  0  0  0  0  0  0  0  0
    7.2747   -0.8792   18.2608 H   0  0  0  0  0  0  0  0  0  0  0  0
    8.2997   -0.3403   20.9812 C   0  0  0  0  0  0  0  0  0  0  0  0
    8.6288   -0.9502   22.3624 C   0  0  2  0  0  0  0  0  0  0  0  0
   10.0334   -1.5582   22.4060 C   0  0  0  0  0  0  0  0  0  0  0  0
   10.7830   -0.7741   22.2402 H   0  0  0  0  0  0  0  0  0  0  0  0
   10.2299   -2.0109   23.3864 H   0  0  0  0  0  0  0  0  0  0  0  0
   10.1728   -2.3218   21.6282 H   0  0  0  0  0  0  0  0  0  0  0  0
    8.6380   -0.1224   23.0787 H   0  0  0  0  0  0  0  0  0  0  0  0
    8.8037   -0.8961   20.1766 H   0  0  0  0  0  0  0  0  0  0  0  0
    8.6058    0.7141   20.9337 H   0  0  0  0  0  0  0  0  0  0  0  0
    6.9090   -1.8554   24.1461 C   0  0  0  0  0  0  0  0  0  0  0  0
    6.8090   -0.6276   24.8332 C   0  0  0  0  0  0  0  0  0  0  0  0
    6.3388   -0.5843   26.1352 C   0  0  0  0  0  0  0  0  0  0  0  0
    6.2744    0.5962   26.7830 F   0  0  0  0  0  0  0  0  0  0  0  0
    5.9132   -1.7358   26.7902 C   0  0  0  0  0  0  0  0  0  0  0  0
    5.9154   -2.9332   26.0941 C   0  0  0  0  0  0  0  0  0  0  0  0
    6.3769   -3.0013   24.7657 C   0  0  0  0  0  0  0  0  0  0  0  0
    6.1919   -4.2846   23.9809 C   0  0  0  0  0  0  0  0  0  0  0  0
    5.6261   -5.2422   24.4805 O   0  0  0  0  0  0  0  0  0  0  0  0
    5.5248   -3.8221   26.5857 H   0  0  0  0  0  0  0  0  0  0  0  0
    5.5495   -1.6824   27.8117 H   0  0  0  0  0  0  0  0  0  0  0  0
    7.0502    0.3157   24.3531 H   0  0  0  0  0  0  0  0  0  0  0  0
    8.6587   -3.7288   22.8221 H   0  0  0  0  0  0  0  0  0  0  0  0
    7.9542   -3.4503   21.2203 H   0  0  0  0  0  0  0  0  0  0  0  0
    6.1694   -4.9066   20.6965 H   0  0  0  0  0  0  0  0  0  0  0  0
    5.2122   -5.6621   21.9798 H   0  0  0  0  0  0  0  0  0  0  0  0
    8.1308   -6.4411   20.9659 O   0  0  0  0  0  0  0  0  0  0  0  0
    8.8229   -7.4833   21.2316 N   0  0  0  0  0  0  0  0  0  0  0  0
    6.3054   -7.8296   23.2606 H   0  0  0  0  0  0  0  0  0  0  0  0
    8.0276  -10.3457   22.4461 H   0  0  0  0  0  0  0  0  0  0  0  0
    9.5200   -9.7587   22.7132 H   0  0  0  0  0  0  0  0  0  0  0  0
    8.5904   -9.6254   22.6405 H   0  0  0  0  0  0  0  0  0  0  0  0
  1  2  1  0
  2  3  1  0
  3  4  2  0
  4  5  1  0
  5  6  1  0
  6  7  1  0
  8  7  1  6
  8  9  1  0
  9 10  2  0
  9 11  1  0
 11 12  1  0
 12 13  2  0
 13 14  1  0
 14 15  2  0
 15 16  1  0
 16 17  2  0
 17 18  1  0
 18 19  2  0
 19 20  1  0
 20 21  2  0
 20 22  1  0
 19 23  1  0
 18 24  1  0
 17 25  1  0
 15 26  1  0
 13 27  1  0
 11 28  1  0
 28 29  1  0
 29 30  1  0
 30 31  1  0
 30 32  1  0
 30 33  1  0
 29 34  1  1
 28 35  1  0
 28 36  1  0
  8 37  1  0
 37 38  2  0
 38 39  1  0
 39 40  1  0
 39 41  2  0
 41 42  1  0
 42 43  2  0
 43 44  1  0
 44 45  2  0
 42 46  1  0
 41 47  1  0
 38 48  1  0
  7 49  1  0
  7 50  1  0
  5 51  1  0
  5 52  1  0
  4 53  1  0
 53 54  1  0
  3 55  1  0
  1 56  1  0
  1 57  1  0
  1 58  1  0
 54  2  2  0
 44  6  1  0
 29  8  1  0
 43 37  1  0
 21 12  1  0
 21 16  1  0
M  END
>  <cnnaffinities>  (8) 
[6.36506]

>  <score>  (8) 
6.36506

>  <index>  (8) 
9

>  <Smiles>  (8) 
C(c1c(c(C(N2C([C@@]3(C(=O)N(c4c(nc(c5c(c(c(c(c45)[H])[H])[H])[H])[H])[H])C([C@@]3(C([H])([H])[H])[H])([H])[H])c3c(c(F)c(c(c3C2=O)[H])[H])[H])([H])[H])([H])[H])on1)[H])([H])([H])[H]

>  <h>  (8) 
<NA>

>  <Training>  (8) 
True

>  <Success>  (8) 
True

>  <enamine_searched>  (8) 
False

>  <enamine_id>  (8) 
nan

$$$$

     RDKit          3D

 72 77  0  0  0  0  0  0  0  0999 V2000
    7.4721    8.3868   24.7121 C   0  0  0  0  0  0  0  0  0  0  0  0
    6.7453    7.3294   23.9024 C   0  0  1  0  0  0  0  0  0  0  0  0
    7.4856    5.9983   23.9005 C   0  0  0  0  0  0  0  0  0  0  0  0
    6.6888    4.9699   23.1459 N   0  0  0  0  0  4  0  0  0  0  0  0
    7.4117    3.6689   22.9808 C   0  0  0  0  0  0  0  0  0  0  0  0
    7.6527    2.9102   24.2880 C   0  0  0  0  0  0  0  0  0  0  0  0
    8.4056    1.6955   24.0338 N   0  0  0  0  0  0  0  0  0  0  0  0
    7.7009    0.4405   23.8728 C   0  0  0  0  0  0  0  0  0  0  0  0
    8.2017   -0.3716   22.6556 C   0  0  2  0  0  0  0  0  0  0  0  0
    7.7016    0.2362   21.3313 C   0  0  0  0  0  0  0  0  0  0  0  0
    8.1515    1.2158   20.7612 O   0  0  0  0  0  0  0  0  0  0  0  0
    6.6606   -0.5358   20.8689 N   0  0  0  0  0  0  0  0  0  0  0  0
    5.8536   -0.1285   19.7831 C   0  0  0  0  0  0  0  0  0  0  0  0
    6.3457   -0.1512   18.5015 C   0  0  0  0  0  0  0  0  0  0  0  0
    5.6168    0.1459   17.3922 N   0  0  0  0  0  0  0  0  0  0  0  0
    4.3751    0.5246   17.5895 C   0  0  0  0  0  0  0  0  0  0  0  0
    3.7564    0.6510   18.8732 C   0  0  0  0  0  0  0  0  0  0  0  0
    2.4610    1.2147   19.0483 C   0  0  0  0  0  0  0  0  0  0  0  0
    1.9125    1.3548   20.2969 C   0  0  0  0  0  0  0  0  0  0  0  0
    2.6539    0.9683   21.4399 C   0  0  0  0  0  0  0  0  0  0  0  0
    3.9121    0.4422   21.3096 C   0  0  0  0  0  0  0  0  0  0  0  0
    4.5023    0.2836   20.0168 C   0  0  0  0  0  0  0  0  0  0  0  0
    4.4851    0.1897   22.2015 H   0  0  0  0  0  0  0  0  0  0  0  0
    2.2497    1.1509   22.4328 H   0  0  0  0  0  0  0  0  0  0  0  0
    0.9150    1.7755   20.4152 H   0  0  0  0  0  0  0  0  0  0  0  0
    1.9657    1.6295   18.1760 H   0  0  0  0  0  0  0  0  0  0  0  0
    3.7783    0.7484   16.7045 H   0  0  0  0  0  0  0  0  0  0  0  0
    7.3740   -0.4554   18.3183 H   0  0  0  0  0  0  0  0  0  0  0  0
    6.3559   -1.6961   21.6903 C   0  0  0  0  0  0  0  0  0  0  0  0
    7.5898   -1.8034   22.5927 C   0  0  2  0  0  0  0  0  0  0  0  0
    7.3586   -2.5215   23.9124 C   0  0  0  0  0  0  0  0  0  0  0  0
    6.5917   -2.0241   24.5125 H   0  0  0  0  0  0  0  0  0  0  0  0
    7.0275   -3.5507   23.7435 H   0  0  0  0  0  0  0  0  0  0  0  0
    8.2799   -2.5608   24.5032 H   0  0  0  0  0  0  0  0  0  0  0  0
    8.3090   -2.4001   22.0352 H   0  0  0  0  0  0  0  0  0  0  0  0
    6.2317   -2.5843   21.0564 H   0  0  0  0  0  0  0  0  0  0  0  0
    5.4312   -1.5705   22.2716 H   0  0  0  0  0  0  0  0  0  0  0  0
    9.7050   -0.3558   22.6406 C   0  0  0  0  0  0  0  0  0  0  0  0
   10.3740   -1.2547   21.8094 C   0  0  0  0  0  0  0  0  0  0  0  0
   11.7478   -1.3034   21.7711 C   0  0  0  0  0  0  0  0  0  0  0  0
   12.4281   -2.4847   20.6767 Cl  0  0  0  0  0  0  0  0  0  0  0  0
   12.5103   -0.4341   22.5657 C   0  0  0  0  0  0  0  0  0  0  0  0
   11.8448    0.5272   23.3081 C   0  0  0  0  0  0  0  0  0  0  0  0
   10.4530    0.6022   23.3225 C   0  0  0  0  0  0  0  0  0  0  0  0
    9.7721    1.7567   24.0064 C   0  0  0  0  0  0  0  0  0  0  0  0
   10.3971    2.7015   24.4633 O   0  0  0  0  0  0  0  0  0  0  0  0
   12.4040    1.2606   23.8773 H   0  0  0  0  0  0  0  0  0  0  0  0
   13.5931   -0.4707   22.6216 H   0  0  0  0  0  0  0  0  0  0  0  0
    9.8221   -1.9170   21.1545 H   0  0  0  0  0  0  0  0  0  0  0  0
    7.8245   -0.1645   24.7812 H   0  0  0  0  0  0  0  0  0  0  0  0
    6.6381    0.6636   23.7509 H   0  0  0  0  0  0  0  0  0  0  0  0
    6.6971    2.6410   24.7521 H   0  0  0  0  0  0  0  0  0  0  0  0
    8.2151    3.5133   25.0043 H   0  0  0  0  0  0  0  0  0  0  0  0
    6.8384    3.0411   22.2915 H   0  0  0  0  0  0  0  0  0  0  0  0
    8.3742    3.8803   22.5060 H   0  0  0  0  0  0  0  0  0  0  0  0
    5.3124    4.8499   23.7513 C   0  0  0  0  0  0  0  0  0  0  0  0
    4.6314    6.2177   23.8130 C   0  0  2  0  0  0  0  0  0  0  0  0
    4.1815    6.7004   22.4396 C   0  0  0  0  0  0  0  0  0  0  0  0
    3.4521    6.0012   22.0185 H   0  0  0  0  0  0  0  0  0  0  0  0
    5.0182    6.7592   21.7351 H   0  0  0  0  0  0  0  0  0  0  0  0
    3.7221    7.6903   22.5145 H   0  0  0  0  0  0  0  0  0  0  0  0
    5.4521    7.1746   24.4764 O   0  0  0  0  0  0  0  0  0  0  0  0
    3.7525    6.1243   24.4612 H   0  0  0  0  0  0  0  0  0  0  0  0
    5.4085    4.4545   24.7640 H   0  0  0  0  0  0  0  0  0  0  0  0
    4.7183    4.1511   23.1551 H   0  0  0  0  0  0  0  0  0  0  0  0
    6.5622    5.3242   22.1761 H   0  0  0  0  0  0  0  0  0  0  0  0
    8.4711    6.1023   23.4354 H   0  0  0  0  0  0  0  0  0  0  0  0
    7.6217    5.6656   24.9338 H   0  0  0  0  0  0  0  0  0  0  0  0
    6.6535    7.6665   22.8584 H   0  0  0  0  0  0  0  0  0  0  0  0
    7.5545    8.0636   25.7557 H   0  0  0  0  0  0  0  0  0  0  0  0
    6.9194    9.3305   24.6866 H   0  0  0  0  0  0  0  0  0  0  0  0
    8.4804    8.5614   24.3178 H   0  0  0  0  0  0  0  0  0  0  0  0
  1  2  1  0
  2  3  1  0
  3  4  1  0
  4  5  1  0
  5  6  1  0
  6  7  1  0
  7  8  1  0
  9  8  1  1
  9 10  1  0
 10 11  2  0
 10 12  1  0
 12 13  1  0
 13 14  2  0
 14 15  1  0
 15 16  2  0
 16 17  1  0
 17 18  2  0
 18 19  1  0
 19 20  2  0
 20 21  1  0
 21 22  2  0
 21 23  1  0
 20 24  1  0
 19 25  1  0
 18 26  1  0
 16 27  1  0
 14 28  1  0
 12 29  1  0
 29 30  1  0
 30 31  1  0
 31 32  1  0
 31 33  1  0
 31 34  1  0
 30 35  1  6
 29 36  1  0
 29 37  1  0
  9 38  1  0
 38 39  2  0
 39 40  1  0
 40 41  1  0
 40 42  2  0
 42 43  1  0
 43 44  2  0
 44 45  1  0
 45 46  2  0
 43 47  1  0
 42 48  1  0
 39 49  1  0
  8 50  1  0
  8 51  1  0
  6 52  1  0
  6 53  1  0
  5 54  1  0
  5 55  1  0
  4 56  1  0
 56 57  1  0
 57 58  1  0
 58 59  1  0
 58 60  1  0
 58 61  1  0
 57 62  1  0
 57 63  1  1
 56 64  1  0
 56 65  1  0
  4 66  1  0
  3 67  1  0
  3 68  1  0
  2 69  1  6
  1 70  1  0
  1 71  1  0
  1 72  1  0
 62  2  1  0
 45  7  1  0
 30  9  1  0
 44 38  1  0
 22 13  1  0
 22 17  1  0
M  CHG  1   4   1
M  END
>  <cnnaffinities>  (9) 
[6.56312]

>  <score>  (9) 
6.56312

>  <index>  (9) 
10

>  <Smiles>  (9) 
C([C@]1(C([N+](C(C(N2C([C@@]3(C(=O)N(c4c(nc(c5c(c(c(c(c45)[H])[H])[H])[H])[H])[H])C([C@@]3(C([H])([H])[H])[H])([H])[H])c3c(c(Cl)c(c(c3C2=O)[H])[H])[H])([H])[H])([H])[H])([H])[H])(C([C@](C([H])([H])[H])(O1)[H])([H])[H])[H])([H])[H])[H])([H])([H])[H]

>  <h>  (9) 
<NA>

>  <Training>  (9) 
True

>  <Success>  (9) 
True

>  <enamine_searched>  (9) 
False

>  <enamine_id>  (9) 
nan

$$$$

     RDKit          3D

 67 72  0  0  0  0  0  0  0  0999 V2000
    7.1548    0.8776   28.4547 C   0  0  0  0  0  0  0  0  0  0  0  0
    7.1601    1.1524   27.0303 N   0  0  0  0  0  0  0  0  0  0  0  0
    7.8235    2.2292   26.5158 C   0  0  0  0  0  0  0  0  0  0  0  0
    8.3022    3.0916   27.2323 O   0  0  0  0  0  0  0  0  0  0  0  0
    7.9037    2.3412   24.9841 C   0  0  0  0  0  0  0  0  0  0  0  0
    8.6962    1.3355   24.3094 N   0  0  0  0  0  0  0  0  0  0  0  0
    8.1605    0.0096   24.0895 C   0  0  0  0  0  0  0  0  0  0  0  0
    8.4043   -0.4903   22.6411 C   0  0  2  0  0  0  0  0  0  0  0  0
    7.5144    0.3335   21.6687 C   0  0  0  0  0  0  0  0  0  0  0  0
    7.5072    1.5361   21.5598 O   0  0  0  0  0  0  0  0  0  0  0  0
    6.6925   -0.5337   20.9653 N   0  0  0  0  0  0  0  0  0  0  0  0
    5.8831   -0.1093   19.8745 C   0  0  0  0  0  0  0  0  0  0  0  0
    6.3500   -0.2089   18.5846 C   0  0  0  0  0  0  0  0  0  0  0  0
    5.6489    0.1426   17.4768 N   0  0  0  0  0  0  0  0  0  0  0  0
    4.4309    0.5937   17.6514 C   0  0  0  0  0  0  0  0  0  0  0  0
    3.8102    0.7354   18.9257 C   0  0  0  0  0  0  0  0  0  0  0  0
    2.5112    1.3002   19.0637 C   0  0  0  0  0  0  0  0  0  0  0  0
    1.9461    1.4687   20.2988 C   0  0  0  0  0  0  0  0  0  0  0  0
    2.6569    1.0931   21.4663 C   0  0  0  0  0  0  0  0  0  0  0  0
    3.9095    0.5243   21.3566 C   0  0  0  0  0  0  0  0  0  0  0  0
    4.5399    0.3577   20.0847 C   0  0  0  0  0  0  0  0  0  0  0  0
    4.4338    0.2225   22.2551 H   0  0  0  0  0  0  0  0  0  0  0  0
    2.2145    1.2770   22.4470 H   0  0  0  0  0  0  0  0  0  0  0  0
    0.9643    1.9306   20.3983 H   0  0  0  0  0  0  0  0  0  0  0  0
    2.0156    1.6560   18.1631 H   0  0  0  0  0  0  0  0  0  0  0  0
    3.8614    0.8546   16.7546 H   0  0  0  0  0  0  0  0  0  0  0  0
    7.3529   -0.5899   18.3902 H   0  0  0  0  0  0  0  0  0  0  0  0
    7.1410   -1.9030   21.0636 C   0  0  0  0  0  0  0  0  0  0  0  0
    7.9002   -1.9475   22.4039 C   0  0  2  0  0  0  0  0  0  0  0  0
    6.9834   -2.4878   23.5020 C   0  0  0  0  0  0  0  0  0  0  0  0
    6.6273   -3.8099   23.1720 O   0  0  0  0  0  0  0  0  0  0  0  0
    5.7417   -4.3551   24.1232 C   0  0  0  0  0  0  0  0  0  0  0  0
    5.3630   -5.7448   23.7035 C   0  0  0  0  0  0  0  0  0  0  0  0
    4.0200   -6.2626   24.1218 C   0  0  0  0  0  0  0  0  0  0  0  0
    4.2745   -5.9124   22.6833 C   0  0  0  0  0  0  0  0  0  0  0  0
    3.8145   -5.0127   22.2851 H   0  0  0  0  0  0  0  0  0  0  0  0
    4.3674   -6.7222   21.9653 H   0  0  0  0  0  0  0  0  0  0  0  0
    3.9175   -7.3062   24.3983 H   0  0  0  0  0  0  0  0  0  0  0  0
    3.3923   -5.5905   24.7017 H   0  0  0  0  0  0  0  0  0  0  0  0
    6.1955   -6.4418   23.6561 H   0  0  0  0  0  0  0  0  0  0  0  0
    4.8299   -3.7343   24.1960 H   0  0  0  0  0  0  0  0  0  0  0  0
    6.2139   -4.3606   25.1222 H   0  0  0  0  0  0  0  0  0  0  0  0
    6.0715   -1.8724   23.5957 H   0  0  0  0  0  0  0  0  0  0  0  0
    7.4969   -2.4783   24.4762 H   0  0  0  0  0  0  0  0  0  0  0  0
    8.7325   -2.6585   22.3613 H   0  0  0  0  0  0  0  0  0  0  0  0
    6.2892   -2.5870   21.0487 H   0  0  0  0  0  0  0  0  0  0  0  0
    7.7948   -2.1648   20.2226 H   0  0  0  0  0  0  0  0  0  0  0  0
    9.9000   -0.3177   22.3809 C   0  0  0  0  0  0  0  0  0  0  0  0
   10.5732   -1.1522   21.4775 C   0  0  0  0  0  0  0  0  0  0  0  0
   11.9375   -1.0247   21.2875 C   0  0  0  0  0  0  0  0  0  0  0  0
   12.7248   -2.0650   20.1281 Cl  0  0  0  0  0  0  0  0  0  0  0  0
   12.6824   -0.0530   21.9543 C   0  0  0  0  0  0  0  0  0  0  0  0
   12.0197    0.7958   22.8218 C   0  0  0  0  0  0  0  0  0  0  0  0
   10.6469    0.6709   23.0402 C   0  0  0  0  0  0  0  0  0  0  0  0
    9.9972    1.6223   23.9989 C   0  0  0  0  0  0  0  0  0  0  0  0
   10.5828    2.5908   24.4668 O   0  0  0  0  0  0  0  0  0  0  0  0
   12.5543    1.5794   23.3473 H   0  0  0  0  0  0  0  0  0  0  0  0
   13.7544    0.0182   21.7936 H   0  0  0  0  0  0  0  0  0  0  0  0
   10.0535   -1.9283   20.9250 H   0  0  0  0  0  0  0  0  0  0  0  0
    8.6523   -0.6893   24.7802 H   0  0  0  0  0  0  0  0  0  0  0  0
    7.0891    0.0359   24.2934 H   0  0  0  0  0  0  0  0  0  0  0  0
    8.3818    3.3002   24.7863 H   0  0  0  0  0  0  0  0  0  0  0  0
    6.8995    2.3368   24.5346 H   0  0  0  0  0  0  0  0  0  0  0  0
    6.7344    0.4695   26.4247 H   0  0  0  0  0  0  0  0  0  0  0  0
    7.8773    0.0952   28.7186 H   0  0  0  0  0  0  0  0  0  0  0  0
    6.1622    0.5450   28.7696 H   0  0  0  0  0  0  0  0  0  0  0  0
    7.4149    1.7903   28.9926 H   0  0  0  0  0  0  0  0  0  0  0  0
  1  2  1  0
  2  3  1  0
  3  4  2  0
  3  5  1  0
  5  6  1  0
  6  7  1  0
  8  7  1  1
  8  9  1  0
  9 10  2  0
  9 11  1  0
 11 12  1  0
 12 13  2  0
 13 14  1  0
 14 15  2  0
 15 16  1  0
 16 17  2  0
 17 18  1  0
 18 19  2  0
 19 20  1  0
 20 21  2  0
 20 22  1  0
 19 23  1  0
 18 24  1  0
 17 25  1  0
 15 26  1  0
 13 27  1  0
 11 28  1  0
 28 29  1  0
 29 30  1  0
 30 31  1  0
 31 32  1  0
 32 33  1  0
 33 34  1  0
 34 35  1  0
 35 36  1  0
 35 37  1  0
 34 38  1  0
 34 39  1  0
 33 40  1  0
 32 41  1  0
 32 42  1  0
 30 43  1  0
 30 44  1  0
 29 45  1  6
 28 46  1  0
 28 47  1  0
  8 48  1  0
 48 49  2  0
 49 50  1  0
 50 51  1  0
 50 52  2  0
 52 53  1  0
 53 54  2  0
 54 55  1  0
 55 56  2  0
 53 57  1  0
 52 58  1  0
 49 59  1  0
  7 60  1  0
  7 61  1  0
  5 62  1  0
  5 63  1  0
  2 64  1  0
  1 65  1  0
  1 66  1  0
  1 67  1  0
 55  6  1  0
 29  8  1  0
 35 33  1  0
 54 48  1  0
 21 12  1  0
 21 16  1  0
M  END
>  <cnnaffinities>  (10) 
[6.66656]

>  <score>  (10) 
6.66656

>  <index>  (10) 
13

>  <Smiles>  (10) 
C(N(C(=O)C(N1C([C@@]2(C(=O)N(c3c(nc(c4c(c(c(c(c34)[H])[H])[H])[H])[H])[H])C([C@@]2(C(OC(C2(C(C2([H])[H])([H])[H])[H])([H])[H])([H])[H])[H])([H])[H])c2c(c(Cl)c(c(c2C1=O)[H])[H])[H])([H])[H])([H])[H])[H])([H])([H])[H]

>  <h>  (10) 
<NA>

>  <Training>  (10) 
True

>  <Success>  (10) 
True

>  <enamine_searched>  (10) 
False

>  <enamine_id>  (10) 
nan

$$$$

     RDKit          3D

 67 73  0  0  0  0  0  0  0  0999 V2000
    7.4449   -2.5945   23.8018 C   0  0  0  0  0  0  0  0  0  0  0  0
    7.7190   -1.8286   22.5134 C   0  0  1  0  0  0  0  0  0  0  0  0
    6.4614   -1.7191   21.6355 C   0  0  0  0  0  0  0  0  0  0  0  0
    6.6813   -0.5023   20.8903 N   0  0  0  0  0  0  0  0  0  0  0  0
    5.8649   -0.1128   19.8066 C   0  0  0  0  0  0  0  0  0  0  0  0
    6.3461   -0.1552   18.5196 C   0  0  0  0  0  0  0  0  0  0  0  0
    5.6265    0.1902   17.4204 N   0  0  0  0  0  0  0  0  0  0  0  0
    4.3952    0.5969   17.6103 C   0  0  0  0  0  0  0  0  0  0  0  0
    3.7779    0.6830   18.8938 C   0  0  0  0  0  0  0  0  0  0  0  0
    2.4777    1.2282   19.0671 C   0  0  0  0  0  0  0  0  0  0  0  0
    1.9383    1.4167   20.3140 C   0  0  0  0  0  0  0  0  0  0  0  0
    2.6794    1.0555   21.4661 C   0  0  0  0  0  0  0  0  0  0  0  0
    3.9250    0.4804   21.3268 C   0  0  0  0  0  0  0  0  0  0  0  0
    4.5190    0.3114   20.0362 C   0  0  0  0  0  0  0  0  0  0  0  0
    4.4629    0.1743   22.2186 H   0  0  0  0  0  0  0  0  0  0  0  0
    2.2778    1.2547   22.4594 H   0  0  0  0  0  0  0  0  0  0  0  0
    0.9594    1.8792   20.4356 H   0  0  0  0  0  0  0  0  0  0  0  0
    1.9659    1.5818   18.1874 H   0  0  0  0  0  0  0  0  0  0  0  0
    3.8157    0.8665   16.7230 H   0  0  0  0  0  0  0  0  0  0  0  0
    7.3650   -0.4826   18.3289 H   0  0  0  0  0  0  0  0  0  0  0  0
    7.7250    0.2673   21.3497 C   0  0  0  0  0  0  0  0  0  0  0  0
    8.1333    1.2737   20.8056 O   0  0  0  0  0  0  0  0  0  0  0  0
    8.2871   -0.3786   22.6369 C   0  0  1  0  0  0  0  0  0  0  0  0
    7.7461    0.3430   23.8999 C   0  0  0  0  0  0  0  0  0  0  0  0
    8.3855    1.6217   24.1453 N   0  0  0  0  0  0  0  0  0  0  0  0
    7.5719    2.7722   24.4987 C   0  0  0  0  0  0  0  0  0  0  0  0
    7.2397    3.5760   23.2442 C   0  0  0  0  0  0  0  0  0  0  0  0
    6.3461    4.7488   23.4724 N   0  0  2  0  0  4  0  0  0  0  0  0
    6.9503    5.9109   24.2563 C   0  0  0  0  0  0  0  0  0  0  0  0
    5.8273    6.2520   25.2454 C   0  0  2  0  0  0  0  0  0  0  0  0
    5.3164    4.8719   25.6444 C   0  0  0  0  0  0  0  0  0  0  0  0
    5.0045    4.5108   24.1929 C   0  0  1  0  0  0  0  0  0  0  0  0
    4.1369    5.6993   23.7976 C   0  0  0  0  0  0  0  0  0  0  0  0
    4.7285    6.8042   24.5065 O   0  0  0  0  0  0  0  0  0  0  0  0
    3.0907    5.5830   24.1011 H   0  0  0  0  0  0  0  0  0  0  0  0
    4.1822    5.8810   22.7153 H   0  0  0  0  0  0  0  0  0  0  0  0
    4.6104    3.5221   23.9730 H   0  0  0  0  0  0  0  0  0  0  0  0
    4.4167    4.9248   26.2599 H   0  0  0  0  0  0  0  0  0  0  0  0
    6.0696    4.2458   26.1298 H   0  0  0  0  0  0  0  0  0  0  0  0
    6.1081    6.9463   26.0360 H   0  0  0  0  0  0  0  0  0  0  0  0
    7.8594    5.5786   24.7608 H   0  0  0  0  0  0  0  0  0  0  0  0
    7.1822    6.7300   23.5760 H   0  0  0  0  0  0  0  0  0  0  0  0
    6.1204    5.0771   22.5164 H   0  0  0  0  0  0  0  0  0  0  0  0
    6.7625    2.9139   22.5137 H   0  0  0  0  0  0  0  0  0  0  0  0
    8.1720    3.9244   22.7850 H   0  0  0  0  0  0  0  0  0  0  0  0
    8.1372    3.3741   25.2133 H   0  0  0  0  0  0  0  0  0  0  0  0
    6.6519    2.4179   24.9779 H   0  0  0  0  0  0  0  0  0  0  0  0
    9.7471    1.7563   24.1195 C   0  0  0  0  0  0  0  0  0  0  0  0
   10.3299    2.6995   24.6312 O   0  0  0  0  0  0  0  0  0  0  0  0
   10.4868    0.6878   23.3591 C   0  0  0  0  0  0  0  0  0  0  0  0
   11.8807    0.7372   23.3297 C   0  0  0  0  0  0  0  0  0  0  0  0
   12.5925   -0.0508   22.4456 C   0  0  0  0  0  0  0  0  0  0  0  0
   11.8862   -0.9046   21.5930 C   0  0  0  0  0  0  0  0  0  0  0  0
   12.6750   -1.7690   20.3042 Cl  0  0  0  0  0  0  0  0  0  0  0  0
   10.5186   -1.0508   21.7003 C   0  0  0  0  0  0  0  0  0  0  0  0
    9.7975   -0.2738   22.6118 C   0  0  0  0  0  0  0  0  0  0  0  0
   10.0261   -1.7694   21.0532 H   0  0  0  0  0  0  0  0  0  0  0  0
   13.6739    0.0184   22.4013 H   0  0  0  0  0  0  0  0  0  0  0  0
   12.3833    1.4390   23.9884 H   0  0  0  0  0  0  0  0  0  0  0  0
    6.6624    0.4999   23.8087 H   0  0  0  0  0  0  0  0  0  0  0  0
    7.9303   -0.3112   24.7608 H   0  0  0  0  0  0  0  0  0  0  0  0
    6.3596   -2.5752   20.9563 H   0  0  0  0  0  0  0  0  0  0  0  0
    5.5404   -1.6695   22.2359 H   0  0  0  0  0  0  0  0  0  0  0  0
    8.4566   -2.3883   21.9324 H   0  0  0  0  0  0  0  0  0  0  0  0
    8.3407   -2.6553   24.4284 H   0  0  0  0  0  0  0  0  0  0  0  0
    6.6439   -2.1220   24.3864 H   0  0  0  0  0  0  0  0  0  0  0  0
    7.1206   -3.6150   23.5685 H   0  0  0  0  0  0  0  0  0  0  0  0
  1  2  1  0
  2  3  1  0
  3  4  1  0
  4  5  1  0
  5  6  2  0
  6  7  1  0
  7  8  2  0
  8  9  1  0
  9 10  2  0
 10 11  1  0
 11 12  2  0
 12 13  1  0
 13 14  2  0
 13 15  1  0
 12 16  1  0
 11 17  1  0
 10 18  1  0
  8 19  1  0
  6 20  1  0
  4 21  1  0
 21 22  2  0
 21 23  1  0
 23 24  1  1
 24 25  1  0
 25 26  1  0
 26 27  1  0
 27 28  1  0
 28 29  1  0
 29 30  1  0
 30 31  1  0
 31 32  1  0
 32 33  1  0
 33 34  1  0
 33 35  1  0
 33 36  1  0
 32 37  1  1
 31 38  1  0
 31 39  1  0
 30 40  1  1
 29 41  1  0
 29 42  1  0
 28 43  1  6
 27 44  1  0
 27 45  1  0
 26 46  1  0
 26 47  1  0
 25 48  1  0
 48 49  2  0
 48 50  1  0
 50 51  2  0
 51 52  1  0
 52 53  2  0
 53 54  1  0
 53 55  1  0
 55 56  2  0
 55 57  1  0
 52 58  1  0
 51 59  1  0
 24 60  1  0
 24 61  1  0
  3 62  1  0
  3 63  1  0
  2 64  1  6
  1 65  1  0
  1 66  1  0
  1 67  1  0
 23  2  1  0
 32 28  1  0
 56 50  1  0
 14  5  1  0
 56 23  1  0
 14  9  1  0
 34 30  1  0
M  CHG  1  28   1
M  END
>  <cnnaffinities>  (11) 
[6.57099, 6.47392]

>  <score>  (11) 
6.57099

>  <index>  (11) 
14

>  <Smiles>  (11) 
C([C@]1(C(N(c2c(nc(c3c(c(c(c(c23)[H])[H])[H])[H])[H])[H])C(=O)[C@]21C(N(C(C([N@@+]1(C([C@@]3(C([C@]1(C(O3)([H])[H])[H])([H])[H])[H])([H])[H])[H])([H])[H])([H])[H])C(=O)c1c(c(c(Cl)c(c21)[H])[H])[H])([H])[H])([H])[H])[H])([H])([H])[H]

>  <h>  (11) 
<NA>

>  <Training>  (11) 
True

>  <Success>  (11) 
True

>  <enamine_searched>  (11) 
False

>  <enamine_id>  (11) 
nan

$$$$

     RDKit          3D

 72 77  0  0  0  0  0  0  0  0999 V2000
    4.4570   -4.6763   24.5395 C   0  0  0  0  0  0  0  0  0  0  0  0
    4.7623   -4.9256   26.0128 C   0  0  1  0  0  0  0  0  0  0  0  0
    5.9972   -4.1548   26.4796 C   0  0  0  0  0  0  0  0  0  0  0  0
    5.7163   -2.6888   26.6038 N   0  0  2  0  0  4  0  0  0  0  0  0
    6.9221   -1.9129   27.0350 C   0  0  0  0  0  0  0  0  0  0  0  0
    6.9951   -0.4991   26.4288 C   0  0  0  0  0  0  0  0  0  0  0  0
    7.8869   -0.4090   25.2744 N   0  0  0  0  0  0  0  0  0  0  0  0
    7.3268   -0.0925   23.9677 C   0  0  0  0  0  0  0  0  0  0  0  0
    8.2049   -0.5273   22.7578 C   0  0  2  0  0  0  0  0  0  0  0  0
    7.6467    0.2554   21.5387 C   0  0  0  0  0  0  0  0  0  0  0  0
    7.8898    1.4026   21.2300 O   0  0  0  0  0  0  0  0  0  0  0  0
    6.7514   -0.5675   20.8761 N   0  0  0  0  0  0  0  0  0  0  0  0
    5.9022   -0.1237   19.8188 C   0  0  0  0  0  0  0  0  0  0  0  0
    6.3623   -0.1898   18.5289 C   0  0  0  0  0  0  0  0  0  0  0  0
    5.6366    0.1166   17.4219 N   0  0  0  0  0  0  0  0  0  0  0  0
    4.4068    0.5301   17.6147 C   0  0  0  0  0  0  0  0  0  0  0  0
    3.7980    0.6810   18.8942 C   0  0  0  0  0  0  0  0  0  0  0  0
    2.5051    1.2578   19.0502 C   0  0  0  0  0  0  0  0  0  0  0  0
    1.9308    1.3618   20.2901 C   0  0  0  0  0  0  0  0  0  0  0  0
    2.6488    0.9286   21.4250 C   0  0  0  0  0  0  0  0  0  0  0  0
    3.9207    0.4251   21.3135 C   0  0  0  0  0  0  0  0  0  0  0  0
    4.5460    0.3070   20.0405 C   0  0  0  0  0  0  0  0  0  0  0  0
    4.4812    0.1433   22.1996 H   0  0  0  0  0  0  0  0  0  0  0  0
    2.1951    1.0314   22.4046 H   0  0  0  0  0  0  0  0  0  0  0  0
    0.9240    1.7594   20.4103 H   0  0  0  0  0  0  0  0  0  0  0  0
    2.0104    1.6732   18.1811 H   0  0  0  0  0  0  0  0  0  0  0  0
    3.8094    0.7361   16.7268 H   0  0  0  0  0  0  0  0  0  0  0  0
    7.3725   -0.5456   18.3346 H   0  0  0  0  0  0  0  0  0  0  0  0
    6.7703   -1.9506   21.3216 C   0  0  0  0  0  0  0  0  0  0  0  0
    7.9678   -2.0100   22.2892 C   0  0  2  0  0  0  0  0  0  0  0  0
    7.7830   -3.0593   23.3811 C   0  0  0  0  0  0  0  0  0  0  0  0
    7.6622   -4.0596   22.9492 H   0  0  0  0  0  0  0  0  0  0  0  0
    8.6407   -3.0896   24.0581 H   0  0  0  0  0  0  0  0  0  0  0  0
    6.8903   -2.8538   23.9823 H   0  0  0  0  0  0  0  0  0  0  0  0
    8.8630   -2.2734   21.7075 H   0  0  0  0  0  0  0  0  0  0  0  0
    6.8909   -2.6291   20.4644 H   0  0  0  0  0  0  0  0  0  0  0  0
    5.8264   -2.2232   21.8265 H   0  0  0  0  0  0  0  0  0  0  0  0
    9.6674   -0.2171   23.0514 C   0  0  0  0  0  0  0  0  0  0  0  0
   10.6118   -0.0501   22.0174 C   0  0  0  0  0  0  0  0  0  0  0  0
   11.9561    0.1216   22.3296 C   0  0  0  0  0  0  0  0  0  0  0  0
   13.1941    0.4062   21.1367 Cl  0  0  0  0  0  0  0  0  0  0  0  0
   12.4097    0.1055   23.6443 C   0  0  0  0  0  0  0  0  0  0  0  0
   11.4860   -0.0060   24.6556 C   0  0  0  0  0  0  0  0  0  0  0  0
   10.1304   -0.1531   24.3719 C   0  0  0  0  0  0  0  0  0  0  0  0
    9.2132   -0.2278   25.5492 C   0  0  0  0  0  0  0  0  0  0  0  0
    9.6386   -0.1336   26.6940 O   0  0  0  0  0  0  0  0  0  0  0  0
   11.7958    0.0229   25.6895 H   0  0  0  0  0  0  0  0  0  0  0  0
   13.4747    0.1809   23.8416 H   0  0  0  0  0  0  0  0  0  0  0  0
   10.2937   -0.0473   20.9792 H   0  0  0  0  0  0  0  0  0  0  0  0
    6.3458   -0.5811   23.8932 H   0  0  0  0  0  0  0  0  0  0  0  0
    7.1628    0.9907   23.8717 H   0  0  0  0  0  0  0  0  0  0  0  0
    7.3705    0.1904   27.1881 H   0  0  0  0  0  0  0  0  0  0  0  0
    5.9972   -0.1650   26.1318 H   0  0  0  0  0  0  0  0  0  0  0  0
    6.9163   -1.8671   28.1312 H   0  0  0  0  0  0  0  0  0  0  0  0
    7.8198   -2.4687   26.7521 H   0  0  0  0  0  0  0  0  0  0  0  0
    4.5270   -2.5140   27.5444 C   0  0  1  0  0  0  0  0  0  0  0  0
    4.1422   -1.0578   27.7594 C   0  0  0  0  0  0  0  0  0  0  0  0
    4.9342   -0.4927   28.2592 H   0  0  0  0  0  0  0  0  0  0  0  0
    3.2483   -0.9960   28.3863 H   0  0  0  0  0  0  0  0  0  0  0  0
    3.9145   -0.5731   26.8019 H   0  0  0  0  0  0  0  0  0  0  0  0
    3.3483   -3.3163   27.0088 C   0  0  0  0  0  0  0  0  0  0  0  0
    3.6512   -4.6845   26.8658 O   0  0  0  0  0  0  0  0  0  0  0  0
    2.5127   -3.2658   27.7141 H   0  0  0  0  0  0  0  0  0  0  0  0
    3.0149   -2.8796   26.0536 H   0  0  0  0  0  0  0  0  0  0  0  0
    4.8330   -2.9528   28.5019 H   0  0  0  0  0  0  0  0  0  0  0  0
    5.4615   -2.3287   25.6674 H   0  0  0  0  0  0  0  0  0  0  0  0
    6.3127   -4.5260   27.4612 H   0  0  0  0  0  0  0  0  0  0  0  0
    6.8221   -4.3105   25.7778 H   0  0  0  0  0  0  0  0  0  0  0  0
    4.9526   -5.9846   26.1609 H   0  0  0  0  0  0  0  0  0  0  0  0
    5.2948   -5.0288   23.9266 H   0  0  0  0  0  0  0  0  0  0  0  0
    3.5522   -5.2092   24.2366 H   0  0  0  0  0  0  0  0  0  0  0  0
    4.3256   -3.6090   24.3258 H   0  0  0  0  0  0  0  0  0  0  0  0
  1  2  1  0
  2  3  1  0
  3  4  1  0
  4  5  1  0
  5  6  1  0
  6  7  1  0
  7  8  1  0
  9  8  1  1
  9 10  1  0
 10 11  2  0
 10 12  1  0
 12 13  1  0
 13 14  2  0
 14 15  1  0
 15 16  2  0
 16 17  1  0
 17 18  2  0
 18 19  1  0
 19 20  2  0
 20 21  1  0
 21 22  2  0
 21 23  1  0
 20 24  1  0
 19 25  1  0
 18 26  1  0
 16 27  1  0
 14 28  1  0
 12 29  1  0
 29 30  1  0
 30 31  1  0
 31 32  1  0
 31 33  1  0
 31 34  1  0
 30 35  1  6
 29 36  1  0
 29 37  1  0
  9 38  1  0
 38 39  2  0
 39 40  1  0
 40 41  1  0
 40 42  2  0
 42 43  1  0
 43 44  2  0
 44 45  1  0
 45 46  2  0
 43 47  1  0
 42 48  1  0
 39 49  1  0
  8 50  1  0
  8 51  1  0
  6 52  1  0
  6 53  1  0
  5 54  1  0
  5 55  1  0
  4 56  1  0
 56 57  1  0
 57 58  1  0
 57 59  1  0
 57 60  1  0
 56 61  1  0
 61 62  1  0
 61 63  1  0
 61 64  1  0
 56 65  1  1
  4 66  1  6
  3 67  1  0
  3 68  1  0
  2 69  1  6
  1 70  1  0
  1 71  1  0
  1 72  1  0
 62  2  1  0
 45  7  1  0
 30  9  1  0
 44 38  1  0
 22 13  1  0
 22 17  1  0
M  CHG  1   4   1
M  END
>  <cnnaffinities>  (12) 
[6.55919]

>  <score>  (12) 
6.55919

>  <index>  (12) 
15

>  <Smiles>  (12) 
C([C@]1(C([N@+](C(C(N2C([C@@]3(C(=O)N(c4c(nc(c5c(c(c(c(c45)[H])[H])[H])[H])[H])[H])C([C@@]3(C([H])([H])[H])[H])([H])[H])c3c(c(Cl)c(c(c3C2=O)[H])[H])[H])([H])[H])([H])[H])([H])[H])([C@@](C([H])([H])[H])(C(O1)([H])[H])[H])[H])([H])[H])[H])([H])([H])[H]

>  <h>  (12) 
<NA>

>  <Training>  (12) 
True

>  <Success>  (12) 
True

>  <enamine_searched>  (12) 
False

>  <enamine_id>  (12) 
nan

$$$$

     RDKit          3D

 58 63  0  0  0  0  0  0  0  0999 V2000
    7.2597   -3.1339   23.4877 C   0  0  0  0  0  0  0  0  0  0  0  0
    7.1941   -2.3137   22.2133 C   0  0  1  0  0  0  0  0  0  0  0  0
    5.9452   -1.4573   22.0263 C   0  0  0  0  0  0  0  0  0  0  0  0
    6.3529   -0.5218   20.9765 N   0  0  0  0  0  0  0  0  0  0  0  0
    5.5940   -0.1767   19.8435 C   0  0  0  0  0  0  0  0  0  0  0  0
    6.1254   -0.2843   18.5767 C   0  0  0  0  0  0  0  0  0  0  0  0
    5.4692    0.0449   17.4386 N   0  0  0  0  0  0  0  0  0  0  0  0
    4.2676    0.5535   17.5667 C   0  0  0  0  0  0  0  0  0  0  0  0
    3.6081    0.7314   18.8140 C   0  0  0  0  0  0  0  0  0  0  0  0
    2.3600    1.3986   18.9146 C   0  0  0  0  0  0  0  0  0  0  0  0
    1.7367    1.5349   20.1244 C   0  0  0  0  0  0  0  0  0  0  0  0
    2.3586    1.0553   21.2977 C   0  0  0  0  0  0  0  0  0  0  0  0
    3.5871    0.4470   21.2351 C   0  0  0  0  0  0  0  0  0  0  0  0
    4.2542    0.2953   19.9891 C   0  0  0  0  0  0  0  0  0  0  0  0
    4.0651    0.1207   22.1508 H   0  0  0  0  0  0  0  0  0  0  0  0
    1.8709    1.1854   22.2592 H   0  0  0  0  0  0  0  0  0  0  0  0
    0.7740    2.0325   20.1973 H   0  0  0  0  0  0  0  0  0  0  0  0
    1.9515    1.8547   18.0193 H   0  0  0  0  0  0  0  0  0  0  0  0
    3.7572    0.8520   16.6507 H   0  0  0  0  0  0  0  0  0  0  0  0
    7.1351   -0.6578   18.4279 H   0  0  0  0  0  0  0  0  0  0  0  0
    7.7182   -0.3015   21.0166 C   0  0  0  0  0  0  0  0  0  0  0  0
    8.3295    0.5271   20.3730 O   0  0  0  0  0  0  0  0  0  0  0  0
    8.3489   -1.2863   21.9850 C   0  0  1  0  0  0  0  0  0  0  0  0
    8.8076   -0.5097   23.2459 C   0  0  0  0  0  0  0  0  0  0  0  0
    9.7244   -1.2347   24.1301 N   0  0  0  0  0  0  0  0  0  0  0  0
    9.6434   -0.9588   25.5559 C   0  0  0  0  0  0  0  0  0  0  0  0
    8.8505   -2.0204   26.2624 C   0  0  0  0  0  0  0  0  0  0  0  0
    9.2205   -3.2721   26.3630 N   0  0  0  0  0  0  0  0  0  0  0  0
    8.2678   -3.9366   27.0990 N   0  0  0  0  0  0  0  0  0  0  0  0
    7.3519   -3.0618   27.4056 C   0  0  0  0  0  0  0  0  0  0  0  0
    7.6648   -1.8274   26.9108 N   0  0  0  0  0  0  0  0  0  0  0  0
    6.8758   -0.6138   26.9890 C   0  0  0  0  0  0  0  0  0  0  0  0
    5.9239   -0.8532   27.4668 H   0  0  0  0  0  0  0  0  0  0  0  0
    7.3900    0.1527   27.5785 H   0  0  0  0  0  0  0  0  0  0  0  0
    6.6735   -0.2224   25.9848 H   0  0  0  0  0  0  0  0  0  0  0  0
    6.4523   -3.2612   27.9746 H   0  0  0  0  0  0  0  0  0  0  0  0
    9.2143    0.0329   25.7139 H   0  0  0  0  0  0  0  0  0  0  0  0
   10.6606   -0.9582   25.9417 H   0  0  0  0  0  0  0  0  0  0  0  0
   10.7706   -2.0294   23.6944 C   0  0  0  0  0  0  0  0  0  0  0  0
   11.7713   -2.2158   24.3617 O   0  0  0  0  0  0  0  0  0  0  0  0
   10.6397   -2.6510   22.3566 C   0  0  0  0  0  0  0  0  0  0  0  0
   11.9201   -3.2197   21.8631 C   0  0  0  0  0  0  0  0  0  0  0  0
   12.3222   -3.1215   20.5732 C   0  0  0  0  0  0  0  0  0  0  0  0
   12.3315   -3.2413   20.4856 C   0  0  0  0  0  0  0  0  0  0  0  0
   12.1547   -4.0976   19.3985 F   0  0  0  0  0  0  0  0  0  0  0  0
    9.7675   -3.1775   21.4801 C   0  0  0  0  0  0  0  0  0  0  0  0
    9.5687   -1.8654   21.3136 C   0  0  0  0  0  0  0  0  0  0  0  0
   10.1301   -1.2550   20.5891 H   0  0  0  0  0  0  0  0  0  0  0  0
   13.4990   -2.7844   20.1077 H   0  0  0  0  0  0  0  0  0  0  0  0
   12.8452   -3.0686   22.1526 H   0  0  0  0  0  0  0  0  0  0  0  0
    7.9325   -0.2343   23.8427 H   0  0  0  0  0  0  0  0  0  0  0  0
    9.2808    0.4108   22.8841 H   0  0  0  0  0  0  0  0  0  0  0  0
    5.7175   -0.9110   22.9548 H   0  0  0  0  0  0  0  0  0  0  0  0
    5.0600   -2.0237   21.7300 H   0  0  0  0  0  0  0  0  0  0  0  0
    7.2308   -2.9937   21.3530 H   0  0  0  0  0  0  0  0  0  0  0  0
    8.2429   -3.6096   23.5680 H   0  0  0  0  0  0  0  0  0  0  0  0
    7.1058   -2.5137   24.3771 H   0  0  0  0  0  0  0  0  0  0  0  0
    6.4950   -3.9171   23.4896 H   0  0  0  0  0  0  0  0  0  0  0  0
  1  2  1  0
  2  3  1  0
  3  4  1  0
  4  5  1  0
  5  6  2  0
  6  7  1  0
  7  8  2  0
  8  9  1  0
  9 10  2  0
 10 11  1  0
 11 12  2  0
 12 13  1  0
 13 14  2  0
 13 15  1  0
 12 16  1  0
 11 17  1  0
 10 18  1  0
  8 19  1  0
  6 20  1  0
  4 21  1  0
 21 22  2  0
 21 23  1  0
 23 24  1  1
 24 25  1  0
 25 26  1  0
 26 27  1  0
 27 28  2  0
 28 29  1  0
 29 30  2  0
 30 31  1  0
 31 32  1  0
 32 33  1  0
 32 34  1  0
 32 35  1  0
 30 36  1  0
 26 37  1  0
 26 38  1  0
 25 39  1  0
 39 40  2  0
 39 41  1  0
 41 42  2  0
 42 43  1  0
 43 44  2  0
 44 45  1  0
 44 46  1  0
 46 47  2  0
 46 48  1  0
 43 49  1  0
 42 50  1  0
 24 51  1  0
 24 52  1  0
  3 53  1  0
  3 54  1  0
  2 55  1  6
  1 56  1  0
  1 57  1  0
  1 58  1  0
 23  2  1  0
 31 27  1  0
 47 41  1  0
 14  5  1  0
 47 23  1  0
 14  9  1  0
M  END
>  <cnnaffinities>  (13) 
[6.11055]

>  <score>  (13) 
6.11055

>  <index>  (13) 
17

>  <Smiles>  (13) 
C([C@]1(C(N(c2c(nc(c3c(c(c(c(c23)[H])[H])[H])[H])[H])[H])C(=O)[C@]21C(N(C(c1nnc(n1C([H])([H])[H])[H])([H])[H])C(=O)c1c(c(c(F)c(c21)[H])[H])[H])([H])[H])([H])[H])[H])([H])([H])[H]

>  <h>  (13) 
<NA>

>  <Training>  (13) 
True

>  <Success>  (13) 
True

>  <enamine_searched>  (13) 
False

>  <enamine_id>  (13) 
nan

$$$$

     RDKit          3D

 67 71  0  0  0  0  0  0  0  0999 V2000
    8.2661    1.6222   27.6294 O   0  0  0  0  0  0  0  0  0  0  0  0
    7.4565    1.1795   26.8305 C   0  0  0  0  0  0  0  0  0  0  0  0
    7.1702    1.8941   25.5026 C   0  0  0  0  0  0  0  0  0  0  0  0
    8.0728    1.4534   24.4047 N   0  0  1  0  0  4  0  0  0  0  0  0
    9.4920    1.7924   24.7357 C   0  0  0  0  0  0  0  0  0  0  0  0
   10.4415    1.3651   23.6505 C   0  0  0  0  0  0  0  0  0  0  0  0
   11.7347    1.8803   23.6654 C   0  0  0  0  0  0  0  0  0  0  0  0
   12.7132    1.3788   22.8261 C   0  0  0  0  0  0  0  0  0  0  0  0
   12.3502    0.4080   21.8998 C   0  0  0  0  0  0  0  0  0  0  0  0
   13.5726   -0.1051   20.7689 Cl  0  0  0  0  0  0  0  0  0  0  0  0
   11.0597   -0.1100   21.8561 C   0  0  0  0  0  0  0  0  0  0  0  0
   10.0791    0.3785   22.7273 C   0  0  0  0  0  0  0  0  0  0  0  0
    8.6588   -0.1726   22.7038 C   0  0  2  0  0  0  0  0  0  0  0  0
    7.6704    0.5407   21.7614 C   0  0  0  0  0  0  0  0  0  0  0  0
    7.4908    1.7466   21.8230 O   0  0  0  0  0  0  0  0  0  0  0  0
    6.9077   -0.3217   21.0008 N   0  0  0  0  0  0  0  0  0  0  0  0
    6.0254    0.0064   19.9261 C   0  0  0  0  0  0  0  0  0  0  0  0
    6.4616   -0.1502   18.6335 C   0  0  0  0  0  0  0  0  0  0  0  0
    5.7343    0.0887   17.5159 N   0  0  0  0  0  0  0  0  0  0  0  0
    4.4970    0.4874   17.6922 C   0  0  0  0  0  0  0  0  0  0  0  0
    3.8922    0.6502   18.9626 C   0  0  0  0  0  0  0  0  0  0  0  0
    2.5801    1.1913   19.0902 C   0  0  0  0  0  0  0  0  0  0  0  0
    2.0074    1.3167   20.3235 C   0  0  0  0  0  0  0  0  0  0  0  0
    2.7211    0.9304   21.4846 C   0  0  0  0  0  0  0  0  0  0  0  0
    4.0109    0.4567   21.3992 C   0  0  0  0  0  0  0  0  0  0  0  0
    4.6518    0.3552   20.1293 C   0  0  0  0  0  0  0  0  0  0  0  0
    4.5597    0.2099   22.3045 H   0  0  0  0  0  0  0  0  0  0  0  0
    2.2552    1.0764   22.4575 H   0  0  0  0  0  0  0  0  0  0  0  0
    1.0048    1.7278   20.4224 H   0  0  0  0  0  0  0  0  0  0  0  0
    2.0938    1.5876   18.2024 H   0  0  0  0  0  0  0  0  0  0  0  0
    3.8878    0.6676   16.8064 H   0  0  0  0  0  0  0  0  0  0  0  0
    7.4753   -0.4987   18.4518 H   0  0  0  0  0  0  0  0  0  0  0  0
    7.2615   -1.2668   20.9619 H   0  0  0  0  0  0  0  0  0  0  0  0
    7.9984   -0.0152   24.0764 C   0  0  0  0  0  0  0  0  0  0  0  0
    6.9504   -0.3245   24.0301 H   0  0  0  0  0  0  0  0  0  0  0  0
    8.5235   -0.5898   24.8443 H   0  0  0  0  0  0  0  0  0  0  0  0
    8.6940   -1.2244   22.4106 H   0  0  0  0  0  0  0  0  0  0  0  0
   10.8166   -0.8929   21.1415 H   0  0  0  0  0  0  0  0  0  0  0  0
   13.7365    1.7337   22.8675 H   0  0  0  0  0  0  0  0  0  0  0  0
   11.9751    2.7090   24.3204 H   0  0  0  0  0  0  0  0  0  0  0  0
    9.7657    1.2926   25.6728 H   0  0  0  0  0  0  0  0  0  0  0  0
    9.5712    2.8681   24.9311 H   0  0  0  0  0  0  0  0  0  0  0  0
    7.8066    1.9466   23.5185 H   0  0  0  0  0  0  0  0  0  0  0  0
    6.1313    1.7409   25.1956 H   0  0  0  0  0  0  0  0  0  0  0  0
    7.3223    2.9636   25.6760 H   0  0  0  0  0  0  0  0  0  0  0  0
    6.7738    0.0193   27.0331 N   0  0  0  0  0  0  0  0  0  0  0  0
    6.9054   -0.7788   28.2403 C   0  0  0  0  0  0  0  0  0  0  0  0
    5.8502   -0.4497   29.3130 C   0  0  0  0  0  0  0  0  0  0  0  0
    5.9608    0.9662   29.8231 C   0  0  0  0  0  0  0  0  0  0  0  0
    6.8733    1.2816   30.8306 C   0  0  0  0  0  0  0  0  0  0  0  0
    7.0560    2.5923   31.2499 C   0  0  0  0  0  0  0  0  0  0  0  0
    6.3180    3.6167   30.6601 C   0  0  0  0  0  0  0  0  0  0  0  0
    6.5178    5.0340   31.0996 C   0  0  0  0  0  0  0  0  0  0  0  0
    6.2115    5.1708   32.4224 F   0  0  0  0  0  0  0  0  0  0  0  0
    7.8251    5.4026   30.9739 F   0  0  0  0  0  0  0  0  0  0  0  0
    5.9110    5.7508   30.5352 H   0  0  0  0  0  0  0  0  0  0  0  0
    5.3912    3.3149   29.6695 C   0  0  0  0  0  0  0  0  0  0  0  0
    5.2105    2.0001   29.2597 C   0  0  0  0  0  0  0  0  0  0  0  0
    4.4896    1.7700   28.4808 H   0  0  0  0  0  0  0  0  0  0  0  0
    4.8056    4.1121   29.2124 H   0  0  0  0  0  0  0  0  0  0  0  0
    7.7752    2.8355   32.0270 H   0  0  0  0  0  0  0  0  0  0  0  0
    7.4533    0.4898   31.2986 H   0  0  0  0  0  0  0  0  0  0  0  0
    4.8512   -0.6246   28.8957 H   0  0  0  0  0  0  0  0  0  0  0  0
    5.9658   -1.1563   30.1446 H   0  0  0  0  0  0  0  0  0  0  0  0
    6.8348   -1.8353   27.9639 H   0  0  0  0  0  0  0  0  0  0  0  0
    7.9099   -0.6026   28.6350 H   0  0  0  0  0  0  0  0  0  0  0  0
    6.1601   -0.3034   26.3018 H   0  0  0  0  0  0  0  0  0  0  0  0
  1  2  2  0
  2  3  1  0
  3  4  1  0
  4  5  1  0
  5  6  1  0
  6  7  2  0
  7  8  1  0
  8  9  2  0
  9 10  1  0
  9 11  1  0
 11 12  2  0
 12 13  1  0
 13 14  1  0
 14 15  2  0
 14 16  1  0
 16 17  1  0
 17 18  2  0
 18 19  1  0
 19 20  2  0
 20 21  1  0
 21 22  2  0
 22 23  1  0
 23 24  2  0
 24 25  1  0
 25 26  2  0
 25 27  1  0
 24 28  1  0
 23 29  1  0
 22 30  1  0
 20 31  1  0
 18 32  1  0
 16 33  1  0
 13 34  1  0
 34 35  1  0
 34 36  1  0
 13 37  1  6
 11 38  1  0
  8 39  1  0
  7 40  1  0
  5 41  1  0
  5 42  1  0
  4 43  1  6
  3 44  1  0
  3 45  1  0
  2 46  1  0
 46 47  1  0
 47 48  1  0
 48 49  1  0
 49 50  2  0
 50 51  1  0
 51 52  2  0
 52 53  1  0
 53 54  1  0
 53 55  1  0
 53 56  1  0
 52 57  1  0
 57 58  2  0
 58 59  1  0
 57 60  1  0
 51 61  1  0
 50 62  1  0
 48 63  1  0
 48 64  1  0
 47 65  1  0
 47 66  1  0
 46 67  1  0
 34  4  1  0
 58 49  1  0
 12  6  1  0
 26 17  1  0
 26 21  1  0
M  CHG  1   4   1
M  END
>  <cnnaffinities>  (14) 
[5.67357]

>  <score>  (14) 
5.67357

>  <index>  (14) 
19

>  <Smiles>  (14) 
O=C(C([N@+]1(C(c2c(c(c(Cl)c(c2[C@](C(=O)N(c2c(nc(c3c(c(c(c(c23)[H])[H])[H])[H])[H])[H])[H])(C1([H])[H])[H])[H])[H])[H])([H])[H])[H])([H])[H])N(C(C(c1c(c(c(C(F)(F)[H])c(c1[H])[H])[H])[H])([H])[H])([H])[H])[H]

>  <h>  (14) 
<NA>

>  <Training>  (14) 
True

>  <Success>  (14) 
True

>  <enamine_searched>  (14) 
False

>  <enamine_id>  (14) 
nan

$$$$

     RDKit          3D

 59 64  0  0  0  0  0  0  0  0999 V2000
    7.7416   -3.0250   23.3051 C   0  0  0  0  0  0  0  0  0  0  0  0
    7.9777   -1.9628   22.2429 C   0  0  1  0  0  0  0  0  0  0  0  0
    6.8007   -1.9234   21.2542 C   0  0  0  0  0  0  0  0  0  0  0  0
    6.7169   -0.5333   20.8743 N   0  0  0  0  0  0  0  0  0  0  0  0
    5.8737   -0.1069   19.8101 C   0  0  0  0  0  0  0  0  0  0  0  0
    6.3116   -0.2036   18.5148 C   0  0  0  0  0  0  0  0  0  0  0  0
    5.6139    0.1793   17.4125 N   0  0  0  0  0  0  0  0  0  0  0  0
    4.4069    0.6515   17.6100 C   0  0  0  0  0  0  0  0  0  0  0  0
    3.8000    0.7466   18.8933 C   0  0  0  0  0  0  0  0  0  0  0  0
    2.5088    1.3160   19.0536 C   0  0  0  0  0  0  0  0  0  0  0  0
    1.9872    1.5554   20.2982 C   0  0  0  0  0  0  0  0  0  0  0  0
    2.7167    1.1744   21.4475 C   0  0  0  0  0  0  0  0  0  0  0  0
    3.9438    0.5638   21.3266 C   0  0  0  0  0  0  0  0  0  0  0  0
    4.5426    0.3703   20.0435 C   0  0  0  0  0  0  0  0  0  0  0  0
    4.4623    0.2195   22.2169 H   0  0  0  0  0  0  0  0  0  0  0  0
    2.3129    1.4049   22.4312 H   0  0  0  0  0  0  0  0  0  0  0  0
    1.0119    2.0290   20.4084 H   0  0  0  0  0  0  0  0  0  0  0  0
    1.9883    1.6380   18.1637 H   0  0  0  0  0  0  0  0  0  0  0  0
    3.8448    0.9872   16.7345 H   0  0  0  0  0  0  0  0  0  0  0  0
    7.3196   -0.5670   18.3196 H   0  0  0  0  0  0  0  0  0  0  0  0
    7.5620    0.3107   21.5749 C   0  0  0  0  0  0  0  0  0  0  0  0
    7.7233    1.4826   21.3141 O   0  0  0  0  0  0  0  0  0  0  0  0
    8.1835   -0.4878   22.7500 C   0  0  1  0  0  0  0  0  0  0  0  0
    7.3477   -0.1043   24.0002 C   0  0  0  0  0  0  0  0  0  0  0  0
    7.9571   -0.5102   25.2623 N   0  0  0  0  0  0  0  0  0  0  0  0
    7.1101   -0.8618   26.4042 C   0  0  0  0  0  0  0  0  0  0  0  0
    6.8842   -2.3387   26.6163 C   0  0  0  0  0  0  0  0  0  0  0  0
    5.6848   -3.0637   26.4760 C   0  0  0  0  0  0  0  0  0  0  0  0
    5.8405   -4.3524   26.7657 N   0  0  0  0  0  0  0  0  0  0  0  0
    7.1339   -4.4722   27.0921 N   0  0  0  0  0  0  0  0  0  0  0  0
    7.6728   -5.7683   27.4460 C   0  0  0  0  0  0  0  0  0  0  0  0
    7.0707   -6.5332   26.9532 H   0  0  0  0  0  0  0  0  0  0  0  0
    7.6467   -5.9405   28.5254 H   0  0  0  0  0  0  0  0  0  0  0  0
    8.7065   -5.8381   27.0991 H   0  0  0  0  0  0  0  0  0  0  0  0
    7.7956   -3.2882   27.0321 C   0  0  0  0  0  0  0  0  0  0  0  0
    8.8480   -3.2181   27.2993 H   0  0  0  0  0  0  0  0  0  0  0  0
    4.7149   -2.6972   26.1484 H   0  0  0  0  0  0  0  0  0  0  0  0
    6.1449   -0.3526   26.2906 H   0  0  0  0  0  0  0  0  0  0  0  0
    7.6094   -0.4337   27.2798 H   0  0  0  0  0  0  0  0  0  0  0  0
    9.2574   -0.1534   25.5323 C   0  0  0  0  0  0  0  0  0  0  0  0
    9.6721    0.0670   26.6603 O   0  0  0  0  0  0  0  0  0  0  0  0
   10.1487   -0.0963   24.3380 C   0  0  0  0  0  0  0  0  0  0  0  0
   11.5169    0.0157   24.5871 C   0  0  0  0  0  0  0  0  0  0  0  0
   12.4163    0.1582   23.5547 C   0  0  0  0  0  0  0  0  0  0  0  0
   11.9091    0.2115   22.2644 C   0  0  0  0  0  0  0  0  0  0  0  0
   12.7947    0.4397   21.2824 F   0  0  0  0  0  0  0  0  0  0  0  0
   10.5621    0.0352   21.9797 C   0  0  0  0  0  0  0  0  0  0  0  0
    9.6470   -0.1471   23.0293 C   0  0  0  0  0  0  0  0  0  0  0  0
   10.2231    0.0179   20.9501 H   0  0  0  0  0  0  0  0  0  0  0  0
   13.4894    0.2148   23.7116 H   0  0  0  0  0  0  0  0  0  0  0  0
   11.8583   -0.0232   25.6121 H   0  0  0  0  0  0  0  0  0  0  0  0
    7.2237    0.9876   23.9710 H   0  0  0  0  0  0  0  0  0  0  0  0
    6.3403   -0.5314   23.9334 H   0  0  0  0  0  0  0  0  0  0  0  0
    5.8704   -2.2757   21.7290 H   0  0  0  0  0  0  0  0  0  0  0  0
    6.9589   -2.5579   20.3715 H   0  0  0  0  0  0  0  0  0  0  0  0
    8.8854   -2.2051   21.6729 H   0  0  0  0  0  0  0  0  0  0  0  0
    6.7902   -2.8430   23.8151 H   0  0  0  0  0  0  0  0  0  0  0  0
    7.6853   -4.0147   22.8412 H   0  0  0  0  0  0  0  0  0  0  0  0
    8.5309   -3.0367   24.0586 H   0  0  0  0  0  0  0  0  0  0  0  0
  1  2  1  0
  2  3  1  0
  3  4  1  0
  4  5  1  0
  5  6  2  0
  6  7  1  0
  7  8  2  0
  8  9  1  0
  9 10  2  0
 10 11  1  0
 11 12  2  0
 12 13  1  0
 13 14  2  0
 13 15  1  0
 12 16  1  0
 11 17  1  0
 10 18  1  0
  8 19  1  0
  6 20  1  0
  4 21  1  0
 21 22  2  0
 21 23  1  0
 23 24  1  1
 24 25  1  0
 25 26  1  0
 26 27  1  0
 27 28  1  0
 28 29  2  0
 29 30  1  0
 30 31  1  0
 31 32  1  0
 31 33  1  0
 31 34  1  0
 30 35  1  0
 35 36  1  0
 28 37  1  0
 26 38  1  0
 26 39  1  0
 25 40  1  0
 40 41  2  0
 40 42  1  0
 42 43  2  0
 43 44  1  0
 44 45  2  0
 45 46  1  0
 45 47  1  0
 47 48  2  0
 47 49  1  0
 44 50  1  0
 43 51  1  0
 24 52  1  0
 24 53  1  0
  3 54  1  0
  3 55  1  0
  2 56  1  6
  1 57  1  0
  1 58  1  0
  1 59  1  0
 23  2  1  0
 35 27  2  0
 48 42  1  0
 14  5  1  0
 48 23  1  0
 14  9  1  0
M  END
>  <cnnaffinities>  (15) 
[6.53422]

>  <score>  (15) 
6.53422

>  <index>  (15) 
21

>  <Smiles>  (15) 
C([C@]1(C(N(c2c(nc(c3c(c(c(c(c23)[H])[H])[H])[H])[H])[H])C(=O)[C@]21C(N(C(c1c(nn(C([H])([H])[H])c1[H])[H])([H])[H])C(=O)c1c(c(c(F)c(c21)[H])[H])[H])([H])[H])([H])[H])[H])([H])([H])[H]

>  <h>  (15) 
<NA>

>  <Training>  (15) 
True

>  <Success>  (15) 
True

>  <enamine_searched>  (15) 
False

>  <enamine_id>  (15) 
nan

$$$$

     RDKit          3D

 41 44  0  0  0  0  0  0  0  0999 V2000
    7.8977    1.5904   20.9189 O   0  0  0  0  0  0  0  0  0  0  0  0
    7.9479    0.4384   21.3147 C   0  0  0  0  0  0  0  0  0  0  0  0
    6.8552   -0.5990   20.9652 C   0  0  0  0  0  0  0  0  0  0  0  0
    5.9003   -0.1640   19.8758 C   0  0  0  0  0  0  0  0  0  0  0  0
    6.3498   -0.2037   18.5753 C   0  0  0  0  0  0  0  0  0  0  0  0
    5.6407    0.1555   17.4682 N   0  0  0  0  0  0  0  0  0  0  0  0
    4.4292    0.6047   17.6800 C   0  0  0  0  0  0  0  0  0  0  0  0
    3.8161    0.6995   18.9609 C   0  0  0  0  0  0  0  0  0  0  0  0
    2.5134    1.2428   19.1172 C   0  0  0  0  0  0  0  0  0  0  0  0
    1.9666    1.4513   20.3559 C   0  0  0  0  0  0  0  0  0  0  0  0
    2.7108    1.0876   21.5038 C   0  0  0  0  0  0  0  0  0  0  0  0
    3.9440    0.4857   21.3847 C   0  0  0  0  0  0  0  0  0  0  0  0
    4.5678    0.3187   20.1085 C   0  0  0  0  0  0  0  0  0  0  0  0
    4.4544    0.1515   22.2859 H   0  0  0  0  0  0  0  0  0  0  0  0
    2.2935    1.2878   22.4869 H   0  0  0  0  0  0  0  0  0  0  0  0
    0.9888    1.9065   20.4639 H   0  0  0  0  0  0  0  0  0  0  0  0
    2.0109    1.5827   18.2237 H   0  0  0  0  0  0  0  0  0  0  0  0
    3.8457    0.8899   16.7982 H   0  0  0  0  0  0  0  0  0  0  0  0
    7.3666   -0.5428   18.3764 H   0  0  0  0  0  0  0  0  0  0  0  0
    6.3096   -0.8676   21.8793 H   0  0  0  0  0  0  0  0  0  0  0  0
    7.3589   -1.5133   20.6149 H   0  0  0  0  0  0  0  0  0  0  0  0
    8.9872    0.0004   22.0914 N   0  0  0  0  0  0  0  0  0  0  0  0
    9.1075   -1.3727   22.5514 C   0  0  0  0  0  0  0  0  0  0  0  0
   10.0137   -1.4425   23.7685 C   0  0  0  0  0  0  0  0  0  0  0  0
   11.3568   -0.8461   23.4470 C   0  0  0  0  0  0  0  0  0  0  0  0
   12.5658   -1.3986   23.8605 C   0  0  0  0  0  0  0  0  0  0  0  0
   12.6353   -2.9961   24.5633 Cl  0  0  0  0  0  0  0  0  0  0  0  0
   13.7708   -0.7349   23.6805 C   0  0  0  0  0  0  0  0  0  0  0  0
   13.7858    0.4068   22.8975 C   0  0  0  0  0  0  0  0  0  0  0  0
   12.6027    0.9159   22.3822 C   0  0  0  0  0  0  0  0  0  0  0  0
   11.3652    0.3560   22.7222 C   0  0  0  0  0  0  0  0  0  0  0  0
    9.9933    0.9842   22.4999 C   0  0  0  0  0  0  0  0  0  0  0  0
    9.6735    1.4470   23.4514 H   0  0  0  0  0  0  0  0  0  0  0  0
    9.9725    1.7760   21.7515 H   0  0  0  0  0  0  0  0  0  0  0  0
   12.7500    1.7408   21.6970 H   0  0  0  0  0  0  0  0  0  0  0  0
   14.7122    0.9173   22.6462 H   0  0  0  0  0  0  0  0  0  0  0  0
   14.6665   -1.1853   24.0849 H   0  0  0  0  0  0  0  0  0  0  0  0
   10.1112   -2.4760   24.0965 H   0  0  0  0  0  0  0  0  0  0  0  0
    9.5558   -0.8878   24.5978 H   0  0  0  0  0  0  0  0  0  0  0  0
    9.5298   -2.0022   21.7557 H   0  0  0  0  0  0  0  0  0  0  0  0
    8.1203   -1.7696   22.8116 H   0  0  0  0  0  0  0  0  0  0  0  0
  1  2  2  0
  2  3  1  0
  3  4  1  0
  4  5  2  0
  5  6  1  0
  6  7  2  0
  7  8  1  0
  8  9  2  0
  9 10  1  0
 10 11  2  0
 11 12  1  0
 12 13  2  0
 12 14  1  0
 11 15  1  0
 10 16  1  0
  9 17  1  0
  7 18  1  0
  5 19  1  0
  3 20  1  0
  3 21  1  0
  2 22  1  0
 22 23  1  0
 23 24  1  0
 24 25  1  0
 25 26  2  0
 26 27  1  0
 26 28  1  0
 28 29  2  0
 29 30  1  0
 30 31  2  0
 31 32  1  0
 32 33  1  0
 32 34  1  0
 30 35  1  0
 29 36  1  0
 28 37  1  0
 24 38  1  0
 24 39  1  0
 23 40  1  0
 23 41  1  0
 13  4  1  0
 32 22  1  0
 13  8  1  0
 31 25  1  0
M  END
>  <cnnaffinities>  (16) 
[5.56031]

>  <score>  (16) 
5.56031

>  <index>  (16) 
22

>  <Smiles>  (16) 
O=C(C(c1c(nc(c2c(c(c(c(c12)[H])[H])[H])[H])[H])[H])([H])[H])N1C(C(c2c(Cl)c(c(c(c2C1([H])[H])[H])[H])[H])([H])[H])([H])[H]

>  <h>  (16) 
<NA>

>  <Training>  (16) 
True

>  <Success>  (16) 
True

>  <enamine_searched>  (16) 
False

>  <enamine_id>  (16) 
nan

$$$$

     RDKit          3D

 69 74  0  0  0  0  0  0  0  0999 V2000
    3.5739    6.8540   21.7610 C   0  0  0  0  0  0  0  0  0  0  0  0
    3.8245    5.9298   22.9334 C   0  0  1  0  0  0  0  0  0  0  0  0
    5.0756    5.0838   22.7364 C   0  0  0  0  0  0  0  0  0  0  0  0
    5.3124    4.2134   23.9341 N   0  0  1  0  0  4  0  0  0  0  0  0
    6.5262    3.3747   23.7618 C   0  0  0  0  0  0  0  0  0  0  0  0
    6.6305    2.2882   24.8294 C   0  0  0  0  0  0  0  0  0  0  0  0
    7.6653    1.3359   24.4895 N   0  0  0  0  0  0  0  0  0  0  0  0
    7.3529    0.0210   23.9809 C   0  0  0  0  0  0  0  0  0  0  0  0
    8.2097   -0.3831   22.7577 C   0  0  2  0  0  0  0  0  0  0  0  0
    7.6907    0.3188   21.4709 C   0  0  0  0  0  0  0  0  0  0  0  0
    8.0222    1.3936   21.0178 O   0  0  0  0  0  0  0  0  0  0  0  0
    6.7657   -0.5249   20.8880 N   0  0  0  0  0  0  0  0  0  0  0  0
    5.9151   -0.1264   19.8246 C   0  0  0  0  0  0  0  0  0  0  0  0
    6.3836   -0.1844   18.5386 C   0  0  0  0  0  0  0  0  0  0  0  0
    5.6491    0.1106   17.4360 N   0  0  0  0  0  0  0  0  0  0  0  0
    4.4161    0.5107   17.6315 C   0  0  0  0  0  0  0  0  0  0  0  0
    3.8100    0.6577   18.9102 C   0  0  0  0  0  0  0  0  0  0  0  0
    2.5148    1.2238   19.0742 C   0  0  0  0  0  0  0  0  0  0  0  0
    1.9690    1.3851   20.3181 C   0  0  0  0  0  0  0  0  0  0  0  0
    2.7071    1.0119   21.4656 C   0  0  0  0  0  0  0  0  0  0  0  0
    3.9619    0.4573   21.3393 C   0  0  0  0  0  0  0  0  0  0  0  0
    4.5633    0.2970   20.0545 C   0  0  0  0  0  0  0  0  0  0  0  0
    4.5122    0.1729   22.2330 H   0  0  0  0  0  0  0  0  0  0  0  0
    2.2751    1.1640   22.4517 H   0  0  0  0  0  0  0  0  0  0  0  0
    0.9726    1.8090   20.4348 H   0  0  0  0  0  0  0  0  0  0  0  0
    2.0034    1.5876   18.1927 H   0  0  0  0  0  0  0  0  0  0  0  0
    3.8210    0.7469   16.7498 H   0  0  0  0  0  0  0  0  0  0  0  0
    7.4074   -0.5041   18.3583 H   0  0  0  0  0  0  0  0  0  0  0  0
    6.7235   -1.8546   21.4608 C   0  0  0  0  0  0  0  0  0  0  0  0
    7.9588   -1.8828   22.3792 C   0  0  2  0  0  0  0  0  0  0  0  0
    7.7692   -2.8748   23.5223 C   0  0  0  0  0  0  0  0  0  0  0  0
    8.6137   -2.8798   24.2165 H   0  0  0  0  0  0  0  0  0  0  0  0
    6.8619   -2.6438   24.0929 H   0  0  0  0  0  0  0  0  0  0  0  0
    7.6496   -3.8906   23.1319 H   0  0  0  0  0  0  0  0  0  0  0  0
    8.8222   -2.1991   21.7816 H   0  0  0  0  0  0  0  0  0  0  0  0
    6.7582   -2.6208   20.6737 H   0  0  0  0  0  0  0  0  0  0  0  0
    5.7979   -2.0254   22.0393 H   0  0  0  0  0  0  0  0  0  0  0  0
    9.6449   -0.0150   23.0581 C   0  0  0  0  0  0  0  0  0  0  0  0
   10.6613   -0.3905   22.1718 C   0  0  0  0  0  0  0  0  0  0  0  0
   11.9656    0.0077   22.4118 C   0  0  0  0  0  0  0  0  0  0  0  0
   13.1935   -0.2550   21.2150 Cl  0  0  0  0  0  0  0  0  0  0  0  0
   12.3244    0.6932   23.5735 C   0  0  0  0  0  0  0  0  0  0  0  0
   11.3187    1.0678   24.4363 C   0  0  0  0  0  0  0  0  0  0  0  0
    9.9872    0.8202   24.1260 C   0  0  0  0  0  0  0  0  0  0  0  0
    8.9498    1.6668   24.7941 C   0  0  0  0  0  0  0  0  0  0  0  0
    9.2360    2.6334   25.4920 O   0  0  0  0  0  0  0  0  0  0  0  0
   11.5179    1.6618   25.3104 H   0  0  0  0  0  0  0  0  0  0  0  0
   13.3566    0.9761   23.7579 H   0  0  0  0  0  0  0  0  0  0  0  0
   10.4287   -0.9525   21.2743 H   0  0  0  0  0  0  0  0  0  0  0  0
    7.5593   -0.7048   24.7719 H   0  0  0  0  0  0  0  0  0  0  0  0
    6.2878   -0.0172   23.7353 H   0  0  0  0  0  0  0  0  0  0  0  0
    6.8846    2.7212   25.7984 H   0  0  0  0  0  0  0  0  0  0  0  0
    5.6729    1.7632   24.9194 H   0  0  0  0  0  0  0  0  0  0  0  0
    7.4119    4.0202   23.8041 H   0  0  0  0  0  0  0  0  0  0  0  0
    6.4936    2.9211   22.7665 H   0  0  0  0  0  0  0  0  0  0  0  0
    5.3423    5.0591   25.1849 C   0  0  0  0  0  0  0  0  0  0  0  0
    4.0917    5.9218   25.2558 C   0  0  0  0  0  0  0  0  0  0  0  0
    3.9405    6.7258   24.1050 O   0  0  0  0  0  0  0  0  0  0  0  0
    3.2132    5.2645   25.3807 H   0  0  0  0  0  0  0  0  0  0  0  0
    4.1399    6.5952   26.1162 H   0  0  0  0  0  0  0  0  0  0  0  0
    5.4004    4.4072   26.0578 H   0  0  0  0  0  0  0  0  0  0  0  0
    6.2385    5.6879   25.1537 H   0  0  0  0  0  0  0  0  0  0  0  0
    4.5045    3.5577   23.9896 H   0  0  0  0  0  0  0  0  0  0  0  0
    5.9500    5.7282   22.5924 H   0  0  0  0  0  0  0  0  0  0  0  0
    4.9695    4.4450   21.8524 H   0  0  0  0  0  0  0  0  0  0  0  0
    2.9810    5.2289   23.0620 H   0  0  0  0  0  0  0  0  0  0  0  0
    3.4398    6.2774   20.8390 H   0  0  0  0  0  0  0  0  0  0  0  0
    2.6773    7.4528   21.9354 H   0  0  0  0  0  0  0  0  0  0  0  0
    4.4254    7.5300   21.6295 H   0  0  0  0  0  0  0  0  0  0  0  0
  1  2  1  0
  2  3  1  0
  3  4  1  0
  4  5  1  0
  5  6  1  0
  6  7  1  0
  7  8  1  0
  9  8  1  1
  9 10  1  0
 10 11  2  0
 10 12  1  0
 12 13  1  0
 13 14  2  0
 14 15  1  0
 15 16  2  0
 16 17  1  0
 17 18  2  0
 18 19  1  0
 19 20  2  0
 20 21  1  0
 21 22  2  0
 21 23  1  0
 20 24  1  0
 19 25  1  0
 18 26  1  0
 16 27  1  0
 14 28  1  0
 12 29  1  0
 29 30  1  0
 30 31  1  0
 31 32  1  0
 31 33  1  0
 31 34  1  0
 30 35  1  6
 29 36  1  0
 29 37  1  0
  9 38  1  0
 38 39  2  0
 39 40  1  0
 40 41  1  0
 40 42  2  0
 42 43  1  0
 43 44  2  0
 44 45  1  0
 45 46  2  0
 43 47  1  0
 42 48  1  0
 39 49  1  0
  8 50  1  0
  8 51  1  0
  6 52  1  0
  6 53  1  0
  5 54  1  0
  5 55  1  0
  4 56  1  0
 56 57  1  0
 57 58  1  0
 57 59  1  0
 57 60  1  0
 56 61  1  0
 56 62  1  0
  4 63  1  1
  3 64  1  0
  3 65  1  0
  2 66  1  1
  1 67  1  0
  1 68  1  0
  1 69  1  0
 58  2  1  0
 45  7  1  0
 30  9  1  0
 44 38  1  0
 22 13  1  0
 22 17  1  0
M  CHG  1   4   1
M  END
>  <cnnaffinities>  (17) 
[6.50471]

>  <score>  (17) 
6.50471

>  <index>  (17) 
23

>  <Smiles>  (17) 
C([C@]1(C([N@@+](C(C(N2C([C@@]3(C(=O)N(c4c(nc(c5c(c(c(c(c45)[H])[H])[H])[H])[H])[H])C([C@@]3(C([H])([H])[H])[H])([H])[H])c3c(c(Cl)c(c(c3C2=O)[H])[H])[H])([H])[H])([H])[H])([H])[H])(C(C(O1)([H])[H])([H])[H])[H])([H])[H])[H])([H])([H])[H]

>  <h>  (17) 
<NA>

>  <Training>  (17) 
True

>  <Success>  (17) 
True

>  <enamine_searched>  (17) 
False

>  <enamine_id>  (17) 
nan

$$$$

     RDKit          3D

 70 75  0  0  0  0  0  0  0  0999 V2000
    5.9540    4.3912   23.1190 C   0  0  0  0  0  0  0  0  0  0  0  0
    6.5863    3.2565   23.7990 N   0  0  0  0  0  4  0  0  0  0  0  0
    7.8698    3.6043   24.4502 C   0  0  0  0  0  0  0  0  0  0  0  0
    8.4667    2.4035   25.1802 C   0  0  0  0  0  0  0  0  0  0  0  0
    9.0068    1.4215   24.2478 N   0  0  0  0  0  0  0  0  0  0  0  0
    8.3722    0.1268   24.0785 C   0  0  0  0  0  0  0  0  0  0  0  0
    8.4549   -0.4021   22.6211 C   0  0  2  0  0  0  0  0  0  0  0  0
    7.4573    0.4042   21.7413 C   0  0  0  0  0  0  0  0  0  0  0  0
    7.2442    1.6066   21.8039 O   0  0  0  0  0  0  0  0  0  0  0  0
    6.7537   -0.4565   20.9344 N   0  0  0  0  0  0  0  0  0  0  0  0
    5.8958   -0.0722   19.8599 C   0  0  0  0  0  0  0  0  0  0  0  0
    6.3327   -0.2007   18.5641 C   0  0  0  0  0  0  0  0  0  0  0  0
    5.6351    0.1602   17.4554 N   0  0  0  0  0  0  0  0  0  0  0  0
    4.4249    0.6298   17.6406 C   0  0  0  0  0  0  0  0  0  0  0  0
    3.8195    0.7488   18.9242 C   0  0  0  0  0  0  0  0  0  0  0  0
    2.5340    1.3244   19.0807 C   0  0  0  0  0  0  0  0  0  0  0  0
    1.9969    1.5547   20.3178 C   0  0  0  0  0  0  0  0  0  0  0  0
    2.7142    1.1837   21.4699 C   0  0  0  0  0  0  0  0  0  0  0  0
    3.9390    0.5693   21.3569 C   0  0  0  0  0  0  0  0  0  0  0  0
    4.5569    0.3944   20.0825 C   0  0  0  0  0  0  0  0  0  0  0  0
    4.4355    0.2077   22.2472 H   0  0  0  0  0  0  0  0  0  0  0  0
    2.3003    1.4070   22.4469 H   0  0  0  0  0  0  0  0  0  0  0  0
    1.0433    2.0632   20.4189 H   0  0  0  0  0  0  0  0  0  0  0  0
    2.0195    1.6571   18.1911 H   0  0  0  0  0  0  0  0  0  0  0  0
    3.8648    0.9315   16.7510 H   0  0  0  0  0  0  0  0  0  0  0  0
    7.3338   -0.5785   18.3547 H   0  0  0  0  0  0  0  0  0  0  0  0
    7.1185   -1.8403   21.1130 C   0  0  0  0  0  0  0  0  0  0  0  0
    7.8627   -1.8379   22.4635 C   0  0  2  0  0  0  0  0  0  0  0  0
    6.9091   -2.2362   23.5953 C   0  0  0  0  0  0  0  0  0  0  0  0
    6.4141   -3.5135   23.3026 O   0  0  0  0  0  0  0  0  0  0  0  0
    5.5167   -4.0218   24.2609 C   0  0  0  0  0  0  0  0  0  0  0  0
    5.0822   -5.3936   23.7714 C   0  0  0  0  0  0  0  0  0  0  0  0
    6.1860   -6.1537   23.0219 C   0  0  0  0  0  0  0  0  0  0  0  0
    5.5497   -5.9265   21.7527 O   0  0  0  0  0  0  0  0  0  0  0  0
    4.3951   -5.3820   22.3989 C   0  0  0  0  0  0  0  0  0  0  0  0
    3.5328   -6.0521   22.3197 H   0  0  0  0  0  0  0  0  0  0  0  0
    4.1246   -4.3980   22.0008 H   0  0  0  0  0  0  0  0  0  0  0  0
    7.1670   -5.6774   23.0489 H   0  0  0  0  0  0  0  0  0  0  0  0
    6.2648   -7.2219   23.2557 H   0  0  0  0  0  0  0  0  0  0  0  0
    4.5695   -5.9421   24.5638 H   0  0  0  0  0  0  0  0  0  0  0  0
    6.0089   -4.0993   25.2432 H   0  0  0  0  0  0  0  0  0  0  0  0
    4.6506   -3.3466   24.3774 H   0  0  0  0  0  0  0  0  0  0  0  0
    6.0683   -1.5276   23.6798 H   0  0  0  0  0  0  0  0  0  0  0  0
    7.4472   -2.2550   24.5552 H   0  0  0  0  0  0  0  0  0  0  0  0
    8.6495   -2.5937   22.4611 H   0  0  0  0  0  0  0  0  0  0  0  0
    6.2156   -2.4584   21.1382 H   0  0  0  0  0  0  0  0  0  0  0  0
    7.7369   -2.1922   20.2782 H   0  0  0  0  0  0  0  0  0  0  0  0
    9.9372   -0.3205   22.2167 C   0  0  0  0  0  0  0  0  0  0  0  0
   10.5610   -1.2906   21.4119 C   0  0  0  0  0  0  0  0  0  0  0  0
   11.9258   -1.2532   21.1810 C   0  0  0  0  0  0  0  0  0  0  0  0
   12.6507   -2.5113   20.2126 Cl  0  0  0  0  0  0  0  0  0  0  0  0
   12.7265   -0.2361   21.6961 C   0  0  0  0  0  0  0  0  0  0  0  0
   12.1320    0.7225   22.4864 C   0  0  0  0  0  0  0  0  0  0  0  0
   10.7650    0.6749   22.7600 C   0  0  0  0  0  0  0  0  0  0  0  0
   10.2425    1.6789   23.7328 C   0  0  0  0  0  0  0  0  0  0  0  0
   10.9019    2.6612   24.0681 O   0  0  0  0  0  0  0  0  0  0  0  0
   12.7207    1.5245   22.9230 H   0  0  0  0  0  0  0  0  0  0  0  0
   13.7901   -0.2076   21.4898 H   0  0  0  0  0  0  0  0  0  0  0  0
   10.0103   -2.1120   20.9710 H   0  0  0  0  0  0  0  0  0  0  0  0
    7.3264    0.2204   24.3736 H   0  0  0  0  0  0  0  0  0  0  0  0
    8.8585   -0.6087   24.7362 H   0  0  0  0  0  0  0  0  0  0  0  0
    7.7127    1.9150   25.8089 H   0  0  0  0  0  0  0  0  0  0  0  0
    9.2875    2.7301   25.8227 H   0  0  0  0  0  0  0  0  0  0  0  0
    7.7247    4.4331   25.1524 H   0  0  0  0  0  0  0  0  0  0  0  0
    8.5870    3.9401   23.6947 H   0  0  0  0  0  0  0  0  0  0  0  0
    5.9326    2.8931   24.5177 H   0  0  0  0  0  0  0  0  0  0  0  0
    6.7521    2.4957   23.1106 H   0  0  0  0  0  0  0  0  0  0  0  0
    5.9653    5.2837   23.7546 H   0  0  0  0  0  0  0  0  0  0  0  0
    6.4930    4.6279   22.1972 H   0  0  0  0  0  0  0  0  0  0  0  0
    4.9185    4.1546   22.8668 H   0  0  0  0  0  0  0  0  0  0  0  0
  1  2  1  0
  2  3  1  0
  3  4  1  0
  4  5  1  0
  5  6  1  0
  7  6  1  1
  7  8  1  0
  8  9  2  0
  8 10  1  0
 10 11  1  0
 11 12  2  0
 12 13  1  0
 13 14  2  0
 14 15  1  0
 15 16  2  0
 16 17  1  0
 17 18  2  0
 18 19  1  0
 19 20  2  0
 19 21  1  0
 18 22  1  0
 17 23  1  0
 16 24  1  0
 14 25  1  0
 12 26  1  0
 10 27  1  0
 27 28  1  0
 28 29  1  0
 29 30  1  0
 30 31  1  0
 31 32  1  0
 32 33  1  0
 33 34  1  0
 34 35  1  0
 35 36  1  0
 35 37  1  0
 33 38  1  0
 33 39  1  0
 32 40  1  0
 31 41  1  0
 31 42  1  0
 29 43  1  0
 29 44  1  0
 28 45  1  6
 27 46  1  0
 27 47  1  0
  7 48  1  0
 48 49  2  0
 49 50  1  0
 50 51  1  0
 50 52  2  0
 52 53  1  0
 53 54  2  0
 54 55  1  0
 55 56  2  0
 53 57  1  0
 52 58  1  0
 49 59  1  0
  6 60  1  0
  6 61  1  0
  4 62  1  0
  4 63  1  0
  3 64  1  0
  3 65  1  0
  2 66  1  0
  2 67  1  0
  1 68  1  0
  1 69  1  0
  1 70  1  0
 55  5  1  0
 28  7  1  0
 35 32  1  0
 54 48  1  0
 20 11  1  0
 20 15  1  0
M  CHG  1   2   1
M  END
>  <cnnaffinities>  (18) 
[6.89498]

>  <score>  (18) 
6.89498

>  <index>  (18) 
24

>  <Smiles>  (18) 
C([N+](C(C(N1C([C@@]2(C(=O)N(c3c(nc(c4c(c(c(c(c34)[H])[H])[H])[H])[H])[H])C([C@@]2(C(OC(C2(C(OC2([H])[H])([H])[H])[H])([H])[H])([H])[H])[H])([H])[H])c2c(c(Cl)c(c(c2C1=O)[H])[H])[H])([H])[H])([H])[H])([H])[H])([H])[H])([H])([H])[H]

>  <h>  (18) 
<NA>

>  <Training>  (18) 
True

>  <Success>  (18) 
True

>  <enamine_searched>  (18) 
False

>  <enamine_id>  (18) 
nan

$$$$

     RDKit          3D

 68 73  0  0  0  0  0  0  0  0999 V2000
    7.1760   -4.7142   26.5996 C   0  0  0  0  0  0  0  0  0  0  0  0
    7.4831   -3.2971   26.6968 N   0  0  0  0  0  0  0  0  0  0  0  0
    6.5919   -2.3646   26.2741 C   0  0  0  0  0  0  0  0  0  0  0  0
    5.5123   -2.6654   25.7820 O   0  0  0  0  0  0  0  0  0  0  0  0
    7.0496   -0.9028   26.3835 C   0  0  0  0  0  0  0  0  0  0  0  0
    7.9170   -0.5278   25.2694 N   0  0  0  0  0  0  0  0  0  0  0  0
    7.3273   -0.1405   23.9900 C   0  0  0  0  0  0  0  0  0  0  0  0
    8.2114   -0.4759   22.7467 C   0  0  2  0  0  0  0  0  0  0  0  0
    7.5944    0.3243   21.5757 C   0  0  0  0  0  0  0  0  0  0  0  0
    7.7518    1.5009   21.3241 O   0  0  0  0  0  0  0  0  0  0  0  0
    6.7426   -0.5111   20.8789 N   0  0  0  0  0  0  0  0  0  0  0  0
    5.9004   -0.0771   19.8181 C   0  0  0  0  0  0  0  0  0  0  0  0
    6.3537   -0.1703   18.5268 C   0  0  0  0  0  0  0  0  0  0  0  0
    5.6250    0.1436   17.4252 N   0  0  0  0  0  0  0  0  0  0  0  0
    4.4022    0.5780   17.6164 C   0  0  0  0  0  0  0  0  0  0  0  0
    3.7968    0.7348   18.8952 C   0  0  0  0  0  0  0  0  0  0  0  0
    2.4934    1.2907   19.0473 C   0  0  0  0  0  0  0  0  0  0  0  0
    1.9270    1.4198   20.2898 C   0  0  0  0  0  0  0  0  0  0  0  0
    2.6476    1.0278   21.4451 C   0  0  0  0  0  0  0  0  0  0  0  0
    3.9124    0.4921   21.3186 C   0  0  0  0  0  0  0  0  0  0  0  0
    4.5412    0.3508   20.0426 C   0  0  0  0  0  0  0  0  0  0  0  0
    4.4540    0.2005   22.2129 H   0  0  0  0  0  0  0  0  0  0  0  0
    2.2068    1.1895   22.4316 H   0  0  0  0  0  0  0  0  0  0  0  0
    0.9399    1.8623   20.4015 H   0  0  0  0  0  0  0  0  0  0  0  0
    1.9968    1.6705   18.1595 H   0  0  0  0  0  0  0  0  0  0  0  0
    3.8196    0.8112   16.7239 H   0  0  0  0  0  0  0  0  0  0  0  0
    7.3479   -0.5733   18.3380 H   0  0  0  0  0  0  0  0  0  0  0  0
    6.8497   -1.9038   21.2426 C   0  0  0  0  0  0  0  0  0  0  0  0
    8.0551   -1.9310   22.1924 C   0  0  2  0  0  0  0  0  0  0  0  0
    7.9365   -3.0281   23.2512 C   0  0  0  0  0  0  0  0  0  0  0  0
    7.8925   -4.3508   22.6859 N   0  0  0  0  0  0  0  0  0  0  0  0
    6.7249   -5.0310   22.3969 C   0  0  0  0  0  0  0  0  0  0  0  0
    6.6349   -6.2385   21.6598 C   0  0  0  0  0  0  0  0  0  0  0  0
    5.3855   -6.6784   21.6044 N   0  0  0  0  0  0  0  0  0  0  0  0
    4.6599   -5.7889   22.2882 N   0  0  0  0  0  0  0  0  0  0  0  0
    3.2546   -6.0404   22.5252 C   0  0  0  0  0  0  0  0  0  0  0  0
    2.6558   -5.1673   22.2469 H   0  0  0  0  0  0  0  0  0  0  0  0
    3.0704   -6.2854   23.5778 H   0  0  0  0  0  0  0  0  0  0  0  0
    2.9734   -6.8964   21.9091 H   0  0  0  0  0  0  0  0  0  0  0  0
    5.4225   -4.7729   22.7884 C   0  0  0  0  0  0  0  0  0  0  0  0
    4.9960   -3.9684   23.3871 H   0  0  0  0  0  0  0  0  0  0  0  0
    7.4346   -6.8064   21.1913 H   0  0  0  0  0  0  0  0  0  0  0  0
    8.7205   -4.6529   22.2001 H   0  0  0  0  0  0  0  0  0  0  0  0
    8.7983   -2.9454   23.9266 H   0  0  0  0  0  0  0  0  0  0  0  0
    7.0157   -2.8982   23.8245 H   0  0  0  0  0  0  0  0  0  0  0  0
    8.9676   -2.1126   21.5991 H   0  0  0  0  0  0  0  0  0  0  0  0
    5.9291   -2.2655   21.7296 H   0  0  0  0  0  0  0  0  0  0  0  0
    7.0008   -2.5208   20.3523 H   0  0  0  0  0  0  0  0  0  0  0  0
    9.6612   -0.1206   23.0586 C   0  0  0  0  0  0  0  0  0  0  0  0
   10.6064    0.0870   22.0333 C   0  0  0  0  0  0  0  0  0  0  0  0
   11.9429    0.3107   22.3487 C   0  0  0  0  0  0  0  0  0  0  0  0
   13.1743    0.6311   21.1584 Cl  0  0  0  0  0  0  0  0  0  0  0  0
   12.3928    0.2817   23.6637 C   0  0  0  0  0  0  0  0  0  0  0  0
   11.4710    0.1173   24.6704 C   0  0  0  0  0  0  0  0  0  0  0  0
   10.1187   -0.0521   24.3820 C   0  0  0  0  0  0  0  0  0  0  0  0
    9.2140   -0.2044   25.5626 C   0  0  0  0  0  0  0  0  0  0  0  0
    9.6218   -0.0694   26.7082 O   0  0  0  0  0  0  0  0  0  0  0  0
   11.7750    0.1265   25.7075 H   0  0  0  0  0  0  0  0  0  0  0  0
   13.4521    0.3908   23.8713 H   0  0  0  0  0  0  0  0  0  0  0  0
   10.2904    0.0682   20.9975 H   0  0  0  0  0  0  0  0  0  0  0  0
    7.1337    0.9443   23.9848 H   0  0  0  0  0  0  0  0  0  0  0  0
    6.3627   -0.6553   23.9157 H   0  0  0  0  0  0  0  0  0  0  0  0
    7.6350   -0.7290   27.2920 H   0  0  0  0  0  0  0  0  0  0  0  0
    6.1542   -0.2727   26.3988 H   0  0  0  0  0  0  0  0  0  0  0  0
    8.4130   -3.0090   26.9592 H   0  0  0  0  0  0  0  0  0  0  0  0
    6.3452   -4.9749   27.2627 H   0  0  0  0  0  0  0  0  0  0  0  0
    8.0562   -5.2878   26.8951 H   0  0  0  0  0  0  0  0  0  0  0  0
    6.8972   -4.9842   25.5732 H   0  0  0  0  0  0  0  0  0  0  0  0
  1  2  1  0
  2  3  1  0
  3  4  2  0
  3  5  1  0
  5  6  1  0
  6  7  1  0
  8  7  1  1
  8  9  1  0
  9 10  2  0
  9 11  1  0
 11 12  1  0
 12 13  2  0
 13 14  1  0
 14 15  2  0
 15 16  1  0
 16 17  2  0
 17 18  1  0
 18 19  2  0
 19 20  1  0
 20 21  2  0
 20 22  1  0
 19 23  1  0
 18 24  1  0
 17 25  1  0
 15 26  1  0
 13 27  1  0
 11 28  1  0
 28 29  1  0
 29 30  1  0
 30 31  1  0
 31 32  1  0
 32 33  1  0
 33 34  2  0
 34 35  1  0
 35 36  1  0
 36 37  1  0
 36 38  1  0
 36 39  1  0
 35 40  1  0
 40 41  1  0
 33 42  1  0
 31 43  1  0
 30 44  1  0
 30 45  1  0
 29 46  1  6
 28 47  1  0
 28 48  1  0
  8 49  1  0
 49 50  2  0
 50 51  1  0
 51 52  1  0
 51 53  2  0
 53 54  1  0
 54 55  2  0
 55 56  1  0
 56 57  2  0
 54 58  1  0
 53 59  1  0
 50 60  1  0
  7 61  1  0
  7 62  1  0
  5 63  1  0
  5 64  1  0
  2 65  1  0
  1 66  1  0
  1 67  1  0
  1 68  1  0
 56  6  1  0
 29  8  1  0
 40 32  2  0
 55 49  1  0
 21 12  1  0
 21 16  1  0
M  END
>  <cnnaffinities>  (19) 
[6.83756]

>  <score>  (19) 
6.83756

>  <index>  (19) 
25

>  <Smiles>  (19) 
C(N(C(=O)C(N1C([C@@]2(C(=O)N(c3c(nc(c4c(c(c(c(c34)[H])[H])[H])[H])[H])[H])C([C@@]2(C(N(c2c(nn(C([H])([H])[H])c2[H])[H])[H])([H])[H])[H])([H])[H])c2c(c(Cl)c(c(c2C1=O)[H])[H])[H])([H])[H])([H])[H])[H])([H])([H])[H]

>  <h>  (19) 
<NA>

>  <Training>  (19) 
True

>  <Success>  (19) 
True

>  <enamine_searched>  (19) 
False

>  <enamine_id>  (19) 
nan

$$$$

     RDKit          3D

 70 75  0  0  0  0  0  0  0  0999 V2000
    5.6077    5.4548   24.8394 C   0  0  0  0  0  0  0  0  0  0  0  0
    5.3156    4.4458   23.8007 N   0  0  0  0  0  4  0  0  0  0  0  0
    6.4130    3.4395   23.6290 C   0  0  0  0  0  0  0  0  0  0  0  0
    6.4752    2.4073   24.7672 C   0  0  0  0  0  0  0  0  0  0  0  0
    7.4728    1.3992   24.4676 N   0  0  0  0  0  0  0  0  0  0  0  0
    7.0797    0.1588   23.8396 C   0  0  0  0  0  0  0  0  0  0  0  0
    8.0108   -0.2847   22.6680 C   0  0  2  0  0  0  0  0  0  0  0  0
    7.5769    0.4125   21.3645 C   0  0  0  0  0  0  0  0  0  0  0  0
    7.8658    1.5364   21.0124 O   0  0  0  0  0  0  0  0  0  0  0  0
    6.8009   -0.4646   20.6359 N   0  0  0  0  0  0  0  0  0  0  0  0
    5.9319   -0.0605   19.6000 C   0  0  0  0  0  0  0  0  0  0  0  0
    6.3796   -0.0897   18.3084 C   0  0  0  0  0  0  0  0  0  0  0  0
    5.6090    0.1879   17.2287 N   0  0  0  0  0  0  0  0  0  0  0  0
    4.3719    0.5610   17.4601 C   0  0  0  0  0  0  0  0  0  0  0  0
    3.7974    0.6829   18.7601 C   0  0  0  0  0  0  0  0  0  0  0  0
    2.5064    1.2382   18.9723 C   0  0  0  0  0  0  0  0  0  0  0  0
    1.9717    1.3114   20.2296 C   0  0  0  0  0  0  0  0  0  0  0  0
    2.7217    0.8687   21.3430 C   0  0  0  0  0  0  0  0  0  0  0  0
    3.9840    0.3566   21.1750 C   0  0  0  0  0  0  0  0  0  0  0  0
    4.5738    0.2950   19.8736 C   0  0  0  0  0  0  0  0  0  0  0  0
    4.5379    0.0211   22.0469 H   0  0  0  0  0  0  0  0  0  0  0  0
    2.3020    0.9451   22.3434 H   0  0  0  0  0  0  0  0  0  0  0  0
    0.9783    1.7275   20.3829 H   0  0  0  0  0  0  0  0  0  0  0  0
    1.9942    1.6666   18.1186 H   0  0  0  0  0  0  0  0  0  0  0  0
    3.7515    0.7797   16.5917 H   0  0  0  0  0  0  0  0  0  0  0  0
    7.4101   -0.3830   18.1117 H   0  0  0  0  0  0  0  0  0  0  0  0
    6.6260   -1.7564   21.2522 C   0  0  0  0  0  0  0  0  0  0  0  0
    7.7225   -1.7874   22.3186 C   0  0  2  0  0  0  0  0  0  0  0  0
    7.2797   -2.7173   23.4542 C   0  0  0  0  0  0  0  0  0  0  0  0
    8.0641   -2.5959   24.5921 O   0  0  0  0  0  0  0  0  0  0  0  0
    9.2832   -3.2997   24.4516 C   0  0  0  0  0  0  0  0  0  0  0  0
   10.3311   -3.0796   25.4986 C   0  0  0  0  0  0  0  0  0  0  0  0
    8.6762   -3.0476   27.6755 F   0  0  0  0  0  0  0  0  0  0  0  0
   10.1765   -3.1926   25.8709 C   0  0  0  0  0  0  0  0  0  0  0  0
   12.7943   -3.1223   25.0939 O   0  0  0  0  0  0  0  0  0  0  0  0
   11.7515   -3.8073   25.0426 C   0  0  0  0  0  0  0  0  0  0  0  0
   11.5679   -3.9683   23.9222 H   0  0  0  0  0  0  0  0  0  0  0  0
   11.7407   -4.7938   25.6015 H   0  0  0  0  0  0  0  0  0  0  0  0
    9.4231   -3.1841   26.9140 H   0  0  0  0  0  0  0  0  0  0  0  0
   10.6397   -1.9243   25.7234 H   0  0  0  0  0  0  0  0  0  0  0  0
    9.0432   -4.3642   24.3180 H   0  0  0  0  0  0  0  0  0  0  0  0
    9.7134   -2.9623   23.4702 H   0  0  0  0  0  0  0  0  0  0  0  0
    6.2487   -2.4793   23.7491 H   0  0  0  0  0  0  0  0  0  0  0  0
    7.2650   -3.7679   23.1131 H   0  0  0  0  0  0  0  0  0  0  0  0
    8.6364   -2.1884   21.8629 H   0  0  0  0  0  0  0  0  0  0  0  0
    5.6219   -1.8595   21.6952 H   0  0  0  0  0  0  0  0  0  0  0  0
    6.7248   -2.5516   20.5060 H   0  0  0  0  0  0  0  0  0  0  0  0
    9.4597    0.0886   22.9593 C   0  0  0  0  0  0  0  0  0  0  0  0
   10.4901   -0.2610   22.0635 C   0  0  0  0  0  0  0  0  0  0  0  0
   11.7960    0.1245   22.3268 C   0  0  0  0  0  0  0  0  0  0  0  0
   13.0689   -0.2878   21.2257 Cl  0  0  0  0  0  0  0  0  0  0  0  0
   12.1481    0.8262   23.4798 C   0  0  0  0  0  0  0  0  0  0  0  0
   11.1364    1.2058   24.3318 C   0  0  0  0  0  0  0  0  0  0  0  0
    9.8078    0.9025   24.0442 C   0  0  0  0  0  0  0  0  0  0  0  0
    8.7652    1.6276   24.8486 C   0  0  0  0  0  0  0  0  0  0  0  0
    9.0639    2.4271   25.7250 O   0  0  0  0  0  0  0  0  0  0  0  0
   11.3216    1.8026   25.2084 H   0  0  0  0  0  0  0  0  0  0  0  0
   13.1898    1.0511   23.6970 H   0  0  0  0  0  0  0  0  0  0  0  0
   10.2843   -0.7795   21.1287 H   0  0  0  0  0  0  0  0  0  0  0  0
    7.0804   -0.6337   24.5929 H   0  0  0  0  0  0  0  0  0  0  0  0
    6.0513    0.2576   23.4718 H   0  0  0  0  0  0  0  0  0  0  0  0
    6.7563    2.8638   25.7218 H   0  0  0  0  0  0  0  0  0  0  0  0
    5.5053    1.9086   24.8893 H   0  0  0  0  0  0  0  0  0  0  0  0
    7.3671    3.9665   23.5812 H   0  0  0  0  0  0  0  0  0  0  0  0
    6.2644    2.9336   22.6775 H   0  0  0  0  0  0  0  0  0  0  0  0
    4.4614    3.9047   24.0779 H   0  0  0  0  0  0  0  0  0  0  0  0
    5.1353    4.9332   22.8979 H   0  0  0  0  0  0  0  0  0  0  0  0
    4.8544    6.2383   24.8244 H   0  0  0  0  0  0  0  0  0  0  0  0
    5.6257    5.0049   25.8324 H   0  0  0  0  0  0  0  0  0  0  0  0
    6.5885    5.9024   24.6658 H   0  0  0  0  0  0  0  0  0  0  0  0
  1  2  1  0
  2  3  1  0
  3  4  1  0
  4  5  1  0
  5  6  1  0
  7  6  1  1
  7  8  1  0
  8  9  2  0
  8 10  1  0
 10 11  1  0
 11 12  2  0
 12 13  1  0
 13 14  2  0
 14 15  1  0
 15 16  2  0
 16 17  1  0
 17 18  2  0
 18 19  1  0
 19 20  2  0
 19 21  1  0
 18 22  1  0
 17 23  1  0
 16 24  1  0
 14 25  1  0
 12 26  1  0
 10 27  1  0
 27 28  1  0
 28 29  1  0
 29 30  1  0
 30 31  1  0
 31 32  1  0
 32 33  1  0
 32 34  1  0
 34 35  1  0
 35 36  1  0
 36 37  1  0
 36 38  1  0
 34 39  1  0
 34 40  1  0
 31 41  1  0
 31 42  1  0
 29 43  1  0
 29 44  1  0
 28 45  1  6
 27 46  1  0
 27 47  1  0
  7 48  1  0
 48 49  2  0
 49 50  1  0
 50 51  1  0
 50 52  2  0
 52 53  1  0
 53 54  2  0
 54 55  1  0
 55 56  2  0
 53 57  1  0
 52 58  1  0
 49 59  1  0
  6 60  1  0
  6 61  1  0
  4 62  1  0
  4 63  1  0
  3 64  1  0
  3 65  1  0
  2 66  1  0
  2 67  1  0
  1 68  1  0
  1 69  1  0
  1 70  1  0
 55  5  1  0
 28  7  1  0
 36 32  1  0
 54 48  1  0
 20 11  1  0
 20 15  1  0
M  CHG  1   2   1
M  END
>  <cnnaffinities>  (20) 
[6.48389]

>  <score>  (20) 
6.48389

>  <index>  (20) 
28

>  <Smiles>  (20) 
C([N+](C(C(N1C([C@@]2(C(=O)N(c3c(nc(c4c(c(c(c(c34)[H])[H])[H])[H])[H])[H])C([C@@]2(C(OC(C2(F)C(OC2([H])[H])([H])[H])([H])[H])([H])[H])[H])([H])[H])c2c(c(Cl)c(c(c2C1=O)[H])[H])[H])([H])[H])([H])[H])([H])[H])([H])[H])([H])([H])[H]

>  <h>  (20) 
<NA>

>  <Training>  (20) 
True

>  <Success>  (20) 
True

>  <enamine_searched>  (20) 
False

>  <enamine_id>  (20) 
nan

$$$$

     RDKit          3D

 67 72  0  0  0  0  0  0  0  0999 V2000
    7.6097    2.1630   27.2663 C   0  0  0  0  0  0  0  0  0  0  0  0
    7.3595    0.8114   27.8194 N   0  0  0  0  0  4  0  0  0  0  0  0
    6.3524   -0.0175   27.0855 C   0  0  0  0  0  0  0  0  0  0  0  0
    7.0231   -1.1416   26.2863 C   0  0  0  0  0  0  0  0  0  0  0  0
    7.8960   -0.6377   25.2345 N   0  0  0  0  0  0  0  0  0  0  0  0
    7.3158   -0.1331   23.9967 C   0  0  0  0  0  0  0  0  0  0  0  0
    8.1905   -0.4869   22.7611 C   0  0  2  0  0  0  0  0  0  0  0  0
    7.6010    0.3251   21.5828 C   0  0  0  0  0  0  0  0  0  0  0  0
    7.7688    1.4958   21.3357 O   0  0  0  0  0  0  0  0  0  0  0  0
    6.7528   -0.5014   20.8706 N   0  0  0  0  0  0  0  0  0  0  0  0
    5.9027   -0.0664   19.8161 C   0  0  0  0  0  0  0  0  0  0  0  0
    6.3478   -0.1706   18.5230 C   0  0  0  0  0  0  0  0  0  0  0  0
    5.6219    0.1559   17.4221 N   0  0  0  0  0  0  0  0  0  0  0  0
    4.3988    0.5941   17.6162 C   0  0  0  0  0  0  0  0  0  0  0  0
    3.7944    0.7329   18.9002 C   0  0  0  0  0  0  0  0  0  0  0  0
    2.4918    1.2802   19.0574 C   0  0  0  0  0  0  0  0  0  0  0  0
    1.9369    1.4254   20.3005 C   0  0  0  0  0  0  0  0  0  0  0  0
    2.6657    1.0596   21.4557 C   0  0  0  0  0  0  0  0  0  0  0  0
    3.9173    0.4948   21.3273 C   0  0  0  0  0  0  0  0  0  0  0  0
    4.5421    0.3580   20.0473 C   0  0  0  0  0  0  0  0  0  0  0  0
    4.4535    0.1871   22.2197 H   0  0  0  0  0  0  0  0  0  0  0  0
    2.2376    1.2425   22.4426 H   0  0  0  0  0  0  0  0  0  0  0  0
    0.9582    1.8838   20.4096 H   0  0  0  0  0  0  0  0  0  0  0  0
    1.9885    1.6312   18.1653 H   0  0  0  0  0  0  0  0  0  0  0  0
    3.8190    0.8595   16.7286 H   0  0  0  0  0  0  0  0  0  0  0  0
    7.3448   -0.5692   18.3274 H   0  0  0  0  0  0  0  0  0  0  0  0
    6.8093   -1.8883   21.2567 C   0  0  0  0  0  0  0  0  0  0  0  0
    7.9960   -1.9477   22.2260 C   0  0  2  0  0  0  0  0  0  0  0  0
    7.7895   -3.0613   23.2619 C   0  0  0  0  0  0  0  0  0  0  0  0
    7.7488   -4.3740   22.6395 N   0  0  0  0  0  0  0  0  0  0  0  0
    6.6319   -5.0619   22.3378 C   0  0  0  0  0  0  0  0  0  0  0  0
    6.7930   -6.2342   21.6784 N   0  0  0  0  0  0  0  0  0  0  0  0
    5.6609   -6.8795   21.4516 C   0  0  0  0  0  0  0  0  0  0  0  0
    4.4288   -6.4840   21.7853 N   0  0  0  0  0  0  0  0  0  0  0  0
    4.3979   -5.3086   22.4052 C   0  0  0  0  0  0  0  0  0  0  0  0
    5.4407   -4.5463   22.7050 N   0  0  0  0  0  0  0  0  0  0  0  0
    3.4189   -4.9233   22.6924 H   0  0  0  0  0  0  0  0  0  0  0  0
    5.7304   -7.8349   20.9294 H   0  0  0  0  0  0  0  0  0  0  0  0
    8.6199   -4.7768   22.3334 H   0  0  0  0  0  0  0  0  0  0  0  0
    8.5975   -3.0313   23.9989 H   0  0  0  0  0  0  0  0  0  0  0  0
    6.8348   -2.9291   23.7802 H   0  0  0  0  0  0  0  0  0  0  0  0
    8.9147   -2.1654   21.6554 H   0  0  0  0  0  0  0  0  0  0  0  0
    5.8761   -2.2141   21.7368 H   0  0  0  0  0  0  0  0  0  0  0  0
    6.9525   -2.5261   20.3799 H   0  0  0  0  0  0  0  0  0  0  0  0
    9.6471   -0.1576   23.0872 C   0  0  0  0  0  0  0  0  0  0  0  0
   10.6078    0.0463   22.0787 C   0  0  0  0  0  0  0  0  0  0  0  0
   11.9433    0.2517   22.4086 C   0  0  0  0  0  0  0  0  0  0  0  0
   13.1748    0.5576   21.2153 Cl  0  0  0  0  0  0  0  0  0  0  0  0
   12.3768    0.2297   23.7289 C   0  0  0  0  0  0  0  0  0  0  0  0
   11.4424    0.0653   24.7240 C   0  0  0  0  0  0  0  0  0  0  0  0
   10.0962   -0.1097   24.4163 C   0  0  0  0  0  0  0  0  0  0  0  0
    9.1729   -0.3237   25.5615 C   0  0  0  0  0  0  0  0  0  0  0  0
    9.5523   -0.2167   26.7351 O   0  0  0  0  0  0  0  0  0  0  0  0
   11.7337    0.0700   25.7628 H   0  0  0  0  0  0  0  0  0  0  0  0
   13.4327    0.3197   23.9543 H   0  0  0  0  0  0  0  0  0  0  0  0
   10.3095    0.0282   21.0389 H   0  0  0  0  0  0  0  0  0  0  0  0
    7.2000    0.9654   24.0265 H   0  0  0  0  0  0  0  0  0  0  0  0
    6.3139   -0.5657   23.8958 H   0  0  0  0  0  0  0  0  0  0  0  0
    7.6545   -1.7458   26.9493 H   0  0  0  0  0  0  0  0  0  0  0  0
    6.2770   -1.8043   25.8318 H   0  0  0  0  0  0  0  0  0  0  0  0
    5.6500   -0.4483   27.8012 H   0  0  0  0  0  0  0  0  0  0  0  0
    5.7912    0.6280   26.4024 H   0  0  0  0  0  0  0  0  0  0  0  0
    8.2714    0.3086   27.7654 H   0  0  0  0  0  0  0  0  0  0  0  0
    7.0823    0.8925   28.8149 H   0  0  0  0  0  0  0  0  0  0  0  0
    8.2062    2.0874   26.3515 H   0  0  0  0  0  0  0  0  0  0  0  0
    8.1658    2.7665   27.9888 H   0  0  0  0  0  0  0  0  0  0  0  0
    6.6739    2.6779   27.0307 H   0  0  0  0  0  0  0  0  0  0  0  0
  1  2  1  0
  2  3  1  0
  3  4  1  0
  4  5  1  0
  5  6  1  0
  7  6  1  1
  7  8  1  0
  8  9  2  0
  8 10  1  0
 10 11  1  0
 11 12  2  0
 12 13  1  0
 13 14  2  0
 14 15  1  0
 15 16  2  0
 16 17  1  0
 17 18  2  0
 18 19  1  0
 19 20  2  0
 19 21  1  0
 18 22  1  0
 17 23  1  0
 16 24  1  0
 14 25  1  0
 12 26  1  0
 10 27  1  0
 27 28  1  0
 28 29  1  0
 29 30  1  0
 30 31  1  0
 31 32  2  0
 32 33  1  0
 33 34  2  0
 34 35  1  0
 35 36  2  0
 35 37  1  0
 33 38  1  0
 30 39  1  0
 29 40  1  0
 29 41  1  0
 28 42  1  6
 27 43  1  0
 27 44  1  0
  7 45  1  0
 45 46  2  0
 46 47  1  0
 47 48  1  0
 47 49  2  0
 49 50  1  0
 50 51  2  0
 51 52  1  0
 52 53  2  0
 50 54  1  0
 49 55  1  0
 46 56  1  0
  6 57  1  0
  6 58  1  0
  4 59  1  0
  4 60  1  0
  3 61  1  0
  3 62  1  0
  2 63  1  0
  2 64  1  0
  1 65  1  0
  1 66  1  0
  1 67  1  0
 52  5  1  0
 28  7  1  0
 36 31  1  0
 51 45  1  0
 20 11  1  0
 20 15  1  0
M  CHG  1   2   1
M  END
>  <cnnaffinities>  (21) 
[6.59739]

>  <score>  (21) 
6.59739

>  <index>  (21) 
29

>  <Smiles>  (21) 
C([N+](C(C(N1C([C@@]2(C(=O)N(c3c(nc(c4c(c(c(c(c34)[H])[H])[H])[H])[H])[H])C([C@@]2(C(N(c2nc(nc(n2)[H])[H])[H])([H])[H])[H])([H])[H])c2c(c(Cl)c(c(c2C1=O)[H])[H])[H])([H])[H])([H])[H])([H])[H])([H])[H])([H])([H])[H]

>  <h>  (21) 
<NA>

>  <Training>  (21) 
True

>  <Success>  (21) 
True

>  <enamine_searched>  (21) 
False

>  <enamine_id>  (21) 
nan

$$$$

     RDKit          3D

 66 71  0  0  0  0  0  0  0  0999 V2000
    8.2946    5.4330   22.6384 C   0  0  0  0  0  0  0  0  0  0  0  0
    8.4610    4.4381   23.6772 N   0  0  0  0  0  0  0  0  0  0  0  0
    7.3854    3.7421   24.1136 C   0  0  0  0  0  0  0  0  0  0  0  0
    6.2464    3.9708   23.7344 O   0  0  0  0  0  0  0  0  0  0  0  0
    7.7142    2.5956   25.0779 C   0  0  0  0  0  0  0  0  0  0  0  0
    8.3876    1.5192   24.3642 N   0  0  0  0  0  0  0  0  0  0  0  0
    7.5076    0.5614   23.7165 C   0  0  0  0  0  0  0  0  0  0  0  0
    8.1307   -0.3036   22.5963 C   0  0  2  0  0  0  0  0  0  0  0  0
    7.6278    0.1001   21.1707 C   0  0  0  0  0  0  0  0  0  0  0  0
    7.9536    1.0919   20.5570 O   0  0  0  0  0  0  0  0  0  0  0  0
    6.7845   -0.8975   20.6449 N   0  0  0  0  0  0  0  0  0  0  0  0
    5.8909   -0.4998   19.6076 C   0  0  0  0  0  0  0  0  0  0  0  0
    6.3239   -0.5884   18.3109 C   0  0  0  0  0  0  0  0  0  0  0  0
    5.6178   -0.1704   17.2300 N   0  0  0  0  0  0  0  0  0  0  0  0
    4.4525    0.3832   17.4567 C   0  0  0  0  0  0  0  0  0  0  0  0
    3.8811    0.5486   18.7483 C   0  0  0  0  0  0  0  0  0  0  0  0
    2.6383    1.2131   18.9163 C   0  0  0  0  0  0  0  0  0  0  0  0
    2.0872    1.3602   20.1574 C   0  0  0  0  0  0  0  0  0  0  0  0
    2.7895    0.8888   21.2892 C   0  0  0  0  0  0  0  0  0  0  0  0
    4.0125    0.2840   21.1586 C   0  0  0  0  0  0  0  0  0  0  0  0
    4.5987    0.0818   19.8716 C   0  0  0  0  0  0  0  0  0  0  0  0
    4.5437    0.0074   22.0616 H   0  0  0  0  0  0  0  0  0  0  0  0
    2.3661    1.0234   22.2793 H   0  0  0  0  0  0  0  0  0  0  0  0
    1.1342    1.8636   20.2880 H   0  0  0  0  0  0  0  0  0  0  0  0
    2.1728    1.6406   18.0365 H   0  0  0  0  0  0  0  0  0  0  0  0
    3.8932    0.7436   16.5937 H   0  0  0  0  0  0  0  0  0  0  0  0
    7.3077   -1.0105   18.1132 H   0  0  0  0  0  0  0  0  0  0  0  0
    6.4779   -1.9465   21.6224 C   0  0  0  0  0  0  0  0  0  0  0  0
    7.6250   -1.7570   22.6100 C   0  0  2  0  0  0  0  0  0  0  0  0
    7.2529   -2.8463   23.7828 C   0  0  0  0  0  0  0  0  0  0  0  0
    6.7971   -4.1940   22.9536 C   0  0  0  0  0  0  0  0  0  0  0  0
    5.3258   -4.2301   23.4149 C   0  0  0  0  0  0  0  0  0  0  0  0
    4.5162   -5.1396   22.8469 C   0  0  0  0  0  0  0  0  0  0  0  0
    5.1753   -5.9437   21.8095 C   0  0  0  0  0  0  0  0  0  0  0  0
    6.4386   -5.6375   21.5844 C   0  0  0  0  0  0  0  0  0  0  0  0
    6.7860   -4.2357   23.0613 C   0  0  0  0  0  0  0  0  0  0  0  0
    7.8771   -4.8857   22.9678 H   0  0  0  0  0  0  0  0  0  0  0  0
    7.1355   -6.1118   20.8440 H   0  0  0  0  0  0  0  0  0  0  0  0
    4.6690   -6.7713   21.3084 H   0  0  0  0  0  0  0  0  0  0  0  0
    3.4719   -5.2228   23.1344 H   0  0  0  0  0  0  0  0  0  0  0  0
    5.3997   -4.0908   24.4579 H   0  0  0  0  0  0  0  0  0  0  0  0
    8.1506   -2.8557   24.5325 H   0  0  0  0  0  0  0  0  0  0  0  0
    6.4956   -2.3672   24.5269 H   0  0  0  0  0  0  0  0  0  0  0  0
    8.4971   -2.1693   22.0740 H   0  0  0  0  0  0  0  0  0  0  0  0
    5.4839   -1.7202   22.0304 H   0  0  0  0  0  0  0  0  0  0  0  0
    6.5973   -3.0779   21.4521 H   0  0  0  0  0  0  0  0  0  0  0  0
    9.6616   -0.2185   22.5399 C   0  0  0  0  0  0  0  0  0  0  0  0
   10.3647   -0.9100   21.5300 C   0  0  0  0  0  0  0  0  0  0  0  0
   11.7471   -0.9321   21.5166 C   0  0  0  0  0  0  0  0  0  0  0  0
   12.5732   -1.8479   20.2848 Cl  0  0  0  0  0  0  0  0  0  0  0  0
   12.4902   -0.2253   22.4605 C   0  0  0  0  0  0  0  0  0  0  0  0
   11.8094    0.5409   23.3842 C   0  0  0  0  0  0  0  0  0  0  0  0
   10.4125    0.5744   23.4036 C   0  0  0  0  0  0  0  0  0  0  0  0
    9.7486    1.5596   24.3000 C   0  0  0  0  0  0  0  0  0  0  0  0
   10.3903    2.4197   24.9061 O   0  0  0  0  0  0  0  0  0  0  0  0
   12.3453    1.1505   24.1030 H   0  0  0  0  0  0  0  0  0  0  0  0
   13.5742   -0.2591   22.4375 H   0  0  0  0  0  0  0  0  0  0  0  0
    9.8599   -1.3795   20.6926 H   0  0  0  0  0  0  0  0  0  0  0  0
    6.6498    1.1098   23.3082 H   0  0  0  0  0  0  0  0  0  0  0  0
    7.1028   -0.0990   24.4940 H   0  0  0  0  0  0  0  0  0  0  0  0
    6.7751    2.2275   25.4984 H   0  0  0  0  0  0  0  0  0  0  0  0
    8.3748    2.9292   25.8819 H   0  0  0  0  0  0  0  0  0  0  0  0
    9.3816    4.1762   24.0006 H   0  0  0  0  0  0  0  0  0  0  0  0
    9.2787    5.7437   22.2826 H   0  0  0  0  0  0  0  0  0  0  0  0
    7.7521    6.3068   23.0118 H   0  0  0  0  0  0  0  0  0  0  0  0
    7.7219    5.0157   21.8041 H   0  0  0  0  0  0  0  0  0  0  0  0
  1  2  1  0
  2  3  1  0
  3  4  2  0
  3  5  1  0
  5  6  1  0
  6  7  1  0
  8  7  1  1
  8  9  1  0
  9 10  2  0
  9 11  1  0
 11 12  1  0
 12 13  2  0
 13 14  1  0
 14 15  2  0
 15 16  1  0
 16 17  2  0
 17 18  1  0
 18 19  2  0
 19 20  1  0
 20 21  2  0
 20 22  1  0
 19 23  1  0
 18 24  1  0
 17 25  1  0
 15 26  1  0
 13 27  1  0
 11 28  1  0
 28 29  1  0
 29 30  1  0
 30 31  1  0
 31 32  2  0
 32 33  1  0
 33 34  2  0
 34 35  1  0
 35 36  2  0
 36 37  1  0
 35 38  1  0
 34 39  1  0
 33 40  1  0
 32 41  1  0
 30 42  1  0
 30 43  1  0
 29 44  1  6
 28 45  1  0
 28 46  1  0
  8 47  1  0
 47 48  2  0
 48 49  1  0
 49 50  1  0
 49 51  2  0
 51 52  1  0
 52 53  2  0
 53 54  1  0
 54 55  2  0
 52 56  1  0
 51 57  1  0
 48 58  1  0
  7 59  1  0
  7 60  1  0
  5 61  1  0
  5 62  1  0
  2 63  1  0
  1 64  1  0
  1 65  1  0
  1 66  1  0
 54  6  1  0
 29  8  1  0
 36 31  1  0
 53 47  1  0
 21 12  1  0
 21 16  1  0
M  END
>  <cnnaffinities>  (22) 
[6.78247]

>  <score>  (22) 
6.78247

>  <index>  (22) 
30

>  <Smiles>  (22) 
C(N(C(=O)C(N1C([C@@]2(C(=O)N(c3c(nc(c4c(c(c(c(c34)[H])[H])[H])[H])[H])[H])C([C@@]2(C(c2c(c(c(c(c2[H])[H])[H])[H])[H])([H])[H])[H])([H])[H])c2c(c(Cl)c(c(c2C1=O)[H])[H])[H])([H])[H])([H])[H])[H])([H])([H])[H]

>  <h>  (22) 
<NA>

>  <Training>  (22) 
True

>  <Success>  (22) 
True

>  <enamine_searched>  (22) 
False

>  <enamine_id>  (22) 
nan

$$$$

     RDKit          3D

 64 70  0  0  0  0  0  0  0  0999 V2000
    9.6207    0.0302   26.6890 O   0  0  0  0  0  0  0  0  0  0  0  0
    9.2394   -0.2044   25.5504 C   0  0  0  0  0  0  0  0  0  0  0  0
   10.1457   -0.1088   24.3736 C   0  0  0  0  0  0  0  0  0  0  0  0
   11.5007    0.0244   24.6653 C   0  0  0  0  0  0  0  0  0  0  0  0
   12.4236    0.1951   23.6614 C   0  0  0  0  0  0  0  0  0  0  0  0
   11.9639    0.2614   22.3500 C   0  0  0  0  0  0  0  0  0  0  0  0
   13.1904    0.6322   21.1675 Cl  0  0  0  0  0  0  0  0  0  0  0  0
   10.6218    0.0553   22.0311 C   0  0  0  0  0  0  0  0  0  0  0  0
    9.6735   -0.1555   23.0522 C   0  0  0  0  0  0  0  0  0  0  0  0
    8.2106   -0.4954   22.7395 C   0  0  1  0  0  0  0  0  0  0  0  0
    7.3589   -0.1484   23.9942 C   0  0  0  0  0  0  0  0  0  0  0  0
    7.9591   -0.6002   25.2486 N   0  0  0  0  0  0  0  0  0  0  0  0
    7.1228   -1.0033   26.3670 C   0  0  0  0  0  0  0  0  0  0  0  0
    7.0112   -2.4892   26.5171 C   0  0  0  0  0  0  0  0  0  0  0  0
    5.9638   -3.2305   26.3549 N   0  0  0  0  0  0  0  0  0  0  0  0
    6.3518   -4.5356   26.6446 N   0  0  0  0  0  0  0  0  0  0  0  0
    7.5946   -4.4722   26.9668 C   0  0  0  0  0  0  0  0  0  0  0  0
    8.0897   -3.2092   26.9163 O   0  0  0  0  0  0  0  0  0  0  0  0
    8.2467   -5.2755   27.2842 H   0  0  0  0  0  0  0  0  0  0  0  0
    6.1139   -0.6007   26.2551 H   0  0  0  0  0  0  0  0  0  0  0  0
    7.5778   -0.5895   27.2722 H   0  0  0  0  0  0  0  0  0  0  0  0
    7.2454    0.9440   24.0016 H   0  0  0  0  0  0  0  0  0  0  0  0
    6.3486   -0.5697   23.9079 H   0  0  0  0  0  0  0  0  0  0  0  0
    7.5809    0.3196   21.5764 C   0  0  0  0  0  0  0  0  0  0  0  0
    7.7423    1.4932   21.3241 O   0  0  0  0  0  0  0  0  0  0  0  0
    6.7187   -0.5187   20.8822 N   0  0  0  0  0  0  0  0  0  0  0  0
    5.8739   -0.1002   19.8192 C   0  0  0  0  0  0  0  0  0  0  0  0
    6.3160   -0.1994   18.5228 C   0  0  0  0  0  0  0  0  0  0  0  0
    5.6187    0.1808   17.4217 N   0  0  0  0  0  0  0  0  0  0  0  0
    4.4148    0.6556   17.6163 C   0  0  0  0  0  0  0  0  0  0  0  0
    3.8035    0.7526   18.8977 C   0  0  0  0  0  0  0  0  0  0  0  0
    2.5159    1.3266   19.0570 C   0  0  0  0  0  0  0  0  0  0  0  0
    1.9927    1.5695   20.2980 C   0  0  0  0  0  0  0  0  0  0  0  0
    2.7233    1.1909   21.4456 C   0  0  0  0  0  0  0  0  0  0  0  0
    3.9460    0.5754   21.3255 C   0  0  0  0  0  0  0  0  0  0  0  0
    4.5426    0.3756   20.0459 C   0  0  0  0  0  0  0  0  0  0  0  0
    4.4619    0.2326   22.2146 H   0  0  0  0  0  0  0  0  0  0  0  0
    2.3244    1.4271   22.4272 H   0  0  0  0  0  0  0  0  0  0  0  0
    1.0267    2.0565   20.4065 H   0  0  0  0  0  0  0  0  0  0  0  0
    1.9944    1.6470   18.1663 H   0  0  0  0  0  0  0  0  0  0  0  0
    3.8641    0.9960   16.7376 H   0  0  0  0  0  0  0  0  0  0  0  0
    7.3188   -0.5731   18.3316 H   0  0  0  0  0  0  0  0  0  0  0  0
    6.8114   -1.9128   21.2406 C   0  0  0  0  0  0  0  0  0  0  0  0
    8.0048   -1.9530   22.2009 C   0  0  2  0  0  0  0  0  0  0  0  0
    7.7905   -3.0316   23.2613 C   0  0  0  0  0  0  0  0  0  0  0  0
    7.7280   -4.3528   22.6811 N   0  0  0  0  0  0  0  0  0  0  0  0
    6.5888   -5.0494   22.4497 C   0  0  0  0  0  0  0  0  0  0  0  0
    6.6339   -6.2836   21.7695 C   0  0  0  0  0  0  0  0  0  0  0  0
    5.4297   -6.9155   21.5829 C   0  0  0  0  0  0  0  0  0  0  0  0
    4.2570   -6.4239   22.0160 N   0  0  0  0  0  0  0  0  0  0  0  0
    4.3329   -5.2653   22.6474 C   0  0  0  0  0  0  0  0  0  0  0  0
    5.4261   -4.5372   22.8805 N   0  0  0  0  0  0  0  0  0  0  0  0
    3.3880   -4.8595   23.0103 H   0  0  0  0  0  0  0  0  0  0  0  0
    5.3875   -7.8661   21.0536 H   0  0  0  0  0  0  0  0  0  0  0  0
    7.5777   -6.7007   21.4233 H   0  0  0  0  0  0  0  0  0  0  0  0
    8.5984   -4.7436   22.3642 H   0  0  0  0  0  0  0  0  0  0  0  0
    8.5936   -2.9872   23.9985 H   0  0  0  0  0  0  0  0  0  0  0  0
    6.8390   -2.8662   23.7640 H   0  0  0  0  0  0  0  0  0  0  0  0
    8.9076   -2.1899   21.6205 H   0  0  0  0  0  0  0  0  0  0  0  0
    5.8959   -2.2791   21.7300 H   0  0  0  0  0  0  0  0  0  0  0  0
    6.9540   -2.5390   20.3497 H   0  0  0  0  0  0  0  0  0  0  0  0
   10.2970    0.0446   20.9971 H   0  0  0  0  0  0  0  0  0  0  0  0
   13.4867    0.2778   23.8685 H   0  0  0  0  0  0  0  0  0  0  0  0
   11.8043   -0.0104   25.7017 H   0  0  0  0  0  0  0  0  0  0  0  0
  1  2  2  0
  2  3  1  0
  3  4  2  0
  4  5  1  0
  5  6  2  0
  6  7  1  0
  6  8  1  0
  8  9  2  0
  9 10  1  0
 10 11  1  1
 11 12  1  0
 12 13  1  0
 13 14  1  0
 14 15  2  0
 15 16  1  0
 16 17  2  0
 17 18  1  0
 17 19  1  0
 13 20  1  0
 13 21  1  0
 11 22  1  0
 11 23  1  0
 10 24  1  0
 24 25  2  0
 24 26  1  0
 26 27  1  0
 27 28  2  0
 28 29  1  0
 29 30  2  0
 30 31  1  0
 31 32  2  0
 32 33  1  0
 33 34  2  0
 34 35  1  0
 35 36  2  0
 35 37  1  0
 34 38  1  0
 33 39  1  0
 32 40  1  0
 30 41  1  0
 28 42  1  0
 26 43  1  0
 43 44  1  0
 44 45  1  0
 45 46  1  0
 46 47  1  0
 47 48  2  0
 48 49  1  0
 49 50  2  0
 50 51  1  0
 51 52  2  0
 51 53  1  0
 49 54  1  0
 48 55  1  0
 46 56  1  0
 45 57  1  0
 45 58  1  0
 44 59  1  6
 43 60  1  0
 43 61  1  0
  8 62  1  0
  5 63  1  0
  4 64  1  0
 12  2  1  0
 18 14  1  0
 36 27  1  0
 52 47  1  0
  9  3  1  0
 44 10  1  0
 36 31  1  0
M  END
>  <cnnaffinities>  (23) 
[6.77528]

>  <score>  (23) 
6.77528

>  <index>  (23) 
31

>  <Smiles>  (23) 
O=C1c2c(c(c(Cl)c(c2[C@@]2(C(N1C(c1nnc(o1)[H])([H])[H])([H])[H])C(=O)N(c1c(nc(c3c(c(c(c(c13)[H])[H])[H])[H])[H])[H])C([C@@]2(C(N(c1c(c(nc(n1)[H])[H])[H])[H])([H])[H])[H])([H])[H])[H])[H])[H]

>  <h>  (23) 
<NA>

>  <Training>  (23) 
True

>  <Success>  (23) 
True

>  <enamine_searched>  (23) 
False

>  <enamine_id>  (23) 
nan

$$$$

     RDKit          3D

 72 77  0  0  0  0  0  0  0  0999 V2000
    7.7629   -3.0295   23.3103 C   0  0  0  0  0  0  0  0  0  0  0  0
    7.9954   -1.9590   22.2510 C   0  0  1  0  0  0  0  0  0  0  0  0
    6.8172   -1.9188   21.2605 C   0  0  0  0  0  0  0  0  0  0  0  0
    6.7307   -0.5279   20.8785 N   0  0  0  0  0  0  0  0  0  0  0  0
    5.8848   -0.0952   19.8157 C   0  0  0  0  0  0  0  0  0  0  0  0
    6.3248   -0.1984   18.5196 C   0  0  0  0  0  0  0  0  0  0  0  0
    5.6192    0.1805   17.4189 N   0  0  0  0  0  0  0  0  0  0  0  0
    4.4112    0.6460   17.6136 C   0  0  0  0  0  0  0  0  0  0  0  0
    3.8031    0.7482   18.8983 C   0  0  0  0  0  0  0  0  0  0  0  0
    2.5117    1.3119   19.0606 C   0  0  0  0  0  0  0  0  0  0  0  0
    1.9778    1.5215   20.3039 C   0  0  0  0  0  0  0  0  0  0  0  0
    2.7112    1.1543   21.4537 C   0  0  0  0  0  0  0  0  0  0  0  0
    3.9420    0.5536   21.3302 C   0  0  0  0  0  0  0  0  0  0  0  0
    4.5482    0.3784   20.0494 C   0  0  0  0  0  0  0  0  0  0  0  0
    4.4624    0.2189   22.2198 H   0  0  0  0  0  0  0  0  0  0  0  0
    2.3013    1.3701   22.4354 H   0  0  0  0  0  0  0  0  0  0  0  0
    1.0112    2.0069   20.4118 H   0  0  0  0  0  0  0  0  0  0  0  0
    1.9977    1.6449   18.1718 H   0  0  0  0  0  0  0  0  0  0  0  0
    3.8428    0.9536   16.7292 H   0  0  0  0  0  0  0  0  0  0  0  0
    7.3272   -0.5726   18.3194 H   0  0  0  0  0  0  0  0  0  0  0  0
    7.5846    0.3098   21.5747 C   0  0  0  0  0  0  0  0  0  0  0  0
    7.7520    1.4826   21.3116 O   0  0  0  0  0  0  0  0  0  0  0  0
    8.1990   -0.4835   22.7562 C   0  0  1  0  0  0  0  0  0  0  0  0
    7.3321   -0.0823   23.9910 C   0  0  0  0  0  0  0  0  0  0  0  0
    7.9073   -0.4474   25.2760 N   0  0  0  0  0  0  0  0  0  0  0  0
    7.1730   -1.1873   26.2965 C   0  0  0  0  0  0  0  0  0  0  0  0
    6.8819   -0.3605   27.5495 C   0  0  0  0  0  0  0  0  0  0  0  0
    5.9377    0.7692   27.2258 N   0  0  1  0  0  4  0  0  0  0  0  0
    4.4947    0.4225   27.5434 C   0  0  0  0  0  0  0  0  0  0  0  0
    4.1872    0.5989   29.0248 C   0  0  0  0  0  0  0  0  0  0  0  0
    4.4675    1.9157   29.4531 O   0  0  0  0  0  0  0  0  0  0  0  0
    5.8375    2.3012   29.2915 C   0  0  0  0  0  0  0  0  0  0  0  0
    6.7431    1.5387   30.2596 C   0  0  0  0  0  0  0  0  0  0  0  0
    7.7731    1.8852   30.1456 H   0  0  0  0  0  0  0  0  0  0  0  0
    6.7452    0.4594   30.0838 H   0  0  0  0  0  0  0  0  0  0  0  0
    6.4283    1.7132   31.2935 H   0  0  0  0  0  0  0  0  0  0  0  0
    5.8694    3.7911   29.6128 C   0  0  0  0  0  0  0  0  0  0  0  0
    5.1718    4.3323   28.9662 H   0  0  0  0  0  0  0  0  0  0  0  0
    5.5712    3.9599   30.6517 H   0  0  0  0  0  0  0  0  0  0  0  0
    6.8748    4.2030   29.4674 H   0  0  0  0  0  0  0  0  0  0  0  0
    6.2682    2.1143   27.8229 C   0  0  0  0  0  0  0  0  0  0  0  0
    7.3466    2.2819   27.7343 H   0  0  0  0  0  0  0  0  0  0  0  0
    5.7611    2.8671   27.2133 H   0  0  0  0  0  0  0  0  0  0  0  0
    3.1203    0.4360   29.2039 H   0  0  0  0  0  0  0  0  0  0  0  0
    4.7387   -0.1409   29.6222 H   0  0  0  0  0  0  0  0  0  0  0  0
    3.8527    1.0870   26.9631 H   0  0  0  0  0  0  0  0  0  0  0  0
    4.3012   -0.6086   27.2334 H   0  0  0  0  0  0  0  0  0  0  0  0
    6.0118    0.8880   26.2007 H   0  0  0  0  0  0  0  0  0  0  0  0
    6.4353   -1.0047   28.3099 H   0  0  0  0  0  0  0  0  0  0  0  0
    7.8112    0.0543   27.9381 H   0  0  0  0  0  0  0  0  0  0  0  0
    6.2283   -1.5356   25.8598 H   0  0  0  0  0  0  0  0  0  0  0  0
    7.7528   -2.0674   26.5890 H   0  0  0  0  0  0  0  0  0  0  0  0
    9.2120   -0.1477   25.5536 C   0  0  0  0  0  0  0  0  0  0  0  0
    9.6437   -0.0114   26.6922 O   0  0  0  0  0  0  0  0  0  0  0  0
   10.1250   -0.0539   24.3769 C   0  0  0  0  0  0  0  0  0  0  0  0
   11.4809    0.0667   24.6675 C   0  0  0  0  0  0  0  0  0  0  0  0
   12.4065    0.2263   23.6647 C   0  0  0  0  0  0  0  0  0  0  0  0
   11.9539    0.2690   22.3500 C   0  0  0  0  0  0  0  0  0  0  0  0
   13.1872    0.6132   21.1666 Cl  0  0  0  0  0  0  0  0  0  0  0  0
   10.6125    0.0630   22.0313 C   0  0  0  0  0  0  0  0  0  0  0  0
    9.6624   -0.1306   23.0554 C   0  0  0  0  0  0  0  0  0  0  0  0
   10.2894    0.0351   20.9960 H   0  0  0  0  0  0  0  0  0  0  0  0
   13.4692    0.3112   23.8698 H   0  0  0  0  0  0  0  0  0  0  0  0
   11.7907    0.0368   25.7012 H   0  0  0  0  0  0  0  0  0  0  0  0
    7.2278    1.0100   23.9334 H   0  0  0  0  0  0  0  0  0  0  0  0
    6.3154   -0.4905   23.9144 H   0  0  0  0  0  0  0  0  0  0  0  0
    6.9783   -2.5523   20.3780 H   0  0  0  0  0  0  0  0  0  0  0  0
    5.8864   -2.2745   21.7313 H   0  0  0  0  0  0  0  0  0  0  0  0
    8.9025   -2.1961   21.6764 H   0  0  0  0  0  0  0  0  0  0  0  0
    6.8266   -2.8401   23.8498 H   0  0  0  0  0  0  0  0  0  0  0  0
    7.6771   -4.0132   22.8373 H   0  0  0  0  0  0  0  0  0  0  0  0
    8.5729   -3.0685   24.0406 H   0  0  0  0  0  0  0  0  0  0  0  0
  1  2  1  0
  2  3  1  0
  3  4  1  0
  4  5  1  0
  5  6  2  0
  6  7  1  0
  7  8  2  0
  8  9  1  0
  9 10  2  0
 10 11  1  0
 11 12  2  0
 12 13  1  0
 13 14  2  0
 13 15  1  0
 12 16  1  0
 11 17  1  0
 10 18  1  0
  8 19  1  0
  6 20  1  0
  4 21  1  0
 21 22  2  0
 21 23  1  0
 23 24  1  1
 24 25  1  0
 25 26  1  0
 26 27  1  0
 27 28  1  0
 28 29  1  0
 29 30  1  0
 30 31  1  0
 31 32  1  0
 32 33  1  0
 33 34  1  0
 33 35  1  0
 33 36  1  0
 32 37  1  0
 37 38  1  0
 37 39  1  0
 37 40  1  0
 32 41  1  0
 41 42  1  0
 41 43  1  0
 30 44  1  0
 30 45  1  0
 29 46  1  0
 29 47  1  0
 28 48  1  6
 27 49  1  0
 27 50  1  0
 26 51  1  0
 26 52  1  0
 25 53  1  0
 53 54  2  0
 53 55  1  0
 55 56  2  0
 56 57  1  0
 57 58  2  0
 58 59  1  0
 58 60  1  0
 60 61  2  0
 60 62  1  0
 57 63  1  0
 56 64  1  0
 24 65  1  0
 24 66  1  0
  3 67  1  0
  3 68  1  0
  2 69  1  6
  1 70  1  0
  1 71  1  0
  1 72  1  0
 23  2  1  0
 41 28  1  0
 61 55  1  0
 14  5  1  0
 61 23  1  0
 14  9  1  0
M  CHG  1  28   1
M  END
>  <cnnaffinities>  (24) 
[6.46617, 6.6062]

>  <score>  (24) 
6.46617

>  <index>  (24) 
32

>  <Smiles>  (24) 
C([C@]1(C(N(c2c(nc(c3c(c(c(c(c23)[H])[H])[H])[H])[H])[H])C(=O)[C@]21C(N(C(C([N@+]1(C(C(OC(C([H])([H])[H])(C([H])([H])[H])C1([H])[H])([H])[H])([H])[H])[H])([H])[H])([H])[H])C(=O)c1c(c(c(Cl)c(c21)[H])[H])[H])([H])[H])([H])[H])[H])([H])([H])[H]

>  <h>  (24) 
<NA>

>  <Training>  (24) 
True

>  <Success>  (24) 
True

>  <enamine_searched>  (24) 
False

>  <enamine_id>  (24) 
nan

$$$$

     RDKit          3D

 58 63  0  0  0  0  0  0  0  0999 V2000
    7.7720   -3.0363   23.2889 C   0  0  0  0  0  0  0  0  0  0  0  0
    7.9946   -1.9657   22.2309 C   0  0  1  0  0  0  0  0  0  0  0  0
    6.8156   -1.9215   21.2477 C   0  0  0  0  0  0  0  0  0  0  0  0
    6.7219   -0.5276   20.8828 N   0  0  0  0  0  0  0  0  0  0  0  0
    5.8763   -0.1078   19.8190 C   0  0  0  0  0  0  0  0  0  0  0  0
    6.3162   -0.1956   18.5227 C   0  0  0  0  0  0  0  0  0  0  0  0
    5.6190    0.1784   17.4191 N   0  0  0  0  0  0  0  0  0  0  0  0
    4.4149    0.6542   17.6174 C   0  0  0  0  0  0  0  0  0  0  0  0
    3.8056    0.7521   18.8988 C   0  0  0  0  0  0  0  0  0  0  0  0
    2.5212    1.3313   19.0613 C   0  0  0  0  0  0  0  0  0  0  0  0
    2.0052    1.5821   20.2989 C   0  0  0  0  0  0  0  0  0  0  0  0
    2.7288    1.1978   21.4466 C   0  0  0  0  0  0  0  0  0  0  0  0
    3.9529    0.5790   21.3267 C   0  0  0  0  0  0  0  0  0  0  0  0
    4.5446    0.3684   20.0478 C   0  0  0  0  0  0  0  0  0  0  0  0
    4.4676    0.2389   22.2178 H   0  0  0  0  0  0  0  0  0  0  0  0
    2.3363    1.4419   22.4257 H   0  0  0  0  0  0  0  0  0  0  0  0
    1.0450    2.0725   20.4084 H   0  0  0  0  0  0  0  0  0  0  0  0
    2.0045    1.6564   18.1714 H   0  0  0  0  0  0  0  0  0  0  0  0
    3.8665    1.0064   16.7424 H   0  0  0  0  0  0  0  0  0  0  0  0
    7.3122   -0.5753   18.3253 H   0  0  0  0  0  0  0  0  0  0  0  0
    7.5580    0.3165   21.5962 C   0  0  0  0  0  0  0  0  0  0  0  0
    7.7091    1.4974   21.3622 O   0  0  0  0  0  0  0  0  0  0  0  0
    8.1927   -0.4963   22.7540 C   0  0  1  0  0  0  0  0  0  0  0  0
    7.3682   -0.1445   24.0198 C   0  0  0  0  0  0  0  0  0  0  0  0
    7.9976   -0.5806   25.2658 N   0  0  0  0  0  0  0  0  0  0  0  0
    7.1751   -0.9730   26.4070 C   0  0  0  0  0  0  0  0  0  0  0  0
    7.0840   -2.4569   26.6304 C   0  0  0  0  0  0  0  0  0  0  0  0
    5.9768   -3.3119   26.5563 C   0  0  0  0  0  0  0  0  0  0  0  0
    6.3536   -4.5457   26.8902 N   0  0  0  0  0  0  0  0  0  0  0  0
    7.6419   -4.4153   27.1469 N   0  0  0  0  0  0  0  0  0  0  0  0
    8.4615   -5.5425   27.5529 C   0  0  0  0  0  0  0  0  0  0  0  0
    8.0761   -6.4383   27.0646 H   0  0  0  0  0  0  0  0  0  0  0  0
    9.4855   -5.3504   27.2351 H   0  0  0  0  0  0  0  0  0  0  0  0
    8.4391   -5.6840   28.6360 H   0  0  0  0  0  0  0  0  0  0  0  0
    8.1316   -3.1904   27.0150 N   0  0  0  0  0  0  0  0  0  0  0  0
    4.9634   -3.0931   26.2468 H   0  0  0  0  0  0  0  0  0  0  0  0
    7.6432   -0.5227   27.2883 H   0  0  0  0  0  0  0  0  0  0  0  0
    6.1756   -0.5404   26.2945 H   0  0  0  0  0  0  0  0  0  0  0  0
    9.2880   -0.1859   25.5368 C   0  0  0  0  0  0  0  0  0  0  0  0
    9.6925    0.0656   26.6605 O   0  0  0  0  0  0  0  0  0  0  0  0
   10.1703   -0.0911   24.3388 C   0  0  0  0  0  0  0  0  0  0  0  0
   11.5388    0.0375   24.5839 C   0  0  0  0  0  0  0  0  0  0  0  0
   12.4287    0.2004   23.5464 C   0  0  0  0  0  0  0  0  0  0  0  0
   11.9105    0.2507   22.2605 C   0  0  0  0  0  0  0  0  0  0  0  0
   12.7915    0.4940   21.2776 F   0  0  0  0  0  0  0  0  0  0  0  0
   10.5646    0.0505   21.9815 C   0  0  0  0  0  0  0  0  0  0  0  0
    9.6562   -0.1461   23.0338 C   0  0  0  0  0  0  0  0  0  0  0  0
   10.2209    0.0297   20.9544 H   0  0  0  0  0  0  0  0  0  0  0  0
   13.5013    0.2755   23.6998 H   0  0  0  0  0  0  0  0  0  0  0  0
   11.8861   -0.0011   25.6082 H   0  0  0  0  0  0  0  0  0  0  0  0
    6.3605   -0.5726   23.9582 H   0  0  0  0  0  0  0  0  0  0  0  0
    7.2475    0.9474   24.0230 H   0  0  0  0  0  0  0  0  0  0  0  0
    6.9762   -2.5475   20.3595 H   0  0  0  0  0  0  0  0  0  0  0  0
    5.8902   -2.2843   21.7233 H   0  0  0  0  0  0  0  0  0  0  0  0
    8.9024   -2.2010   21.6601 H   0  0  0  0  0  0  0  0  0  0  0  0
    7.6913   -4.0228   22.8227 H   0  0  0  0  0  0  0  0  0  0  0  0
    6.8366   -2.8476   23.8249 H   0  0  0  0  0  0  0  0  0  0  0  0
    8.5788   -3.0650   24.0225 H   0  0  0  0  0  0  0  0  0  0  0  0
  1  2  1  0
  2  3  1  0
  3  4  1  0
  4  5  1  0
  5  6  2  0
  6  7  1  0
  7  8  2  0
  8  9  1  0
  9 10  2  0
 10 11  1  0
 11 12  2  0
 12 13  1  0
 13 14  2  0
 13 15  1  0
 12 16  1  0
 11 17  1  0
 10 18  1  0
  8 19  1  0
  6 20  1  0
  4 21  1  0
 21 22  2  0
 21 23  1  0
 23 24  1  1
 24 25  1  0
 25 26  1  0
 26 27  1  0
 27 28  1  0
 28 29  2  0
 29 30  1  0
 30 31  1  0
 31 32  1  0
 31 33  1  0
 31 34  1  0
 30 35  1  0
 28 36  1  0
 26 37  1  0
 26 38  1  0
 25 39  1  0
 39 40  2  0
 39 41  1  0
 41 42  2  0
 42 43  1  0
 43 44  2  0
 44 45  1  0
 44 46  1  0
 46 47  2  0
 46 48  1  0
 43 49  1  0
 42 50  1  0
 24 51  1  0
 24 52  1  0
  3 53  1  0
  3 54  1  0
  2 55  1  6
  1 56  1  0
  1 57  1  0
  1 58  1  0
 23  2  1  0
 35 27  2  0
 47 41  1  0
 14  5  1  0
 47 23  1  0
 14  9  1  0
M  END
>  <cnnaffinities>  (25) 
[6.53881, 6.52154]

>  <score>  (25) 
6.53881

>  <index>  (25) 
34

>  <Smiles>  (25) 
C([C@]1(C(N(c2c(nc(c3c(c(c(c(c23)[H])[H])[H])[H])[H])[H])C(=O)[C@]21C(N(C(c1c(nn(C([H])([H])[H])n1)[H])([H])[H])C(=O)c1c(c(c(F)c(c21)[H])[H])[H])([H])[H])([H])[H])[H])([H])([H])[H]

>  <h>  (25) 
<NA>

>  <Training>  (25) 
True

>  <Success>  (25) 
True

>  <enamine_searched>  (25) 
False

>  <enamine_id>  (25) 
nan

$$$$

     RDKit          3D

 59 64  0  0  0  0  0  0  0  0999 V2000
    9.8861   -1.3548   22.0673 C   0  0  0  0  0  0  0  0  0  0  0  0
    8.5256   -0.8078   22.5217 C   0  0  1  0  0  0  0  0  0  0  0  0
    7.9804    0.1936   21.4714 C   0  0  0  0  0  0  0  0  0  0  0  0
    6.8760   -0.4920   20.8399 N   0  0  0  0  0  0  0  0  0  0  0  0
    6.0999    0.0558   19.7663 C   0  0  0  0  0  0  0  0  0  0  0  0
    6.4414   -0.2213   18.4487 C   0  0  0  0  0  0  0  0  0  0  0  0
    5.8079    0.2339   17.3544 N   0  0  0  0  0  0  0  0  0  0  0  0
    4.7240    0.9945   17.5429 C   0  0  0  0  0  0  0  0  0  0  0  0
    4.1150    1.1858   18.8047 C   0  0  0  0  0  0  0  0  0  0  0  0
    2.7606    1.9885   18.9793 C   0  0  0  0  0  0  0  0  0  0  0  0
    2.2961    2.3143   20.3061 C   0  0  0  0  0  0  0  0  0  0  0  0
    3.1710    1.8305   21.5830 C   0  0  0  0  0  0  0  0  0  0  0  0
    4.3786    1.1174   21.3895 C   0  0  0  0  0  0  0  0  0  0  0  0
    4.8943    0.7680   19.9902 C   0  0  0  0  0  0  0  0  0  0  0  0
    5.0955    0.9166   22.2222 H   0  0  0  0  0  0  0  0  0  0  0  0
    3.0660    2.4192   22.5458 H   0  0  0  0  0  0  0  0  0  0  0  0
    1.7719    3.3173   20.4729 H   0  0  0  0  0  0  0  0  0  0  0  0
    2.5385    2.6680   18.0866 H   0  0  0  0  0  0  0  0  0  0  0  0
    4.1997    1.4023   16.6679 H   0  0  0  0  0  0  0  0  0  0  0  0
    7.2827   -0.8754   18.2598 H   0  0  0  0  0  0  0  0  0  0  0  0
    6.4600   -1.6274   21.5158 C   0  0  0  0  0  0  0  0  0  0  0  0
    5.5114   -2.3141   21.2076 O   0  0  0  0  0  0  0  0  0  0  0  0
    7.3878   -1.8726   22.7294 C   0  0  1  0  0  0  0  0  0  0  0  0
    7.8990   -3.3565   22.6979 C   0  0  0  0  0  0  0  0  0  0  0  0
    6.8523   -4.3183   22.9603 N   0  0  0  0  0  0  0  0  0  0  0  0
    6.6372   -5.4606   22.0793 C   0  0  0  0  0  0  0  0  0  0  0  0
    7.2595   -6.6442   22.5931 C   0  0  0  0  0  0  0  0  0  0  0  0
    7.0321   -6.9779   22.6962 C   0  0  0  0  0  0  0  0  0  0  0  0
    9.4071   -8.0412   22.9244 C   0  0  0  0  0  0  0  0  0  0  0  0
    9.4071   -8.0411   22.9244 N   0  0  0  0  0  0  0  0  0  0  0  0
   10.8860   -8.0882   22.7335 C   0  0  0  0  0  0  0  0  0  0  0  0
   11.5177   -7.3070   22.3769 H   0  0  0  0  0  0  0  0  0  0  0  0
   10.9757   -8.1391   23.7843 H   0  0  0  0  0  0  0  0  0  0  0  0
   11.2164   -8.8842   22.0816 H   0  0  0  0  0  0  0  0  0  0  0  0
    8.1473   -7.6222   21.7779 N   0  0  0  0  0  0  0  0  0  0  0  0
    9.2680   -8.7503   23.7152 H   0  0  0  0  0  0  0  0  0  0  0  0
    6.4449   -7.5949   23.2453 H   0  0  0  0  0  0  0  0  0  0  0  0
    5.6225   -5.8467   22.0799 H   0  0  0  0  0  0  0  0  0  0  0  0
    6.9540   -5.2938   21.0506 H   0  0  0  0  0  0  0  0  0  0  0  0
    5.9902   -4.1374   24.0388 C   0  0  0  0  0  0  0  0  0  0  0  0
    5.3135   -5.0509   24.4941 O   0  0  0  0  0  0  0  0  0  0  0  0
    5.8913   -2.7445   24.6168 C   0  0  0  0  0  0  0  0  0  0  0  0
    5.0900   -2.5273   25.7525 C   0  0  0  0  0  0  0  0  0  0  0  0
    4.8994   -1.2551   26.2655 C   0  0  0  0  0  0  0  0  0  0  0  0
    5.5018   -0.1867   25.6129 C   0  0  0  0  0  0  0  0  0  0  0  0
    5.2946    1.0582   26.0826 F   0  0  0  0  0  0  0  0  0  0  0  0
    6.2979   -0.3696   24.4937 C   0  0  0  0  0  0  0  0  0  0  0  0
    6.5465   -1.6628   24.0024 C   0  0  0  0  0  0  0  0  0  0  0  0
    6.7084    0.5136   24.0171 H   0  0  0  0  0  0  0  0  0  0  0  0
    4.2791   -1.0820   27.1408 H   0  0  0  0  0  0  0  0  0  0  0  0
    4.5947   -3.3625   26.2391 H   0  0  0  0  0  0  0  0  0  0  0  0
    8.3631   -3.5717   21.7280 H   0  0  0  0  0  0  0  0  0  0  0  0
    8.6678   -3.4829   23.4700 H   0  0  0  0  0  0  0  0  0  0  0  0
    8.7321    0.4593   20.7183 H   0  0  0  0  0  0  0  0  0  0  0  0
    7.6569    1.1305   21.9508 H   0  0  0  0  0  0  0  0  0  0  0  0
    8.7155   -0.2921   23.4705 H   0  0  0  0  0  0  0  0  0  0  0  0
    9.8132   -1.8701   21.1032 H   0  0  0  0  0  0  0  0  0  0  0  0
   10.3142   -2.0395   22.8049 H   0  0  0  0  0  0  0  0  0  0  0  0
   10.5957   -0.5286   21.9472 H   0  0  0  0  0  0  0  0  0  0  0  0
  1  2  1  0
  2  3  1  0
  3  4  1  0
  4  5  1  0
  5  6  2  0
  6  7  1  0
  7  8  2  0
  8  9  1  0
  9 10  2  0
 10 11  1  0
 11 12  2  0
 12 13  1  0
 13 14  2  0
 13 15  1  0
 12 16  1  0
 11 17  1  0
 10 18  1  0
  8 19  1  0
  6 20  1  0
  4 21  1  0
 21 22  2  0
 21 23  1  0
 23 24  1  6
 24 25  1  0
 25 26  1  0
 26 27  1  0
 27 28  1  0
 28 29  2  0
 29 30  1  0
 30 31  1  0
 31 32  1  0
 31 33  1  0
 31 34  1  0
 30 35  1  0
 29 36  1  0
 28 37  1  0
 26 38  1  0
 26 39  1  0
 25 40  1  0
 40 41  2  0
 40 42  1  0
 42 43  2  0
 43 44  1  0
 44 45  2  0
 45 46  1  0
 45 47  1  0
 47 48  2  0
 47 49  1  0
 44 50  1  0
 43 51  1  0
 24 52  1  0
 24 53  1  0
  3 54  1  0
  3 55  1  0
  2 56  1  1
  1 57  1  0
  1 58  1  0
  1 59  1  0
 23  2  1  0
 35 27  2  0
 48 42  1  0
 14  5  1  0
 48 23  1  0
 14  9  1  0
M  END
>  <cnnaffinities>  (26) 
[6.04843]

>  <score>  (26) 
6.04843

>  <index>  (26) 
36

>  <Smiles>  (26) 
C([C@]1(C(N(c2c(nc(c3c(c(c(c(c23)[H])[H])[H])[H])[H])[H])C(=O)[C@]21C(N(C(c1c(c(n(C([H])([H])[H])n1)[H])[H])([H])[H])C(=O)c1c(c(c(F)c(c21)[H])[H])[H])([H])[H])([H])[H])[H])([H])([H])[H]

>  <h>  (26) 
<NA>

>  <Training>  (26) 
True

>  <Success>  (26) 
True

>  <enamine_searched>  (26) 
False

>  <enamine_id>  (26) 
nan

$$$$

     RDKit          3D

 72 77  0  0  0  0  0  0  0  0999 V2000
    7.2136    2.2289   28.5479 C   0  0  0  0  0  0  0  0  0  0  0  0
    7.6369    1.0545   27.7794 N   0  0  0  0  0  4  0  0  0  0  0  0
    6.5310    0.2718   27.1525 C   0  0  0  0  0  0  0  0  0  0  0  0
    7.1065   -0.8992   26.3558 C   0  0  0  0  0  0  0  0  0  0  0  0
    7.9784   -0.5006   25.2502 N   0  0  0  0  0  0  0  0  0  0  0  0
    7.3849   -0.0858   23.9851 C   0  0  0  0  0  0  0  0  0  0  0  0
    8.2274   -0.5043   22.7404 C   0  0  2  0  0  0  0  0  0  0  0  0
    7.6182    0.2805   21.5551 C   0  0  0  0  0  0  0  0  0  0  0  0
    7.7919    1.4536   21.2962 O   0  0  0  0  0  0  0  0  0  0  0  0
    6.7453   -0.5462   20.8723 N   0  0  0  0  0  0  0  0  0  0  0  0
    5.9030   -0.0986   19.8142 C   0  0  0  0  0  0  0  0  0  0  0  0
    6.3590   -0.1771   18.5221 C   0  0  0  0  0  0  0  0  0  0  0  0
    5.6324    0.1571   17.4254 N   0  0  0  0  0  0  0  0  0  0  0  0
    4.4129    0.5968   17.6168 C   0  0  0  0  0  0  0  0  0  0  0  0
    3.8055    0.7358   18.8965 C   0  0  0  0  0  0  0  0  0  0  0  0
    2.5097    1.2964   19.0530 C   0  0  0  0  0  0  0  0  0  0  0  0
    1.9583    1.4533   20.2947 C   0  0  0  0  0  0  0  0  0  0  0  0
    2.6830    1.0694   21.4434 C   0  0  0  0  0  0  0  0  0  0  0  0
    3.9332    0.5029   21.3183 C   0  0  0  0  0  0  0  0  0  0  0  0
    4.5508    0.3474   20.0390 C   0  0  0  0  0  0  0  0  0  0  0  0
    4.4749    0.2154   22.2145 H   0  0  0  0  0  0  0  0  0  0  0  0
    2.2573    1.2618   22.4274 H   0  0  0  0  0  0  0  0  0  0  0  0
    0.9830    1.9165   20.4035 H   0  0  0  0  0  0  0  0  0  0  0  0
    2.0006    1.6500   18.1671 H   0  0  0  0  0  0  0  0  0  0  0  0
    3.8451    0.8623   16.7238 H   0  0  0  0  0  0  0  0  0  0  0  0
    7.3490   -0.5875   18.3275 H   0  0  0  0  0  0  0  0  0  0  0  0
    6.8109   -1.9356   21.2714 C   0  0  0  0  0  0  0  0  0  0  0  0
    7.9970   -1.9818   22.2480 C   0  0  2  0  0  0  0  0  0  0  0  0
    7.8450   -3.0884   23.2940 C   0  0  0  0  0  0  0  0  0  0  0  0
    6.5514   -3.0718   23.8831 O   0  0  0  0  0  0  0  0  0  0  0  0
    6.0110   -4.3573   24.1147 C   0  0  0  0  0  0  0  0  0  0  0  0
    4.7121   -4.2206   24.8853 C   0  0  0  0  0  0  0  0  0  0  0  0
    3.9821   -5.5803   25.0576 C   0  0  0  0  0  0  0  0  0  0  0  0
    4.0639   -5.4359   26.8644 S   0  0  0  0  0  0  0  0  0  0  0  0
    2.7538   -5.2027   27.4489 O   0  0  0  0  0  0  0  0  0  0  0  0
    4.9741   -6.3991   27.4636 O   0  0  0  0  0  0  0  0  0  0  0  0
    4.8886   -3.8900   26.3986 C   0  0  0  0  0  0  0  0  0  0  0  0
    4.3235   -3.0313   26.7679 H   0  0  0  0  0  0  0  0  0  0  0  0
    5.9217   -3.8631   26.7567 H   0  0  0  0  0  0  0  0  0  0  0  0
    4.5401   -6.4491   24.7027 H   0  0  0  0  0  0  0  0  0  0  0  0
    2.9464   -5.6275   24.7132 H   0  0  0  0  0  0  0  0  0  0  0  0
    4.0792   -3.4824   24.3934 H   0  0  0  0  0  0  0  0  0  0  0  0
    6.7199   -4.9797   24.6838 H   0  0  0  0  0  0  0  0  0  0  0  0
    5.8244   -4.8668   23.1561 H   0  0  0  0  0  0  0  0  0  0  0  0
    8.0003   -4.0603   22.7960 H   0  0  0  0  0  0  0  0  0  0  0  0
    8.6023   -2.9711   24.0835 H   0  0  0  0  0  0  0  0  0  0  0  0
    8.9083   -2.2159   21.6778 H   0  0  0  0  0  0  0  0  0  0  0  0
    6.9719   -2.5779   20.4001 H   0  0  0  0  0  0  0  0  0  0  0  0
    5.8785   -2.2601   21.7512 H   0  0  0  0  0  0  0  0  0  0  0  0
    9.7017   -0.1831   23.0231 C   0  0  0  0  0  0  0  0  0  0  0  0
   10.6425    0.0309   21.9935 C   0  0  0  0  0  0  0  0  0  0  0  0
   11.9873    0.2286   22.2988 C   0  0  0  0  0  0  0  0  0  0  0  0
   13.2167    0.5792   21.1140 Cl  0  0  0  0  0  0  0  0  0  0  0  0
   12.4545    0.1712   23.6057 C   0  0  0  0  0  0  0  0  0  0  0  0
   11.5415    0.0120   24.6199 C   0  0  0  0  0  0  0  0  0  0  0  0
   10.1844   -0.1373   24.3428 C   0  0  0  0  0  0  0  0  0  0  0  0
    9.2849   -0.2561   25.5218 C   0  0  0  0  0  0  0  0  0  0  0  0
    9.7046   -0.1071   26.6773 O   0  0  0  0  0  0  0  0  0  0  0  0
   11.8579    0.0190   25.6526 H   0  0  0  0  0  0  0  0  0  0  0  0
   13.5176    0.2508   23.8032 H   0  0  0  0  0  0  0  0  0  0  0  0
   10.3193    0.0373   20.9601 H   0  0  0  0  0  0  0  0  0  0  0  0
    7.2640    1.0107   23.9547 H   0  0  0  0  0  0  0  0  0  0  0  0
    6.3929   -0.5425   23.9325 H   0  0  0  0  0  0  0  0  0  0  0  0
    6.3047   -1.5149   25.9393 H   0  0  0  0  0  0  0  0  0  0  0  0
    7.7132   -1.5370   27.0079 H   0  0  0  0  0  0  0  0  0  0  0  0
    5.8395   -0.1016   27.9194 H   0  0  0  0  0  0  0  0  0  0  0  0
    5.9671    0.9268   26.4762 H   0  0  0  0  0  0  0  0  0  0  0  0
    8.3058    1.3309   27.0407 H   0  0  0  0  0  0  0  0  0  0  0  0
    8.2115    0.4225   28.3738 H   0  0  0  0  0  0  0  0  0  0  0  0
    8.0775    2.7580   28.9475 H   0  0  0  0  0  0  0  0  0  0  0  0
    6.6455    2.9228   27.9179 H   0  0  0  0  0  0  0  0  0  0  0  0
    6.5726    1.9360   29.3863 H   0  0  0  0  0  0  0  0  0  0  0  0
  1  2  1  0
  2  3  1  0
  3  4  1  0
  4  5  1  0
  5  6  1  0
  7  6  1  1
  7  8  1  0
  8  9  2  0
  8 10  1  0
 10 11  1  0
 11 12  2  0
 12 13  1  0
 13 14  2  0
 14 15  1  0
 15 16  2  0
 16 17  1  0
 17 18  2  0
 18 19  1  0
 19 20  2  0
 19 21  1  0
 18 22  1  0
 17 23  1  0
 16 24  1  0
 14 25  1  0
 12 26  1  0
 10 27  1  0
 27 28  1  0
 28 29  1  0
 29 30  1  0
 30 31  1  0
 31 32  1  0
 32 33  1  0
 33 34  1  0
 34 35  2  0
 34 36  2  0
 34 37  1  0
 37 38  1  0
 37 39  1  0
 33 40  1  0
 33 41  1  0
 32 42  1  0
 31 43  1  0
 31 44  1  0
 29 45  1  0
 29 46  1  0
 28 47  1  6
 27 48  1  0
 27 49  1  0
  7 50  1  0
 50 51  2  0
 51 52  1  0
 52 53  1  0
 52 54  2  0
 54 55  1  0
 55 56  2  0
 56 57  1  0
 57 58  2  0
 55 59  1  0
 54 60  1  0
 51 61  1  0
  6 62  1  0
  6 63  1  0
  4 64  1  0
  4 65  1  0
  3 66  1  0
  3 67  1  0
  2 68  1  0
  2 69  1  0
  1 70  1  0
  1 71  1  0
  1 72  1  0
 57  5  1  0
 28  7  1  0
 37 32  1  0
 56 50  1  0
 20 11  1  0
 20 15  1  0
M  CHG  1   2   1
M  END
>  <cnnaffinities>  (27) 
[6.71624, 6.49091]

>  <score>  (27) 
6.71624

>  <index>  (27) 
38

>  <Smiles>  (27) 
C([N+](C(C(N1C([C@@]2(C(=O)N(c3c(nc(c4c(c(c(c(c34)[H])[H])[H])[H])[H])[H])C([C@@]2(C(OC(C2(C(S(=O)(=O)C2([H])[H])([H])[H])[H])([H])[H])([H])[H])[H])([H])[H])c2c(c(Cl)c(c(c2C1=O)[H])[H])[H])([H])[H])([H])[H])([H])[H])([H])[H])([H])([H])[H]

>  <h>  (27) 
<NA>

>  <Training>  (27) 
True

>  <Success>  (27) 
True

>  <enamine_searched>  (27) 
False

>  <enamine_id>  (27) 
nan

$$$$

     RDKit          3D

 60 64  0  0  0  0  0  0  0  0999 V2000
    8.1701   -4.4355   24.9135 C   0  0  0  0  0  0  0  0  0  0  0  0
    8.6653   -3.5357   23.7978 C   0  0  0  0  0  0  0  0  0  0  0  0
    7.5764   -2.7510   23.3480 O   0  0  0  0  0  0  0  0  0  0  0  0
    7.9236   -1.8850   22.2938 C   0  0  1  0  0  0  0  0  0  0  0  0
    6.7660   -1.8322   21.2994 C   0  0  0  0  0  0  0  0  0  0  0  0
    6.7527   -0.4529   20.8679 N   0  0  0  0  0  0  0  0  0  0  0  0
    5.9016   -0.0411   19.8089 C   0  0  0  0  0  0  0  0  0  0  0  0
    6.3534   -0.1442   18.5209 C   0  0  0  0  0  0  0  0  0  0  0  0
    5.6195    0.1305   17.4153 N   0  0  0  0  0  0  0  0  0  0  0  0
    4.3898    0.5423   17.6058 C   0  0  0  0  0  0  0  0  0  0  0  0
    3.7879    0.7059   18.8847 C   0  0  0  0  0  0  0  0  0  0  0  0
    2.4957    1.2855   19.0438 C   0  0  0  0  0  0  0  0  0  0  0  0
    1.9184    1.3828   20.2794 C   0  0  0  0  0  0  0  0  0  0  0  0
    2.6326    0.9453   21.4155 C   0  0  0  0  0  0  0  0  0  0  0  0
    3.9144    0.4597   21.3016 C   0  0  0  0  0  0  0  0  0  0  0  0
    4.5391    0.3498   20.0293 C   0  0  0  0  0  0  0  0  0  0  0  0
    4.4726    0.1899   22.1900 H   0  0  0  0  0  0  0  0  0  0  0  0
    2.1771    1.0455   22.3940 H   0  0  0  0  0  0  0  0  0  0  0  0
    0.9092    1.7782   20.4020 H   0  0  0  0  0  0  0  0  0  0  0  0
    2.0039    1.7078   18.1748 H   0  0  0  0  0  0  0  0  0  0  0  0
    3.7955    0.7285   16.7148 H   0  0  0  0  0  0  0  0  0  0  0  0
    7.3613   -0.5088   18.3377 H   0  0  0  0  0  0  0  0  0  0  0  0
    7.6398    0.3750   21.5312 C   0  0  0  0  0  0  0  0  0  0  0  0
    7.8779    1.5266   21.2257 O   0  0  0  0  0  0  0  0  0  0  0  0
    8.2033   -0.4063   22.7351 C   0  0  1  0  0  0  0  0  0  0  0  0
    7.3387   -0.0445   23.9756 C   0  0  0  0  0  0  0  0  0  0  0  0
    7.9399   -0.5189   25.2147 N   0  0  0  0  0  0  0  0  0  0  0  0
    7.1257   -1.1098   26.2593 C   0  0  0  0  0  0  0  0  0  0  0  0
    6.4763   -0.0505   27.1514 C   0  0  0  0  0  0  0  0  0  0  0  0
    5.3561    0.3854   26.9294 O   0  0  0  0  0  0  0  0  0  0  0  0
    7.2507    0.3577   28.1917 N   0  0  0  0  0  0  0  0  0  0  0  0
    6.7871    1.4416   29.0313 C   0  0  0  0  0  0  0  0  0  0  0  0
    5.8020    1.1942   29.4357 H   0  0  0  0  0  0  0  0  0  0  0  0
    6.7010    2.3861   28.4792 H   0  0  0  0  0  0  0  0  0  0  0  0
    7.4881    1.5734   29.8585 H   0  0  0  0  0  0  0  0  0  0  0  0
    8.2486    0.1894   28.1191 H   0  0  0  0  0  0  0  0  0  0  0  0
    6.3414   -1.7234   25.8067 H   0  0  0  0  0  0  0  0  0  0  0  0
    7.7848   -1.7513   26.8562 H   0  0  0  0  0  0  0  0  0  0  0  0
    9.2310   -0.2372   25.5197 C   0  0  0  0  0  0  0  0  0  0  0  0
    9.6422   -0.1924   26.6834 O   0  0  0  0  0  0  0  0  0  0  0  0
   10.1349   -0.0530   24.3590 C   0  0  0  0  0  0  0  0  0  0  0  0
   11.4816    0.1208   24.6578 C   0  0  0  0  0  0  0  0  0  0  0  0
   12.4097    0.2432   23.6515 C   0  0  0  0  0  0  0  0  0  0  0  0
   11.9634    0.2316   22.3342 C   0  0  0  0  0  0  0  0  0  0  0  0
   13.2035    0.4984   21.1391 Cl  0  0  0  0  0  0  0  0  0  0  0  0
   10.6235    0.0398   22.0102 C   0  0  0  0  0  0  0  0  0  0  0  0
    9.6711   -0.1177   23.0365 C   0  0  0  0  0  0  0  0  0  0  0  0
   10.3107    0.0209   20.9709 H   0  0  0  0  0  0  0  0  0  0  0  0
   13.4699    0.3446   23.8596 H   0  0  0  0  0  0  0  0  0  0  0  0
   11.7782    0.1471   25.6958 H   0  0  0  0  0  0  0  0  0  0  0  0
    7.1876    1.0426   24.0029 H   0  0  0  0  0  0  0  0  0  0  0  0
    6.3603   -0.5264   23.8832 H   0  0  0  0  0  0  0  0  0  0  0  0
    6.9237   -2.5089   20.4481 H   0  0  0  0  0  0  0  0  0  0  0  0
    5.8341   -2.1261   21.8020 H   0  0  0  0  0  0  0  0  0  0  0  0
    8.8256   -2.2600   21.7882 H   0  0  0  0  0  0  0  0  0  0  0  0
    9.4938   -2.8905   24.1265 H   0  0  0  0  0  0  0  0  0  0  0  0
    9.0275   -4.0917   22.9296 H   0  0  0  0  0  0  0  0  0  0  0  0
    7.3351   -5.0501   24.5665 H   0  0  0  0  0  0  0  0  0  0  0  0
    8.9607   -5.0993   25.2821 H   0  0  0  0  0  0  0  0  0  0  0  0
    7.8173   -3.8284   25.7524 H   0  0  0  0  0  0  0  0  0  0  0  0
  1  2  1  0
  2  3  1  0
  3  4  1  0
  4  5  1  0
  5  6  1  0
  6  7  1  0
  7  8  2  0
  8  9  1  0
  9 10  2  0
 10 11  1  0
 11 12  2  0
 12 13  1  0
 13 14  2  0
 14 15  1  0
 15 16  2  0
 15 17  1  0
 14 18  1  0
 13 19  1  0
 12 20  1  0
 10 21  1  0
  8 22  1  0
  6 23  1  0
 23 24  2  0
 23 25  1  0
 25 26  1  1
 26 27  1  0
 27 28  1  0
 28 29  1  0
 29 30  2  0
 29 31  1  0
 31 32  1  0
 32 33  1  0
 32 34  1  0
 32 35  1  0
 31 36  1  0
 28 37  1  0
 28 38  1  0
 27 39  1  0
 39 40  2  0
 39 41  1  0
 41 42  2  0
 42 43  1  0
 43 44  2  0
 44 45  1  0
 44 46  1  0
 46 47  2  0
 46 48  1  0
 43 49  1  0
 42 50  1  0
 26 51  1  0
 26 52  1  0
  5 53  1  0
  5 54  1  0
  4 55  1  6
  2 56  1  0
  2 57  1  0
  1 58  1  0
  1 59  1  0
  1 60  1  0
 25  4  1  0
 47 41  1  0
 16  7  1  0
 47 25  1  0
 16 11  1  0
M  END
>  <cnnaffinities>  (28) 
[6.22886]

>  <score>  (28) 
6.22886

>  <index>  (28) 
39

>  <Smiles>  (28) 
C(C(O[C@]1(C(N(c2c(nc(c3c(c(c(c(c23)[H])[H])[H])[H])[H])[H])C(=O)[C@]21C(N(C(C(=O)N(C([H])([H])[H])[H])([H])[H])C(=O)c1c(c(c(Cl)c(c21)[H])[H])[H])([H])[H])([H])[H])[H])([H])[H])([H])([H])[H]

>  <h>  (28) 
<NA>

>  <Training>  (28) 
True

>  <Success>  (28) 
True

>  <enamine_searched>  (28) 
False

>  <enamine_id>  (28) 
nan

$$$$

     RDKit          3D

 57 61  0  0  0  0  0  0  0  0999 V2000
    7.2298    0.9050   28.4154 C   0  0  0  0  0  0  0  0  0  0  0  0
    7.2032    1.1774   26.9936 N   0  0  0  0  0  0  0  0  0  0  0  0
    7.8022    2.2848   26.4643 C   0  0  0  0  0  0  0  0  0  0  0  0
    8.2247    3.1937   27.1582 O   0  0  0  0  0  0  0  0  0  0  0  0
    7.9021    2.3637   24.9341 C   0  0  0  0  0  0  0  0  0  0  0  0
    8.7100    1.3505   24.2904 N   0  0  0  0  0  0  0  0  0  0  0  0
    8.1801    0.0200   24.0807 C   0  0  0  0  0  0  0  0  0  0  0  0
    8.4171   -0.4771   22.6348 C   0  0  2  0  0  0  0  0  0  0  0  0
    7.5252    0.3467   21.6662 C   0  0  0  0  0  0  0  0  0  0  0  0
    7.5218    1.5514   21.5578 O   0  0  0  0  0  0  0  0  0  0  0  0
    6.7082   -0.5177   20.9576 N   0  0  0  0  0  0  0  0  0  0  0  0
    5.8976   -0.0966   19.8654 C   0  0  0  0  0  0  0  0  0  0  0  0
    6.3580   -0.2093   18.5752 C   0  0  0  0  0  0  0  0  0  0  0  0
    5.6588    0.1508   17.4695 N   0  0  0  0  0  0  0  0  0  0  0  0
    4.4390    0.6008   17.6432 C   0  0  0  0  0  0  0  0  0  0  0  0
    3.8178    0.7361   18.9208 C   0  0  0  0  0  0  0  0  0  0  0  0
    2.5197    1.3012   19.0647 C   0  0  0  0  0  0  0  0  0  0  0  0
    1.9633    1.4821   20.3021 C   0  0  0  0  0  0  0  0  0  0  0  0
    2.6820    1.1133   21.4648 C   0  0  0  0  0  0  0  0  0  0  0  0
    3.9242    0.5232   21.3563 C   0  0  0  0  0  0  0  0  0  0  0  0
    4.5506    0.3605   20.0792 C   0  0  0  0  0  0  0  0  0  0  0  0
    4.4465    0.2101   22.2579 H   0  0  0  0  0  0  0  0  0  0  0  0
    2.2401    1.3016   22.4428 H   0  0  0  0  0  0  0  0  0  0  0  0
    0.9923    1.9633   20.4010 H   0  0  0  0  0  0  0  0  0  0  0  0
    2.0156    1.6541   18.1741 H   0  0  0  0  0  0  0  0  0  0  0  0
    3.8720    0.8519   16.7418 H   0  0  0  0  0  0  0  0  0  0  0  0
    7.3568   -0.5984   18.3783 H   0  0  0  0  0  0  0  0  0  0  0  0
    7.1541   -1.8865   21.0658 C   0  0  0  0  0  0  0  0  0  0  0  0
    7.9197   -1.9345   22.4020 C   0  0  2  0  0  0  0  0  0  0  0  0
    7.0253   -2.5087   23.5285 C   0  0  0  0  0  0  0  0  0  0  0  0
    6.6768   -3.9070   23.2440 C   0  0  0  0  0  0  0  0  0  0  0  0
    6.4347   -5.0038   22.9654 N   0  0  0  0  0  0  0  0  0  0  0  0
    7.5468   -2.4838   24.4907 H   0  0  0  0  0  0  0  0  0  0  0  0
    6.0966   -1.9378   23.6351 H   0  0  0  0  0  0  0  0  0  0  0  0
    8.7679   -2.6270   22.3430 H   0  0  0  0  0  0  0  0  0  0  0  0
    7.8055   -2.1621   20.2269 H   0  0  0  0  0  0  0  0  0  0  0  0
    6.3043   -2.5726   21.0561 H   0  0  0  0  0  0  0  0  0  0  0  0
    9.9156   -0.3012   22.3719 C   0  0  0  0  0  0  0  0  0  0  0  0
   10.5871   -1.1471   21.4799 C   0  0  0  0  0  0  0  0  0  0  0  0
   11.9500   -1.0206   21.2873 C   0  0  0  0  0  0  0  0  0  0  0  0
   12.7274   -2.0708   20.1352 Cl  0  0  0  0  0  0  0  0  0  0  0  0
   12.6978   -0.0470   21.9471 C   0  0  0  0  0  0  0  0  0  0  0  0
   12.0385    0.8143   22.8044 C   0  0  0  0  0  0  0  0  0  0  0  0
   10.6643    0.6937   23.0206 C   0  0  0  0  0  0  0  0  0  0  0  0
   10.0105    1.6453   23.9776 C   0  0  0  0  0  0  0  0  0  0  0  0
   10.5885    2.6219   24.4376 O   0  0  0  0  0  0  0  0  0  0  0  0
   12.5725    1.6018   23.3263 H   0  0  0  0  0  0  0  0  0  0  0  0
   13.7676    0.0297   21.7820 H   0  0  0  0  0  0  0  0  0  0  0  0
   10.0617   -1.9215   20.9312 H   0  0  0  0  0  0  0  0  0  0  0  0
    7.1103    0.0324   24.2943 H   0  0  0  0  0  0  0  0  0  0  0  0
    8.6815   -0.6772   24.7656 H   0  0  0  0  0  0  0  0  0  0  0  0
    6.8998    2.3403   24.4805 H   0  0  0  0  0  0  0  0  0  0  0  0
    8.3766    3.3217   24.7195 H   0  0  0  0  0  0  0  0  0  0  0  0
    6.8127    0.4651   26.3957 H   0  0  0  0  0  0  0  0  0  0  0  0
    7.8618    0.0367   28.6368 H   0  0  0  0  0  0  0  0  0  0  0  0
    7.6455    1.7725   28.9273 H   0  0  0  0  0  0  0  0  0  0  0  0
    6.2239    0.7159   28.7992 H   0  0  0  0  0  0  0  0  0  0  0  0
  1  2  1  0
  2  3  1  0
  3  4  2  0
  3  5  1  0
  5  6  1  0
  6  7  1  0
  8  7  1  1
  8  9  1  0
  9 10  2  0
  9 11  1  0
 11 12  1  0
 12 13  2  0
 13 14  1  0
 14 15  2  0
 15 16  1  0
 16 17  2  0
 17 18  1  0
 18 19  2  0
 19 20  1  0
 20 21  2  0
 20 22  1  0
 19 23  1  0
 18 24  1  0
 17 25  1  0
 15 26  1  0
 13 27  1  0
 11 28  1  0
 28 29  1  0
 29 30  1  0
 30 31  1  0
 31 32  3  0
 30 33  1  0
 30 34  1  0
 29 35  1  6
 28 36  1  0
 28 37  1  0
  8 38  1  0
 38 39  2  0
 39 40  1  0
 40 41  1  0
 40 42  2  0
 42 43  1  0
 43 44  2  0
 44 45  1  0
 45 46  2  0
 43 47  1  0
 42 48  1  0
 39 49  1  0
  7 50  1  0
  7 51  1  0
  5 52  1  0
  5 53  1  0
  2 54  1  0
  1 55  1  0
  1 56  1  0
  1 57  1  0
 45  6  1  0
 29  8  1  0
 44 38  1  0
 21 12  1  0
 21 16  1  0
M  END
>  <cnnaffinities>  (29) 
[6.29644]

>  <score>  (29) 
6.29644

>  <index>  (29) 
40

>  <Smiles>  (29) 
C(N(C(=O)C(N1C([C@@]2(C(=O)N(c3c(nc(c4c(c(c(c(c34)[H])[H])[H])[H])[H])[H])C([C@@]2(C(C#N)([H])[H])[H])([H])[H])c2c(c(Cl)c(c(c2C1=O)[H])[H])[H])([H])[H])([H])[H])[H])([H])([H])[H]

>  <h>  (29) 
<NA>

>  <Training>  (29) 
True

>  <Success>  (29) 
True

>  <enamine_searched>  (29) 
False

>  <enamine_id>  (29) 
nan

$$$$

     RDKit          3D

 68 73  0  0  0  0  0  0  0  0999 V2000
    7.7773   -3.0403   23.2842 C   0  0  0  0  0  0  0  0  0  0  0  0
    8.0078   -1.9670   22.2275 C   0  0  1  0  0  0  0  0  0  0  0  0
    6.8266   -1.9252   21.2440 C   0  0  0  0  0  0  0  0  0  0  0  0
    6.7282   -0.5309   20.8787 N   0  0  0  0  0  0  0  0  0  0  0  0
    5.8768   -0.1112   19.8195 C   0  0  0  0  0  0  0  0  0  0  0  0
    6.3156   -0.2014   18.5227 C   0  0  0  0  0  0  0  0  0  0  0  0
    5.6145    0.1769   17.4230 N   0  0  0  0  0  0  0  0  0  0  0  0
    4.4080    0.6458   17.6226 C   0  0  0  0  0  0  0  0  0  0  0  0
    3.8025    0.7360   18.9061 C   0  0  0  0  0  0  0  0  0  0  0  0
    2.5109    1.2980   19.0652 C   0  0  0  0  0  0  0  0  0  0  0  0
    1.9813    1.5368   20.3034 C   0  0  0  0  0  0  0  0  0  0  0  0
    2.7150    1.1635   21.4494 C   0  0  0  0  0  0  0  0  0  0  0  0
    3.9426    0.5570   21.3302 C   0  0  0  0  0  0  0  0  0  0  0  0
    4.5442    0.3614   20.0522 C   0  0  0  0  0  0  0  0  0  0  0  0
    4.4521    0.2114   22.2214 H   0  0  0  0  0  0  0  0  0  0  0  0
    2.3120    1.3964   22.4291 H   0  0  0  0  0  0  0  0  0  0  0  0
    1.0091    2.0114   20.4105 H   0  0  0  0  0  0  0  0  0  0  0  0
    1.9929    1.6175   18.1739 H   0  0  0  0  0  0  0  0  0  0  0  0
    3.8508    0.9830   16.7476 H   0  0  0  0  0  0  0  0  0  0  0  0
    7.3209   -0.5646   18.3272 H   0  0  0  0  0  0  0  0  0  0  0  0
    7.5851    0.3099   21.5714 C   0  0  0  0  0  0  0  0  0  0  0  0
    7.7460    1.4859   21.3175 O   0  0  0  0  0  0  0  0  0  0  0  0
    8.2094   -0.4925   22.7408 C   0  0  1  0  0  0  0  0  0  0  0  0
    7.3485   -0.1226   23.9797 C   0  0  0  0  0  0  0  0  0  0  0  0
    7.9538   -0.5469   25.2351 N   0  0  0  0  0  0  0  0  0  0  0  0
    7.1193   -1.0588   26.3133 C   0  0  0  0  0  0  0  0  0  0  0  0
    6.2668    0.0075   26.9956 C   0  0  0  0  0  0  0  0  0  0  0  0
    7.1101    1.0310   27.7030 N   0  0  0  0  0  4  0  0  0  0  0  0
    7.6840    0.5900   29.0253 C   0  0  0  0  0  0  0  0  0  0  0  0
    6.6679    0.2247   30.0895 C   0  0  0  0  0  0  0  0  0  0  0  0
    5.6629    1.6742   30.4319 S   0  0  0  0  0  0  0  0  0  0  0  0
    6.5706    2.6779   30.9888 O   0  0  0  0  0  0  0  0  0  0  0  0
    4.4616    1.2695   31.1518 O   0  0  0  0  0  0  0  0  0  0  0  0
    5.2031    2.2667   28.7949 C   0  0  0  0  0  0  0  0  0  0  0  0
    6.4188    2.3507   27.8721 C   0  0  0  0  0  0  0  0  0  0  0  0
    7.1439    3.0590   28.2785 H   0  0  0  0  0  0  0  0  0  0  0  0
    6.1075    2.7104   26.8879 H   0  0  0  0  0  0  0  0  0  0  0  0
    4.4263    1.6103   28.3955 H   0  0  0  0  0  0  0  0  0  0  0  0
    4.7740    3.2574   28.9636 H   0  0  0  0  0  0  0  0  0  0  0  0
    7.1790   -0.0040   31.0293 H   0  0  0  0  0  0  0  0  0  0  0  0
    6.0366   -0.6240   29.8180 H   0  0  0  0  0  0  0  0  0  0  0  0
    8.3775   -0.2286   28.8390 H   0  0  0  0  0  0  0  0  0  0  0  0
    8.2533    1.4460   29.3929 H   0  0  0  0  0  0  0  0  0  0  0  0
    7.9481    1.1635   27.1173 H   0  0  0  0  0  0  0  0  0  0  0  0
    5.5841   -0.4734   27.6977 H   0  0  0  0  0  0  0  0  0  0  0  0
    5.6551    0.5233   26.2441 H   0  0  0  0  0  0  0  0  0  0  0  0
    6.4719   -1.8463   25.9107 H   0  0  0  0  0  0  0  0  0  0  0  0
    7.7912   -1.5215   27.0413 H   0  0  0  0  0  0  0  0  0  0  0  0
    9.2090   -0.1158   25.5310 C   0  0  0  0  0  0  0  0  0  0  0  0
    9.5576    0.1991   26.6730 O   0  0  0  0  0  0  0  0  0  0  0  0
   10.1385   -0.0695   24.3761 C   0  0  0  0  0  0  0  0  0  0  0  0
   11.4943    0.0455   24.6752 C   0  0  0  0  0  0  0  0  0  0  0  0
   12.4201    0.2033   23.6709 C   0  0  0  0  0  0  0  0  0  0  0  0
   11.9619    0.2675   22.3577 C   0  0  0  0  0  0  0  0  0  0  0  0
   13.1888    0.6339   21.1753 Cl  0  0  0  0  0  0  0  0  0  0  0  0
   10.6215    0.0584   22.0340 C   0  0  0  0  0  0  0  0  0  0  0  0
    9.6705   -0.1409   23.0535 C   0  0  0  0  0  0  0  0  0  0  0  0
   10.2981    0.0391   20.9992 H   0  0  0  0  0  0  0  0  0  0  0  0
   13.4834    0.2848   23.8798 H   0  0  0  0  0  0  0  0  0  0  0  0
   11.7986    0.0066   25.7119 H   0  0  0  0  0  0  0  0  0  0  0  0
    6.3336   -0.5321   23.8920 H   0  0  0  0  0  0  0  0  0  0  0  0
    7.2358    0.9712   23.9599 H   0  0  0  0  0  0  0  0  0  0  0  0
    5.9008   -2.2900   21.7176 H   0  0  0  0  0  0  0  0  0  0  0  0
    6.9862   -2.5487   20.3539 H   0  0  0  0  0  0  0  0  0  0  0  0
    8.9153   -2.2045   21.6565 H   0  0  0  0  0  0  0  0  0  0  0  0
    7.6964   -4.0247   22.8125 H   0  0  0  0  0  0  0  0  0  0  0  0
    8.5789   -3.0755   24.0227 H   0  0  0  0  0  0  0  0  0  0  0  0
    6.8360   -2.8569   23.8166 H   0  0  0  0  0  0  0  0  0  0  0  0
  1  2  1  0
  2  3  1  0
  3  4  1  0
  4  5  1  0
  5  6  2  0
  6  7  1  0
  7  8  2  0
  8  9  1  0
  9 10  2  0
 10 11  1  0
 11 12  2  0
 12 13  1  0
 13 14  2  0
 13 15  1  0
 12 16  1  0
 11 17  1  0
 10 18  1  0
  8 19  1  0
  6 20  1  0
  4 21  1  0
 21 22  2  0
 21 23  1  0
 23 24  1  1
 24 25  1  0
 25 26  1  0
 26 27  1  0
 27 28  1  0
 28 29  1  0
 29 30  1  0
 30 31  1  0
 31 32  2  0
 31 33  2  0
 31 34  1  0
 34 35  1  0
 35 36  1  0
 35 37  1  0
 34 38  1  0
 34 39  1  0
 30 40  1  0
 30 41  1  0
 29 42  1  0
 29 43  1  0
 28 44  1  0
 27 45  1  0
 27 46  1  0
 26 47  1  0
 26 48  1  0
 25 49  1  0
 49 50  2  0
 49 51  1  0
 51 52  2  0
 52 53  1  0
 53 54  2  0
 54 55  1  0
 54 56  1  0
 56 57  2  0
 56 58  1  0
 53 59  1  0
 52 60  1  0
 24 61  1  0
 24 62  1  0
  3 63  1  0
  3 64  1  0
  2 65  1  6
  1 66  1  0
  1 67  1  0
  1 68  1  0
 23  2  1  0
 35 28  1  0
 57 51  1  0
 14  5  1  0
 57 23  1  0
 14  9  1  0
M  CHG  1  28   1
M  END
>  <cnnaffinities>  (30) 
[6.34885, 6.50501]

>  <score>  (30) 
6.34885

>  <index>  (30) 
41

>  <Smiles>  (30) 
C([C@]1(C(N(c2c(nc(c3c(c(c(c(c23)[H])[H])[H])[H])[H])[H])C(=O)[C@]21C(N(C(C([N+]1(C(C(S(=O)(=O)C(C1([H])[H])([H])[H])([H])[H])([H])[H])[H])([H])[H])([H])[H])C(=O)c1c(c(c(Cl)c(c21)[H])[H])[H])([H])[H])([H])[H])[H])([H])([H])[H]

>  <h>  (30) 
<NA>

>  <Training>  (30) 
True

>  <Success>  (30) 
True

>  <enamine_searched>  (30) 
False

>  <enamine_id>  (30) 
nan

$$$$

     RDKit          3D

 60 65  0  0  0  0  0  0  0  0999 V2000
    7.2169    0.9136   28.4307 C   0  0  0  0  0  0  0  0  0  0  0  0
    7.1832    1.1933   27.0074 N   0  0  0  0  0  0  0  0  0  0  0  0
    7.7986    2.2922   26.4794 C   0  0  0  0  0  0  0  0  0  0  0  0
    8.2156    3.2017   27.1756 O   0  0  0  0  0  0  0  0  0  0  0  0
    7.9161    2.3671   24.9511 C   0  0  0  0  0  0  0  0  0  0  0  0
    8.7240    1.3560   24.3035 N   0  0  0  0  0  0  0  0  0  0  0  0
    8.1834    0.0344   24.0840 C   0  0  0  0  0  0  0  0  0  0  0  0
    8.4051   -0.4520   22.6340 C   0  0  2  0  0  0  0  0  0  0  0  0
    7.5268    0.3651   21.6457 C   0  0  0  0  0  0  0  0  0  0  0  0
    7.5300    1.5661   21.5101 O   0  0  0  0  0  0  0  0  0  0  0  0
    6.7179   -0.5114   20.9390 N   0  0  0  0  0  0  0  0  0  0  0  0
    5.8903   -0.1044   19.8584 C   0  0  0  0  0  0  0  0  0  0  0  0
    6.3447   -0.2233   18.5642 C   0  0  0  0  0  0  0  0  0  0  0  0
    5.6560    0.1532   17.4568 N   0  0  0  0  0  0  0  0  0  0  0  0
    4.4441    0.6231   17.6299 C   0  0  0  0  0  0  0  0  0  0  0  0
    3.8252    0.7477   18.9114 C   0  0  0  0  0  0  0  0  0  0  0  0
    2.5287    1.3115   19.0630 C   0  0  0  0  0  0  0  0  0  0  0  0
    1.9875    1.5357   20.2993 C   0  0  0  0  0  0  0  0  0  0  0  0
    2.6971    1.1610   21.4617 C   0  0  0  0  0  0  0  0  0  0  0  0
    3.9332    0.5628   21.3477 C   0  0  0  0  0  0  0  0  0  0  0  0
    4.5567    0.3845   20.0734 C   0  0  0  0  0  0  0  0  0  0  0  0
    4.4396    0.2124   22.2393 H   0  0  0  0  0  0  0  0  0  0  0  0
    2.2731    1.3706   22.4409 H   0  0  0  0  0  0  0  0  0  0  0  0
    1.0186    2.0191   20.4013 H   0  0  0  0  0  0  0  0  0  0  0  0
    2.0147    1.6508   18.1737 H   0  0  0  0  0  0  0  0  0  0  0  0
    3.8840    0.8952   16.7292 H   0  0  0  0  0  0  0  0  0  0  0  0
    7.3429   -0.6094   18.3537 H   0  0  0  0  0  0  0  0  0  0  0  0
    7.1419   -1.8841   21.0761 C   0  0  0  0  0  0  0  0  0  0  0  0
    7.8723   -1.8983   22.4320 C   0  0  2  0  0  0  0  0  0  0  0  0
    6.9093   -2.4028   23.5338 C   0  0  0  0  0  0  0  0  0  0  0  0
    6.4467   -3.7886   23.2081 C   0  0  0  0  0  0  0  0  0  0  0  0
    5.1883   -4.1398   22.9867 N   0  0  0  0  0  0  0  0  0  0  0  0
    5.2562   -5.4131   22.6018 N   0  0  0  0  0  0  0  0  0  0  0  0
    6.5030   -5.8033   22.6031 N   0  0  0  0  0  2  0  0  0  0  0  0
    7.2797   -4.7933   22.9835 N   0  0  0  0  0  0  0  0  0  0  0  0
    6.0201   -1.7718   23.6111 H   0  0  0  0  0  0  0  0  0  0  0  0
    7.4112   -2.4228   24.5041 H   0  0  0  0  0  0  0  0  0  0  0  0
    8.6967   -2.6181   22.4124 H   0  0  0  0  0  0  0  0  0  0  0  0
    6.2837   -2.5622   21.0641 H   0  0  0  0  0  0  0  0  0  0  0  0
    7.8033   -2.1796   20.2504 H   0  0  0  0  0  0  0  0  0  0  0  0
    9.9054   -0.2888   22.3637 C   0  0  0  0  0  0  0  0  0  0  0  0
   10.5746   -1.1479   21.4865 C   0  0  0  0  0  0  0  0  0  0  0  0
   11.9376   -1.0267   21.2912 C   0  0  0  0  0  0  0  0  0  0  0  0
   12.7038   -2.0953   20.1486 Cl  0  0  0  0  0  0  0  0  0  0  0  0
   12.6887   -0.0453   21.9357 C   0  0  0  0  0  0  0  0  0  0  0  0
   12.0372    0.8209   22.7924 C   0  0  0  0  0  0  0  0  0  0  0  0
   10.6638    0.7005   23.0111 C   0  0  0  0  0  0  0  0  0  0  0  0
   10.0238    1.6451   23.9825 C   0  0  0  0  0  0  0  0  0  0  0  0
   10.6119    2.6169   24.4419 O   0  0  0  0  0  0  0  0  0  0  0  0
   12.5781    1.6073   23.3113 H   0  0  0  0  0  0  0  0  0  0  0  0
   13.7544    0.0398   21.7562 H   0  0  0  0  0  0  0  0  0  0  0  0
   10.0471   -1.9306   20.9530 H   0  0  0  0  0  0  0  0  0  0  0  0
    8.6773   -0.6883   24.7513 H   0  0  0  0  0  0  0  0  0  0  0  0
    7.1176    0.0619   24.3131 H   0  0  0  0  0  0  0  0  0  0  0  0
    8.3947    3.3209   24.7391 H   0  0  0  0  0  0  0  0  0  0  0  0
    6.9229    2.3448   24.4823 H   0  0  0  0  0  0  0  0  0  0  0  0
    6.7875    0.4907   26.4025 H   0  0  0  0  0  0  0  0  0  0  0  0
    6.2124    0.6880   28.8079 H   0  0  0  0  0  0  0  0  0  0  0  0
    7.6069    1.7950   28.9430 H   0  0  0  0  0  0  0  0  0  0  0  0
    7.8853    0.0669   28.6358 H   0  0  0  0  0  0  0  0  0  0  0  0
  1  2  1  0
  2  3  1  0
  3  4  2  0
  3  5  1  0
  5  6  1  0
  6  7  1  0
  8  7  1  1
  8  9  1  0
  9 10  2  0
  9 11  1  0
 11 12  1  0
 12 13  2  0
 13 14  1  0
 14 15  2  0
 15 16  1  0
 16 17  2  0
 17 18  1  0
 18 19  2  0
 19 20  1  0
 20 21  2  0
 20 22  1  0
 19 23  1  0
 18 24  1  0
 17 25  1  0
 15 26  1  0
 13 27  1  0
 11 28  1  0
 28 29  1  0
 29 30  1  0
 30 31  1  0
 31 32  1  0
 32 33  2  0
 33 34  1  0
 34 35  1  0
 30 36  1  0
 30 37  1  0
 29 38  1  6
 28 39  1  0
 28 40  1  0
  8 41  1  0
 41 42  2  0
 42 43  1  0
 43 44  1  0
 43 45  2  0
 45 46  1  0
 46 47  2  0
 47 48  1  0
 48 49  2  0
 46 50  1  0
 45 51  1  0
 42 52  1  0
  7 53  1  0
  7 54  1  0
  5 55  1  0
  5 56  1  0
  2 57  1  0
  1 58  1  0
  1 59  1  0
  1 60  1  0
 48  6  1  0
 29  8  1  0
 35 31  2  0
 47 41  1  0
 21 12  1  0
 21 16  1  0
M  CHG  1  34  -1
M  END
>  <cnnaffinities>  (31) 
[6.66496]

>  <score>  (31) 
6.66496

>  <index>  (31) 
42

>  <Smiles>  (31) 
C(N(C(=O)C(N1C([C@@]2(C(=O)N(c3c(nc(c4c(c(c(c(c34)[H])[H])[H])[H])[H])[H])C([C@@]2(C(c2nn[n-]n2)([H])[H])[H])([H])[H])c2c(c(Cl)c(c(c2C1=O)[H])[H])[H])([H])[H])([H])[H])[H])([H])([H])[H]

>  <h>  (31) 
<NA>

>  <Training>  (31) 
True

>  <Success>  (31) 
True

>  <enamine_searched>  (31) 
False

>  <enamine_id>  (31) 
nan

$$$$

     RDKit          3D

 62 67  0  0  0  0  0  0  0  0999 V2000
    7.2688    0.9085   29.7306 C   0  0  0  0  0  0  0  0  0  0  0  0
    7.3917    1.4930   28.3298 C   0  0  0  0  0  0  0  0  0  0  0  0
    6.2333    1.1957   27.4900 N   0  0  0  0  0  0  0  0  0  0  0  0
    5.1618    1.9969   27.6179 N   0  0  0  0  0  0  0  0  0  0  0  0
    4.2030    1.4097   26.9188 C   0  0  0  0  0  0  0  0  0  0  0  0
    4.6419    0.2023   26.3452 C   0  0  0  0  0  0  0  0  0  0  0  0
    5.9642    0.0978   26.7286 C   0  0  0  0  0  0  0  0  0  0  0  0
    7.0052   -0.9066   26.3386 C   0  0  0  0  0  0  0  0  0  0  0  0
    7.8900   -0.4488   25.2700 N   0  0  0  0  0  0  0  0  0  0  0  0
    7.3017   -0.0445   23.9975 C   0  0  0  0  0  0  0  0  0  0  0  0
    8.1372   -0.4869   22.7659 C   0  0  2  0  0  0  0  0  0  0  0  0
    7.5500    0.2982   21.5707 C   0  0  0  0  0  0  0  0  0  0  0  0
    7.7350    1.4660   21.2987 O   0  0  0  0  0  0  0  0  0  0  0  0
    6.7066   -0.5423   20.8679 N   0  0  0  0  0  0  0  0  0  0  0  0
    5.8679   -0.1075   19.8066 C   0  0  0  0  0  0  0  0  0  0  0  0
    6.3101   -0.1993   18.5125 C   0  0  0  0  0  0  0  0  0  0  0  0
    5.6149    0.1847   17.4110 N   0  0  0  0  0  0  0  0  0  0  0  0
    4.4052    0.6550   17.6083 C   0  0  0  0  0  0  0  0  0  0  0  0
    3.7952    0.7469   18.8933 C   0  0  0  0  0  0  0  0  0  0  0  0
    2.5089    1.3182   19.0545 C   0  0  0  0  0  0  0  0  0  0  0  0
    1.9859    1.5508   20.2996 C   0  0  0  0  0  0  0  0  0  0  0  0
    2.7155    1.1729   21.4477 C   0  0  0  0  0  0  0  0  0  0  0  0
    3.9422    0.5618   21.3277 C   0  0  0  0  0  0  0  0  0  0  0  0
    4.5375    0.3709   20.0413 C   0  0  0  0  0  0  0  0  0  0  0  0
    4.4650    0.2258   22.2189 H   0  0  0  0  0  0  0  0  0  0  0  0
    2.3141    1.4067   22.4308 H   0  0  0  0  0  0  0  0  0  0  0  0
    1.0176    2.0312   20.4076 H   0  0  0  0  0  0  0  0  0  0  0  0
    1.9917    1.6486   18.1656 H   0  0  0  0  0  0  0  0  0  0  0  0
    3.8476    0.9873   16.7298 H   0  0  0  0  0  0  0  0  0  0  0  0
    7.3161   -0.5693   18.3193 H   0  0  0  0  0  0  0  0  0  0  0  0
    6.7509   -1.9267   21.2780 C   0  0  0  0  0  0  0  0  0  0  0  0
    7.9014   -1.9703   22.2980 C   0  0  2  0  0  0  0  0  0  0  0  0
    7.6164   -2.9996   23.3846 C   0  0  0  0  0  0  0  0  0  0  0  0
    7.5242   -3.9978   22.9452 H   0  0  0  0  0  0  0  0  0  0  0  0
    8.4023   -3.0284   24.1405 H   0  0  0  0  0  0  0  0  0  0  0  0
    6.6677   -2.7729   23.8854 H   0  0  0  0  0  0  0  0  0  0  0  0
    8.8149   -2.2531   21.7576 H   0  0  0  0  0  0  0  0  0  0  0  0
    5.8011   -2.2516   21.7328 H   0  0  0  0  0  0  0  0  0  0  0  0
    6.9205   -2.5809   20.4121 H   0  0  0  0  0  0  0  0  0  0  0  0
    9.6045   -0.1645   23.0504 C   0  0  0  0  0  0  0  0  0  0  0  0
   10.5338   -0.0045   22.0099 C   0  0  0  0  0  0  0  0  0  0  0  0
   11.8797    0.1567   22.3075 C   0  0  0  0  0  0  0  0  0  0  0  0
   12.7750    0.3419   21.3256 F   0  0  0  0  0  0  0  0  0  0  0  0
   12.3728    0.1307   23.6045 C   0  0  0  0  0  0  0  0  0  0  0  0
   11.4596    0.0118   24.6269 C   0  0  0  0  0  0  0  0  0  0  0  0
   10.0956   -0.0987   24.3624 C   0  0  0  0  0  0  0  0  0  0  0  0
    9.1967   -0.1743   25.5449 C   0  0  0  0  0  0  0  0  0  0  0  0
    9.6437   -0.0385   26.6822 O   0  0  0  0  0  0  0  0  0  0  0  0
   11.7860   -0.0089   25.6568 H   0  0  0  0  0  0  0  0  0  0  0  0
   13.4432    0.1859   23.7788 H   0  0  0  0  0  0  0  0  0  0  0  0
   10.2096   -0.0196   20.9757 H   0  0  0  0  0  0  0  0  0  0  0  0
    7.2173    1.0493   23.9426 H   0  0  0  0  0  0  0  0  0  0  0  0
    6.2770   -0.4285   23.9341 H   0  0  0  0  0  0  0  0  0  0  0  0
    6.5036   -1.8257   26.0057 H   0  0  0  0  0  0  0  0  0  0  0  0
    7.6338   -1.1692   27.1940 H   0  0  0  0  0  0  0  0  0  0  0  0
    4.0902   -0.4868   25.7154 H   0  0  0  0  0  0  0  0  0  0  0  0
    3.2284    1.8741   26.8564 H   0  0  0  0  0  0  0  0  0  0  0  0
    8.2925    1.1374   27.8307 H   0  0  0  0  0  0  0  0  0  0  0  0
    7.4356    2.5831   28.3794 H   0  0  0  0  0  0  0  0  0  0  0  0
    7.3315   -0.1845   29.7140 H   0  0  0  0  0  0  0  0  0  0  0  0
    8.0708    1.2906   30.3683 H   0  0  0  0  0  0  0  0  0  0  0  0
    6.3118    1.1973   30.1717 H   0  0  0  0  0  0  0  0  0  0  0  0
  1  2  1  0
  2  3  1  0
  3  4  1  0
  4  5  2  0
  5  6  1  0
  6  7  2  0
  7  8  1  0
  8  9  1  0
  9 10  1  0
 11 10  1  1
 11 12  1  0
 12 13  2  0
 12 14  1  0
 14 15  1  0
 15 16  2  0
 16 17  1  0
 17 18  2  0
 18 19  1  0
 19 20  2  0
 20 21  1  0
 21 22  2  0
 22 23  1  0
 23 24  2  0
 23 25  1  0
 22 26  1  0
 21 27  1  0
 20 28  1  0
 18 29  1  0
 16 30  1  0
 14 31  1  0
 31 32  1  0
 32 33  1  0
 33 34  1  0
 33 35  1  0
 33 36  1  0
 32 37  1  6
 31 38  1  0
 31 39  1  0
 11 40  1  0
 40 41  2  0
 41 42  1  0
 42 43  1  0
 42 44  2  0
 44 45  1  0
 45 46  2  0
 46 47  1  0
 47 48  2  0
 45 49  1  0
 44 50  1  0
 41 51  1  0
 10 52  1  0
 10 53  1  0
  8 54  1  0
  8 55  1  0
  6 56  1  0
  5 57  1  0
  2 58  1  0
  2 59  1  0
  1 60  1  0
  1 61  1  0
  1 62  1  0
  7  3  1  0
 47  9  1  0
 32 11  1  0
 46 40  1  0
 24 15  1  0
 24 19  1  0
M  END
>  <cnnaffinities>  (32) 
[6.6544, 6.61999]

>  <score>  (32) 
6.6544

>  <index>  (32) 
43

>  <Smiles>  (32) 
C(C(n1nc(c(c1C(N1C([C@@]2(C(=O)N(c3c(nc(c4c(c(c(c(c34)[H])[H])[H])[H])[H])[H])C([C@@]2(C([H])([H])[H])[H])([H])[H])c2c(c(F)c(c(c2C1=O)[H])[H])[H])([H])[H])([H])[H])[H])[H])([H])[H])([H])([H])[H]

>  <h>  (32) 
<NA>

>  <Training>  (32) 
True

>  <Success>  (32) 
True

>  <enamine_searched>  (32) 
False

>  <enamine_id>  (32) 
nan

$$$$

     RDKit          3D

 60 64  0  0  0  0  0  0  0  0999 V2000
    7.4036    1.4498   29.3285 C   0  0  0  0  0  0  0  0  0  0  0  0
    7.5342    0.2757   28.4898 N   0  0  0  0  0  0  0  0  0  0  0  0
    6.8975    0.2869   27.2757 C   0  0  0  0  0  0  0  0  0  0  0  0
    6.1339    1.1647   26.9188 O   0  0  0  0  0  0  0  0  0  0  0  0
    7.2237   -0.9195   26.3901 C   0  0  0  0  0  0  0  0  0  0  0  0
    8.0398   -0.5504   25.2500 N   0  0  0  0  0  0  0  0  0  0  0  0
    7.4082   -0.1050   24.0100 C   0  0  0  0  0  0  0  0  0  0  0  0
    8.2336   -0.4805   22.7479 C   0  0  2  0  0  0  0  0  0  0  0  0
    7.5881    0.3178   21.5852 C   0  0  0  0  0  0  0  0  0  0  0  0
    7.7393    1.4937   21.3352 O   0  0  0  0  0  0  0  0  0  0  0  0
    6.7278   -0.5278   20.8950 N   0  0  0  0  0  0  0  0  0  0  0  0
    5.8846   -0.1075   19.8266 C   0  0  0  0  0  0  0  0  0  0  0  0
    6.3223   -0.2024   18.5294 C   0  0  0  0  0  0  0  0  0  0  0  0
    5.6251    0.1790   17.4273 N   0  0  0  0  0  0  0  0  0  0  0  0
    4.4212    0.6543   17.6212 C   0  0  0  0  0  0  0  0  0  0  0  0
    3.8116    0.7508   18.9032 C   0  0  0  0  0  0  0  0  0  0  0  0
    2.5219    1.3177   19.0620 C   0  0  0  0  0  0  0  0  0  0  0  0
    1.9968    1.5668   20.3005 C   0  0  0  0  0  0  0  0  0  0  0  0
    2.7255    1.1850   21.4462 C   0  0  0  0  0  0  0  0  0  0  0  0
    3.9527    0.5780   21.3264 C   0  0  0  0  0  0  0  0  0  0  0  0
    4.5536    0.3748   20.0507 C   0  0  0  0  0  0  0  0  0  0  0  0
    4.4621    0.2275   22.2168 H   0  0  0  0  0  0  0  0  0  0  0  0
    2.3280    1.4215   22.4267 H   0  0  0  0  0  0  0  0  0  0  0  0
    1.0315    2.0549   20.4081 H   0  0  0  0  0  0  0  0  0  0  0  0
    2.0034    1.6414   18.1715 H   0  0  0  0  0  0  0  0  0  0  0  0
    3.8673    0.9880   16.7403 H   0  0  0  0  0  0  0  0  0  0  0  0
    7.3239   -0.5720   18.3313 H   0  0  0  0  0  0  0  0  0  0  0  0
    6.8271   -1.9239   21.2635 C   0  0  0  0  0  0  0  0  0  0  0  0
    8.0223   -1.9516   22.2228 C   0  0  2  0  0  0  0  0  0  0  0  0
    7.8847   -3.0578   23.2567 C   0  0  0  0  0  0  0  0  0  0  0  0
    6.6109   -2.9858   23.8653 O   0  0  0  0  0  0  0  0  0  0  0  0
    6.3998   -4.0360   24.7721 C   0  0  0  0  0  0  0  0  0  0  0  0
    5.4075   -3.8990   25.2108 H   0  0  0  0  0  0  0  0  0  0  0  0
    7.1543   -4.0267   25.5758 H   0  0  0  0  0  0  0  0  0  0  0  0
    6.4311   -5.0146   24.2672 H   0  0  0  0  0  0  0  0  0  0  0  0
    8.6748   -2.9701   24.0133 H   0  0  0  0  0  0  0  0  0  0  0  0
    8.0074   -4.0370   22.7636 H   0  0  0  0  0  0  0  0  0  0  0  0
    8.9237   -2.1673   21.6358 H   0  0  0  0  0  0  0  0  0  0  0  0
    6.9815   -2.5508   20.3742 H   0  0  0  0  0  0  0  0  0  0  0  0
    5.9150   -2.2829   21.7563 H   0  0  0  0  0  0  0  0  0  0  0  0
    9.7092   -0.1398   23.0354 C   0  0  0  0  0  0  0  0  0  0  0  0
   10.6431    0.0725   22.0011 C   0  0  0  0  0  0  0  0  0  0  0  0
   11.9910    0.2825   22.3013 C   0  0  0  0  0  0  0  0  0  0  0  0
   13.2106    0.6766   21.1176 Cl  0  0  0  0  0  0  0  0  0  0  0  0
   12.4742    0.2057   23.6037 C   0  0  0  0  0  0  0  0  0  0  0  0
   11.5707    0.0264   24.6230 C   0  0  0  0  0  0  0  0  0  0  0  0
   10.2110   -0.0968   24.3488 C   0  0  0  0  0  0  0  0  0  0  0  0
    9.3272   -0.2135   25.5323 C   0  0  0  0  0  0  0  0  0  0  0  0
    9.7347   -0.0614   26.6862 O   0  0  0  0  0  0  0  0  0  0  0  0
   11.8958   -0.0279   25.6533 H   0  0  0  0  0  0  0  0  0  0  0  0
   13.5406    0.2924   23.7914 H   0  0  0  0  0  0  0  0  0  0  0  0
   10.2953    0.0618   20.9746 H   0  0  0  0  0  0  0  0  0  0  0  0
    6.4041   -0.5335   23.9638 H   0  0  0  0  0  0  0  0  0  0  0  0
    7.2834    0.9870   24.0078 H   0  0  0  0  0  0  0  0  0  0  0  0
    7.7625   -1.6734   26.9722 H   0  0  0  0  0  0  0  0  0  0  0  0
    6.3020   -1.3691   26.0143 H   0  0  0  0  0  0  0  0  0  0  0  0
    8.4572   -0.1433   28.4619 H   0  0  0  0  0  0  0  0  0  0  0  0
    6.3555    1.6137   29.5884 H   0  0  0  0  0  0  0  0  0  0  0  0
    7.9694    1.2914   30.2496 H   0  0  0  0  0  0  0  0  0  0  0  0
    7.7679    2.3497   28.8202 H   0  0  0  0  0  0  0  0  0  0  0  0
  1  2  1  0
  2  3  1  0
  3  4  2  0
  3  5  1  0
  5  6  1  0
  6  7  1  0
  8  7  1  1
  8  9  1  0
  9 10  2  0
  9 11  1  0
 11 12  1  0
 12 13  2  0
 13 14  1  0
 14 15  2  0
 15 16  1  0
 16 17  2  0
 17 18  1  0
 18 19  2  0
 19 20  1  0
 20 21  2  0
 20 22  1  0
 19 23  1  0
 18 24  1  0
 17 25  1  0
 15 26  1  0
 13 27  1  0
 11 28  1  0
 28 29  1  0
 29 30  1  0
 30 31  1  0
 31 32  1  0
 32 33  1  0
 32 34  1  0
 32 35  1  0
 30 36  1  0
 30 37  1  0
 29 38  1  6
 28 39  1  0
 28 40  1  0
  8 41  1  0
 41 42  2  0
 42 43  1  0
 43 44  1  0
 43 45  2  0
 45 46  1  0
 46 47  2  0
 47 48  1  0
 48 49  2  0
 46 50  1  0
 45 51  1  0
 42 52  1  0
  7 53  1  0
  7 54  1  0
  5 55  1  0
  5 56  1  0
  2 57  1  0
  1 58  1  0
  1 59  1  0
  1 60  1  0
 48  6  1  0
 29  8  1  0
 47 41  1  0
 21 12  1  0
 21 16  1  0
M  END
>  <cnnaffinities>  (33) 
[6.3539]

>  <score>  (33) 
6.3539

>  <index>  (33) 
45

>  <Smiles>  (33) 
C(N(C(=O)C(N1C([C@@]2(C(=O)N(c3c(nc(c4c(c(c(c(c34)[H])[H])[H])[H])[H])[H])C([C@@]2(C(OC([H])([H])[H])([H])[H])[H])([H])[H])c2c(c(Cl)c(c(c2C1=O)[H])[H])[H])([H])[H])([H])[H])[H])([H])([H])[H]

>  <h>  (33) 
<NA>

>  <Training>  (33) 
True

>  <Success>  (33) 
True

>  <enamine_searched>  (33) 
False

>  <enamine_id>  (33) 
nan

$$$$

     RDKit          3D

 56 60  0  0  0  0  0  0  0  0999 V2000
    7.3548   -4.6305   26.8824 C   0  0  0  0  0  0  0  0  0  0  0  0
    7.6492   -3.2091   26.8773 N   0  0  0  0  0  0  0  0  0  0  0  0
    6.7287   -2.3210   26.4230 C   0  0  0  0  0  0  0  0  0  0  0  0
    5.6377   -2.6764   25.9980 O   0  0  0  0  0  0  0  0  0  0  0  0
    7.1442   -0.8446   26.4277 C   0  0  0  0  0  0  0  0  0  0  0  0
    7.9861   -0.5153   25.2831 N   0  0  0  0  0  0  0  0  0  0  0  0
    7.3597   -0.1654   24.0100 C   0  0  0  0  0  0  0  0  0  0  0  0
    8.2023   -0.5305   22.7527 C   0  0  2  0  0  0  0  0  0  0  0  0
    7.5875    0.2787   21.5838 C   0  0  0  0  0  0  0  0  0  0  0  0
    7.7620    1.4518   21.3360 O   0  0  0  0  0  0  0  0  0  0  0  0
    6.7379   -0.5530   20.8811 N   0  0  0  0  0  0  0  0  0  0  0  0
    5.8987   -0.1060   19.8208 C   0  0  0  0  0  0  0  0  0  0  0  0
    6.3601   -0.1759   18.5316 C   0  0  0  0  0  0  0  0  0  0  0  0
    5.6342    0.1262   17.4266 N   0  0  0  0  0  0  0  0  0  0  0  0
    4.4089    0.5571   17.6214 C   0  0  0  0  0  0  0  0  0  0  0  0
    3.8036    0.7191   18.8992 C   0  0  0  0  0  0  0  0  0  0  0  0
    2.5055    1.2893   19.0498 C   0  0  0  0  0  0  0  0  0  0  0  0
    1.9407    1.4180   20.2922 C   0  0  0  0  0  0  0  0  0  0  0  0
    2.6529    0.9908   21.4355 C   0  0  0  0  0  0  0  0  0  0  0  0
    3.9246    0.4734   21.3163 C   0  0  0  0  0  0  0  0  0  0  0  0
    4.5437    0.3286   20.0432 C   0  0  0  0  0  0  0  0  0  0  0  0
    4.4754    0.1868   22.2049 H   0  0  0  0  0  0  0  0  0  0  0  0
    2.2166    1.1426   22.4197 H   0  0  0  0  0  0  0  0  0  0  0  0
    0.9422    1.8382   20.4099 H   0  0  0  0  0  0  0  0  0  0  0  0
    2.0075    1.6864   18.1706 H   0  0  0  0  0  0  0  0  0  0  0  0
    3.8239    0.7817   16.7324 H   0  0  0  0  0  0  0  0  0  0  0  0
    7.3583   -0.5687   18.3438 H   0  0  0  0  0  0  0  0  0  0  0  0
    6.8111   -1.9453   21.2670 C   0  0  0  0  0  0  0  0  0  0  0  0
    8.0114   -2.0019   22.2281 C   0  0  2  0  0  0  0  0  0  0  0  0
    7.8484   -3.0982   23.2756 C   0  0  0  0  0  0  0  0  0  0  0  0
    8.6808   -3.1035   23.9860 H   0  0  0  0  0  0  0  0  0  0  0  0
    6.9177   -2.9650   23.8363 H   0  0  0  0  0  0  0  0  0  0  0  0
    7.7933   -4.0852   22.8010 H   0  0  0  0  0  0  0  0  0  0  0  0
    8.9186   -2.2079   21.6415 H   0  0  0  0  0  0  0  0  0  0  0  0
    5.8833   -2.2729   21.7648 H   0  0  0  0  0  0  0  0  0  0  0  0
    6.9512   -2.5792   20.3836 H   0  0  0  0  0  0  0  0  0  0  0  0
    9.6612   -0.1797   23.0167 C   0  0  0  0  0  0  0  0  0  0  0  0
   10.5639    0.0107   21.9553 C   0  0  0  0  0  0  0  0  0  0  0  0
   11.9069    0.2192   22.2332 C   0  0  0  0  0  0  0  0  0  0  0  0
   12.7940    0.4355   21.2502 F   0  0  0  0  0  0  0  0  0  0  0  0
   12.4199    0.2127   23.5210 C   0  0  0  0  0  0  0  0  0  0  0  0
   11.5333    0.0686   24.5631 C   0  0  0  0  0  0  0  0  0  0  0  0
   10.1713   -0.1097   24.3212 C   0  0  0  0  0  0  0  0  0  0  0  0
    9.3049   -0.2510   25.5266 C   0  0  0  0  0  0  0  0  0  0  0  0
    9.7596   -0.1531   26.6617 O   0  0  0  0  0  0  0  0  0  0  0  0
   11.8709    0.0851   25.5916 H   0  0  0  0  0  0  0  0  0  0  0  0
   13.4896    0.3290   23.6642 H   0  0  0  0  0  0  0  0  0  0  0  0
   10.2258    0.0094   20.9251 H   0  0  0  0  0  0  0  0  0  0  0  0
    7.1684    0.9192   23.9743 H   0  0  0  0  0  0  0  0  0  0  0  0
    6.3967   -0.6881   23.9748 H   0  0  0  0  0  0  0  0  0  0  0  0
    7.7237   -0.5992   27.3227 H   0  0  0  0  0  0  0  0  0  0  0  0
    6.2240   -0.2495   26.4176 H   0  0  0  0  0  0  0  0  0  0  0  0
    8.5769   -2.8924   27.1110 H   0  0  0  0  0  0  0  0  0  0  0  0
    7.0625   -4.9748   25.8834 H   0  0  0  0  0  0  0  0  0  0  0  0
    6.5302   -4.8536   27.5658 H   0  0  0  0  0  0  0  0  0  0  0  0
    8.2392   -5.1802   27.2080 H   0  0  0  0  0  0  0  0  0  0  0  0
  1  2  1  0
  2  3  1  0
  3  4  2  0
  3  5  1  0
  5  6  1  0
  6  7  1  0
  8  7  1  1
  8  9  1  0
  9 10  2  0
  9 11  1  0
 11 12  1  0
 12 13  2  0
 13 14  1  0
 14 15  2  0
 15 16  1  0
 16 17  2  0
 17 18  1  0
 18 19  2  0
 19 20  1  0
 20 21  2  0
 20 22  1  0
 19 23  1  0
 18 24  1  0
 17 25  1  0
 15 26  1  0
 13 27  1  0
 11 28  1  0
 28 29  1  0
 29 30  1  0
 30 31  1  0
 30 32  1  0
 30 33  1  0
 29 34  1  6
 28 35  1  0
 28 36  1  0
  8 37  1  0
 37 38  2  0
 38 39  1  0
 39 40  1  0
 39 41  2  0
 41 42  1  0
 42 43  2  0
 43 44  1  0
 44 45  2  0
 42 46  1  0
 41 47  1  0
 38 48  1  0
  7 49  1  0
  7 50  1  0
  5 51  1  0
  5 52  1  0
  2 53  1  0
  1 54  1  0
  1 55  1  0
  1 56  1  0
 44  6  1  0
 29  8  1  0
 43 37  1  0
 21 12  1  0
 21 16  1  0
M  END
>  <cnnaffinities>  (34) 
[6.17651]

>  <score>  (34) 
6.17651

>  <index>  (34) 
47

>  <Smiles>  (34) 
C(N(C(=O)C(N1C([C@@]2(C(=O)N(c3c(nc(c4c(c(c(c(c34)[H])[H])[H])[H])[H])[H])C([C@@]2(C([H])([H])[H])[H])([H])[H])c2c(c(F)c(c(c2C1=O)[H])[H])[H])([H])[H])([H])[H])[H])([H])([H])[H]

>  <h>  (34) 
<NA>

>  <Training>  (34) 
True

>  <Success>  (34) 
True

>  <enamine_searched>  (34) 
False

>  <enamine_id>  (34) 
nan

$$$$

     RDKit          3D

 41 43  0  0  0  0  0  0  0  0999 V2000
    9.6585    1.8106   26.0886 C   0  0  0  0  0  0  0  0  0  0  0  0
    8.4037    2.0738   25.2840 C   0  0  1  0  0  0  0  0  0  0  0  0
    8.7588    2.4250   23.8349 C   0  0  0  0  0  0  0  0  0  0  0  0
    9.2892    1.2493   23.0187 C   0  0  0  0  0  0  0  0  0  0  0  0
    8.2358    0.3267   22.6085 N   0  0  0  0  0  0  0  0  0  0  0  0
    7.7489    0.4506   21.3389 C   0  0  0  0  0  0  0  0  0  0  0  0
    8.1403    1.3236   20.5776 O   0  0  0  0  0  0  0  0  0  0  0  0
    6.7481   -0.6290   20.8928 C   0  0  0  0  0  0  0  0  0  0  0  0
    5.8313   -0.1816   19.7987 C   0  0  0  0  0  0  0  0  0  0  0  0
    6.2930   -0.1960   18.5047 C   0  0  0  0  0  0  0  0  0  0  0  0
    5.5860    0.1861   17.4085 N   0  0  0  0  0  0  0  0  0  0  0  0
    4.3762    0.6328   17.6315 C   0  0  0  0  0  0  0  0  0  0  0  0
    3.7674    0.7220   18.9136 C   0  0  0  0  0  0  0  0  0  0  0  0
    2.4771    1.2799   19.0846 C   0  0  0  0  0  0  0  0  0  0  0  0
    1.9409    1.4820   20.3268 C   0  0  0  0  0  0  0  0  0  0  0  0
    2.6776    1.1010   21.4694 C   0  0  0  0  0  0  0  0  0  0  0  0
    3.9044    0.4939   21.3327 C   0  0  0  0  0  0  0  0  0  0  0  0
    4.5160    0.3216   20.0520 C   0  0  0  0  0  0  0  0  0  0  0  0
    4.4079    0.1428   22.2302 H   0  0  0  0  0  0  0  0  0  0  0  0
    2.2752    1.3190   22.4570 H   0  0  0  0  0  0  0  0  0  0  0  0
    0.9815    1.9747   20.4424 H   0  0  0  0  0  0  0  0  0  0  0  0
    1.9842    1.6456   18.1948 H   0  0  0  0  0  0  0  0  0  0  0  0
    3.7912    0.9393   16.7609 H   0  0  0  0  0  0  0  0  0  0  0  0
    7.3191   -0.5006   18.3083 H   0  0  0  0  0  0  0  0  0  0  0  0
    7.3650   -1.4587   20.5156 H   0  0  0  0  0  0  0  0  0  0  0  0
    6.1545   -1.0355   21.7141 H   0  0  0  0  0  0  0  0  0  0  0  0
    7.5788   -0.5521   23.5604 C   0  0  0  0  0  0  0  0  0  0  0  0
    7.8945   -0.2791   25.0170 C   0  0  0  0  0  0  0  0  0  0  0  0
    7.4676    1.0075   25.4194 O   0  0  0  0  0  0  0  0  0  0  0  0
    8.9551   -0.4658   25.2237 H   0  0  0  0  0  0  0  0  0  0  0  0
    7.3133   -0.9872   25.6175 H   0  0  0  0  0  0  0  0  0  0  0  0
    7.8265   -1.5988   23.3286 H   0  0  0  0  0  0  0  0  0  0  0  0
    6.4906   -0.4260   23.4798 H   0  0  0  0  0  0  0  0  0  0  0  0
   10.0574    0.6945   23.5694 H   0  0  0  0  0  0  0  0  0  0  0  0
    9.7615    1.6142   22.1081 H   0  0  0  0  0  0  0  0  0  0  0  0
    7.8910    2.8564   23.3249 H   0  0  0  0  0  0  0  0  0  0  0  0
    9.5296    3.2060   23.8797 H   0  0  0  0  0  0  0  0  0  0  0  0
    7.8707    2.9292   25.7145 H   0  0  0  0  0  0  0  0  0  0  0  0
   10.3310    2.6702   26.0007 H   0  0  0  0  0  0  0  0  0  0  0  0
    9.4004    1.6195   27.1337 H   0  0  0  0  0  0  0  0  0  0  0  0
   10.1900    0.9367   25.7008 H   0  0  0  0  0  0  0  0  0  0  0  0
  1  2  1  0
  2  3  1  0
  3  4  1  0
  4  5  1  0
  5  6  1  0
  6  7  2  0
  6  8  1  0
  8  9  1  0
  9 10  2  0
 10 11  1  0
 11 12  2  0
 12 13  1  0
 13 14  2  0
 14 15  1  0
 15 16  2  0
 16 17  1  0
 17 18  2  0
 17 19  1  0
 16 20  1  0
 15 21  1  0
 14 22  1  0
 12 23  1  0
 10 24  1  0
  8 25  1  0
  8 26  1  0
  5 27  1  0
 27 28  1  0
 28 29  1  0
 28 30  1  0
 28 31  1  0
 27 32  1  0
 27 33  1  0
  4 34  1  0
  4 35  1  0
  3 36  1  0
  3 37  1  0
  2 38  1  1
  1 39  1  0
  1 40  1  0
  1 41  1  0
 29  2  1  0
 18  9  1  0
 18 13  1  0
M  END
>  <cnnaffinities>  (35) 
[4.88709]

>  <score>  (35) 
4.88709

>  <index>  (35) 
48

>  <Smiles>  (35) 
C([C@]1(C(C(N(C(=O)C(c2c(nc(c3c(c(c(c(c23)[H])[H])[H])[H])[H])[H])([H])[H])C(C(O1)([H])[H])([H])[H])([H])[H])([H])[H])[H])([H])([H])[H]

>  <h>  (35) 
<NA>

>  <Training>  (35) 
True

>  <Success>  (35) 
True

>  <enamine_searched>  (35) 
False

>  <enamine_id>  (35) 
nan

$$$$

     RDKit          3D

 38 41  0  0  0  0  0  0  0  0999 V2000
    4.9067   -1.2932   23.2408 O   0  0  0  0  0  0  0  0  0  0  0  0
    5.8555   -1.5504   22.5094 C   0  0  0  0  0  0  0  0  0  0  0  0
    6.3229   -0.5142   21.4627 C   0  0  0  0  0  0  0  0  0  0  0  0
    5.4884   -0.3021   20.1963 C   0  0  0  0  0  0  0  0  0  0  0  0
    6.0644   -0.4768   18.9639 C   0  0  0  0  0  0  0  0  0  0  0  0
    5.4864   -0.1780   17.7668 N   0  0  0  0  0  0  0  0  0  0  0  0
    4.3023    0.3804   17.7995 C   0  0  0  0  0  0  0  0  0  0  0  0
    3.5795    0.6396   18.9936 C   0  0  0  0  0  0  0  0  0  0  0  0
    2.3301    1.3070   18.9932 C   0  0  0  0  0  0  0  0  0  0  0  0
    1.6139    1.4637   20.1492 C   0  0  0  0  0  0  0  0  0  0  0  0
    2.1823    1.0613   21.3715 C   0  0  0  0  0  0  0  0  0  0  0  0
    3.4355    0.5097   21.4108 C   0  0  0  0  0  0  0  0  0  0  0  0
    4.1684    0.2549   20.2215 C   0  0  0  0  0  0  0  0  0  0  0  0
    3.8665    0.2078   22.3545 H   0  0  0  0  0  0  0  0  0  0  0  0
    1.6154    1.1643   22.2944 H   0  0  0  0  0  0  0  0  0  0  0  0
    0.6201    1.8952   20.1389 H   0  0  0  0  0  0  0  0  0  0  0  0
    1.9897    1.7395   18.0617 H   0  0  0  0  0  0  0  0  0  0  0  0
    3.8562    0.6576   16.8416 H   0  0  0  0  0  0  0  0  0  0  0  0
    7.0868   -0.8530   18.8969 H   0  0  0  0  0  0  0  0  0  0  0  0
    6.3411    0.4352   22.0174 H   0  0  0  0  0  0  0  0  0  0  0  0
    7.3640   -0.7011   21.1758 H   0  0  0  0  0  0  0  0  0  0  0  0
    6.5083   -2.7367   22.6889 N   0  0  0  0  0  0  0  0  0  0  0  0
    7.7464   -3.1957   22.0959 C   0  0  0  0  0  0  0  0  0  0  0  0
    7.4154   -4.3334   21.1632 C   0  0  0  0  0  0  0  0  0  0  0  0
    6.5687   -5.2957   21.8861 C   0  0  0  0  0  0  0  0  0  0  0  0
    6.4800   -6.9092   21.3381 S   0  0  0  0  0  0  0  0  0  0  0  0
    5.7810   -7.3840   22.8185 C   0  0  0  0  0  0  0  0  0  0  0  0
    5.4569   -6.3177   23.6117 C   0  0  0  0  0  0  0  0  0  0  0  0
    5.9474   -5.0900   23.0702 C   0  0  0  0  0  0  0  0  0  0  0  0
    5.9264   -3.6893   23.6378 C   0  0  0  0  0  0  0  0  0  0  0  0
    6.4744   -3.6263   24.5876 H   0  0  0  0  0  0  0  0  0  0  0  0
    4.9138   -3.3572   23.8612 H   0  0  0  0  0  0  0  0  0  0  0  0
    4.9312   -6.3901   24.5551 H   0  0  0  0  0  0  0  0  0  0  0  0
    5.8659   -8.4304   23.0542 H   0  0  0  0  0  0  0  0  0  0  0  0
    8.3210   -4.8483   20.8349 H   0  0  0  0  0  0  0  0  0  0  0  0
    6.8404   -3.9690   20.3047 H   0  0  0  0  0  0  0  0  0  0  0  0
    8.3869   -3.5678   22.9049 H   0  0  0  0  0  0  0  0  0  0  0  0
    8.2832   -2.3962   21.5921 H   0  0  0  0  0  0  0  0  0  0  0  0
  1  2  2  0
  2  3  1  0
  3  4  1  0
  4  5  2  0
  5  6  1  0
  6  7  2  0
  7  8  1  0
  8  9  2  0
  9 10  1  0
 10 11  2  0
 11 12  1  0
 12 13  2  0
 12 14  1  0
 11 15  1  0
 10 16  1  0
  9 17  1  0
  7 18  1  0
  5 19  1  0
  3 20  1  0
  3 21  1  0
  2 22  1  0
 22 23  1  0
 23 24  1  0
 24 25  1  0
 25 26  1  0
 26 27  1  0
 27 28  2  0
 28 29  1  0
 29 30  1  0
 30 31  1  0
 30 32  1  0
 28 33  1  0
 27 34  1  0
 24 35  1  0
 24 36  1  0
 23 37  1  0
 23 38  1  0
 13  4  1  0
 30 22  1  0
 13  8  1  0
 29 25  2  0
M  END
>  <cnnaffinities>  (36) 
[5.24253]

>  <score>  (36) 
5.24253

>  <index>  (36) 
50

>  <Smiles>  (36) 
O=C(C(c1c(nc(c2c(c(c(c(c12)[H])[H])[H])[H])[H])[H])([H])[H])N1C(C(c2sc(c(c2C1([H])[H])[H])[H])([H])[H])([H])[H]

>  <h>  (36) 
<NA>

>  <Training>  (36) 
True

>  <Success>  (36) 
True

>  <enamine_searched>  (36) 
False

>  <enamine_id>  (36) 
nan

$$$$

     RDKit          3D

 67 73  0  0  0  0  0  0  0  0999 V2000
    4.9847    2.6129   28.3189 C   0  0  0  0  0  0  0  0  0  0  0  0
    5.9087    1.4546   28.2465 C   0  0  0  0  0  0  0  0  0  0  0  0
    6.6092    0.9101   29.1825 N   0  0  0  0  0  0  0  0  0  0  0  0
    7.2481   -0.1801   28.6058 N   0  0  0  0  0  0  0  0  0  0  0  0
    6.9026   -0.1953   27.3671 C   0  0  0  0  0  0  0  0  0  0  0  0
    7.2801   -1.1918   26.3138 C   0  0  0  0  0  0  0  0  0  0  0  0
    8.0261   -0.6357   25.1929 N   0  0  0  0  0  0  0  0  0  0  0  0
    7.4062   -0.1806   23.9545 C   0  0  0  0  0  0  0  0  0  0  0  0
    8.2537   -0.5275   22.6871 C   0  0  2  0  0  0  0  0  0  0  0  0
    7.6227    0.2879   21.5310 C   0  0  0  0  0  0  0  0  0  0  0  0
    7.7994    1.4636   21.2817 O   0  0  0  0  0  0  0  0  0  0  0  0
    6.7346   -0.5233   20.8522 N   0  0  0  0  0  0  0  0  0  0  0  0
    5.8921   -0.0722   19.7997 C   0  0  0  0  0  0  0  0  0  0  0  0
    6.3409   -0.1633   18.5057 C   0  0  0  0  0  0  0  0  0  0  0  0
    5.6117    0.1661   17.4090 N   0  0  0  0  0  0  0  0  0  0  0  0
    4.3908    0.6044   17.6060 C   0  0  0  0  0  0  0  0  0  0  0  0
    3.7920    0.7526   18.8919 C   0  0  0  0  0  0  0  0  0  0  0  0
    2.4896    1.3033   19.0518 C   0  0  0  0  0  0  0  0  0  0  0  0
    1.9356    1.4417   20.2959 C   0  0  0  0  0  0  0  0  0  0  0  0
    2.6639    1.0604   21.4475 C   0  0  0  0  0  0  0  0  0  0  0  0
    3.9171    0.4998   21.3179 C   0  0  0  0  0  0  0  0  0  0  0  0
    4.5394    0.3652   20.0362 C   0  0  0  0  0  0  0  0  0  0  0  0
    4.4502    0.1813   22.2098 H   0  0  0  0  0  0  0  0  0  0  0  0
    2.2252    1.2217   22.4341 H   0  0  0  0  0  0  0  0  0  0  0  0
    0.9455    1.8758   20.4058 H   0  0  0  0  0  0  0  0  0  0  0  0
    1.9793    1.6484   18.1602 H   0  0  0  0  0  0  0  0  0  0  0  0
    3.8097    0.8591   16.7156 H   0  0  0  0  0  0  0  0  0  0  0  0
    7.3344   -0.5680   18.3106 H   0  0  0  0  0  0  0  0  0  0  0  0
    6.8170   -1.9173   21.2135 C   0  0  0  0  0  0  0  0  0  0  0  0
    8.0409   -1.9806   22.1390 C   0  0  2  0  0  0  0  0  0  0  0  0
    7.8678   -3.1056   23.1680 C   0  0  0  0  0  0  0  0  0  0  0  0
    7.7923   -4.3992   22.5173 N   0  0  0  0  0  0  0  0  0  0  0  0
    6.6540   -5.0965   22.2748 C   0  0  0  0  0  0  0  0  0  0  0  0
    6.6912   -6.3285   21.5828 C   0  0  0  0  0  0  0  0  0  0  0  0
    5.4882   -6.9714   21.4131 C   0  0  0  0  0  0  0  0  0  0  0  0
    4.3187   -6.4809   21.8535 N   0  0  0  0  0  0  0  0  0  0  0  0
    4.3990   -5.3129   22.4677 C   0  0  0  0  0  0  0  0  0  0  0  0
    5.4912   -4.5874   22.7044 N   0  0  0  0  0  0  0  0  0  0  0  0
    3.4607   -4.8830   22.8182 H   0  0  0  0  0  0  0  0  0  0  0  0
    5.4352   -7.9280   20.8922 H   0  0  0  0  0  0  0  0  0  0  0  0
    7.6233   -6.7430   21.2060 H   0  0  0  0  0  0  0  0  0  0  0  0
    8.6651   -4.8007   22.2210 H   0  0  0  0  0  0  0  0  0  0  0  0
    6.9319   -2.9780   23.7196 H   0  0  0  0  0  0  0  0  0  0  0  0
    8.7007   -3.0989   23.8789 H   0  0  0  0  0  0  0  0  0  0  0  0
    8.9371   -2.1904   21.5300 H   0  0  0  0  0  0  0  0  0  0  0  0
    6.9360   -2.5429   20.3244 H   0  0  0  0  0  0  0  0  0  0  0  0
    5.9076   -2.2707   21.7212 H   0  0  0  0  0  0  0  0  0  0  0  0
    9.7228   -0.1899   22.9746 C   0  0  0  0  0  0  0  0  0  0  0  0
   10.6654    0.0209   21.9465 C   0  0  0  0  0  0  0  0  0  0  0  0
   12.0069    0.2443   22.2534 C   0  0  0  0  0  0  0  0  0  0  0  0
   13.2376    0.6055   21.0723 Cl  0  0  0  0  0  0  0  0  0  0  0  0
   12.4735    0.2014   23.5618 C   0  0  0  0  0  0  0  0  0  0  0  0
   11.5612    0.0263   24.5721 C   0  0  0  0  0  0  0  0  0  0  0  0
   10.2061   -0.1260   24.2885 C   0  0  0  0  0  0  0  0  0  0  0  0
    9.3214   -0.2957   25.4679 C   0  0  0  0  0  0  0  0  0  0  0  0
    9.7367   -0.1760   26.6123 O   0  0  0  0  0  0  0  0  0  0  0  0
   11.8735    0.0129   25.6072 H   0  0  0  0  0  0  0  0  0  0  0  0
   13.5347    0.2980   23.7629 H   0  0  0  0  0  0  0  0  0  0  0  0
   10.3391   -0.0038   20.9152 H   0  0  0  0  0  0  0  0  0  0  0  0
    6.4075   -0.6291   23.8757 H   0  0  0  0  0  0  0  0  0  0  0  0
    7.2721    0.9138   23.9703 H   0  0  0  0  0  0  0  0  0  0  0  0
    7.9233   -1.9217   26.8137 H   0  0  0  0  0  0  0  0  0  0  0  0
    6.3855   -1.7052   25.9369 H   0  0  0  0  0  0  0  0  0  0  0  0
    6.0411    0.8068   27.0605 O   0  0  0  0  0  0  0  0  0  0  0  0
    4.0462    2.3670   27.8140 H   0  0  0  0  0  0  0  0  0  0  0  0
    5.4136    3.4948   27.8304 H   0  0  0  0  0  0  0  0  0  0  0  0
    4.7895    2.8482   29.3666 H   0  0  0  0  0  0  0  0  0  0  0  0
  1  2  1  0
  2  3  2  0
  3  4  1  0
  4  5  2  0
  5  6  1  0
  6  7  1  0
  7  8  1  0
  9  8  1  1
  9 10  1  0
 10 11  2  0
 10 12  1  0
 12 13  1  0
 13 14  2  0
 14 15  1  0
 15 16  2  0
 16 17  1  0
 17 18  2  0
 18 19  1  0
 19 20  2  0
 20 21  1  0
 21 22  2  0
 21 23  1  0
 20 24  1  0
 19 25  1  0
 18 26  1  0
 16 27  1  0
 14 28  1  0
 12 29  1  0
 29 30  1  0
 30 31  1  0
 31 32  1  0
 32 33  1  0
 33 34  2  0
 34 35  1  0
 35 36  2  0
 36 37  1  0
 37 38  2  0
 37 39  1  0
 35 40  1  0
 34 41  1  0
 32 42  1  0
 31 43  1  0
 31 44  1  0
 30 45  1  6
 29 46  1  0
 29 47  1  0
  9 48  1  0
 48 49  2  0
 49 50  1  0
 50 51  1  0
 50 52  2  0
 52 53  1  0
 53 54  2  0
 54 55  1  0
 55 56  2  0
 53 57  1  0
 52 58  1  0
 49 59  1  0
  8 60  1  0
  8 61  1  0
  6 62  1  0
  6 63  1  0
  5 64  1  0
  1 65  1  0
  1 66  1  0
  1 67  1  0
 64  2  1  0
 55  7  1  0
 30  9  1  0
 38 33  1  0
 54 48  1  0
 22 13  1  0
 22 17  1  0
M  END
>  <cnnaffinities>  (37) 
[6.891]

>  <score>  (37) 
6.891

>  <index>  (37) 
51

>  <Smiles>  (37) 
C(c1nnc(C(N2C([C@@]3(C(=O)N(c4c(nc(c5c(c(c(c(c45)[H])[H])[H])[H])[H])[H])C([C@@]3(C(N(c3c(c(nc(n3)[H])[H])[H])[H])([H])[H])[H])([H])[H])c3c(c(Cl)c(c(c3C2=O)[H])[H])[H])([H])[H])([H])[H])o1)([H])([H])[H]

>  <h>  (37) 
<NA>

>  <Training>  (37) 
True

>  <Success>  (37) 
True

>  <enamine_searched>  (37) 
False

>  <enamine_id>  (37) 
nan

$$$$

     RDKit          3D

 66 71  0  0  0  0  0  0  0  0999 V2000
    7.0695   -4.6828   26.6125 C   0  0  0  0  0  0  0  0  0  0  0  0
    7.4482   -3.2827   26.7352 N   0  0  0  0  0  0  0  0  0  0  0  0
    6.5663   -2.3107   26.3770 C   0  0  0  0  0  0  0  0  0  0  0  0
    5.4279   -2.5722   26.0161 O   0  0  0  0  0  0  0  0  0  0  0  0
    7.0928   -0.8721   26.4026 C   0  0  0  0  0  0  0  0  0  0  0  0
    7.9582   -0.5931   25.2616 N   0  0  0  0  0  0  0  0  0  0  0  0
    7.3500   -0.1546   24.0037 C   0  0  0  0  0  0  0  0  0  0  0  0
    8.2059   -0.4906   22.7458 C   0  0  2  0  0  0  0  0  0  0  0  0
    7.5724    0.3190   21.5805 C   0  0  0  0  0  0  0  0  0  0  0  0
    7.7242    1.4926   21.3243 O   0  0  0  0  0  0  0  0  0  0  0  0
    6.7188   -0.5214   20.8804 N   0  0  0  0  0  0  0  0  0  0  0  0
    5.8757   -0.0918   19.8170 C   0  0  0  0  0  0  0  0  0  0  0  0
    6.3161   -0.2019   18.5191 C   0  0  0  0  0  0  0  0  0  0  0  0
    5.6196    0.1775   17.4153 N   0  0  0  0  0  0  0  0  0  0  0  0
    4.4108    0.6504   17.6054 C   0  0  0  0  0  0  0  0  0  0  0  0
    3.8001    0.7575   18.8913 C   0  0  0  0  0  0  0  0  0  0  0  0
    2.5045    1.3121   19.0543 C   0  0  0  0  0  0  0  0  0  0  0  0
    1.9719    1.5307   20.2946 C   0  0  0  0  0  0  0  0  0  0  0  0
    2.7015    1.1638   21.4451 C   0  0  0  0  0  0  0  0  0  0  0  0
    3.9338    0.5672   21.3258 C   0  0  0  0  0  0  0  0  0  0  0  0
    4.5432    0.3897   20.0450 C   0  0  0  0  0  0  0  0  0  0  0  0
    4.4490    0.2181   22.2136 H   0  0  0  0  0  0  0  0  0  0  0  0
    2.2908    1.3782   22.4296 H   0  0  0  0  0  0  0  0  0  0  0  0
    0.9951    1.9998   20.4023 H   0  0  0  0  0  0  0  0  0  0  0  0
    1.9839    1.6360   18.1627 H   0  0  0  0  0  0  0  0  0  0  0  0
    3.8429    0.9539   16.7187 H   0  0  0  0  0  0  0  0  0  0  0  0
    7.3222   -0.5737   18.3224 H   0  0  0  0  0  0  0  0  0  0  0  0
    6.8212   -1.9155   21.2385 C   0  0  0  0  0  0  0  0  0  0  0  0
    8.0164   -1.9477   22.1991 C   0  0  2  0  0  0  0  0  0  0  0  0
    7.8198   -3.0390   23.2503 C   0  0  0  0  0  0  0  0  0  0  0  0
    7.7926   -4.3566   22.6602 N   0  0  0  0  0  0  0  0  0  0  0  0
    6.6717   -5.0763   22.4109 C   0  0  0  0  0  0  0  0  0  0  0  0
    6.7544   -6.3077   21.7267 C   0  0  0  0  0  0  0  0  0  0  0  0
    5.5642   -6.9582   21.5123 C   0  0  0  0  0  0  0  0  0  0  0  0
    4.3731   -6.4843   21.9118 N   0  0  0  0  0  0  0  0  0  0  0  0
    4.4154   -5.3293   22.5521 C   0  0  0  0  0  0  0  0  0  0  0  0
    5.4935   -4.5934   22.8318 N   0  0  0  0  0  0  0  0  0  0  0  0
    3.4538   -4.9337   22.8806 H   0  0  0  0  0  0  0  0  0  0  0  0
    5.5484   -7.9096   20.9841 H   0  0  0  0  0  0  0  0  0  0  0  0
    7.7132   -6.7068   21.4008 H   0  0  0  0  0  0  0  0  0  0  0  0
    8.6746   -4.7202   22.3436 H   0  0  0  0  0  0  0  0  0  0  0  0
    8.6247   -2.9782   23.9849 H   0  0  0  0  0  0  0  0  0  0  0  0
    6.8653   -2.8967   23.7566 H   0  0  0  0  0  0  0  0  0  0  0  0
    8.9202   -2.1634   21.6099 H   0  0  0  0  0  0  0  0  0  0  0  0
    5.9090   -2.2870   21.7309 H   0  0  0  0  0  0  0  0  0  0  0  0
    6.9660   -2.5418   20.3477 H   0  0  0  0  0  0  0  0  0  0  0  0
    9.6679   -0.1391   23.0465 C   0  0  0  0  0  0  0  0  0  0  0  0
   10.6106    0.0790   22.0194 C   0  0  0  0  0  0  0  0  0  0  0  0
   11.9550    0.2796   22.3312 C   0  0  0  0  0  0  0  0  0  0  0  0
   13.1836    0.6582   21.1513 Cl  0  0  0  0  0  0  0  0  0  0  0  0
   12.4160    0.2111   23.6413 C   0  0  0  0  0  0  0  0  0  0  0  0
   11.4985    0.0375   24.6487 C   0  0  0  0  0  0  0  0  0  0  0  0
   10.1420   -0.0940   24.3660 C   0  0  0  0  0  0  0  0  0  0  0  0
    9.2423   -0.1982   25.5490 C   0  0  0  0  0  0  0  0  0  0  0  0
    9.6366    0.0205   26.6872 O   0  0  0  0  0  0  0  0  0  0  0  0
   11.8117    0.0002   25.6814 H   0  0  0  0  0  0  0  0  0  0  0  0
   13.4802    0.2897   23.8403 H   0  0  0  0  0  0  0  0  0  0  0  0
   10.2800    0.0695   20.9871 H   0  0  0  0  0  0  0  0  0  0  0  0
    7.2099    0.9352   24.0085 H   0  0  0  0  0  0  0  0  0  0  0  0
    6.3464   -0.5938   23.9262 H   0  0  0  0  0  0  0  0  0  0  0  0
    6.2318   -0.1962   26.4069 H   0  0  0  0  0  0  0  0  0  0  0  0
    7.6903   -0.6833   27.2996 H   0  0  0  0  0  0  0  0  0  0  0  0
    8.4030   -3.0454   26.9600 H   0  0  0  0  0  0  0  0  0  0  0  0
    6.2417   -4.9174   27.2888 H   0  0  0  0  0  0  0  0  0  0  0  0
    7.9273   -5.3092   26.8715 H   0  0  0  0  0  0  0  0  0  0  0  0
    6.7463   -4.9079   25.5877 H   0  0  0  0  0  0  0  0  0  0  0  0
  1  2  1  0
  2  3  1  0
  3  4  2  0
  3  5  1  0
  5  6  1  0
  6  7  1  0
  8  7  1  1
  8  9  1  0
  9 10  2  0
  9 11  1  0
 11 12  1  0
 12 13  2  0
 13 14  1  0
 14 15  2  0
 15 16  1  0
 16 17  2  0
 17 18  1  0
 18 19  2  0
 19 20  1  0
 20 21  2  0
 20 22  1  0
 19 23  1  0
 18 24  1  0
 17 25  1  0
 15 26  1  0
 13 27  1  0
 11 28  1  0
 28 29  1  0
 29 30  1  0
 30 31  1  0
 31 32  1  0
 32 33  2  0
 33 34  1  0
 34 35  2  0
 35 36  1  0
 36 37  2  0
 36 38  1  0
 34 39  1  0
 33 40  1  0
 31 41  1  0
 30 42  1  0
 30 43  1  0
 29 44  1  6
 28 45  1  0
 28 46  1  0
  8 47  1  0
 47 48  2  0
 48 49  1  0
 49 50  1  0
 49 51  2  0
 51 52  1  0
 52 53  2  0
 53 54  1  0
 54 55  2  0
 52 56  1  0
 51 57  1  0
 48 58  1  0
  7 59  1  0
  7 60  1  0
  5 61  1  0
  5 62  1  0
  2 63  1  0
  1 64  1  0
  1 65  1  0
  1 66  1  0
 54  6  1  0
 29  8  1  0
 37 32  1  0
 53 47  1  0
 21 12  1  0
 21 16  1  0
M  END
>  <cnnaffinities>  (38) 
[6.68216]

>  <score>  (38) 
6.68216

>  <index>  (38) 
52

>  <Smiles>  (38) 
C(N(C(=O)C(N1C([C@@]2(C(=O)N(c3c(nc(c4c(c(c(c(c34)[H])[H])[H])[H])[H])[H])C([C@@]2(C(N(c2c(c(nc(n2)[H])[H])[H])[H])([H])[H])[H])([H])[H])c2c(c(Cl)c(c(c2C1=O)[H])[H])[H])([H])[H])([H])[H])[H])([H])([H])[H]

>  <h>  (38) 
<NA>

>  <Training>  (38) 
True

>  <Success>  (38) 
True

>  <enamine_searched>  (38) 
False

>  <enamine_id>  (38) 
nan

$$$$

     RDKit          3D

 77 84  0  0  0  0  0  0  0  0999 V2000
    9.7700    2.5407   25.5165 O   0  0  0  0  0  0  0  0  0  0  0  0
    9.3713    1.6725   24.7444 C   0  0  0  0  0  0  0  0  0  0  0  0
   10.2644    1.0567   23.7191 C   0  0  0  0  0  0  0  0  0  0  0  0
   11.5865    1.4903   23.7420 C   0  0  0  0  0  0  0  0  0  0  0  0
   12.5065    0.9836   22.8571 C   0  0  0  0  0  0  0  0  0  0  0  0
   12.0783    0.0710   21.9031 C   0  0  0  0  0  0  0  0  0  0  0  0
   13.2988   -0.4706   20.7900 Cl  0  0  0  0  0  0  0  0  0  0  0  0
   10.7598   -0.3679   21.8517 C   0  0  0  0  0  0  0  0  0  0  0  0
    9.8096    0.1121   22.7807 C   0  0  0  0  0  0  0  0  0  0  0  0
    8.3352   -0.3464   22.7694 C   0  0  1  0  0  0  0  0  0  0  0  0
    7.7457   -0.0794   24.1859 C   0  0  0  0  0  0  0  0  0  0  0  0
    8.0956    1.2051   24.7639 N   0  0  0  0  0  0  0  0  0  0  0  0
    7.0242    2.0614   25.2561 C   0  0  0  0  0  0  0  0  0  0  0  0
    6.2640    1.4608   26.4280 C   0  0  0  0  0  0  0  0  0  0  0  0
    7.2182    1.2278   27.5618 N   0  0  0  0  0  4  0  0  0  0  0  0
    6.6650    0.5748   28.8051 C   0  0  0  0  0  0  0  0  0  0  0  0
    7.0003    1.8045   29.6893 C   0  0  0  0  0  0  0  0  0  0  0  0
    7.5637    1.5852   31.1028 C   0  0  0  0  0  0  0  0  0  0  0  0
    6.5092    2.3578   31.6832 O   0  0  0  0  0  0  0  0  0  0  0  0
    5.9527    2.6523   30.4014 C   0  0  0  0  0  0  0  0  0  0  0  0
    4.8960    2.3679   30.3038 H   0  0  0  0  0  0  0  0  0  0  0  0
    6.0728    3.7156   30.1566 H   0  0  0  0  0  0  0  0  0  0  0  0
    7.5332    0.5313   31.4032 H   0  0  0  0  0  0  0  0  0  0  0  0
    8.5396    1.9711   31.4072 H   0  0  0  0  0  0  0  0  0  0  0  0
    7.6074    2.4485   28.4101 C   0  0  0  0  0  0  0  0  0  0  0  0
    7.0716    3.3344   28.0714 H   0  0  0  0  0  0  0  0  0  0  0  0
    8.6698    2.6293   28.3495 H   0  0  0  0  0  0  0  0  0  0  0  0
    7.2220   -0.3316   29.0330 H   0  0  0  0  0  0  0  0  0  0  0  0
    5.6111    0.3394   28.6729 H   0  0  0  0  0  0  0  0  0  0  0  0
    8.0474    0.7580   27.1561 H   0  0  0  0  0  0  0  0  0  0  0  0
    5.4639    2.1317   26.7630 H   0  0  0  0  0  0  0  0  0  0  0  0
    5.8149    0.4943   26.1849 H   0  0  0  0  0  0  0  0  0  0  0  0
    7.4948    2.9993   25.5571 H   0  0  0  0  0  0  0  0  0  0  0  0
    6.3344    2.2802   24.4303 H   0  0  0  0  0  0  0  0  0  0  0  0
    8.0864   -0.8781   24.8589 H   0  0  0  0  0  0  0  0  0  0  0  0
    6.6587   -0.1091   24.1109 H   0  0  0  0  0  0  0  0  0  0  0  0
    7.4510    0.4239   21.7364 C   0  0  0  0  0  0  0  0  0  0  0  0
    7.3269    1.6251   21.6574 O   0  0  0  0  0  0  0  0  0  0  0  0
    6.7879   -0.4967   20.9328 N   0  0  0  0  0  0  0  0  0  0  0  0
    5.9345   -0.1241   19.8555 C   0  0  0  0  0  0  0  0  0  0  0  0
    6.3830   -0.2535   18.5607 C   0  0  0  0  0  0  0  0  0  0  0  0
    5.6837    0.0874   17.4497 N   0  0  0  0  0  0  0  0  0  0  0  0
    4.4725    0.5506   17.6318 C   0  0  0  0  0  0  0  0  0  0  0  0
    3.8595    0.7029   18.9055 C   0  0  0  0  0  0  0  0  0  0  0  0
    2.5666    1.2834   19.0307 C   0  0  0  0  0  0  0  0  0  0  0  0
    2.0066    1.4819   20.2592 C   0  0  0  0  0  0  0  0  0  0  0  0
    2.7089    1.1028   21.4223 C   0  0  0  0  0  0  0  0  0  0  0  0
    3.9621    0.5367   21.3326 C   0  0  0  0  0  0  0  0  0  0  0  0
    4.5922    0.3493   20.0674 C   0  0  0  0  0  0  0  0  0  0  0  0
    4.4911    0.2687   22.2409 H   0  0  0  0  0  0  0  0  0  0  0  0
    2.2723    1.3013   22.3936 H   0  0  0  0  0  0  0  0  0  0  0  0
    1.0283    1.9458   20.3555 H   0  0  0  0  0  0  0  0  0  0  0  0
    2.0608    1.6096   18.1303 H   0  0  0  0  0  0  0  0  0  0  0  0
    3.9109    0.8276   16.7390 H   0  0  0  0  0  0  0  0  0  0  0  0
    7.3800   -0.6446   18.3693 H   0  0  0  0  0  0  0  0  0  0  0  0
    7.4575   -1.7821   20.9407 C   0  0  0  0  0  0  0  0  0  0  0  0
    8.1437   -1.8382   22.3196 C   0  0  2  0  0  0  0  0  0  0  0  0
    7.3951   -2.8040   23.2741 C   0  0  0  0  0  0  0  0  0  0  0  0
    6.0073   -2.4805   23.5585 N   0  0  0  0  0  0  0  0  0  0  0  0
    5.4672   -2.3989   24.8161 C   0  0  0  0  0  0  0  0  0  0  0  0
    4.1742   -2.0568   24.8913 N   0  0  0  0  0  0  0  0  0  0  0  0
    3.6593   -1.9264   26.1133 C   0  0  0  0  0  0  0  0  0  0  0  0
    4.4034   -2.1132   27.2638 C   0  0  0  0  0  0  0  0  0  0  0  0
    5.7295   -2.4629   27.0720 C   0  0  0  0  0  0  0  0  0  0  0  0
    6.2813   -2.6168   25.8663 N   0  0  0  0  0  0  0  0  0  0  0  0
    6.3955   -2.6260   27.9180 H   0  0  0  0  0  0  0  0  0  0  0  0
    3.9772   -1.9885   28.2531 H   0  0  0  0  0  0  0  0  0  0  0  0
    2.6031   -1.6598   26.1581 H   0  0  0  0  0  0  0  0  0  0  0  0
    5.3686   -2.2600   22.8072 H   0  0  0  0  0  0  0  0  0  0  0  0
    7.9160   -2.8537   24.2307 H   0  0  0  0  0  0  0  0  0  0  0  0
    7.4450   -3.8087   22.8268 H   0  0  0  0  0  0  0  0  0  0  0  0
    9.1322   -2.2994   22.2196 H   0  0  0  0  0  0  0  0  0  0  0  0
    6.7409   -2.5987   20.7850 H   0  0  0  0  0  0  0  0  0  0  0  0
    8.2072   -1.8376   20.1358 H   0  0  0  0  0  0  0  0  0  0  0  0
   10.4789   -1.0830   21.0843 H   0  0  0  0  0  0  0  0  0  0  0  0
   13.5457    1.2886   22.8727 H   0  0  0  0  0  0  0  0  0  0  0  0
   11.8539    2.2610   24.4496 H   0  0  0  0  0  0  0  0  0  0  0  0
  1  2  2  0
  2  3  1  0
  3  4  2  0
  4  5  1  0
  5  6  2  0
  6  7  1  0
  6  8  1  0
  8  9  2  0
  9 10  1  0
 10 11  1  1
 11 12  1  0
 12 13  1  0
 13 14  1  0
 14 15  1  0
 15 16  1  0
 16 17  1  0
 17 18  1  0
 18 19  1  0
 19 20  1  0
 20 21  1  0
 20 22  1  0
 18 23  1  0
 18 24  1  0
 17 25  1  0
 25 26  1  0
 25 27  1  0
 16 28  1  0
 16 29  1  0
 15 30  1  0
 14 31  1  0
 14 32  1  0
 13 33  1  0
 13 34  1  0
 11 35  1  0
 11 36  1  0
 10 37  1  0
 37 38  2  0
 37 39  1  0
 39 40  1  0
 40 41  2  0
 41 42  1  0
 42 43  2  0
 43 44  1  0
 44 45  2  0
 45 46  1  0
 46 47  2  0
 47 48  1  0
 48 49  2  0
 48 50  1  0
 47 51  1  0
 46 52  1  0
 45 53  1  0
 43 54  1  0
 41 55  1  0
 39 56  1  0
 56 57  1  0
 57 58  1  0
 58 59  1  0
 59 60  1  0
 60 61  2  0
 61 62  1  0
 62 63  2  0
 63 64  1  0
 64 65  2  0
 64 66  1  0
 63 67  1  0
 62 68  1  0
 59 69  1  0
 58 70  1  0
 58 71  1  0
 57 72  1  6
 56 73  1  0
 56 74  1  0
  8 75  1  0
  5 76  1  0
  4 77  1  0
 12  2  1  0
 25 15  1  0
 49 40  1  0
 65 60  1  0
  9  3  1  0
 57 10  1  0
 20 17  1  0
 49 44  1  0
M  CHG  1  15   1
M  END
>  <cnnaffinities>  (39) 
[6.35838]

>  <score>  (39) 
6.35838

>  <index>  (39) 
53

>  <Smiles>  (39) 
O=C1c2c(c(c(Cl)c(c2[C@@]2(C(N1C(C([N+]1(C(C3(C(OC3([H])[H])([H])[H])C1([H])[H])([H])[H])[H])([H])[H])([H])[H])([H])[H])C(=O)N(c1c(nc(c3c(c(c(c(c13)[H])[H])[H])[H])[H])[H])C([C@@]2(C(N(c1nc(c(c(n1)[H])[H])[H])[H])([H])[H])[H])([H])[H])[H])[H])[H]

>  <h>  (39) 
<NA>

>  <Training>  (39) 
True

>  <Success>  (39) 
True

>  <enamine_searched>  (39) 
False

>  <enamine_id>  (39) 
nan

$$$$

     RDKit          3D

 66 71  0  0  0  0  0  0  0  0999 V2000
    7.0950   -4.7281   26.5976 C   0  0  0  0  0  0  0  0  0  0  0  0
    7.4737   -3.3279   26.7170 N   0  0  0  0  0  0  0  0  0  0  0  0
    6.5858   -2.3554   26.3757 C   0  0  0  0  0  0  0  0  0  0  0  0
    5.4400   -2.6178   26.0408 O   0  0  0  0  0  0  0  0  0  0  0  0
    7.1123   -0.9164   26.3886 C   0  0  0  0  0  0  0  0  0  0  0  0
    7.9703   -0.6366   25.2408 N   0  0  0  0  0  0  0  0  0  0  0  0
    7.3565   -0.1804   23.9900 C   0  0  0  0  0  0  0  0  0  0  0  0
    8.2075   -0.5066   22.7273 C   0  0  2  0  0  0  0  0  0  0  0  0
    7.5701    0.3084   21.5704 C   0  0  0  0  0  0  0  0  0  0  0  0
    7.7235    1.4836   21.3213 O   0  0  0  0  0  0  0  0  0  0  0  0
    6.7148   -0.5296   20.8698 N   0  0  0  0  0  0  0  0  0  0  0  0
    5.8715   -0.0993   19.8085 C   0  0  0  0  0  0  0  0  0  0  0  0
    6.3124   -0.1991   18.5131 C   0  0  0  0  0  0  0  0  0  0  0  0
    5.6178    0.1829   17.4102 N   0  0  0  0  0  0  0  0  0  0  0  0
    4.4099    0.6567   17.6038 C   0  0  0  0  0  0  0  0  0  0  0  0
    3.8002    0.7572   18.8881 C   0  0  0  0  0  0  0  0  0  0  0  0
    2.5087    1.3205   19.0502 C   0  0  0  0  0  0  0  0  0  0  0  0
    1.9797    1.5455   20.2937 C   0  0  0  0  0  0  0  0  0  0  0  0
    2.7117    1.1760   21.4437 C   0  0  0  0  0  0  0  0  0  0  0  0
    3.9405    0.5736   21.3214 C   0  0  0  0  0  0  0  0  0  0  0  0
    4.5410    0.3832   20.0399 C   0  0  0  0  0  0  0  0  0  0  0  0
    4.4547    0.2240   22.2097 H   0  0  0  0  0  0  0  0  0  0  0  0
    2.3087    1.4019   22.4293 H   0  0  0  0  0  0  0  0  0  0  0  0
    1.0124    2.0336   20.4030 H   0  0  0  0  0  0  0  0  0  0  0  0
    1.9895    1.6489   18.1603 H   0  0  0  0  0  0  0  0  0  0  0  0
    3.8541    0.9778   16.7197 H   0  0  0  0  0  0  0  0  0  0  0  0
    7.3144   -0.5759   18.3160 H   0  0  0  0  0  0  0  0  0  0  0  0
    6.8157   -1.9247   21.2207 C   0  0  0  0  0  0  0  0  0  0  0  0
    8.0112   -1.9603   22.1787 C   0  0  2  0  0  0  0  0  0  0  0  0
    7.8112   -3.0509   23.2293 C   0  0  0  0  0  0  0  0  0  0  0  0
    7.7688   -4.3600   22.6274 N   0  0  0  0  0  0  0  0  0  0  0  0
    6.6358   -5.0755   22.3888 C   0  0  0  0  0  0  0  0  0  0  0  0
    6.7363   -6.3176   21.7107 C   0  0  0  0  0  0  0  0  0  0  0  0
    5.6853   -7.0661   21.4587 N   0  0  0  0  0  0  0  0  0  0  0  0
    4.4982   -6.6068   21.8914 C   0  0  0  0  0  0  0  0  0  0  0  0
    4.3884   -5.3906   22.5342 C   0  0  0  0  0  0  0  0  0  0  0  0
    5.4540   -4.6121   22.7916 N   0  0  0  0  0  0  0  0  0  0  0  0
    3.4152   -5.0168   22.8473 H   0  0  0  0  0  0  0  0  0  0  0  0
    3.6265   -7.2281   21.7004 H   0  0  0  0  0  0  0  0  0  0  0  0
    7.7117   -6.6737   21.3756 H   0  0  0  0  0  0  0  0  0  0  0  0
    8.6436   -4.7499   22.3230 H   0  0  0  0  0  0  0  0  0  0  0  0
    6.8626   -2.9026   23.7480 H   0  0  0  0  0  0  0  0  0  0  0  0
    8.6274   -3.0070   23.9534 H   0  0  0  0  0  0  0  0  0  0  0  0
    8.9105   -2.1850   21.5872 H   0  0  0  0  0  0  0  0  0  0  0  0
    5.9055   -2.2980   21.7133 H   0  0  0  0  0  0  0  0  0  0  0  0
    6.9582   -2.5471   20.3270 H   0  0  0  0  0  0  0  0  0  0  0  0
    9.6710   -0.1571   23.0267 C   0  0  0  0  0  0  0  0  0  0  0  0
   10.6138    0.0595   22.0006 C   0  0  0  0  0  0  0  0  0  0  0  0
   11.9593    0.2552   22.3139 C   0  0  0  0  0  0  0  0  0  0  0  0
   13.1921    0.6507   21.1442 Cl  0  0  0  0  0  0  0  0  0  0  0  0
   12.4237    0.1744   23.6222 C   0  0  0  0  0  0  0  0  0  0  0  0
   11.5072    0.0027   24.6300 C   0  0  0  0  0  0  0  0  0  0  0  0
   10.1493   -0.1175   24.3446 C   0  0  0  0  0  0  0  0  0  0  0  0
    9.2492   -0.2210   25.5252 C   0  0  0  0  0  0  0  0  0  0  0  0
    9.6387    0.0214   26.6597 O   0  0  0  0  0  0  0  0  0  0  0  0
   11.8221   -0.0443   25.6628 H   0  0  0  0  0  0  0  0  0  0  0  0
   13.4891    0.2472   23.8190 H   0  0  0  0  0  0  0  0  0  0  0  0
   10.2780    0.0572   20.9705 H   0  0  0  0  0  0  0  0  0  0  0  0
    6.3518   -0.6174   23.9147 H   0  0  0  0  0  0  0  0  0  0  0  0
    7.2248    0.9102   24.0060 H   0  0  0  0  0  0  0  0  0  0  0  0
    7.7106   -0.7263   27.2849 H   0  0  0  0  0  0  0  0  0  0  0  0
    6.2518   -0.2407   26.4006 H   0  0  0  0  0  0  0  0  0  0  0  0
    8.4295   -3.0888   26.9343 H   0  0  0  0  0  0  0  0  0  0  0  0
    6.2718   -4.9641   27.2787 H   0  0  0  0  0  0  0  0  0  0  0  0
    6.7658   -4.9559   25.5752 H   0  0  0  0  0  0  0  0  0  0  0  0
    7.9550   -5.3525   26.8517 H   0  0  0  0  0  0  0  0  0  0  0  0
  1  2  1  0
  2  3  1  0
  3  4  2  0
  3  5  1  0
  5  6  1  0
  6  7  1  0
  8  7  1  1
  8  9  1  0
  9 10  2  0
  9 11  1  0
 11 12  1  0
 12 13  2  0
 13 14  1  0
 14 15  2  0
 15 16  1  0
 16 17  2  0
 17 18  1  0
 18 19  2  0
 19 20  1  0
 20 21  2  0
 20 22  1  0
 19 23  1  0
 18 24  1  0
 17 25  1  0
 15 26  1  0
 13 27  1  0
 11 28  1  0
 28 29  1  0
 29 30  1  0
 30 31  1  0
 31 32  1  0
 32 33  2  0
 33 34  1  0
 34 35  2  0
 35 36  1  0
 36 37  2  0
 36 38  1  0
 35 39  1  0
 33 40  1  0
 31 41  1  0
 30 42  1  0
 30 43  1  0
 29 44  1  6
 28 45  1  0
 28 46  1  0
  8 47  1  0
 47 48  2  0
 48 49  1  0
 49 50  1  0
 49 51  2  0
 51 52  1  0
 52 53  2  0
 53 54  1  0
 54 55  2  0
 52 56  1  0
 51 57  1  0
 48 58  1  0
  7 59  1  0
  7 60  1  0
  5 61  1  0
  5 62  1  0
  2 63  1  0
  1 64  1  0
  1 65  1  0
  1 66  1  0
 54  6  1  0
 29  8  1  0
 37 32  1  0
 53 47  1  0
 21 12  1  0
 21 16  1  0
M  END
>  <cnnaffinities>  (40) 
[6.89401, 6.82915]

>  <score>  (40) 
6.89401

>  <index>  (40) 
54

>  <Smiles>  (40) 
C(N(C(=O)C(N1C([C@@]2(C(=O)N(c3c(nc(c4c(c(c(c(c34)[H])[H])[H])[H])[H])[H])C([C@@]2(C(N(c2c(nc(c(n2)[H])[H])[H])[H])([H])[H])[H])([H])[H])c2c(c(Cl)c(c(c2C1=O)[H])[H])[H])([H])[H])([H])[H])[H])([H])([H])[H]

>  <h>  (40) 
<NA>

>  <Training>  (40) 
True

>  <Success>  (40) 
True

>  <enamine_searched>  (40) 
False

>  <enamine_id>  (40) 
nan

$$$$

     RDKit          3D

 56 61  0  0  0  0  0  0  0  0999 V2000
    5.3835    5.1239   22.1302 C   0  0  0  0  0  0  0  0  0  0  0  0
    6.5528    4.8579   22.9474 N   0  0  0  0  0  0  0  0  0  0  0  0
    7.8175    5.3302   22.8247 C   0  0  0  0  0  0  0  0  0  0  0  0
    8.6109    4.5673   23.6541 C   0  0  0  0  0  0  0  0  0  0  0  0
    7.7231    3.6311   24.2378 C   0  0  0  0  0  0  0  0  0  0  0  0
    7.9727    2.4377   25.1259 C   0  0  0  0  0  0  0  0  0  0  0  0
    8.6446    1.3444   24.4178 N   0  0  0  0  0  0  0  0  0  0  0  0
    7.9660    0.1074   24.0660 C   0  0  0  0  0  0  0  0  0  0  0  0
    8.3214   -0.4315   22.6533 C   0  0  1  0  0  0  0  0  0  0  0  0
    7.7218   -1.8593   22.5229 C   0  0  0  0  0  0  0  0  0  0  0  0
    6.9468   -1.9234   21.2045 C   0  0  0  0  0  0  0  0  0  0  0  0
    6.6457   -0.5278   20.9652 N   0  0  0  0  0  0  0  0  0  0  0  0
    5.8427   -0.1422   19.8586 C   0  0  0  0  0  0  0  0  0  0  0  0
    6.3215   -0.2133   18.5744 C   0  0  0  0  0  0  0  0  0  0  0  0
    5.6393    0.1564   17.4604 N   0  0  0  0  0  0  0  0  0  0  0  0
    4.4273    0.6259   17.6411 C   0  0  0  0  0  0  0  0  0  0  0  0
    3.7937    0.7269   18.9105 C   0  0  0  0  0  0  0  0  0  0  0  0
    2.5120    1.3145   19.0596 C   0  0  0  0  0  0  0  0  0  0  0  0
    1.9887    1.5626   20.2991 C   0  0  0  0  0  0  0  0  0  0  0  0
    2.7012    1.1817   21.4589 C   0  0  0  0  0  0  0  0  0  0  0  0
    3.9183    0.5467   21.3462 C   0  0  0  0  0  0  0  0  0  0  0  0
    4.5146    0.3404   20.0685 C   0  0  0  0  0  0  0  0  0  0  0  0
    4.4482    0.2054   22.2301 H   0  0  0  0  0  0  0  0  0  0  0  0
    2.3002    1.4260   22.4398 H   0  0  0  0  0  0  0  0  0  0  0  0
    1.0296    2.0610   20.4019 H   0  0  0  0  0  0  0  0  0  0  0  0
    1.9982    1.6259   18.1611 H   0  0  0  0  0  0  0  0  0  0  0  0
    3.8941    0.9951   16.7619 H   0  0  0  0  0  0  0  0  0  0  0  0
    7.3283   -0.5763   18.3890 H   0  0  0  0  0  0  0  0  0  0  0  0
    7.5873    0.3308   21.5174 C   0  0  0  0  0  0  0  0  0  0  0  0
    7.7896    1.4675   21.1540 O   0  0  0  0  0  0  0  0  0  0  0  0
    6.0225   -2.5107   21.2835 H   0  0  0  0  0  0  0  0  0  0  0  0
    7.5423   -2.3430   20.3805 H   0  0  0  0  0  0  0  0  0  0  0  0
    8.4787   -2.6406   22.6005 H   0  0  0  0  0  0  0  0  0  0  0  0
    7.0135   -2.0248   23.3410 H   0  0  0  0  0  0  0  0  0  0  0  0
    9.8331   -0.3553   22.5047 C   0  0  0  0  0  0  0  0  0  0  0  0
   10.4907   -1.1603   21.5681 C   0  0  0  0  0  0  0  0  0  0  0  0
   11.8639   -1.0717   21.4064 C   0  0  0  0  0  0  0  0  0  0  0  0
   12.6385   -2.0607   20.1977 Cl  0  0  0  0  0  0  0  0  0  0  0  0
   12.6334   -0.1918   22.1672 C   0  0  0  0  0  0  0  0  0  0  0  0
   11.9953    0.5971   23.1023 C   0  0  0  0  0  0  0  0  0  0  0  0
   10.6120    0.5282   23.2662 C   0  0  0  0  0  0  0  0  0  0  0  0
    9.9979    1.4658   24.2519 C   0  0  0  0  0  0  0  0  0  0  0  0
   10.6570    2.3101   24.8491 O   0  0  0  0  0  0  0  0  0  0  0  0
   12.5533    1.2928   23.7205 H   0  0  0  0  0  0  0  0  0  0  0  0
   13.7073   -0.1326   22.0203 H   0  0  0  0  0  0  0  0  0  0  0  0
    9.9439   -1.8702   20.9562 H   0  0  0  0  0  0  0  0  0  0  0  0
    8.2543   -0.6849   24.7727 H   0  0  0  0  0  0  0  0  0  0  0  0
    6.8860    0.2620   24.1395 H   0  0  0  0  0  0  0  0  0  0  0  0
    6.9991    2.0853   25.4794 H   0  0  0  0  0  0  0  0  0  0  0  0
    8.5855    2.6947   25.9967 H   0  0  0  0  0  0  0  0  0  0  0  0
    6.4844    3.8291   23.8058 N   0  0  0  0  0  0  0  0  0  0  0  0
    9.6831    4.6322   23.7822 H   0  0  0  0  0  0  0  0  0  0  0  0
    8.0601    6.1687   22.1772 H   0  0  0  0  0  0  0  0  0  0  0  0
    4.5573    5.4937   22.7405 H   0  0  0  0  0  0  0  0  0  0  0  0
    5.6387    5.8668   21.3766 H   0  0  0  0  0  0  0  0  0  0  0  0
    5.0803    4.1870   21.6538 H   0  0  0  0  0  0  0  0  0  0  0  0
  1  2  1  0
  2  3  1  0
  3  4  2  0
  4  5  1  0
  5  6  1  0
  6  7  1  0
  7  8  1  0
  9  8  1  1
  9 10  1  0
 10 11  1  0
 11 12  1  0
 12 13  1  0
 13 14  2  0
 14 15  1  0
 15 16  2  0
 16 17  1  0
 17 18  2  0
 18 19  1  0
 19 20  2  0
 20 21  1  0
 21 22  2  0
 21 23  1  0
 20 24  1  0
 19 25  1  0
 18 26  1  0
 16 27  1  0
 14 28  1  0
 12 29  1  0
 29 30  2  0
 11 31  1  0
 11 32  1  0
 10 33  1  0
 10 34  1  0
  9 35  1  0
 35 36  2  0
 36 37  1  0
 37 38  1  0
 37 39  2  0
 39 40  1  0
 40 41  2  0
 41 42  1  0
 42 43  2  0
 40 44  1  0
 39 45  1  0
 36 46  1  0
  8 47  1  0
  8 48  1  0
  6 49  1  0
  6 50  1  0
  5 51  2  0
  4 52  1  0
  3 53  1  0
  1 54  1  0
  1 55  1  0
  1 56  1  0
 51  2  1  0
 42  7  1  0
 29  9  1  0
 41 35  1  0
 22 13  1  0
 22 17  1  0
M  END
>  <cnnaffinities>  (41) 
[6.60014]

>  <score>  (41) 
6.60014

>  <index>  (41) 
55

>  <Smiles>  (41) 
C(n1c(c(c(C(N2C([C@]3(C(C(N(c4c(nc(c5c(c(c(c(c45)[H])[H])[H])[H])[H])[H])C3=O)([H])[H])([H])[H])c3c(c(Cl)c(c(c3C2=O)[H])[H])[H])([H])[H])([H])[H])n1)[H])[H])([H])([H])[H]

>  <h>  (41) 
<NA>

>  <Training>  (41) 
True

>  <Success>  (41) 
True

>  <enamine_searched>  (41) 
False

>  <enamine_id>  (41) 
nan

$$$$

     RDKit          3D

 41 43  0  0  0  0  0  0  0  0999 V2000
    5.5873   -0.9491   23.3427 O   0  0  0  0  0  0  0  0  0  0  0  0
    6.0739   -1.2698   22.2712 C   0  0  0  0  0  0  0  0  0  0  0  0
    6.5099   -0.1996   21.2500 C   0  0  0  0  0  0  0  0  0  0  0  0
    5.6629   -0.1098   20.0029 C   0  0  0  0  0  0  0  0  0  0  0  0
    6.1923   -0.2503   18.7428 C   0  0  0  0  0  0  0  0  0  0  0  0
    5.5262    0.0149   17.5924 N   0  0  0  0  0  0  0  0  0  0  0  0
    4.3013    0.4669   17.7097 C   0  0  0  0  0  0  0  0  0  0  0  0
    3.6235    0.6547   18.9337 C   0  0  0  0  0  0  0  0  0  0  0  0
    2.3578    1.2945   19.0070 C   0  0  0  0  0  0  0  0  0  0  0  0
    1.7253    1.4226   20.2105 C   0  0  0  0  0  0  0  0  0  0  0  0
    2.3784    1.0041   21.3869 C   0  0  0  0  0  0  0  0  0  0  0  0
    3.6283    0.4494   21.3523 C   0  0  0  0  0  0  0  0  0  0  0  0
    4.2999    0.2832   20.1160 C   0  0  0  0  0  0  0  0  0  0  0  0
    4.1151    0.1833   22.2829 H   0  0  0  0  0  0  0  0  0  0  0  0
    1.9077    1.1298   22.3551 H   0  0  0  0  0  0  0  0  0  0  0  0
    0.7249    1.8376   20.2742 H   0  0  0  0  0  0  0  0  0  0  0  0
    1.9492    1.7571   18.1147 H   0  0  0  0  0  0  0  0  0  0  0  0
    3.7729    0.7117   16.7952 H   0  0  0  0  0  0  0  0  0  0  0  0
    7.2252   -0.5832   18.6143 H   0  0  0  0  0  0  0  0  0  0  0  0
    6.4802    0.7433   21.8042 H   0  0  0  0  0  0  0  0  0  0  0  0
    7.5596   -0.3186   20.9582 H   0  0  0  0  0  0  0  0  0  0  0  0
    6.2478   -2.5939   21.9411 N   0  0  0  0  0  0  0  0  0  0  0  0
    6.7444   -3.0143   20.6415 C   0  0  0  0  0  0  0  0  0  0  0  0
    5.6695   -3.5062   19.6672 C   0  0  0  0  0  0  0  0  0  0  0  0
    5.3588   -4.9672   19.9707 C   0  0  0  0  0  0  0  0  0  0  0  0
    4.5439   -5.2209   21.5733 S   0  0  0  0  0  0  0  0  0  0  0  0
    5.9698   -4.9943   22.6580 C   0  0  0  0  0  0  0  0  0  0  0  0
    6.2761   -3.5465   23.0518 C   0  0  1  0  0  0  0  0  0  0  0  0
    7.6388   -3.4594   23.7461 C   0  0  0  0  0  0  0  0  0  0  0  0
    8.6325   -3.7314   22.8769 F   0  0  0  0  0  0  0  0  0  0  0  0
    7.8659   -2.2361   24.2330 F   0  0  0  0  0  0  0  0  0  0  0  0
    7.7390   -4.3462   24.7528 F   0  0  0  0  0  0  0  0  0  0  0  0
    5.5429   -3.1982   23.7822 H   0  0  0  0  0  0  0  0  0  0  0  0
    5.7435   -5.5674   23.5607 H   0  0  0  0  0  0  0  0  0  0  0  0
    6.8449   -5.4649   22.1983 H   0  0  0  0  0  0  0  0  0  0  0  0
    6.2905   -5.5435   19.9834 H   0  0  0  0  0  0  0  0  0  0  0  0
    4.7453   -5.4241   19.1992 H   0  0  0  0  0  0  0  0  0  0  0  0
    4.7680   -2.8801   19.7098 H   0  0  0  0  0  0  0  0  0  0  0  0
    6.0544   -3.4272   18.6394 H   0  0  0  0  0  0  0  0  0  0  0  0
    7.3336   -2.2099   20.1998 H   0  0  0  0  0  0  0  0  0  0  0  0
    7.4409   -3.8301   20.8383 H   0  0  0  0  0  0  0  0  0  0  0  0
  1  2  2  0
  2  3  1  0
  3  4  1  0
  4  5  2  0
  5  6  1  0
  6  7  2  0
  7  8  1  0
  8  9  2  0
  9 10  1  0
 10 11  2  0
 11 12  1  0
 12 13  2  0
 12 14  1  0
 11 15  1  0
 10 16  1  0
  9 17  1  0
  7 18  1  0
  5 19  1  0
  3 20  1  0
  3 21  1  0
  2 22  1  0
 22 23  1  0
 23 24  1  0
 24 25  1  0
 25 26  1  0
 26 27  1  0
 27 28  1  0
 28 29  1  0
 29 30  1  0
 29 31  1  0
 29 32  1  0
 28 33  1  1
 27 34  1  0
 27 35  1  0
 25 36  1  0
 25 37  1  0
 24 38  1  0
 24 39  1  0
 23 40  1  0
 23 41  1  0
 13  4  1  0
 28 22  1  0
 13  8  1  0
M  END
>  <cnnaffinities>  (42) 
[5.11545, 5.11555]

>  <score>  (42) 
5.11545

>  <index>  (42) 
56

>  <Smiles>  (42) 
O=C(C(c1c(nc(c2c(c(c(c(c12)[H])[H])[H])[H])[H])[H])([H])[H])N1C(C(C(SC([C@]1(C(F)(F)F)[H])([H])[H])([H])[H])([H])[H])([H])[H]

>  <h>  (42) 
<NA>

>  <Training>  (42) 
True

>  <Success>  (42) 
True

>  <enamine_searched>  (42) 
False

>  <enamine_id>  (42) 
nan

$$$$

     RDKit          3D

 57 62  0  0  0  0  0  0  0  0999 V2000
    7.8701   -3.0696   23.2638 C   0  0  0  0  0  0  0  0  0  0  0  0
    8.0194   -1.9768   22.2156 C   0  0  1  0  0  0  0  0  0  0  0  0
    6.8192   -1.9273   21.2536 C   0  0  0  0  0  0  0  0  0  0  0  0
    6.7441   -0.5338   20.8666 N   0  0  0  0  0  0  0  0  0  0  0  0
    5.8973   -0.0993   19.8101 C   0  0  0  0  0  0  0  0  0  0  0  0
    6.3496   -0.1817   18.5202 C   0  0  0  0  0  0  0  0  0  0  0  0
    5.6243    0.1259   17.4164 N   0  0  0  0  0  0  0  0  0  0  0  0
    4.4007    0.5520   17.6122 C   0  0  0  0  0  0  0  0  0  0  0  0
    3.7965    0.7023   18.8895 C   0  0  0  0  0  0  0  0  0  0  0  0
    2.5069    1.2881   19.0451 C   0  0  0  0  0  0  0  0  0  0  0  0
    1.9400    1.4084   20.2843 C   0  0  0  0  0  0  0  0  0  0  0  0
    2.6562    0.9740   21.4223 C   0  0  0  0  0  0  0  0  0  0  0  0
    3.9251    0.4607   21.3051 C   0  0  0  0  0  0  0  0  0  0  0  0
    4.5443    0.3260   20.0330 C   0  0  0  0  0  0  0  0  0  0  0  0
    4.4887    0.1913   22.1906 H   0  0  0  0  0  0  0  0  0  0  0  0
    2.2142    1.1040   22.4054 H   0  0  0  0  0  0  0  0  0  0  0  0
    0.9380    1.8206   20.4064 H   0  0  0  0  0  0  0  0  0  0  0  0
    2.0123    1.7004   18.1715 H   0  0  0  0  0  0  0  0  0  0  0  0
    3.8101    0.7798   16.7268 H   0  0  0  0  0  0  0  0  0  0  0  0
    7.3567   -0.5468   18.3324 H   0  0  0  0  0  0  0  0  0  0  0  0
    7.5895    0.3036   21.5712 C   0  0  0  0  0  0  0  0  0  0  0  0
    7.7744    1.4736   21.3164 O   0  0  0  0  0  0  0  0  0  0  0  0
    8.1966   -0.5072   22.7441 C   0  0  1  0  0  0  0  0  0  0  0  0
    7.3402   -0.1688   23.9963 C   0  0  0  0  0  0  0  0  0  0  0  0
    7.9678   -0.5180   25.2671 N   0  0  0  0  0  0  0  0  0  0  0  0
    7.1146   -0.8228   26.4096 C   0  0  0  0  0  0  0  0  0  0  0  0
    6.7128   -2.2808   26.4759 C   0  0  0  0  0  0  0  0  0  0  0  0
    7.5725   -3.2730   26.9414 C   0  0  0  0  0  0  0  0  0  0  0  0
    7.0404   -4.5468   27.0878 C   0  0  0  0  0  0  0  0  0  0  0  0
    5.7809   -4.8422   26.7595 N   0  0  0  0  0  0  0  0  0  0  0  0
    5.0755   -3.8328   26.2460 C   0  0  0  0  0  0  0  0  0  0  0  0
    5.4683   -2.5755   26.0750 N   0  0  0  0  0  0  0  0  0  0  0  0
    4.0592   -4.0684   25.9278 H   0  0  0  0  0  0  0  0  0  0  0  0
    7.6409   -5.3690   27.4826 H   0  0  0  0  0  0  0  0  0  0  0  0
    8.6107   -3.0596   27.1892 H   0  0  0  0  0  0  0  0  0  0  0  0
    7.6813   -0.5263   27.2984 H   0  0  0  0  0  0  0  0  0  0  0  0
    6.1974   -0.2261   26.3631 H   0  0  0  0  0  0  0  0  0  0  0  0
    9.2812   -0.2266   25.5198 C   0  0  0  0  0  0  0  0  0  0  0  0
    9.7293   -0.1101   26.6538 O   0  0  0  0  0  0  0  0  0  0  0  0
   10.1548   -0.0916   24.3204 C   0  0  0  0  0  0  0  0  0  0  0  0
   11.5162    0.0794   24.5695 C   0  0  0  0  0  0  0  0  0  0  0  0
   12.4107    0.2064   23.5322 C   0  0  0  0  0  0  0  0  0  0  0  0
   11.9059    0.2015   22.2406 C   0  0  0  0  0  0  0  0  0  0  0  0
   12.7980    0.3982   21.2584 F   0  0  0  0  0  0  0  0  0  0  0  0
   10.5620    0.0142   21.9558 C   0  0  0  0  0  0  0  0  0  0  0  0
    9.6528   -0.1581   23.0147 C   0  0  0  0  0  0  0  0  0  0  0  0
   10.2277    0.0070   20.9232 H   0  0  0  0  0  0  0  0  0  0  0  0
   13.4811    0.3108   23.6784 H   0  0  0  0  0  0  0  0  0  0  0  0
   11.8490    0.0975   25.5986 H   0  0  0  0  0  0  0  0  0  0  0  0
    6.3854   -0.7065   23.9546 H   0  0  0  0  0  0  0  0  0  0  0  0
    7.1236    0.9100   23.9626 H   0  0  0  0  0  0  0  0  0  0  0  0
    5.8906   -2.2570   21.7510 H   0  0  0  0  0  0  0  0  0  0  0  0
    6.9620   -2.5653   20.3713 H   0  0  0  0  0  0  0  0  0  0  0  0
    8.9250   -2.1797   21.6274 H   0  0  0  0  0  0  0  0  0  0  0  0
    6.9302   -2.9420   23.8038 H   0  0  0  0  0  0  0  0  0  0  0  0
    8.6830   -3.0508   23.9952 H   0  0  0  0  0  0  0  0  0  0  0  0
    7.8460   -4.0597   22.7969 H   0  0  0  0  0  0  0  0  0  0  0  0
  1  2  1  0
  2  3  1  0
  3  4  1  0
  4  5  1  0
  5  6  2  0
  6  7  1  0
  7  8  2  0
  8  9  1  0
  9 10  2  0
 10 11  1  0
 11 12  2  0
 12 13  1  0
 13 14  2  0
 13 15  1  0
 12 16  1  0
 11 17  1  0
 10 18  1  0
  8 19  1  0
  6 20  1  0
  4 21  1  0
 21 22  2  0
 21 23  1  0
 23 24  1  1
 24 25  1  0
 25 26  1  0
 26 27  1  0
 27 28  2  0
 28 29  1  0
 29 30  2  0
 30 31  1  0
 31 32  2  0
 31 33  1  0
 29 34  1  0
 28 35  1  0
 26 36  1  0
 26 37  1  0
 25 38  1  0
 38 39  2  0
 38 40  1  0
 40 41  2  0
 41 42  1  0
 42 43  2  0
 43 44  1  0
 43 45  1  0
 45 46  2  0
 45 47  1  0
 42 48  1  0
 41 49  1  0
 24 50  1  0
 24 51  1  0
  3 52  1  0
  3 53  1  0
  2 54  1  6
  1 55  1  0
  1 56  1  0
  1 57  1  0
 23  2  1  0
 32 27  1  0
 46 40  1  0
 14  5  1  0
 46 23  1  0
 14  9  1  0
M  END
>  <cnnaffinities>  (43) 
[6.44569]

>  <score>  (43) 
6.44569

>  <index>  (43) 
58

>  <Smiles>  (43) 
C([C@]1(C(N(c2c(nc(c3c(c(c(c(c23)[H])[H])[H])[H])[H])[H])C(=O)[C@]21C(N(C(c1c(c(nc(n1)[H])[H])[H])([H])[H])C(=O)c1c(c(c(F)c(c21)[H])[H])[H])([H])[H])([H])[H])[H])([H])([H])[H]

>  <h>  (43) 
<NA>

>  <Training>  (43) 
True

>  <Success>  (43) 
True

>  <enamine_searched>  (43) 
False

>  <enamine_id>  (43) 
nan

$$$$

     RDKit          3D

 60 65  0  0  0  0  0  0  0  0999 V2000
    6.7617   -5.0674   23.6665 C   0  0  0  0  0  0  0  0  0  0  0  0
    7.4765   -4.2418   22.7802 O   0  0  0  0  0  0  0  0  0  0  0  0
    7.7347   -2.9853   23.3738 C   0  0  0  0  0  0  0  0  0  0  0  0
    7.9986   -1.9693   22.2723 C   0  0  1  0  0  0  0  0  0  0  0  0
    6.8238   -1.9203   21.2785 C   0  0  0  0  0  0  0  0  0  0  0  0
    6.7691   -0.5296   20.8654 N   0  0  0  0  0  0  0  0  0  0  0  0
    5.9107   -0.1042   19.8116 C   0  0  0  0  0  0  0  0  0  0  0  0
    6.3573   -0.1876   18.5165 C   0  0  0  0  0  0  0  0  0  0  0  0
    5.6262    0.1141   17.4138 N   0  0  0  0  0  0  0  0  0  0  0  0
    4.3987    0.5279   17.6078 C   0  0  0  0  0  0  0  0  0  0  0  0
    3.7941    0.6757   18.8904 C   0  0  0  0  0  0  0  0  0  0  0  0
    2.5065    1.2578   19.0512 C   0  0  0  0  0  0  0  0  0  0  0  0
    1.9379    1.3644   20.2907 C   0  0  0  0  0  0  0  0  0  0  0  0
    2.6587    0.9349   21.4267 C   0  0  0  0  0  0  0  0  0  0  0  0
    3.9294    0.4273   21.3093 C   0  0  0  0  0  0  0  0  0  0  0  0
    4.5517    0.3132   20.0341 C   0  0  0  0  0  0  0  0  0  0  0  0
    4.4897    0.1577   22.1982 H   0  0  0  0  0  0  0  0  0  0  0  0
    2.2113    1.0531   22.4073 H   0  0  0  0  0  0  0  0  0  0  0  0
    0.9307    1.7548   20.4130 H   0  0  0  0  0  0  0  0  0  0  0  0
    2.0162    1.6912   18.1860 H   0  0  0  0  0  0  0  0  0  0  0  0
    3.8020    0.7356   16.7206 H   0  0  0  0  0  0  0  0  0  0  0  0
    7.3695   -0.5350   18.3271 H   0  0  0  0  0  0  0  0  0  0  0  0
    7.6708    0.2954   21.5158 C   0  0  0  0  0  0  0  0  0  0  0  0
    7.9165    1.4419   21.1945 O   0  0  0  0  0  0  0  0  0  0  0  0
    8.2363   -0.4874   22.7275 C   0  0  1  0  0  0  0  0  0  0  0  0
    7.3704   -0.0556   23.9454 C   0  0  0  0  0  0  0  0  0  0  0  0
    7.9156   -0.4877   25.2278 N   0  0  0  0  0  0  0  0  0  0  0  0
    7.0310   -0.8200   26.3368 C   0  0  0  0  0  0  0  0  0  0  0  0
    6.7937   -2.2978   26.5129 C   0  0  0  0  0  0  0  0  0  0  0  0
    5.6387   -2.9112   26.3672 N   0  0  0  0  0  0  0  0  0  0  0  0
    5.8583   -4.2099   26.7522 C   0  0  0  0  0  0  0  0  0  0  0  0
    7.1665   -4.3990   27.1157 C   0  0  0  0  0  0  0  0  0  0  0  0
    7.7600   -3.1635   26.9428 N   0  0  0  0  0  0  0  0  0  0  0  0
    8.7228   -2.9336   27.1378 H   0  0  0  0  0  0  0  0  0  0  0  0
    7.6974   -5.2732   27.4723 H   0  0  0  0  0  0  0  0  0  0  0  0
    5.0516   -4.9333   26.7261 H   0  0  0  0  0  0  0  0  0  0  0  0
    7.4990   -0.4312   27.2476 H   0  0  0  0  0  0  0  0  0  0  0  0
    6.0575   -0.3395   26.2135 H   0  0  0  0  0  0  0  0  0  0  0  0
    9.2327   -0.2676   25.5265 C   0  0  0  0  0  0  0  0  0  0  0  0
    9.6460   -0.2283   26.6764 O   0  0  0  0  0  0  0  0  0  0  0  0
   10.1480   -0.1140   24.3578 C   0  0  0  0  0  0  0  0  0  0  0  0
   11.4960    0.0737   24.6519 C   0  0  0  0  0  0  0  0  0  0  0  0
   12.4221    0.2229   23.6470 C   0  0  0  0  0  0  0  0  0  0  0  0
   11.9783    0.2140   22.3290 C   0  0  0  0  0  0  0  0  0  0  0  0
   13.2111    0.5097   21.1339 Cl  0  0  0  0  0  0  0  0  0  0  0  0
   10.6405    0.0105   22.0084 C   0  0  0  0  0  0  0  0  0  0  0  0
    9.6933   -0.1718   23.0337 C   0  0  0  0  0  0  0  0  0  0  0  0
   10.3231   -0.0023   20.9715 H   0  0  0  0  0  0  0  0  0  0  0  0
   13.4826    0.3355   23.8509 H   0  0  0  0  0  0  0  0  0  0  0  0
   11.7980    0.0994   25.6881 H   0  0  0  0  0  0  0  0  0  0  0  0
    6.3567   -0.4653   23.8522 H   0  0  0  0  0  0  0  0  0  0  0  0
    7.2897    1.0400   23.9090 H   0  0  0  0  0  0  0  0  0  0  0  0
    6.9794   -2.5824   20.4171 H   0  0  0  0  0  0  0  0  0  0  0  0
    5.8774   -2.2312   21.7486 H   0  0  0  0  0  0  0  0  0  0  0  0
    8.9025   -2.2903   21.7399 H   0  0  0  0  0  0  0  0  0  0  0  0
    6.8704   -2.6742   23.9718 H   0  0  0  0  0  0  0  0  0  0  0  0
    8.5969   -3.0590   24.0472 H   0  0  0  0  0  0  0  0  0  0  0  0
    7.3146   -5.2218   24.6057 H   0  0  0  0  0  0  0  0  0  0  0  0
    5.7902   -4.6159   23.9207 H   0  0  0  0  0  0  0  0  0  0  0  0
    6.5910   -6.0336   23.1852 H   0  0  0  0  0  0  0  0  0  0  0  0
  1  2  1  0
  2  3  1  0
  3  4  1  0
  4  5  1  0
  5  6  1  0
  6  7  1  0
  7  8  2  0
  8  9  1  0
  9 10  2  0
 10 11  1  0
 11 12  2  0
 12 13  1  0
 13 14  2  0
 14 15  1  0
 15 16  2  0
 15 17  1  0
 14 18  1  0
 13 19  1  0
 12 20  1  0
 10 21  1  0
  8 22  1  0
  6 23  1  0
 23 24  2  0
 23 25  1  0
 25 26  1  1
 26 27  1  0
 27 28  1  0
 28 29  1  0
 29 30  2  0
 30 31  1  0
 31 32  2  0
 32 33  1  0
 33 34  1  0
 32 35  1  0
 31 36  1  0
 28 37  1  0
 28 38  1  0
 27 39  1  0
 39 40  2  0
 39 41  1  0
 41 42  2  0
 42 43  1  0
 43 44  2  0
 44 45  1  0
 44 46  1  0
 46 47  2  0
 46 48  1  0
 43 49  1  0
 42 50  1  0
 26 51  1  0
 26 52  1  0
  5 53  1  0
  5 54  1  0
  4 55  1  6
  3 56  1  0
  3 57  1  0
  1 58  1  0
  1 59  1  0
  1 60  1  0
 25  4  1  0
 33 29  1  0
 47 41  1  0
 16  7  1  0
 47 25  1  0
 16 11  1  0
M  END
>  <cnnaffinities>  (44) 
[6.52392, 6.57996]

>  <score>  (44) 
6.52392

>  <index>  (44) 
59

>  <Smiles>  (44) 
C(OC([C@]1(C(N(c2c(nc(c3c(c(c(c(c23)[H])[H])[H])[H])[H])[H])C(=O)[C@]21C(N(C(c1nc(c(n1[H])[H])[H])([H])[H])C(=O)c1c(c(c(Cl)c(c21)[H])[H])[H])([H])[H])([H])[H])[H])([H])[H])([H])([H])[H]

>  <h>  (44) 
<NA>

>  <Training>  (44) 
True

>  <Success>  (44) 
True

>  <enamine_searched>  (44) 
False

>  <enamine_id>  (44) 
nan

$$$$

     RDKit          3D

 38 41  0  0  0  0  0  0  0  0999 V2000
    5.0264   -1.0613   23.4840 O   0  0  0  0  0  0  0  0  0  0  0  0
    5.8737   -1.4105   22.6724 C   0  0  0  0  0  0  0  0  0  0  0  0
    6.3265   -0.4667   21.5510 C   0  0  0  0  0  0  0  0  0  0  0  0
    5.4617   -0.3028   20.3028 C   0  0  0  0  0  0  0  0  0  0  0  0
    6.0415   -0.5615   19.0796 C   0  0  0  0  0  0  0  0  0  0  0  0
    5.5162   -0.2567   17.8668 N   0  0  0  0  0  0  0  0  0  0  0  0
    4.3523    0.3383   17.8696 C   0  0  0  0  0  0  0  0  0  0  0  0
    3.6168    0.6363   19.0369 C   0  0  0  0  0  0  0  0  0  0  0  0
    2.4098    1.3682   18.9402 C   0  0  0  0  0  0  0  0  0  0  0  0
    1.6834    1.6396   20.0616 C   0  0  0  0  0  0  0  0  0  0  0  0
    2.1532    1.2041   21.3173 C   0  0  0  0  0  0  0  0  0  0  0  0
    3.3488    0.5403   21.4527 C   0  0  0  0  0  0  0  0  0  0  0  0
    4.1439    0.2606   20.2996 C   0  0  0  0  0  0  0  0  0  0  0  0
    3.6859    0.2246   22.4361 H   0  0  0  0  0  0  0  0  0  0  0  0
    1.5564    1.4198   22.1972 H   0  0  0  0  0  0  0  0  0  0  0  0
    0.7497    2.1860   19.9944 H   0  0  0  0  0  0  0  0  0  0  0  0
    2.1103    1.7288   17.9624 H   0  0  0  0  0  0  0  0  0  0  0  0
    3.9166    0.5959   16.9037 H   0  0  0  0  0  0  0  0  0  0  0  0
    7.0086   -1.0643   19.0195 H   0  0  0  0  0  0  0  0  0  0  0  0
    6.4580    0.4970   22.0627 H   0  0  0  0  0  0  0  0  0  0  0  0
    7.3107   -0.7617   21.1786 H   0  0  0  0  0  0  0  0  0  0  0  0
    6.4589   -2.6402   22.7779 N   0  0  0  0  0  0  0  0  0  0  0  0
    7.7195   -3.0603   22.1961 C   0  0  0  0  0  0  0  0  0  0  0  0
    7.4281   -4.1748   21.2195 C   0  0  0  0  0  0  0  0  0  0  0  0
    6.5552   -5.1645   21.8902 C   0  0  0  0  0  0  0  0  0  0  0  0
    6.4841   -6.7832   21.3348 S   0  0  0  0  0  0  0  0  0  0  0  0
    5.7159   -7.2590   22.7835 C   0  0  0  0  0  0  0  0  0  0  0  0
    5.4008   -6.2119   23.5930 C   0  0  0  0  0  0  0  0  0  0  0  0
    5.8888   -4.9852   23.0571 C   0  0  0  0  0  0  0  0  0  0  0  0
    5.8624   -3.6208   23.6822 C   0  0  0  0  0  0  0  0  0  0  0  0
    6.4242   -3.6635   24.6234 H   0  0  0  0  0  0  0  0  0  0  0  0
    4.8565   -3.2841   23.9388 H   0  0  0  0  0  0  0  0  0  0  0  0
    4.8822   -6.3079   24.5397 H   0  0  0  0  0  0  0  0  0  0  0  0
    5.6894   -8.3030   22.9931 H   0  0  0  0  0  0  0  0  0  0  0  0
    8.3574   -4.6568   20.9034 H   0  0  0  0  0  0  0  0  0  0  0  0
    6.8835   -3.7742   20.3556 H   0  0  0  0  0  0  0  0  0  0  0  0
    8.3719   -3.4322   22.9961 H   0  0  0  0  0  0  0  0  0  0  0  0
    8.2539   -2.2311   21.7344 H   0  0  0  0  0  0  0  0  0  0  0  0
  1  2  2  0
  2  3  1  0
  3  4  1  0
  4  5  2  0
  5  6  1  0
  6  7  2  0
  7  8  1  0
  8  9  2  0
  9 10  1  0
 10 11  2  0
 11 12  1  0
 12 13  2  0
 12 14  1  0
 11 15  1  0
 10 16  1  0
  9 17  1  0
  7 18  1  0
  5 19  1  0
  3 20  1  0
  3 21  1  0
  2 22  1  0
 22 23  1  0
 23 24  1  0
 24 25  1  0
 25 26  1  0
 26 27  1  0
 27 28  2  0
 28 29  1  0
 29 30  1  0
 30 31  1  0
 30 32  1  0
 28 33  1  0
 27 34  1  0
 24 35  1  0
 24 36  1  0
 23 37  1  0
 23 38  1  0
 13  4  1  0
 30 22  1  0
 13  8  1  0
 29 25  2  0
M  END
>  <cnnaffinities>  (45) 
[5.28951]

>  <score>  (45) 
5.28951

>  <index>  (45) 
60

>  <Smiles>  (45) 
O=C(C(c1c(nc(c2c(c(c(c(c12)[H])[H])[H])[H])[H])[H])([H])[H])N1C(C(c2sc(c(c2C1([H])[H])[H])[H])([H])[H])([H])[H]

>  <h>  (45) 
<NA>

>  <Training>  (45) 
True

>  <Success>  (45) 
True

>  <enamine_searched>  (45) 
False

>  <enamine_id>  (45) 
nan

$$$$

     RDKit          3D

 64 70  0  0  0  0  0  0  0  0999 V2000
   10.4704    2.5004   24.6857 O   0  0  0  0  0  0  0  0  0  0  0  0
    9.8807    1.5779   24.1400 C   0  0  0  0  0  0  0  0  0  0  0  0
   10.5445    0.6469   23.1681 C   0  0  0  0  0  0  0  0  0  0  0  0
   11.9235    0.7691   22.9886 C   0  0  0  0  0  0  0  0  0  0  0  0
   12.5942   -0.0428   22.0936 C   0  0  0  0  0  0  0  0  0  0  0  0
   11.8539   -0.9619   21.3546 C   0  0  0  0  0  0  0  0  0  0  0  0
   12.6730   -1.9524   20.1747 Cl  0  0  0  0  0  0  0  0  0  0  0  0
   10.4855   -1.0924   21.5136 C   0  0  0  0  0  0  0  0  0  0  0  0
    9.8032   -0.3142   22.4581 C   0  0  0  0  0  0  0  0  0  0  0  0
    8.3046   -0.5191   22.6944 C   0  0  1  0  0  0  0  0  0  0  0  0
    8.0451   -0.0322   24.1401 C   0  0  0  0  0  0  0  0  0  0  0  0
    8.5607    1.3036   24.3583 N   0  0  0  0  0  0  0  0  0  0  0  0
    7.6733    2.2873   24.9520 C   0  0  0  0  0  0  0  0  0  0  0  0
    7.1988    1.9224   26.3416 C   0  0  0  0  0  0  0  0  0  0  0  0
    5.9387    1.4532   26.6239 C   0  0  0  0  0  0  0  0  0  0  0  0
    5.6174    1.2393   27.9640 C   0  0  0  0  0  0  0  0  0  0  0  0
    6.4873    1.3830   28.9609 N   0  0  0  0  0  0  0  0  0  0  0  0
    7.7138    1.7800   28.6869 N   0  0  0  0  0  0  0  0  0  0  0  0
    8.0548    2.0557   27.4363 C   0  0  0  0  0  0  0  0  0  0  0  0
    9.0677    2.4083   27.3009 H   0  0  0  0  0  0  0  0  0  0  0  0
    4.6206    0.9543   28.2874 H   0  0  0  0  0  0  0  0  0  0  0  0
    5.2324    1.2314   25.8233 H   0  0  0  0  0  0  0  0  0  0  0  0
    6.8000    2.4013   24.2932 H   0  0  0  0  0  0  0  0  0  0  0  0
    8.2244    3.2305   24.9770 H   0  0  0  0  0  0  0  0  0  0  0  0
    8.5238   -0.7333   24.8415 H   0  0  0  0  0  0  0  0  0  0  0  0
    6.9820   -0.0128   24.3614 H   0  0  0  0  0  0  0  0  0  0  0  0
    7.4331    0.2993   21.7036 C   0  0  0  0  0  0  0  0  0  0  0  0
    7.4236    1.5032   21.5909 O   0  0  0  0  0  0  0  0  0  0  0  0
    6.6370   -0.5752   20.9811 N   0  0  0  0  0  0  0  0  0  0  0  0
    5.8457   -0.1401   19.8810 C   0  0  0  0  0  0  0  0  0  0  0  0
    6.3325   -0.2202   18.5973 C   0  0  0  0  0  0  0  0  0  0  0  0
    5.6237    0.1066   17.4910 N   0  0  0  0  0  0  0  0  0  0  0  0
    4.4036    0.5515   17.6675 C   0  0  0  0  0  0  0  0  0  0  0  0
    3.7868    0.7206   18.9368 C   0  0  0  0  0  0  0  0  0  0  0  0
    2.4943    1.2982   19.0616 C   0  0  0  0  0  0  0  0  0  0  0  0
    1.9061    1.4381   20.2879 C   0  0  0  0  0  0  0  0  0  0  0  0
    2.6165    1.0662   21.4529 C   0  0  0  0  0  0  0  0  0  0  0  0
    3.8812    0.5263   21.3636 C   0  0  0  0  0  0  0  0  0  0  0  0
    4.5101    0.3376   20.0934 C   0  0  0  0  0  0  0  0  0  0  0  0
    4.3921    0.2730   22.2873 H   0  0  0  0  0  0  0  0  0  0  0  0
    2.1700    1.2380   22.4313 H   0  0  0  0  0  0  0  0  0  0  0  0
    0.9185    1.8830   20.3821 H   0  0  0  0  0  0  0  0  0  0  0  0
    2.0171    1.6792   18.1671 H   0  0  0  0  0  0  0  0  0  0  0  0
    3.8461    0.7881   16.7644 H   0  0  0  0  0  0  0  0  0  0  0  0
    7.3342   -0.6071   18.4106 H   0  0  0  0  0  0  0  0  0  0  0  0
    7.1330   -1.9318   21.0655 C   0  0  0  0  0  0  0  0  0  0  0  0
    7.8366   -1.9857   22.4326 C   0  0  2  0  0  0  0  0  0  0  0  0
    6.9163   -2.6071   23.4962 C   0  0  0  0  0  0  0  0  0  0  0  0
    5.6694   -1.8805   23.6292 N   0  0  0  0  0  0  0  0  0  0  0  0
    4.9805   -1.7429   24.7863 C   0  0  0  0  0  0  0  0  0  0  0  0
    3.8663   -1.0704   24.9128 N   0  0  0  0  0  0  0  0  0  0  0  0
    3.3321   -1.1913   26.1657 N   0  0  0  0  0  0  0  0  0  0  0  0
    4.0599   -1.8946   26.9636 C   0  0  0  0  0  0  0  0  0  0  0  0
    5.5353   -2.4915   26.2628 S   0  0  0  0  0  0  0  0  0  0  0  0
    3.7971   -2.0777   27.9978 H   0  0  0  0  0  0  0  0  0  0  0  0
    5.1840   -1.5866   22.7966 H   0  0  0  0  0  0  0  0  0  0  0  0
    6.7137   -3.6565   23.2390 H   0  0  0  0  0  0  0  0  0  0  0  0
    7.4281   -2.6067   24.4635 H   0  0  0  0  0  0  0  0  0  0  0  0
    8.7091   -2.6486   22.4029 H   0  0  0  0  0  0  0  0  0  0  0  0
    6.3099   -2.6468   20.9825 H   0  0  0  0  0  0  0  0  0  0  0  0
    7.8393   -2.1482   20.2534 H   0  0  0  0  0  0  0  0  0  0  0  0
    9.9695   -1.8293   20.9085 H   0  0  0  0  0  0  0  0  0  0  0  0
   13.6690    0.0186   21.9554 H   0  0  0  0  0  0  0  0  0  0  0  0
   12.4567    1.5189   23.5631 H   0  0  0  0  0  0  0  0  0  0  0  0
  1  2  2  0
  2  3  1  0
  3  4  2  0
  4  5  1  0
  5  6  2  0
  6  7  1  0
  6  8  1  0
  8  9  2  0
  9 10  1  0
 10 11  1  1
 11 12  1  0
 12 13  1  0
 13 14  1  0
 14 15  2  0
 15 16  1  0
 16 17  2  0
 17 18  1  0
 18 19  2  0
 19 20  1  0
 16 21  1  0
 15 22  1  0
 13 23  1  0
 13 24  1  0
 11 25  1  0
 11 26  1  0
 10 27  1  0
 27 28  2  0
 27 29  1  0
 29 30  1  0
 30 31  2  0
 31 32  1  0
 32 33  2  0
 33 34  1  0
 34 35  2  0
 35 36  1  0
 36 37  2  0
 37 38  1  0
 38 39  2  0
 38 40  1  0
 37 41  1  0
 36 42  1  0
 35 43  1  0
 33 44  1  0
 31 45  1  0
 29 46  1  0
 46 47  1  0
 47 48  1  0
 48 49  1  0
 49 50  1  0
 50 51  2  0
 51 52  1  0
 52 53  2  0
 53 54  1  0
 53 55  1  0
 49 56  1  0
 48 57  1  0
 48 58  1  0
 47 59  1  6
 46 60  1  0
 46 61  1  0
  8 62  1  0
  5 63  1  0
  4 64  1  0
 12  2  1  0
 19 14  1  0
 39 30  1  0
 54 50  1  0
  9  3  1  0
 47 10  1  0
 39 34  1  0
M  END
>  <cnnaffinities>  (46) 
[6.26896]

>  <score>  (46) 
6.26896

>  <index>  (46) 
61

>  <Smiles>  (46) 
O=C1c2c(c(c(Cl)c(c2[C@@]2(C(N1C(c1c(c(nnc1[H])[H])[H])([H])[H])([H])[H])C(=O)N(c1c(nc(c3c(c(c(c(c13)[H])[H])[H])[H])[H])[H])C([C@@]2(C(N(c1nnc(s1)[H])[H])([H])[H])[H])([H])[H])[H])[H])[H]

>  <h>  (46) 
<NA>

>  <Training>  (46) 
True

>  <Success>  (46) 
True

>  <enamine_searched>  (46) 
False

>  <enamine_id>  (46) 
nan

$$$$

     RDKit          3D

 70 76  0  0  0  0  0  0  0  0999 V2000
    7.8824   -3.0890   23.2839 C   0  0  0  0  0  0  0  0  0  0  0  0
    8.0213   -1.9951   22.2260 C   0  0  1  0  0  0  0  0  0  0  0  0
    6.8156   -1.9490   21.2663 C   0  0  0  0  0  0  0  0  0  0  0  0
    6.7577   -0.5587   20.8531 N   0  0  0  0  0  0  0  0  0  0  0  0
    5.9047   -0.1151   19.8010 C   0  0  0  0  0  0  0  0  0  0  0  0
    6.3579   -0.1788   18.5101 C   0  0  0  0  0  0  0  0  0  0  0  0
    5.6246    0.1222   17.4083 N   0  0  0  0  0  0  0  0  0  0  0  0
    4.4009    0.5436   17.6103 C   0  0  0  0  0  0  0  0  0  0  0  0
    3.8086    0.7083   18.8919 C   0  0  0  0  0  0  0  0  0  0  0  0
    2.5121    1.2797   19.0563 C   0  0  0  0  0  0  0  0  0  0  0  0
    1.9400    1.3775   20.2952 C   0  0  0  0  0  0  0  0  0  0  0  0
    2.6604    0.9516   21.4298 C   0  0  0  0  0  0  0  0  0  0  0  0
    3.9390    0.4493   21.3077 C   0  0  0  0  0  0  0  0  0  0  0  0
    4.5550    0.3238   20.0323 C   0  0  0  0  0  0  0  0  0  0  0  0
    4.4876    0.1568   22.1934 H   0  0  0  0  0  0  0  0  0  0  0  0
    2.2117    1.0584   22.4107 H   0  0  0  0  0  0  0  0  0  0  0  0
    0.9321    1.7803   20.4221 H   0  0  0  0  0  0  0  0  0  0  0  0
    2.0099    1.6895   18.1876 H   0  0  0  0  0  0  0  0  0  0  0  0
    3.8026    0.7464   16.7224 H   0  0  0  0  0  0  0  0  0  0  0  0
    7.3569   -0.5605   18.3103 H   0  0  0  0  0  0  0  0  0  0  0  0
    7.6385    0.2717   21.5227 C   0  0  0  0  0  0  0  0  0  0  0  0
    7.8517    1.4327   21.2318 O   0  0  0  0  0  0  0  0  0  0  0  0
    8.2183   -0.5147   22.7269 C   0  0  1  0  0  0  0  0  0  0  0  0
    7.3321   -0.1191   23.9396 C   0  0  0  0  0  0  0  0  0  0  0  0
    7.8901   -0.5026   25.2313 N   0  0  0  0  0  0  0  0  0  0  0  0
    7.1010   -1.0362   26.3324 C   0  0  0  0  0  0  0  0  0  0  0  0
    5.6101   -0.8717   26.0992 C   0  0  0  0  0  0  0  0  0  0  0  0
    4.7487   -1.2289   27.2873 N   0  0  2  0  0  4  0  0  0  0  0  0
    5.0562   -0.4404   28.5417 C   0  0  0  0  0  0  0  0  0  0  0  0
    5.8997   -1.3568   29.4379 C   0  0  0  0  0  0  0  0  0  0  0  0
    5.6079   -2.7897   28.9816 C   0  0  0  0  0  0  0  0  0  0  0  0
    6.7448   -3.8256   28.9159 C   0  0  0  0  0  0  0  0  0  0  0  0
    5.9120   -4.8266   29.5163 O   0  0  0  0  0  0  0  0  0  0  0  0
    5.0251   -3.8023   29.9819 C   0  0  0  0  0  0  0  0  0  0  0  0
    3.9704   -4.0881   29.8835 H   0  0  0  0  0  0  0  0  0  0  0  0
    5.2469   -3.5195   31.0237 H   0  0  0  0  0  0  0  0  0  0  0  0
    7.5989   -3.5658   29.5571 H   0  0  0  0  0  0  0  0  0  0  0  0
    7.1020   -4.1301   27.9236 H   0  0  0  0  0  0  0  0  0  0  0  0
    4.8062   -2.6843   27.6798 C   0  0  0  0  0  0  0  0  0  0  0  0
    5.2538   -3.2522   26.8627 H   0  0  0  0  0  0  0  0  0  0  0  0
    3.7802   -3.0359   27.8040 H   0  0  0  0  0  0  0  0  0  0  0  0
    5.6554   -1.2015   30.4938 H   0  0  0  0  0  0  0  0  0  0  0  0
    6.9682   -1.1346   29.3208 H   0  0  0  0  0  0  0  0  0  0  0  0
    4.1016   -0.1854   29.0036 H   0  0  0  0  0  0  0  0  0  0  0  0
    5.5652    0.4833   28.2590 H   0  0  0  0  0  0  0  0  0  0  0  0
    3.7934   -1.0061   26.9839 H   0  0  0  0  0  0  0  0  0  0  0  0
    5.3921    0.1684   25.8370 H   0  0  0  0  0  0  0  0  0  0  0  0
    5.2862   -1.5153   25.2714 H   0  0  0  0  0  0  0  0  0  0  0  0
    7.4329   -0.5065   27.2277 H   0  0  0  0  0  0  0  0  0  0  0  0
    7.3636   -2.0907   26.5023 H   0  0  0  0  0  0  0  0  0  0  0  0
    9.1907   -0.2329   25.5344 C   0  0  0  0  0  0  0  0  0  0  0  0
    9.5969   -0.1448   26.6870 O   0  0  0  0  0  0  0  0  0  0  0  0
   10.1136   -0.0910   24.3714 C   0  0  0  0  0  0  0  0  0  0  0  0
   11.4593    0.0932   24.6730 C   0  0  0  0  0  0  0  0  0  0  0  0
   12.3914    0.2287   23.6710 C   0  0  0  0  0  0  0  0  0  0  0  0
   11.9521    0.2342   22.3507 C   0  0  0  0  0  0  0  0  0  0  0  0
   13.1867    0.5431   21.1600 Cl  0  0  0  0  0  0  0  0  0  0  0  0
   10.6175    0.0203   22.0243 C   0  0  0  0  0  0  0  0  0  0  0  0
    9.6674   -0.1694   23.0452 C   0  0  0  0  0  0  0  0  0  0  0  0
   10.3083    0.0070   20.9847 H   0  0  0  0  0  0  0  0  0  0  0  0
   13.4504    0.3296   23.8876 H   0  0  0  0  0  0  0  0  0  0  0  0
   11.7499    0.1179   25.7131 H   0  0  0  0  0  0  0  0  0  0  0  0
    6.3541   -0.5869   23.8108 H   0  0  0  0  0  0  0  0  0  0  0  0
    7.1878    0.9705   23.8921 H   0  0  0  0  0  0  0  0  0  0  0  0
    5.8826   -2.2577   21.7692 H   0  0  0  0  0  0  0  0  0  0  0  0
    6.9491   -2.6041   20.3933 H   0  0  0  0  0  0  0  0  0  0  0  0
    8.9191   -2.2069   21.6286 H   0  0  0  0  0  0  0  0  0  0  0  0
    8.7482   -3.1222   23.9498 H   0  0  0  0  0  0  0  0  0  0  0  0
    7.7793   -4.0748   22.8164 H   0  0  0  0  0  0  0  0  0  0  0  0
    6.9921   -2.9337   23.9023 H   0  0  0  0  0  0  0  0  0  0  0  0
  1  2  1  0
  2  3  1  0
  3  4  1  0
  4  5  1  0
  5  6  2  0
  6  7  1  0
  7  8  2  0
  8  9  1  0
  9 10  2  0
 10 11  1  0
 11 12  2  0
 12 13  1  0
 13 14  2  0
 13 15  1  0
 12 16  1  0
 11 17  1  0
 10 18  1  0
  8 19  1  0
  6 20  1  0
  4 21  1  0
 21 22  2  0
 21 23  1  0
 23 24  1  1
 24 25  1  0
 25 26  1  0
 26 27  1  0
 27 28  1  0
 28 29  1  0
 29 30  1  0
 30 31  1  0
 31 32  1  0
 32 33  1  0
 33 34  1  0
 34 35  1  0
 34 36  1  0
 32 37  1  0
 32 38  1  0
 31 39  1  0
 39 40  1  0
 39 41  1  0
 30 42  1  0
 30 43  1  0
 29 44  1  0
 29 45  1  0
 28 46  1  6
 27 47  1  0
 27 48  1  0
 26 49  1  0
 26 50  1  0
 25 51  1  0
 51 52  2  0
 51 53  1  0
 53 54  2  0
 54 55  1  0
 55 56  2  0
 56 57  1  0
 56 58  1  0
 58 59  2  0
 58 60  1  0
 55 61  1  0
 54 62  1  0
 24 63  1  0
 24 64  1  0
  3 65  1  0
  3 66  1  0
  2 67  1  6
  1 68  1  0
  1 69  1  0
  1 70  1  0
 23  2  1  0
 39 28  1  0
 59 53  1  0
 14  5  1  0
 59 23  1  0
 14  9  1  0
 34 31  1  0
M  CHG  1  28   1
M  END
>  <cnnaffinities>  (47) 
[6.53001]

>  <score>  (47) 
6.53001

>  <index>  (47) 
62

>  <Smiles>  (47) 
C([C@]1(C(N(c2c(nc(c3c(c(c(c(c23)[H])[H])[H])[H])[H])[H])C(=O)[C@]21C(N(C(C([N@@+]1(C(C(C3(C(OC3([H])[H])([H])[H])C1([H])[H])([H])[H])([H])[H])[H])([H])[H])([H])[H])C(=O)c1c(c(c(Cl)c(c21)[H])[H])[H])([H])[H])([H])[H])[H])([H])([H])[H]

>  <h>  (47) 
<NA>

>  <Training>  (47) 
True

>  <Success>  (47) 
True

>  <enamine_searched>  (47) 
False

>  <enamine_id>  (47) 
nan

$$$$

     RDKit          3D

 56 61  0  0  0  0  0  0  0  0999 V2000
    5.3835    5.1239   22.1301 C   0  0  0  0  0  0  0  0  0  0  0  0
    6.5528    4.8579   22.9474 N   0  0  0  0  0  0  0  0  0  0  0  0
    7.8175    5.3302   22.8247 C   0  0  0  0  0  0  0  0  0  0  0  0
    8.6108    4.5673   23.6541 C   0  0  0  0  0  0  0  0  0  0  0  0
    7.7231    3.6311   24.2378 C   0  0  0  0  0  0  0  0  0  0  0  0
    7.9727    2.4377   25.1258 C   0  0  0  0  0  0  0  0  0  0  0  0
    8.6446    1.3444   24.4178 N   0  0  0  0  0  0  0  0  0  0  0  0
    7.9660    0.1074   24.0660 C   0  0  0  0  0  0  0  0  0  0  0  0
    8.3214   -0.4315   22.6533 C   0  0  1  0  0  0  0  0  0  0  0  0
    7.7218   -1.8593   22.5229 C   0  0  0  0  0  0  0  0  0  0  0  0
    6.9468   -1.9234   21.2045 C   0  0  0  0  0  0  0  0  0  0  0  0
    6.6457   -0.5277   20.9651 N   0  0  0  0  0  0  0  0  0  0  0  0
    5.8428   -0.1422   19.8585 C   0  0  0  0  0  0  0  0  0  0  0  0
    6.3215   -0.2133   18.5744 C   0  0  0  0  0  0  0  0  0  0  0  0
    5.6394    0.1565   17.4604 N   0  0  0  0  0  0  0  0  0  0  0  0
    4.4273    0.6259   17.6411 C   0  0  0  0  0  0  0  0  0  0  0  0
    3.7937    0.7269   18.9105 C   0  0  0  0  0  0  0  0  0  0  0  0
    2.5121    1.3145   19.0596 C   0  0  0  0  0  0  0  0  0  0  0  0
    1.9888    1.5627   20.2991 C   0  0  0  0  0  0  0  0  0  0  0  0
    2.7013    1.1818   21.4589 C   0  0  0  0  0  0  0  0  0  0  0  0
    3.9183    0.5467   21.3462 C   0  0  0  0  0  0  0  0  0  0  0  0
    4.5146    0.3404   20.0685 C   0  0  0  0  0  0  0  0  0  0  0  0
    4.4483    0.2055   22.2301 H   0  0  0  0  0  0  0  0  0  0  0  0
    2.3004    1.4262   22.4398 H   0  0  0  0  0  0  0  0  0  0  0  0
    1.0297    2.0612   20.4019 H   0  0  0  0  0  0  0  0  0  0  0  0
    1.9983    1.6260   18.1611 H   0  0  0  0  0  0  0  0  0  0  0  0
    3.8942    0.9952   16.7619 H   0  0  0  0  0  0  0  0  0  0  0  0
    7.3283   -0.5763   18.3890 H   0  0  0  0  0  0  0  0  0  0  0  0
    7.5873    0.3308   21.5174 C   0  0  0  0  0  0  0  0  0  0  0  0
    7.7897    1.4676   21.1540 O   0  0  0  0  0  0  0  0  0  0  0  0
    6.0225   -2.5106   21.2835 H   0  0  0  0  0  0  0  0  0  0  0  0
    7.5423   -2.3430   20.3805 H   0  0  0  0  0  0  0  0  0  0  0  0
    8.4787   -2.6405   22.6004 H   0  0  0  0  0  0  0  0  0  0  0  0
    7.0135   -2.0248   23.3410 H   0  0  0  0  0  0  0  0  0  0  0  0
    9.8331   -0.3553   22.5047 C   0  0  0  0  0  0  0  0  0  0  0  0
   10.4907   -1.1603   21.5681 C   0  0  0  0  0  0  0  0  0  0  0  0
   11.8639   -1.0717   21.4064 C   0  0  0  0  0  0  0  0  0  0  0  0
   12.6385   -2.0607   20.1977 Cl  0  0  0  0  0  0  0  0  0  0  0  0
   12.6334   -0.1918   22.1672 C   0  0  0  0  0  0  0  0  0  0  0  0
   11.9953    0.5971   23.1024 C   0  0  0  0  0  0  0  0  0  0  0  0
   10.6120    0.5282   23.2662 C   0  0  0  0  0  0  0  0  0  0  0  0
    9.9979    1.4658   24.2519 C   0  0  0  0  0  0  0  0  0  0  0  0
   10.6570    2.3101   24.8491 O   0  0  0  0  0  0  0  0  0  0  0  0
   12.5533    1.2928   23.7205 H   0  0  0  0  0  0  0  0  0  0  0  0
   13.7073   -0.1326   22.0203 H   0  0  0  0  0  0  0  0  0  0  0  0
    9.9439   -1.8701   20.9562 H   0  0  0  0  0  0  0  0  0  0  0  0
    8.2543   -0.6850   24.7727 H   0  0  0  0  0  0  0  0  0  0  0  0
    6.8861    0.2620   24.1396 H   0  0  0  0  0  0  0  0  0  0  0  0
    6.9991    2.0853   25.4793 H   0  0  0  0  0  0  0  0  0  0  0  0
    8.5855    2.6947   25.9967 H   0  0  0  0  0  0  0  0  0  0  0  0
    6.4844    3.8291   23.8058 N   0  0  0  0  0  0  0  0  0  0  0  0
    9.6831    4.6322   23.7823 H   0  0  0  0  0  0  0  0  0  0  0  0
    8.0601    6.1687   22.1771 H   0  0  0  0  0  0  0  0  0  0  0  0
    4.5573    5.4936   22.7404 H   0  0  0  0  0  0  0  0  0  0  0  0
    5.6387    5.8668   21.3766 H   0  0  0  0  0  0  0  0  0  0  0  0
    5.0804    4.1870   21.6537 H   0  0  0  0  0  0  0  0  0  0  0  0
  1  2  1  0
  2  3  1  0
  3  4  2  0
  4  5  1  0
  5  6  1  0
  6  7  1  0
  7  8  1  0
  9  8  1  1
  9 10  1  0
 10 11  1  0
 11 12  1  0
 12 13  1  0
 13 14  2  0
 14 15  1  0
 15 16  2  0
 16 17  1  0
 17 18  2  0
 18 19  1  0
 19 20  2  0
 20 21  1  0
 21 22  2  0
 21 23  1  0
 20 24  1  0
 19 25  1  0
 18 26  1  0
 16 27  1  0
 14 28  1  0
 12 29  1  0
 29 30  2  0
 11 31  1  0
 11 32  1  0
 10 33  1  0
 10 34  1  0
  9 35  1  0
 35 36  2  0
 36 37  1  0
 37 38  1  0
 37 39  2  0
 39 40  1  0
 40 41  2  0
 41 42  1  0
 42 43  2  0
 40 44  1  0
 39 45  1  0
 36 46  1  0
  8 47  1  0
  8 48  1  0
  6 49  1  0
  6 50  1  0
  5 51  2  0
  4 52  1  0
  3 53  1  0
  1 54  1  0
  1 55  1  0
  1 56  1  0
 51  2  1  0
 42  7  1  0
 29  9  1  0
 41 35  1  0
 22 13  1  0
 22 17  1  0
M  END
>  <cnnaffinities>  (48) 
[6.60013]

>  <score>  (48) 
6.60013

>  <index>  (48) 
63

>  <Smiles>  (48) 
C(n1c(c(c(C(N2C([C@]3(C(C(N(c4c(nc(c5c(c(c(c(c45)[H])[H])[H])[H])[H])[H])C3=O)([H])[H])([H])[H])c3c(c(Cl)c(c(c3C2=O)[H])[H])[H])([H])[H])([H])[H])n1)[H])[H])([H])([H])[H]

>  <h>  (48) 
<NA>

>  <Training>  (48) 
True

>  <Success>  (48) 
True

>  <enamine_searched>  (48) 
False

>  <enamine_id>  (48) 
nan

$$$$

     RDKit          3D

 66 71  0  0  0  0  0  0  0  0999 V2000
    7.9096   -3.1049   23.2757 C   0  0  0  0  0  0  0  0  0  0  0  0
    8.0422   -2.0063   22.2243 C   0  0  1  0  0  0  0  0  0  0  0  0
    6.8246   -1.9486   21.2837 C   0  0  0  0  0  0  0  0  0  0  0  0
    6.7521   -0.5554   20.8885 N   0  0  0  0  0  0  0  0  0  0  0  0
    5.9148   -0.1005   19.8260 C   0  0  0  0  0  0  0  0  0  0  0  0
    6.3714   -0.1756   18.5355 C   0  0  0  0  0  0  0  0  0  0  0  0
    5.6393    0.1346   17.4344 N   0  0  0  0  0  0  0  0  0  0  0  0
    4.4149    0.5610   17.6287 C   0  0  0  0  0  0  0  0  0  0  0  0
    3.8113    0.7237   18.9056 C   0  0  0  0  0  0  0  0  0  0  0  0
    2.5117    1.2874   19.0588 C   0  0  0  0  0  0  0  0  0  0  0  0
    1.9423    1.4028   20.2969 C   0  0  0  0  0  0  0  0  0  0  0  0
    2.6637    1.0012   21.4475 C   0  0  0  0  0  0  0  0  0  0  0  0
    3.9322    0.4746   21.3270 C   0  0  0  0  0  0  0  0  0  0  0  0
    4.5574    0.3338   20.0505 C   0  0  0  0  0  0  0  0  0  0  0  0
    4.4797    0.1912   22.2214 H   0  0  0  0  0  0  0  0  0  0  0  0
    2.2149    1.1467   22.4306 H   0  0  0  0  0  0  0  0  0  0  0  0
    0.9492    1.8351   20.4091 H   0  0  0  0  0  0  0  0  0  0  0  0
    2.0095    1.6614   18.1716 H   0  0  0  0  0  0  0  0  0  0  0  0
    3.8332    0.7814   16.7358 H   0  0  0  0  0  0  0  0  0  0  0  0
    7.3635   -0.5831   18.3447 H   0  0  0  0  0  0  0  0  0  0  0  0
    7.6269    0.2660   21.5730 C   0  0  0  0  0  0  0  0  0  0  0  0
    7.8184    1.4353   21.3105 O   0  0  0  0  0  0  0  0  0  0  0  0
    8.2322   -0.5380   22.7504 C   0  0  1  0  0  0  0  0  0  0  0  0
    7.3638   -0.1774   23.9914 C   0  0  0  0  0  0  0  0  0  0  0  0
    7.9396   -0.5865   25.2757 N   0  0  0  0  0  0  0  0  0  0  0  0
    7.0237   -0.6274   26.4192 C   0  0  0  0  0  0  0  0  0  0  0  0
    6.3818   -1.9980   26.5941 C   0  0  0  0  0  0  0  0  0  0  0  0
    7.4122   -3.0591   26.8948 N   0  0  0  0  0  4  0  0  0  0  0  0
    7.8731   -3.0500   28.3317 C   0  0  0  0  0  0  0  0  0  0  0  0
    6.6753   -3.2998   29.2667 C   0  0  0  0  0  0  0  0  0  0  0  0
    5.6529   -4.0431   28.6192 O   0  0  0  0  0  0  0  0  0  0  0  0
    6.2065   -5.0596   27.8075 C   0  0  0  0  0  0  0  0  0  0  0  0
    6.9513   -4.4597   26.5939 C   0  0  0  0  0  0  0  0  0  0  0  0
    6.3048   -4.4202   25.7138 H   0  0  0  0  0  0  0  0  0  0  0  0
    7.8242   -5.0741   26.3467 H   0  0  0  0  0  0  0  0  0  0  0  0
    6.9000   -5.6758   28.4035 H   0  0  0  0  0  0  0  0  0  0  0  0
    5.3719   -5.6920   27.4940 H   0  0  0  0  0  0  0  0  0  0  0  0
    6.9972   -3.8400   30.1647 H   0  0  0  0  0  0  0  0  0  0  0  0
    6.2159   -2.3581   29.5822 H   0  0  0  0  0  0  0  0  0  0  0  0
    8.3824   -2.1107   28.5538 H   0  0  0  0  0  0  0  0  0  0  0  0
    8.6145   -3.8481   28.4490 H   0  0  0  0  0  0  0  0  0  0  0  0
    8.2215   -2.8387   26.2945 H   0  0  0  0  0  0  0  0  0  0  0  0
    5.6349   -1.9886   27.3862 H   0  0  0  0  0  0  0  0  0  0  0  0
    5.8714   -2.2761   25.6665 H   0  0  0  0  0  0  0  0  0  0  0  0
    6.2387    0.1316   26.3076 H   0  0  0  0  0  0  0  0  0  0  0  0
    7.6173   -0.3789   27.2995 H   0  0  0  0  0  0  0  0  0  0  0  0
    9.2459   -0.2668   25.5509 C   0  0  0  0  0  0  0  0  0  0  0  0
    9.6729   -0.1388   26.6955 O   0  0  0  0  0  0  0  0  0  0  0  0
   10.1521   -0.1309   24.3714 C   0  0  0  0  0  0  0  0  0  0  0  0
   11.5051    0.0474   24.6531 C   0  0  0  0  0  0  0  0  0  0  0  0
   12.4240    0.2001   23.6423 C   0  0  0  0  0  0  0  0  0  0  0  0
   11.9666    0.2330   22.3295 C   0  0  0  0  0  0  0  0  0  0  0  0
   13.1937    0.5582   21.1354 Cl  0  0  0  0  0  0  0  0  0  0  0  0
   10.6268    0.0201   22.0197 C   0  0  0  0  0  0  0  0  0  0  0  0
    9.6870   -0.1918   23.0492 C   0  0  0  0  0  0  0  0  0  0  0  0
   10.3081    0.0241   20.9840 H   0  0  0  0  0  0  0  0  0  0  0  0
   13.4859    0.3021   23.8460 H   0  0  0  0  0  0  0  0  0  0  0  0
   11.8142    0.0735   25.6884 H   0  0  0  0  0  0  0  0  0  0  0  0
    7.2051    0.9137   23.9852 H   0  0  0  0  0  0  0  0  0  0  0  0
    6.3761   -0.6458   23.8936 H   0  0  0  0  0  0  0  0  0  0  0  0
    6.9505   -2.5843   20.4009 H   0  0  0  0  0  0  0  0  0  0  0  0
    5.9056   -2.2767   21.7959 H   0  0  0  0  0  0  0  0  0  0  0  0
    8.9385   -2.2003   21.6177 H   0  0  0  0  0  0  0  0  0  0  0  0
    7.8072   -4.0890   22.8021 H   0  0  0  0  0  0  0  0  0  0  0  0
    8.7657   -3.1290   23.9603 H   0  0  0  0  0  0  0  0  0  0  0  0
    7.0101   -2.9477   23.8831 H   0  0  0  0  0  0  0  0  0  0  0  0
  1  2  1  0
  2  3  1  0
  3  4  1  0
  4  5  1  0
  5  6  2  0
  6  7  1  0
  7  8  2  0
  8  9  1  0
  9 10  2  0
 10 11  1  0
 11 12  2  0
 12 13  1  0
 13 14  2  0
 13 15  1  0
 12 16  1  0
 11 17  1  0
 10 18  1  0
  8 19  1  0
  6 20  1  0
  4 21  1  0
 21 22  2  0
 21 23  1  0
 23 24  1  1
 24 25  1  0
 25 26  1  0
 26 27  1  0
 27 28  1  0
 28 29  1  0
 29 30  1  0
 30 31  1  0
 31 32  1  0
 32 33  1  0
 33 34  1  0
 33 35  1  0
 32 36  1  0
 32 37  1  0
 30 38  1  0
 30 39  1  0
 29 40  1  0
 29 41  1  0
 28 42  1  0
 27 43  1  0
 27 44  1  0
 26 45  1  0
 26 46  1  0
 25 47  1  0
 47 48  2  0
 47 49  1  0
 49 50  2  0
 50 51  1  0
 51 52  2  0
 52 53  1  0
 52 54  1  0
 54 55  2  0
 54 56  1  0
 51 57  1  0
 50 58  1  0
 24 59  1  0
 24 60  1  0
  3 61  1  0
  3 62  1  0
  2 63  1  6
  1 64  1  0
  1 65  1  0
  1 66  1  0
 23  2  1  0
 33 28  1  0
 55 49  1  0
 14  5  1  0
 55 23  1  0
 14  9  1  0
M  CHG  1  28   1
M  END
>  <cnnaffinities>  (49) 
[6.42293, 6.37565]

>  <score>  (49) 
6.42293

>  <index>  (49) 
64

>  <Smiles>  (49) 
C([C@]1(C(N(c2c(nc(c3c(c(c(c(c23)[H])[H])[H])[H])[H])[H])C(=O)[C@]21C(N(C(C([N+]1(C(C(OC(C1([H])[H])([H])[H])([H])[H])([H])[H])[H])([H])[H])([H])[H])C(=O)c1c(c(c(Cl)c(c21)[H])[H])[H])([H])[H])([H])[H])[H])([H])([H])[H]

>  <h>  (49) 
<NA>

>  <Training>  (49) 
True

>  <Success>  (49) 
True

>  <enamine_searched>  (49) 
False

>  <enamine_id>  (49) 
nan

$$$$

     RDKit          3D

 54 59  0  0  0  0  0  0  0  0999 V2000
   11.8931   -3.0020   21.3363 C   0  0  0  0  0  0  0  0  0  0  0  0
   11.8967   -1.7659   22.0841 N   0  0  0  0  0  0  0  0  0  0  0  0
   12.1934   -1.7612   23.4119 C   0  0  0  0  0  0  0  0  0  0  0  0
   12.7795   -2.6646   23.9775 O   0  0  0  0  0  0  0  0  0  0  0  0
   11.6624   -0.5213   24.1459 C   0  0  0  0  0  0  0  0  0  0  0  0
   10.2125   -0.5579   24.2482 N   0  0  0  0  0  0  0  0  0  0  0  0
    9.5856   -1.3801   25.1779 C   0  0  0  0  0  0  0  0  0  0  0  0
   10.1091   -2.2979   25.7769 O   0  0  0  0  0  0  0  0  0  0  0  0
    8.1757   -0.9030   25.2498 C   0  0  0  0  0  0  0  0  0  0  0  0
    7.2156   -1.2563   26.1560 C   0  0  0  0  0  0  0  0  0  0  0  0
    6.0102   -0.5211   26.1631 C   0  0  0  0  0  0  0  0  0  0  0  0
    5.8732    0.5903   25.3715 C   0  0  0  0  0  0  0  0  0  0  0  0
    4.4039    1.5024   25.4310 Cl  0  0  0  0  0  0  0  0  0  0  0  0
    6.9588    1.1513   24.5307 C   0  0  0  0  0  0  0  0  0  0  0  0
    7.9463    0.0591   24.1902 C   0  0  1  0  0  0  0  0  0  0  0  0
    9.2741    0.2586   23.5254 C   0  0  2  0  0  0  0  0  0  0  0  0
    8.1729   -0.3970   22.7233 C   0  0  2  0  0  0  0  0  0  0  0  0
    7.5370    0.4006   21.6056 C   0  0  0  0  0  0  0  0  0  0  0  0
    7.6667    1.5798   21.3505 O   0  0  0  0  0  0  0  0  0  0  0  0
    6.7226   -0.4800   20.9137 N   0  0  0  0  0  0  0  0  0  0  0  0
    5.8922   -0.0882   19.8342 C   0  0  0  0  0  0  0  0  0  0  0  0
    6.3680   -0.1590   18.5516 C   0  0  0  0  0  0  0  0  0  0  0  0
    5.6482    0.1460   17.4451 N   0  0  0  0  0  0  0  0  0  0  0  0
    4.4194    0.5629   17.6382 C   0  0  0  0  0  0  0  0  0  0  0  0
    3.7974    0.7069   18.9099 C   0  0  0  0  0  0  0  0  0  0  0  0
    2.5031    1.2850   19.0652 C   0  0  0  0  0  0  0  0  0  0  0  0
    1.9468    1.4055   20.3114 C   0  0  0  0  0  0  0  0  0  0  0  0
    2.6627    0.9805   21.4631 C   0  0  0  0  0  0  0  0  0  0  0  0
    3.9289    0.4543   21.3409 C   0  0  0  0  0  0  0  0  0  0  0  0
    4.5386    0.3209   20.0565 C   0  0  0  0  0  0  0  0  0  0  0  0
    4.4849    0.1729   22.2362 H   0  0  0  0  0  0  0  0  0  0  0  0
    2.2288    1.1421   22.4517 H   0  0  0  0  0  0  0  0  0  0  0  0
    0.9606    1.8503   20.4289 H   0  0  0  0  0  0  0  0  0  0  0  0
    2.0166    1.7042   18.1861 H   0  0  0  0  0  0  0  0  0  0  0  0
    3.8422    0.7955   16.7470 H   0  0  0  0  0  0  0  0  0  0  0  0
    7.3776   -0.5281   18.3927 H   0  0  0  0  0  0  0  0  0  0  0  0
    6.9904   -1.8764   21.1914 C   0  0  0  0  0  0  0  0  0  0  0  0
    8.0218   -1.8086   22.2939 C   0  0  0  0  0  0  0  0  0  0  0  0
    8.6544   -2.9140   22.6826 C   0  0  0  0  0  0  0  0  0  0  0  0
    8.3078   -4.0854   22.1134 F   0  0  0  0  0  0  0  0  0  0  0  0
    9.4525   -3.0219   23.4102 H   0  0  0  0  0  0  0  0  0  0  0  0
    7.3744   -2.3895   20.3012 H   0  0  0  0  0  0  0  0  0  0  0  0
    6.0688   -2.3888   21.4988 H   0  0  0  0  0  0  0  0  0  0  0  0
    9.5868    1.2591   23.2330 H   0  0  0  0  0  0  0  0  0  0  0  0
    6.5519    1.6376   23.6337 H   0  0  0  0  0  0  0  0  0  0  0  0
    7.4916    1.9531   25.0803 H   0  0  0  0  0  0  0  0  0  0  0  0
    5.1973   -0.8064   26.8246 H   0  0  0  0  0  0  0  0  0  0  0  0
    7.3882   -2.0869   26.8314 H   0  0  0  0  0  0  0  0  0  0  0  0
   11.9640    0.3961   23.6278 H   0  0  0  0  0  0  0  0  0  0  0  0
   12.1080   -0.5048   25.1416 H   0  0  0  0  0  0  0  0  0  0  0  0
   11.4397   -0.9652   21.6853 H   0  0  0  0  0  0  0  0  0  0  0  0
   11.0215   -3.5992   21.6187 H   0  0  0  0  0  0  0  0  0  0  0  0
   12.8094   -3.5608   21.5345 H   0  0  0  0  0  0  0  0  0  0  0  0
   11.8303   -2.7751   20.2746 H   0  0  0  0  0  0  0  0  0  0  0  0
  1  2  1  0
  2  3  1  0
  3  4  2  0
  3  5  1  0
  5  6  1  0
  6  7  1  0
  7  8  2  0
  7  9  1  0
  9 10  2  0
 10 11  1  0
 11 12  2  0
 12 13  1  0
 12 14  1  0
 15 14  1  6
 15 16  1  0
 16 17  1  0
 17 18  1  6
 18 19  2  0
 18 20  1  0
 20 21  1  0
 21 22  2  0
 22 23  1  0
 23 24  2  0
 24 25  1  0
 25 26  2  0
 26 27  1  0
 27 28  2  0
 28 29  1  0
 29 30  2  0
 29 31  1  0
 28 32  1  0
 27 33  1  0
 26 34  1  0
 24 35  1  0
 22 36  1  0
 20 37  1  0
 37 38  1  0
 38 39  2  0
 39 40  1  0
 39 41  1  0
 37 42  1  0
 37 43  1  0
 16 44  1  6
 14 45  1  0
 14 46  1  0
 11 47  1  0
 10 48  1  0
  5 49  1  0
  5 50  1  0
  2 51  1  0
  1 52  1  0
  1 53  1  0
  1 54  1  0
 16  6  1  0
 38 17  1  0
 15  9  1  0
 30 21  1  0
 17 15  1  0
 30 25  1  0
M  END
>  <cnnaffinities>  (50) 
[6.41311]

>  <score>  (50) 
6.41311

>  <index>  (50) 
65

>  <Smiles>  (50) 
C(N(C(=O)C(N1C(=O)C2=C(C(=C(Cl)C([C@]32[C@@]1([C@@]13C(=O)N(c2c(nc(c3c(c(c(c(c23)[H])[H])[H])[H])[H])[H])C(/C/1=C(\F)/[H])([H])[H])[H])([H])[H])[H])[H])([H])[H])[H])([H])([H])[H]

>  <h>  (50) 
<NA>

>  <Training>  (50) 
True

>  <Success>  (50) 
True

>  <enamine_searched>  (50) 
False

>  <enamine_id>  (50) 
nan

$$$$

     RDKit          3D

 47 50  0  0  0  0  0  0  0  0999 V2000
    7.7532   -2.6452   21.1983 O   0  0  0  0  0  0  0  0  0  0  0  0
    7.6769   -1.4265   21.1930 C   0  0  0  0  0  0  0  0  0  0  0  0
    6.3226   -0.7614   21.2242 C   0  0  0  0  0  0  0  0  0  0  0  0
    5.7197   -0.2501   19.9445 C   0  0  0  0  0  0  0  0  0  0  0  0
    6.2632   -0.3372   18.6905 C   0  0  0  0  0  0  0  0  0  0  0  0
    5.6417    0.0507   17.5425 N   0  0  0  0  0  0  0  0  0  0  0  0
    4.4342    0.5557   17.6537 C   0  0  0  0  0  0  0  0  0  0  0  0
    3.7443    0.7119   18.8874 C   0  0  0  0  0  0  0  0  0  0  0  0
    2.4716    1.3379   18.9946 C   0  0  0  0  0  0  0  0  0  0  0  0
    1.8615    1.4813   20.2142 C   0  0  0  0  0  0  0  0  0  0  0  0
    2.5078    1.0533   21.3915 C   0  0  0  0  0  0  0  0  0  0  0  0
    3.7362    0.4386   21.3114 C   0  0  0  0  0  0  0  0  0  0  0  0
    4.3966    0.2837   20.0638 C   0  0  0  0  0  0  0  0  0  0  0  0
    4.2087    0.0990   22.2239 H   0  0  0  0  0  0  0  0  0  0  0  0
    2.0532    1.2417   22.3614 H   0  0  0  0  0  0  0  0  0  0  0  0
    0.8861    1.9530   20.2892 H   0  0  0  0  0  0  0  0  0  0  0  0
    2.0128    1.7525   18.1039 H   0  0  0  0  0  0  0  0  0  0  0  0
    3.9371    0.8585   16.7323 H   0  0  0  0  0  0  0  0  0  0  0  0
    7.2437   -0.7743   18.5263 H   0  0  0  0  0  0  0  0  0  0  0  0
    5.6505   -1.5277   21.6080 H   0  0  0  0  0  0  0  0  0  0  0  0
    6.3143    0.0336   21.9745 H   0  0  0  0  0  0  0  0  0  0  0  0
    8.7746   -0.6181   21.2040 N   0  0  0  0  0  0  0  0  0  0  0  0
    8.7852    0.8288   21.2039 C   0  0  0  0  0  0  0  0  0  0  0  0
    9.7001    1.3294   22.3070 C   0  0  0  0  0  0  0  0  0  0  0  0
   11.1106    0.7203   22.2748 C   0  0  1  0  0  0  0  0  0  0  0  0
   11.9118    1.2791   23.4632 C   0  0  0  0  0  0  0  0  0  0  0  0
   12.7902    0.2146   24.0728 C   0  0  0  0  0  0  0  0  0  0  0  0
   11.9152   -0.9606   24.4394 C   0  0  0  0  0  0  0  0  0  0  0  0
   12.7886   -2.0106   24.6466 F   0  0  0  0  0  0  0  0  0  0  0  0
   11.2448   -0.5395   25.5819 F   0  0  0  0  0  0  0  0  0  0  0  0
   10.8323   -1.4590   23.5014 C   0  0  0  0  0  0  0  0  0  0  0  0
   11.0637   -0.8092   22.1648 C   0  0  1  0  0  0  0  0  0  0  0  0
   10.0936   -1.1954   21.0636 C   0  0  0  0  0  0  0  0  0  0  0  0
    9.9764   -2.2731   20.9531 H   0  0  0  0  0  0  0  0  0  0  0  0
   10.5195   -0.7599   20.1588 H   0  0  0  0  0  0  0  0  0  0  0  0
   12.0554   -1.1414   21.8282 H   0  0  0  0  0  0  0  0  0  0  0  0
   10.9174   -2.5490   23.4444 H   0  0  0  0  0  0  0  0  0  0  0  0
    9.8444   -1.2264   23.9107 H   0  0  0  0  0  0  0  0  0  0  0  0
   13.5982   -0.1154   23.4150 H   0  0  0  0  0  0  0  0  0  0  0  0
   13.2410    0.5494   25.0085 H   0  0  0  0  0  0  0  0  0  0  0  0
   12.5057    2.1412   23.1460 H   0  0  0  0  0  0  0  0  0  0  0  0
   11.2265    1.6320   24.2411 H   0  0  0  0  0  0  0  0  0  0  0  0
   11.7036    0.9600   21.3928 H   0  0  0  0  0  0  0  0  0  0  0  0
    9.2630    1.0682   23.2796 H   0  0  0  0  0  0  0  0  0  0  0  0
    9.7469    2.4204   22.3009 H   0  0  0  0  0  0  0  0  0  0  0  0
    9.1379    1.1802   20.2258 H   0  0  0  0  0  0  0  0  0  0  0  0
    7.7636    1.1792   21.3380 H   0  0  0  0  0  0  0  0  0  0  0  0
  1  2  2  0
  2  3  1  0
  3  4  1  0
  4  5  2  0
  5  6  1  0
  6  7  2  0
  7  8  1  0
  8  9  2  0
  9 10  1  0
 10 11  2  0
 11 12  1  0
 12 13  2  0
 12 14  1  0
 11 15  1  0
 10 16  1  0
  9 17  1  0
  7 18  1  0
  5 19  1  0
  3 20  1  0
  3 21  1  0
  2 22  1  0
 22 23  1  0
 23 24  1  0
 24 25  1  0
 25 26  1  0
 26 27  1  0
 27 28  1  0
 28 29  1  0
 28 30  1  0
 28 31  1  0
 31 32  1  0
 32 33  1  0
 33 34  1  0
 33 35  1  0
 32 36  1  6
 31 37  1  0
 31 38  1  0
 27 39  1  0
 27 40  1  0
 26 41  1  0
 26 42  1  0
 25 43  1  6
 24 44  1  0
 24 45  1  0
 23 46  1  0
 23 47  1  0
 13  4  1  0
 33 22  1  0
 13  8  1  0
 32 25  1  0
M  END
>  <cnnaffinities>  (51) 
[5.60007]

>  <score>  (51) 
5.60007

>  <index>  (51) 
66

>  <Smiles>  (51) 
O=C(C(c1c(nc(c2c(c(c(c(c12)[H])[H])[H])[H])[H])[H])([H])[H])N1C(C([C@]2(C(C(C(F)(F)C([C@]2(C1([H])[H])[H])([H])[H])([H])[H])([H])[H])[H])([H])[H])([H])[H]

>  <h>  (51) 
<NA>

>  <Training>  (51) 
True

>  <Success>  (51) 
True

>  <enamine_searched>  (51) 
False

>  <enamine_id>  (51) 
nan

$$$$

     RDKit          3D

 69 74  0  0  0  0  0  0  0  0999 V2000
    6.2038   -7.2177   21.6611 C   0  0  0  0  0  0  0  0  0  0  0  0
    5.6842   -7.1096   23.0343 N   0  0  0  0  0  4  0  0  0  0  0  0
    6.1515   -5.9168   23.7961 C   0  0  0  0  0  0  0  0  0  0  0  0
    5.6609   -4.6036   23.1958 C   0  0  0  0  0  0  0  0  0  0  0  0
    6.2922   -3.4787   23.8571 N   0  0  0  0  0  0  0  0  0  0  0  0
    7.4720   -2.8738   23.2734 C   0  0  0  0  0  0  0  0  0  0  0  0
    7.1846   -1.4190   22.8440 C   0  0  2  0  0  0  0  0  0  0  0  0
    6.1985   -1.4603   21.6511 C   0  0  0  0  0  0  0  0  0  0  0  0
    5.2382   -2.1900   21.5129 O   0  0  0  0  0  0  0  0  0  0  0  0
    6.5976   -0.5259   20.7196 N   0  0  0  0  0  0  0  0  0  0  0  0
    5.7446   -0.1326   19.6642 C   0  0  0  0  0  0  0  0  0  0  0  0
    6.2010   -0.1724   18.3687 C   0  0  0  0  0  0  0  0  0  0  0  0
    5.4690    0.1945   17.2900 N   0  0  0  0  0  0  0  0  0  0  0  0
    4.2478    0.6190   17.5165 C   0  0  0  0  0  0  0  0  0  0  0  0
    3.6600    0.7347   18.8089 C   0  0  0  0  0  0  0  0  0  0  0  0
    2.3899    1.3437   19.0075 C   0  0  0  0  0  0  0  0  0  0  0  0
    1.8544    1.4520   20.2630 C   0  0  0  0  0  0  0  0  0  0  0  0
    2.5910    1.0100   21.3858 C   0  0  0  0  0  0  0  0  0  0  0  0
    3.8297    0.4440   21.2282 C   0  0  0  0  0  0  0  0  0  0  0  0
    4.4103    0.3168   19.9263 C   0  0  0  0  0  0  0  0  0  0  0  0
    4.3875    0.1145   22.1001 H   0  0  0  0  0  0  0  0  0  0  0  0
    2.1743    1.1230   22.3828 H   0  0  0  0  0  0  0  0  0  0  0  0
    0.8823    1.9140   20.4110 H   0  0  0  0  0  0  0  0  0  0  0  0
    1.8852    1.7816   18.1559 H   0  0  0  0  0  0  0  0  0  0  0  0
    3.6508    0.8786   16.6436 H   0  0  0  0  0  0  0  0  0  0  0  0
    7.2051   -0.5529   18.1697 H   0  0  0  0  0  0  0  0  0  0  0  0
    7.7710    0.2265   21.1285 C   0  0  0  0  0  0  0  0  0  0  0  0
    8.4035   -0.6781   22.2118 C   0  0  2  0  0  0  0  0  0  0  0  0
    9.4740   -1.5685   21.5438 C   0  0  0  0  0  0  0  0  0  0  0  0
   10.6039   -0.7616   21.2558 O   0  0  0  0  0  0  0  0  0  0  0  0
   11.8742   -1.0111   21.8402 C   0  0  0  0  0  0  0  0  0  0  0  0
   11.8461   -1.6719   23.2072 C   0  0  0  0  0  0  0  0  0  0  0  0
   10.9451   -1.0378   24.0411 F   0  0  0  0  0  0  0  0  0  0  0  0
   11.8913   -3.1565   23.2775 C   0  0  0  0  0  0  0  0  0  0  0  0
   12.9773   -2.3393   23.9307 C   0  0  0  0  0  0  0  0  0  0  0  0
   11.1987   -3.6875   23.9317 H   0  0  0  0  0  0  0  0  0  0  0  0
   12.9352   -2.3352   25.0032 H   0  0  0  0  0  0  0  0  0  0  0  0
   14.0122   -2.3771   23.6293 H   0  0  0  0  0  0  0  0  0  0  0  0
   12.1406   -3.6274   22.3354 H   0  0  0  0  0  0  0  0  0  0  0  0
   12.4698   -1.6218   21.1393 H   0  0  0  0  0  0  0  0  0  0  0  0
   12.3412   -0.0216   21.9042 H   0  0  0  0  0  0  0  0  0  0  0  0
    9.0693   -1.9604   20.5970 H   0  0  0  0  0  0  0  0  0  0  0  0
    9.7531   -2.4253   22.1584 H   0  0  0  0  0  0  0  0  0  0  0  0
    8.9396   -0.1070   22.9721 H   0  0  0  0  0  0  0  0  0  0  0  0
    8.4434    0.3815   20.2801 H   0  0  0  0  0  0  0  0  0  0  0  0
    7.4868    1.2143   21.5146 H   0  0  0  0  0  0  0  0  0  0  0  0
    6.6250   -0.7038   24.0905 C   0  0  0  0  0  0  0  0  0  0  0  0
    6.8148    0.6675   24.3217 C   0  0  0  0  0  0  0  0  0  0  0  0
    6.3603    1.2493   25.4951 C   0  0  0  0  0  0  0  0  0  0  0  0
    6.6292    2.9476   25.7665 Cl  0  0  0  0  0  0  0  0  0  0  0  0
    5.7127    0.5150   26.4848 C   0  0  0  0  0  0  0  0  0  0  0  0
    5.4861   -0.8257   26.2504 C   0  0  0  0  0  0  0  0  0  0  0  0
    5.9305   -1.4265   25.0743 C   0  0  0  0  0  0  0  0  0  0  0  0
    5.6091   -2.8739   24.8686 C   0  0  0  0  0  0  0  0  0  0  0  0
    4.7665   -3.4653   25.5320 O   0  0  0  0  0  0  0  0  0  0  0  0
    4.9628   -1.4450   26.9703 H   0  0  0  0  0  0  0  0  0  0  0  0
    5.3860    0.9932   27.4024 H   0  0  0  0  0  0  0  0  0  0  0  0
    7.3199    1.3062   23.6059 H   0  0  0  0  0  0  0  0  0  0  0  0
    7.7531   -3.4757   22.4053 H   0  0  0  0  0  0  0  0  0  0  0  0
    8.3110   -2.8727   23.9911 H   0  0  0  0  0  0  0  0  0  0  0  0
    4.5757   -4.5077   23.3307 H   0  0  0  0  0  0  0  0  0  0  0  0
    5.8831   -4.5186   22.1246 H   0  0  0  0  0  0  0  0  0  0  0  0
    5.7890   -5.9932   24.8174 H   0  0  0  0  0  0  0  0  0  0  0  0
    7.2415   -5.9222   23.8294 H   0  0  0  0  0  0  0  0  0  0  0  0
    4.6333   -7.0985   23.0199 H   0  0  0  0  0  0  0  0  0  0  0  0
    6.0211   -7.9631   23.5274 H   0  0  0  0  0  0  0  0  0  0  0  0
    5.7337   -6.5072   20.9809 H   0  0  0  0  0  0  0  0  0  0  0  0
    7.2808   -7.0332   21.6558 H   0  0  0  0  0  0  0  0  0  0  0  0
    6.0069   -8.2245   21.3018 H   0  0  0  0  0  0  0  0  0  0  0  0
  1  2  1  0
  2  3  1  0
  3  4  1  0
  4  5  1  0
  5  6  1  0
  7  6  1  1
  7  8  1  0
  8  9  2  0
  8 10  1  0
 10 11  1  0
 11 12  2  0
 12 13  1  0
 13 14  2  0
 14 15  1  0
 15 16  2  0
 16 17  1  0
 17 18  2  0
 18 19  1  0
 19 20  2  0
 19 21  1  0
 18 22  1  0
 17 23  1  0
 16 24  1  0
 14 25  1  0
 12 26  1  0
 10 27  1  0
 27 28  1  0
 28 29  1  0
 29 30  1  0
 30 31  1  0
 31 32  1  0
 32 33  1  0
 32 34  1  0
 34 35  1  0
 35 36  1  0
 35 37  1  0
 34 38  1  0
 34 39  1  0
 31 40  1  0
 31 41  1  0
 29 42  1  0
 29 43  1  0
 28 44  1  1
 27 45  1  0
 27 46  1  0
  7 47  1  0
 47 48  2  0
 48 49  1  0
 49 50  1  0
 49 51  2  0
 51 52  1  0
 52 53  2  0
 53 54  1  0
 54 55  2  0
 52 56  1  0
 51 57  1  0
 48 58  1  0
  6 59  1  0
  6 60  1  0
  4 61  1  0
  4 62  1  0
  3 63  1  0
  3 64  1  0
  2 65  1  0
  2 66  1  0
  1 67  1  0
  1 68  1  0
  1 69  1  0
 54  5  1  0
 28  7  1  0
 35 32  1  0
 53 47  1  0
 20 11  1  0
 20 15  1  0
M  CHG  1   2   1
M  END
>  <cnnaffinities>  (52) 
[6.73236]

>  <score>  (52) 
6.73236

>  <index>  (52) 
67

>  <Smiles>  (52) 
C([N+](C(C(N1C([C@@]2(C(=O)N(c3c(nc(c4c(c(c(c(c34)[H])[H])[H])[H])[H])[H])C([C@@]2(C(OC(C2(F)C(C2([H])[H])([H])[H])([H])[H])([H])[H])[H])([H])[H])c2c(c(Cl)c(c(c2C1=O)[H])[H])[H])([H])[H])([H])[H])([H])[H])([H])[H])([H])([H])[H]

>  <h>  (52) 
<NA>

>  <Training>  (52) 
True

>  <Success>  (52) 
True

>  <enamine_searched>  (52) 
False

>  <enamine_id>  (52) 
nan

$$$$

     RDKit          3D

 57 62  0  0  0  0  0  0  0  0999 V2000
    5.3311    5.4510   22.1225 C   0  0  0  0  0  0  0  0  0  0  0  0
    6.3634    4.8328   22.9975 C   0  0  0  0  0  0  0  0  0  0  0  0
    6.2681    3.7943   23.7713 N   0  0  0  0  0  0  0  0  0  0  0  0
    7.5611    3.6454   24.2189 C   0  0  0  0  0  0  0  0  0  0  0  0
    8.0020    2.5027   25.0908 C   0  0  0  0  0  0  0  0  0  0  0  0
    8.6791    1.4536   24.3288 N   0  0  0  0  0  0  0  0  0  0  0  0
    8.0451    0.1665   24.0729 C   0  0  0  0  0  0  0  0  0  0  0  0
    8.3364   -0.4060   22.6567 C   0  0  2  0  0  0  0  0  0  0  0  0
    7.5256    0.3612   21.5710 C   0  0  0  0  0  0  0  0  0  0  0  0
    7.6256    1.5256   21.2727 O   0  0  0  0  0  0  0  0  0  0  0  0
    6.6461   -0.5315   20.9706 N   0  0  0  0  0  0  0  0  0  0  0  0
    5.8347   -0.1432   19.8684 C   0  0  0  0  0  0  0  0  0  0  0  0
    6.3090   -0.2184   18.5803 C   0  0  0  0  0  0  0  0  0  0  0  0
    5.6205    0.1456   17.4666 N   0  0  0  0  0  0  0  0  0  0  0  0
    4.4047    0.6022   17.6433 C   0  0  0  0  0  0  0  0  0  0  0  0
    3.7780    0.7073   18.9188 C   0  0  0  0  0  0  0  0  0  0  0  0
    2.4901    1.2751   19.0645 C   0  0  0  0  0  0  0  0  0  0  0  0
    1.9492    1.5057   20.2997 C   0  0  0  0  0  0  0  0  0  0  0  0
    2.6609    1.1329   21.4580 C   0  0  0  0  0  0  0  0  0  0  0  0
    3.8842    0.5172   21.3484 C   0  0  0  0  0  0  0  0  0  0  0  0
    4.5016    0.3353   20.0759 C   0  0  0  0  0  0  0  0  0  0  0  0
    4.3931    0.1595   22.2354 H   0  0  0  0  0  0  0  0  0  0  0  0
    2.2445    1.3631   22.4364 H   0  0  0  0  0  0  0  0  0  0  0  0
    0.9771    1.9786   20.3959 H   0  0  0  0  0  0  0  0  0  0  0  0
    1.9894    1.6002   18.1682 H   0  0  0  0  0  0  0  0  0  0  0  0
    3.8495    0.9190   16.7575 H   0  0  0  0  0  0  0  0  0  0  0  0
    7.3265   -0.5537   18.3893 H   0  0  0  0  0  0  0  0  0  0  0  0
    7.0939   -1.8962   21.1208 C   0  0  0  0  0  0  0  0  0  0  0  0
    7.8005   -1.8787   22.4875 C   0  0  2  0  0  0  0  0  0  0  0  0
    6.8324   -2.3730   23.5701 C   0  0  0  0  0  0  0  0  0  0  0  0
    7.3114   -2.4323   24.5503 H   0  0  0  0  0  0  0  0  0  0  0  0
    5.9498   -1.7307   23.6534 H   0  0  0  0  0  0  0  0  0  0  0  0
    6.4827   -3.3815   23.3232 H   0  0  0  0  0  0  0  0  0  0  0  0
    8.6408   -2.5764   22.4844 H   0  0  0  0  0  0  0  0  0  0  0  0
    6.2403   -2.5834   21.0985 H   0  0  0  0  0  0  0  0  0  0  0  0
    7.7745   -2.1788   20.3034 H   0  0  0  0  0  0  0  0  0  0  0  0
    9.8475   -0.2835   22.4340 C   0  0  0  0  0  0  0  0  0  0  0  0
   10.5071   -1.1178   21.5217 C   0  0  0  0  0  0  0  0  0  0  0  0
   11.8724   -1.0046   21.3421 C   0  0  0  0  0  0  0  0  0  0  0  0
   12.4724   -1.8193   20.4562 F   0  0  0  0  0  0  0  0  0  0  0  0
   12.6453   -0.0660   22.0143 C   0  0  0  0  0  0  0  0  0  0  0  0
   12.0036    0.7597   22.9152 C   0  0  0  0  0  0  0  0  0  0  0  0
   10.6263    0.6594   23.1251 C   0  0  0  0  0  0  0  0  0  0  0  0
   10.0269    1.6020   24.1201 C   0  0  0  0  0  0  0  0  0  0  0  0
   10.6920    2.4522   24.6944 O   0  0  0  0  0  0  0  0  0  0  0  0
   12.5584    1.5079   23.4722 H   0  0  0  0  0  0  0  0  0  0  0  0
   13.7122   -0.0029   21.8261 H   0  0  0  0  0  0  0  0  0  0  0  0
    9.9881   -1.8759   20.9456 H   0  0  0  0  0  0  0  0  0  0  0  0
    6.9701    0.2826   24.2209 H   0  0  0  0  0  0  0  0  0  0  0  0
    8.4213   -0.5674   24.7988 H   0  0  0  0  0  0  0  0  0  0  0  0
    8.7049    2.8665   25.8481 H   0  0  0  0  0  0  0  0  0  0  0  0
    7.1207    2.0856   25.5872 H   0  0  0  0  0  0  0  0  0  0  0  0
    8.3859    4.5577   23.7868 N   0  0  0  0  0  0  0  0  0  0  0  0
    7.5978    5.3440   22.9642 O   0  0  0  0  0  0  0  0  0  0  0  0
    5.5113    6.5201   22.0076 H   0  0  0  0  0  0  0  0  0  0  0  0
    4.3352    5.2774   22.5289 H   0  0  0  0  0  0  0  0  0  0  0  0
    5.3833    4.9820   21.1392 H   0  0  0  0  0  0  0  0  0  0  0  0
  1  2  1  0
  2  3  2  0
  3  4  1  0
  4  5  1  0
  5  6  1  0
  6  7  1  0
  8  7  1  1
  8  9  1  0
  9 10  2  0
  9 11  1  0
 11 12  1  0
 12 13  2  0
 13 14  1  0
 14 15  2  0
 15 16  1  0
 16 17  2  0
 17 18  1  0
 18 19  2  0
 19 20  1  0
 20 21  2  0
 20 22  1  0
 19 23  1  0
 18 24  1  0
 17 25  1  0
 15 26  1  0
 13 27  1  0
 11 28  1  0
 28 29  1  0
 29 30  1  0
 30 31  1  0
 30 32  1  0
 30 33  1  0
 29 34  1  6
 28 35  1  0
 28 36  1  0
  8 37  1  0
 37 38  2  0
 38 39  1  0
 39 40  1  0
 39 41  2  0
 41 42  1  0
 42 43  2  0
 43 44  1  0
 44 45  2  0
 42 46  1  0
 41 47  1  0
 38 48  1  0
  7 49  1  0
  7 50  1  0
  5 51  1  0
  5 52  1  0
  4 53  2  0
 53 54  1  0
  1 55  1  0
  1 56  1  0
  1 57  1  0
 54  2  1  0
 44  6  1  0
 29  8  1  0
 43 37  1  0
 21 12  1  0
 21 16  1  0
M  END
>  <cnnaffinities>  (53) 
[6.59694, 6.68867]

>  <score>  (53) 
6.59694

>  <index>  (53) 
68

>  <Smiles>  (53) 
C(c1nc(C(N2C([C@@]3(C(=O)N(c4c(nc(c5c(c(c(c(c45)[H])[H])[H])[H])[H])[H])C([C@@]3(C([H])([H])[H])[H])([H])[H])c3c(c(F)c(c(c3C2=O)[H])[H])[H])([H])[H])([H])[H])no1)([H])([H])[H]

>  <h>  (53) 
<NA>

>  <Training>  (53) 
True

>  <Success>  (53) 
True

>  <enamine_searched>  (53) 
False

>  <enamine_id>  (53) 
nan

$$$$

     RDKit          3D

 64 68  0  0  0  0  0  0  0  0999 V2000
    7.7636    3.9904   26.6571 C   0  0  0  0  0  0  0  0  0  0  0  0
    8.1733    5.0613   25.6363 C   0  0  0  0  0  0  0  0  0  0  0  0
    8.4021    4.4388   24.2605 C   0  0  0  0  0  0  0  0  0  0  0  0
    7.4980    4.3351   23.4556 O   0  0  0  0  0  0  0  0  0  0  0  0
    9.7084    3.9937   24.0119 N   0  0  0  0  0  0  0  0  0  0  0  0
   10.8142    4.7604   24.5947 C   0  0  0  0  0  0  0  0  0  0  0  0
   12.0443    4.6704   23.7258 C   0  0  0  0  0  0  0  0  0  0  0  0
   12.4464    3.2194   23.5305 C   0  0  0  0  0  0  0  0  0  0  0  0
   11.3024    2.2399   23.5123 C   0  0  0  0  0  0  0  0  0  0  0  0
   11.5563    0.8812   23.3143 C   0  0  0  0  0  0  0  0  0  0  0  0
   10.5470    0.0184   22.9228 C   0  0  0  0  0  0  0  0  0  0  0  0
    9.2626    0.5311   22.6971 C   0  0  0  0  0  0  0  0  0  0  0  0
    8.2292   -0.3928   22.3346 N   0  0  0  0  0  0  0  0  0  0  0  0
    7.9584   -1.4360   23.3306 C   0  0  0  0  0  0  0  0  0  0  0  0
    7.5460   -0.8499   24.6724 C   0  0  0  0  0  0  0  0  0  0  0  0
    8.4882   -0.5485   25.6614 C   0  0  0  0  0  0  0  0  0  0  0  0
    8.1103    0.1380   26.8097 C   0  0  0  0  0  0  0  0  0  0  0  0
    6.7864    0.5103   27.0104 C   0  0  0  0  0  0  0  0  0  0  0  0
    5.8468    0.1713   26.0472 C   0  0  0  0  0  0  0  0  0  0  0  0
    4.1827    0.6523   26.2505 Cl  0  0  0  0  0  0  0  0  0  0  0  0
    6.2111   -0.5152   24.8977 C   0  0  0  0  0  0  0  0  0  0  0  0
    5.4396   -0.7719   24.1753 H   0  0  0  0  0  0  0  0  0  0  0  0
    6.4897    1.0767   27.8879 H   0  0  0  0  0  0  0  0  0  0  0  0
    8.8574    0.4300   27.5432 H   0  0  0  0  0  0  0  0  0  0  0  0
    9.5323   -0.8179   25.5119 H   0  0  0  0  0  0  0  0  0  0  0  0
    7.1790   -2.0947   22.9485 H   0  0  0  0  0  0  0  0  0  0  0  0
    8.8590   -2.0488   23.4685 H   0  0  0  0  0  0  0  0  0  0  0  0
    7.6204   -0.2169   21.1013 C   0  0  0  0  0  0  0  0  0  0  0  0
    7.9913    0.6721   20.3555 O   0  0  0  0  0  0  0  0  0  0  0  0
    6.4883   -1.1862   20.6996 C   0  0  0  0  0  0  0  0  0  0  0  0
    5.6327   -0.6082   19.6106 C   0  0  0  0  0  0  0  0  0  0  0  0
    6.0874   -0.5353   18.3158 C   0  0  0  0  0  0  0  0  0  0  0  0
    5.4236    0.0350   17.2806 N   0  0  0  0  0  0  0  0  0  0  0  0
    4.2597    0.5878   17.5481 C   0  0  0  0  0  0  0  0  0  0  0  0
    3.6810    0.6074   18.8454 C   0  0  0  0  0  0  0  0  0  0  0  0
    2.5086    1.3422   19.1409 C   0  0  0  0  0  0  0  0  0  0  0  0
    1.9573    2.0658   18.1531 F   0  0  0  0  0  0  0  0  0  0  0  0
    1.9855    1.4350   20.3975 C   0  0  0  0  0  0  0  0  0  0  0  0
    2.6862    0.8279   21.4525 C   0  0  0  0  0  0  0  0  0  0  0  0
    3.8236    0.0940   21.2237 C   0  0  0  0  0  0  0  0  0  0  0  0
    4.3751   -0.0026   19.9163 C   0  0  0  0  0  0  0  0  0  0  0  0
    4.3137   -0.3800   22.0665 H   0  0  0  0  0  0  0  0  0  0  0  0
    2.3272    0.9637   22.4691 H   0  0  0  0  0  0  0  0  0  0  0  0
    1.0789    2.0014   20.5820 H   0  0  0  0  0  0  0  0  0  0  0  0
    3.7329    1.0686   16.7302 H   0  0  0  0  0  0  0  0  0  0  0  0
    7.0834   -0.8975   18.0649 H   0  0  0  0  0  0  0  0  0  0  0  0
    5.8687   -1.4196   21.5681 H   0  0  0  0  0  0  0  0  0  0  0  0
    6.9602   -2.1308   20.3861 H   0  0  0  0  0  0  0  0  0  0  0  0
    8.9922    1.8801   22.9124 C   0  0  0  0  0  0  0  0  0  0  0  0
    9.9813    2.7025   23.4755 C   0  0  0  0  0  0  0  0  0  0  0  0
    8.0259    2.2966   22.6443 H   0  0  0  0  0  0  0  0  0  0  0  0
   10.7621   -1.0325   22.7261 H   0  0  0  0  0  0  0  0  0  0  0  0
   12.5634    0.4820   23.4318 H   0  0  0  0  0  0  0  0  0  0  0  0
   13.0603    2.8934   24.3448 H   0  0  0  0  0  0  0  0  0  0  0  0
   13.0809    3.1101   22.6428 H   0  0  0  0  0  0  0  0  0  0  0  0
   12.8444    5.2055   24.2249 H   0  0  0  0  0  0  0  0  0  0  0  0
   11.8638    5.2071   22.7937 H   0  0  0  0  0  0  0  0  0  0  0  0
   10.5130    5.8093   24.6395 H   0  0  0  0  0  0  0  0  0  0  0  0
   11.0406    4.4241   25.6192 H   0  0  0  0  0  0  0  0  0  0  0  0
    9.0644    5.5705   26.0155 H   0  0  0  0  0  0  0  0  0  0  0  0
    7.3940    5.8165   25.5209 H   0  0  0  0  0  0  0  0  0  0  0  0
    7.6763    4.4223   27.6594 H   0  0  0  0  0  0  0  0  0  0  0  0
    6.8079    3.5215   26.3979 H   0  0  0  0  0  0  0  0  0  0  0  0
    8.5211    3.1993   26.7029 H   0  0  0  0  0  0  0  0  0  0  0  0
  1  2  1  0
  2  3  1  0
  3  4  2  0
  3  5  1  0
  5  6  1  0
  6  7  1  0
  7  8  1  0
  8  9  1  0
  9 10  2  0
 10 11  1  0
 11 12  2  0
 12 13  1  0
 13 14  1  0
 14 15  1  0
 15 16  2  0
 16 17  1  0
 17 18  2  0
 18 19  1  0
 19 20  1  0
 19 21  2  0
 21 22  1  0
 18 23  1  0
 17 24  1  0
 16 25  1  0
 14 26  1  0
 14 27  1  0
 13 28  1  0
 28 29  2  0
 28 30  1  0
 30 31  1  0
 31 32  2  0
 32 33  1  0
 33 34  2  0
 34 35  1  0
 35 36  2  0
 36 37  1  0
 36 38  1  0
 38 39  2  0
 39 40  1  0
 40 41  2  0
 40 42  1  0
 39 43  1  0
 38 44  1  0
 34 45  1  0
 32 46  1  0
 30 47  1  0
 30 48  1  0
 12 49  1  0
 49 50  2  0
 49 51  1  0
 11 52  1  0
 10 53  1  0
  8 54  1  0
  8 55  1  0
  7 56  1  0
  7 57  1  0
  6 58  1  0
  6 59  1  0
  2 60  1  0
  2 61  1  0
  1 62  1  0
  1 63  1  0
  1 64  1  0
 50  5  1  0
 50  9  1  0
 21 15  1  0
 41 31  1  0
 41 35  1  0
M  END
>  <cnnaffinities>  (54) 
[6.77071, 6.75839]

>  <score>  (54) 
6.77071

>  <index>  (54) 
69

>  <Smiles>  (54) 
C(C(C(=O)N1C(C(C(c2c(c(c(N(C(c3c(c(c(c(Cl)c3[H])[H])[H])[H])([H])[H])C(=O)C(c3c(nc(c4c(F)c(c(c(c34)[H])[H])[H])[H])[H])([H])[H])c(c12)[H])[H])[H])([H])[H])([H])[H])([H])[H])([H])[H])([H])([H])[H]

>  <h>  (54) 
<NA>

>  <Training>  (54) 
True

>  <Success>  (54) 
True

>  <enamine_searched>  (54) 
False

>  <enamine_id>  (54) 
nan

$$$$

     RDKit          3D

 57 62  0  0  0  0  0  0  0  0999 V2000
    6.7981   -2.3716   23.5785 C   0  0  0  0  0  0  0  0  0  0  0  0
    7.7799   -1.8916   22.5004 C   0  0  1  0  0  0  0  0  0  0  0  0
    7.0797   -1.9065   21.1272 C   0  0  0  0  0  0  0  0  0  0  0  0
    6.6469   -0.5388   20.9652 N   0  0  0  0  0  0  0  0  0  0  0  0
    5.8367   -0.1408   19.8645 C   0  0  0  0  0  0  0  0  0  0  0  0
    6.3146   -0.2232   18.5775 C   0  0  0  0  0  0  0  0  0  0  0  0
    5.6288    0.1489   17.4623 N   0  0  0  0  0  0  0  0  0  0  0  0
    4.4116    0.6065   17.6379 C   0  0  0  0  0  0  0  0  0  0  0  0
    3.7808    0.7206   18.9142 C   0  0  0  0  0  0  0  0  0  0  0  0
    2.4912    1.2865   19.0621 C   0  0  0  0  0  0  0  0  0  0  0  0
    1.9450    1.4971   20.2972 C   0  0  0  0  0  0  0  0  0  0  0  0
    2.6544    1.1244   21.4568 C   0  0  0  0  0  0  0  0  0  0  0  0
    3.8827    0.5186   21.3470 C   0  0  0  0  0  0  0  0  0  0  0  0
    4.5033    0.3445   20.0755 C   0  0  0  0  0  0  0  0  0  0  0  0
    4.3988    0.1694   22.2362 H   0  0  0  0  0  0  0  0  0  0  0  0
    2.2298    1.3362   22.4346 H   0  0  0  0  0  0  0  0  0  0  0  0
    0.9721    1.9692   20.3959 H   0  0  0  0  0  0  0  0  0  0  0  0
    1.9941    1.6310   18.1663 H   0  0  0  0  0  0  0  0  0  0  0  0
    3.8485    0.9018   16.7476 H   0  0  0  0  0  0  0  0  0  0  0  0
    7.3322   -0.5660   18.3858 H   0  0  0  0  0  0  0  0  0  0  0  0
    7.5207    0.3468   21.5802 C   0  0  0  0  0  0  0  0  0  0  0  0
    7.6226    1.5136   21.2954 O   0  0  0  0  0  0  0  0  0  0  0  0
    8.3239   -0.4223   22.6683 C   0  0  1  0  0  0  0  0  0  0  0  0
    8.0269    0.1643   24.0766 C   0  0  0  0  0  0  0  0  0  0  0  0
    8.6650    1.4538   24.3165 N   0  0  0  0  0  0  0  0  0  0  0  0
    7.9921    2.5224   25.0591 C   0  0  0  0  0  0  0  0  0  0  0  0
    7.5607    3.6740   24.1944 C   0  0  0  0  0  0  0  0  0  0  0  0
    8.3768    4.6602   23.7529 N   0  0  0  0  0  0  0  0  0  0  0  0
    7.6489    5.4277   22.9888 N   0  0  0  0  0  0  0  0  0  0  0  0
    6.4383    4.9159   22.9997 N   0  0  0  0  0  0  0  0  0  0  0  0
    5.3608    5.3973   22.1610 C   0  0  0  0  0  0  0  0  0  0  0  0
    5.2419    4.7218   21.3140 H   0  0  0  0  0  0  0  0  0  0  0  0
    5.6136    6.3967   21.8135 H   0  0  0  0  0  0  0  0  0  0  0  0
    4.4430    5.4257   22.7454 H   0  0  0  0  0  0  0  0  0  0  0  0
    6.3235    3.8296   23.7434 N   0  0  0  0  0  0  0  0  0  0  0  0
    7.1107    2.1150   25.5665 H   0  0  0  0  0  0  0  0  0  0  0  0
    8.6988    2.8828   25.8141 H   0  0  0  0  0  0  0  0  0  0  0  0
   10.0197    1.5762   24.1345 C   0  0  0  0  0  0  0  0  0  0  0  0
   10.6956    2.4031   24.7337 O   0  0  0  0  0  0  0  0  0  0  0  0
   10.6170    0.6320   23.1402 C   0  0  0  0  0  0  0  0  0  0  0  0
   11.9946    0.7238   22.9353 C   0  0  0  0  0  0  0  0  0  0  0  0
   12.6320   -0.0982   22.0292 C   0  0  0  0  0  0  0  0  0  0  0  0
   11.8552   -1.0234   21.3446 C   0  0  0  0  0  0  0  0  0  0  0  0
   12.4545   -1.8310   20.4525 F   0  0  0  0  0  0  0  0  0  0  0  0
   10.4890   -1.1332   21.5218 C   0  0  0  0  0  0  0  0  0  0  0  0
    9.8352   -0.3046   22.4444 C   0  0  0  0  0  0  0  0  0  0  0  0
    9.9680   -1.8854   20.9393 H   0  0  0  0  0  0  0  0  0  0  0  0
   13.6997   -0.0420   21.8467 H   0  0  0  0  0  0  0  0  0  0  0  0
   12.5516    1.4606   23.5032 H   0  0  0  0  0  0  0  0  0  0  0  0
    6.9516    0.2841   24.2183 H   0  0  0  0  0  0  0  0  0  0  0  0
    8.3972   -0.5638   24.8103 H   0  0  0  0  0  0  0  0  0  0  0  0
    6.2196   -2.5849   21.1037 H   0  0  0  0  0  0  0  0  0  0  0  0
    7.7599   -2.2041   20.3150 H   0  0  0  0  0  0  0  0  0  0  0  0
    8.6156   -2.5973   22.5002 H   0  0  0  0  0  0  0  0  0  0  0  0
    6.4401   -3.3790   23.3391 H   0  0  0  0  0  0  0  0  0  0  0  0
    7.2712   -2.4273   24.5611 H   0  0  0  0  0  0  0  0  0  0  0  0
    5.9195   -1.7220   23.6530 H   0  0  0  0  0  0  0  0  0  0  0  0
  1  2  1  0
  2  3  1  0
  3  4  1  0
  4  5  1  0
  5  6  2  0
  6  7  1  0
  7  8  2  0
  8  9  1  0
  9 10  2  0
 10 11  1  0
 11 12  2  0
 12 13  1  0
 13 14  2  0
 13 15  1  0
 12 16  1  0
 11 17  1  0
 10 18  1  0
  8 19  1  0
  6 20  1  0
  4 21  1  0
 21 22  2  0
 21 23  1  0
 23 24  1  1
 24 25  1  0
 25 26  1  0
 26 27  1  0
 27 28  1  0
 28 29  2  0
 29 30  1  0
 30 31  1  0
 31 32  1  0
 31 33  1  0
 31 34  1  0
 30 35  1  0
 26 36  1  0
 26 37  1  0
 25 38  1  0
 38 39  2  0
 38 40  1  0
 40 41  2  0
 41 42  1  0
 42 43  2  0
 43 44  1  0
 43 45  1  0
 45 46  2  0
 45 47  1  0
 42 48  1  0
 41 49  1  0
 24 50  1  0
 24 51  1  0
  3 52  1  0
  3 53  1  0
  2 54  1  6
  1 55  1  0
  1 56  1  0
  1 57  1  0
 23  2  1  0
 35 27  2  0
 46 40  1  0
 14  5  1  0
 46 23  1  0
 14  9  1  0
M  END
>  <cnnaffinities>  (55) 
[6.55743]

>  <score>  (55) 
6.55743

>  <index>  (55) 
70

>  <Smiles>  (55) 
C([C@]1(C(N(c2c(nc(c3c(c(c(c(c23)[H])[H])[H])[H])[H])[H])C(=O)[C@]21C(N(C(c1nnn(C([H])([H])[H])n1)([H])[H])C(=O)c1c(c(c(F)c(c21)[H])[H])[H])([H])[H])([H])[H])[H])([H])([H])[H]

>  <h>  (55) 
<NA>

>  <Training>  (55) 
True

>  <Success>  (55) 
True

>  <enamine_searched>  (55) 
False

>  <enamine_id>  (55) 
nan

$$$$

     RDKit          3D

 59 64  0  0  0  0  0  0  0  0999 V2000
    7.2743   -3.0526   23.5480 C   0  0  0  0  0  0  0  0  0  0  0  0
    7.2767   -2.3245   22.2197 C   0  0  1  0  0  0  0  0  0  0  0  0
    6.0093   -1.5319   21.9190 C   0  0  0  0  0  0  0  0  0  0  0  0
    6.4509   -0.5640   20.9138 N   0  0  0  0  0  0  0  0  0  0  0  0
    5.7006   -0.1419   19.8004 C   0  0  0  0  0  0  0  0  0  0  0  0
    6.2227   -0.1787   18.5255 C   0  0  0  0  0  0  0  0  0  0  0  0
    5.5266    0.1440   17.4099 N   0  0  0  0  0  0  0  0  0  0  0  0
    4.3040    0.5921   17.5742 C   0  0  0  0  0  0  0  0  0  0  0  0
    3.6711    0.7432   18.8397 C   0  0  0  0  0  0  0  0  0  0  0  0
    2.4018    1.3664   18.9857 C   0  0  0  0  0  0  0  0  0  0  0  0
    1.8378    1.5181   20.2241 C   0  0  0  0  0  0  0  0  0  0  0  0
    2.5400    1.1066   21.3819 C   0  0  0  0  0  0  0  0  0  0  0  0
    3.7850    0.5428   21.2739 C   0  0  0  0  0  0  0  0  0  0  0  0
    4.3736    0.3414   19.9940 C   0  0  0  0  0  0  0  0  0  0  0  0
    4.3463    0.3035   22.1684 H   0  0  0  0  0  0  0  0  0  0  0  0
    2.1023    1.2524   22.3646 H   0  0  0  0  0  0  0  0  0  0  0  0
    0.8569    1.9746   20.3330 H   0  0  0  0  0  0  0  0  0  0  0  0
    1.9289    1.7711   18.0981 H   0  0  0  0  0  0  0  0  0  0  0  0
    3.7619    0.8788   16.6730 H   0  0  0  0  0  0  0  0  0  0  0  0
    7.2539   -0.4770   18.3540 H   0  0  0  0  0  0  0  0  0  0  0  0
    7.8039   -0.3108   21.0006 C   0  0  0  0  0  0  0  0  0  0  0  0
    8.4001    0.5594   20.3984 O   0  0  0  0  0  0  0  0  0  0  0  0
    8.4396   -1.3024   21.9681 C   0  0  1  0  0  0  0  0  0  0  0  0
    8.9132   -0.5235   23.2229 C   0  0  0  0  0  0  0  0  0  0  0  0
    9.8176   -1.2688   24.1024 N   0  0  0  0  0  0  0  0  0  0  0  0
    9.7154   -0.9807   25.5217 C   0  0  0  0  0  0  0  0  0  0  0  0
    8.9309   -2.0387   26.2486 C   0  0  0  0  0  0  0  0  0  0  0  0
    9.3381   -3.2816   26.3531 N   0  0  0  0  0  0  0  0  0  0  0  0
    8.4129   -3.9058   27.1492 C   0  0  0  0  0  0  0  0  0  0  0  0
    7.4240   -3.0311   27.5038 C   0  0  0  0  0  0  0  0  0  0  0  0
    7.7585   -1.8257   26.9177 N   0  0  0  0  0  0  0  0  0  0  0  0
    6.9519   -0.6201   26.8894 C   0  0  0  0  0  0  0  0  0  0  0  0
    6.8022   -0.2863   25.8549 H   0  0  0  0  0  0  0  0  0  0  0  0
    7.4192    0.1903   27.4600 H   0  0  0  0  0  0  0  0  0  0  0  0
    5.9759   -0.8463   27.3218 H   0  0  0  0  0  0  0  0  0  0  0  0
    6.5415   -3.1398   28.1158 H   0  0  0  0  0  0  0  0  0  0  0  0
    8.5215   -4.9463   27.4211 H   0  0  0  0  0  0  0  0  0  0  0  0
   10.7333   -0.9576   25.9099 H   0  0  0  0  0  0  0  0  0  0  0  0
    9.2811    0.0153   25.6670 H   0  0  0  0  0  0  0  0  0  0  0  0
   10.8623   -2.0808   23.6831 C   0  0  0  0  0  0  0  0  0  0  0  0
   11.8411   -2.2813   24.3789 O   0  0  0  0  0  0  0  0  0  0  0  0
   10.7542   -2.6872   22.3329 C   0  0  0  0  0  0  0  0  0  0  0  0
   12.0991   -3.0930   21.8252 C   0  0  0  0  0  0  0  0  0  0  0  0
   12.3281   -2.9905   20.5177 C   0  0  0  0  0  0  0  0  0  0  0  0
   12.2721   -3.2928   20.3544 C   0  0  0  0  0  0  0  0  0  0  0  0
   11.9442   -4.1498   19.3761 F   0  0  0  0  0  0  0  0  0  0  0  0
    9.8049   -3.2143   21.5438 C   0  0  0  0  0  0  0  0  0  0  0  0
    9.6496   -1.9104   21.2955 C   0  0  0  0  0  0  0  0  0  0  0  0
   10.1806   -1.3429   20.5245 H   0  0  0  0  0  0  0  0  0  0  0  0
   13.4552   -3.2600   20.3853 H   0  0  0  0  0  0  0  0  0  0  0  0
   12.8753   -3.0962   22.5790 H   0  0  0  0  0  0  0  0  0  0  0  0
    8.0221   -0.2383   23.7990 H   0  0  0  0  0  0  0  0  0  0  0  0
    9.4002    0.3943   22.8599 H   0  0  0  0  0  0  0  0  0  0  0  0
    5.2014   -2.1548   21.5243 H   0  0  0  0  0  0  0  0  0  0  0  0
    5.6472   -1.0377   22.8350 H   0  0  0  0  0  0  0  0  0  0  0  0
    7.3586   -3.0563   21.4103 H   0  0  0  0  0  0  0  0  0  0  0  0
    8.2551   -3.4887   23.7534 H   0  0  0  0  0  0  0  0  0  0  0  0
    6.5216   -3.8466   23.5535 H   0  0  0  0  0  0  0  0  0  0  0  0
    7.0237   -2.3724   24.3656 H   0  0  0  0  0  0  0  0  0  0  0  0
  1  2  1  0
  2  3  1  0
  3  4  1  0
  4  5  1  0
  5  6  2  0
  6  7  1  0
  7  8  2  0
  8  9  1  0
  9 10  2  0
 10 11  1  0
 11 12  2  0
 12 13  1  0
 13 14  2  0
 13 15  1  0
 12 16  1  0
 11 17  1  0
 10 18  1  0
  8 19  1  0
  6 20  1  0
  4 21  1  0
 21 22  2  0
 21 23  1  0
 23 24  1  1
 24 25  1  0
 25 26  1  0
 26 27  1  0
 27 28  2  0
 28 29  1  0
 29 30  2  0
 30 31  1  0
 31 32  1  0
 32 33  1  0
 32 34  1  0
 32 35  1  0
 30 36  1  0
 29 37  1  0
 26 38  1  0
 26 39  1  0
 25 40  1  0
 40 41  2  0
 40 42  1  0
 42 43  2  0
 43 44  1  0
 44 45  2  0
 45 46  1  0
 45 47  1  0
 47 48  2  0
 47 49  1  0
 44 50  1  0
 43 51  1  0
 24 52  1  0
 24 53  1  0
  3 54  1  0
  3 55  1  0
  2 56  1  6
  1 57  1  0
  1 58  1  0
  1 59  1  0
 23  2  1  0
 31 27  1  0
 48 42  1  0
 14  5  1  0
 48 23  1  0
 14  9  1  0
M  END
>  <cnnaffinities>  (56) 
[6.25361]

>  <score>  (56) 
6.25361

>  <index>  (56) 
71

>  <Smiles>  (56) 
C([C@]1(C(N(c2c(nc(c3c(c(c(c(c23)[H])[H])[H])[H])[H])[H])C(=O)[C@]21C(N(C(c1nc(c(n1C([H])([H])[H])[H])[H])([H])[H])C(=O)c1c(c(c(F)c(c21)[H])[H])[H])([H])[H])([H])[H])[H])([H])([H])[H]

>  <h>  (56) 
<NA>

>  <Training>  (56) 
True

>  <Success>  (56) 
True

>  <enamine_searched>  (56) 
False

>  <enamine_id>  (56) 
nan

$$$$

     RDKit          3D

 60 64  0  0  0  0  0  0  0  0999 V2000
    5.3212   -4.1982   26.5732 C   0  0  0  0  0  0  0  0  0  0  0  0
    5.6820   -2.8860   26.0350 N   0  0  0  0  0  0  0  0  0  0  0  0
    6.6044   -2.1433   26.7250 C   0  0  0  0  0  0  0  0  0  0  0  0
    7.2570   -2.6346   27.6327 O   0  0  0  0  0  0  0  0  0  0  0  0
    6.8085   -0.6852   26.2864 C   0  0  0  0  0  0  0  0  0  0  0  0
    7.7583   -0.5435   25.1868 N   0  0  0  0  0  0  0  0  0  0  0  0
    7.2385   -0.1346   23.8817 C   0  0  0  0  0  0  0  0  0  0  0  0
    8.1275   -0.5447   22.6749 C   0  0  2  0  0  0  0  0  0  0  0  0
    7.5738    0.1994   21.4476 C   0  0  0  0  0  0  0  0  0  0  0  0
    7.7994    1.3445   21.1152 O   0  0  0  0  0  0  0  0  0  0  0  0
    6.7043   -0.6507   20.7859 N   0  0  0  0  0  0  0  0  0  0  0  0
    5.8450   -0.2040   19.7360 C   0  0  0  0  0  0  0  0  0  0  0  0
    6.2867   -0.2365   18.4402 C   0  0  0  0  0  0  0  0  0  0  0  0
    5.5523    0.1102   17.3516 N   0  0  0  0  0  0  0  0  0  0  0  0
    4.3387    0.5518   17.5654 C   0  0  0  0  0  0  0  0  0  0  0  0
    3.7505    0.6884   18.8515 C   0  0  0  0  0  0  0  0  0  0  0  0
    2.4754    1.2957   19.0358 C   0  0  0  0  0  0  0  0  0  0  0  0
    1.9232    1.3899   20.2813 C   0  0  0  0  0  0  0  0  0  0  0  0
    2.6492    0.9303   21.4058 C   0  0  0  0  0  0  0  0  0  0  0  0
    3.9096    0.3951   21.2625 C   0  0  0  0  0  0  0  0  0  0  0  0
    4.5049    0.2638   19.9765 C   0  0  0  0  0  0  0  0  0  0  0  0
    4.4791    0.1035   22.1386 H   0  0  0  0  0  0  0  0  0  0  0  0
    2.2357    1.0731   22.3997 H   0  0  0  0  0  0  0  0  0  0  0  0
    0.9277    1.8063   20.4273 H   0  0  0  0  0  0  0  0  0  0  0  0
    1.9867    1.7533   18.1789 H   0  0  0  0  0  0  0  0  0  0  0  0
    3.7477    0.8134   16.6909 H   0  0  0  0  0  0  0  0  0  0  0  0
    7.2901   -0.5960   18.2303 H   0  0  0  0  0  0  0  0  0  0  0  0
    6.7447   -2.0281   21.2455 C   0  0  0  0  0  0  0  0  0  0  0  0
    7.9269   -2.0320   22.2217 C   0  0  2  0  0  0  0  0  0  0  0  0
    7.7774   -2.9981   23.2787 N   0  0  0  0  0  0  0  0  0  0  0  0
    8.8825   -3.4899   23.9324 C   0  0  0  0  0  0  0  0  0  0  0  0
   10.0256   -3.2238   23.6086 O   0  0  0  0  0  0  0  0  0  0  0  0
    8.5309   -4.4286   25.0652 C   0  0  0  0  0  0  0  0  0  0  0  0
    9.3450   -5.1370   25.2101 H   0  0  0  0  0  0  0  0  0  0  0  0
    8.3946   -3.8733   25.9976 H   0  0  0  0  0  0  0  0  0  0  0  0
    7.6037   -4.9670   24.8424 H   0  0  0  0  0  0  0  0  0  0  0  0
    6.9390   -2.9275   23.8430 H   0  0  0  0  0  0  0  0  0  0  0  0
    8.8387   -2.3072   21.6835 H   0  0  0  0  0  0  0  0  0  0  0  0
    6.8981   -2.7170   20.4066 H   0  0  0  0  0  0  0  0  0  0  0  0
    5.8109   -2.3216   21.7514 H   0  0  0  0  0  0  0  0  0  0  0  0
    9.5702   -0.2111   23.0217 C   0  0  0  0  0  0  0  0  0  0  0  0
   10.5206    0.0434   22.0154 C   0  0  0  0  0  0  0  0  0  0  0  0
   11.8504    0.2656   22.3508 C   0  0  0  0  0  0  0  0  0  0  0  0
   13.0872    0.6762   21.1919 Cl  0  0  0  0  0  0  0  0  0  0  0  0
   12.2887    0.1910   23.6672 C   0  0  0  0  0  0  0  0  0  0  0  0
   11.3637   -0.0499   24.6580 C   0  0  0  0  0  0  0  0  0  0  0  0
   10.0126   -0.2067   24.3529 C   0  0  0  0  0  0  0  0  0  0  0  0
    9.0750   -0.3070   25.5148 C   0  0  0  0  0  0  0  0  0  0  0  0
    9.4582   -0.1671   26.6691 O   0  0  0  0  0  0  0  0  0  0  0  0
   11.6737   -0.1009   25.6922 H   0  0  0  0  0  0  0  0  0  0  0  0
   13.3446    0.3400   23.8728 H   0  0  0  0  0  0  0  0  0  0  0  0
   10.1950    0.0809   20.9831 H   0  0  0  0  0  0  0  0  0  0  0  0
    6.2367   -0.5703   23.7775 H   0  0  0  0  0  0  0  0  0  0  0  0
    7.1340    0.9579   23.8339 H   0  0  0  0  0  0  0  0  0  0  0  0
    5.8520   -0.2398   25.9892 H   0  0  0  0  0  0  0  0  0  0  0  0
    7.2085   -0.1553   27.1559 H   0  0  0  0  0  0  0  0  0  0  0  0
    4.9735   -2.3938   25.5123 H   0  0  0  0  0  0  0  0  0  0  0  0
    4.9584   -4.1302   27.6070 H   0  0  0  0  0  0  0  0  0  0  0  0
    4.5488   -4.6525   25.9465 H   0  0  0  0  0  0  0  0  0  0  0  0
    6.2053   -4.8451   26.5845 H   0  0  0  0  0  0  0  0  0  0  0  0
  1  2  1  0
  2  3  1  0
  3  4  2  0
  3  5  1  0
  5  6  1  0
  6  7  1  0
  8  7  1  1
  8  9  1  0
  9 10  2  0
  9 11  1  0
 11 12  1  0
 12 13  2  0
 13 14  1  0
 14 15  2  0
 15 16  1  0
 16 17  2  0
 17 18  1  0
 18 19  2  0
 19 20  1  0
 20 21  2  0
 20 22  1  0
 19 23  1  0
 18 24  1  0
 17 25  1  0
 15 26  1  0
 13 27  1  0
 11 28  1  0
 28 29  1  0
 29 30  1  0
 30 31  1  0
 31 32  2  0
 31 33  1  0
 33 34  1  0
 33 35  1  0
 33 36  1  0
 30 37  1  0
 29 38  1  6
 28 39  1  0
 28 40  1  0
  8 41  1  0
 41 42  2  0
 42 43  1  0
 43 44  1  0
 43 45  2  0
 45 46  1  0
 46 47  2  0
 47 48  1  0
 48 49  2  0
 46 50  1  0
 45 51  1  0
 42 52  1  0
  7 53  1  0
  7 54  1  0
  5 55  1  0
  5 56  1  0
  2 57  1  0
  1 58  1  0
  1 59  1  0
  1 60  1  0
 48  6  1  0
 29  8  1  0
 47 41  1  0
 21 12  1  0
 21 16  1  0
M  END
>  <cnnaffinities>  (57) 
[5.9959]

>  <score>  (57) 
5.9959

>  <index>  (57) 
72

>  <Smiles>  (57) 
C(N(C(=O)C(N1C([C@@]2(C(=O)N(c3c(nc(c4c(c(c(c(c34)[H])[H])[H])[H])[H])[H])C([C@@]2(N(C(=O)C([H])([H])[H])[H])[H])([H])[H])c2c(c(Cl)c(c(c2C1=O)[H])[H])[H])([H])[H])([H])[H])[H])([H])([H])[H]

>  <h>  (57) 
<NA>

>  <Training>  (57) 
True

>  <Success>  (57) 
True

>  <enamine_searched>  (57) 
False

>  <enamine_id>  (57) 
nan

$$$$

     RDKit          3D

 56 61  0  0  0  0  0  0  0  0999 V2000
    7.7909   -2.9607   23.3356 C   0  0  0  0  0  0  0  0  0  0  0  0
    7.9613   -1.9529   22.2062 C   0  0  1  0  0  0  0  0  0  0  0  0
    6.7716   -1.9342   21.2353 C   0  0  0  0  0  0  0  0  0  0  0  0
    6.7160   -0.5547   20.7880 N   0  0  0  0  0  0  0  0  0  0  0  0
    5.8628   -0.1205   19.7376 C   0  0  0  0  0  0  0  0  0  0  0  0
    6.3060   -0.1791   18.4426 C   0  0  0  0  0  0  0  0  0  0  0  0
    5.5684    0.1512   17.3540 N   0  0  0  0  0  0  0  0  0  0  0  0
    4.3528    0.5915   17.5713 C   0  0  0  0  0  0  0  0  0  0  0  0
    3.7630    0.7360   18.8570 C   0  0  0  0  0  0  0  0  0  0  0  0
    2.4759    1.3214   19.0383 C   0  0  0  0  0  0  0  0  0  0  0  0
    1.9314    1.4388   20.2889 C   0  0  0  0  0  0  0  0  0  0  0  0
    2.6604    0.9966   21.4186 C   0  0  0  0  0  0  0  0  0  0  0  0
    3.9219    0.4651   21.2744 C   0  0  0  0  0  0  0  0  0  0  0  0
    4.5190    0.3287   19.9848 C   0  0  0  0  0  0  0  0  0  0  0  0
    4.4831    0.1606   22.1515 H   0  0  0  0  0  0  0  0  0  0  0  0
    2.2384    1.1424   22.4133 H   0  0  0  0  0  0  0  0  0  0  0  0
    0.9376    1.8689   20.4290 H   0  0  0  0  0  0  0  0  0  0  0  0
    1.9681    1.7384   18.1703 H   0  0  0  0  0  0  0  0  0  0  0  0
    3.7564    0.8325   16.6951 H   0  0  0  0  0  0  0  0  0  0  0  0
    7.3066   -0.5547   18.2376 H   0  0  0  0  0  0  0  0  0  0  0  0
    7.6007    0.2938   21.4252 C   0  0  0  0  0  0  0  0  0  0  0  0
    7.8165    1.4419   21.0924 O   0  0  0  0  0  0  0  0  0  0  0  0
    8.1873   -0.4590   22.6299 C   0  0  1  0  0  0  0  0  0  0  0  0
    7.3506   -0.0098   23.8690 C   0  0  0  0  0  0  0  0  0  0  0  0
    7.8860   -0.5053   25.1278 N   0  0  0  0  0  0  0  0  0  0  0  0
    7.0571   -1.0993   26.1639 C   0  0  0  0  0  0  0  0  0  0  0  0
    7.4507   -0.6437   27.5946 C   0  0  0  0  0  0  0  0  0  0  0  0
    6.0519   -0.0981   27.8670 N   0  0  0  0  0  4  0  0  0  0  0  0
    5.6500   -0.5238   26.4476 C   0  0  0  0  0  0  0  0  0  0  0  0
    5.3391    0.3235   25.8447 H   0  0  0  0  0  0  0  0  0  0  0  0
    4.8551   -1.2640   26.4728 H   0  0  0  0  0  0  0  0  0  0  0  0
    6.0350    0.9281   28.0155 H   0  0  0  0  0  0  0  0  0  0  0  0
    5.5536   -0.5871   28.6325 H   0  0  0  0  0  0  0  0  0  0  0  0
    7.7321   -1.4446   28.2693 H   0  0  0  0  0  0  0  0  0  0  0  0
    8.2005    0.1396   27.6235 H   0  0  0  0  0  0  0  0  0  0  0  0
    7.0592   -2.1962   26.0616 H   0  0  0  0  0  0  0  0  0  0  0  0
    9.2012   -0.8566   25.2500 C   0  0  0  0  0  0  0  0  0  0  0  0
    9.5674   -1.6028   26.1395 O   0  0  0  0  0  0  0  0  0  0  0  0
   10.1226   -0.3198   24.2199 C   0  0  0  0  0  0  0  0  0  0  0  0
   11.4562   -0.0927   24.5534 C   0  0  0  0  0  0  0  0  0  0  0  0
   12.3652    0.2595   23.5815 C   0  0  0  0  0  0  0  0  0  0  0  0
   11.9332    0.3267   22.2602 C   0  0  0  0  0  0  0  0  0  0  0  0
   13.1797    0.7013   21.1001 Cl  0  0  0  0  0  0  0  0  0  0  0  0
   10.6024    0.1066   21.9158 C   0  0  0  0  0  0  0  0  0  0  0  0
    9.6567   -0.1698   22.9118 C   0  0  0  0  0  0  0  0  0  0  0  0
   10.2712    0.1210   20.8879 H   0  0  0  0  0  0  0  0  0  0  0  0
   13.4102    0.4466   23.8104 H   0  0  0  0  0  0  0  0  0  0  0  0
   11.7720   -0.1947   25.5835 H   0  0  0  0  0  0  0  0  0  0  0  0
    6.3192   -0.3652   23.7591 H   0  0  0  0  0  0  0  0  0  0  0  0
    7.3368    1.0866   23.8782 H   0  0  0  0  0  0  0  0  0  0  0  0
    6.9270   -2.6074   20.3840 H   0  0  0  0  0  0  0  0  0  0  0  0
    5.8360   -2.2406   21.7293 H   0  0  0  0  0  0  0  0  0  0  0  0
    8.8618   -2.2168   21.6360 H   0  0  0  0  0  0  0  0  0  0  0  0
    8.6339   -2.9272   24.0335 H   0  0  0  0  0  0  0  0  0  0  0  0
    7.7038   -3.9773   22.9438 H   0  0  0  0  0  0  0  0  0  0  0  0
    6.8733   -2.7537   23.8928 H   0  0  0  0  0  0  0  0  0  0  0  0
  1  2  1  0
  2  3  1  0
  3  4  1  0
  4  5  1  0
  5  6  2  0
  6  7  1  0
  7  8  2  0
  8  9  1  0
  9 10  2  0
 10 11  1  0
 11 12  2  0
 12 13  1  0
 13 14  2  0
 13 15  1  0
 12 16  1  0
 11 17  1  0
 10 18  1  0
  8 19  1  0
  6 20  1  0
  4 21  1  0
 21 22  2  0
 21 23  1  0
 23 24  1  1
 24 25  1  0
 25 26  1  0
 26 27  1  0
 27 28  1  0
 28 29  1  0
 29 30  1  0
 29 31  1  0
 28 32  1  0
 28 33  1  0
 27 34  1  0
 27 35  1  0
 26 36  1  0
 25 37  1  0
 37 38  2  0
 37 39  1  0
 39 40  2  0
 40 41  1  0
 41 42  2  0
 42 43  1  0
 42 44  1  0
 44 45  2  0
 44 46  1  0
 41 47  1  0
 40 48  1  0
 24 49  1  0
 24 50  1  0
  3 51  1  0
  3 52  1  0
  2 53  1  6
  1 54  1  0
  1 55  1  0
  1 56  1  0
 23  2  1  0
 29 26  1  0
 45 39  1  0
 14  5  1  0
 45 23  1  0
 14  9  1  0
M  CHG  1  28   1
M  END
>  <cnnaffinities>  (58) 
[6.2457, 6.25926]

>  <score>  (58) 
6.2457

>  <index>  (58) 
73

>  <Smiles>  (58) 
C([C@]1(C(N(c2c(nc(c3c(c(c(c(c23)[H])[H])[H])[H])[H])[H])C(=O)[C@]21C(N(C1(C([N+](C1([H])[H])([H])[H])([H])[H])[H])C(=O)c1c(c(c(Cl)c(c21)[H])[H])[H])([H])[H])([H])[H])[H])([H])([H])[H]

>  <h>  (58) 
<NA>

>  <Training>  (58) 
True

>  <Success>  (58) 
True

>  <enamine_searched>  (58) 
False

>  <enamine_id>  (58) 
nan

$$$$

     RDKit          3D

 55 60  0  0  0  0  0  0  0  0999 V2000
    7.7487   -3.0333   23.2730 C   0  0  0  0  0  0  0  0  0  0  0  0
    7.9899   -1.9702   22.2153 C   0  0  1  0  0  0  0  0  0  0  0  0
    6.8070   -1.9227   21.2356 C   0  0  0  0  0  0  0  0  0  0  0  0
    6.7185   -0.5298   20.8704 N   0  0  0  0  0  0  0  0  0  0  0  0
    5.8751   -0.1018   19.8074 C   0  0  0  0  0  0  0  0  0  0  0  0
    6.3110   -0.2006   18.5116 C   0  0  0  0  0  0  0  0  0  0  0  0
    5.6130    0.1813   17.4094 N   0  0  0  0  0  0  0  0  0  0  0  0
    4.4063    0.6543   17.6081 C   0  0  0  0  0  0  0  0  0  0  0  0
    3.8005    0.7500   18.8917 C   0  0  0  0  0  0  0  0  0  0  0  0
    2.5095    1.3198   19.0530 C   0  0  0  0  0  0  0  0  0  0  0  0
    1.9890    1.5605   20.2983 C   0  0  0  0  0  0  0  0  0  0  0  0
    2.7185    1.1782   21.4471 C   0  0  0  0  0  0  0  0  0  0  0  0
    3.9456    0.5675   21.3253 C   0  0  0  0  0  0  0  0  0  0  0  0
    4.5439    0.3740   20.0421 C   0  0  0  0  0  0  0  0  0  0  0  0
    4.4635    0.2225   22.2153 H   0  0  0  0  0  0  0  0  0  0  0  0
    2.3155    1.4087   22.4312 H   0  0  0  0  0  0  0  0  0  0  0  0
    1.0151    2.0367   20.4092 H   0  0  0  0  0  0  0  0  0  0  0  0
    1.9883    1.6422   18.1640 H   0  0  0  0  0  0  0  0  0  0  0  0
    3.8440    0.9893   16.7326 H   0  0  0  0  0  0  0  0  0  0  0  0
    7.3176   -0.5670   18.3157 H   0  0  0  0  0  0  0  0  0  0  0  0
    7.5676    0.3091   21.5730 C   0  0  0  0  0  0  0  0  0  0  0  0
    7.7246    1.4836   21.3230 O   0  0  0  0  0  0  0  0  0  0  0  0
    8.2004   -0.5005   22.7352 C   0  0  1  0  0  0  0  0  0  0  0  0
    7.3718   -0.1335   23.9966 C   0  0  0  0  0  0  0  0  0  0  0  0
    7.9974   -0.5449   25.2507 N   0  0  0  0  0  0  0  0  0  0  0  0
    7.1742   -0.8836   26.4048 C   0  0  0  0  0  0  0  0  0  0  0  0
    7.0143   -2.3699   26.6171 C   0  0  0  0  0  0  0  0  0  0  0  0
    7.9232   -3.3486   27.1328 C   0  0  0  0  0  0  0  0  0  0  0  0
    7.1875   -4.4861   27.1228 C   0  0  0  0  0  0  0  0  0  0  0  0
    5.9557   -4.2478   26.6584 O   0  0  0  0  0  0  0  0  0  0  0  0
    5.8554   -2.9119   26.3349 N   0  0  0  0  0  0  0  0  0  0  0  0
    7.3848   -5.5087   27.4115 H   0  0  0  0  0  0  0  0  0  0  0  0
    8.9530   -3.2410   27.4454 H   0  0  0  0  0  0  0  0  0  0  0  0
    6.1750   -0.4556   26.2791 H   0  0  0  0  0  0  0  0  0  0  0  0
    7.6536   -0.4213   27.2745 H   0  0  0  0  0  0  0  0  0  0  0  0
    9.2965   -0.1774   25.5126 C   0  0  0  0  0  0  0  0  0  0  0  0
    9.7109    0.0456   26.6396 O   0  0  0  0  0  0  0  0  0  0  0  0
   10.1775   -0.1125   24.3148 C   0  0  0  0  0  0  0  0  0  0  0  0
   11.5454    0.0005   24.5621 C   0  0  0  0  0  0  0  0  0  0  0  0
   12.4400    0.1539   23.5280 C   0  0  0  0  0  0  0  0  0  0  0  0
   11.9260    0.2151   22.2406 C   0  0  0  0  0  0  0  0  0  0  0  0
   12.8099    0.4589   21.2607 F   0  0  0  0  0  0  0  0  0  0  0  0
   10.5783    0.0320   21.9580 C   0  0  0  0  0  0  0  0  0  0  0  0
    9.6668   -0.1597   23.0092 C   0  0  0  0  0  0  0  0  0  0  0  0
   10.2334    0.0150   20.9302 H   0  0  0  0  0  0  0  0  0  0  0  0
   13.5134    0.2137   23.6820 H   0  0  0  0  0  0  0  0  0  0  0  0
   11.8872   -0.0443   25.5870 H   0  0  0  0  0  0  0  0  0  0  0  0
    7.2376    0.9574   23.9780 H   0  0  0  0  0  0  0  0  0  0  0  0
    6.3682   -0.5739   23.9445 H   0  0  0  0  0  0  0  0  0  0  0  0
    5.8814   -2.2808   21.7160 H   0  0  0  0  0  0  0  0  0  0  0  0
    6.9574   -2.5499   20.3463 H   0  0  0  0  0  0  0  0  0  0  0  0
    8.8954   -2.2127   21.6421 H   0  0  0  0  0  0  0  0  0  0  0  0
    7.7061   -4.0257   22.8145 H   0  0  0  0  0  0  0  0  0  0  0  0
    8.5313   -3.0334   24.0320 H   0  0  0  0  0  0  0  0  0  0  0  0
    6.7904   -2.8542   23.7684 H   0  0  0  0  0  0  0  0  0  0  0  0
  1  2  1  0
  2  3  1  0
  3  4  1  0
  4  5  1  0
  5  6  2  0
  6  7  1  0
  7  8  2  0
  8  9  1  0
  9 10  2  0
 10 11  1  0
 11 12  2  0
 12 13  1  0
 13 14  2  0
 13 15  1  0
 12 16  1  0
 11 17  1  0
 10 18  1  0
  8 19  1  0
  6 20  1  0
  4 21  1  0
 21 22  2  0
 21 23  1  0
 23 24  1  1
 24 25  1  0
 25 26  1  0
 26 27  1  0
 27 28  1  0
 28 29  2  0
 29 30  1  0
 30 31  1  0
 29 32  1  0
 28 33  1  0
 26 34  1  0
 26 35  1  0
 25 36  1  0
 36 37  2  0
 36 38  1  0
 38 39  2  0
 39 40  1  0
 40 41  2  0
 41 42  1  0
 41 43  1  0
 43 44  2  0
 43 45  1  0
 40 46  1  0
 39 47  1  0
 24 48  1  0
 24 49  1  0
  3 50  1  0
  3 51  1  0
  2 52  1  6
  1 53  1  0
  1 54  1  0
  1 55  1  0
 23  2  1  0
 31 27  2  0
 44 38  1  0
 14  5  1  0
 44 23  1  0
 14  9  1  0
M  END
>  <cnnaffinities>  (59) 
[6.33892]

>  <score>  (59) 
6.33892

>  <index>  (59) 
74

>  <Smiles>  (59) 
C([C@]1(C(N(c2c(nc(c3c(c(c(c(c23)[H])[H])[H])[H])[H])[H])C(=O)[C@]21C(N(C(c1c(c(on1)[H])[H])([H])[H])C(=O)c1c(c(c(F)c(c21)[H])[H])[H])([H])[H])([H])[H])[H])([H])([H])[H]

>  <h>  (59) 
<NA>

>  <Training>  (59) 
True

>  <Success>  (59) 
True

>  <enamine_searched>  (59) 
False

>  <enamine_id>  (59) 
nan

$$$$

     RDKit          3D

 61 65  0  0  0  0  0  0  0  0999 V2000
    7.8043   -3.0420   23.2754 C   0  0  0  0  0  0  0  0  0  0  0  0
    8.0292   -1.9614   22.2253 C   0  0  1  0  0  0  0  0  0  0  0  0
    6.8440   -1.9166   21.2462 C   0  0  0  0  0  0  0  0  0  0  0  0
    6.7427   -0.5218   20.8843 N   0  0  0  0  0  0  0  0  0  0  0  0
    5.8910   -0.1014   19.8247 C   0  0  0  0  0  0  0  0  0  0  0  0
    6.3248   -0.2050   18.5234 C   0  0  0  0  0  0  0  0  0  0  0  0
    5.6224    0.1745   17.4250 N   0  0  0  0  0  0  0  0  0  0  0  0
    4.4199    0.6506   17.6221 C   0  0  0  0  0  0  0  0  0  0  0  0
    3.8153    0.7505   18.9058 C   0  0  0  0  0  0  0  0  0  0  0  0
    2.5227    1.3138   19.0640 C   0  0  0  0  0  0  0  0  0  0  0  0
    1.9944    1.5550   20.3032 C   0  0  0  0  0  0  0  0  0  0  0  0
    2.7285    1.1819   21.4499 C   0  0  0  0  0  0  0  0  0  0  0  0
    3.9561    0.5752   21.3301 C   0  0  0  0  0  0  0  0  0  0  0  0
    4.5599    0.3787   20.0529 C   0  0  0  0  0  0  0  0  0  0  0  0
    4.4626    0.2266   22.2207 H   0  0  0  0  0  0  0  0  0  0  0  0
    2.3253    1.4139   22.4313 H   0  0  0  0  0  0  0  0  0  0  0  0
    1.0240    2.0357   20.4127 H   0  0  0  0  0  0  0  0  0  0  0  0
    2.0011    1.6324   18.1729 H   0  0  0  0  0  0  0  0  0  0  0  0
    3.8586    0.9789   16.7445 H   0  0  0  0  0  0  0  0  0  0  0  0
    7.3271   -0.5756   18.3243 H   0  0  0  0  0  0  0  0  0  0  0  0
    7.5946    0.3189   21.5869 C   0  0  0  0  0  0  0  0  0  0  0  0
    7.7458    1.4961   21.3450 O   0  0  0  0  0  0  0  0  0  0  0  0
    8.2306   -0.4903   22.7491 C   0  0  1  0  0  0  0  0  0  0  0  0
    7.3905   -0.1292   24.0024 C   0  0  0  0  0  0  0  0  0  0  0  0
    8.0012   -0.6005   25.2390 N   0  0  0  0  0  0  0  0  0  0  0  0
    7.1620   -1.1047   26.3090 C   0  0  0  0  0  0  0  0  0  0  0  0
    6.4338   -0.0125   27.0849 C   0  0  0  0  0  0  0  0  0  0  0  0
    7.3516    0.8349   27.9132 N   0  0  0  0  0  4  0  0  0  0  0  0
    7.7513    2.1059   27.2597 C   0  0  0  0  0  0  0  0  0  0  0  0
    8.4060    2.6595   27.9386 H   0  0  0  0  0  0  0  0  0  0  0  0
    6.8664    2.7186   27.0554 H   0  0  0  0  0  0  0  0  0  0  0  0
    8.2827    1.9181   26.3299 H   0  0  0  0  0  0  0  0  0  0  0  0
    6.7143    1.1731   29.2026 C   0  0  0  0  0  0  0  0  0  0  0  0
    5.8084    1.7610   29.0074 H   0  0  0  0  0  0  0  0  0  0  0  0
    6.4323    0.2697   29.7473 H   0  0  0  0  0  0  0  0  0  0  0  0
    7.3922    1.7728   29.8122 H   0  0  0  0  0  0  0  0  0  0  0  0
    8.2210    0.3017   28.0584 H   0  0  0  0  0  0  0  0  0  0  0  0
    5.8682    0.6271   26.3971 H   0  0  0  0  0  0  0  0  0  0  0  0
    5.7185   -0.4854   27.7606 H   0  0  0  0  0  0  0  0  0  0  0  0
    6.4374   -1.8086   25.8837 H   0  0  0  0  0  0  0  0  0  0  0  0
    7.8133   -1.6637   26.9890 H   0  0  0  0  0  0  0  0  0  0  0  0
    9.2780   -0.2585   25.5511 C   0  0  0  0  0  0  0  0  0  0  0  0
    9.6662   -0.1126   26.7139 O   0  0  0  0  0  0  0  0  0  0  0  0
   10.1775   -0.0983   24.3805 C   0  0  0  0  0  0  0  0  0  0  0  0
   11.5317    0.0470   24.6664 C   0  0  0  0  0  0  0  0  0  0  0  0
   12.4444    0.2266   23.6542 C   0  0  0  0  0  0  0  0  0  0  0  0
   11.9759    0.2871   22.3451 C   0  0  0  0  0  0  0  0  0  0  0  0
   13.1963    0.6502   21.1545 Cl  0  0  0  0  0  0  0  0  0  0  0  0
   10.6333    0.0725   22.0321 C   0  0  0  0  0  0  0  0  0  0  0  0
    9.6942   -0.1400   23.0593 C   0  0  0  0  0  0  0  0  0  0  0  0
   10.2975    0.0475   21.0010 H   0  0  0  0  0  0  0  0  0  0  0  0
   13.5090    0.3071   23.8545 H   0  0  0  0  0  0  0  0  0  0  0  0
   11.8450    0.0054   25.6998 H   0  0  0  0  0  0  0  0  0  0  0  0
    6.3694   -0.5224   23.9245 H   0  0  0  0  0  0  0  0  0  0  0  0
    7.2894    0.9667   23.9992 H   0  0  0  0  0  0  0  0  0  0  0  0
    6.9988   -2.5381   20.3538 H   0  0  0  0  0  0  0  0  0  0  0  0
    5.9202   -2.2836   21.7221 H   0  0  0  0  0  0  0  0  0  0  0  0
    8.9349   -2.1907   21.6474 H   0  0  0  0  0  0  0  0  0  0  0  0
    8.6061   -3.0742   24.0137 H   0  0  0  0  0  0  0  0  0  0  0  0
    6.8616   -2.8662   23.8078 H   0  0  0  0  0  0  0  0  0  0  0  0
    7.7301   -4.0247   22.7998 H   0  0  0  0  0  0  0  0  0  0  0  0
  1  2  1  0
  2  3  1  0
  3  4  1  0
  4  5  1  0
  5  6  2  0
  6  7  1  0
  7  8  2  0
  8  9  1  0
  9 10  2  0
 10 11  1  0
 11 12  2  0
 12 13  1  0
 13 14  2  0
 13 15  1  0
 12 16  1  0
 11 17  1  0
 10 18  1  0
  8 19  1  0
  6 20  1  0
  4 21  1  0
 21 22  2  0
 21 23  1  0
 23 24  1  1
 24 25  1  0
 25 26  1  0
 26 27  1  0
 27 28  1  0
 28 29  1  0
 29 30  1  0
 29 31  1  0
 29 32  1  0
 28 33  1  0
 33 34  1  0
 33 35  1  0
 33 36  1  0
 28 37  1  0
 27 38  1  0
 27 39  1  0
 26 40  1  0
 26 41  1  0
 25 42  1  0
 42 43  2  0
 42 44  1  0
 44 45  2  0
 45 46  1  0
 46 47  2  0
 47 48  1  0
 47 49  1  0
 49 50  2  0
 49 51  1  0
 46 52  1  0
 45 53  1  0
 24 54  1  0
 24 55  1  0
  3 56  1  0
  3 57  1  0
  2 58  1  6
  1 59  1  0
  1 60  1  0
  1 61  1  0
 23  2  1  0
 50 44  1  0
 14  5  1  0
 50 23  1  0
 14  9  1  0
M  CHG  1  28   1
M  END
>  <cnnaffinities>  (60) 
[6.3805]

>  <score>  (60) 
6.3805

>  <index>  (60) 
76

>  <Smiles>  (60) 
C([C@]1(C(N(c2c(nc(c3c(c(c(c(c23)[H])[H])[H])[H])[H])[H])C(=O)[C@]21C(N(C(C([N+](C([H])([H])[H])(C([H])([H])[H])[H])([H])[H])([H])[H])C(=O)c1c(c(c(Cl)c(c21)[H])[H])[H])([H])[H])([H])[H])[H])([H])([H])[H]

>  <h>  (60) 
<NA>

>  <Training>  (60) 
True

>  <Success>  (60) 
True

>  <enamine_searched>  (60) 
False

>  <enamine_id>  (60) 
nan

$$$$

     RDKit          3D

 40 42  0  0  0  0  0  0  0  0999 V2000
    9.8617   -1.8463   25.1820 C   0  0  0  0  0  0  0  0  0  0  0  0
    9.5846   -0.3366   25.1919 C   0  0  0  0  0  0  0  0  0  0  0  0
   10.3135    0.3738   24.0235 C   0  0  0  0  0  0  0  0  0  0  0  0
    9.3804    1.2583   23.1940 C   0  0  0  0  0  0  0  0  0  0  0  0
    8.2163    0.4941   22.7447 N   0  0  0  0  0  0  0  0  0  0  0  0
    7.8764    0.5070   21.4178 C   0  0  0  0  0  0  0  0  0  0  0  0
    8.4186    1.2607   20.6138 O   0  0  0  0  0  0  0  0  0  0  0  0
    6.8673   -0.5627   20.9500 C   0  0  0  0  0  0  0  0  0  0  0  0
    5.9412   -0.1443   19.8379 C   0  0  0  0  0  0  0  0  0  0  0  0
    6.3781   -0.2389   18.5399 C   0  0  0  0  0  0  0  0  0  0  0  0
    5.6836    0.1066   17.4276 N   0  0  0  0  0  0  0  0  0  0  0  0
    4.4676    0.5518   17.6184 C   0  0  0  0  0  0  0  0  0  0  0  0
    3.8671    0.6979   18.8963 C   0  0  0  0  0  0  0  0  0  0  0  0
    2.5757    1.2694   19.0497 C   0  0  0  0  0  0  0  0  0  0  0  0
    2.0484    1.4784   20.2913 C   0  0  0  0  0  0  0  0  0  0  0  0
    2.7915    1.1364   21.4456 C   0  0  0  0  0  0  0  0  0  0  0  0
    4.0324    0.5553   21.3352 C   0  0  0  0  0  0  0  0  0  0  0  0
    4.6181    0.3422   20.0527 C   0  0  0  0  0  0  0  0  0  0  0  0
    4.5688    0.2473   22.2296 H   0  0  0  0  0  0  0  0  0  0  0  0
    2.3644    1.3747   22.4166 H   0  0  0  0  0  0  0  0  0  0  0  0
    1.0546    1.9128   20.4032 H   0  0  0  0  0  0  0  0  0  0  0  0
    2.0268    1.5913   18.1713 H   0  0  0  0  0  0  0  0  0  0  0  0
    3.9012    0.8409   16.7305 H   0  0  0  0  0  0  0  0  0  0  0  0
    7.3846   -0.5990   18.3485 H   0  0  0  0  0  0  0  0  0  0  0  0
    6.2954   -0.9847   21.7812 H   0  0  0  0  0  0  0  0  0  0  0  0
    7.5048   -1.3800   20.5745 H   0  0  0  0  0  0  0  0  0  0  0  0
    7.4982   -0.2858   23.7520 C   0  0  0  0  0  0  0  0  0  0  0  0
    8.0814   -0.0289   25.1374 C   0  0  0  0  0  0  0  0  0  0  0  0
    7.5324   -0.6165   25.8815 H   0  0  0  0  0  0  0  0  0  0  0  0
    7.9175    1.0236   25.3920 H   0  0  0  0  0  0  0  0  0  0  0  0
    6.4344   -0.0082   23.7494 H   0  0  0  0  0  0  0  0  0  0  0  0
    7.5507   -1.3581   23.5141 H   0  0  0  0  0  0  0  0  0  0  0  0
    9.8783    1.6340   22.3006 H   0  0  0  0  0  0  0  0  0  0  0  0
    9.0544    2.1258   23.7842 H   0  0  0  0  0  0  0  0  0  0  0  0
   10.7527   -0.3739   23.3509 H   0  0  0  0  0  0  0  0  0  0  0  0
   11.1432    0.9733   24.4139 H   0  0  0  0  0  0  0  0  0  0  0  0
    9.9668    0.0584   26.1421 H   0  0  0  0  0  0  0  0  0  0  0  0
   10.9276   -2.0568   25.0722 H   0  0  0  0  0  0  0  0  0  0  0  0
    9.3660   -2.3493   24.3453 H   0  0  0  0  0  0  0  0  0  0  0  0
    9.5227   -2.3239   26.1062 H   0  0  0  0  0  0  0  0  0  0  0  0
  1  2  1  0
  2  3  1  0
  3  4  1  0
  4  5  1  0
  5  6  1  0
  6  7  2  0
  6  8  1  0
  8  9  1  0
  9 10  2  0
 10 11  1  0
 11 12  2  0
 12 13  1  0
 13 14  2  0
 14 15  1  0
 15 16  2  0
 16 17  1  0
 17 18  2  0
 17 19  1  0
 16 20  1  0
 15 21  1  0
 14 22  1  0
 12 23  1  0
 10 24  1  0
  8 25  1  0
  8 26  1  0
  5 27  1  0
 27 28  1  0
 28 29  1  0
 28 30  1  0
 27 31  1  0
 27 32  1  0
  4 33  1  0
  4 34  1  0
  3 35  1  0
  3 36  1  0
  2 37  1  0
  1 38  1  0
  1 39  1  0
  1 40  1  0
 28  2  1  0
 18  9  1  0
 18 13  1  0
M  END
>  <cnnaffinities>  (61) 
[5.1539]

>  <score>  (61) 
5.1539

>  <index>  (61) 
79

>  <Smiles>  (61) 
C(C1(C(C(N(C(=O)C(c2c(nc(c3c(c(c(c(c23)[H])[H])[H])[H])[H])[H])([H])[H])C(C1([H])[H])([H])[H])([H])[H])([H])[H])[H])([H])([H])[H]

>  <h>  (61) 
<NA>

>  <Training>  (61) 
True

>  <Success>  (61) 
True

>  <enamine_searched>  (61) 
False

>  <enamine_id>  (61) 
nan

$$$$

     RDKit          3D

 59 64  0  0  0  0  0  0  0  0999 V2000
    7.3348   -3.2118   23.1953 C   0  0  0  0  0  0  0  0  0  0  0  0
    7.2276   -2.3011   21.9893 C   0  0  1  0  0  0  0  0  0  0  0  0
    5.8774   -1.5934   21.8119 C   0  0  0  0  0  0  0  0  0  0  0  0
    6.2013   -0.5161   20.8799 N   0  0  0  0  0  0  0  0  0  0  0  0
    5.4455   -0.1783   19.7365 C   0  0  0  0  0  0  0  0  0  0  0  0
    5.9836   -0.2992   18.4760 C   0  0  0  0  0  0  0  0  0  0  0  0
    5.3553    0.0722   17.3365 N   0  0  0  0  0  0  0  0  0  0  0  0
    4.1752    0.6312   17.4623 C   0  0  0  0  0  0  0  0  0  0  0  0
    3.5050    0.8203   18.7021 C   0  0  0  0  0  0  0  0  0  0  0  0
    2.2847    1.5385   18.8135 C   0  0  0  0  0  0  0  0  0  0  0  0
    1.6687    1.6803   20.0253 C   0  0  0  0  0  0  0  0  0  0  0  0
    2.2577    1.1436   21.1926 C   0  0  0  0  0  0  0  0  0  0  0  0
    3.4584    0.4803   21.1223 C   0  0  0  0  0  0  0  0  0  0  0  0
    4.1214    0.3308   19.8744 C   0  0  0  0  0  0  0  0  0  0  0  0
    3.9260    0.1061   22.0279 H   0  0  0  0  0  0  0  0  0  0  0  0
    1.7734    1.2790   22.1556 H   0  0  0  0  0  0  0  0  0  0  0  0
    0.7308    2.2226   20.1062 H   0  0  0  0  0  0  0  0  0  0  0  0
    1.8788    2.0104   17.9263 H   0  0  0  0  0  0  0  0  0  0  0  0
    3.6998    0.9696   16.5453 H   0  0  0  0  0  0  0  0  0  0  0  0
    6.9788   -0.7190   18.3450 H   0  0  0  0  0  0  0  0  0  0  0  0
    7.5350   -0.1559   20.9667 C   0  0  0  0  0  0  0  0  0  0  0  0
    8.0652    0.7633   20.3763 O   0  0  0  0  0  0  0  0  0  0  0  0
    8.2610   -1.1393   21.8716 C   0  0  1  0  0  0  0  0  0  0  0  0
    8.7138   -0.4493   23.1780 C   0  0  0  0  0  0  0  0  0  0  0  0
    9.6239   -1.2503   24.0088 N   0  0  0  0  0  0  0  0  0  0  0  0
    9.6168   -0.9731   25.4367 C   0  0  0  0  0  0  0  0  0  0  0  0
    8.8440   -1.9848   26.2351 C   0  0  0  0  0  0  0  0  0  0  0  0
    9.0822   -3.3294   26.4209 C   0  0  0  0  0  0  0  0  0  0  0  0
    8.0743   -3.7572   27.3052 C   0  0  0  0  0  0  0  0  0  0  0  0
    7.2654   -2.7590   27.6394 N   0  0  0  0  0  0  0  0  0  0  0  0
    7.7498   -1.6898   26.9867 N   0  0  0  0  0  0  0  0  0  0  0  0
    7.0481   -0.4267   27.0702 C   0  0  0  0  0  0  0  0  0  0  0  0
    6.7317   -0.0943   26.0735 H   0  0  0  0  0  0  0  0  0  0  0  0
    7.6739    0.3507   27.5245 H   0  0  0  0  0  0  0  0  0  0  0  0
    6.1648   -0.5912   27.6879 H   0  0  0  0  0  0  0  0  0  0  0  0
    7.8961   -4.7441   27.7172 H   0  0  0  0  0  0  0  0  0  0  0  0
    9.8776   -3.9109   25.9718 H   0  0  0  0  0  0  0  0  0  0  0  0
    9.2225    0.0368   25.5932 H   0  0  0  0  0  0  0  0  0  0  0  0
   10.6571   -0.9741   25.7677 H   0  0  0  0  0  0  0  0  0  0  0  0
   10.6301   -2.0856   23.5422 C   0  0  0  0  0  0  0  0  0  0  0  0
   11.4946   -2.5184   24.2850 O   0  0  0  0  0  0  0  0  0  0  0  0
   10.6546   -2.4303   22.0961 C   0  0  0  0  0  0  0  0  0  0  0  0
   12.1071   -2.7296   21.7552 C   0  0  0  0  0  0  0  0  0  0  0  0
   12.5447   -3.2332   20.5800 C   0  0  0  0  0  0  0  0  0  0  0  0
   12.5900   -3.3520   20.5850 C   0  0  0  0  0  0  0  0  0  0  0  0
   13.3840   -4.3732   20.2584 F   0  0  0  0  0  0  0  0  0  0  0  0
    9.8600   -2.8225   21.0986 C   0  0  0  0  0  0  0  0  0  0  0  0
    9.5548   -1.5103   21.1497 C   0  0  0  0  0  0  0  0  0  0  0  0
   10.0427   -0.6869   20.5841 H   0  0  0  0  0  0  0  0  0  0  0  0
   12.1827   -3.0231   19.4413 H   0  0  0  0  0  0  0  0  0  0  0  0
   12.7163   -3.4870   22.0902 H   0  0  0  0  0  0  0  0  0  0  0  0
    7.8496   -0.1735   23.7947 H   0  0  0  0  0  0  0  0  0  0  0  0
    9.2034    0.4808   22.8608 H   0  0  0  0  0  0  0  0  0  0  0  0
    5.5224   -1.1898   22.7732 H   0  0  0  0  0  0  0  0  0  0  0  0
    5.0928   -2.2369   21.4027 H   0  0  0  0  0  0  0  0  0  0  0  0
    7.3777   -2.9006   21.0850 H   0  0  0  0  0  0  0  0  0  0  0  0
    6.5530   -3.9756   23.1761 H   0  0  0  0  0  0  0  0  0  0  0  0
    7.2379   -2.6508   24.1276 H   0  0  0  0  0  0  0  0  0  0  0  0
    8.3064   -3.7142   23.1924 H   0  0  0  0  0  0  0  0  0  0  0  0
  1  2  1  0
  2  3  1  0
  3  4  1  0
  4  5  1  0
  5  6  2  0
  6  7  1  0
  7  8  2  0
  8  9  1  0
  9 10  2  0
 10 11  1  0
 11 12  2  0
 12 13  1  0
 13 14  2  0
 13 15  1  0
 12 16  1  0
 11 17  1  0
 10 18  1  0
  8 19  1  0
  6 20  1  0
  4 21  1  0
 21 22  2  0
 21 23  1  0
 23 24  1  1
 24 25  1  0
 25 26  1  0
 26 27  1  0
 27 28  2  0
 28 29  1  0
 29 30  2  0
 30 31  1  0
 31 32  1  0
 32 33  1  0
 32 34  1  0
 32 35  1  0
 29 36  1  0
 28 37  1  0
 26 38  1  0
 26 39  1  0
 25 40  1  0
 40 41  2  0
 40 42  1  0
 42 43  2  0
 43 44  1  0
 44 45  2  0
 45 46  1  0
 45 47  1  0
 47 48  2  0
 47 49  1  0
 44 50  1  0
 43 51  1  0
 24 52  1  0
 24 53  1  0
  3 54  1  0
  3 55  1  0
  2 56  1  6
  1 57  1  0
  1 58  1  0
  1 59  1  0
 23  2  1  0
 31 27  1  0
 48 42  1  0
 14  5  1  0
 48 23  1  0
 14  9  1  0
M  END
>  <cnnaffinities>  (62) 
[6.01862]

>  <score>  (62) 
6.01862

>  <index>  (62) 
80

>  <Smiles>  (62) 
C([C@]1(C(N(c2c(nc(c3c(c(c(c(c23)[H])[H])[H])[H])[H])[H])C(=O)[C@]21C(N(C(c1c(c(nn1C([H])([H])[H])[H])[H])([H])[H])C(=O)c1c(c(c(F)c(c21)[H])[H])[H])([H])[H])([H])[H])[H])([H])([H])[H]

>  <h>  (62) 
<NA>

>  <Training>  (62) 
True

>  <Success>  (62) 
True

>  <enamine_searched>  (62) 
False

>  <enamine_id>  (62) 
nan

$$$$

     RDKit          3D

 58 63  0  0  0  0  0  0  0  0999 V2000
    5.2818    5.3621   22.1303 C   0  0  0  0  0  0  0  0  0  0  0  0
    6.3669    4.8820   23.0261 C   0  0  0  0  0  0  0  0  0  0  0  0
    6.3311    3.8834   23.8481 N   0  0  0  0  0  0  0  0  0  0  0  0
    7.6541    3.7040   24.2444 C   0  0  0  0  0  0  0  0  0  0  0  0
    8.0206    2.5233   25.0992 C   0  0  0  0  0  0  0  0  0  0  0  0
    8.6756    1.4571   24.3345 N   0  0  0  0  0  0  0  0  0  0  0  0
    8.0194    0.1830   24.0819 C   0  0  0  0  0  0  0  0  0  0  0  0
    8.3127   -0.4134   22.6743 C   0  0  2  0  0  0  0  0  0  0  0  0
    7.5457    0.3607   21.5637 C   0  0  0  0  0  0  0  0  0  0  0  0
    7.6801    1.5166   21.2507 O   0  0  0  0  0  0  0  0  0  0  0  0
    6.6644   -0.5199   20.9542 N   0  0  0  0  0  0  0  0  0  0  0  0
    5.8566   -0.1226   19.8546 C   0  0  0  0  0  0  0  0  0  0  0  0
    6.3271   -0.2161   18.5676 C   0  0  0  0  0  0  0  0  0  0  0  0
    5.6385    0.1532   17.4554 N   0  0  0  0  0  0  0  0  0  0  0  0
    4.4236    0.6100   17.6345 C   0  0  0  0  0  0  0  0  0  0  0  0
    3.7964    0.7213   18.9104 C   0  0  0  0  0  0  0  0  0  0  0  0
    2.5115    1.2954   19.0648 C   0  0  0  0  0  0  0  0  0  0  0  0
    1.9792    1.5317   20.3000 C   0  0  0  0  0  0  0  0  0  0  0  0
    2.6934    1.1650   21.4586 C   0  0  0  0  0  0  0  0  0  0  0  0
    3.9180    0.5504   21.3428 C   0  0  0  0  0  0  0  0  0  0  0  0
    4.5224    0.3527   20.0672 C   0  0  0  0  0  0  0  0  0  0  0  0
    4.4441    0.2072   22.2243 H   0  0  0  0  0  0  0  0  0  0  0  0
    2.2895    1.3978   22.4378 H   0  0  0  0  0  0  0  0  0  0  0  0
    1.0157    2.0193   20.4013 H   0  0  0  0  0  0  0  0  0  0  0  0
    2.0060    1.6145   18.1676 H   0  0  0  0  0  0  0  0  0  0  0  0
    3.8805    0.9275   16.7439 H   0  0  0  0  0  0  0  0  0  0  0  0
    7.3350   -0.5769   18.3748 H   0  0  0  0  0  0  0  0  0  0  0  0
    7.0447   -1.8984   21.1479 C   0  0  0  0  0  0  0  0  0  0  0  0
    7.7442   -1.8756   22.5192 C   0  0  2  0  0  0  0  0  0  0  0  0
    6.7566   -2.3347   23.6031 C   0  0  0  0  0  0  0  0  0  0  0  0
    7.2224   -2.3940   24.5909 H   0  0  0  0  0  0  0  0  0  0  0  0
    5.8886   -1.6699   23.6699 H   0  0  0  0  0  0  0  0  0  0  0  0
    6.3813   -3.3371   23.3656 H   0  0  0  0  0  0  0  0  0  0  0  0
    8.5695   -2.5918   22.5344 H   0  0  0  0  0  0  0  0  0  0  0  0
    6.1620   -2.5486   21.1457 H   0  0  0  0  0  0  0  0  0  0  0  0
    7.7127   -2.2404   20.3441 H   0  0  0  0  0  0  0  0  0  0  0  0
    9.8246   -0.3221   22.4571 C   0  0  0  0  0  0  0  0  0  0  0  0
   10.4691   -1.1676   21.5443 C   0  0  0  0  0  0  0  0  0  0  0  0
   11.8349   -1.0672   21.3581 C   0  0  0  0  0  0  0  0  0  0  0  0
   12.4249   -1.8796   20.4636 F   0  0  0  0  0  0  0  0  0  0  0  0
   12.6182   -0.1431   22.0375 C   0  0  0  0  0  0  0  0  0  0  0  0
   11.9890    0.6975   22.9324 C   0  0  0  0  0  0  0  0  0  0  0  0
   10.6092    0.6288   23.1306 C   0  0  0  0  0  0  0  0  0  0  0  0
   10.0041    1.6243   24.0660 C   0  0  0  0  0  0  0  0  0  0  0  0
   10.6531    2.5499   24.5511 O   0  0  0  0  0  0  0  0  0  0  0  0
   12.5572    1.4335   23.4905 H   0  0  0  0  0  0  0  0  0  0  0  0
   13.6857   -0.0968   21.8500 H   0  0  0  0  0  0  0  0  0  0  0  0
    9.9373   -1.9160   20.9666 H   0  0  0  0  0  0  0  0  0  0  0  0
    6.9454    0.3288   24.2126 H   0  0  0  0  0  0  0  0  0  0  0  0
    8.3750   -0.5411   24.8265 H   0  0  0  0  0  0  0  0  0  0  0  0
    7.0990    2.1367   25.5477 H   0  0  0  0  0  0  0  0  0  0  0  0
    8.6993    2.8195   25.9080 H   0  0  0  0  0  0  0  0  0  0  0  0
    8.4182    4.6538   23.6542 C   0  0  0  0  0  0  0  0  0  0  0  0
    7.5999    5.4239   22.8752 O   0  0  0  0  0  0  0  0  0  0  0  0
    9.4747    4.8859   23.6275 H   0  0  0  0  0  0  0  0  0  0  0  0
    5.5087    6.3479   21.7262 H   0  0  0  0  0  0  0  0  0  0  0  0
    4.3081    5.3458   22.6177 H   0  0  0  0  0  0  0  0  0  0  0  0
    5.2136    4.6474   21.3109 H   0  0  0  0  0  0  0  0  0  0  0  0
  1  2  1  0
  2  3  2  0
  3  4  1  0
  4  5  1  0
  5  6  1  0
  6  7  1  0
  8  7  1  1
  8  9  1  0
  9 10  2  0
  9 11  1  0
 11 12  1  0
 12 13  2  0
 13 14  1  0
 14 15  2  0
 15 16  1  0
 16 17  2  0
 17 18  1  0
 18 19  2  0
 19 20  1  0
 20 21  2  0
 20 22  1  0
 19 23  1  0
 18 24  1  0
 17 25  1  0
 15 26  1  0
 13 27  1  0
 11 28  1  0
 28 29  1  0
 29 30  1  0
 30 31  1  0
 30 32  1  0
 30 33  1  0
 29 34  1  6
 28 35  1  0
 28 36  1  0
  8 37  1  0
 37 38  2  0
 38 39  1  0
 39 40  1  0
 39 41  2  0
 41 42  1  0
 42 43  2  0
 43 44  1  0
 44 45  2  0
 42 46  1  0
 41 47  1  0
 38 48  1  0
  7 49  1  0
  7 50  1  0
  5 51  1  0
  5 52  1  0
  4 53  2  0
 53 54  1  0
 53 55  1  0
  1 56  1  0
  1 57  1  0
  1 58  1  0
 54  2  1  0
 44  6  1  0
 29  8  1  0
 43 37  1  0
 21 12  1  0
 21 16  1  0
M  END
>  <cnnaffinities>  (63) 
[6.61884]

>  <score>  (63) 
6.61884

>  <index>  (63) 
81

>  <Smiles>  (63) 
C(c1nc(C(N2C([C@@]3(C(=O)N(c4c(nc(c5c(c(c(c(c45)[H])[H])[H])[H])[H])[H])C([C@@]3(C([H])([H])[H])[H])([H])[H])c3c(c(F)c(c(c3C2=O)[H])[H])[H])([H])[H])([H])[H])c(o1)[H])([H])([H])[H]

>  <h>  (63) 
<NA>

>  <Training>  (63) 
True

>  <Success>  (63) 
True

>  <enamine_searched>  (63) 
False

>  <enamine_id>  (63) 
nan

$$$$

     RDKit          3D

 55 60  0  0  0  0  0  0  0  0999 V2000
    7.1979   -3.0309   23.4540 C   0  0  0  0  0  0  0  0  0  0  0  0
    7.0546   -2.2467   22.1632 C   0  0  1  0  0  0  0  0  0  0  0  0
    5.7035   -1.5280   21.9998 C   0  0  0  0  0  0  0  0  0  0  0  0
    5.9894   -0.4223   21.0941 N   0  0  0  0  0  0  0  0  0  0  0  0
    5.2725   -0.1021   19.9243 C   0  0  0  0  0  0  0  0  0  0  0  0
    5.8694   -0.1967   18.6878 C   0  0  0  0  0  0  0  0  0  0  0  0
    5.2795    0.1498   17.5220 N   0  0  0  0  0  0  0  0  0  0  0  0
    4.0805    0.6732   17.5971 C   0  0  0  0  0  0  0  0  0  0  0  0
    3.3631    0.8544   18.8112 C   0  0  0  0  0  0  0  0  0  0  0  0
    2.1425    1.5767   18.8825 C   0  0  0  0  0  0  0  0  0  0  0  0
    1.4839    1.7101   20.0713 C   0  0  0  0  0  0  0  0  0  0  0  0
    2.0327    1.1860   21.2625 C   0  0  0  0  0  0  0  0  0  0  0  0
    3.2331    0.5172   21.2323 C   0  0  0  0  0  0  0  0  0  0  0  0
    3.9355    0.3716   20.0080 C   0  0  0  0  0  0  0  0  0  0  0  0
    3.6650    0.1293   22.1483 H   0  0  0  0  0  0  0  0  0  0  0  0
    1.5213    1.3378   22.2087 H   0  0  0  0  0  0  0  0  0  0  0  0
    0.5330    2.2359   20.1145 H   0  0  0  0  0  0  0  0  0  0  0  0
    1.7782    2.0602   17.9809 H   0  0  0  0  0  0  0  0  0  0  0  0
    3.6317    0.9810   16.6553 H   0  0  0  0  0  0  0  0  0  0  0  0
    6.8862   -0.5748   18.6011 H   0  0  0  0  0  0  0  0  0  0  0  0
    7.3072   -0.0221   21.2048 C   0  0  0  0  0  0  0  0  0  0  0  0
    7.7840    0.9861   20.7213 O   0  0  0  0  0  0  0  0  0  0  0  0
    8.0930   -1.1303   21.8920 C   0  0  1  0  0  0  0  0  0  0  0  0
    8.9173   -0.5347   23.0624 C   0  0  0  0  0  0  0  0  0  0  0  0
    9.6622   -1.4269   23.9599 N   0  0  0  0  0  0  0  0  0  0  0  0
    9.6116   -1.1191   25.3835 C   0  0  0  0  0  0  0  0  0  0  0  0
    8.9091   -2.1648   26.1883 C   0  0  0  0  0  0  0  0  0  0  0  0
    7.9283   -1.9874   27.0107 N   0  0  0  0  0  0  0  0  0  0  0  0
    7.6961   -3.2555   27.5274 C   0  0  0  0  0  0  0  0  0  0  0  0
    8.5648   -4.1318   26.9811 C   0  0  0  0  0  0  0  0  0  0  0  0
    9.3558   -3.4352   26.1120 O   0  0  0  0  0  0  0  0  0  0  0  0
    8.7604   -5.1883   27.0863 H   0  0  0  0  0  0  0  0  0  0  0  0
    6.9243   -3.4247   28.2621 H   0  0  0  0  0  0  0  0  0  0  0  0
   10.6364   -1.0147   25.7540 H   0  0  0  0  0  0  0  0  0  0  0  0
    9.0863   -0.1771   25.5499 H   0  0  0  0  0  0  0  0  0  0  0  0
   10.7592   -2.2012   23.5838 C   0  0  0  0  0  0  0  0  0  0  0  0
   11.5486   -2.6337   24.4079 O   0  0  0  0  0  0  0  0  0  0  0  0
   10.9407   -2.4959   22.1599 C   0  0  0  0  0  0  0  0  0  0  0  0
   12.2076   -3.2151   21.7976 C   0  0  0  0  0  0  0  0  0  0  0  0
   12.4804   -3.1947   20.5042 C   0  0  0  0  0  0  0  0  0  0  0  0
   12.6139   -3.4889   20.2995 C   0  0  0  0  0  0  0  0  0  0  0  0
   12.3357   -4.2511   19.2606 F   0  0  0  0  0  0  0  0  0  0  0  0
   10.1090   -2.1294   21.1992 C   0  0  0  0  0  0  0  0  0  0  0  0
    9.0671   -1.6109   20.7319 C   0  0  0  0  0  0  0  0  0  0  0  0
    8.6988   -1.4482   19.6891 H   0  0  0  0  0  0  0  0  0  0  0  0
   13.6859   -3.7783   20.3980 H   0  0  0  0  0  0  0  0  0  0  0  0
   12.9618   -3.3464   22.5382 H   0  0  0  0  0  0  0  0  0  0  0  0
    8.2432    0.0640   23.6795 H   0  0  0  0  0  0  0  0  0  0  0  0
    9.6088    0.1495   22.5681 H   0  0  0  0  0  0  0  0  0  0  0  0
    4.8998   -2.1596   21.6086 H   0  0  0  0  0  0  0  0  0  0  0  0
    5.3842   -1.1264   22.9719 H   0  0  0  0  0  0  0  0  0  0  0  0
    7.1891   -2.9403   21.3221 H   0  0  0  0  0  0  0  0  0  0  0  0
    7.0922   -2.3740   24.3236 H   0  0  0  0  0  0  0  0  0  0  0  0
    8.1828   -3.5032   23.4857 H   0  0  0  0  0  0  0  0  0  0  0  0
    6.4356   -3.8142   23.5321 H   0  0  0  0  0  0  0  0  0  0  0  0
  1  2  1  0
  2  3  1  0
  3  4  1  0
  4  5  1  0
  5  6  2  0
  6  7  1  0
  7  8  2  0
  8  9  1  0
  9 10  2  0
 10 11  1  0
 11 12  2  0
 12 13  1  0
 13 14  2  0
 13 15  1  0
 12 16  1  0
 11 17  1  0
 10 18  1  0
  8 19  1  0
  6 20  1  0
  4 21  1  0
 21 22  2  0
 21 23  1  0
 23 24  1  1
 24 25  1  0
 25 26  1  0
 26 27  1  0
 27 28  2  0
 28 29  1  0
 29 30  2  0
 30 31  1  0
 30 32  1  0
 29 33  1  0
 26 34  1  0
 26 35  1  0
 25 36  1  0
 36 37  2  0
 36 38  1  0
 38 39  2  0
 39 40  1  0
 40 41  2  0
 41 42  1  0
 41 43  1  0
 43 44  2  0
 43 45  1  0
 40 46  1  0
 39 47  1  0
 24 48  1  0
 24 49  1  0
  3 50  1  0
  3 51  1  0
  2 52  1  6
  1 53  1  0
  1 54  1  0
  1 55  1  0
 23  2  1  0
 31 27  1  0
 44 38  1  0
 14  5  1  0
 44 23  1  0
 14  9  1  0
M  END
>  <cnnaffinities>  (64) 
[6.04264]

>  <score>  (64) 
6.04264

>  <index>  (64) 
82

>  <Smiles>  (64) 
C([C@]1(C(N(c2c(nc(c3c(c(c(c(c23)[H])[H])[H])[H])[H])[H])C(=O)[C@]21C(N(C(c1nc(c(o1)[H])[H])([H])[H])C(=O)c1c(c(c(F)c(c21)[H])[H])[H])([H])[H])([H])[H])[H])([H])([H])[H]

>  <h>  (64) 
<NA>

>  <Training>  (64) 
True

>  <Success>  (64) 
True

>  <enamine_searched>  (64) 
False

>  <enamine_id>  (64) 
nan

$$$$

     RDKit          3D

 72 77  0  0  0  0  0  0  0  0999 V2000
    7.5143   -0.3860   29.6766 C   0  0  0  0  0  0  0  0  0  0  0  0
    7.1539    1.0078   29.1862 C   0  0  2  0  0  0  0  0  0  0  0  0
    5.8505    1.5346   29.7785 C   0  0  0  0  0  0  0  0  0  0  0  0
    5.5737    2.8506   29.3403 O   0  0  0  0  0  0  0  0  0  0  0  0
    5.4408    2.8938   27.9324 C   0  0  0  0  0  0  0  0  0  0  0  0
    6.7250    2.4689   27.2226 C   0  0  1  0  0  0  0  0  0  0  0  0
    7.8625    3.4549   27.4397 C   0  0  0  0  0  0  0  0  0  0  0  0
    8.7570    3.0856   26.9290 H   0  0  0  0  0  0  0  0  0  0  0  0
    7.6013    4.4284   27.0122 H   0  0  0  0  0  0  0  0  0  0  0  0
    8.0800    3.6075   28.5008 H   0  0  0  0  0  0  0  0  0  0  0  0
    7.1297    1.0817   27.6608 N   0  0  0  0  0  4  0  0  0  0  0  0
    6.2850    0.0226   27.0123 C   0  0  0  0  0  0  0  0  0  0  0  0
    7.1272   -1.0518   26.3321 C   0  0  0  0  0  0  0  0  0  0  0  0
    7.9568   -0.5334   25.2526 N   0  0  0  0  0  0  0  0  0  0  0  0
    7.3490   -0.1165   23.9938 C   0  0  0  0  0  0  0  0  0  0  0  0
    8.2088   -0.4909   22.7557 C   0  0  2  0  0  0  0  0  0  0  0  0
    7.5932    0.3128   21.5796 C   0  0  0  0  0  0  0  0  0  0  0  0
    7.7609    1.4843   21.3261 O   0  0  0  0  0  0  0  0  0  0  0  0
    6.7394   -0.5267   20.8786 N   0  0  0  0  0  0  0  0  0  0  0  0
    5.8882   -0.1027   19.8217 C   0  0  0  0  0  0  0  0  0  0  0  0
    6.3236   -0.2023   18.5206 C   0  0  0  0  0  0  0  0  0  0  0  0
    5.6203    0.1780   17.4232 N   0  0  0  0  0  0  0  0  0  0  0  0
    4.4179    0.6504   17.6206 C   0  0  0  0  0  0  0  0  0  0  0  0
    3.8123    0.7468   18.9048 C   0  0  0  0  0  0  0  0  0  0  0  0
    2.5226    1.3131   19.0649 C   0  0  0  0  0  0  0  0  0  0  0  0
    1.9954    1.5530   20.3046 C   0  0  0  0  0  0  0  0  0  0  0  0
    2.7301    1.1786   21.4518 C   0  0  0  0  0  0  0  0  0  0  0  0
    3.9560    0.5707   21.3298 C   0  0  0  0  0  0  0  0  0  0  0  0
    4.5568    0.3739   20.0516 C   0  0  0  0  0  0  0  0  0  0  0  0
    4.4676    0.2302   22.2211 H   0  0  0  0  0  0  0  0  0  0  0  0
    2.3284    1.4150   22.4328 H   0  0  0  0  0  0  0  0  0  0  0  0
    1.0305    2.0451   20.4144 H   0  0  0  0  0  0  0  0  0  0  0  0
    2.0031    1.6397   18.1741 H   0  0  0  0  0  0  0  0  0  0  0  0
    3.8590    0.9810   16.7421 H   0  0  0  0  0  0  0  0  0  0  0  0
    7.3251   -0.5743   18.3227 H   0  0  0  0  0  0  0  0  0  0  0  0
    6.8295   -1.9201   21.2510 C   0  0  0  0  0  0  0  0  0  0  0  0
    8.0063   -1.9650   22.2414 C   0  0  2  0  0  0  0  0  0  0  0  0
    7.7683   -3.0356   23.2991 C   0  0  0  0  0  0  0  0  0  0  0  0
    7.6862   -4.0215   22.8304 H   0  0  0  0  0  0  0  0  0  0  0  0
    8.5679   -3.0701   24.0399 H   0  0  0  0  0  0  0  0  0  0  0  0
    6.8259   -2.8476   23.8281 H   0  0  0  0  0  0  0  0  0  0  0  0
    8.9154   -2.2048   21.6730 H   0  0  0  0  0  0  0  0  0  0  0  0
    6.9894   -2.5477   20.3639 H   0  0  0  0  0  0  0  0  0  0  0  0
    5.8993   -2.2781   21.7211 H   0  0  0  0  0  0  0  0  0  0  0  0
    9.6696   -0.1376   23.0705 C   0  0  0  0  0  0  0  0  0  0  0  0
   10.6175    0.0550   22.0471 C   0  0  0  0  0  0  0  0  0  0  0  0
   11.9594    0.2590   22.3669 C   0  0  0  0  0  0  0  0  0  0  0  0
   13.1848    0.6158   21.1805 Cl  0  0  0  0  0  0  0  0  0  0  0  0
   12.4200    0.1998   23.6792 C   0  0  0  0  0  0  0  0  0  0  0  0
   11.4961    0.0533   24.6871 C   0  0  0  0  0  0  0  0  0  0  0  0
   10.1386   -0.0575   24.3944 C   0  0  0  0  0  0  0  0  0  0  0  0
    9.2084   -0.1022   25.5508 C   0  0  0  0  0  0  0  0  0  0  0  0
    9.5543    0.1992   26.7022 O   0  0  0  0  0  0  0  0  0  0  0  0
   11.8064    0.0182   25.7214 H   0  0  0  0  0  0  0  0  0  0  0  0
   13.4850    0.2701   23.8836 H   0  0  0  0  0  0  0  0  0  0  0  0
   10.2902    0.0305   21.0130 H   0  0  0  0  0  0  0  0  0  0  0  0
    7.2399    0.9775   23.9680 H   0  0  0  0  0  0  0  0  0  0  0  0
    6.3330   -0.5232   23.9103 H   0  0  0  0  0  0  0  0  0  0  0  0
    7.8010   -1.5198   27.0548 H   0  0  0  0  0  0  0  0  0  0  0  0
    6.4703   -1.8312   25.9311 H   0  0  0  0  0  0  0  0  0  0  0  0
    5.6518    0.4963   26.2531 H   0  0  0  0  0  0  0  0  0  0  0  0
    5.6121   -0.4327   27.7416 H   0  0  0  0  0  0  0  0  0  0  0  0
    8.1157    0.9151   27.3584 H   0  0  0  0  0  0  0  0  0  0  0  0
    6.5246    2.4081   26.1459 H   0  0  0  0  0  0  0  0  0  0  0  0
    4.6050    2.2526   27.6101 H   0  0  0  0  0  0  0  0  0  0  0  0
    5.1934    3.9274   27.6699 H   0  0  0  0  0  0  0  0  0  0  0  0
    5.9328    1.5775   30.8693 H   0  0  0  0  0  0  0  0  0  0  0  0
    5.0171    0.8596   29.5268 H   0  0  0  0  0  0  0  0  0  0  0  0
    7.9449    1.6918   29.5067 H   0  0  0  0  0  0  0  0  0  0  0  0
    7.6731   -0.3736   30.7598 H   0  0  0  0  0  0  0  0  0  0  0  0
    6.7260   -1.1160   29.4666 H   0  0  0  0  0  0  0  0  0  0  0  0
    8.4385   -0.7343   29.2030 H   0  0  0  0  0  0  0  0  0  0  0  0
  1  2  1  0
  2  3  1  0
  3  4  1  0
  4  5  1  0
  5  6  1  0
  6  7  1  0
  7  8  1  0
  7  9  1  0
  7 10  1  0
  6 11  1  0
 11 12  1  0
 12 13  1  0
 13 14  1  0
 14 15  1  0
 16 15  1  1
 16 17  1  0
 17 18  2  0
 17 19  1  0
 19 20  1  0
 20 21  2  0
 21 22  1  0
 22 23  2  0
 23 24  1  0
 24 25  2  0
 25 26  1  0
 26 27  2  0
 27 28  1  0
 28 29  2  0
 28 30  1  0
 27 31  1  0
 26 32  1  0
 25 33  1  0
 23 34  1  0
 21 35  1  0
 19 36  1  0
 36 37  1  0
 37 38  1  0
 38 39  1  0
 38 40  1  0
 38 41  1  0
 37 42  1  6
 36 43  1  0
 36 44  1  0
 16 45  1  0
 45 46  2  0
 46 47  1  0
 47 48  1  0
 47 49  2  0
 49 50  1  0
 50 51  2  0
 51 52  1  0
 52 53  2  0
 50 54  1  0
 49 55  1  0
 46 56  1  0
 15 57  1  0
 15 58  1  0
 13 59  1  0
 13 60  1  0
 12 61  1  0
 12 62  1  0
 11 63  1  0
  6 64  1  6
  5 65  1  0
  5 66  1  0
  3 67  1  0
  3 68  1  0
  2 69  1  1
  1 70  1  0
  1 71  1  0
  1 72  1  0
 11  2  1  0
 52 14  1  0
 37 16  1  0
 51 45  1  0
 29 20  1  0
 29 24  1  0
M  CHG  1  11   1
M  END
>  <cnnaffinities>  (65) 
[6.3566]

>  <score>  (65) 
6.3566

>  <index>  (65) 
83

>  <Smiles>  (65) 
C([C@@]1(C(OC([C@@](C([H])([H])[H])([N+]1(C(C(N1C([C@@]2(C(=O)N(c3c(nc(c4c(c(c(c(c34)[H])[H])[H])[H])[H])[H])C([C@@]2(C([H])([H])[H])[H])([H])[H])c2c(c(Cl)c(c(c2C1=O)[H])[H])[H])([H])[H])([H])[H])([H])[H])[H])[H])([H])[H])([H])[H])[H])([H])([H])[H]

>  <h>  (65) 
<NA>

>  <Training>  (65) 
True

>  <Success>  (65) 
True

>  <enamine_searched>  (65) 
False

>  <enamine_id>  (65) 
nan

$$$$

     RDKit          3D

 60 65  0  0  0  0  0  0  0  0999 V2000
    7.0910    0.9188   28.6558 C   0  0  0  0  0  0  0  0  0  0  0  0
    7.3179    1.0753   27.2324 N   0  0  0  0  0  0  0  0  0  0  0  0
    7.8803    2.1990   26.7073 C   0  0  0  0  0  0  0  0  0  0  0  0
    8.2576    3.1271   27.4014 O   0  0  0  0  0  0  0  0  0  0  0  0
    7.9092    2.2956   25.1851 C   0  0  0  0  0  0  0  0  0  0  0  0
    8.6622    1.3589   24.4057 N   0  0  0  0  0  0  0  0  0  0  0  0
    8.0982    0.0533   24.1225 C   0  0  0  0  0  0  0  0  0  0  0  0
    8.3789   -0.4176   22.6764 C   0  0  2  0  0  0  0  0  0  0  0  0
    7.4963    0.3799   21.6728 C   0  0  0  0  0  0  0  0  0  0  0  0
    7.4823    1.5863   21.5363 O   0  0  0  0  0  0  0  0  0  0  0  0
    6.7084   -0.5032   20.9569 N   0  0  0  0  0  0  0  0  0  0  0  0
    5.8831   -0.0990   19.8669 C   0  0  0  0  0  0  0  0  0  0  0  0
    6.3397   -0.2167   18.5734 C   0  0  0  0  0  0  0  0  0  0  0  0
    5.6377    0.1326   17.4643 N   0  0  0  0  0  0  0  0  0  0  0  0
    4.4249    0.6014   17.6447 C   0  0  0  0  0  0  0  0  0  0  0  0
    3.8067    0.7347   18.9256 C   0  0  0  0  0  0  0  0  0  0  0  0
    2.5118    1.3063   19.0698 C   0  0  0  0  0  0  0  0  0  0  0  0
    1.9710    1.5157   20.3102 C   0  0  0  0  0  0  0  0  0  0  0  0
    2.6797    1.1294   21.4706 C   0  0  0  0  0  0  0  0  0  0  0  0
    3.9081    0.5162   21.3615 C   0  0  0  0  0  0  0  0  0  0  0  0
    4.5406    0.3662   20.0860 C   0  0  0  0  0  0  0  0  0  0  0  0
    4.4148    0.1654   22.2574 H   0  0  0  0  0  0  0  0  0  0  0  0
    2.2455    1.3237   22.4488 H   0  0  0  0  0  0  0  0  0  0  0  0
    0.9913    1.9765   20.4047 H   0  0  0  0  0  0  0  0  0  0  0  0
    2.0090    1.6437   18.1694 H   0  0  0  0  0  0  0  0  0  0  0  0
    3.8559    0.8668   16.7482 H   0  0  0  0  0  0  0  0  0  0  0  0
    7.3447   -0.5931   18.3717 H   0  0  0  0  0  0  0  0  0  0  0  0
    7.1916   -1.8622   21.0659 C   0  0  0  0  0  0  0  0  0  0  0  0
    7.9145   -1.8946   22.4298 C   0  0  2  0  0  0  0  0  0  0  0  0
    7.0103   -2.4926   23.5119 C   0  0  0  0  0  0  0  0  0  0  0  0
    7.5341   -2.5564   24.4682 H   0  0  0  0  0  0  0  0  0  0  0  0
    6.7161   -3.5109   23.2399 H   0  0  0  0  0  0  0  0  0  0  0  0
    6.0971   -1.9078   23.6574 H   0  0  0  0  0  0  0  0  0  0  0  0
    8.7868   -2.5529   22.3702 H   0  0  0  0  0  0  0  0  0  0  0  0
    6.3558   -2.5695   21.0249 H   0  0  0  0  0  0  0  0  0  0  0  0
    7.8709   -2.1022   20.2339 H   0  0  0  0  0  0  0  0  0  0  0  0
    9.8747   -0.2175   22.4315 C   0  0  0  0  0  0  0  0  0  0  0  0
   10.5574   -1.0432   21.5316 C   0  0  0  0  0  0  0  0  0  0  0  0
   11.9202   -0.9161   21.3497 C   0  0  0  0  0  0  0  0  0  0  0  0
   12.6835   -1.9620   20.1854 Cl  0  0  0  0  0  0  0  0  0  0  0  0
   12.6645    0.0463   22.0286 C   0  0  0  0  0  0  0  0  0  0  0  0
   11.9974    0.8835   22.9026 C   0  0  0  0  0  0  0  0  0  0  0  0
   10.6225    0.7528   23.1166 C   0  0  0  0  0  0  0  0  0  0  0  0
    9.9811    1.6422   24.1273 C   0  0  0  0  0  0  0  0  0  0  0  0
   10.5677    2.5743   24.6638 O   0  0  0  0  0  0  0  0  0  0  0  0
   12.5314    1.6593   23.4411 H   0  0  0  0  0  0  0  0  0  0  0  0
   13.7357    0.1307   21.8747 H   0  0  0  0  0  0  0  0  0  0  0  0
   10.0443   -1.8159   20.9716 H   0  0  0  0  0  0  0  0  0  0  0  0
    7.0238    0.1012   24.2876 H   0  0  0  0  0  0  0  0  0  0  0  0
    8.5362   -0.6914   24.7977 H   0  0  0  0  0  0  0  0  0  0  0  0
    7.7976    3.6966   24.6706 C   0  0  0  0  0  0  0  0  0  0  0  0
    6.6161    2.7852   24.5820 C   0  0  0  0  0  0  0  0  0  0  0  0
    5.7835    2.9542   25.2557 H   0  0  0  0  0  0  0  0  0  0  0  0
    6.3877    2.3834   23.5991 H   0  0  0  0  0  0  0  0  0  0  0  0
    8.3259    3.9174   23.7493 H   0  0  0  0  0  0  0  0  0  0  0  0
    7.8084    4.4685   25.4334 H   0  0  0  0  0  0  0  0  0  0  0  0
    6.9415    0.3750   26.6129 H   0  0  0  0  0  0  0  0  0  0  0  0
    7.7633    0.1683   29.0855 H   0  0  0  0  0  0  0  0  0  0  0  0
    7.2679    1.8758   29.1491 H   0  0  0  0  0  0  0  0  0  0  0  0
    6.0561    0.6139   28.8399 H   0  0  0  0  0  0  0  0  0  0  0  0
  1  2  1  0
  2  3  1  0
  3  4  2  0
  3  5  1  0
  5  6  1  0
  6  7  1  0
  8  7  1  1
  8  9  1  0
  9 10  2  0
  9 11  1  0
 11 12  1  0
 12 13  2  0
 13 14  1  0
 14 15  2  0
 15 16  1  0
 16 17  2  0
 17 18  1  0
 18 19  2  0
 19 20  1  0
 20 21  2  0
 20 22  1  0
 19 23  1  0
 18 24  1  0
 17 25  1  0
 15 26  1  0
 13 27  1  0
 11 28  1  0
 28 29  1  0
 29 30  1  0
 30 31  1  0
 30 32  1  0
 30 33  1  0
 29 34  1  6
 28 35  1  0
 28 36  1  0
  8 37  1  0
 37 38  2  0
 38 39  1  0
 39 40  1  0
 39 41  2  0
 41 42  1  0
 42 43  2  0
 43 44  1  0
 44 45  2  0
 42 46  1  0
 41 47  1  0
 38 48  1  0
  7 49  1  0
  7 50  1  0
  5 51  1  0
 51 52  1  0
 52 53  1  0
 52 54  1  0
 51 55  1  0
 51 56  1  0
  2 57  1  0
  1 58  1  0
  1 59  1  0
  1 60  1  0
 52  5  1  0
 44  6  1  0
 29  8  1  0
 43 37  1  0
 21 12  1  0
 21 16  1  0
M  END
>  <cnnaffinities>  (66) 
[6.2059, 6.57251, 6.61589]

>  <score>  (66) 
6.2059

>  <index>  (66) 
84

>  <Smiles>  (66) 
C(N(C(=O)C1(N2C([C@@]3(C(=O)N(c4c(nc(c5c(c(c(c(c45)[H])[H])[H])[H])[H])[H])C([C@@]3(C([H])([H])[H])[H])([H])[H])c3c(c(Cl)c(c(c3C2=O)[H])[H])[H])([H])[H])C(C1([H])[H])([H])[H])[H])([H])([H])[H]

>  <h>  (66) 
<NA>

>  <Training>  (66) 
True

>  <Success>  (66) 
True

>  <enamine_searched>  (66) 
False

>  <enamine_id>  (66) 
nan

$$$$

     RDKit          3D

 65 70  0  0  0  0  0  0  0  0999 V2000
    5.7822   -4.5128   26.3584 C   0  0  0  0  0  0  0  0  0  0  0  0
    5.8759   -3.0613   26.3222 N   0  0  0  0  0  0  0  0  0  0  0  0
    7.0445   -2.4293   26.6236 C   0  0  0  0  0  0  0  0  0  0  0  0
    8.0271   -3.0313   27.0277 O   0  0  0  0  0  0  0  0  0  0  0  0
    7.0540   -0.9121   26.3990 C   0  0  0  0  0  0  0  0  0  0  0  0
    7.9013   -0.5547   25.2686 N   0  0  0  0  0  0  0  0  0  0  0  0
    7.3317   -0.1328   23.9932 C   0  0  0  0  0  0  0  0  0  0  0  0
    8.2013   -0.5175   22.7539 C   0  0  2  0  0  0  0  0  0  0  0  0
    7.6037    0.2885   21.5687 C   0  0  0  0  0  0  0  0  0  0  0  0
    7.7859    1.4540   21.3025 O   0  0  0  0  0  0  0  0  0  0  0  0
    6.7335   -0.5337   20.8771 N   0  0  0  0  0  0  0  0  0  0  0  0
    5.8932   -0.0891   19.8187 C   0  0  0  0  0  0  0  0  0  0  0  0
    6.3441   -0.1869   18.5256 C   0  0  0  0  0  0  0  0  0  0  0  0
    5.6260    0.1607   17.4253 N   0  0  0  0  0  0  0  0  0  0  0  0
    4.4093    0.6118   17.6166 C   0  0  0  0  0  0  0  0  0  0  0  0
    3.7993    0.7465   18.8995 C   0  0  0  0  0  0  0  0  0  0  0  0
    2.5024    1.3022   19.0566 C   0  0  0  0  0  0  0  0  0  0  0  0
    1.9522    1.4657   20.2991 C   0  0  0  0  0  0  0  0  0  0  0  0
    2.6829    1.1037   21.4543 C   0  0  0  0  0  0  0  0  0  0  0  0
    3.9250    0.5188   21.3254 C   0  0  0  0  0  0  0  0  0  0  0  0
    4.5445    0.3665   20.0470 C   0  0  0  0  0  0  0  0  0  0  0  0
    4.4546    0.1982   22.2171 H   0  0  0  0  0  0  0  0  0  0  0  0
    2.2599    1.2942   22.4394 H   0  0  0  0  0  0  0  0  0  0  0  0
    0.9822    1.9381   20.4095 H   0  0  0  0  0  0  0  0  0  0  0  0
    1.9951    1.6462   18.1661 H   0  0  0  0  0  0  0  0  0  0  0  0
    3.8339    0.8873   16.7272 H   0  0  0  0  0  0  0  0  0  0  0  0
    7.3427   -0.5760   18.3320 H   0  0  0  0  0  0  0  0  0  0  0  0
    6.7916   -1.9207   21.2660 C   0  0  0  0  0  0  0  0  0  0  0  0
    7.9854   -1.9808   22.2307 C   0  0  2  0  0  0  0  0  0  0  0  0
    7.7600   -3.0580   23.2994 C   0  0  0  0  0  0  0  0  0  0  0  0
    7.6548   -4.3907   22.7307 N   0  0  0  0  0  0  0  0  0  0  0  0
    6.5051   -5.0641   22.5243 C   0  0  0  0  0  0  0  0  0  0  0  0
    6.6075   -6.2551   21.8796 N   0  0  0  0  0  0  0  0  0  0  0  0
    5.4541   -6.8794   21.7265 C   0  0  0  0  0  0  0  0  0  0  0  0
    4.2458   -6.4535   22.1182 N   0  0  0  0  0  0  0  0  0  0  0  0
    4.2734   -5.2760   22.7349 C   0  0  0  0  0  0  0  0  0  0  0  0
    5.3462   -4.5269   22.9660 N   0  0  0  0  0  0  0  0  0  0  0  0
    3.3137   -4.8857   23.0858 H   0  0  0  0  0  0  0  0  0  0  0  0
    5.4822   -7.8433   21.2149 H   0  0  0  0  0  0  0  0  0  0  0  0
    8.4899   -4.8197   22.3675 H   0  0  0  0  0  0  0  0  0  0  0  0
    8.5821   -3.0266   24.0217 H   0  0  0  0  0  0  0  0  0  0  0  0
    6.8245   -2.8705   23.8264 H   0  0  0  0  0  0  0  0  0  0  0  0
    8.8955   -2.2255   21.6561 H   0  0  0  0  0  0  0  0  0  0  0  0
    5.8615   -2.2462   21.7545 H   0  0  0  0  0  0  0  0  0  0  0  0
    6.9265   -2.5594   20.3874 H   0  0  0  0  0  0  0  0  0  0  0  0
    9.6633   -0.1920   23.0612 C   0  0  0  0  0  0  0  0  0  0  0  0
   10.6170    0.0139   22.0417 C   0  0  0  0  0  0  0  0  0  0  0  0
   11.9573    0.2093   22.3641 C   0  0  0  0  0  0  0  0  0  0  0  0
   13.1886    0.5420   21.1767 Cl  0  0  0  0  0  0  0  0  0  0  0  0
   12.4022    0.1661   23.6803 C   0  0  0  0  0  0  0  0  0  0  0  0
   11.4709    0.0137   24.6797 C   0  0  0  0  0  0  0  0  0  0  0  0
   10.1168   -0.1243   24.3864 C   0  0  0  0  0  0  0  0  0  0  0  0
    9.1994   -0.2294   25.5620 C   0  0  0  0  0  0  0  0  0  0  0  0
    9.5931   -0.0321   26.7057 O   0  0  0  0  0  0  0  0  0  0  0  0
   11.7672    0.0223   25.7173 H   0  0  0  0  0  0  0  0  0  0  0  0
   13.4623    0.2452   23.8955 H   0  0  0  0  0  0  0  0  0  0  0  0
   10.3086    0.0073   21.0029 H   0  0  0  0  0  0  0  0  0  0  0  0
    7.2075    0.9608   23.9805 H   0  0  0  0  0  0  0  0  0  0  0  0
    6.3342   -0.5773   23.8963 H   0  0  0  0  0  0  0  0  0  0  0  0
    6.0439   -0.5208   26.2499 H   0  0  0  0  0  0  0  0  0  0  0  0
    7.5102   -0.4455   27.2785 H   0  0  0  0  0  0  0  0  0  0  0  0
    5.1425   -2.5409   25.8673 H   0  0  0  0  0  0  0  0  0  0  0  0
    5.8076   -4.8841   27.3883 H   0  0  0  0  0  0  0  0  0  0  0  0
    6.6217   -4.9622   25.8166 H   0  0  0  0  0  0  0  0  0  0  0  0
    4.8454   -4.8192   25.8828 H   0  0  0  0  0  0  0  0  0  0  0  0
  1  2  1  0
  2  3  1  0
  3  4  2  0
  3  5  1  0
  5  6  1  0
  6  7  1  0
  8  7  1  1
  8  9  1  0
  9 10  2  0
  9 11  1  0
 11 12  1  0
 12 13  2  0
 13 14  1  0
 14 15  2  0
 15 16  1  0
 16 17  2  0
 17 18  1  0
 18 19  2  0
 19 20  1  0
 20 21  2  0
 20 22  1  0
 19 23  1  0
 18 24  1  0
 17 25  1  0
 15 26  1  0
 13 27  1  0
 11 28  1  0
 28 29  1  0
 29 30  1  0
 30 31  1  0
 31 32  1  0
 32 33  2  0
 33 34  1  0
 34 35  2  0
 35 36  1  0
 36 37  2  0
 36 38  1  0
 34 39  1  0
 31 40  1  0
 30 41  1  0
 30 42  1  0
 29 43  1  6
 28 44  1  0
 28 45  1  0
  8 46  1  0
 46 47  2  0
 47 48  1  0
 48 49  1  0
 48 50  2  0
 50 51  1  0
 51 52  2  0
 52 53  1  0
 53 54  2  0
 51 55  1  0
 50 56  1  0
 47 57  1  0
  7 58  1  0
  7 59  1  0
  5 60  1  0
  5 61  1  0
  2 62  1  0
  1 63  1  0
  1 64  1  0
  1 65  1  0
 53  6  1  0
 29  8  1  0
 37 32  1  0
 52 46  1  0
 21 12  1  0
 21 16  1  0
M  END
>  <cnnaffinities>  (67) 
[6.58791]

>  <score>  (67) 
6.58791

>  <index>  (67) 
86

>  <Smiles>  (67) 
C(N(C(=O)C(N1C([C@@]2(C(=O)N(c3c(nc(c4c(c(c(c(c34)[H])[H])[H])[H])[H])[H])C([C@@]2(C(N(c2nc(nc(n2)[H])[H])[H])([H])[H])[H])([H])[H])c2c(c(Cl)c(c(c2C1=O)[H])[H])[H])([H])[H])([H])[H])[H])([H])([H])[H]

>  <h>  (67) 
<NA>

>  <Training>  (67) 
True

>  <Success>  (67) 
True

>  <enamine_searched>  (67) 
False

>  <enamine_id>  (67) 
nan

$$$$

     RDKit          3D

 63 68  0  0  0  0  0  0  0  0999 V2000
    7.2186    0.8938   28.4053 C   0  0  0  0  0  0  0  0  0  0  0  0
    7.2381    1.1477   26.9757 N   0  0  0  0  0  0  0  0  0  0  0  0
    7.8243    2.2700   26.4606 C   0  0  0  0  0  0  0  0  0  0  0  0
    8.2667    3.1572   27.1686 O   0  0  0  0  0  0  0  0  0  0  0  0
    7.8902    2.3770   24.9277 C   0  0  0  0  0  0  0  0  0  0  0  0
    8.6831    1.3513   24.2776 N   0  0  0  0  0  0  0  0  0  0  0  0
    8.1447    0.0197   24.0820 C   0  0  0  0  0  0  0  0  0  0  0  0
    8.3869   -0.4892   22.6419 C   0  0  2  0  0  0  0  0  0  0  0  0
    7.5235    0.3671   21.6734 C   0  0  0  0  0  0  0  0  0  0  0  0
    7.5017    1.5749   21.6126 O   0  0  0  0  0  0  0  0  0  0  0  0
    6.7407   -0.4918   20.9205 N   0  0  0  0  0  0  0  0  0  0  0  0
    5.8994   -0.0889   19.8480 C   0  0  0  0  0  0  0  0  0  0  0  0
    6.3542   -0.1936   18.5568 C   0  0  0  0  0  0  0  0  0  0  0  0
    5.6367    0.1169   17.4478 N   0  0  0  0  0  0  0  0  0  0  0  0
    4.4113    0.5418   17.6341 C   0  0  0  0  0  0  0  0  0  0  0  0
    3.8028    0.7005   18.9101 C   0  0  0  0  0  0  0  0  0  0  0  0
    2.5060    1.2657   19.0552 C   0  0  0  0  0  0  0  0  0  0  0  0
    1.9324    1.3910   20.2886 C   0  0  0  0  0  0  0  0  0  0  0  0
    2.6465    0.9978   21.4392 C   0  0  0  0  0  0  0  0  0  0  0  0
    3.9165    0.4847   21.3346 C   0  0  0  0  0  0  0  0  0  0  0  0
    4.5449    0.3391   20.0638 C   0  0  0  0  0  0  0  0  0  0  0  0
    4.4607    0.2052   22.2306 H   0  0  0  0  0  0  0  0  0  0  0  0
    2.2050    1.1524   22.4199 H   0  0  0  0  0  0  0  0  0  0  0  0
    0.9420    1.8232   20.3988 H   0  0  0  0  0  0  0  0  0  0  0  0
    2.0190    1.6633   18.1735 H   0  0  0  0  0  0  0  0  0  0  0  0
    3.8234    0.7713   16.7446 H   0  0  0  0  0  0  0  0  0  0  0  0
    7.3598   -0.5656   18.3664 H   0  0  0  0  0  0  0  0  0  0  0  0
    7.1629   -1.8697   21.0255 C   0  0  0  0  0  0  0  0  0  0  0  0
    7.8526   -1.9345   22.3965 C   0  0  2  0  0  0  0  0  0  0  0  0
    6.8996   -2.4723   23.4834 C   0  0  0  0  0  0  0  0  0  0  0  0
    6.4465   -3.8212   23.1955 N   0  0  0  0  0  0  0  0  0  0  0  0
    5.1782   -4.2436   22.9974 C   0  0  0  0  0  0  0  0  0  0  0  0
    5.2414   -5.5890   22.7068 C   0  0  0  0  0  0  0  0  0  0  0  0
    6.6210   -5.8820   22.7520 C   0  0  0  0  0  0  0  0  0  0  0  0
    7.3356   -4.8034   23.0465 N   0  0  0  0  0  0  0  0  0  0  0  0
    7.1351   -6.8202   22.5669 H   0  0  0  0  0  0  0  0  0  0  0  0
    4.4182   -6.2596   22.4939 H   0  0  0  0  0  0  0  0  0  0  0  0
    4.3536   -3.5482   23.0634 H   0  0  0  0  0  0  0  0  0  0  0  0
    7.4170   -2.4986   24.4454 H   0  0  0  0  0  0  0  0  0  0  0  0
    6.0071   -1.8488   23.5802 H   0  0  0  0  0  0  0  0  0  0  0  0
    8.6856   -2.6427   22.3835 H   0  0  0  0  0  0  0  0  0  0  0  0
    6.2961   -2.5277   20.9260 H   0  0  0  0  0  0  0  0  0  0  0  0
    7.8707   -2.1277   20.2252 H   0  0  0  0  0  0  0  0  0  0  0  0
    9.8868   -0.3439   22.3848 C   0  0  0  0  0  0  0  0  0  0  0  0
   10.5582   -1.1856   21.4871 C   0  0  0  0  0  0  0  0  0  0  0  0
   11.9207   -1.0532   21.2892 C   0  0  0  0  0  0  0  0  0  0  0  0
   12.7190   -2.0856   20.1309 Cl  0  0  0  0  0  0  0  0  0  0  0  0
   12.6661   -0.0914   21.9662 C   0  0  0  0  0  0  0  0  0  0  0  0
   12.0091    0.7615   22.8315 C   0  0  0  0  0  0  0  0  0  0  0  0
   10.6362    0.6440   23.0417 C   0  0  0  0  0  0  0  0  0  0  0  0
    9.9903    1.6205   23.9802 C   0  0  0  0  0  0  0  0  0  0  0  0
   10.5774    2.5945   24.4333 O   0  0  0  0  0  0  0  0  0  0  0  0
   12.5403    1.5481   23.3563 H   0  0  0  0  0  0  0  0  0  0  0  0
   13.7375   -0.0348   21.8101 H   0  0  0  0  0  0  0  0  0  0  0  0
   10.0334   -1.9572   20.9360 H   0  0  0  0  0  0  0  0  0  0  0  0
    7.0704    0.0526   24.2695 H   0  0  0  0  0  0  0  0  0  0  0  0
    8.6340   -0.6732   24.7832 H   0  0  0  0  0  0  0  0  0  0  0  0
    8.3593    3.3376   24.7006 H   0  0  0  0  0  0  0  0  0  0  0  0
    6.8847    2.3579   24.4797 H   0  0  0  0  0  0  0  0  0  0  0  0
    6.8538    0.4445   26.3624 H   0  0  0  0  0  0  0  0  0  0  0  0
    7.6535    1.7617   28.9073 H   0  0  0  0  0  0  0  0  0  0  0  0
    6.1895    0.7469   28.7520 H   0  0  0  0  0  0  0  0  0  0  0  0
    7.8091    0.0012   28.6514 H   0  0  0  0  0  0  0  0  0  0  0  0
  1  2  1  0
  2  3  1  0
  3  4  2  0
  3  5  1  0
  5  6  1  0
  6  7  1  0
  8  7  1  1
  8  9  1  0
  9 10  2  0
  9 11  1  0
 11 12  1  0
 12 13  2  0
 13 14  1  0
 14 15  2  0
 15 16  1  0
 16 17  2  0
 17 18  1  0
 18 19  2  0
 19 20  1  0
 20 21  2  0
 20 22  1  0
 19 23  1  0
 18 24  1  0
 17 25  1  0
 15 26  1  0
 13 27  1  0
 11 28  1  0
 28 29  1  0
 29 30  1  0
 30 31  1  0
 31 32  1  0
 32 33  2  0
 33 34  1  0
 34 35  2  0
 34 36  1  0
 33 37  1  0
 32 38  1  0
 30 39  1  0
 30 40  1  0
 29 41  1  6
 28 42  1  0
 28 43  1  0
  8 44  1  0
 44 45  2  0
 45 46  1  0
 46 47  1  0
 46 48  2  0
 48 49  1  0
 49 50  2  0
 50 51  1  0
 51 52  2  0
 49 53  1  0
 48 54  1  0
 45 55  1  0
  7 56  1  0
  7 57  1  0
  5 58  1  0
  5 59  1  0
  2 60  1  0
  1 61  1  0
  1 62  1  0
  1 63  1  0
 51  6  1  0
 29  8  1  0
 35 31  1  0
 50 44  1  0
 21 12  1  0
 21 16  1  0
M  END
>  <cnnaffinities>  (68) 
[6.48739]

>  <score>  (68) 
6.48739

>  <index>  (68) 
87

>  <Smiles>  (68) 
C(N(C(=O)C(N1C([C@@]2(C(=O)N(c3c(nc(c4c(c(c(c(c34)[H])[H])[H])[H])[H])[H])C([C@@]2(C(n2c(c(c(n2)[H])[H])[H])([H])[H])[H])([H])[H])c2c(c(Cl)c(c(c2C1=O)[H])[H])[H])([H])[H])([H])[H])[H])([H])([H])[H]

>  <h>  (68) 
<NA>

>  <Training>  (68) 
True

>  <Success>  (68) 
True

>  <enamine_searched>  (68) 
False

>  <enamine_id>  (68) 
nan

$$$$

     RDKit          3D

 64 68  0  0  0  0  0  0  0  0999 V2000
   13.6296    4.5812   22.7670 C   0  0  0  0  0  0  0  0  0  0  0  0
   12.7289    4.4732   24.0077 C   0  0  0  0  0  0  0  0  0  0  0  0
   11.3922    3.7567   23.8514 C   0  0  0  0  0  0  0  0  0  0  0  0
   11.3907    2.5485   23.6414 O   0  0  0  0  0  0  0  0  0  0  0  0
   10.2143    4.4563   24.1028 N   0  0  0  0  0  0  0  0  0  0  0  0
   10.3307    5.8187   24.6673 C   0  0  0  0  0  0  0  0  0  0  0  0
    8.9900    6.5348   24.8317 C   0  0  0  0  0  0  0  0  0  0  0  0
    8.0034    5.6226   25.5525 C   0  0  0  0  0  0  0  0  0  0  0  0
    7.8793    4.3192   24.8055 C   0  0  0  0  0  0  0  0  0  0  0  0
    6.6551    3.6426   24.8278 C   0  0  0  0  0  0  0  0  0  0  0  0
    6.4986    2.4459   24.1235 C   0  0  0  0  0  0  0  0  0  0  0  0
    7.5672    1.9174   23.3969 C   0  0  0  0  0  0  0  0  0  0  0  0
    7.4187    0.6845   22.7517 N   0  0  0  0  0  0  0  0  0  0  0  0
    7.6784   -0.4999   23.5622 C   0  0  0  0  0  0  0  0  0  0  0  0
    9.1099   -0.9579   23.3587 C   0  0  0  0  0  0  0  0  0  0  0  0
    9.3677   -2.0185   22.4842 C   0  0  0  0  0  0  0  0  0  0  0  0
   10.6539   -2.5562   22.3705 C   0  0  0  0  0  0  0  0  0  0  0  0
   11.7147   -1.9997   23.0890 C   0  0  0  0  0  0  0  0  0  0  0  0
   11.4967   -0.8553   23.8606 C   0  0  0  0  0  0  0  0  0  0  0  0
   12.9543    0.0553   24.6809 Br  0  0  0  0  0  0  0  0  0  0  0  0
   10.1998   -0.3517   24.0093 C   0  0  0  0  0  0  0  0  0  0  0  0
   10.0777    0.5251   24.6347 H   0  0  0  0  0  0  0  0  0  0  0  0
   12.7081   -2.4359   23.0166 H   0  0  0  0  0  0  0  0  0  0  0  0
   10.8143   -3.4052   21.7174 H   0  0  0  0  0  0  0  0  0  0  0  0
    8.5552   -2.4291   21.8964 H   0  0  0  0  0  0  0  0  0  0  0  0
    7.5171   -0.2802   24.6238 H   0  0  0  0  0  0  0  0  0  0  0  0
    6.9905   -1.3140   23.3033 H   0  0  0  0  0  0  0  0  0  0  0  0
    7.5551    0.5452   21.3713 C   0  0  0  0  0  0  0  0  0  0  0  0
    8.0584    1.4468   20.7068 O   0  0  0  0  0  0  0  0  0  0  0  0
    6.9805   -0.6998   20.6509 C   0  0  0  0  0  0  0  0  0  0  0  0
    5.9962   -0.3301   19.5300 C   0  0  0  0  0  0  0  0  0  0  0  0
    6.3844   -0.3844   18.1755 C   0  0  0  0  0  0  0  0  0  0  0  0
    5.5911   -0.0112   17.1562 N   0  0  0  0  0  0  0  0  0  0  0  0
    4.3732    0.4719   17.4585 C   0  0  0  0  0  0  0  0  0  0  0  0
    3.8917    0.5767   18.7638 C   0  0  0  0  0  0  0  0  0  0  0  0
    2.6378    1.1421   19.0369 C   0  0  0  0  0  0  0  0  0  0  0  0
    2.1637    1.2152   20.3488 C   0  0  0  0  0  0  0  0  0  0  0  0
    2.9636    0.7600   21.4035 C   0  0  0  0  0  0  0  0  0  0  0  0
    4.2367    0.2379   21.1417 C   0  0  0  0  0  0  0  0  0  0  0  0
    4.7085    0.1453   19.8239 C   0  0  0  0  0  0  0  0  0  0  0  0
    4.8770   -0.0818   21.9595 H   0  0  0  0  0  0  0  0  0  0  0  0
    2.6108    0.8433   22.4267 H   0  0  0  0  0  0  0  0  0  0  0  0
    1.1865    1.6403   20.5532 H   0  0  0  0  0  0  0  0  0  0  0  0
    2.0414    1.5547   18.2351 H   0  0  0  0  0  0  0  0  0  0  0  0
    3.7471    0.8320   16.6512 H   0  0  0  0  0  0  0  0  0  0  0  0
    7.3921   -0.7185   17.9439 H   0  0  0  0  0  0  0  0  0  0  0  0
    6.4508   -1.3167   21.3888 H   0  0  0  0  0  0  0  0  0  0  0  0
    7.8161   -1.2928   20.2575 H   0  0  0  0  0  0  0  0  0  0  0  0
    8.7910    2.5844   23.3812 C   0  0  0  0  0  0  0  0  0  0  0  0
    8.9708    3.7912   24.0903 C   0  0  0  0  0  0  0  0  0  0  0  0
    9.5921    2.1287   22.8142 H   0  0  0  0  0  0  0  0  0  0  0  0
    5.5476    1.9234   24.1374 H   0  0  0  0  0  0  0  0  0  0  0  0
    5.8238    4.0490   25.3937 H   0  0  0  0  0  0  0  0  0  0  0  0
    8.3482    5.4337   26.5734 H   0  0  0  0  0  0  0  0  0  0  0  0
    7.0260    6.1123   25.6076 H   0  0  0  0  0  0  0  0  0  0  0  0
    9.1320    7.4583   25.4054 H   0  0  0  0  0  0  0  0  0  0  0  0
    8.5926    6.8059   23.8475 H   0  0  0  0  0  0  0  0  0  0  0  0
   10.8099    5.7525   25.6549 H   0  0  0  0  0  0  0  0  0  0  0  0
   10.9514    6.4422   24.0113 H   0  0  0  0  0  0  0  0  0  0  0  0
   13.2845    3.9821   24.7974 H   0  0  0  0  0  0  0  0  0  0  0  0
   12.4781    5.4741   24.3473 H   0  0  0  0  0  0  0  0  0  0  0  0
   13.1082    5.0701   21.9354 H   0  0  0  0  0  0  0  0  0  0  0  0
   14.4994    5.1905   23.0245 H   0  0  0  0  0  0  0  0  0  0  0  0
   14.0031    3.5969   22.4569 H   0  0  0  0  0  0  0  0  0  0  0  0
  1  2  1  0
  2  3  1  0
  3  4  2  0
  3  5  1  0
  5  6  1  0
  6  7  1  0
  7  8  1  0
  8  9  1  0
  9 10  2  0
 10 11  1  0
 11 12  2  0
 12 13  1  0
 13 14  1  0
 14 15  1  0
 15 16  2  0
 16 17  1  0
 17 18  2  0
 18 19  1  0
 19 20  1  0
 19 21  2  0
 21 22  1  0
 18 23  1  0
 17 24  1  0
 16 25  1  0
 14 26  1  0
 14 27  1  0
 13 28  1  0
 28 29  2  0
 28 30  1  0
 30 31  1  0
 31 32  2  0
 32 33  1  0
 33 34  2  0
 34 35  1  0
 35 36  2  0
 36 37  1  0
 37 38  2  0
 38 39  1  0
 39 40  2  0
 39 41  1  0
 38 42  1  0
 37 43  1  0
 36 44  1  0
 34 45  1  0
 32 46  1  0
 30 47  1  0
 30 48  1  0
 12 49  1  0
 49 50  2  0
 49 51  1  0
 11 52  1  0
 10 53  1  0
  8 54  1  0
  8 55  1  0
  7 56  1  0
  7 57  1  0
  6 58  1  0
  6 59  1  0
  2 60  1  0
  2 61  1  0
  1 62  1  0
  1 63  1  0
  1 64  1  0
 50  5  1  0
 50  9  1  0
 21 15  1  0
 40 31  1  0
 40 35  1  0
M  END
>  <cnnaffinities>  (69) 
[6.39408]

>  <score>  (69) 
6.39408

>  <index>  (69) 
88

>  <Smiles>  (69) 
C(C(C(=O)N1C(C(C(c2c(c(c(N(C(c3c(c(c(c(Br)c3[H])[H])[H])[H])([H])[H])C(=O)C(c3c(nc(c4c(c(c(c(c34)[H])[H])[H])[H])[H])[H])([H])[H])c(c12)[H])[H])[H])([H])[H])([H])[H])([H])[H])([H])[H])([H])([H])[H]

>  <h>  (69) 
<NA>

>  <Training>  (69) 
True

>  <Success>  (69) 
True

>  <enamine_searched>  (69) 
False

>  <enamine_id>  (69) 
nan

$$$$

     RDKit          3D

 38 40  0  0  0  0  0  0  0  0999 V2000
    5.3575   -2.6177   21.2738 O   0  0  0  0  0  0  0  0  0  0  0  0
    6.1491   -1.8285   21.7668 C   0  0  0  0  0  0  0  0  0  0  0  0
    6.6631   -0.6133   20.9745 C   0  0  0  0  0  0  0  0  0  0  0  0
    5.7788   -0.2207   19.8164 C   0  0  0  0  0  0  0  0  0  0  0  0
    6.2485   -0.2579   18.5279 C   0  0  0  0  0  0  0  0  0  0  0  0
    5.5595    0.1284   17.4195 N   0  0  0  0  0  0  0  0  0  0  0  0
    4.3510    0.5972   17.6234 C   0  0  0  0  0  0  0  0  0  0  0  0
    3.7382    0.7067   18.8990 C   0  0  0  0  0  0  0  0  0  0  0  0
    2.4556    1.2944   19.0658 C   0  0  0  0  0  0  0  0  0  0  0  0
    1.9130    1.4800   20.3064 C   0  0  0  0  0  0  0  0  0  0  0  0
    2.6360    1.0752   21.4495 C   0  0  0  0  0  0  0  0  0  0  0  0
    3.8461    0.4435   21.3164 C   0  0  0  0  0  0  0  0  0  0  0  0
    4.4597    0.2802   20.0386 C   0  0  0  0  0  0  0  0  0  0  0  0
    4.3425    0.0703   22.2070 H   0  0  0  0  0  0  0  0  0  0  0  0
    2.2226    1.2750   22.4356 H   0  0  0  0  0  0  0  0  0  0  0  0
    0.9388    1.9514   20.4241 H   0  0  0  0  0  0  0  0  0  0  0  0
    1.9581    1.6701   18.1806 H   0  0  0  0  0  0  0  0  0  0  0  0
    3.7869    0.9038   16.7440 H   0  0  0  0  0  0  0  0  0  0  0  0
    7.2656   -0.5994   18.3209 H   0  0  0  0  0  0  0  0  0  0  0  0
    7.6549   -0.8757   20.5751 H   0  0  0  0  0  0  0  0  0  0  0  0
    6.8028    0.2513   21.6354 H   0  0  0  0  0  0  0  0  0  0  0  0
    6.6561   -2.0214   23.0292 N   0  0  0  0  0  0  0  0  0  0  0  0
    7.3156   -0.9675   23.8164 C   0  0  0  0  0  0  0  0  0  0  0  0
    7.3050   -1.1943   25.3171 C   0  0  0  0  0  0  0  0  0  0  0  0
    6.2176   -1.5846   25.9835 C   0  0  0  0  0  0  0  0  0  0  0  0
    4.9335   -1.9718   25.2880 C   0  0  0  0  0  0  0  0  0  0  0  0
    5.0902   -3.2960   24.5199 C   0  0  0  0  0  0  0  0  0  0  0  0
    6.3609   -3.3089   23.6594 C   0  0  0  0  0  0  0  0  0  0  0  0
    6.2768   -4.0583   22.8717 H   0  0  0  0  0  0  0  0  0  0  0  0
    7.2267   -3.5615   24.2794 H   0  0  0  0  0  0  0  0  0  0  0  0
    5.1676   -4.1250   25.2372 H   0  0  0  0  0  0  0  0  0  0  0  0
    4.2103   -3.4839   23.8927 H   0  0  0  0  0  0  0  0  0  0  0  0
    4.6461   -1.1848   24.5747 H   0  0  0  0  0  0  0  0  0  0  0  0
    4.1159   -2.0528   26.0102 H   0  0  0  0  0  0  0  0  0  0  0  0
    6.2727   -1.6847   27.0674 H   0  0  0  0  0  0  0  0  0  0  0  0
    8.2171   -0.9561   25.8656 H   0  0  0  0  0  0  0  0  0  0  0  0
    6.8104   -0.0048   23.6313 H   0  0  0  0  0  0  0  0  0  0  0  0
    8.3552   -0.8404   23.4848 H   0  0  0  0  0  0  0  0  0  0  0  0
  1  2  2  0
  2  3  1  0
  3  4  1  0
  4  5  2  0
  5  6  1  0
  6  7  2  0
  7  8  1  0
  8  9  2  0
  9 10  1  0
 10 11  2  0
 11 12  1  0
 12 13  2  0
 12 14  1  0
 11 15  1  0
 10 16  1  0
  9 17  1  0
  7 18  1  0
  5 19  1  0
  3 20  1  0
  3 21  1  0
  2 22  1  0
 22 23  1  0
 23 24  1  0
 24 25  2  0
 25 26  1  0
 26 27  1  0
 27 28  1  0
 28 29  1  0
 28 30  1  0
 27 31  1  0
 27 32  1  0
 26 33  1  0
 26 34  1  0
 25 35  1  0
 24 36  1  0
 23 37  1  0
 23 38  1  0
 13  4  1  0
 28 22  1  0
 13  8  1  0
M  END
>  <cnnaffinities>  (70) 
[5.2098, 4.90601]

>  <score>  (70) 
5.2098

>  <index>  (70) 
89

>  <Smiles>  (70) 
O=C(C(c1c(nc(c2c(c(c(c(c12)[H])[H])[H])[H])[H])[H])([H])[H])N1C(C(=C(C(C(C1([H])[H])([H])[H])([H])[H])[H])[H])([H])[H]

>  <h>  (70) 
<NA>

>  <Training>  (70) 
True

>  <Success>  (70) 
True

>  <enamine_searched>  (70) 
False

>  <enamine_id>  (70) 
nan

$$$$

     RDKit          3D

 62 67  0  0  0  0  0  0  0  0999 V2000
    7.9303   -3.0827   23.2870 C   0  0  0  0  0  0  0  0  0  0  0  0
    8.0549   -1.9843   22.2341 C   0  0  1  0  0  0  0  0  0  0  0  0
    6.8349   -1.9333   21.2960 C   0  0  0  0  0  0  0  0  0  0  0  0
    6.7677   -0.5422   20.8862 N   0  0  0  0  0  0  0  0  0  0  0  0
    5.9167   -0.1047   19.8346 C   0  0  0  0  0  0  0  0  0  0  0  0
    6.3721   -0.1834   18.5435 C   0  0  0  0  0  0  0  0  0  0  0  0
    5.6398    0.1132   17.4417 N   0  0  0  0  0  0  0  0  0  0  0  0
    4.4135    0.5307   17.6329 C   0  0  0  0  0  0  0  0  0  0  0  0
    3.8138    0.6901   18.9125 C   0  0  0  0  0  0  0  0  0  0  0  0
    2.5169    1.2566   19.0635 C   0  0  0  0  0  0  0  0  0  0  0  0
    1.9351    1.3607   20.2991 C   0  0  0  0  0  0  0  0  0  0  0  0
    2.6530    0.9375   21.4385 C   0  0  0  0  0  0  0  0  0  0  0  0
    3.9319    0.4442   21.3237 C   0  0  0  0  0  0  0  0  0  0  0  0
    4.5619    0.3214   20.0557 C   0  0  0  0  0  0  0  0  0  0  0  0
    4.4795    0.1661   22.2133 H   0  0  0  0  0  0  0  0  0  0  0  0
    2.2014    1.0572   22.4188 H   0  0  0  0  0  0  0  0  0  0  0  0
    0.9282    1.7660   20.4185 H   0  0  0  0  0  0  0  0  0  0  0  0
    2.0242    1.6737   18.1915 H   0  0  0  0  0  0  0  0  0  0  0  0
    3.8170    0.7250   16.7433 H   0  0  0  0  0  0  0  0  0  0  0  0
    7.3779   -0.5516   18.3520 H   0  0  0  0  0  0  0  0  0  0  0  0
    7.6640    0.2847   21.5423 C   0  0  0  0  0  0  0  0  0  0  0  0
    7.8810    1.4391   21.2503 O   0  0  0  0  0  0  0  0  0  0  0  0
    8.2539   -0.5098   22.7409 C   0  0  1  0  0  0  0  0  0  0  0  0
    7.3727   -0.1128   23.9598 C   0  0  0  0  0  0  0  0  0  0  0  0
    7.9325   -0.4401   25.2654 N   0  0  0  0  0  0  0  0  0  0  0  0
    6.9979   -0.4740   26.3943 C   0  0  0  0  0  0  0  0  0  0  0  0
    6.4151   -1.8652   26.6014 C   0  0  0  0  0  0  0  0  0  0  0  0
    7.5253   -2.8091   26.9074 N   0  0  0  0  0  4  0  0  0  0  0  0
    8.1551   -2.7193   28.3159 C   0  0  0  0  0  0  0  0  0  0  0  0
    7.7742   -4.1893   28.6320 C   0  0  0  0  0  0  0  0  0  0  0  0
    7.1938   -4.2688   27.1886 C   0  0  0  0  0  0  0  0  0  0  0  0
    7.7297   -4.9155   26.4970 H   0  0  0  0  0  0  0  0  0  0  0  0
    6.1230   -4.4540   27.1138 H   0  0  0  0  0  0  0  0  0  0  0  0
    8.6186   -4.8509   28.8488 H   0  0  0  0  0  0  0  0  0  0  0  0
    7.0169   -4.2708   29.4171 H   0  0  0  0  0  0  0  0  0  0  0  0
    7.6646   -1.9571   28.9190 H   0  0  0  0  0  0  0  0  0  0  0  0
    9.2144   -2.5146   28.2322 H   0  0  0  0  0  0  0  0  0  0  0  0
    8.2353   -2.7003   26.1644 H   0  0  0  0  0  0  0  0  0  0  0  0
    5.9219   -2.2223   25.6936 H   0  0  0  0  0  0  0  0  0  0  0  0
    5.6828   -1.8911   27.4176 H   0  0  0  0  0  0  0  0  0  0  0  0
    7.5640   -0.1663   27.2754 H   0  0  0  0  0  0  0  0  0  0  0  0
    6.1849    0.2463   26.2399 H   0  0  0  0  0  0  0  0  0  0  0  0
    9.2538   -0.2164   25.5415 C   0  0  0  0  0  0  0  0  0  0  0  0
    9.6881   -0.1444   26.6860 O   0  0  0  0  0  0  0  0  0  0  0  0
   10.1656   -0.1034   24.3621 C   0  0  0  0  0  0  0  0  0  0  0  0
   11.5163    0.0785   24.6435 C   0  0  0  0  0  0  0  0  0  0  0  0
   12.4392    0.2104   23.6328 C   0  0  0  0  0  0  0  0  0  0  0  0
   11.9891    0.2095   22.3162 C   0  0  0  0  0  0  0  0  0  0  0  0
   13.2173    0.5032   21.1151 Cl  0  0  0  0  0  0  0  0  0  0  0  0
   10.6497    0.0034   22.0056 C   0  0  0  0  0  0  0  0  0  0  0  0
    9.7072   -0.1753   23.0396 C   0  0  0  0  0  0  0  0  0  0  0  0
   10.3351   -0.0069   20.9667 H   0  0  0  0  0  0  0  0  0  0  0  0
   13.4990    0.3197   23.8395 H   0  0  0  0  0  0  0  0  0  0  0  0
   11.8165    0.1168   25.6803 H   0  0  0  0  0  0  0  0  0  0  0  0
    6.3963   -0.6052   23.8638 H   0  0  0  0  0  0  0  0  0  0  0  0
    7.1919    0.9711   23.8896 H   0  0  0  0  0  0  0  0  0  0  0  0
    6.9515   -2.5873   20.4211 H   0  0  0  0  0  0  0  0  0  0  0  0
    5.9140   -2.2412   21.8181 H   0  0  0  0  0  0  0  0  0  0  0  0
    8.9467   -2.1916   21.6260 H   0  0  0  0  0  0  0  0  0  0  0  0
    8.7910   -3.1107   23.9618 H   0  0  0  0  0  0  0  0  0  0  0  0
    7.0361   -2.9418   23.9032 H   0  0  0  0  0  0  0  0  0  0  0  0
    7.8400   -4.0666   22.8137 H   0  0  0  0  0  0  0  0  0  0  0  0
  1  2  1  0
  2  3  1  0
  3  4  1  0
  4  5  1  0
  5  6  2  0
  6  7  1  0
  7  8  2  0
  8  9  1  0
  9 10  2  0
 10 11  1  0
 11 12  2  0
 12 13  1  0
 13 14  2  0
 13 15  1  0
 12 16  1  0
 11 17  1  0
 10 18  1  0
  8 19  1  0
  6 20  1  0
  4 21  1  0
 21 22  2  0
 21 23  1  0
 23 24  1  1
 24 25  1  0
 25 26  1  0
 26 27  1  0
 27 28  1  0
 28 29  1  0
 29 30  1  0
 30 31  1  0
 31 32  1  0
 31 33  1  0
 30 34  1  0
 30 35  1  0
 29 36  1  0
 29 37  1  0
 28 38  1  0
 27 39  1  0
 27 40  1  0
 26 41  1  0
 26 42  1  0
 25 43  1  0
 43 44  2  0
 43 45  1  0
 45 46  2  0
 46 47  1  0
 47 48  2  0
 48 49  1  0
 48 50  1  0
 50 51  2  0
 50 52  1  0
 47 53  1  0
 46 54  1  0
 24 55  1  0
 24 56  1  0
  3 57  1  0
  3 58  1  0
  2 59  1  6
  1 60  1  0
  1 61  1  0
  1 62  1  0
 23  2  1  0
 31 28  1  0
 51 45  1  0
 14  5  1  0
 51 23  1  0
 14  9  1  0
M  CHG  1  28   1
M  END
>  <cnnaffinities>  (71) 
[6.32084]

>  <score>  (71) 
6.32084

>  <index>  (71) 
90

>  <Smiles>  (71) 
C([C@]1(C(N(c2c(nc(c3c(c(c(c(c23)[H])[H])[H])[H])[H])[H])C(=O)[C@]21C(N(C(C([N+]1(C(C(C1([H])[H])([H])[H])([H])[H])[H])([H])[H])([H])[H])C(=O)c1c(c(c(Cl)c(c21)[H])[H])[H])([H])[H])([H])[H])[H])([H])([H])[H]

>  <h>  (71) 
<NA>

>  <Training>  (71) 
True

>  <Success>  (71) 
True

>  <enamine_searched>  (71) 
False

>  <enamine_id>  (71) 
nan

$$$$

     RDKit          3D

 56 61  0  0  0  0  0  0  0  0999 V2000
   10.0328   -1.5535   22.4073 C   0  0  0  0  0  0  0  0  0  0  0  0
    8.6284   -0.9496   22.3618 C   0  0  1  0  0  0  0  0  0  0  0  0
    8.3019   -0.3422   20.9818 C   0  0  0  0  0  0  0  0  0  0  0  0
    6.8623   -0.4751   20.8617 N   0  0  0  0  0  0  0  0  0  0  0  0
    6.1213    0.0475   19.7642 C   0  0  0  0  0  0  0  0  0  0  0  0
    6.4632   -0.2286   18.4322 C   0  0  0  0  0  0  0  0  0  0  0  0
    5.8356    0.2206   17.3467 N   0  0  0  0  0  0  0  0  0  0  0  0
    4.7608    0.9795   17.5383 C   0  0  0  0  0  0  0  0  0  0  0  0
    4.1208    1.1997   18.7630 C   0  0  0  0  0  0  0  0  0  0  0  0
    2.8222    1.8296   18.6395 C   0  0  0  0  0  0  0  0  0  0  0  0
    0.7904    2.6965   20.5742 C   0  0  0  0  0  0  0  0  0  0  0  0
    3.3530    1.8183   21.8230 C   0  0  0  0  0  0  0  0  0  0  0  0
    4.4002    1.1459   21.4863 C   0  0  0  0  0  0  0  0  0  0  0  0
    4.9672    0.7453   19.9327 C   0  0  0  0  0  0  0  0  0  0  0  0
    5.2475    0.9654   22.2191 H   0  0  0  0  0  0  0  0  0  0  0  0
    3.0327    2.6346   22.4707 H   0  0  0  0  0  0  0  0  0  0  0  0
    1.9599    3.2829   20.4652 H   0  0  0  0  0  0  0  0  0  0  0  0
    2.5449    2.8619   18.1698 H   0  0  0  0  0  0  0  0  0  0  0  0
    4.2043    1.3979   16.6936 H   0  0  0  0  0  0  0  0  0  0  0  0
    7.2924   -0.8895   18.2566 H   0  0  0  0  0  0  0  0  0  0  0  0
    6.3400   -1.3956   21.7440 C   0  0  0  0  0  0  0  0  0  0  0  0
    5.1788   -1.7944   21.7580 O   0  0  0  0  0  0  0  0  0  0  0  0
    7.4399   -1.9092   22.6962 C   0  0  1  0  0  0  0  0  0  0  0  0
    7.7538   -3.3883   22.2976 C   0  0  0  0  0  0  0  0  0  0  0  0
    6.6500   -4.2738   22.6446 N   0  0  0  0  0  0  0  0  0  0  0  0
    6.2737   -5.3327   21.6978 C   0  0  0  0  0  0  0  0  0  0  0  0
    7.0309   -6.5578   21.8257 C   0  0  0  0  0  0  0  0  0  0  0  0
    8.4389   -6.9530   21.1846 C   0  0  0  0  0  0  0  0  0  0  0  0
    8.4389   -6.9535   21.1849 N   0  0  0  0  0  0  0  0  0  0  0  0
    8.1200   -8.2851   22.2797 N   0  0  0  0  0  0  0  0  0  0  0  0
    6.9563   -7.6619   22.5668 C   0  0  0  0  0  0  0  0  0  0  0  0
    6.1711   -7.9079   23.2814 H   0  0  0  0  0  0  0  0  0  0  0  0
    8.3277   -9.2200   22.7469 H   0  0  0  0  0  0  0  0  0  0  0  0
    8.7286   -6.1485   20.4337 H   0  0  0  0  0  0  0  0  0  0  0  0
    6.2234   -4.9188   20.6859 H   0  0  0  0  0  0  0  0  0  0  0  0
    5.2311   -5.6282   21.9434 H   0  0  0  0  0  0  0  0  0  0  0  0
    6.1964   -4.2904   23.9573 C   0  0  0  0  0  0  0  0  0  0  0  0
    5.6244   -5.2629   24.4538 O   0  0  0  0  0  0  0  0  0  0  0  0
    6.3803   -3.0129   24.7528 C   0  0  0  0  0  0  0  0  0  0  0  0
    5.9201   -2.9517   26.0802 C   0  0  0  0  0  0  0  0  0  0  0  0
    5.9156   -1.7608   26.7860 C   0  0  0  0  0  0  0  0  0  0  0  0
    6.3424   -0.6096   26.1333 C   0  0  0  0  0  0  0  0  0  0  0  0
    6.2800    0.5666   26.7869 F   0  0  0  0  0  0  0  0  0  0  0  0
    6.8143   -0.6419   24.8322 C   0  0  0  0  0  0  0  0  0  0  0  0
    6.9126   -1.8648   24.1386 C   0  0  0  0  0  0  0  0  0  0  0  0
    7.0575    0.3053   24.3597 H   0  0  0  0  0  0  0  0  0  0  0  0
    5.5539   -1.7071   27.8097 H   0  0  0  0  0  0  0  0  0  0  0  0
    5.5317   -3.8435   26.5647 H   0  0  0  0  0  0  0  0  0  0  0  0
    8.6638   -3.7267   22.8143 H   0  0  0  0  0  0  0  0  0  0  0  0
    7.9520   -3.4425   21.2190 H   0  0  0  0  0  0  0  0  0  0  0  0
    8.8080   -0.8931   20.1770 H   0  0  0  0  0  0  0  0  0  0  0  0
    8.6050    0.7103   20.9296 H   0  0  0  0  0  0  0  0  0  0  0  0
    8.6257   -0.1258   23.0821 H   0  0  0  0  0  0  0  0  0  0  0  0
   10.7835   -0.7720   22.2432 H   0  0  0  0  0  0  0  0  0  0  0  0
   10.1773   -2.3139   21.6310 H   0  0  0  0  0  0  0  0  0  0  0  0
   10.2325   -2.0107   23.3832 H   0  0  0  0  0  0  0  0  0  0  0  0
  1  2  1  0
  2  3  1  0
  3  4  1  0
  4  5  1  0
  5  6  2  0
  6  7  1  0
  7  8  2  0
  8  9  1  0
  9 10  2  0
 10 11  1  0
 11 12  2  0
 12 13  1  0
 13 14  2  0
 13 15  1  0
 12 16  1  0
 11 17  1  0
 10 18  1  0
  8 19  1  0
  6 20  1  0
  4 21  1  0
 21 22  2  0
 21 23  1  0
 23 24  1  6
 24 25  1  0
 25 26  1  0
 26 27  1  0
 27 28  1  0
 28 29  2  0
 29 30  1  0
 30 31  1  0
 31 32  1  0
 30 33  1  0
 28 34  1  0
 26 35  1  0
 26 36  1  0
 25 37  1  0
 37 38  2  0
 37 39  1  0
 39 40  2  0
 40 41  1  0
 41 42  2  0
 42 43  1  0
 42 44  1  0
 44 45  2  0
 44 46  1  0
 41 47  1  0
 40 48  1  0
 24 49  1  0
 24 50  1  0
  3 51  1  0
  3 52  1  0
  2 53  1  1
  1 54  1  0
  1 55  1  0
  1 56  1  0
 23  2  1  0
 31 27  2  0
 45 39  1  0
 14  5  1  0
 45 23  1  0
 14  9  1  0
M  END
>  <cnnaffinities>  (72) 
[6.32196]

>  <score>  (72) 
6.32196

>  <index>  (72) 
91

>  <Smiles>  (72) 
C([C@]1(C(N(c2c(nc(c3c(c(c(c(c23)[H])[H])[H])[H])[H])[H])C(=O)[C@]21C(N(C(c1c(nn(c1[H])[H])[H])([H])[H])C(=O)c1c(c(c(F)c(c21)[H])[H])[H])([H])[H])([H])[H])[H])([H])([H])[H]

>  <h>  (72) 
<NA>

>  <Training>  (72) 
True

>  <Success>  (72) 
True

>  <enamine_searched>  (72) 
False

>  <enamine_id>  (72) 
nan

$$$$

     RDKit          3D

 58 62  0  0  0  0  0  0  0  0999 V2000
    7.5730    0.4885   29.1156 C   0  0  0  0  0  0  0  0  0  0  0  0
    7.2628    0.9311   27.7369 N   0  0  0  0  0  4  0  0  0  0  0  0
    6.3545   -0.0095   27.0198 C   0  0  0  0  0  0  0  0  0  0  0  0
    7.1408   -1.1008   26.2911 C   0  0  0  0  0  0  0  0  0  0  0  0
    7.9687   -0.5584   25.2180 N   0  0  0  0  0  0  0  0  0  0  0  0
    7.3401   -0.1264   23.9754 C   0  0  0  0  0  0  0  0  0  0  0  0
    8.1932   -0.5018   22.7321 C   0  0  2  0  0  0  0  0  0  0  0  0
    7.5824    0.2866   21.5560 C   0  0  0  0  0  0  0  0  0  0  0  0
    7.7436    1.4622   21.2989 O   0  0  0  0  0  0  0  0  0  0  0  0
    6.7269   -0.5484   20.8717 N   0  0  0  0  0  0  0  0  0  0  0  0
    5.8908   -0.1007   19.8124 C   0  0  0  0  0  0  0  0  0  0  0  0
    6.3513   -0.1810   18.5243 C   0  0  0  0  0  0  0  0  0  0  0  0
    5.6276    0.1525   17.4239 N   0  0  0  0  0  0  0  0  0  0  0  0
    4.4083    0.5923   17.6218 C   0  0  0  0  0  0  0  0  0  0  0  0
    3.7976    0.7378   18.9016 C   0  0  0  0  0  0  0  0  0  0  0  0
    2.5048    1.3059   19.0612 C   0  0  0  0  0  0  0  0  0  0  0  0
    1.9550    1.4519   20.3029 C   0  0  0  0  0  0  0  0  0  0  0  0
    2.6831    1.0719   21.4552 C   0  0  0  0  0  0  0  0  0  0  0  0
    3.9282    0.4999   21.3292 C   0  0  0  0  0  0  0  0  0  0  0  0
    4.5432    0.3493   20.0480 C   0  0  0  0  0  0  0  0  0  0  0  0
    4.4718    0.1982   22.2231 H   0  0  0  0  0  0  0  0  0  0  0  0
    2.2551    1.2517   22.4396 H   0  0  0  0  0  0  0  0  0  0  0  0
    0.9816    1.9166   20.4159 H   0  0  0  0  0  0  0  0  0  0  0  0
    2.0014    1.6646   18.1705 H   0  0  0  0  0  0  0  0  0  0  0  0
    3.8338    0.8536   16.7304 H   0  0  0  0  0  0  0  0  0  0  0  0
    7.3485   -0.5781   18.3353 H   0  0  0  0  0  0  0  0  0  0  0  0
    6.8189   -1.9384   21.2582 C   0  0  0  0  0  0  0  0  0  0  0  0
    8.0073   -1.9812   22.2346 C   0  0  2  0  0  0  0  0  0  0  0  0
    7.8208   -3.0700   23.2928 C   0  0  0  0  0  0  0  0  0  0  0  0
    6.8834   -2.9168   23.8446 H   0  0  0  0  0  0  0  0  0  0  0  0
    7.7470   -4.0530   22.8105 H   0  0  0  0  0  0  0  0  0  0  0  0
    8.6452   -3.0883   24.0130 H   0  0  0  0  0  0  0  0  0  0  0  0
    8.9220   -2.1947   21.6610 H   0  0  0  0  0  0  0  0  0  0  0  0
    6.9837   -2.5663   20.3778 H   0  0  0  0  0  0  0  0  0  0  0  0
    5.8934   -2.2907   21.7383 H   0  0  0  0  0  0  0  0  0  0  0  0
    9.6508   -0.1436   23.0134 C   0  0  0  0  0  0  0  0  0  0  0  0
   10.5706    0.0443   21.9656 C   0  0  0  0  0  0  0  0  0  0  0  0
   11.9119    0.2467   22.2586 C   0  0  0  0  0  0  0  0  0  0  0  0
   12.8078    0.4627   21.2821 F   0  0  0  0  0  0  0  0  0  0  0  0
   12.4048    0.2367   23.5545 C   0  0  0  0  0  0  0  0  0  0  0  0
   11.5022    0.0978   24.5851 C   0  0  0  0  0  0  0  0  0  0  0  0
   10.1396   -0.0468   24.3285 C   0  0  0  0  0  0  0  0  0  0  0  0
    9.2324   -0.1583   25.5039 C   0  0  0  0  0  0  0  0  0  0  0  0
    9.5963    0.0911   26.6627 O   0  0  0  0  0  0  0  0  0  0  0  0
   11.8265    0.1100   25.6167 H   0  0  0  0  0  0  0  0  0  0  0  0
   13.4718    0.3298   23.7235 H   0  0  0  0  0  0  0  0  0  0  0  0
   10.2500    0.0233   20.9302 H   0  0  0  0  0  0  0  0  0  0  0  0
    6.3452   -0.5871   23.9135 H   0  0  0  0  0  0  0  0  0  0  0  0
    7.2049    0.9708   23.9677 H   0  0  0  0  0  0  0  0  0  0  0  0
    7.8155   -1.6148   26.9861 H   0  0  0  0  0  0  0  0  0  0  0  0
    6.4575   -1.8466   25.8667 H   0  0  0  0  0  0  0  0  0  0  0  0
    5.7751    0.5592   26.2909 H   0  0  0  0  0  0  0  0  0  0  0  0
    5.6584   -0.4546   27.7377 H   0  0  0  0  0  0  0  0  0  0  0  0
    8.1696    0.9642   27.2349 H   0  0  0  0  0  0  0  0  0  0  0  0
    6.8562    1.8851   27.7521 H   0  0  0  0  0  0  0  0  0  0  0  0
    7.9177    1.3334   29.7145 H   0  0  0  0  0  0  0  0  0  0  0  0
    8.3577   -0.2748   29.0940 H   0  0  0  0  0  0  0  0  0  0  0  0
    6.6842    0.0652   29.5880 H   0  0  0  0  0  0  0  0  0  0  0  0
  1  2  1  0
  2  3  1  0
  3  4  1  0
  4  5  1  0
  5  6  1  0
  7  6  1  1
  7  8  1  0
  8  9  2  0
  8 10  1  0
 10 11  1  0
 11 12  2  0
 12 13  1  0
 13 14  2  0
 14 15  1  0
 15 16  2  0
 16 17  1  0
 17 18  2  0
 18 19  1  0
 19 20  2  0
 19 21  1  0
 18 22  1  0
 17 23  1  0
 16 24  1  0
 14 25  1  0
 12 26  1  0
 10 27  1  0
 27 28  1  0
 28 29  1  0
 29 30  1  0
 29 31  1  0
 29 32  1  0
 28 33  1  6
 27 34  1  0
 27 35  1  0
  7 36  1  0
 36 37  2  0
 37 38  1  0
 38 39  1  0
 38 40  2  0
 40 41  1  0
 41 42  2  0
 42 43  1  0
 43 44  2  0
 41 45  1  0
 40 46  1  0
 37 47  1  0
  6 48  1  0
  6 49  1  0
  4 50  1  0
  4 51  1  0
  3 52  1  0
  3 53  1  0
  2 54  1  0
  2 55  1  0
  1 56  1  0
  1 57  1  0
  1 58  1  0
 43  5  1  0
 28  7  1  0
 42 36  1  0
 20 11  1  0
 20 15  1  0
M  CHG  1   2   1
M  END
>  <cnnaffinities>  (73) 
[6.26292]

>  <score>  (73) 
6.26292

>  <index>  (73) 
93

>  <Smiles>  (73) 
C([N+](C(C(N1C([C@@]2(C(=O)N(c3c(nc(c4c(c(c(c(c34)[H])[H])[H])[H])[H])[H])C([C@@]2(C([H])([H])[H])[H])([H])[H])c2c(c(F)c(c(c2C1=O)[H])[H])[H])([H])[H])([H])[H])([H])[H])([H])[H])([H])([H])[H]

>  <h>  (73) 
<NA>

>  <Training>  (73) 
True

>  <Success>  (73) 
True

>  <enamine_searched>  (73) 
False

>  <enamine_id>  (73) 
nan

$$$$

     RDKit          3D

 67 71  0  0  0  0  0  0  0  0999 V2000
    5.1025   -3.1293   18.5513 C   0  0  0  0  0  0  0  0  0  0  0  0
    6.1027   -3.6544   19.4523 N   0  0  0  0  0  0  0  0  0  0  0  0
    6.0068   -4.8761   20.0318 C   0  0  0  0  0  0  0  0  0  0  0  0
    5.1146   -5.6554   19.7457 O   0  0  0  0  0  0  0  0  0  0  0  0
    7.1287   -5.2727   21.0188 C   0  0  0  0  0  0  0  0  0  0  0  0
    7.3065   -4.4083   22.1662 N   0  0  0  0  0  0  0  0  0  0  0  0
    8.1471   -3.2217   22.1137 C   0  0  0  0  0  0  0  0  0  0  0  0
    7.4083   -1.9956   22.7039 C   0  0  2  0  0  0  0  0  0  0  0  0
    6.2532   -1.6182   21.7571 C   0  0  0  0  0  0  0  0  0  0  0  0
    5.1725   -2.1662   21.6645 O   0  0  0  0  0  0  0  0  0  0  0  0
    6.6578   -0.5685   20.9584 N   0  0  0  0  0  0  0  0  0  0  0  0
    5.8880   -0.0869   19.8899 C   0  0  0  0  0  0  0  0  0  0  0  0
    6.4503    0.0447   18.6414 C   0  0  0  0  0  0  0  0  0  0  0  0
    5.7467    0.3406   17.5257 N   0  0  0  0  0  0  0  0  0  0  0  0
    4.4653    0.5973   17.6783 C   0  0  0  0  0  0  0  0  0  0  0  0
    3.8080    0.6627   18.9339 C   0  0  0  0  0  0  0  0  0  0  0  0
    2.4995    1.2051   19.0584 C   0  0  0  0  0  0  0  0  0  0  0  0
    1.8954    1.2952   20.2826 C   0  0  0  0  0  0  0  0  0  0  0  0
    2.6094    0.9236   21.4403 C   0  0  0  0  0  0  0  0  0  0  0  0
    3.8882    0.4322   21.3566 C   0  0  0  0  0  0  0  0  0  0  0  0
    4.5211    0.2910   20.0900 C   0  0  0  0  0  0  0  0  0  0  0  0
    4.4251    0.1679   22.2598 H   0  0  0  0  0  0  0  0  0  0  0  0
    2.1368    0.9878   22.4141 H   0  0  0  0  0  0  0  0  0  0  0  0
    0.8805    1.6789   20.3760 H   0  0  0  0  0  0  0  0  0  0  0  0
    2.0426    1.6308   18.1717 H   0  0  0  0  0  0  0  0  0  0  0  0
    3.8860    0.7920   16.7755 H   0  0  0  0  0  0  0  0  0  0  0  0
    7.5055   -0.1703   18.4808 H   0  0  0  0  0  0  0  0  0  0  0  0
    8.0256   -0.1451   21.2133 C   0  0  0  0  0  0  0  0  0  0  0  0
    8.2579   -0.6862   22.6360 C   0  0  2  0  0  0  0  0  0  0  0  0
    9.7290   -0.8071   23.0429 C   0  0  0  0  0  0  0  0  0  0  0  0
   10.4375    0.7697   23.5506 S   0  0  0  0  0  0  0  0  0  0  0  0
   10.1195    0.9884   24.9591 O   0  0  0  0  0  0  0  0  0  0  0  0
   10.0110    1.7543   22.5660 O   0  0  0  0  0  0  0  0  0  0  0  0
   12.1092    0.4713   23.4153 N   0  0  0  0  0  0  0  0  0  0  0  0
   12.5961   -0.3627   24.5216 C   0  0  0  0  0  0  0  0  0  0  0  0
   12.2122   -1.3829   24.4127 H   0  0  0  0  0  0  0  0  0  0  0  0
   12.3035    0.0569   25.4932 H   0  0  0  0  0  0  0  0  0  0  0  0
   13.6870   -0.4280   24.4613 H   0  0  0  0  0  0  0  0  0  0  0  0
   12.9731    1.6348   23.1522 C   0  0  0  0  0  0  0  0  0  0  0  0
   12.7874    2.4834   23.8282 H   0  0  0  0  0  0  0  0  0  0  0  0
   14.0062    1.2985   23.2816 H   0  0  0  0  0  0  0  0  0  0  0  0
   12.8861    1.9501   22.1127 H   0  0  0  0  0  0  0  0  0  0  0  0
   10.3329   -1.1679   22.2015 H   0  0  0  0  0  0  0  0  0  0  0  0
    9.8366   -1.4893   23.8925 H   0  0  0  0  0  0  0  0  0  0  0  0
    7.7743    0.0356   23.2939 H   0  0  0  0  0  0  0  0  0  0  0  0
    8.1094    0.9406   21.1555 H   0  0  0  0  0  0  0  0  0  0  0  0
    8.7352   -0.5846   20.4956 H   0  0  0  0  0  0  0  0  0  0  0  0
    6.8783   -2.3900   24.0691 C   0  0  0  0  0  0  0  0  0  0  0  0
    6.5357   -1.4237   25.0217 C   0  0  0  0  0  0  0  0  0  0  0  0
    5.9754   -1.8190   26.2194 C   0  0  0  0  0  0  0  0  0  0  0  0
    5.6302   -0.8693   27.1044 F   0  0  0  0  0  0  0  0  0  0  0  0
    5.7486   -3.1491   26.5515 C   0  0  0  0  0  0  0  0  0  0  0  0
    6.0873   -4.1048   25.6163 C   0  0  0  0  0  0  0  0  0  0  0  0
    6.6070   -3.7324   24.3776 C   0  0  0  0  0  0  0  0  0  0  0  0
    6.7775   -4.8163   23.3627 C   0  0  0  0  0  0  0  0  0  0  0  0
    6.4334   -5.9698   23.5759 O   0  0  0  0  0  0  0  0  0  0  0  0
    5.9470   -5.1622   25.8075 H   0  0  0  0  0  0  0  0  0  0  0  0
    5.3124   -3.4005   27.5124 H   0  0  0  0  0  0  0  0  0  0  0  0
    6.6965   -0.3653   24.8559 H   0  0  0  0  0  0  0  0  0  0  0  0
    9.0709   -3.3863   22.6850 H   0  0  0  0  0  0  0  0  0  0  0  0
    8.4358   -3.0400   21.0793 H   0  0  0  0  0  0  0  0  0  0  0  0
    8.0976   -5.3441   20.5174 H   0  0  0  0  0  0  0  0  0  0  0  0
    6.8809   -6.2666   21.4000 H   0  0  0  0  0  0  0  0  0  0  0  0
    6.7954   -3.0049   19.7853 H   0  0  0  0  0  0  0  0  0  0  0  0
    5.0750   -3.7015   17.6261 H   0  0  0  0  0  0  0  0  0  0  0  0
    4.1237   -3.1158   19.0282 H   0  0  0  0  0  0  0  0  0  0  0  0
    5.3462   -2.1033   18.2823 H   0  0  0  0  0  0  0  0  0  0  0  0
  1  2  1  0
  2  3  1  0
  3  4  2  0
  3  5  1  0
  5  6  1  0
  6  7  1  0
  8  7  1  6
  8  9  1  0
  9 10  2  0
  9 11  1  0
 11 12  1  0
 12 13  2  0
 13 14  1  0
 14 15  2  0
 15 16  1  0
 16 17  2  0
 17 18  1  0
 18 19  2  0
 19 20  1  0
 20 21  2  0
 20 22  1  0
 19 23  1  0
 18 24  1  0
 17 25  1  0
 15 26  1  0
 13 27  1  0
 11 28  1  0
 28 29  1  0
 29 30  1  0
 30 31  1  0
 31 32  2  0
 31 33  2  0
 31 34  1  0
 34 35  1  0
 35 36  1  0
 35 37  1  0
 35 38  1  0
 34 39  1  0
 39 40  1  0
 39 41  1  0
 39 42  1  0
 30 43  1  0
 30 44  1  0
 29 45  1  1
 28 46  1  0
 28 47  1  0
  8 48  1  0
 48 49  2  0
 49 50  1  0
 50 51  1  0
 50 52  2  0
 52 53  1  0
 53 54  2  0
 54 55  1  0
 55 56  2  0
 53 57  1  0
 52 58  1  0
 49 59  1  0
  7 60  1  0
  7 61  1  0
  5 62  1  0
  5 63  1  0
  2 64  1  0
  1 65  1  0
  1 66  1  0
  1 67  1  0
 55  6  1  0
 29  8  1  0
 54 48  1  0
 21 12  1  0
 21 16  1  0
M  END
>  <cnnaffinities>  (74) 
[6.79054]

>  <score>  (74) 
6.79054

>  <index>  (74) 
95

>  <Smiles>  (74) 
C(N(C(=O)C(N1C([C@@]2(C(=O)N(c3c(nc(c4c(c(c(c(c34)[H])[H])[H])[H])[H])[H])C([C@@]2(C(S(=O)(=O)N(C([H])([H])[H])C([H])([H])[H])([H])[H])[H])([H])[H])c2c(c(F)c(c(c2C1=O)[H])[H])[H])([H])[H])([H])[H])[H])([H])([H])[H]

>  <h>  (74) 
<NA>

>  <Training>  (74) 
True

>  <Success>  (74) 
True

>  <enamine_searched>  (74) 
False

>  <enamine_id>  (74) 
nan

$$$$
