
     RDKit          3D

 58 63  0  0  0  0  0  0  0  0999 V2000
    7.2583   -2.4531   23.5933 C   0  0  0  0  0  0  0  0  0  0  0  0
    8.0821   -1.8817   22.4280 C   0  0  1  0  0  0  0  0  0  0  0  0
    7.2929   -1.8302   21.1068 C   0  0  0  0  0  0  0  0  0  0  0  0
    6.8947   -0.4435   20.9841 N   0  0  0  0  0  0  0  0  0  0  0  0
    6.0079   -0.0571   19.9489 C   0  0  0  0  0  0  0  0  0  0  0  0
    6.2790   -0.4118   18.6495 C   0  0  0  0  0  0  0  0  0  0  0  0
    5.4053   -0.2989   17.6245 N   0  0  0  0  0  0  0  0  0  0  0  0
    4.2190    0.1918   17.8965 C   0  0  0  0  0  0  0  0  0  0  0  0
    3.8285    0.6511   19.1906 C   0  0  0  0  0  0  0  0  0  0  0  0
    2.5876    1.3052   19.4141 C   0  0  0  0  0  0  0  0  0  0  0  0
    2.3241    1.9195   20.6085 C   0  0  0  0  0  0  0  0  0  0  0  0
    3.2725    1.8778   21.6547 C   0  0  0  0  0  0  0  0  0  0  0  0
    4.4563    1.2046   21.4893 C   0  0  0  0  0  0  0  0  0  0  0  0
    4.7709    0.5973   20.2414 C   0  0  0  0  0  0  0  0  0  0  0  0
    5.1760    1.1389   22.3020 H   0  0  0  0  0  0  0  0  0  0  0  0
    3.0794    2.3831   22.5980 H   0  0  0  0  0  0  0  0  0  0  0  0
    1.3900    2.4512   20.7488 H   0  0  0  0  0  0  0  0  0  0  0  0
    1.9146    1.4142   18.5758 H   0  0  0  0  0  0  0  0  0  0  0  0
    3.5130    0.2560   17.0675 H   0  0  0  0  0  0  0  0  0  0  0  0
    7.2569   -0.8152   18.3832 H   0  0  0  0  0  0  0  0  0  0  0  0
    7.7797    0.4052   21.6228 C   0  0  0  0  0  0  0  0  0  0  0  0
    7.8386    1.5998   21.4369 O   0  0  0  0  0  0  0  0  0  0  0  0
    8.6733   -0.4412   22.5736 C   0  0  1  0  0  0  0  0  0  0  0  0
    8.6018    0.0877   24.0187 C   0  0  0  0  0  0  0  0  0  0  0  0
    9.2146    1.3956   24.1660 N   0  0  0  0  0  0  0  0  0  0  0  0
    8.6468    2.2933   25.1666 C   0  0  0  0  0  0  0  0  0  0  0  0
    7.2278    2.6648   24.8462 C   0  0  0  0  0  0  0  0  0  0  0  0
    6.7121    3.5180   23.8618 C   0  0  0  0  0  0  0  0  0  0  0  0
    5.3781    3.4797   23.9266 N   0  0  0  0  0  0  0  0  0  0  0  0
    5.1352    2.6327   24.9046 N   0  0  0  0  0  0  0  0  0  0  0  0
    3.7925    2.2565   25.2849 C   0  0  0  0  0  0  0  0  0  0  0  0
    3.7687    2.1098   26.3648 H   0  0  0  0  0  0  0  0  0  0  0  0
    3.1218    3.0672   24.9979 H   0  0  0  0  0  0  0  0  0  0  0  0
    3.4894    1.3299   24.7860 H   0  0  0  0  0  0  0  0  0  0  0  0
    6.1979    2.1111   25.4891 N   0  0  0  0  0  0  0  0  0  0  0  0
    7.2178    4.1355   23.1284 H   0  0  0  0  0  0  0  0  0  0  0  0
    9.3081    3.1634   25.1973 H   0  0  0  0  0  0  0  0  0  0  0  0
    8.6566    1.8282   26.1641 H   0  0  0  0  0  0  0  0  0  0  0  0
   10.4325    1.6823   23.6084 C   0  0  0  0  0  0  0  0  0  0  0  0
   11.0725    2.6828   23.9083 O   0  0  0  0  0  0  0  0  0  0  0  0
   10.9504    0.6587   22.6471 C   0  0  0  0  0  0  0  0  0  0  0  0
   12.2958    0.7215   22.3110 C   0  0  0  0  0  0  0  0  0  0  0  0
   12.8742   -0.2310   21.5029 C   0  0  0  0  0  0  0  0  0  0  0  0
   12.0641   -1.2611   21.0329 C   0  0  0  0  0  0  0  0  0  0  0  0
   12.5625   -2.1413   20.1450 F   0  0  0  0  0  0  0  0  0  0  0  0
   10.7301   -1.3511   21.3508 C   0  0  0  0  0  0  0  0  0  0  0  0
   10.1406   -0.3765   22.1679 C   0  0  0  0  0  0  0  0  0  0  0  0
   10.1874   -2.1903   20.9361 H   0  0  0  0  0  0  0  0  0  0  0  0
   13.9214   -0.1851   21.2418 H   0  0  0  0  0  0  0  0  0  0  0  0
   12.8665    1.5356   22.7315 H   0  0  0  0  0  0  0  0  0  0  0  0
    7.5611    0.1734   24.3309 H   0  0  0  0  0  0  0  0  0  0  0  0
    9.1244   -0.6539   24.6425 H   0  0  0  0  0  0  0  0  0  0  0  0
    6.4093   -2.4794   21.1018 H   0  0  0  0  0  0  0  0  0  0  0  0
    7.9441   -2.1093   20.2656 H   0  0  0  0  0  0  0  0  0  0  0  0
    8.9089   -2.5850   22.3278 H   0  0  0  0  0  0  0  0  0  0  0  0
    7.8738   -2.5362   24.4976 H   0  0  0  0  0  0  0  0  0  0  0  0
    6.3737   -1.8506   23.8308 H   0  0  0  0  0  0  0  0  0  0  0  0
    6.9284   -3.4691   23.3347 H   0  0  0  0  0  0  0  0  0  0  0  0
  1  2  1  0
  2  3  1  0
  3  4  1  0
  4  5  1  0
  5  6  2  0
  6  7  1  0
  7  8  2  0
  8  9  1  0
  9 10  2  0
 10 11  1  0
 11 12  2  0
 12 13  1  0
 13 14  2  0
 13 15  1  0
 12 16  1  0
 11 17  1  0
 10 18  1  0
  8 19  1  0
  6 20  1  0
  4 21  1  0
 21 22  2  0
 21 23  1  0
 23 24  1  1
 24 25  1  0
 25 26  1  0
 26 27  1  0
 27 28  1  0
 28 29  2  0
 29 30  1  0
 30 31  1  0
 31 32  1  0
 31 33  1  0
 31 34  1  0
 30 35  1  0
 28 36  1  0
 26 37  1  0
 26 38  1  0
 25 39  1  0
 39 40  2  0
 39 41  1  0
 41 42  2  0
 42 43  1  0
 43 44  2  0
 44 45  1  0
 44 46  1  0
 46 47  2  0
 46 48  1  0
 43 49  1  0
 42 50  1  0
 24 51  1  0
 24 52  1  0
  3 53  1  0
  3 54  1  0
  2 55  1  6
  1 56  1  0
  1 57  1  0
  1 58  1  0
 23  2  1  0
 35 27  2  0
 47 41  1  0
 14  5  1  0
 47 23  1  0
 14  9  1  0
M  END
>  <cnnaffinities>  (1) 
[6.30576]

>  <score>  (1) 
6.30576

>  <index>  (1) 
34

>  <Smiles>  (1) 
C([C@]1(C(N(c2c(nc(c3c(c(c(c(c23)[H])[H])[H])[H])[H])[H])C(=O)[C@]21C(N(C(c1c(nn(C([H])([H])[H])n1)[H])([H])[H])C(=O)c1c(c(c(F)c(c21)[H])[H])[H])([H])[H])([H])[H])[H])([H])([H])[H]

>  <h>  (1) 
<NA>

>  <Training>  (1) 
True

>  <Success>  (1) 
True

>  <enamine_searched>  (1) 
False

>  <enamine_id>  (1) 
nan

$$$$

     RDKit          3D

 72 77  0  0  0  0  0  0  0  0999 V2000
    5.9888    4.3936   23.1891 C   0  0  0  0  0  0  0  0  0  0  0  0
    6.6531    3.2484   23.8209 N   0  0  0  0  0  4  0  0  0  0  0  0
    7.9309    3.6104   24.4765 C   0  0  0  0  0  0  0  0  0  0  0  0
    8.5535    2.4252   25.2111 C   0  0  0  0  0  0  0  0  0  0  0  0
    9.0860    1.4217   24.2987 N   0  0  0  0  0  0  0  0  0  0  0  0
    8.4440    0.1254   24.1641 C   0  0  0  0  0  0  0  0  0  0  0  0
    8.4992   -0.4158   22.7132 C   0  0  2  0  0  0  0  0  0  0  0  0
    7.5825    0.4143   21.7815 C   0  0  0  0  0  0  0  0  0  0  0  0
    7.4289    1.6252   21.8294 O   0  0  0  0  0  0  0  0  0  0  0  0
    6.9154   -0.4340   20.9356 N   0  0  0  0  0  0  0  0  0  0  0  0
    5.9920   -0.0707   19.9203 C   0  0  0  0  0  0  0  0  0  0  0  0
    6.2463   -0.4323   18.6198 C   0  0  0  0  0  0  0  0  0  0  0  0
    5.3655   -0.3244   17.5994 N   0  0  0  0  0  0  0  0  0  0  0  0
    4.1861    0.1666   17.8797 C   0  0  0  0  0  0  0  0  0  0  0  0
    3.8036    0.6242   19.1707 C   0  0  0  0  0  0  0  0  0  0  0  0
    2.5611    1.2770   19.3848 C   0  0  0  0  0  0  0  0  0  0  0  0
    2.2896    1.8936   20.5693 C   0  0  0  0  0  0  0  0  0  0  0  0
    3.2240    1.8434   21.6241 C   0  0  0  0  0  0  0  0  0  0  0  0
    4.3979    1.1538   21.4683 C   0  0  0  0  0  0  0  0  0  0  0  0
    4.7474    0.5703   20.2194 C   0  0  0  0  0  0  0  0  0  0  0  0
    5.0792    1.0618   22.2991 H   0  0  0  0  0  0  0  0  0  0  0  0
    3.0251    2.3760   22.5499 H   0  0  0  0  0  0  0  0  0  0  0  0
    1.3563    2.4281   20.7024 H   0  0  0  0  0  0  0  0  0  0  0  0
    1.8817    1.3674   18.5485 H   0  0  0  0  0  0  0  0  0  0  0  0
    3.4655    0.2278   17.0635 H   0  0  0  0  0  0  0  0  0  0  0  0
    7.2275   -0.8124   18.3462 H   0  0  0  0  0  0  0  0  0  0  0  0
    7.2225   -1.8332   21.1725 C   0  0  0  0  0  0  0  0  0  0  0  0
    7.8934   -1.8421   22.5595 C   0  0  2  0  0  0  0  0  0  0  0  0
    6.8918   -2.2130   23.6625 C   0  0  0  0  0  0  0  0  0  0  0  0
    6.3415   -3.4917   23.4689 O   0  0  0  0  0  0  0  0  0  0  0  0
    7.1127   -4.5301   24.0271 C   0  0  0  0  0  0  0  0  0  0  0  0
    6.4956   -5.8137   23.5244 C   0  0  0  0  0  0  0  0  0  0  0  0
    6.6654   -5.9630   21.9963 C   0  0  0  0  0  0  0  0  0  0  0  0
    6.7693   -8.3892   22.9734 S   0  0  0  0  0  0  0  0  0  0  0  0
    7.2161   -7.2584   21.7600 O   0  0  0  0  0  0  0  0  0  0  0  0
    7.8680   -9.3628   23.0390 O   0  0  0  0  0  0  0  0  0  0  0  0
    7.0962   -7.0654   24.1543 C   0  0  0  0  0  0  0  0  0  0  0  0
    8.1906   -7.0403   24.2068 H   0  0  0  0  0  0  0  0  0  0  0  0
    6.6858   -7.3308   25.1344 H   0  0  0  0  0  0  0  0  0  0  0  0
    5.7138   -5.8868   21.4660 H   0  0  0  0  0  0  0  0  0  0  0  0
    7.3259   -5.1927   21.5864 H   0  0  0  0  0  0  0  0  0  0  0  0
    5.4277   -5.7864   23.7497 H   0  0  0  0  0  0  0  0  0  0  0  0
    7.0988   -4.4769   25.1275 H   0  0  0  0  0  0  0  0  0  0  0  0
    8.1702   -4.4737   23.7088 H   0  0  0  0  0  0  0  0  0  0  0  0
    6.0474   -1.5152   23.6590 H   0  0  0  0  0  0  0  0  0  0  0  0
    7.3705   -2.1725   24.6526 H   0  0  0  0  0  0  0  0  0  0  0  0
    8.6941   -2.5868   22.6019 H   0  0  0  0  0  0  0  0  0  0  0  0
    6.3006   -2.4198   21.1401 H   0  0  0  0  0  0  0  0  0  0  0  0
    7.8967   -2.2092   20.4004 H   0  0  0  0  0  0  0  0  0  0  0  0
    9.9686   -0.3672   22.2971 C   0  0  0  0  0  0  0  0  0  0  0  0
   10.5349   -1.3340   21.4573 C   0  0  0  0  0  0  0  0  0  0  0  0
   11.8795   -1.3017   21.1452 C   0  0  0  0  0  0  0  0  0  0  0  0
   12.5037   -2.5752   20.1220 Cl  0  0  0  0  0  0  0  0  0  0  0  0
   12.7002   -0.2704   21.6082 C   0  0  0  0  0  0  0  0  0  0  0  0
   12.1488    0.7001   22.4178 C   0  0  0  0  0  0  0  0  0  0  0  0
   10.8061    0.6426   22.7816 C   0  0  0  0  0  0  0  0  0  0  0  0
   10.3031    1.6754   23.7368 C   0  0  0  0  0  0  0  0  0  0  0  0
   10.9579    2.6772   24.0109 O   0  0  0  0  0  0  0  0  0  0  0  0
   12.7480    1.5218   22.7970 H   0  0  0  0  0  0  0  0  0  0  0  0
   13.7463   -0.2173   21.3347 H   0  0  0  0  0  0  0  0  0  0  0  0
    9.9502   -2.1401   21.0362 H   0  0  0  0  0  0  0  0  0  0  0  0
    8.9504   -0.6070   24.8141 H   0  0  0  0  0  0  0  0  0  0  0  0
    7.4098    0.2239   24.4972 H   0  0  0  0  0  0  0  0  0  0  0  0
    9.3755    2.7769   25.8406 H   0  0  0  0  0  0  0  0  0  0  0  0
    7.8151    1.9377   25.8577 H   0  0  0  0  0  0  0  0  0  0  0  0
    8.6360    3.9661   23.7194 H   0  0  0  0  0  0  0  0  0  0  0  0
    7.7691    4.4300   25.1855 H   0  0  0  0  0  0  0  0  0  0  0  0
    6.8405    2.5262   23.0976 H   0  0  0  0  0  0  0  0  0  0  0  0
    6.0139    2.8414   24.5307 H   0  0  0  0  0  0  0  0  0  0  0  0
    4.9520    4.1485   22.9501 H   0  0  0  0  0  0  0  0  0  0  0  0
    5.9962    5.2671   23.8500 H   0  0  0  0  0  0  0  0  0  0  0  0
    6.5083    4.6682   22.2666 H   0  0  0  0  0  0  0  0  0  0  0  0
  1  2  1  0
  2  3  1  0
  3  4  1  0
  4  5  1  0
  5  6  1  0
  7  6  1  1
  7  8  1  0
  8  9  2  0
  8 10  1  0
 10 11  1  0
 11 12  2  0
 12 13  1  0
 13 14  2  0
 14 15  1  0
 15 16  2  0
 16 17  1  0
 17 18  2  0
 18 19  1  0
 19 20  2  0
 19 21  1  0
 18 22  1  0
 17 23  1  0
 16 24  1  0
 14 25  1  0
 12 26  1  0
 10 27  1  0
 27 28  1  0
 28 29  1  0
 29 30  1  0
 30 31  1  0
 31 32  1  0
 32 33  1  0
 33 34  1  0
 34 35  2  0
 34 36  2  0
 34 37  1  0
 37 38  1  0
 37 39  1  0
 33 40  1  0
 33 41  1  0
 32 42  1  0
 31 43  1  0
 31 44  1  0
 29 45  1  0
 29 46  1  0
 28 47  1  6
 27 48  1  0
 27 49  1  0
  7 50  1  0
 50 51  2  0
 51 52  1  0
 52 53  1  0
 52 54  2  0
 54 55  1  0
 55 56  2  0
 56 57  1  0
 57 58  2  0
 55 59  1  0
 54 60  1  0
 51 61  1  0
  6 62  1  0
  6 63  1  0
  4 64  1  0
  4 65  1  0
  3 66  1  0
  3 67  1  0
  2 68  1  0
  2 69  1  0
  1 70  1  0
  1 71  1  0
  1 72  1  0
 57  5  1  0
 28  7  1  0
 37 32  1  0
 56 50  1  0
 20 11  1  0
 20 15  1  0
M  CHG  1   2   1
M  END
>  <cnnaffinities>  (2) 
[6.84314]

>  <score>  (2) 
6.84314

>  <index>  (2) 
38

>  <Smiles>  (2) 
C([N+](C(C(N1C([C@@]2(C(=O)N(c3c(nc(c4c(c(c(c(c34)[H])[H])[H])[H])[H])[H])C([C@@]2(C(OC(C2(C(S(=O)(=O)C2([H])[H])([H])[H])[H])([H])[H])([H])[H])[H])([H])[H])c2c(c(Cl)c(c(c2C1=O)[H])[H])[H])([H])[H])([H])[H])([H])[H])([H])[H])([H])([H])[H]

>  <h>  (2) 
<NA>

>  <Training>  (2) 
True

>  <Success>  (2) 
True

>  <enamine_searched>  (2) 
False

>  <enamine_id>  (2) 
nan

$$$$

     RDKit          3D

 62 67  0  0  0  0  0  0  0  0999 V2000
   13.4762   -1.4619   24.1994 C   0  0  0  0  0  0  0  0  0  0  0  0
   12.7018   -0.4108   23.3983 C   0  0  0  0  0  0  0  0  0  0  0  0
   12.5772   -0.6463   21.9518 N   0  0  0  0  0  0  0  0  0  0  0  0
   13.4323    0.0017   21.1319 N   0  0  0  0  0  0  0  0  0  0  0  0
   13.4540   -0.7063   20.0030 C   0  0  0  0  0  0  0  0  0  0  0  0
   12.5859   -1.8099   20.0653 C   0  0  0  0  0  0  0  0  0  0  0  0
   12.0351   -1.7342   21.3260 C   0  0  0  0  0  0  0  0  0  0  0  0
   11.2830   -2.8412   21.9588 C   0  0  0  0  0  0  0  0  0  0  0  0
   10.0922   -2.5124   22.7144 N   0  0  0  0  0  0  0  0  0  0  0  0
    8.9386   -2.3437   21.8387 C   0  0  0  0  0  0  0  0  0  0  0  0
    7.7299   -1.7709   22.5912 C   0  0  2  0  0  0  0  0  0  0  0  0
    6.5937   -1.7726   21.5597 C   0  0  0  0  0  0  0  0  0  0  0  0
    5.8393   -2.6785   21.2756 O   0  0  0  0  0  0  0  0  0  0  0  0
    6.6052   -0.5445   20.9421 N   0  0  0  0  0  0  0  0  0  0  0  0
    5.6538   -0.2559   19.9508 C   0  0  0  0  0  0  0  0  0  0  0  0
    5.8263   -0.7490   18.6897 C   0  0  0  0  0  0  0  0  0  0  0  0
    5.0010   -0.4676   17.6573 N   0  0  0  0  0  0  0  0  0  0  0  0
    3.9285    0.2435   17.9156 C   0  0  0  0  0  0  0  0  0  0  0  0
    3.5545    0.6624   19.2305 C   0  0  0  0  0  0  0  0  0  0  0  0
    2.3127    1.2759   19.5379 C   0  0  0  0  0  0  0  0  0  0  0  0
    2.0361    1.7119   20.8031 C   0  0  0  0  0  0  0  0  0  0  0  0
    2.9968    1.5839   21.8312 C   0  0  0  0  0  0  0  0  0  0  0  0
    4.2013    0.9856   21.5761 C   0  0  0  0  0  0  0  0  0  0  0  0
    4.4877    0.4916   20.2719 C   0  0  0  0  0  0  0  0  0  0  0  0
    4.9254    0.8575   22.3775 H   0  0  0  0  0  0  0  0  0  0  0  0
    2.7701    1.9459   22.8287 H   0  0  0  0  0  0  0  0  0  0  0  0
    1.0640    2.1397   21.0303 H   0  0  0  0  0  0  0  0  0  0  0  0
    1.5898    1.4334   18.7524 H   0  0  0  0  0  0  0  0  0  0  0  0
    3.2773    0.4710   17.0700 H   0  0  0  0  0  0  0  0  0  0  0  0
    6.6595   -1.4153   18.4790 H   0  0  0  0  0  0  0  0  0  0  0  0
    7.5694    0.3808   21.4985 C   0  0  0  0  0  0  0  0  0  0  0  0
    7.8578   -0.2318   22.8760 C   0  0  2  0  0  0  0  0  0  0  0  0
    9.1486    0.3033   23.4830 C   0  0  0  0  0  0  0  0  0  0  0  0
   10.0021    0.0406   22.8571 H   0  0  0  0  0  0  0  0  0  0  0  0
    9.1145    1.3982   23.5346 H   0  0  0  0  0  0  0  0  0  0  0  0
    9.3297   -0.0736   24.4978 H   0  0  0  0  0  0  0  0  0  0  0  0
    7.0230    0.0235   23.5448 H   0  0  0  0  0  0  0  0  0  0  0  0
    8.4905    0.4088   20.8928 H   0  0  0  0  0  0  0  0  0  0  0  0
    7.1734    1.3990   21.5382 H   0  0  0  0  0  0  0  0  0  0  0  0
    7.4717   -2.6927   23.7576 C   0  0  0  0  0  0  0  0  0  0  0  0
    6.1720   -2.9321   24.2206 C   0  0  0  0  0  0  0  0  0  0  0  0
    5.9673   -3.9160   25.1690 C   0  0  0  0  0  0  0  0  0  0  0  0
    4.7081   -4.1887   25.5503 F   0  0  0  0  0  0  0  0  0  0  0  0
    7.0042   -4.6374   25.7482 C   0  0  0  0  0  0  0  0  0  0  0  0
    8.2931   -4.3532   25.3397 C   0  0  0  0  0  0  0  0  0  0  0  0
    8.5286   -3.3942   24.3556 C   0  0  0  0  0  0  0  0  0  0  0  0
    9.9362   -3.2156   23.8974 C   0  0  0  0  0  0  0  0  0  0  0  0
   10.8810   -3.6856   24.5127 O   0  0  0  0  0  0  0  0  0  0  0  0
    9.1460   -4.8813   25.7556 H   0  0  0  0  0  0  0  0  0  0  0  0
    6.7824   -5.4087   26.4801 H   0  0  0  0  0  0  0  0  0  0  0  0
    5.3198   -2.4209   23.7869 H   0  0  0  0  0  0  0  0  0  0  0  0
    9.2205   -1.7029   20.9981 H   0  0  0  0  0  0  0  0  0  0  0  0
    8.6214   -3.3067   21.4091 H   0  0  0  0  0  0  0  0  0  0  0  0
   11.9494   -3.4056   22.6214 H   0  0  0  0  0  0  0  0  0  0  0  0
   10.9891   -3.4530   21.0946 H   0  0  0  0  0  0  0  0  0  0  0  0
   12.5111   -2.6532   19.3883 H   0  0  0  0  0  0  0  0  0  0  0  0
   14.1359   -0.4686   19.1972 H   0  0  0  0  0  0  0  0  0  0  0  0
   11.7037   -0.3335   23.8321 H   0  0  0  0  0  0  0  0  0  0  0  0
   13.1911    0.5627   23.4787 H   0  0  0  0  0  0  0  0  0  0  0  0
   12.9177   -2.4008   24.2702 H   0  0  0  0  0  0  0  0  0  0  0  0
   13.5984   -1.0788   25.2191 H   0  0  0  0  0  0  0  0  0  0  0  0
   14.4700   -1.6625   23.7929 H   0  0  0  0  0  0  0  0  0  0  0  0
  1  2  1  0
  2  3  1  0
  3  4  1  0
  4  5  2  0
  5  6  1  0
  6  7  2  0
  7  8  1  0
  8  9  1  0
  9 10  1  0
 11 10  1  6
 11 12  1  0
 12 13  2  0
 12 14  1  0
 14 15  1  0
 15 16  2  0
 16 17  1  0
 17 18  2  0
 18 19  1  0
 19 20  2  0
 20 21  1  0
 21 22  2  0
 22 23  1  0
 23 24  2  0
 23 25  1  0
 22 26  1  0
 21 27  1  0
 20 28  1  0
 18 29  1  0
 16 30  1  0
 14 31  1  0
 31 32  1  0
 32 33  1  0
 33 34  1  0
 33 35  1  0
 33 36  1  0
 32 37  1  1
 31 38  1  0
 31 39  1  0
 11 40  1  0
 40 41  2  0
 41 42  1  0
 42 43  1  0
 42 44  2  0
 44 45  1  0
 45 46  2  0
 46 47  1  0
 47 48  2  0
 45 49  1  0
 44 50  1  0
 41 51  1  0
 10 52  1  0
 10 53  1  0
  8 54  1  0
  8 55  1  0
  6 56  1  0
  5 57  1  0
  2 58  1  0
  2 59  1  0
  1 60  1  0
  1 61  1  0
  1 62  1  0
  7  3  1  0
 47  9  1  0
 32 11  1  0
 46 40  1  0
 24 15  1  0
 24 19  1  0
M  END
>  <cnnaffinities>  (3) 
[6.64749]

>  <score>  (3) 
6.64749

>  <index>  (3) 
43

>  <Smiles>  (3) 
C(C(n1nc(c(c1C(N1C([C@@]2(C(=O)N(c3c(nc(c4c(c(c(c(c34)[H])[H])[H])[H])[H])[H])C([C@@]2(C([H])([H])[H])[H])([H])[H])c2c(c(F)c(c(c2C1=O)[H])[H])[H])([H])[H])([H])[H])[H])[H])([H])[H])([H])([H])[H]

>  <h>  (3) 
<NA>

>  <Training>  (3) 
True

>  <Success>  (3) 
True

>  <enamine_searched>  (3) 
False

>  <enamine_id>  (3) 
nan

$$$$

     RDKit          3D

 70 76  0  0  0  0  0  0  0  0999 V2000
    8.2433   -3.1621   23.1386 C   0  0  0  0  0  0  0  0  0  0  0  0
    8.2729   -2.0237   22.1262 C   0  0  1  0  0  0  0  0  0  0  0  0
    6.9616   -1.8529   21.3598 C   0  0  0  0  0  0  0  0  0  0  0  0
    7.0418   -0.4963   20.8624 N   0  0  0  0  0  0  0  0  0  0  0  0
    6.0804   -0.0760   19.9035 C   0  0  0  0  0  0  0  0  0  0  0  0
    6.2707   -0.4875   18.6087 C   0  0  0  0  0  0  0  0  0  0  0  0
    5.3430   -0.4464   17.6271 N   0  0  0  0  0  0  0  0  0  0  0  0
    4.1634    0.0342   17.9383 C   0  0  0  0  0  0  0  0  0  0  0  0
    3.8314    0.5402   19.2275 C   0  0  0  0  0  0  0  0  0  0  0  0
    2.5709    1.1438   19.4817 C   0  0  0  0  0  0  0  0  0  0  0  0
    2.3004    1.7257   20.6873 C   0  0  0  0  0  0  0  0  0  0  0  0
    3.2871    1.7488   21.6943 C   0  0  0  0  0  0  0  0  0  0  0  0
    4.5287    1.2062   21.4660 C   0  0  0  0  0  0  0  0  0  0  0  0
    4.8289    0.5560   20.2351 C   0  0  0  0  0  0  0  0  0  0  0  0
    5.3161    1.3097   22.2077 H   0  0  0  0  0  0  0  0  0  0  0  0
    3.0717    2.2349   22.6410 H   0  0  0  0  0  0  0  0  0  0  0  0
    1.3370    2.1935   20.8692 H   0  0  0  0  0  0  0  0  0  0  0  0
    1.8462    1.2105   18.6826 H   0  0  0  0  0  0  0  0  0  0  0  0
    3.3977    0.0479   17.1579 H   0  0  0  0  0  0  0  0  0  0  0  0
    7.2440   -0.8870   18.3285 H   0  0  0  0  0  0  0  0  0  0  0  0
    8.0439    0.2550   21.4510 C   0  0  0  0  0  0  0  0  0  0  0  0
    8.3461    1.3793   21.1180 O   0  0  0  0  0  0  0  0  0  0  0  0
    8.6137   -0.5791   22.6414 C   0  0  1  0  0  0  0  0  0  0  0  0
    7.8203   -0.0956   23.8899 C   0  0  0  0  0  0  0  0  0  0  0  0
    8.4915   -0.2613   25.1677 N   0  0  0  0  0  0  0  0  0  0  0  0
    7.6766   -0.1323   26.3772 C   0  0  0  0  0  0  0  0  0  0  0  0
    7.6883   -1.4086   27.2196 C   0  0  0  0  0  0  0  0  0  0  0  0
    7.2999   -2.6052   26.3777 N   0  0  2  0  0  4  0  0  0  0  0  0
    5.8303   -2.5839   26.0056 C   0  0  0  0  0  0  0  0  0  0  0  0
    5.1010   -3.2551   27.1780 C   0  0  0  0  0  0  0  0  0  0  0  0
    6.1645   -4.0914   27.8972 C   0  0  0  0  0  0  0  0  0  0  0  0
    6.2459   -3.8500   29.4076 C   0  0  0  0  0  0  0  0  0  0  0  0
    5.5736   -5.0859   29.6824 O   0  0  0  0  0  0  0  0  0  0  0  0
    5.8004   -5.5075   28.3342 C   0  0  0  0  0  0  0  0  0  0  0  0
    4.9304   -5.9692   27.8642 H   0  0  0  0  0  0  0  0  0  0  0  0
    6.6450   -6.2055   28.2681 H   0  0  0  0  0  0  0  0  0  0  0  0
    5.6940   -2.9846   29.7894 H   0  0  0  0  0  0  0  0  0  0  0  0
    7.2735   -3.8434   29.7908 H   0  0  0  0  0  0  0  0  0  0  0  0
    7.4045   -3.9531   27.0313 C   0  0  0  0  0  0  0  0  0  0  0  0
    8.3381   -4.1097   27.5679 H   0  0  0  0  0  0  0  0  0  0  0  0
    7.3672   -4.7135   26.2484 H   0  0  0  0  0  0  0  0  0  0  0  0
    4.6811   -2.5010   27.8468 H   0  0  0  0  0  0  0  0  0  0  0  0
    4.2717   -3.8718   26.8259 H   0  0  0  0  0  0  0  0  0  0  0  0
    5.5101   -1.5624   25.8231 H   0  0  0  0  0  0  0  0  0  0  0  0
    5.6940   -3.1589   25.0893 H   0  0  0  0  0  0  0  0  0  0  0  0
    7.9433   -2.5582   25.5779 H   0  0  0  0  0  0  0  0  0  0  0  0
    7.0215   -1.3140   28.0812 H   0  0  0  0  0  0  0  0  0  0  0  0
    8.7002   -1.5409   27.5965 H   0  0  0  0  0  0  0  0  0  0  0  0
    8.0522    0.6973   26.9853 H   0  0  0  0  0  0  0  0  0  0  0  0
    6.6599    0.1097   26.0564 H   0  0  0  0  0  0  0  0  0  0  0  0
    9.8386   -0.1320   25.3313 C   0  0  0  0  0  0  0  0  0  0  0  0
   10.3374   -0.0425   26.4464 O   0  0  0  0  0  0  0  0  0  0  0  0
   10.6667   -0.1695   24.0973 C   0  0  0  0  0  0  0  0  0  0  0  0
   12.0445   -0.0744   24.2606 C   0  0  0  0  0  0  0  0  0  0  0  0
   12.8813   -0.1821   23.1733 C   0  0  0  0  0  0  0  0  0  0  0  0
   12.3193   -0.3824   21.9140 C   0  0  0  0  0  0  0  0  0  0  0  0
   13.3814   -0.4091   20.5396 Cl  0  0  0  0  0  0  0  0  0  0  0  0
   10.9536   -0.5117   21.7359 C   0  0  0  0  0  0  0  0  0  0  0  0
   10.0981   -0.3867   22.8401 C   0  0  0  0  0  0  0  0  0  0  0  0
   10.5535   -0.7314   20.7479 H   0  0  0  0  0  0  0  0  0  0  0  0
   13.9570   -0.1225   23.2703 H   0  0  0  0  0  0  0  0  0  0  0  0
   12.4280    0.0731   25.2624 H   0  0  0  0  0  0  0  0  0  0  0  0
    6.8594   -0.6212   23.9548 H   0  0  0  0  0  0  0  0  0  0  0  0
    7.5826    0.9652   23.7238 H   0  0  0  0  0  0  0  0  0  0  0  0
    6.8441   -2.5593   20.5315 H   0  0  0  0  0  0  0  0  0  0  0  0
    6.0844   -1.9820   22.0149 H   0  0  0  0  0  0  0  0  0  0  0  0
    9.0592   -2.2529   21.3930 H   0  0  0  0  0  0  0  0  0  0  0  0
    9.1549   -3.1888   23.7480 H   0  0  0  0  0  0  0  0  0  0  0  0
    8.1556   -4.1326   22.6317 H   0  0  0  0  0  0  0  0  0  0  0  0
    7.3840   -3.0597   23.8111 H   0  0  0  0  0  0  0  0  0  0  0  0
  1  2  1  0
  2  3  1  0
  3  4  1  0
  4  5  1  0
  5  6  2  0
  6  7  1  0
  7  8  2  0
  8  9  1  0
  9 10  2  0
 10 11  1  0
 11 12  2  0
 12 13  1  0
 13 14  2  0
 13 15  1  0
 12 16  1  0
 11 17  1  0
 10 18  1  0
  8 19  1  0
  6 20  1  0
  4 21  1  0
 21 22  2  0
 21 23  1  0
 23 24  1  1
 24 25  1  0
 25 26  1  0
 26 27  1  0
 27 28  1  0
 28 29  1  0
 29 30  1  0
 30 31  1  0
 31 32  1  0
 32 33  1  0
 33 34  1  0
 34 35  1  0
 34 36  1  0
 32 37  1  0
 32 38  1  0
 31 39  1  0
 39 40  1  0
 39 41  1  0
 30 42  1  0
 30 43  1  0
 29 44  1  0
 29 45  1  0
 28 46  1  6
 27 47  1  0
 27 48  1  0
 26 49  1  0
 26 50  1  0
 25 51  1  0
 51 52  2  0
 51 53  1  0
 53 54  2  0
 54 55  1  0
 55 56  2  0
 56 57  1  0
 56 58  1  0
 58 59  2  0
 58 60  1  0
 55 61  1  0
 54 62  1  0
 24 63  1  0
 24 64  1  0
  3 65  1  0
  3 66  1  0
  2 67  1  6
  1 68  1  0
  1 69  1  0
  1 70  1  0
 23  2  1  0
 39 28  1  0
 59 53  1  0
 14  5  1  0
 59 23  1  0
 14  9  1  0
 34 31  1  0
M  CHG  1  28   1
M  END
>  <cnnaffinities>  (4) 
[6.06136]

>  <score>  (4) 
6.06136

>  <index>  (4) 
62

>  <Smiles>  (4) 
C([C@]1(C(N(c2c(nc(c3c(c(c(c(c23)[H])[H])[H])[H])[H])[H])C(=O)[C@]21C(N(C(C([N@@+]1(C(C(C3(C(OC3([H])[H])([H])[H])C1([H])[H])([H])[H])([H])[H])[H])([H])[H])([H])[H])C(=O)c1c(c(c(Cl)c(c21)[H])[H])[H])([H])[H])([H])[H])[H])([H])([H])[H]

>  <h>  (4) 
<NA>

>  <Training>  (4) 
True

>  <Success>  (4) 
True

>  <enamine_searched>  (4) 
False

>  <enamine_id>  (4) 
nan

$$$$

     RDKit          3D

 60 64  0  0  0  0  0  0  0  0999 V2000
    2.4504   -4.4077   22.6695 C   0  0  0  0  0  0  0  0  0  0  0  0
    3.6239   -4.7746   23.4382 N   0  0  0  0  0  0  0  0  0  0  0  0
    4.7889   -5.0072   22.7785 C   0  0  0  0  0  0  0  0  0  0  0  0
    4.8383   -5.2302   21.5774 O   0  0  0  0  0  0  0  0  0  0  0  0
    6.0455   -4.9609   23.6619 C   0  0  0  0  0  0  0  0  0  0  0  0
    6.4335   -3.5908   23.9906 N   0  0  0  0  0  0  0  0  0  0  0  0
    7.5627   -2.9726   23.2868 C   0  0  0  0  0  0  0  0  0  0  0  0
    7.3510   -1.4555   23.0493 C   0  0  2  0  0  0  0  0  0  0  0  0
    6.3625   -1.2761   21.8963 C   0  0  0  0  0  0  0  0  0  0  0  0
    5.3475   -1.9109   21.6882 O   0  0  0  0  0  0  0  0  0  0  0  0
    6.7906   -0.2418   21.1118 N   0  0  0  0  0  0  0  0  0  0  0  0
    6.0109    0.0494   19.9802 C   0  0  0  0  0  0  0  0  0  0  0  0
    6.4178   -0.3219   18.7116 C   0  0  0  0  0  0  0  0  0  0  0  0
    5.6165   -0.2737   17.6487 N   0  0  0  0  0  0  0  0  0  0  0  0
    4.3589    0.1478   17.8504 C   0  0  0  0  0  0  0  0  0  0  0  0
    3.8680    0.5418   19.0892 C   0  0  0  0  0  0  0  0  0  0  0  0
    1.2783    1.1820   20.1419 C   0  0  0  0  0  0  0  0  0  0  0  0
    2.1316    2.1035   20.5579 C   0  0  0  0  0  0  0  0  0  0  0  0
    3.2162    1.9715   21.5672 C   0  0  0  0  0  0  0  0  0  0  0  0
    4.3393    1.2740   21.4083 C   0  0  0  0  0  0  0  0  0  0  0  0
    4.7369    0.5821   20.1745 C   0  0  0  0  0  0  0  0  0  0  0  0
    5.0820    1.3351   22.1992 H   0  0  0  0  0  0  0  0  0  0  0  0
    3.1293    2.6601   22.3975 H   0  0  0  0  0  0  0  0  0  0  0  0
    2.2951    2.9836   19.8920 H   0  0  0  0  0  0  0  0  0  0  0  0
    2.8417    0.8969   19.3325 H   0  0  0  0  0  0  0  0  0  0  0  0
    3.7390    0.1447   16.9528 H   0  0  0  0  0  0  0  0  0  0  0  0
    7.4171   -0.7472   18.5809 H   0  0  0  0  0  0  0  0  0  0  0  0
    8.1210    0.2465   21.3906 C   0  0  0  0  0  0  0  0  0  0  0  0
    8.6061   -0.6451   22.5777 C   0  0  2  0  0  0  0  0  0  0  0  0
    9.8029   -1.4074   22.2881 N   0  0  0  0  0  0  0  0  0  0  0  0
    9.9264   -2.1105   21.1421 C   0  0  0  0  0  0  0  0  0  0  0  0
    9.0048   -2.1261   20.3391 O   0  0  0  0  0  0  0  0  0  0  0  0
   11.2333   -2.8429   20.9686 C   0  0  0  0  0  0  0  0  0  0  0  0
   11.9734   -2.1834   20.5054 H   0  0  0  0  0  0  0  0  0  0  0  0
   11.6483   -3.1777   21.9265 H   0  0  0  0  0  0  0  0  0  0  0  0
   11.0510   -3.6766   20.2861 H   0  0  0  0  0  0  0  0  0  0  0  0
   10.5041   -1.4941   23.0068 H   0  0  0  0  0  0  0  0  0  0  0  0
    8.9263   -0.0106   23.4031 H   0  0  0  0  0  0  0  0  0  0  0  0
    8.7649    0.1509   20.5192 H   0  0  0  0  0  0  0  0  0  0  0  0
    8.0919    1.3047   21.6718 H   0  0  0  0  0  0  0  0  0  0  0  0
    6.7940   -0.7987   24.2996 C   0  0  0  0  0  0  0  0  0  0  0  0
    6.9259    0.5883   24.4856 C   0  0  0  0  0  0  0  0  0  0  0  0
    6.4033    1.1923   25.6103 C   0  0  0  0  0  0  0  0  0  0  0  0
    6.6398    2.9015   25.8439 Cl  0  0  0  0  0  0  0  0  0  0  0  0
    5.7095    0.4540   26.5661 C   0  0  0  0  0  0  0  0  0  0  0  0
    5.5300   -0.8996   26.3580 C   0  0  0  0  0  0  0  0  0  0  0  0
    6.0614   -1.5280   25.2313 C   0  0  0  0  0  0  0  0  0  0  0  0
    5.7775   -2.9822   25.0188 C   0  0  0  0  0  0  0  0  0  0  0  0
    4.9518   -3.5880   25.7097 O   0  0  0  0  0  0  0  0  0  0  0  0
    4.9646   -1.5069   27.0552 H   0  0  0  0  0  0  0  0  0  0  0  0
    5.3141    0.9543   27.4422 H   0  0  0  0  0  0  0  0  0  0  0  0
    7.4360    1.2133   23.7603 H   0  0  0  0  0  0  0  0  0  0  0  0
    8.4865   -3.1310   23.8540 H   0  0  0  0  0  0  0  0  0  0  0  0
    7.6496   -3.4638   22.3149 H   0  0  0  0  0  0  0  0  0  0  0  0
    6.8580   -5.4506   23.1205 H   0  0  0  0  0  0  0  0  0  0  0  0
    5.8656   -5.4971   24.6007 H   0  0  0  0  0  0  0  0  0  0  0  0
    3.6806   -4.5259   24.4210 H   0  0  0  0  0  0  0  0  0  0  0  0
    2.6974   -3.5898   21.9836 H   0  0  0  0  0  0  0  0  0  0  0  0
    1.6648   -4.0818   23.3552 H   0  0  0  0  0  0  0  0  0  0  0  0
    2.0865   -5.2544   22.0781 H   0  0  0  0  0  0  0  0  0  0  0  0
  1  2  1  0
  2  3  1  0
  3  4  2  0
  3  5  1  0
  5  6  1  0
  6  7  1  0
  8  7  1  1
  8  9  1  0
  9 10  2  0
  9 11  1  0
 11 12  1  0
 12 13  2  0
 13 14  1  0
 14 15  2  0
 15 16  1  0
 16 17  2  0
 17 18  1  0
 18 19  2  0
 19 20  1  0
 20 21  2  0
 20 22  1  0
 19 23  1  0
 18 24  1  0
 17 25  1  0
 15 26  1  0
 13 27  1  0
 11 28  1  0
 28 29  1  0
 29 30  1  0
 30 31  1  0
 31 32  2  0
 31 33  1  0
 33 34  1  0
 33 35  1  0
 33 36  1  0
 30 37  1  0
 29 38  1  1
 28 39  1  0
 28 40  1  0
  8 41  1  0
 41 42  2  0
 42 43  1  0
 43 44  1  0
 43 45  2  0
 45 46  1  0
 46 47  2  0
 47 48  1  0
 48 49  2  0
 46 50  1  0
 45 51  1  0
 42 52  1  0
  7 53  1  0
  7 54  1  0
  5 55  1  0
  5 56  1  0
  2 57  1  0
  1 58  1  0
  1 59  1  0
  1 60  1  0
 48  6  1  0
 29  8  1  0
 47 41  1  0
 21 12  1  0
 21 16  1  0
M  END
>  <cnnaffinities>  (5) 
[6.33631]

>  <score>  (5) 
6.33631

>  <index>  (5) 
72

>  <Smiles>  (5) 
C(N(C(=O)C(N1C([C@@]2(C(=O)N(c3c(nc(c4c(c(c(c(c34)[H])[H])[H])[H])[H])[H])C([C@@]2(N(C(=O)C([H])([H])[H])[H])[H])([H])[H])c2c(c(Cl)c(c(c2C1=O)[H])[H])[H])([H])[H])([H])[H])[H])([H])([H])[H]

>  <h>  (5) 
<NA>

>  <Training>  (5) 
True

>  <Success>  (5) 
True

>  <enamine_searched>  (5) 
False

>  <enamine_id>  (5) 
nan

$$$$

     RDKit          3D

 63 68  0  0  0  0  0  0  0  0999 V2000
    6.2375    1.5660   28.9272 C   0  0  0  0  0  0  0  0  0  0  0  0
    6.5913    1.9661   27.5829 N   0  0  0  0  0  0  0  0  0  0  0  0
    5.9490    1.3962   26.5323 C   0  0  0  0  0  0  0  0  0  0  0  0
    5.0698    0.5557   26.6507 O   0  0  0  0  0  0  0  0  0  0  0  0
    6.4028    1.9001   25.1631 C   0  0  0  0  0  0  0  0  0  0  0  0
    7.5198    1.1432   24.6459 N   0  0  0  0  0  0  0  0  0  0  0  0
    7.3138   -0.1874   24.1066 C   0  0  0  0  0  0  0  0  0  0  0  0
    8.1573   -0.4138   22.8285 C   0  0  2  0  0  0  0  0  0  0  0  0
    7.6026    0.4554   21.6672 C   0  0  0  0  0  0  0  0  0  0  0  0
    7.7086    1.6553   21.5704 O   0  0  0  0  0  0  0  0  0  0  0  0
    6.9642   -0.3654   20.7574 N   0  0  0  0  0  0  0  0  0  0  0  0
    5.9853    0.0207   19.8063 C   0  0  0  0  0  0  0  0  0  0  0  0
    6.1753   -0.3910   18.5136 C   0  0  0  0  0  0  0  0  0  0  0  0
    5.2429   -0.3645   17.5385 N   0  0  0  0  0  0  0  0  0  0  0  0
    4.0626    0.1040   17.8537 C   0  0  0  0  0  0  0  0  0  0  0  0
    3.7383    0.6029   19.1475 C   0  0  0  0  0  0  0  0  0  0  0  0
    2.4871    1.2083   19.4190 C   0  0  0  0  0  0  0  0  0  0  0  0
    2.2169    1.7852   20.6254 C   0  0  0  0  0  0  0  0  0  0  0  0
    3.1996    1.7940   21.6397 C   0  0  0  0  0  0  0  0  0  0  0  0
    4.4227    1.2144   21.4113 C   0  0  0  0  0  0  0  0  0  0  0  0
    4.7295    0.6137   20.1542 C   0  0  0  0  0  0  0  0  0  0  0  0
    5.1856    1.2242   22.1849 H   0  0  0  0  0  0  0  0  0  0  0  0
    2.9830    2.2629   22.5970 H   0  0  0  0  0  0  0  0  0  0  0  0
    1.2571    2.2628   20.7998 H   0  0  0  0  0  0  0  0  0  0  0  0
    1.7783    1.2744   18.6135 H   0  0  0  0  0  0  0  0  0  0  0  0
    3.3035    0.0914   17.0681 H   0  0  0  0  0  0  0  0  0  0  0  0
    7.1474   -0.7839   18.2295 H   0  0  0  0  0  0  0  0  0  0  0  0
    6.8870   -1.7382   21.2023 C   0  0  0  0  0  0  0  0  0  0  0  0
    7.9660   -1.8618   22.2737 C   0  0  2  0  0  0  0  0  0  0  0  0
    7.5677   -2.9821   23.2636 C   0  0  0  0  0  0  0  0  0  0  0  0
    7.2510   -4.2294   22.5815 N   0  0  0  0  0  0  0  0  0  0  0  0
    6.1292   -4.9875   22.6567 C   0  0  0  0  0  0  0  0  0  0  0  0
    6.2714   -6.0071   21.7375 C   0  0  0  0  0  0  0  0  0  0  0  0
    7.5611   -5.8083   21.2127 C   0  0  0  0  0  0  0  0  0  0  0  0
    8.1293   -4.7175   21.7108 N   0  0  0  0  0  0  0  0  0  0  0  0
    8.1308   -6.4382   20.5425 H   0  0  0  0  0  0  0  0  0  0  0  0
    5.5461   -6.7646   21.4615 H   0  0  0  0  0  0  0  0  0  0  0  0
    5.3449   -4.7566   23.3669 H   0  0  0  0  0  0  0  0  0  0  0  0
    6.6755   -2.7084   23.8333 H   0  0  0  0  0  0  0  0  0  0  0  0
    8.3858   -3.1761   23.9571 H   0  0  0  0  0  0  0  0  0  0  0  0
    8.9029   -2.1661   21.7991 H   0  0  0  0  0  0  0  0  0  0  0  0
    5.8915   -1.9361   21.6239 H   0  0  0  0  0  0  0  0  0  0  0  0
    7.0379   -2.4294   20.3745 H   0  0  0  0  0  0  0  0  0  0  0  0
    9.5785    0.0484   23.1282 C   0  0  0  0  0  0  0  0  0  0  0  0
   10.6196   -0.2158   22.2287 C   0  0  0  0  0  0  0  0  0  0  0  0
   11.8936    0.2633   22.4987 C   0  0  0  0  0  0  0  0  0  0  0  0
   13.1872   -0.0009   21.3794 Cl  0  0  0  0  0  0  0  0  0  0  0  0
   12.1879    0.9963   23.6475 C   0  0  0  0  0  0  0  0  0  0  0  0
   11.1530    1.3101   24.4972 C   0  0  0  0  0  0  0  0  0  0  0  0
    9.8592    0.8964   24.2102 C   0  0  0  0  0  0  0  0  0  0  0  0
    8.7721    1.5085   25.0227 C   0  0  0  0  0  0  0  0  0  0  0  0
    8.9854    2.3180   25.9259 O   0  0  0  0  0  0  0  0  0  0  0  0
   11.2787    1.9140   25.3809 H   0  0  0  0  0  0  0  0  0  0  0  0
   13.2006    1.3429   23.8215 H   0  0  0  0  0  0  0  0  0  0  0  0
   10.4408   -0.7670   21.3091 H   0  0  0  0  0  0  0  0  0  0  0  0
    6.2476   -0.3217   23.9020 H   0  0  0  0  0  0  0  0  0  0  0  0
    7.6204   -0.9342   24.8553 H   0  0  0  0  0  0  0  0  0  0  0  0
    5.5618    1.8120   24.4695 H   0  0  0  0  0  0  0  0  0  0  0  0
    6.7135    2.9471   25.2163 H   0  0  0  0  0  0  0  0  0  0  0  0
    7.4873    2.4027   27.4001 H   0  0  0  0  0  0  0  0  0  0  0  0
    6.7292    2.2290   29.6433 H   0  0  0  0  0  0  0  0  0  0  0  0
    6.5228    0.5276   29.1345 H   0  0  0  0  0  0  0  0  0  0  0  0
    5.1543    1.6472   29.0536 H   0  0  0  0  0  0  0  0  0  0  0  0
  1  2  1  0
  2  3  1  0
  3  4  2  0
  3  5  1  0
  5  6  1  0
  6  7  1  0
  8  7  1  1
  8  9  1  0
  9 10  2  0
  9 11  1  0
 11 12  1  0
 12 13  2  0
 13 14  1  0
 14 15  2  0
 15 16  1  0
 16 17  2  0
 17 18  1  0
 18 19  2  0
 19 20  1  0
 20 21  2  0
 20 22  1  0
 19 23  1  0
 18 24  1  0
 17 25  1  0
 15 26  1  0
 13 27  1  0
 11 28  1  0
 28 29  1  0
 29 30  1  0
 30 31  1  0
 31 32  1  0
 32 33  2  0
 33 34  1  0
 34 35  2  0
 34 36  1  0
 33 37  1  0
 32 38  1  0
 30 39  1  0
 30 40  1  0
 29 41  1  6
 28 42  1  0
 28 43  1  0
  8 44  1  0
 44 45  2  0
 45 46  1  0
 46 47  1  0
 46 48  2  0
 48 49  1  0
 49 50  2  0
 50 51  1  0
 51 52  2  0
 49 53  1  0
 48 54  1  0
 45 55  1  0
  7 56  1  0
  7 57  1  0
  5 58  1  0
  5 59  1  0
  2 60  1  0
  1 61  1  0
  1 62  1  0
  1 63  1  0
 51  6  1  0
 29  8  1  0
 35 31  1  0
 50 44  1  0
 21 12  1  0
 21 16  1  0
M  END
>  <cnnaffinities>  (6) 
[6.25614]

>  <score>  (6) 
6.25614

>  <index>  (6) 
87

>  <Smiles>  (6) 
C(N(C(=O)C(N1C([C@@]2(C(=O)N(c3c(nc(c4c(c(c(c(c34)[H])[H])[H])[H])[H])[H])C([C@@]2(C(n2c(c(c(n2)[H])[H])[H])([H])[H])[H])([H])[H])c2c(c(Cl)c(c(c2C1=O)[H])[H])[H])([H])[H])([H])[H])[H])([H])([H])[H]

>  <h>  (6) 
<NA>

>  <Training>  (6) 
True

>  <Success>  (6) 
True

>  <enamine_searched>  (6) 
False

>  <enamine_id>  (6) 
nan

$$$$

     RDKit          3D

 64 68  0  0  0  0  0  0  0  0999 V2000
   11.2059   -4.7381   25.9359 C   0  0  0  0  0  0  0  0  0  0  0  0
   10.4946   -4.1866   24.7106 C   0  0  0  0  0  0  0  0  0  0  0  0
    9.6647   -2.9402   24.9498 C   0  0  0  0  0  0  0  0  0  0  0  0
   10.2037   -1.8623   24.7274 O   0  0  0  0  0  0  0  0  0  0  0  0
    8.2955   -3.0390   25.1872 N   0  0  0  0  0  0  0  0  0  0  0  0
    7.7479   -4.2231   25.8733 C   0  0  0  0  0  0  0  0  0  0  0  0
    6.2660   -4.0560   26.2585 C   0  0  0  0  0  0  0  0  0  0  0  0
    5.9896   -2.6649   26.8444 C   0  0  0  0  0  0  0  0  0  0  0  0
    6.4158   -1.6323   25.8317 C   0  0  0  0  0  0  0  0  0  0  0  0
    5.7224   -0.4273   25.6873 C   0  0  0  0  0  0  0  0  0  0  0  0
    6.1171    0.4982   24.7081 C   0  0  0  0  0  0  0  0  0  0  0  0
    7.1829    0.2086   23.8490 C   0  0  0  0  0  0  0  0  0  0  0  0
    7.6333    1.1106   22.8880 N   0  0  0  0  0  0  0  0  0  0  0  0
    8.4535    2.2293   23.3546 C   0  0  0  0  0  0  0  0  0  0  0  0
    9.8734    1.7749   23.6249 C   0  0  0  0  0  0  0  0  0  0  0  0
   10.1629    0.8879   24.6765 C   0  0  0  0  0  0  0  0  0  0  0  0
   11.4761    0.4648   24.9140 C   0  0  0  0  0  0  0  0  0  0  0  0
   12.5171    0.9309   24.1070 C   0  0  0  0  0  0  0  0  0  0  0  0
   12.2508    1.8274   23.0704 C   0  0  0  0  0  0  0  0  0  0  0  0
   13.6994    2.4846   22.0088 Br  0  0  0  0  0  0  0  0  0  0  0  0
   10.9320    2.2380   22.8253 C   0  0  0  0  0  0  0  0  0  0  0  0
   10.7331    2.9241   22.0070 H   0  0  0  0  0  0  0  0  0  0  0  0
   13.5401    0.6042   24.2656 H   0  0  0  0  0  0  0  0  0  0  0  0
   11.6806   -0.2371   25.7167 H   0  0  0  0  0  0  0  0  0  0  0  0
    9.3624    0.5051   25.2999 H   0  0  0  0  0  0  0  0  0  0  0  0
    8.0275    2.6571   24.2675 H   0  0  0  0  0  0  0  0  0  0  0  0
    8.4558    3.0247   22.6005 H   0  0  0  0  0  0  0  0  0  0  0  0
    7.7033    0.7374   21.5453 C   0  0  0  0  0  0  0  0  0  0  0  0
    8.3274    1.4295   20.7471 O   0  0  0  0  0  0  0  0  0  0  0  0
    7.0077   -0.5198   21.0055 C   0  0  0  0  0  0  0  0  0  0  0  0
    5.9814   -0.2572   19.9129 C   0  0  0  0  0  0  0  0  0  0  0  0
    6.1823   -0.7369   18.6056 C   0  0  0  0  0  0  0  0  0  0  0  0
    5.2665   -0.6329   17.6330 N   0  0  0  0  0  0  0  0  0  0  0  0
    4.1099   -0.0105   17.9185 C   0  0  0  0  0  0  0  0  0  0  0  0
    3.8138    0.5092   19.1874 C   0  0  0  0  0  0  0  0  0  0  0  0
    2.6002    1.1600   19.4671 C   0  0  0  0  0  0  0  0  0  0  0  0
    2.3615    1.7125   20.7285 C   0  0  0  0  0  0  0  0  0  0  0  0
    3.3337    1.6430   21.7250 C   0  0  0  0  0  0  0  0  0  0  0  0
    4.5451    1.0096   21.4429 C   0  0  0  0  0  0  0  0  0  0  0  0
    4.7842    0.4152   20.1966 C   0  0  0  0  0  0  0  0  0  0  0  0
    5.3119    0.9861   22.2049 H   0  0  0  0  0  0  0  0  0  0  0  0
    3.1386    2.0703   22.7039 H   0  0  0  0  0  0  0  0  0  0  0  0
    1.4321    2.2298   20.9281 H   0  0  0  0  0  0  0  0  0  0  0  0
    1.8421    1.2720   18.7016 H   0  0  0  0  0  0  0  0  0  0  0  0
    3.3691    0.0671   17.1255 H   0  0  0  0  0  0  0  0  0  0  0  0
    7.1096   -1.2522   18.3728 H   0  0  0  0  0  0  0  0  0  0  0  0
    6.4980   -1.0170   21.8291 H   0  0  0  0  0  0  0  0  0  0  0  0
    7.7750   -1.2084   20.6461 H   0  0  0  0  0  0  0  0  0  0  0  0
    7.8653   -0.9878   24.0019 C   0  0  0  0  0  0  0  0  0  0  0  0
    7.5150   -1.8936   25.0055 C   0  0  0  0  0  0  0  0  0  0  0  0
    8.7071   -1.1993   23.3522 H   0  0  0  0  0  0  0  0  0  0  0  0
    5.5970    1.4425   24.6119 H   0  0  0  0  0  0  0  0  0  0  0  0
    4.8847   -0.2255   26.3495 H   0  0  0  0  0  0  0  0  0  0  0  0
    6.5306   -2.5301   27.7882 H   0  0  0  0  0  0  0  0  0  0  0  0
    4.9199   -2.5574   27.0514 H   0  0  0  0  0  0  0  0  0  0  0  0
    5.6442   -4.1944   25.3663 H   0  0  0  0  0  0  0  0  0  0  0  0
    5.9872   -4.8244   26.9871 H   0  0  0  0  0  0  0  0  0  0  0  0
    7.8432   -5.1070   25.2305 H   0  0  0  0  0  0  0  0  0  0  0  0
    8.3214   -4.4031   26.7914 H   0  0  0  0  0  0  0  0  0  0  0  0
    9.7983   -4.9361   24.3316 H   0  0  0  0  0  0  0  0  0  0  0  0
   11.2528   -3.9497   23.9566 H   0  0  0  0  0  0  0  0  0  0  0  0
   11.7495   -5.6493   25.6605 H   0  0  0  0  0  0  0  0  0  0  0  0
   11.9346   -4.0085   26.3055 H   0  0  0  0  0  0  0  0  0  0  0  0
   10.4780   -4.9614   26.7253 H   0  0  0  0  0  0  0  0  0  0  0  0
  1  2  1  0
  2  3  1  0
  3  4  2  0
  3  5  1  0
  5  6  1  0
  6  7  1  0
  7  8  1  0
  8  9  1  0
  9 10  2  0
 10 11  1  0
 11 12  2  0
 12 13  1  0
 13 14  1  0
 14 15  1  0
 15 16  2  0
 16 17  1  0
 17 18  2  0
 18 19  1  0
 19 20  1  0
 19 21  2  0
 21 22  1  0
 18 23  1  0
 17 24  1  0
 16 25  1  0
 14 26  1  0
 14 27  1  0
 13 28  1  0
 28 29  2  0
 28 30  1  0
 30 31  1  0
 31 32  2  0
 32 33  1  0
 33 34  2  0
 34 35  1  0
 35 36  2  0
 36 37  1  0
 37 38  2  0
 38 39  1  0
 39 40  2  0
 39 41  1  0
 38 42  1  0
 37 43  1  0
 36 44  1  0
 34 45  1  0
 32 46  1  0
 30 47  1  0
 30 48  1  0
 12 49  1  0
 49 50  2  0
 49 51  1  0
 11 52  1  0
 10 53  1  0
  8 54  1  0
  8 55  1  0
  7 56  1  0
  7 57  1  0
  6 58  1  0
  6 59  1  0
  2 60  1  0
  2 61  1  0
  1 62  1  0
  1 63  1  0
  1 64  1  0
 50  5  1  0
 50  9  1  0
 21 15  1  0
 40 31  1  0
 40 35  1  0
M  END
>  <cnnaffinities>  (7) 
[6.63694]

>  <score>  (7) 
6.63694

>  <index>  (7) 
88

>  <Smiles>  (7) 
C(C(C(=O)N1C(C(C(c2c(c(c(N(C(c3c(c(c(c(Br)c3[H])[H])[H])[H])([H])[H])C(=O)C(c3c(nc(c4c(c(c(c(c34)[H])[H])[H])[H])[H])[H])([H])[H])c(c12)[H])[H])[H])([H])[H])([H])[H])([H])[H])([H])[H])([H])([H])[H]

>  <h>  (7) 
<NA>

>  <Training>  (7) 
True

>  <Success>  (7) 
True

>  <enamine_searched>  (7) 
False

>  <enamine_id>  (7) 
nan

$$$$
