
     RDKit          3D

 63 69  0  0  0  0  0  0  0  0999 V2000
    4.8117   -3.5940   25.5255 O   0  0  0  0  0  0  0  0  0  0  0  0
    5.6766   -3.0432   24.8546 C   0  0  0  0  0  0  0  0  0  0  0  0
    6.0617   -1.6189   25.0697 C   0  0  0  0  0  0  0  0  0  0  0  0
    5.5810   -0.9915   26.2154 C   0  0  0  0  0  0  0  0  0  0  0  0
    5.7973    0.3537   26.4259 C   0  0  0  0  0  0  0  0  0  0  0  0
    6.4927    1.0668   25.4507 C   0  0  0  0  0  0  0  0  0  0  0  0
    6.7557    2.7730   25.6828 Cl  0  0  0  0  0  0  0  0  0  0  0  0
    6.9928    0.4512   24.3146 C   0  0  0  0  0  0  0  0  0  0  0  0
    6.8125   -0.9266   24.1182 C   0  0  0  0  0  0  0  0  0  0  0  0
    7.3505   -1.6480   22.8830 C   0  0  1  0  0  0  0  0  0  0  0  0
    7.5147   -3.1467   23.2076 C   0  0  0  0  0  0  0  0  0  0  0  0
    6.3083   -3.6738   23.8217 N   0  0  0  0  0  0  0  0  0  0  0  0
    5.7340   -4.9108   23.3481 C   0  0  0  0  0  0  0  0  0  0  0  0
    6.3843   -6.1143   23.9478 C   0  0  0  0  0  0  0  0  0  0  0  0
    5.8797   -7.0046   24.7332 N   0  0  0  0  0  0  0  0  0  0  0  0
    6.8815   -7.9465   24.9515 N   0  0  0  0  0  0  0  0  0  0  0  0
    7.8992   -7.5376   24.2832 C   0  0  0  0  0  0  0  0  0  0  0  0
    7.6775   -6.3760   23.6238 O   0  0  0  0  0  0  0  0  0  0  0  0
    8.8531   -8.0273   24.1462 H   0  0  0  0  0  0  0  0  0  0  0  0
    4.6775   -4.9222   23.6246 H   0  0  0  0  0  0  0  0  0  0  0  0
    5.8076   -4.9419   22.2541 H   0  0  0  0  0  0  0  0  0  0  0  0
    7.6878   -3.7018   22.2847 H   0  0  0  0  0  0  0  0  0  0  0  0
    8.3826   -3.2942   23.8651 H   0  0  0  0  0  0  0  0  0  0  0  0
    6.3414   -1.5284   21.7302 C   0  0  0  0  0  0  0  0  0  0  0  0
    5.3342   -2.1852   21.5611 O   0  0  0  0  0  0  0  0  0  0  0  0
    6.7764   -0.5276   20.8997 N   0  0  0  0  0  0  0  0  0  0  0  0
    5.9724   -0.0403   19.8552 C   0  0  0  0  0  0  0  0  0  0  0  0
    6.4112   -0.1521   18.5612 C   0  0  0  0  0  0  0  0  0  0  0  0
    5.7581    0.3341   17.4820 N   0  0  0  0  0  0  0  0  0  0  0  0
    4.6268    0.9549   17.7124 C   0  0  0  0  0  0  0  0  0  0  0  0
    4.0521    1.1189   19.0027 C   0  0  0  0  0  0  0  0  0  0  0  0
    2.8252    1.8128   19.1641 C   0  0  0  0  0  0  0  0  0  0  0  0
    2.2478    1.9281   20.3967 C   0  0  0  0  0  0  0  0  0  0  0  0
    2.8906    1.3813   21.5319 C   0  0  0  0  0  0  0  0  0  0  0  0
    4.0948    0.7319   21.4085 C   0  0  0  0  0  0  0  0  0  0  0  0
    4.7185    0.5950   20.1280 C   0  0  0  0  0  0  0  0  0  0  0  0
    4.5725    0.3145   22.2913 H   0  0  0  0  0  0  0  0  0  0  0  0
    2.4176    1.4725   22.5021 H   0  0  0  0  0  0  0  0  0  0  0  0
    1.3114    2.4699   20.5125 H   0  0  0  0  0  0  0  0  0  0  0  0
    2.3487    2.2052   18.2709 H   0  0  0  0  0  0  0  0  0  0  0  0
    4.1246    1.4016   16.8562 H   0  0  0  0  0  0  0  0  0  0  0  0
    7.3660   -0.6349   18.3558 H   0  0  0  0  0  0  0  0  0  0  0  0
    8.1405   -0.0911   21.1342 C   0  0  0  0  0  0  0  0  0  0  0  0
    8.6242   -0.9657   22.3091 C   0  0  2  0  0  0  0  0  0  0  0  0
    9.7470   -1.9255   21.8767 C   0  0  0  0  0  0  0  0  0  0  0  0
   10.9192   -1.1991   21.4304 N   0  0  0  0  0  0  0  0  0  0  0  0
   11.8185   -0.6552   22.2803 C   0  0  0  0  0  0  0  0  0  0  0  0
   12.8638   -0.0106   21.7171 N   0  0  0  0  0  0  0  0  0  0  0  0
   13.6973    0.5347   22.5816 C   0  0  0  0  0  0  0  0  0  0  0  0
   13.6167    0.4749   23.9166 N   0  0  0  0  0  0  0  0  0  0  0  0
   12.5565   -0.1966   24.3541 C   0  0  0  0  0  0  0  0  0  0  0  0
   11.6197   -0.7761   23.6109 N   0  0  0  0  0  0  0  0  0  0  0  0
   12.4478   -0.2695   25.4383 H   0  0  0  0  0  0  0  0  0  0  0  0
   14.5449    1.0890   22.1730 H   0  0  0  0  0  0  0  0  0  0  0  0
   11.1976   -1.2593   20.4614 H   0  0  0  0  0  0  0  0  0  0  0  0
    9.3929   -2.5864   21.0762 H   0  0  0  0  0  0  0  0  0  0  0  0
   10.0539   -2.5382   22.7294 H   0  0  0  0  0  0  0  0  0  0  0  0
    9.0775   -0.3489   23.0875 H   0  0  0  0  0  0  0  0  0  0  0  0
    8.7418   -0.2511   20.2386 H   0  0  0  0  0  0  0  0  0  0  0  0
    8.1804    0.9846   21.3530 H   0  0  0  0  0  0  0  0  0  0  0  0
    7.5236    1.0645   23.5934 H   0  0  0  0  0  0  0  0  0  0  0  0
    5.4260    0.8492   27.3165 H   0  0  0  0  0  0  0  0  0  0  0  0
    5.0245   -1.5965   26.9209 H   0  0  0  0  0  0  0  0  0  0  0  0
  1  2  2  0
  2  3  1  0
  3  4  2  0
  4  5  1  0
  5  6  2  0
  6  7  1  0
  6  8  1  0
  8  9  2  0
  9 10  1  0
 10 11  1  1
 11 12  1  0
 12 13  1  0
 13 14  1  0
 14 15  2  0
 15 16  1  0
 16 17  2  0
 17 18  1  0
 17 19  1  0
 13 20  1  0
 13 21  1  0
 11 22  1  0
 11 23  1  0
 10 24  1  0
 24 25  2  0
 24 26  1  0
 26 27  1  0
 27 28  2  0
 28 29  1  0
 29 30  2  0
 30 31  1  0
 31 32  2  0
 32 33  1  0
 33 34  2  0
 34 35  1  0
 35 36  2  0
 35 37  1  0
 34 38  1  0
 33 39  1  0
 32 40  1  0
 30 41  1  0
 28 42  1  0
 26 43  1  0
 43 44  1  0
 44 45  1  0
 45 46  1  0
 46 47  1  0
 47 48  2  0
 48 49  1  0
 49 50  2  0
 50 51  1  0
 51 52  2  0
 51 53  1  0
 49 54  1  0
 46 55  1  0
 45 56  1  0
 45 57  1  0
 44 58  1  1
 43 59  1  0
 43 60  1  0
  8 61  1  0
  5 62  1  0
  4 63  1  0
 12  2  1  0
 18 14  1  0
 36 27  1  0
 52 47  1  0
  9  3  1  0
 44 10  1  0
 36 31  1  0
M  END
>  <cnnaffinities>  (1) 
[7.5218, 7.51927, 7.45663]

>  <score>  (1) 
7.5218

>  <index>  (1) 
0

>  <Smiles>  (1) 
O=C1c2c(c(c(Cl)c(c2[C@@]2(C(N1C(c1nnc(o1)[H])([H])[H])([H])[H])C(=O)N(c1c(nc(c3c(c(c(c(c13)[H])[H])[H])[H])[H])[H])C([C@@]2(C(N(c1nc(nc(n1)[H])[H])[H])([H])[H])[H])([H])[H])[H])[H])[H]

>  <h>  (1) 
<NA>

>  <Training>  (1) 
True

>  <Success>  (1) 
True

>  <enamine_searched>  (1) 
False

>  <enamine_id>  (1) 
nan

$$$$

     RDKit          3D

 51 54  0  0  0  0  0  0  0  0999 V2000
   13.3898   -2.2679   23.4636 C   0  0  0  0  0  0  0  0  0  0  0  0
   12.2710   -1.5599   23.9554 O   0  0  0  0  0  0  0  0  0  0  0  0
   11.0565   -1.8872   23.4259 C   0  0  0  0  0  0  0  0  0  0  0  0
   10.8493   -2.8460   22.4425 C   0  0  0  0  0  0  0  0  0  0  0  0
    9.5593   -3.1310   21.9949 C   0  0  0  0  0  0  0  0  0  0  0  0
    8.4624   -2.4374   22.4902 C   0  0  0  0  0  0  0  0  0  0  0  0
    7.1465   -2.7638   22.0335 N   0  0  0  0  0  0  0  0  0  0  0  0
    6.5852   -4.0744   22.3656 C   0  0  0  0  0  0  0  0  0  0  0  0
    6.0310   -4.0969   23.7740 C   0  0  0  0  0  0  0  0  0  0  0  0
    4.6814   -3.8454   24.0153 C   0  0  0  0  0  0  0  0  0  0  0  0
    4.2000   -3.8333   25.3185 C   0  0  0  0  0  0  0  0  0  0  0  0
    5.0548   -4.0491   26.3931 C   0  0  0  0  0  0  0  0  0  0  0  0
    6.4023   -4.2819   26.1426 C   0  0  0  0  0  0  0  0  0  0  0  0
    7.4817   -4.5825   27.4757 Cl  0  0  0  0  0  0  0  0  0  0  0  0
    6.8990   -4.2972   24.8460 C   0  0  0  0  0  0  0  0  0  0  0  0
    7.9640   -4.4358   24.6704 H   0  0  0  0  0  0  0  0  0  0  0  0
    4.6778   -4.0527   27.4108 H   0  0  0  0  0  0  0  0  0  0  0  0
    3.1427   -3.6643   25.5005 H   0  0  0  0  0  0  0  0  0  0  0  0
    4.0166   -3.6343   23.1824 H   0  0  0  0  0  0  0  0  0  0  0  0
    5.7992   -4.2769   21.6338 H   0  0  0  0  0  0  0  0  0  0  0  0
    7.3695   -4.8310   22.2581 H   0  0  0  0  0  0  0  0  0  0  0  0
    6.2676   -1.8738   21.4554 C   0  0  0  0  0  0  0  0  0  0  0  0
    5.0835   -2.1486   21.3439 O   0  0  0  0  0  0  0  0  0  0  0  0
    6.8355   -0.5629   20.9075 C   0  0  0  0  0  0  0  0  0  0  0  0
    5.9823   -0.0275   19.8039 C   0  0  0  0  0  0  0  0  0  0  0  0
    6.3861   -0.1809   18.5069 C   0  0  0  0  0  0  0  0  0  0  0  0
    5.7248    0.2985   17.4250 N   0  0  0  0  0  0  0  0  0  0  0  0
    4.6322    0.9764   17.6598 C   0  0  0  0  0  0  0  0  0  0  0  0
    4.0665    1.1704   18.9459 C   0  0  0  0  0  0  0  0  0  0  0  0
    2.8542    1.8825   19.1258 C   0  0  0  0  0  0  0  0  0  0  0  0
    2.3022    2.0135   20.3699 C   0  0  0  0  0  0  0  0  0  0  0  0
    2.9382    1.4199   21.4888 C   0  0  0  0  0  0  0  0  0  0  0  0
    4.1312    0.7535   21.3424 C   0  0  0  0  0  0  0  0  0  0  0  0
    4.7397    0.6215   20.0613 C   0  0  0  0  0  0  0  0  0  0  0  0
    4.6006    0.2960   22.2067 H   0  0  0  0  0  0  0  0  0  0  0  0
    2.4974    1.5383   22.4733 H   0  0  0  0  0  0  0  0  0  0  0  0
    1.3795    2.5690   20.4991 H   0  0  0  0  0  0  0  0  0  0  0  0
    2.3774    2.2961   18.2399 H   0  0  0  0  0  0  0  0  0  0  0  0
    4.1272    1.4015   16.7915 H   0  0  0  0  0  0  0  0  0  0  0  0
    7.3314   -0.6789   18.2907 H   0  0  0  0  0  0  0  0  0  0  0  0
    7.8559   -0.7441   20.5504 H   0  0  0  0  0  0  0  0  0  0  0  0
    6.9019    0.1807   21.7116 H   0  0  0  0  0  0  0  0  0  0  0  0
    8.6785   -1.4645   23.4647 C   0  0  0  0  0  0  0  0  0  0  0  0
    9.9554   -1.1955   23.9373 C   0  0  0  0  0  0  0  0  0  0  0  0
   10.1346   -0.4593   24.7113 H   0  0  0  0  0  0  0  0  0  0  0  0
    7.8269   -0.9279   23.8744 H   0  0  0  0  0  0  0  0  0  0  0  0
    9.4030   -3.8992   21.2437 H   0  0  0  0  0  0  0  0  0  0  0  0
   11.6781   -3.3934   22.0159 H   0  0  0  0  0  0  0  0  0  0  0  0
   14.2672   -1.8702   23.9775 H   0  0  0  0  0  0  0  0  0  0  0  0
   13.3001   -3.3396   23.6810 H   0  0  0  0  0  0  0  0  0  0  0  0
   13.5036   -2.1211   22.3813 H   0  0  0  0  0  0  0  0  0  0  0  0
  1  2  1  0
  2  3  1  0
  3  4  2  0
  4  5  1  0
  5  6  2  0
  6  7  1  0
  7  8  1  0
  8  9  1  0
  9 10  2  0
 10 11  1  0
 11 12  2  0
 12 13  1  0
 13 14  1  0
 13 15  2  0
 15 16  1  0
 12 17  1  0
 11 18  1  0
 10 19  1  0
  8 20  1  0
  8 21  1  0
  7 22  1  0
 22 23  2  0
 22 24  1  0
 24 25  1  0
 25 26  2  0
 26 27  1  0
 27 28  2  0
 28 29  1  0
 29 30  2  0
 30 31  1  0
 31 32  2  0
 32 33  1  0
 33 34  2  0
 33 35  1  0
 32 36  1  0
 31 37  1  0
 30 38  1  0
 28 39  1  0
 26 40  1  0
 24 41  1  0
 24 42  1  0
  6 43  1  0
 43 44  2  0
 44 45  1  0
 43 46  1  0
  5 47  1  0
  4 48  1  0
  1 49  1  0
  1 50  1  0
  1 51  1  0
 44  3  1  0
 15  9  1  0
 34 25  1  0
 34 29  1  0
M  END
>  <cnnaffinities>  (2) 
[6.46774, 6.42227]

>  <score>  (2) 
6.46774

>  <index>  (2) 
1

>  <Smiles>  (2) 
C(Oc1c(c(c(N(C(c2c(c(c(c(Cl)c2[H])[H])[H])[H])([H])[H])C(=O)C(c2c(nc(c3c(c(c(c(c23)[H])[H])[H])[H])[H])[H])([H])[H])c(c1[H])[H])[H])[H])([H])([H])[H]

>  <h>  (2) 
<NA>

>  <Training>  (2) 
True

>  <Success>  (2) 
True

>  <enamine_searched>  (2) 
False

>  <enamine_id>  (2) 
nan

$$$$

     RDKit          3D

 56 60  0  0  0  0  0  0  0  0999 V2000
    7.5158   -4.7295   26.7720 C   0  0  0  0  0  0  0  0  0  0  0  0
    7.8022   -3.3063   26.7849 N   0  0  0  0  0  0  0  0  0  0  0  0
    6.8590   -2.4304   26.3620 C   0  0  0  0  0  0  0  0  0  0  0  0
    5.8098   -2.8020   25.8427 O   0  0  0  0  0  0  0  0  0  0  0  0
    7.2482   -0.9556   26.4026 C   0  0  0  0  0  0  0  0  0  0  0  0
    8.1057   -0.6908   25.2557 N   0  0  0  0  0  0  0  0  0  0  0  0
    7.5096   -0.1222   24.0519 C   0  0  0  0  0  0  0  0  0  0  0  0
    8.3222   -0.4549   22.7701 C   0  0  2  0  0  0  0  0  0  0  0  0
    7.6737    0.4003   21.6649 C   0  0  0  0  0  0  0  0  0  0  0  0
    7.7763    1.5983   21.5163 O   0  0  0  0  0  0  0  0  0  0  0  0
    6.8568   -0.4196   20.9082 N   0  0  0  0  0  0  0  0  0  0  0  0
    6.0259    0.0456   19.8588 C   0  0  0  0  0  0  0  0  0  0  0  0
    6.4126   -0.1696   18.5604 C   0  0  0  0  0  0  0  0  0  0  0  0
    5.7449    0.2828   17.4740 N   0  0  0  0  0  0  0  0  0  0  0  0
    4.6454    0.9598   17.6885 C   0  0  0  0  0  0  0  0  0  0  0  0
    4.0823    1.1768   18.9765 C   0  0  0  0  0  0  0  0  0  0  0  0
    2.8514    1.8651   19.1335 C   0  0  0  0  0  0  0  0  0  0  0  0
    2.2695    1.9710   20.3669 C   0  0  0  0  0  0  0  0  0  0  0  0
    2.8955    1.3997   21.4996 C   0  0  0  0  0  0  0  0  0  0  0  0
    4.1100    0.7648   21.3776 C   0  0  0  0  0  0  0  0  0  0  0  0
    4.7556    0.6655   20.1087 C   0  0  0  0  0  0  0  0  0  0  0  0
    4.6002    0.3457   22.2511 H   0  0  0  0  0  0  0  0  0  0  0  0
    2.4307    1.5113   22.4796 H   0  0  0  0  0  0  0  0  0  0  0  0
    1.3364    2.5187   20.4786 H   0  0  0  0  0  0  0  0  0  0  0  0
    2.3795    2.2597   18.2386 H   0  0  0  0  0  0  0  0  0  0  0  0
    4.1388    1.3684   16.8150 H   0  0  0  0  0  0  0  0  0  0  0  0
    7.3522   -0.6823   18.3581 H   0  0  0  0  0  0  0  0  0  0  0  0
    6.8735   -1.8155   21.2699 C   0  0  0  0  0  0  0  0  0  0  0  0
    8.0654   -1.9055   22.2287 C   0  0  2  0  0  0  0  0  0  0  0  0
    7.8432   -2.9232   23.2971 N   0  0  0  0  0  4  0  0  0  0  0  0
    8.5988   -2.8388   23.9996 H   0  0  0  0  0  0  0  0  0  0  0  0
    7.8846   -3.8712   22.8745 H   0  0  0  0  0  0  0  0  0  0  0  0
    6.9169   -2.7866   23.7552 H   0  0  0  0  0  0  0  0  0  0  0  0
    8.9478   -2.2100   21.6635 H   0  0  0  0  0  0  0  0  0  0  0  0
    6.9888   -2.4259   20.3701 H   0  0  0  0  0  0  0  0  0  0  0  0
    5.9322   -2.1239   21.7562 H   0  0  0  0  0  0  0  0  0  0  0  0
    9.7995   -0.1633   23.0475 C   0  0  0  0  0  0  0  0  0  0  0  0
   10.7316    0.1126   22.0330 C   0  0  0  0  0  0  0  0  0  0  0  0
   12.0763    0.3030   22.3407 C   0  0  0  0  0  0  0  0  0  0  0  0
   13.2685    0.6305   21.1151 Cl  0  0  0  0  0  0  0  0  0  0  0  0
   12.5566    0.2190   23.6450 C   0  0  0  0  0  0  0  0  0  0  0  0
   11.6562   -0.0725   24.6409 C   0  0  0  0  0  0  0  0  0  0  0  0
   10.3061   -0.2492   24.3485 C   0  0  0  0  0  0  0  0  0  0  0  0
    9.4425   -0.5674   25.5078 C   0  0  0  0  0  0  0  0  0  0  0  0
    9.9278   -0.7248   26.6214 O   0  0  0  0  0  0  0  0  0  0  0  0
   11.9653   -0.1831   25.6737 H   0  0  0  0  0  0  0  0  0  0  0  0
   13.6100    0.3709   23.8601 H   0  0  0  0  0  0  0  0  0  0  0  0
   10.4079    0.1718   21.0034 H   0  0  0  0  0  0  0  0  0  0  0  0
    6.4813   -0.5002   23.9552 H   0  0  0  0  0  0  0  0  0  0  0  0
    7.4481    0.9719   24.1460 H   0  0  0  0  0  0  0  0  0  0  0  0
    7.8095   -0.7152   27.3068 H   0  0  0  0  0  0  0  0  0  0  0  0
    6.3629   -0.3156   26.3493 H   0  0  0  0  0  0  0  0  0  0  0  0
    8.6826   -2.9690   27.1501 H   0  0  0  0  0  0  0  0  0  0  0  0
    6.7107   -4.9687   27.4761 H   0  0  0  0  0  0  0  0  0  0  0  0
    8.4105   -5.2896   27.0518 H   0  0  0  0  0  0  0  0  0  0  0  0
    7.1969   -5.0392   25.7704 H   0  0  0  0  0  0  0  0  0  0  0  0
  1  2  1  0
  2  3  1  0
  3  4  2  0
  3  5  1  0
  5  6  1  0
  6  7  1  0
  8  7  1  1
  8  9  1  0
  9 10  2  0
  9 11  1  0
 11 12  1  0
 12 13  2  0
 13 14  1  0
 14 15  2  0
 15 16  1  0
 16 17  2  0
 17 18  1  0
 18 19  2  0
 19 20  1  0
 20 21  2  0
 20 22  1  0
 19 23  1  0
 18 24  1  0
 17 25  1  0
 15 26  1  0
 13 27  1  0
 11 28  1  0
 28 29  1  0
 29 30  1  0
 30 31  1  0
 30 32  1  0
 30 33  1  0
 29 34  1  6
 28 35  1  0
 28 36  1  0
  8 37  1  0
 37 38  2  0
 38 39  1  0
 39 40  1  0
 39 41  2  0
 41 42  1  0
 42 43  2  0
 43 44  1  0
 44 45  2  0
 42 46  1  0
 41 47  1  0
 38 48  1  0
  7 49  1  0
  7 50  1  0
  5 51  1  0
  5 52  1  0
  2 53  1  0
  1 54  1  0
  1 55  1  0
  1 56  1  0
 44  6  1  0
 29  8  1  0
 43 37  1  0
 21 12  1  0
 21 16  1  0
M  CHG  1  30   1
M  END
>  <cnnaffinities>  (3) 
[6.15992, 6.71436]

>  <score>  (3) 
6.15992

>  <index>  (3) 
2

>  <Smiles>  (3) 
C(N(C(=O)C(N1C([C@@]2(C(=O)N(c3c(nc(c4c(c(c(c(c34)[H])[H])[H])[H])[H])[H])C([C@@]2([N+]([H])([H])[H])[H])([H])[H])c2c(c(Cl)c(c(c2C1=O)[H])[H])[H])([H])[H])([H])[H])[H])([H])([H])[H]

>  <h>  (3) 
<NA>

>  <Training>  (3) 
True

>  <Success>  (3) 
True

>  <enamine_searched>  (3) 
False

>  <enamine_id>  (3) 
nan

$$$$

     RDKit          3D

 67 73  0  0  0  0  0  0  0  0999 V2000
    9.7619   -0.4000   26.7240 O   0  0  0  0  0  0  0  0  0  0  0  0
    9.3122   -0.4139   25.5838 C   0  0  0  0  0  0  0  0  0  0  0  0
   10.1950   -0.1576   24.4175 C   0  0  0  0  0  0  0  0  0  0  0  0
   11.5397    0.0330   24.7206 C   0  0  0  0  0  0  0  0  0  0  0  0
   12.4561    0.3047   23.7318 C   0  0  0  0  0  0  0  0  0  0  0  0
   11.9936    0.3544   22.4202 C   0  0  0  0  0  0  0  0  0  0  0  0
   13.1749    0.6823   21.1891 Cl  0  0  0  0  0  0  0  0  0  0  0  0
   10.6598    0.1314   22.0950 C   0  0  0  0  0  0  0  0  0  0  0  0
    9.7177   -0.1398   23.1016 C   0  0  0  0  0  0  0  0  0  0  0  0
    8.2570   -0.4664   22.7936 C   0  0  1  0  0  0  0  0  0  0  0  0
    7.4227   -0.1290   24.0673 C   0  0  0  0  0  0  0  0  0  0  0  0
    8.0083   -0.6795   25.2813 N   0  0  0  0  0  0  0  0  0  0  0  0
    7.1416   -1.1175   26.3667 C   0  0  0  0  0  0  0  0  0  0  0  0
    6.6867    0.0061   27.2723 C   0  0  0  0  0  0  0  0  0  0  0  0
    7.2826    0.2863   28.4772 C   0  0  0  0  0  0  0  0  0  0  0  0
    6.7808    1.3531   29.2181 C   0  0  0  0  0  0  0  0  0  0  0  0
    5.7740    2.1221   28.8163 N   0  0  0  0  0  0  0  0  0  0  0  0
    5.2010    1.8698   27.6468 N   0  0  0  0  0  0  0  0  0  0  0  0
    5.6392    0.8581   26.9036 C   0  0  0  0  0  0  0  0  0  0  0  0
    5.1124    0.7092   25.9612 H   0  0  0  0  0  0  0  0  0  0  0  0
    7.2147    1.5965   30.1849 H   0  0  0  0  0  0  0  0  0  0  0  0
    8.1330   -0.2831   28.8400 H   0  0  0  0  0  0  0  0  0  0  0  0
    6.2762   -1.6164   25.9141 H   0  0  0  0  0  0  0  0  0  0  0  0
    7.6907   -1.8607   26.9490 H   0  0  0  0  0  0  0  0  0  0  0  0
    6.3976   -0.5099   23.9570 H   0  0  0  0  0  0  0  0  0  0  0  0
    7.3557    0.9684   24.1342 H   0  0  0  0  0  0  0  0  0  0  0  0
    7.6277    0.3810   21.6689 C   0  0  0  0  0  0  0  0  0  0  0  0
    7.7347    1.5763   21.5119 O   0  0  0  0  0  0  0  0  0  0  0  0
    6.8303   -0.4444   20.8996 N   0  0  0  0  0  0  0  0  0  0  0  0
    6.0093    0.0171   19.8460 C   0  0  0  0  0  0  0  0  0  0  0  0
    6.4075   -0.1883   18.5515 C   0  0  0  0  0  0  0  0  0  0  0  0
    5.7452    0.2769   17.4670 N   0  0  0  0  0  0  0  0  0  0  0  0
    4.6513    0.9632   17.6834 C   0  0  0  0  0  0  0  0  0  0  0  0
    4.0792    1.1672   18.9699 C   0  0  0  0  0  0  0  0  0  0  0  0
    2.8620    1.8745   19.1327 C   0  0  0  0  0  0  0  0  0  0  0  0
    2.2890    1.9970   20.3697 C   0  0  0  0  0  0  0  0  0  0  0  0
    2.9143    1.4258   21.5069 C   0  0  0  0  0  0  0  0  0  0  0  0
    4.1210    0.7751   21.3768 C   0  0  0  0  0  0  0  0  0  0  0  0
    4.7474    0.6468   20.0994 C   0  0  0  0  0  0  0  0  0  0  0  0
    4.6240    0.3763   22.2540 H   0  0  0  0  0  0  0  0  0  0  0  0
    2.4541    1.5499   22.4846 H   0  0  0  0  0  0  0  0  0  0  0  0
    1.3670    2.5540   20.4828 H   0  0  0  0  0  0  0  0  0  0  0  0
    2.4018    2.2855   18.2401 H   0  0  0  0  0  0  0  0  0  0  0  0
    4.1505    1.3807   16.8100 H   0  0  0  0  0  0  0  0  0  0  0  0
    7.3480   -0.7026   18.3548 H   0  0  0  0  0  0  0  0  0  0  0  0
    6.8468   -1.8339   21.2716 C   0  0  0  0  0  0  0  0  0  0  0  0
    8.0458   -1.9158   22.2272 C   0  0  2  0  0  0  0  0  0  0  0  0
    7.8513   -3.0316   23.2582 C   0  0  0  0  0  0  0  0  0  0  0  0
    7.8505   -4.3351   22.6271 N   0  0  0  0  0  0  0  0  0  0  0  0
    6.7168   -5.0163   22.3137 C   0  0  0  0  0  0  0  0  0  0  0  0
    6.8017   -6.2280   21.5955 C   0  0  0  0  0  0  0  0  0  0  0  0
    5.6227   -6.8922   21.3512 C   0  0  0  0  0  0  0  0  0  0  0  0
    4.4271   -6.4353   21.7584 N   0  0  0  0  0  0  0  0  0  0  0  0
    4.4575   -5.2839   22.4104 C   0  0  0  0  0  0  0  0  0  0  0  0
    5.5263   -4.5384   22.7112 N   0  0  0  0  0  0  0  0  0  0  0  0
    3.4924   -4.8975   22.7470 H   0  0  0  0  0  0  0  0  0  0  0  0
    5.6159   -7.8407   20.8077 H   0  0  0  0  0  0  0  0  0  0  0  0
    7.7639   -6.6078   21.2630 H   0  0  0  0  0  0  0  0  0  0  0  0
    8.7305   -4.6896   22.2737 H   0  0  0  0  0  0  0  0  0  0  0  0
    6.8751   -2.9271   23.7437 H   0  0  0  0  0  0  0  0  0  0  0  0
    8.6334   -2.9840   24.0231 H   0  0  0  0  0  0  0  0  0  0  0  0
    8.9410   -2.1458   21.6249 H   0  0  0  0  0  0  0  0  0  0  0  0
    5.9025   -2.1395   21.7508 H   0  0  0  0  0  0  0  0  0  0  0  0
    6.9525   -2.4558   20.3789 H   0  0  0  0  0  0  0  0  0  0  0  0
   10.3563    0.1782   21.0580 H   0  0  0  0  0  0  0  0  0  0  0  0
   13.5010    0.4824   23.9671 H   0  0  0  0  0  0  0  0  0  0  0  0
   11.8278   -0.0470   25.7602 H   0  0  0  0  0  0  0  0  0  0  0  0
  1  2  2  0
  2  3  1  0
  3  4  2  0
  4  5  1  0
  5  6  2  0
  6  7  1  0
  6  8  1  0
  8  9  2  0
  9 10  1  0
 10 11  1  1
 11 12  1  0
 12 13  1  0
 13 14  1  0
 14 15  2  0
 15 16  1  0
 16 17  2  0
 17 18  1  0
 18 19  2  0
 19 20  1  0
 16 21  1  0
 15 22  1  0
 13 23  1  0
 13 24  1  0
 11 25  1  0
 11 26  1  0
 10 27  1  0
 27 28  2  0
 27 29  1  0
 29 30  1  0
 30 31  2  0
 31 32  1  0
 32 33  2  0
 33 34  1  0
 34 35  2  0
 35 36  1  0
 36 37  2  0
 37 38  1  0
 38 39  2  0
 38 40  1  0
 37 41  1  0
 36 42  1  0
 35 43  1  0
 33 44  1  0
 31 45  1  0
 29 46  1  0
 46 47  1  0
 47 48  1  0
 48 49  1  0
 49 50  1  0
 50 51  2  0
 51 52  1  0
 52 53  2  0
 53 54  1  0
 54 55  2  0
 54 56  1  0
 52 57  1  0
 51 58  1  0
 49 59  1  0
 48 60  1  0
 48 61  1  0
 47 62  1  6
 46 63  1  0
 46 64  1  0
  8 65  1  0
  5 66  1  0
  4 67  1  0
 12  2  1  0
 19 14  1  0
 39 30  1  0
 55 50  1  0
  9  3  1  0
 47 10  1  0
 39 34  1  0
M  END
>  <cnnaffinities>  (4) 
[7.01376, 6.86873, 7.44376, 6.9084, 6.92295]

>  <score>  (4) 
7.01376

>  <index>  (4) 
3

>  <Smiles>  (4) 
O=C1c2c(c(c(Cl)c(c2[C@@]2(C(N1C(c1c(c(nnc1[H])[H])[H])([H])[H])([H])[H])C(=O)N(c1c(nc(c3c(c(c(c(c13)[H])[H])[H])[H])[H])[H])C([C@@]2(C(N(c1c(c(nc(n1)[H])[H])[H])[H])([H])[H])[H])([H])[H])[H])[H])[H]

>  <h>  (4) 
<NA>

>  <Training>  (4) 
True

>  <Success>  (4) 
True

>  <enamine_searched>  (4) 
False

>  <enamine_id>  (4) 
nan

$$$$

     RDKit          3D

 41 44  0  0  0  0  0  0  0  0999 V2000
    9.0429    2.1829   23.9962 C   0  0  0  0  0  0  0  0  0  0  0  0
    9.6938    1.2200   22.9930 C   0  0  1  0  0  0  0  0  0  0  0  0
   10.9350    0.5642   23.5368 C   0  0  0  0  0  0  0  0  0  0  0  0
   12.2790    1.0595   23.4916 C   0  0  0  0  0  0  0  0  0  0  0  0
   13.1639    0.2037   24.0711 C   0  0  0  0  0  0  0  0  0  0  0  0
   12.3780   -1.1851   24.7251 S   0  0  0  0  0  0  0  0  0  0  0  0
   10.8424   -0.6313   24.1699 C   0  0  0  0  0  0  0  0  0  0  0  0
    9.5466   -1.3653   24.2762 C   0  0  0  0  0  0  0  0  0  0  0  0
    8.7729   -1.1890   22.9712 C   0  0  0  0  0  0  0  0  0  0  0  0
    8.7180    0.2105   22.5238 N   0  0  0  0  0  0  0  0  0  0  0  0
    7.9307    0.5652   21.4522 C   0  0  0  0  0  0  0  0  0  0  0  0
    8.0463    1.6387   20.8833 O   0  0  0  0  0  0  0  0  0  0  0  0
    6.9148   -0.4954   20.9890 C   0  0  0  0  0  0  0  0  0  0  0  0
    6.0042   -0.0346   19.8880 C   0  0  0  0  0  0  0  0  0  0  0  0
    6.4195   -0.1534   18.5858 C   0  0  0  0  0  0  0  0  0  0  0  0
    5.7703    0.3244   17.4964 N   0  0  0  0  0  0  0  0  0  0  0  0
    4.6407    0.9495   17.7101 C   0  0  0  0  0  0  0  0  0  0  0  0
    4.0594    1.1245   18.9950 C   0  0  0  0  0  0  0  0  0  0  0  0
    2.8200    1.7905   19.1624 C   0  0  0  0  0  0  0  0  0  0  0  0
    2.2410    1.8805   20.3962 C   0  0  0  0  0  0  0  0  0  0  0  0
    2.8827    1.3059   21.5135 C   0  0  0  0  0  0  0  0  0  0  0  0
    4.1003    0.6802   21.3853 C   0  0  0  0  0  0  0  0  0  0  0  0
    4.7352    0.5870   20.1192 C   0  0  0  0  0  0  0  0  0  0  0  0
    4.5848    0.2566   22.2539 H   0  0  0  0  0  0  0  0  0  0  0  0
    2.4121    1.3712   22.4860 H   0  0  0  0  0  0  0  0  0  0  0  0
    1.2995    2.4060   20.5258 H   0  0  0  0  0  0  0  0  0  0  0  0
    2.3330    2.2077   18.2836 H   0  0  0  0  0  0  0  0  0  0  0  0
    4.1375    1.3760   16.8402 H   0  0  0  0  0  0  0  0  0  0  0  0
    7.3772   -0.6248   18.3673 H   0  0  0  0  0  0  0  0  0  0  0  0
    6.3385   -0.8526   21.8488 H   0  0  0  0  0  0  0  0  0  0  0  0
    7.5044   -1.3472   20.6197 H   0  0  0  0  0  0  0  0  0  0  0  0
    9.2319   -1.8135   22.1884 H   0  0  0  0  0  0  0  0  0  0  0  0
    7.7571   -1.5612   23.1317 H   0  0  0  0  0  0  0  0  0  0  0  0
    9.7077   -2.4278   24.4751 H   0  0  0  0  0  0  0  0  0  0  0  0
    8.9494   -0.9653   25.1086 H   0  0  0  0  0  0  0  0  0  0  0  0
   14.2389    0.2939   24.1117 H   0  0  0  0  0  0  0  0  0  0  0  0
   12.5785    2.0093   23.0587 H   0  0  0  0  0  0  0  0  0  0  0  0
    9.9817    1.8051   22.1113 H   0  0  0  0  0  0  0  0  0  0  0  0
    8.7084    1.6406   24.8882 H   0  0  0  0  0  0  0  0  0  0  0  0
    9.7695    2.9418   24.3050 H   0  0  0  0  0  0  0  0  0  0  0  0
    8.1853    2.6819   23.5342 H   0  0  0  0  0  0  0  0  0  0  0  0
  1  2  1  0
  2  3  1  0
  3  4  1  0
  4  5  2  0
  5  6  1  0
  6  7  1  0
  7  8  1  0
  8  9  1  0
  9 10  1  0
 10 11  1  0
 11 12  2  0
 11 13  1  0
 13 14  1  0
 14 15  2  0
 15 16  1  0
 16 17  2  0
 17 18  1  0
 18 19  2  0
 19 20  1  0
 20 21  2  0
 21 22  1  0
 22 23  2  0
 22 24  1  0
 21 25  1  0
 20 26  1  0
 19 27  1  0
 17 28  1  0
 15 29  1  0
 13 30  1  0
 13 31  1  0
  9 32  1  0
  9 33  1  0
  8 34  1  0
  8 35  1  0
  5 36  1  0
  4 37  1  0
  2 38  1  6
  1 39  1  0
  1 40  1  0
  1 41  1  0
 10  2  1  0
 23 14  1  0
  7  3  2  0
 23 18  1  0
M  END
>  <cnnaffinities>  (5) 
[5.83454]

>  <score>  (5) 
5.83454

>  <index>  (5) 
4

>  <Smiles>  (5) 
C([C@]1(c2c(c(sc2C(C(N1C(=O)C(c1c(nc(c2c(c(c(c(c12)[H])[H])[H])[H])[H])[H])([H])[H])([H])[H])([H])[H])[H])[H])[H])([H])([H])[H]

>  <h>  (5) 
<NA>

>  <Training>  (5) 
True

>  <Success>  (5) 
True

>  <enamine_searched>  (5) 
False

>  <enamine_id>  (5) 
nan

$$$$

     RDKit          3D

 50 54  0  0  0  0  0  0  0  0999 V2000
    7.6010   -2.9476   23.5324 C   0  0  0  0  0  0  0  0  0  0  0  0
    7.8363   -2.0577   22.3181 C   0  0  1  0  0  0  0  0  0  0  0  0
    6.5078   -1.6139   21.6932 C   0  0  0  0  0  0  0  0  0  0  0  0
    6.8278   -0.3834   20.9836 N   0  0  0  0  0  0  0  0  0  0  0  0
    6.0338    0.1021   19.9120 C   0  0  0  0  0  0  0  0  0  0  0  0
    6.5389    0.1371   18.6355 C   0  0  0  0  0  0  0  0  0  0  0  0
    5.8341    0.5393   17.5514 N   0  0  0  0  0  0  0  0  0  0  0  0
    4.6021    0.9435   17.7261 C   0  0  0  0  0  0  0  0  0  0  0  0
    3.9486    0.9618   18.9869 C   0  0  0  0  0  0  0  0  0  0  0  0
    2.6292    1.4644   19.1382 C   0  0  0  0  0  0  0  0  0  0  0  0
    2.0075    1.4364   20.3555 C   0  0  0  0  0  0  0  0  0  0  0  0
    2.7006    0.9378   21.4826 C   0  0  0  0  0  0  0  0  0  0  0  0
    3.9850    0.4590   21.3638 C   0  0  0  0  0  0  0  0  0  0  0  0
    4.6594    0.4817   20.1112 C   0  0  0  0  0  0  0  0  0  0  0  0
    4.5146    0.1117   22.2454 H   0  0  0  0  0  0  0  0  0  0  0  0
    2.1988    0.9055   22.4482 H   0  0  0  0  0  0  0  0  0  0  0  0
    0.9946    1.8186   20.4766 H   0  0  0  0  0  0  0  0  0  0  0  0
    2.1316    1.8709   18.2646 H   0  0  0  0  0  0  0  0  0  0  0  0
    4.0578    1.2674   16.8382 H   0  0  0  0  0  0  0  0  0  0  0  0
    7.5698   -0.1523   18.4373 H   0  0  0  0  0  0  0  0  0  0  0  0
    8.1130    0.0594   21.2546 C   0  0  0  0  0  0  0  0  0  0  0  0
    8.6904    0.9425   20.6470 O   0  0  0  0  0  0  0  0  0  0  0  0
    8.6442   -0.7193   22.4858 C   0  0  1  0  0  0  0  0  0  0  0  0
    8.2800    0.0974   23.7422 C   0  0  0  0  0  0  0  0  0  0  0  0
    8.9229   -0.4230   24.9437 N   0  0  0  0  0  0  0  0  0  0  0  0
    8.2249   -0.3128   26.2047 C   0  0  0  0  0  0  0  0  0  0  0  0
    7.5474   -1.5507   26.6312 C   0  0  0  0  0  0  0  0  0  0  0  0
    7.0394   -2.5076   27.0422 N   0  0  0  0  0  0  0  0  0  0  0  0
    8.9704   -0.0699   26.9632 H   0  0  0  0  0  0  0  0  0  0  0  0
    7.4845    0.4914   26.1587 H   0  0  0  0  0  0  0  0  0  0  0  0
   10.2847   -0.6454   24.9858 C   0  0  0  0  0  0  0  0  0  0  0  0
   10.9320   -0.5709   26.0201 O   0  0  0  0  0  0  0  0  0  0  0  0
   10.8836   -1.0403   23.6739 C   0  0  0  0  0  0  0  0  0  0  0  0
   12.1705   -1.5844   23.6694 C   0  0  0  0  0  0  0  0  0  0  0  0
   12.7491   -2.0056   22.4832 C   0  0  0  0  0  0  0  0  0  0  0  0
   12.0419   -1.7789   21.3066 C   0  0  0  0  0  0  0  0  0  0  0  0
   12.5832   -2.1809   20.1469 F   0  0  0  0  0  0  0  0  0  0  0  0
   10.8026   -1.1701   21.2819 C   0  0  0  0  0  0  0  0  0  0  0  0
   10.1445   -0.9273   22.4864 C   0  0  0  0  0  0  0  0  0  0  0  0
   10.3482   -0.8737   20.3459 H   0  0  0  0  0  0  0  0  0  0  0  0
   13.7164   -2.4968   22.4385 H   0  0  0  0  0  0  0  0  0  0  0  0
   12.6763   -1.6652   24.6272 H   0  0  0  0  0  0  0  0  0  0  0  0
    7.1968    0.0695   23.9041 H   0  0  0  0  0  0  0  0  0  0  0  0
    8.5769    1.1427   23.5603 H   0  0  0  0  0  0  0  0  0  0  0  0
    6.0980   -2.3498   20.9952 H   0  0  0  0  0  0  0  0  0  0  0  0
    5.7698   -1.4483   22.4894 H   0  0  0  0  0  0  0  0  0  0  0  0
    8.3988   -2.6369   21.5728 H   0  0  0  0  0  0  0  0  0  0  0  0
    7.0929   -3.8658   23.2114 H   0  0  0  0  0  0  0  0  0  0  0  0
    8.5417   -3.2344   24.0114 H   0  0  0  0  0  0  0  0  0  0  0  0
    6.9600   -2.4538   24.2725 H   0  0  0  0  0  0  0  0  0  0  0  0
  1  2  1  0
  2  3  1  0
  3  4  1  0
  4  5  1  0
  5  6  2  0
  6  7  1  0
  7  8  2  0
  8  9  1  0
  9 10  2  0
 10 11  1  0
 11 12  2  0
 12 13  1  0
 13 14  2  0
 13 15  1  0
 12 16  1  0
 11 17  1  0
 10 18  1  0
  8 19  1  0
  6 20  1  0
  4 21  1  0
 21 22  2  0
 21 23  1  0
 23 24  1  1
 24 25  1  0
 25 26  1  0
 26 27  1  0
 27 28  3  0
 26 29  1  0
 26 30  1  0
 25 31  1  0
 31 32  2  0
 31 33  1  0
 33 34  2  0
 34 35  1  0
 35 36  2  0
 36 37  1  0
 36 38  1  0
 38 39  2  0
 38 40  1  0
 35 41  1  0
 34 42  1  0
 24 43  1  0
 24 44  1  0
  3 45  1  0
  3 46  1  0
  2 47  1  6
  1 48  1  0
  1 49  1  0
  1 50  1  0
 23  2  1  0
 39 33  1  0
 14  5  1  0
 39 23  1  0
 14  9  1  0
M  END
>  <cnnaffinities>  (6) 
[5.94225]

>  <score>  (6) 
5.94225

>  <index>  (6) 
5

>  <Smiles>  (6) 
C([C@]1(C(N(c2c(nc(c3c(c(c(c(c23)[H])[H])[H])[H])[H])[H])C(=O)[C@]21C(N(C(C#N)([H])[H])C(=O)c1c(c(c(F)c(c21)[H])[H])[H])([H])[H])([H])[H])[H])([H])([H])[H]

>  <h>  (6) 
<NA>

>  <Training>  (6) 
True

>  <Success>  (6) 
True

>  <enamine_searched>  (6) 
False

>  <enamine_id>  (6) 
nan

$$$$

     RDKit          3D

 65 69  0  0  0  0  0  0  0  0999 V2000
   10.3888    4.4610   24.3422 C   0  0  0  0  0  0  0  0  0  0  0  0
   10.6745    3.0753   23.7764 C   0  0  0  0  0  0  0  0  0  0  0  0
    9.3240    2.4691   23.5376 C   0  0  0  0  0  0  0  0  0  0  0  0
    8.6619    2.5174   22.5692 O   0  0  0  0  0  0  0  0  0  0  0  0
    9.2622    0.2264   25.5099 N   0  0  1  0  0  4  0  0  0  0  0  0
    8.0288    0.7928   26.0447 C   0  0  0  0  0  0  0  0  0  0  0  0
    6.8831    0.7679   25.0434 C   0  0  0  0  0  0  0  0  0  0  0  0
    6.7175   -0.6579   24.5340 C   0  0  0  0  0  0  0  0  0  0  0  0
    8.0141   -1.1942   23.9445 C   0  0  0  0  0  0  0  0  0  0  0  0
    8.0695   -2.2061   22.9712 C   0  0  0  0  0  0  0  0  0  0  0  0
    6.8708   -2.7175   22.3718 N   0  0  0  0  0  0  0  0  0  0  0  0
    6.3929   -4.0027   22.8764 C   0  0  0  0  0  0  0  0  0  0  0  0
    5.7705   -3.8589   24.2507 C   0  0  0  0  0  0  0  0  0  0  0  0
    4.4965   -3.3050   24.3925 C   0  0  0  0  0  0  0  0  0  0  0  0
    3.9318   -3.1363   25.6539 C   0  0  0  0  0  0  0  0  0  0  0  0
    4.6345   -3.5070   26.7974 C   0  0  0  0  0  0  0  0  0  0  0  0
    5.9180   -4.0247   26.6550 C   0  0  0  0  0  0  0  0  0  0  0  0
    6.8330   -4.4459   28.0821 Cl  0  0  0  0  0  0  0  0  0  0  0  0
    6.4877   -4.2021   25.3983 C   0  0  0  0  0  0  0  0  0  0  0  0
    7.5080   -4.5704   25.3257 H   0  0  0  0  0  0  0  0  0  0  0  0
    4.2006   -3.3920   27.7865 H   0  0  0  0  0  0  0  0  0  0  0  0
    2.9371   -2.7055   25.7505 H   0  0  0  0  0  0  0  0  0  0  0  0
    3.9558   -2.9828   23.5063 H   0  0  0  0  0  0  0  0  0  0  0  0
    5.6664   -4.3890   22.1550 H   0  0  0  0  0  0  0  0  0  0  0  0
    7.2476   -4.6851   22.9344 H   0  0  0  0  0  0  0  0  0  0  0  0
    6.0920   -2.0408   21.4547 C   0  0  0  0  0  0  0  0  0  0  0  0
    5.0176   -2.4830   21.0845 O   0  0  0  0  0  0  0  0  0  0  0  0
    6.6534   -0.7098   20.9329 C   0  0  0  0  0  0  0  0  0  0  0  0
    5.8529   -0.1227   19.8088 C   0  0  0  0  0  0  0  0  0  0  0  0
    6.3555   -0.1080   18.5341 C   0  0  0  0  0  0  0  0  0  0  0  0
    5.7241    0.4217   17.4549 N   0  0  0  0  0  0  0  0  0  0  0  0
    4.5376    0.9392   17.6577 C   0  0  0  0  0  0  0  0  0  0  0  0
    3.8893    0.9864   18.9231 C   0  0  0  0  0  0  0  0  0  0  0  0
    2.6233    1.6016   19.1038 C   0  0  0  0  0  0  0  0  0  0  0  0
    2.0382    1.6410   20.3379 C   0  0  0  0  0  0  0  0  0  0  0  0
    2.6925    1.0740   21.4496 C   0  0  0  0  0  0  0  0  0  0  0  0
    3.9213    0.4830   21.3086 C   0  0  0  0  0  0  0  0  0  0  0  0
    4.5535    0.4223   20.0350 C   0  0  0  0  0  0  0  0  0  0  0  0
    4.4229    0.0563   22.1723 H   0  0  0  0  0  0  0  0  0  0  0  0
    2.2351    1.1346   22.4330 H   0  0  0  0  0  0  0  0  0  0  0  0
    1.0814    2.1371   20.4771 H   0  0  0  0  0  0  0  0  0  0  0  0
    2.1448    2.0557   18.2413 H   0  0  0  0  0  0  0  0  0  0  0  0
    4.0348    1.3841   16.7958 H   0  0  0  0  0  0  0  0  0  0  0  0
    7.3555   -0.5027   18.3335 H   0  0  0  0  0  0  0  0  0  0  0  0
    7.6885   -0.8858   20.6176 H   0  0  0  0  0  0  0  0  0  0  0  0
    6.7088    0.0026   21.7653 H   0  0  0  0  0  0  0  0  0  0  0  0
    9.2822   -2.7558   22.5720 C   0  0  0  0  0  0  0  0  0  0  0  0
   10.4760   -2.2429   23.0714 C   0  0  0  0  0  0  0  0  0  0  0  0
   10.4448   -1.1976   23.9817 C   0  0  0  0  0  0  0  0  0  0  0  0
    9.2237   -0.7091   24.4644 C   0  0  0  0  0  0  0  0  0  0  0  0
   11.3701   -0.7808   24.3669 H   0  0  0  0  0  0  0  0  0  0  0  0
   11.4228   -2.6760   22.7582 H   0  0  0  0  0  0  0  0  0  0  0  0
    9.2752   -3.5826   21.8669 H   0  0  0  0  0  0  0  0  0  0  0  0
    6.4384   -1.2868   25.3899 H   0  0  0  0  0  0  0  0  0  0  0  0
    5.8818   -0.7268   23.8290 H   0  0  0  0  0  0  0  0  0  0  0  0
    7.1161    1.4597   24.2230 H   0  0  0  0  0  0  0  0  0  0  0  0
    5.9625    1.1028   25.5382 H   0  0  0  0  0  0  0  0  0  0  0  0
    8.2538    1.8240   26.3415 H   0  0  0  0  0  0  0  0  0  0  0  0
    7.7165    0.2586   26.9508 H   0  0  0  0  0  0  0  0  0  0  0  0
    9.9120    0.9600   25.2476 H   0  0  0  0  0  0  0  0  0  0  0  0
   11.2243    3.0573   22.8400 H   0  0  0  0  0  0  0  0  0  0  0  0
   11.1921    2.4195   24.4777 H   0  0  0  0  0  0  0  0  0  0  0  0
   11.2695    4.9201   24.8009 H   0  0  0  0  0  0  0  0  0  0  0  0
    9.5838    4.3414   25.0720 H   0  0  0  0  0  0  0  0  0  0  0  0
   10.0307    5.1197   23.5488 H   0  0  0  0  0  0  0  0  0  0  0  0
  1  2  1  0
  2  3  1  0
  3  4  2  0
  3  5  1  0
  5  6  1  0
  6  7  1  0
  7  8  1  0
  8  9  1  0
  9 10  2  0
 10 11  1  0
 11 12  1  0
 12 13  1  0
 13 14  2  0
 14 15  1  0
 15 16  2  0
 16 17  1  0
 17 18  1  0
 17 19  2  0
 19 20  1  0
 16 21  1  0
 15 22  1  0
 14 23  1  0
 12 24  1  0
 12 25  1  0
 11 26  1  0
 26 27  2  0
 26 28  1  0
 28 29  1  0
 29 30  2  0
 30 31  1  0
 31 32  2  0
 32 33  1  0
 33 34  2  0
 34 35  1  0
 35 36  2  0
 36 37  1  0
 37 38  2  0
 37 39  1  0
 36 40  1  0
 35 41  1  0
 34 42  1  0
 32 43  1  0
 30 44  1  0
 28 45  1  0
 28 46  1  0
 10 47  1  0
 47 48  2  0
 48 49  1  0
 49 50  2  0
 49 51  1  0
 48 52  1  0
 47 53  1  0
  8 54  1  0
  8 55  1  0
  7 56  1  0
  7 57  1  0
  6 58  1  0
  6 59  1  0
  5 60  1  1
  2 61  1  0
  2 62  1  0
  1 63  1  0
  1 64  1  0
  1 65  1  0
 50  5  1  0
 50  9  1  0
 19 13  1  0
 38 29  1  0
 38 33  1  0
M  CHG  1   5   1
M  END
>  <cnnaffinities>  (7) 
[6.69423]

>  <score>  (7) 
6.69423

>  <index>  (7) 
6

>  <Smiles>  (7) 
C(C(C(=O)[N@+]1(C(C(C(c2c(N(C(c3c(c(c(c(Cl)c3[H])[H])[H])[H])([H])[H])C(=O)C(c3c(nc(c4c(c(c(c(c34)[H])[H])[H])[H])[H])[H])([H])[H])c(c(c(c12)[H])[H])[H])([H])[H])([H])[H])([H])[H])[H])([H])[H])([H])([H])[H]

>  <h>  (7) 
<NA>

>  <Training>  (7) 
True

>  <Success>  (7) 
True

>  <enamine_searched>  (7) 
False

>  <enamine_id>  (7) 
nan

$$$$

     RDKit          3D

 37 39  0  0  0  0  0  0  0  0999 V2000
    8.3507    1.4167   20.5274 O   0  0  0  0  0  0  0  0  0  0  0  0
    7.7096    0.7815   21.3499 C   0  0  0  0  0  0  0  0  0  0  0  0
    6.9167   -0.4628   20.9416 C   0  0  0  0  0  0  0  0  0  0  0  0
    5.9505   -0.1040   19.8373 C   0  0  0  0  0  0  0  0  0  0  0  0
    6.3739   -0.1973   18.5352 C   0  0  0  0  0  0  0  0  0  0  0  0
    5.7099    0.2971   17.4616 N   0  0  0  0  0  0  0  0  0  0  0  0
    4.6152    0.9648   17.6936 C   0  0  0  0  0  0  0  0  0  0  0  0
    4.0162    1.0902   18.9705 C   0  0  0  0  0  0  0  0  0  0  0  0
    2.8075    1.8098   19.1467 C   0  0  0  0  0  0  0  0  0  0  0  0
    2.2482    1.9456   20.3868 C   0  0  0  0  0  0  0  0  0  0  0  0
    2.8797    1.3501   21.5046 C   0  0  0  0  0  0  0  0  0  0  0  0
    4.0791    0.6858   21.3603 C   0  0  0  0  0  0  0  0  0  0  0  0
    4.6862    0.5225   20.0828 C   0  0  0  0  0  0  0  0  0  0  0  0
    4.5686    0.2899   22.2474 H   0  0  0  0  0  0  0  0  0  0  0  0
    2.3973    1.4253   22.4784 H   0  0  0  0  0  0  0  0  0  0  0  0
    1.3181    2.4918   20.5149 H   0  0  0  0  0  0  0  0  0  0  0  0
    2.3613    2.2672   18.2713 H   0  0  0  0  0  0  0  0  0  0  0  0
    4.1223    1.4235   16.8339 H   0  0  0  0  0  0  0  0  0  0  0  0
    7.3345   -0.6596   18.3183 H   0  0  0  0  0  0  0  0  0  0  0  0
    6.4161   -0.8913   21.8114 H   0  0  0  0  0  0  0  0  0  0  0  0
    7.6477   -1.1988   20.5835 H   0  0  0  0  0  0  0  0  0  0  0  0
    7.6107    1.1686   22.6686 N   0  0  0  0  0  0  0  0  0  0  0  0
    7.9388    2.5526   22.9874 C   0  0  0  0  0  0  0  0  0  0  0  0
    6.9611    3.0494   24.0434 C   0  0  0  0  0  0  0  0  0  0  0  0
    7.0302    2.1732   25.2930 C   0  0  0  0  0  0  0  0  0  0  0  0
    6.7695    0.7109   24.9295 C   0  0  0  0  0  0  0  0  0  0  0  0
    7.7129    0.2659   23.8156 C   0  0  0  0  0  0  0  0  0  0  0  0
    8.7476    0.2816   24.1963 H   0  0  0  0  0  0  0  0  0  0  0  0
    7.5162   -0.7632   23.5082 H   0  0  0  0  0  0  0  0  0  0  0  0
    5.7309    0.5947   24.5910 H   0  0  0  0  0  0  0  0  0  0  0  0
    6.8891    0.0607   25.8043 H   0  0  0  0  0  0  0  0  0  0  0  0
    8.0259    2.2667   25.7521 H   0  0  0  0  0  0  0  0  0  0  0  0
    6.3011    2.5171   26.0346 H   0  0  0  0  0  0  0  0  0  0  0  0
    5.9505    2.9929   23.6182 H   0  0  0  0  0  0  0  0  0  0  0  0
    7.1482    4.1042   24.2731 H   0  0  0  0  0  0  0  0  0  0  0  0
    7.8719    3.1371   22.0683 H   0  0  0  0  0  0  0  0  0  0  0  0
    8.9791    2.6215   23.3439 H   0  0  0  0  0  0  0  0  0  0  0  0
  1  2  2  0
  2  3  1  0
  3  4  1  0
  4  5  2  0
  5  6  1  0
  6  7  2  0
  7  8  1  0
  8  9  2  0
  9 10  1  0
 10 11  2  0
 11 12  1  0
 12 13  2  0
 12 14  1  0
 11 15  1  0
 10 16  1  0
  9 17  1  0
  7 18  1  0
  5 19  1  0
  3 20  1  0
  3 21  1  0
  2 22  1  0
 22 23  1  0
 23 24  1  0
 24 25  1  0
 25 26  1  0
 26 27  1  0
 27 28  1  0
 27 29  1  0
 26 30  1  0
 26 31  1  0
 25 32  1  0
 25 33  1  0
 24 34  1  0
 24 35  1  0
 23 36  1  0
 23 37  1  0
 13  4  1  0
 27 22  1  0
 13  8  1  0
M  END
>  <cnnaffinities>  (8) 
[5.10742, 4.93281, 4.93296, 5.34644, 5.34643]

>  <score>  (8) 
5.10742

>  <index>  (8) 
7

>  <Smiles>  (8) 
O=C(C(c1c(nc(c2c(c(c(c(c12)[H])[H])[H])[H])[H])[H])([H])[H])N1C(C(C(C(C1([H])[H])([H])[H])([H])[H])([H])[H])([H])[H]

>  <h>  (8) 
<NA>

>  <Training>  (8) 
True

>  <Success>  (8) 
True

>  <enamine_searched>  (8) 
False

>  <enamine_id>  (8) 
nan

$$$$

     RDKit          3D

 66 71  0  0  0  0  0  0  0  0999 V2000
    7.8297   -2.9060   23.4141 C   0  0  0  0  0  0  0  0  0  0  0  0
    7.9152   -1.9271   22.2462 C   0  0  1  0  0  0  0  0  0  0  0  0
    6.6274   -1.8653   21.4019 C   0  0  0  0  0  0  0  0  0  0  0  0
    6.6516   -0.5228   20.8441 N   0  0  0  0  0  0  0  0  0  0  0  0
    5.8287   -0.0657   19.7813 C   0  0  0  0  0  0  0  0  0  0  0  0
    6.3174   -0.0371   18.5022 C   0  0  0  0  0  0  0  0  0  0  0  0
    5.6318    0.4314   17.4322 N   0  0  0  0  0  0  0  0  0  0  0  0
    4.4327    0.9149   17.6325 C   0  0  0  0  0  0  0  0  0  0  0  0
    3.7800    0.9167   18.9015 C   0  0  0  0  0  0  0  0  0  0  0  0
    2.4835    1.4654   19.0932 C   0  0  0  0  0  0  0  0  0  0  0  0
    1.9039    1.4644   20.3321 C   0  0  0  0  0  0  0  0  0  0  0  0
    2.5950    0.9214   21.4327 C   0  0  0  0  0  0  0  0  0  0  0  0
    3.8501    0.3870   21.2768 C   0  0  0  0  0  0  0  0  0  0  0  0
    4.4855    0.3891   20.0087 C   0  0  0  0  0  0  0  0  0  0  0  0
    4.3905   -0.0081   22.1311 H   0  0  0  0  0  0  0  0  0  0  0  0
    2.1475    0.9678   22.4197 H   0  0  0  0  0  0  0  0  0  0  0  0
    0.9137    1.8875   20.4768 H   0  0  0  0  0  0  0  0  0  0  0  0
    1.9761    1.9048   18.2428 H   0  0  0  0  0  0  0  0  0  0  0  0
    3.9182    1.3043   16.7540 H   0  0  0  0  0  0  0  0  0  0  0  0
    7.3174   -0.4080   18.2860 H   0  0  0  0  0  0  0  0  0  0  0  0
    7.6568    0.2702   21.3535 C   0  0  0  0  0  0  0  0  0  0  0  0
    8.0110    1.3318   20.8878 O   0  0  0  0  0  0  0  0  0  0  0  0
    8.2310   -0.4402   22.6009 C   0  0  1  0  0  0  0  0  0  0  0  0
    7.4501   -0.0073   23.8774 C   0  0  0  0  0  0  0  0  0  0  0  0
    7.7746    1.3516   24.3138 N   0  0  0  0  0  0  0  0  0  0  0  0
    6.7761    2.1246   25.0581 C   0  0  0  0  0  0  0  0  0  0  0  0
    6.4361    3.4920   24.4352 C   0  0  0  0  0  0  0  0  0  0  0  0
    5.4210    3.6797   23.7910 O   0  0  0  0  0  0  0  0  0  0  0  0
    7.3403    4.4769   24.7087 N   0  0  0  0  0  0  0  0  0  0  0  0
    7.3914    5.6518   23.8477 C   0  0  0  0  0  0  0  0  0  0  0  0
    8.1842    6.7467   24.4852 C   0  0  0  0  0  0  0  0  0  0  0  0
    9.4882    7.1450   24.2862 C   0  0  0  0  0  0  0  0  0  0  0  0
    9.6894    8.1801   25.2190 C   0  0  0  0  0  0  0  0  0  0  0  0
    8.5962    8.4120   25.9362 N   0  0  0  0  0  0  0  0  0  0  0  0
    7.6945    7.5242   25.4838 N   0  0  0  0  0  0  0  0  0  0  0  0
    6.3517    7.5140   26.0183 C   0  0  0  0  0  0  0  0  0  0  0  0
    6.3407    8.1314   26.9150 H   0  0  0  0  0  0  0  0  0  0  0  0
    5.6349    7.9186   25.2974 H   0  0  0  0  0  0  0  0  0  0  0  0
    6.0683    6.4875   26.2623 H   0  0  0  0  0  0  0  0  0  0  0  0
   10.5814    8.7690   25.3967 H   0  0  0  0  0  0  0  0  0  0  0  0
   10.1834    6.7024   23.5830 H   0  0  0  0  0  0  0  0  0  0  0  0
    6.3607    5.9607   23.6369 H   0  0  0  0  0  0  0  0  0  0  0  0
    7.8446    5.4026   22.8774 H   0  0  0  0  0  0  0  0  0  0  0  0
    8.2277    4.1667   25.1016 H   0  0  0  0  0  0  0  0  0  0  0  0
    7.1303    2.2873   26.0841 H   0  0  0  0  0  0  0  0  0  0  0  0
    5.8497    1.5492   25.0991 H   0  0  0  0  0  0  0  0  0  0  0  0
    9.0759    1.7313   24.4257 C   0  0  0  0  0  0  0  0  0  0  0  0
    9.4247    2.7109   25.0864 O   0  0  0  0  0  0  0  0  0  0  0  0
   10.0784    0.9195   23.6776 C   0  0  0  0  0  0  0  0  0  0  0  0
   11.4170    1.2473   23.8788 C   0  0  0  0  0  0  0  0  0  0  0  0
   12.4066    0.5614   23.2062 C   0  0  0  0  0  0  0  0  0  0  0  0
   12.0433   -0.4058   22.2683 C   0  0  0  0  0  0  0  0  0  0  0  0
   10.7089   -0.7108   22.0457 C   0  0  0  0  0  0  0  0  0  0  0  0
    9.6951   -0.0981   22.7937 C   0  0  0  0  0  0  0  0  0  0  0  0
   10.4706   -1.4246   21.2615 H   0  0  0  0  0  0  0  0  0  0  0  0
   12.8109   -0.9438   21.7203 H   0  0  0  0  0  0  0  0  0  0  0  0
   13.4531    0.7875   23.3906 H   0  0  0  0  0  0  0  0  0  0  0  0
   11.6316    2.0621   24.5565 H   0  0  0  0  0  0  0  0  0  0  0  0
    6.3697   -0.0500   23.6961 H   0  0  0  0  0  0  0  0  0  0  0  0
    7.6915   -0.7168   24.6804 H   0  0  0  0  0  0  0  0  0  0  0  0
    6.6191   -2.6117   20.5999 H   0  0  0  0  0  0  0  0  0  0  0  0
    5.7399   -2.0339   22.0294 H   0  0  0  0  0  0  0  0  0  0  0  0
    8.7137   -2.2687   21.5817 H   0  0  0  0  0  0  0  0  0  0  0  0
    8.7260   -2.8696   24.0419 H   0  0  0  0  0  0  0  0  0  0  0  0
    6.9687   -2.6860   24.0548 H   0  0  0  0  0  0  0  0  0  0  0  0
    7.7128   -3.9352   23.0590 H   0  0  0  0  0  0  0  0  0  0  0  0
  1  2  1  0
  2  3  1  0
  3  4  1  0
  4  5  1  0
  5  6  2  0
  6  7  1  0
  7  8  2  0
  8  9  1  0
  9 10  2  0
 10 11  1  0
 11 12  2  0
 12 13  1  0
 13 14  2  0
 13 15  1  0
 12 16  1  0
 11 17  1  0
 10 18  1  0
  8 19  1  0
  6 20  1  0
  4 21  1  0
 21 22  2  0
 21 23  1  0
 23 24  1  1
 24 25  1  0
 25 26  1  0
 26 27  1  0
 27 28  2  0
 27 29  1  0
 29 30  1  0
 30 31  1  0
 31 32  2  0
 32 33  1  0
 33 34  2  0
 34 35  1  0
 35 36  1  0
 36 37  1  0
 36 38  1  0
 36 39  1  0
 33 40  1  0
 32 41  1  0
 30 42  1  0
 30 43  1  0
 29 44  1  0
 26 45  1  0
 26 46  1  0
 25 47  1  0
 47 48  2  0
 47 49  1  0
 49 50  2  0
 50 51  1  0
 51 52  2  0
 52 53  1  0
 53 54  2  0
 53 55  1  0
 52 56  1  0
 51 57  1  0
 50 58  1  0
 24 59  1  0
 24 60  1  0
  3 61  1  0
  3 62  1  0
  2 63  1  6
  1 64  1  0
  1 65  1  0
  1 66  1  0
 23  2  1  0
 35 31  1  0
 54 49  1  0
 14  5  1  0
 54 23  1  0
 14  9  1  0
M  END
>  <cnnaffinities>  (9) 
[6.72636, 6.76256]

>  <score>  (9) 
6.72636

>  <index>  (9) 
8

>  <Smiles>  (9) 
C([C@]1(C(N(c2c(nc(c3c(c(c(c(c23)[H])[H])[H])[H])[H])[H])C(=O)[C@]21C(N(C(C(=O)N(C(c1c(c(nn1C([H])([H])[H])[H])[H])([H])[H])[H])([H])[H])C(=O)c1c(c(c(c(c21)[H])[H])[H])[H])([H])[H])([H])[H])[H])([H])([H])[H]

>  <h>  (9) 
<NA>

>  <Training>  (9) 
True

>  <Success>  (9) 
True

>  <enamine_searched>  (9) 
False

>  <enamine_id>  (9) 
nan

$$$$

     RDKit          3D

 58 63  0  0  0  0  0  0  0  0999 V2000
    6.6962    2.4242   29.9975 C   0  0  0  0  0  0  0  0  0  0  0  0
    6.5628    1.5278   28.8089 C   0  0  0  0  0  0  0  0  0  0  0  0
    7.3385    0.3808   28.4807 C   0  0  0  0  0  0  0  0  0  0  0  0
    6.8217   -0.0336   27.3014 C   0  0  0  0  0  0  0  0  0  0  0  0
    7.1978   -1.1354   26.3590 C   0  0  0  0  0  0  0  0  0  0  0  0
    8.0575   -0.7040   25.2658 N   0  0  0  0  0  0  0  0  0  0  0  0
    7.4578   -0.1299   24.0695 C   0  0  0  0  0  0  0  0  0  0  0  0
    8.2540   -0.4840   22.7869 C   0  0  2  0  0  0  0  0  0  0  0  0
    7.6319    0.3761   21.6695 C   0  0  0  0  0  0  0  0  0  0  0  0
    7.7439    1.5771   21.5244 O   0  0  0  0  0  0  0  0  0  0  0  0
    6.8496   -0.4381   20.8797 N   0  0  0  0  0  0  0  0  0  0  0  0
    6.0298    0.0409   19.8313 C   0  0  0  0  0  0  0  0  0  0  0  0
    6.4091   -0.1819   18.5347 C   0  0  0  0  0  0  0  0  0  0  0  0
    5.7346    0.2706   17.4549 N   0  0  0  0  0  0  0  0  0  0  0  0
    4.6562    0.9796   17.6713 C   0  0  0  0  0  0  0  0  0  0  0  0
    4.1022    1.2053   18.9600 C   0  0  0  0  0  0  0  0  0  0  0  0
    2.8796    1.9036   19.1231 C   0  0  0  0  0  0  0  0  0  0  0  0
    2.3225    2.0490   20.3660 C   0  0  0  0  0  0  0  0  0  0  0  0
    2.9577    1.4865   21.5030 C   0  0  0  0  0  0  0  0  0  0  0  0
    4.1564    0.8240   21.3681 C   0  0  0  0  0  0  0  0  0  0  0  0
    4.7733    0.6825   20.0862 C   0  0  0  0  0  0  0  0  0  0  0  0
    4.6658    0.4258   22.2419 H   0  0  0  0  0  0  0  0  0  0  0  0
    2.5078    1.6234   22.4837 H   0  0  0  0  0  0  0  0  0  0  0  0
    1.4019    2.6134   20.4794 H   0  0  0  0  0  0  0  0  0  0  0  0
    2.4132    2.3104   18.2300 H   0  0  0  0  0  0  0  0  0  0  0  0
    4.1489    1.3781   16.7951 H   0  0  0  0  0  0  0  0  0  0  0  0
    7.3421   -0.7102   18.3332 H   0  0  0  0  0  0  0  0  0  0  0  0
    6.8476   -1.8293   21.2581 C   0  0  0  0  0  0  0  0  0  0  0  0
    8.0268   -1.9404   22.2339 C   0  0  2  0  0  0  0  0  0  0  0  0
    7.7937   -3.0428   23.2567 C   0  0  0  0  0  0  0  0  0  0  0  0
    8.6115   -3.0982   23.9781 H   0  0  0  0  0  0  0  0  0  0  0  0
    7.6978   -4.0070   22.7460 H   0  0  0  0  0  0  0  0  0  0  0  0
    6.8630   -2.8555   23.8047 H   0  0  0  0  0  0  0  0  0  0  0  0
    8.9271   -2.1813   21.6503 H   0  0  0  0  0  0  0  0  0  0  0  0
    5.8981   -2.1322   21.7319 H   0  0  0  0  0  0  0  0  0  0  0  0
    6.9610   -2.4517   20.3676 H   0  0  0  0  0  0  0  0  0  0  0  0
    9.7193   -0.1674   23.0627 C   0  0  0  0  0  0  0  0  0  0  0  0
   10.6160    0.1104   22.0238 C   0  0  0  0  0  0  0  0  0  0  0  0
   11.9504    0.3463   22.3099 C   0  0  0  0  0  0  0  0  0  0  0  0
   12.8031    0.6572   21.3234 F   0  0  0  0  0  0  0  0  0  0  0  0
   12.4746    0.2756   23.5926 C   0  0  0  0  0  0  0  0  0  0  0  0
   11.5962   -0.0088   24.6126 C   0  0  0  0  0  0  0  0  0  0  0  0
   10.2385   -0.1990   24.3628 C   0  0  0  0  0  0  0  0  0  0  0  0
    9.3789   -0.4691   25.5455 C   0  0  0  0  0  0  0  0  0  0  0  0
    9.8506   -0.4907   26.6740 O   0  0  0  0  0  0  0  0  0  0  0  0
   11.9435   -0.0933   25.6332 H   0  0  0  0  0  0  0  0  0  0  0  0
   13.5320    0.4494   23.7674 H   0  0  0  0  0  0  0  0  0  0  0  0
   10.2758    0.1487   20.9972 H   0  0  0  0  0  0  0  0  0  0  0  0
    6.4202   -0.4716   23.9839 H   0  0  0  0  0  0  0  0  0  0  0  0
    7.4141    0.9683   24.1394 H   0  0  0  0  0  0  0  0  0  0  0  0
    6.2918   -1.5825   25.9422 H   0  0  0  0  0  0  0  0  0  0  0  0
    7.7253   -1.9073   26.9184 H   0  0  0  0  0  0  0  0  0  0  0  0
    5.8110    0.7677   26.9426 O   0  0  0  0  0  0  0  0  0  0  0  0
    5.6506    1.7578   27.8943 N   0  0  0  0  0  0  0  0  0  0  0  0
    8.1818   -0.0412   29.0081 H   0  0  0  0  0  0  0  0  0  0  0  0
    6.2286    3.3891   29.7865 H   0  0  0  0  0  0  0  0  0  0  0  0
    6.2204    1.9802   30.8789 H   0  0  0  0  0  0  0  0  0  0  0  0
    7.7490    2.5830   30.2437 H   0  0  0  0  0  0  0  0  0  0  0  0
  1  2  1  0
  2  3  1  0
  3  4  2  0
  4  5  1  0
  5  6  1  0
  6  7  1  0
  8  7  1  1
  8  9  1  0
  9 10  2  0
  9 11  1  0
 11 12  1  0
 12 13  2  0
 13 14  1  0
 14 15  2  0
 15 16  1  0
 16 17  2  0
 17 18  1  0
 18 19  2  0
 19 20  1  0
 20 21  2  0
 20 22  1  0
 19 23  1  0
 18 24  1  0
 17 25  1  0
 15 26  1  0
 13 27  1  0
 11 28  1  0
 28 29  1  0
 29 30  1  0
 30 31  1  0
 30 32  1  0
 30 33  1  0
 29 34  1  6
 28 35  1  0
 28 36  1  0
  8 37  1  0
 37 38  2  0
 38 39  1  0
 39 40  1  0
 39 41  2  0
 41 42  1  0
 42 43  2  0
 43 44  1  0
 44 45  2  0
 42 46  1  0
 41 47  1  0
 38 48  1  0
  7 49  1  0
  7 50  1  0
  5 51  1  0
  5 52  1  0
  4 53  1  0
 53 54  1  0
  3 55  1  0
  1 56  1  0
  1 57  1  0
  1 58  1  0
 54  2  2  0
 44  6  1  0
 29  8  1  0
 43 37  1  0
 21 12  1  0
 21 16  1  0
M  END
>  <cnnaffinities>  (10) 
[6.59815]

>  <score>  (10) 
6.59815

>  <index>  (10) 
9

>  <Smiles>  (10) 
C(c1c(c(C(N2C([C@@]3(C(=O)N(c4c(nc(c5c(c(c(c(c45)[H])[H])[H])[H])[H])[H])C([C@@]3(C([H])([H])[H])[H])([H])[H])c3c(c(F)c(c(c3C2=O)[H])[H])[H])([H])[H])([H])[H])on1)[H])([H])([H])[H]

>  <h>  (10) 
<NA>

>  <Training>  (10) 
True

>  <Success>  (10) 
True

>  <enamine_searched>  (10) 
False

>  <enamine_id>  (10) 
nan

$$$$

     RDKit          3D

 72 77  0  0  0  0  0  0  0  0999 V2000
    7.4796    8.3760   24.7148 C   0  0  0  0  0  0  0  0  0  0  0  0
    6.7566    7.3197   23.9042 C   0  0  1  0  0  0  0  0  0  0  0  0
    7.4878    5.9838   23.9087 C   0  0  0  0  0  0  0  0  0  0  0  0
    6.6830    4.9613   23.1499 N   0  0  0  0  0  4  0  0  0  0  0  0
    7.3965    3.6545   22.9836 C   0  0  0  0  0  0  0  0  0  0  0  0
    7.5843    2.8841   24.2915 C   0  0  0  0  0  0  0  0  0  0  0  0
    8.3985    1.7082   24.0589 N   0  0  0  0  0  0  0  0  0  0  0  0
    7.7854    0.4098   23.8754 C   0  0  0  0  0  0  0  0  0  0  0  0
    8.3622   -0.3435   22.6478 C   0  0  2  0  0  0  0  0  0  0  0  0
    7.8850    0.2987   21.3200 C   0  0  0  0  0  0  0  0  0  0  0  0
    8.3456    1.2756   20.7571 O   0  0  0  0  0  0  0  0  0  0  0  0
    6.8145   -0.4347   20.8662 N   0  0  0  0  0  0  0  0  0  0  0  0
    5.9991    0.0148   19.8100 C   0  0  0  0  0  0  0  0  0  0  0  0
    6.4221   -0.1397   18.5171 C   0  0  0  0  0  0  0  0  0  0  0  0
    5.7366    0.3099   17.4424 N   0  0  0  0  0  0  0  0  0  0  0  0
    4.6268    0.9624   17.6687 C   0  0  0  0  0  0  0  0  0  0  0  0
    4.0582    1.1545   18.9578 C   0  0  0  0  0  0  0  0  0  0  0  0
    2.8433    1.8618   19.1379 C   0  0  0  0  0  0  0  0  0  0  0  0
    2.2933    1.9925   20.3837 C   0  0  0  0  0  0  0  0  0  0  0  0
    2.9344    1.4222   21.5092 C   0  0  0  0  0  0  0  0  0  0  0  0
    4.1352    0.7641   21.3663 C   0  0  0  0  0  0  0  0  0  0  0  0
    4.7378    0.6301   20.0758 C   0  0  0  0  0  0  0  0  0  0  0  0
    4.6286    0.3512   22.2405 H   0  0  0  0  0  0  0  0  0  0  0  0
    2.4866    1.5360   22.4935 H   0  0  0  0  0  0  0  0  0  0  0  0
    1.3640    2.5391   20.5131 H   0  0  0  0  0  0  0  0  0  0  0  0
    2.3662    2.2721   18.2531 H   0  0  0  0  0  0  0  0  0  0  0  0
    4.1159    1.3729   16.7997 H   0  0  0  0  0  0  0  0  0  0  0  0
    7.3793   -0.6173   18.3188 H   0  0  0  0  0  0  0  0  0  0  0  0
    6.5213   -1.6244   21.6278 C   0  0  0  0  0  0  0  0  0  0  0  0
    7.7509   -1.7741   22.5273 C   0  0  2  0  0  0  0  0  0  0  0  0
    7.4134   -2.5058   23.8172 C   0  0  0  0  0  0  0  0  0  0  0  0
    6.6151   -1.9843   24.3601 H   0  0  0  0  0  0  0  0  0  0  0  0
    7.0520   -3.5111   23.5766 H   0  0  0  0  0  0  0  0  0  0  0  0
    8.2816   -2.5952   24.4779 H   0  0  0  0  0  0  0  0  0  0  0  0
    8.4642   -2.3827   21.9682 H   0  0  0  0  0  0  0  0  0  0  0  0
    6.3908   -2.4841   20.9630 H   0  0  0  0  0  0  0  0  0  0  0  0
    5.6009   -1.5377   22.2241 H   0  0  0  0  0  0  0  0  0  0  0  0
    9.8682   -0.2868   22.7544 C   0  0  0  0  0  0  0  0  0  0  0  0
   10.6469   -1.2276   22.0823 C   0  0  0  0  0  0  0  0  0  0  0  0
   12.0209   -1.1737   22.1627 C   0  0  0  0  0  0  0  0  0  0  0  0
   12.9164   -2.4120   21.3546 Cl  0  0  0  0  0  0  0  0  0  0  0  0
   12.6870   -0.1737   22.8665 C   0  0  0  0  0  0  0  0  0  0  0  0
   11.9235    0.7897   23.4954 C   0  0  0  0  0  0  0  0  0  0  0  0
   10.5303    0.7429   23.4367 C   0  0  0  0  0  0  0  0  0  0  0  0
    9.7541    1.8588   24.0698 C   0  0  0  0  0  0  0  0  0  0  0  0
   10.3059    2.8441   24.5382 O   0  0  0  0  0  0  0  0  0  0  0  0
   12.3958    1.6014   24.0352 H   0  0  0  0  0  0  0  0  0  0  0  0
   13.7715   -0.1483   22.8909 H   0  0  0  0  0  0  0  0  0  0  0  0
   10.2017   -2.0046   21.4727 H   0  0  0  0  0  0  0  0  0  0  0  0
    7.9653   -0.2055   24.7705 H   0  0  0  0  0  0  0  0  0  0  0  0
    6.7049    0.5456   23.7616 H   0  0  0  0  0  0  0  0  0  0  0  0
    6.6156    2.5781   24.6986 H   0  0  0  0  0  0  0  0  0  0  0  0
    8.0853    3.4987   25.0448 H   0  0  0  0  0  0  0  0  0  0  0  0
    6.8401    3.0421   22.2654 H   0  0  0  0  0  0  0  0  0  0  0  0
    8.3780    3.8635   22.5457 H   0  0  0  0  0  0  0  0  0  0  0  0
    5.2994    4.8518   23.7468 C   0  0  0  0  0  0  0  0  0  0  0  0
    4.6308    6.2254   23.8203 C   0  0  2  0  0  0  0  0  0  0  0  0
    4.1666    6.7188   22.4554 C   0  0  0  0  0  0  0  0  0  0  0  0
    3.4369    6.0164   22.0396 H   0  0  0  0  0  0  0  0  0  0  0  0
    4.9952    6.7937   21.7425 H   0  0  0  0  0  0  0  0  0  0  0  0
    3.6997    7.7032   22.5496 H   0  0  0  0  0  0  0  0  0  0  0  0
    5.4624    7.1743   24.4813 O   0  0  0  0  0  0  0  0  0  0  0  0
    3.7557    6.1296   24.4737 H   0  0  0  0  0  0  0  0  0  0  0  0
    5.3839    4.4387   24.7543 H   0  0  0  0  0  0  0  0  0  0  0  0
    4.7016    4.1691   23.1354 H   0  0  0  0  0  0  0  0  0  0  0  0
    6.5632    5.3216   22.1815 H   0  0  0  0  0  0  0  0  0  0  0  0
    8.4755    6.0758   23.4452 H   0  0  0  0  0  0  0  0  0  0  0  0
    7.6182    5.6492   24.9424 H   0  0  0  0  0  0  0  0  0  0  0  0
    6.6713    7.6505   22.8569 H   0  0  0  0  0  0  0  0  0  0  0  0
    7.5550    8.0483   25.7570 H   0  0  0  0  0  0  0  0  0  0  0  0
    6.9198    9.3139   24.6823 H   0  0  0  0  0  0  0  0  0  0  0  0
    8.4886    8.5556   24.3281 H   0  0  0  0  0  0  0  0  0  0  0  0
  1  2  1  0
  2  3  1  0
  3  4  1  0
  4  5  1  0
  5  6  1  0
  6  7  1  0
  7  8  1  0
  9  8  1  1
  9 10  1  0
 10 11  2  0
 10 12  1  0
 12 13  1  0
 13 14  2  0
 14 15  1  0
 15 16  2  0
 16 17  1  0
 17 18  2  0
 18 19  1  0
 19 20  2  0
 20 21  1  0
 21 22  2  0
 21 23  1  0
 20 24  1  0
 19 25  1  0
 18 26  1  0
 16 27  1  0
 14 28  1  0
 12 29  1  0
 29 30  1  0
 30 31  1  0
 31 32  1  0
 31 33  1  0
 31 34  1  0
 30 35  1  6
 29 36  1  0
 29 37  1  0
  9 38  1  0
 38 39  2  0
 39 40  1  0
 40 41  1  0
 40 42  2  0
 42 43  1  0
 43 44  2  0
 44 45  1  0
 45 46  2  0
 43 47  1  0
 42 48  1  0
 39 49  1  0
  8 50  1  0
  8 51  1  0
  6 52  1  0
  6 53  1  0
  5 54  1  0
  5 55  1  0
  4 56  1  0
 56 57  1  0
 57 58  1  0
 58 59  1  0
 58 60  1  0
 58 61  1  0
 57 62  1  0
 57 63  1  1
 56 64  1  0
 56 65  1  0
  4 66  1  0
  3 67  1  0
  3 68  1  0
  2 69  1  6
  1 70  1  0
  1 71  1  0
  1 72  1  0
 62  2  1  0
 45  7  1  0
 30  9  1  0
 44 38  1  0
 22 13  1  0
 22 17  1  0
M  CHG  1   4   1
M  END
>  <cnnaffinities>  (11) 
[6.67926, 6.60167, 6.59013]

>  <score>  (11) 
6.67926

>  <index>  (11) 
10

>  <Smiles>  (11) 
C([C@]1(C([N+](C(C(N2C([C@@]3(C(=O)N(c4c(nc(c5c(c(c(c(c45)[H])[H])[H])[H])[H])[H])C([C@@]3(C([H])([H])[H])[H])([H])[H])c3c(c(Cl)c(c(c3C2=O)[H])[H])[H])([H])[H])([H])[H])([H])[H])(C([C@](C([H])([H])[H])(O1)[H])([H])[H])[H])([H])[H])[H])([H])([H])[H]

>  <h>  (11) 
<NA>

>  <Training>  (11) 
True

>  <Success>  (11) 
True

>  <enamine_searched>  (11) 
False

>  <enamine_id>  (11) 
nan

$$$$

     RDKit          3D

 54 57  0  0  0  0  0  0  0  0999 V2000
    9.3919    1.9483   24.1990 C   0  0  0  0  0  0  0  0  0  0  0  0
    8.5094    0.8509   24.1222 O   0  0  0  0  0  0  0  0  0  0  0  0
    9.0418   -0.3422   23.7204 C   0  0  0  0  0  0  0  0  0  0  0  0
   10.4054   -0.5261   23.4714 C   0  0  0  0  0  0  0  0  0  0  0  0
   10.8867   -1.7778   23.0975 C   0  0  0  0  0  0  0  0  0  0  0  0
   10.0190   -2.8497   22.9634 C   0  0  0  0  0  0  0  0  0  0  0  0
    8.6581   -2.6564   23.1947 C   0  0  0  0  0  0  0  0  0  0  0  0
    8.1458   -1.4131   23.5607 C   0  0  0  0  0  0  0  0  0  0  0  0
    6.6622   -1.2204   23.8606 C   0  0  2  0  0  0  0  0  0  0  0  0
    6.3730   -1.8418   25.2371 C   0  0  0  0  0  0  0  0  0  0  0  0
    4.8836   -1.9012   25.5684 C   0  0  2  0  0  0  0  0  0  0  0  0
    4.6238   -2.5419   26.9253 C   0  0  0  0  0  0  0  0  0  0  0  0
    5.1311   -2.0051   27.7331 H   0  0  0  0  0  0  0  0  0  0  0  0
    3.5486   -2.5587   27.1349 H   0  0  0  0  0  0  0  0  0  0  0  0
    4.9814   -3.5794   26.9220 H   0  0  0  0  0  0  0  0  0  0  0  0
    4.1838   -2.7070   24.4812 C   0  0  0  0  0  0  0  0  0  0  0  0
    4.3804   -2.0622   23.1344 C   0  0  0  0  0  0  0  0  0  0  0  0
    5.7943   -1.8240   22.8395 N   0  0  0  0  0  0  0  0  0  0  0  0
    6.0485   -1.7582   21.4745 C   0  0  0  0  0  0  0  0  0  0  0  0
    5.5750   -2.5871   20.7181 O   0  0  0  0  0  0  0  0  0  0  0  0
    6.8229   -0.5623   20.9235 C   0  0  0  0  0  0  0  0  0  0  0  0
    6.0251    0.0108   19.7937 C   0  0  0  0  0  0  0  0  0  0  0  0
    6.4148   -0.1607   18.4964 C   0  0  0  0  0  0  0  0  0  0  0  0
    5.7469    0.3140   17.4161 N   0  0  0  0  0  0  0  0  0  0  0  0
    4.6421    0.9752   17.6501 C   0  0  0  0  0  0  0  0  0  0  0  0
    4.0887    1.1846   18.9416 C   0  0  0  0  0  0  0  0  0  0  0  0
    2.8674    1.8780   19.1303 C   0  0  0  0  0  0  0  0  0  0  0  0
    2.3128    1.9981   20.3766 C   0  0  0  0  0  0  0  0  0  0  0  0
    2.9706    1.4332   21.4941 C   0  0  0  0  0  0  0  0  0  0  0  0
    4.1879    0.8042   21.3376 C   0  0  0  0  0  0  0  0  0  0  0  0
    4.7840    0.6624   20.0516 C   0  0  0  0  0  0  0  0  0  0  0  0
    4.7076    0.4163   22.2052 H   0  0  0  0  0  0  0  0  0  0  0  0
    2.5278    1.5543   22.4792 H   0  0  0  0  0  0  0  0  0  0  0  0
    1.3890    2.5538   20.5086 H   0  0  0  0  0  0  0  0  0  0  0  0
    2.3682    2.2758   18.2519 H   0  0  0  0  0  0  0  0  0  0  0  0
    4.1256    1.3930   16.7852 H   0  0  0  0  0  0  0  0  0  0  0  0
    7.3556   -0.6690   18.2799 H   0  0  0  0  0  0  0  0  0  0  0  0
    7.8013   -0.9088   20.5736 H   0  0  0  0  0  0  0  0  0  0  0  0
    6.9761    0.2091   21.6834 H   0  0  0  0  0  0  0  0  0  0  0  0
    3.8068   -1.1239   23.0990 H   0  0  0  0  0  0  0  0  0  0  0  0
    4.0118   -2.6959   22.3276 H   0  0  0  0  0  0  0  0  0  0  0  0
    4.5843   -3.7295   24.4591 H   0  0  0  0  0  0  0  0  0  0  0  0
    3.1093   -2.7735   24.6858 H   0  0  0  0  0  0  0  0  0  0  0  0
    4.4735   -0.8744   25.5738 H   0  0  0  0  0  0  0  0  0  0  0  0
    6.9228   -1.2832   26.0060 H   0  0  0  0  0  0  0  0  0  0  0  0
    6.7843   -2.8630   25.2393 H   0  0  0  0  0  0  0  0  0  0  0  0
    6.4614   -0.1424   23.9180 H   0  0  0  0  0  0  0  0  0  0  0  0
    7.9882   -3.5075   23.0814 H   0  0  0  0  0  0  0  0  0  0  0  0
   10.3970   -3.8287   22.6789 H   0  0  0  0  0  0  0  0  0  0  0  0
   11.9498   -1.9091   22.9081 H   0  0  0  0  0  0  0  0  0  0  0  0
   11.1053    0.2958   23.5574 H   0  0  0  0  0  0  0  0  0  0  0  0
   10.2128    1.7422   24.8963 H   0  0  0  0  0  0  0  0  0  0  0  0
    8.8180    2.8041   24.5602 H   0  0  0  0  0  0  0  0  0  0  0  0
    9.8098    2.1786   23.2100 H   0  0  0  0  0  0  0  0  0  0  0  0
  1  2  1  0
  2  3  1  0
  3  4  2  0
  4  5  1  0
  5  6  2  0
  6  7  1  0
  7  8  2  0
  8  9  1  0
  9 10  1  0
 10 11  1  0
 11 12  1  0
 12 13  1  0
 12 14  1  0
 12 15  1  0
 11 16  1  0
 16 17  1  0
 17 18  1  0
 18 19  1  0
 19 20  2  0
 19 21  1  0
 21 22  1  0
 22 23  2  0
 23 24  1  0
 24 25  2  0
 25 26  1  0
 26 27  2  0
 27 28  1  0
 28 29  2  0
 29 30  1  0
 30 31  2  0
 30 32  1  0
 29 33  1  0
 28 34  1  0
 27 35  1  0
 25 36  1  0
 23 37  1  0
 21 38  1  0
 21 39  1  0
 17 40  1  0
 17 41  1  0
 16 42  1  0
 16 43  1  0
 11 44  1  1
 10 45  1  0
 10 46  1  0
  9 47  1  1
  7 48  1  0
  6 49  1  0
  5 50  1  0
  4 51  1  0
  1 52  1  0
  1 53  1  0
  1 54  1  0
  8  3  1  0
 18  9  1  0
 31 22  1  0
 31 26  1  0
M  END
>  <cnnaffinities>  (12) 
[6.14793, 5.96417, 6.07554, 6.10823]

>  <score>  (12) 
6.14793

>  <index>  (12) 
11

>  <Smiles>  (12) 
C(Oc1c(c(c(c(c1[C@@]1(C([C@](C([H])([H])[H])(C(C(N1C(=O)C(c1c(nc(c2c(c(c(c(c12)[H])[H])[H])[H])[H])[H])([H])[H])([H])[H])([H])[H])[H])([H])[H])[H])[H])[H])[H])[H])([H])([H])[H]

>  <h>  (12) 
<NA>

>  <Training>  (12) 
True

>  <Success>  (12) 
True

>  <enamine_searched>  (12) 
False

>  <enamine_id>  (12) 
nan

$$$$

     RDKit          3D

 47 50  0  0  0  0  0  0  0  0999 V2000
    8.3417    1.3302   20.6837 O   0  0  0  0  0  0  0  0  0  0  0  0
    7.7686    0.5715   21.4544 C   0  0  0  0  0  0  0  0  0  0  0  0
    6.8607   -0.5485   20.9375 C   0  0  0  0  0  0  0  0  0  0  0  0
    5.9482   -0.0608   19.8472 C   0  0  0  0  0  0  0  0  0  0  0  0
    6.3764   -0.1487   18.5473 C   0  0  0  0  0  0  0  0  0  0  0  0
    5.7247    0.3421   17.4653 N   0  0  0  0  0  0  0  0  0  0  0  0
    4.5968    0.9654   17.6920 C   0  0  0  0  0  0  0  0  0  0  0  0
    4.0182    1.1293   18.9787 C   0  0  0  0  0  0  0  0  0  0  0  0
    2.7831    1.8056   19.1477 C   0  0  0  0  0  0  0  0  0  0  0  0
    2.2029    1.8961   20.3811 C   0  0  0  0  0  0  0  0  0  0  0  0
    2.8377    1.3062   21.4948 C   0  0  0  0  0  0  0  0  0  0  0  0
    4.0452    0.6660   21.3636 C   0  0  0  0  0  0  0  0  0  0  0  0
    4.6883    0.5732   20.0976 C   0  0  0  0  0  0  0  0  0  0  0  0
    4.5074    0.2165   22.2374 H   0  0  0  0  0  0  0  0  0  0  0  0
    2.3545    1.3678   22.4648 H   0  0  0  0  0  0  0  0  0  0  0  0
    1.2611    2.4232   20.5078 H   0  0  0  0  0  0  0  0  0  0  0  0
    2.2961    2.2155   18.2676 H   0  0  0  0  0  0  0  0  0  0  0  0
    4.0915    1.3973   16.8275 H   0  0  0  0  0  0  0  0  0  0  0  0
    7.3462   -0.5959   18.3320 H   0  0  0  0  0  0  0  0  0  0  0  0
    6.3098   -1.0293   21.7483 H   0  0  0  0  0  0  0  0  0  0  0  0
    7.5347   -1.3143   20.5252 H   0  0  0  0  0  0  0  0  0  0  0  0
    7.9388    0.6496   22.8005 N   0  0  0  0  0  0  0  0  0  0  0  0
    8.8500    1.6507   23.3320 C   0  0  0  0  0  0  0  0  0  0  0  0
    9.0280    1.2597   24.8020 C   0  0  2  0  0  0  0  0  0  0  0  0
   10.3030    0.4379   24.9874 C   0  0  0  0  0  0  0  0  0  0  0  0
   11.4064    1.2407   24.7326 F   0  0  0  0  0  0  0  0  0  0  0  0
   10.4062    0.0490   26.0053 H   0  0  0  0  0  0  0  0  0  0  0  0
   10.3214   -0.4112   24.2889 H   0  0  0  0  0  0  0  0  0  0  0  0
    7.7602    0.4588   25.1697 C   0  0  0  0  0  0  0  0  0  0  0  0
    6.6366    1.3772   25.6998 C   0  0  0  0  0  0  0  0  0  0  0  0
    5.6468    0.4743   26.4617 C   0  0  0  0  0  0  0  0  0  0  0  0
    6.4364   -0.8093   26.8036 C   0  0  0  0  0  0  0  0  0  0  0  0
    7.8748   -0.5264   26.3471 C   0  0  0  0  0  0  0  0  0  0  0  0
    8.4291   -1.4403   26.1003 H   0  0  0  0  0  0  0  0  0  0  0  0
    8.4070   -0.0217   27.1666 H   0  0  0  0  0  0  0  0  0  0  0  0
    6.0210   -1.6684   26.2635 H   0  0  0  0  0  0  0  0  0  0  0  0
    6.3991   -1.0497   27.8717 H   0  0  0  0  0  0  0  0  0  0  0  0
    4.7685    0.2376   25.8530 H   0  0  0  0  0  0  0  0  0  0  0  0
    5.2915    0.9853   27.3625 H   0  0  0  0  0  0  0  0  0  0  0  0
    6.1689    1.9715   24.9079 H   0  0  0  0  0  0  0  0  0  0  0  0
    7.0931    2.0723   26.4154 H   0  0  0  0  0  0  0  0  0  0  0  0
    7.3757   -0.2167   23.8328 C   0  0  0  0  0  0  0  0  0  0  0  0
    6.2872   -0.2950   23.7264 H   0  0  0  0  0  0  0  0  0  0  0  0
    7.7956   -1.2312   23.7581 H   0  0  0  0  0  0  0  0  0  0  0  0
    9.0960    2.1693   25.4030 H   0  0  0  0  0  0  0  0  0  0  0  0
    8.4245    2.6529   23.2044 H   0  0  0  0  0  0  0  0  0  0  0  0
    9.8051    1.6285   22.7983 H   0  0  0  0  0  0  0  0  0  0  0  0
  1  2  2  0
  2  3  1  0
  3  4  1  0
  4  5  2  0
  5  6  1  0
  6  7  2  0
  7  8  1  0
  8  9  2  0
  9 10  1  0
 10 11  2  0
 11 12  1  0
 12 13  2  0
 12 14  1  0
 11 15  1  0
 10 16  1  0
  9 17  1  0
  7 18  1  0
  5 19  1  0
  3 20  1  0
  3 21  1  0
  2 22  1  0
 22 23  1  0
 23 24  1  0
 24 25  1  0
 25 26  1  0
 25 27  1  0
 25 28  1  0
 24 29  1  0
 29 30  1  0
 30 31  1  0
 31 32  1  0
 32 33  1  0
 33 34  1  0
 33 35  1  0
 32 36  1  0
 32 37  1  0
 31 38  1  0
 31 39  1  0
 30 40  1  0
 30 41  1  0
 29 42  1  0
 42 43  1  0
 42 44  1  0
 24 45  1  1
 23 46  1  0
 23 47  1  0
 13  4  1  0
 42 22  1  0
 13  8  1  0
 33 29  1  0
M  END
>  <cnnaffinities>  (13) 
[5.68974, 5.56188, 5.71145, 5.74908]

>  <score>  (13) 
5.68974

>  <index>  (13) 
12

>  <Smiles>  (13) 
O=C(C(c1c(nc(c2c(c(c(c(c12)[H])[H])[H])[H])[H])[H])([H])[H])N1C([C@](C(F)([H])[H])(C2(C(C(C(C2([H])[H])([H])[H])([H])[H])([H])[H])C1([H])[H])[H])([H])[H]

>  <h>  (13) 
<NA>

>  <Training>  (13) 
True

>  <Success>  (13) 
True

>  <enamine_searched>  (13) 
False

>  <enamine_id>  (13) 
nan

$$$$

     RDKit          3D

 67 72  0  0  0  0  0  0  0  0999 V2000
    8.3407   -7.6475   24.3298 C   0  0  0  0  0  0  0  0  0  0  0  0
    7.6846   -6.4947   23.7500 N   0  0  0  0  0  0  0  0  0  0  0  0
    6.4029   -6.2024   24.0994 C   0  0  0  0  0  0  0  0  0  0  0  0
    5.7638   -6.9134   24.8587 O   0  0  0  0  0  0  0  0  0  0  0  0
    5.7922   -4.9599   23.4442 C   0  0  0  0  0  0  0  0  0  0  0  0
    6.3200   -3.6880   23.9000 N   0  0  0  0  0  0  0  0  0  0  0  0
    7.4939   -3.0930   23.2733 C   0  0  0  0  0  0  0  0  0  0  0  0
    7.2407   -1.6175   22.8799 C   0  0  2  0  0  0  0  0  0  0  0  0
    6.2565   -1.5946   21.6870 C   0  0  0  0  0  0  0  0  0  0  0  0
    5.3027   -2.3255   21.5100 O   0  0  0  0  0  0  0  0  0  0  0  0
    6.6525   -0.5998   20.8262 N   0  0  0  0  0  0  0  0  0  0  0  0
    5.8530   -0.0962   19.7789 C   0  0  0  0  0  0  0  0  0  0  0  0
    6.3556   -0.0727   18.5020 C   0  0  0  0  0  0  0  0  0  0  0  0
    5.6949    0.4229   17.4310 N   0  0  0  0  0  0  0  0  0  0  0  0
    4.5048    0.9280   17.6413 C   0  0  0  0  0  0  0  0  0  0  0  0
    3.8780    0.9932   18.9171 C   0  0  0  0  0  0  0  0  0  0  0  0
    2.6061    1.6020   19.0930 C   0  0  0  0  0  0  0  0  0  0  0  0
    2.0608    1.7106   20.3398 C   0  0  0  0  0  0  0  0  0  0  0  0
    2.7597    1.2241   21.4698 C   0  0  0  0  0  0  0  0  0  0  0  0
    3.9842    0.6272   21.3273 C   0  0  0  0  0  0  0  0  0  0  0  0
    4.5690    0.4812   20.0333 C   0  0  0  0  0  0  0  0  0  0  0  0
    4.5246    0.2912   22.2111 H   0  0  0  0  0  0  0  0  0  0  0  0
    2.3369    1.3595   22.4576 H   0  0  0  0  0  0  0  0  0  0  0  0
    1.1049    2.2069   20.4869 H   0  0  0  0  0  0  0  0  0  0  0  0
    2.1036    2.0128   18.2220 H   0  0  0  0  0  0  0  0  0  0  0  0
    3.9781    1.3262   16.7720 H   0  0  0  0  0  0  0  0  0  0  0  0
    7.3386   -0.4985   18.3010 H   0  0  0  0  0  0  0  0  0  0  0  0
    7.8697    0.0744   21.2160 C   0  0  0  0  0  0  0  0  0  0  0  0
    8.4691   -0.8471   22.3080 C   0  0  2  0  0  0  0  0  0  0  0  0
    9.6200   -1.6862   21.7277 C   0  0  0  0  0  0  0  0  0  0  0  0
   10.7836   -0.9014   21.6576 O   0  0  0  0  0  0  0  0  0  0  0  0
   11.7901   -1.2726   22.5639 C   0  0  0  0  0  0  0  0  0  0  0  0
   12.9301   -0.4456   22.0152 C   0  0  0  0  0  0  0  0  0  0  0  0
   13.7935    0.0454   22.8766 C   0  0  0  0  0  0  0  0  0  0  0  0
   13.1189   -0.6825   21.8619 C   0  0  0  0  0  0  0  0  0  0  0  0
   13.2827   -0.7751   20.4335 H   0  0  0  0  0  0  0  0  0  0  0  0
   13.8608   -1.8255   21.7725 H   0  0  0  0  0  0  0  0  0  0  0  0
   13.3823    0.9705   23.2449 H   0  0  0  0  0  0  0  0  0  0  0  0
   14.6331   -0.5453   23.0176 H   0  0  0  0  0  0  0  0  0  0  0  0
   12.2712    0.2273   21.4067 H   0  0  0  0  0  0  0  0  0  0  0  0
   11.9163   -2.3494   22.6072 H   0  0  0  0  0  0  0  0  0  0  0  0
   11.4959   -0.9191   23.5689 H   0  0  0  0  0  0  0  0  0  0  0  0
    9.3444   -2.0208   20.7169 H   0  0  0  0  0  0  0  0  0  0  0  0
    9.8090   -2.5939   22.3216 H   0  0  0  0  0  0  0  0  0  0  0  0
    8.9166   -0.2555   23.1124 H   0  0  0  0  0  0  0  0  0  0  0  0
    7.6501    1.0878   21.5774 H   0  0  0  0  0  0  0  0  0  0  0  0
    8.5020    0.1910   20.3328 H   0  0  0  0  0  0  0  0  0  0  0  0
    6.6916   -0.8984   24.1151 C   0  0  0  0  0  0  0  0  0  0  0  0
    6.9083    0.4717   24.3399 C   0  0  0  0  0  0  0  0  0  0  0  0
    6.4381    1.0790   25.4898 C   0  0  0  0  0  0  0  0  0  0  0  0
    6.7954    2.7633   25.7584 Cl  0  0  0  0  0  0  0  0  0  0  0  0
    5.7138    0.3741   26.4468 C   0  0  0  0  0  0  0  0  0  0  0  0
    5.4652   -0.9651   26.2183 C   0  0  0  0  0  0  0  0  0  0  0  0
    5.9548   -1.5974   25.0758 C   0  0  0  0  0  0  0  0  0  0  0  0
    5.6338   -3.0458   24.8947 C   0  0  0  0  0  0  0  0  0  0  0  0
    4.7875   -3.6150   25.5747 O   0  0  0  0  0  0  0  0  0  0  0  0
    4.8873   -1.5578   26.9190 H   0  0  0  0  0  0  0  0  0  0  0  0
    5.3568    0.8807   27.3364 H   0  0  0  0  0  0  0  0  0  0  0  0
    7.4578    1.0918   23.6429 H   0  0  0  0  0  0  0  0  0  0  0  0
    8.3489   -3.1424   23.9643 H   0  0  0  0  0  0  0  0  0  0  0  0
    7.7264   -3.6620   22.3701 H   0  0  0  0  0  0  0  0  0  0  0  0
    5.8957   -5.0041   22.3516 H   0  0  0  0  0  0  0  0  0  0  0  0
    4.7318   -4.9808   23.7031 H   0  0  0  0  0  0  0  0  0  0  0  0
    8.2300   -5.8600   23.1869 H   0  0  0  0  0  0  0  0  0  0  0  0
    7.6284   -8.4732   24.3737 H   0  0  0  0  0  0  0  0  0  0  0  0
    8.6955   -7.4438   25.3471 H   0  0  0  0  0  0  0  0  0  0  0  0
    9.1846   -7.9347   23.6998 H   0  0  0  0  0  0  0  0  0  0  0  0
  1  2  1  0
  2  3  1  0
  3  4  2  0
  3  5  1  0
  5  6  1  0
  6  7  1  0
  8  7  1  1
  8  9  1  0
  9 10  2  0
  9 11  1  0
 11 12  1  0
 12 13  2  0
 13 14  1  0
 14 15  2  0
 15 16  1  0
 16 17  2  0
 17 18  1  0
 18 19  2  0
 19 20  1  0
 20 21  2  0
 20 22  1  0
 19 23  1  0
 18 24  1  0
 17 25  1  0
 15 26  1  0
 13 27  1  0
 11 28  1  0
 28 29  1  0
 29 30  1  0
 30 31  1  0
 31 32  1  0
 32 33  1  0
 33 34  1  0
 34 35  1  0
 35 36  1  0
 35 37  1  0
 34 38  1  0
 34 39  1  0
 33 40  1  0
 32 41  1  0
 32 42  1  0
 30 43  1  0
 30 44  1  0
 29 45  1  1
 28 46  1  0
 28 47  1  0
  8 48  1  0
 48 49  2  0
 49 50  1  0
 50 51  1  0
 50 52  2  0
 52 53  1  0
 53 54  2  0
 54 55  1  0
 55 56  2  0
 53 57  1  0
 52 58  1  0
 49 59  1  0
  7 60  1  0
  7 61  1  0
  5 62  1  0
  5 63  1  0
  2 64  1  0
  1 65  1  0
  1 66  1  0
  1 67  1  0
 55  6  1  0
 29  8  1  0
 35 33  1  0
 54 48  1  0
 21 12  1  0
 21 16  1  0
M  END
>  <cnnaffinities>  (14) 
[6.96862]

>  <score>  (14) 
6.96862

>  <index>  (14) 
13

>  <Smiles>  (14) 
C(N(C(=O)C(N1C([C@@]2(C(=O)N(c3c(nc(c4c(c(c(c(c34)[H])[H])[H])[H])[H])[H])C([C@@]2(C(OC(C2(C(C2([H])[H])([H])[H])[H])([H])[H])([H])[H])[H])([H])[H])c2c(c(Cl)c(c(c2C1=O)[H])[H])[H])([H])[H])([H])[H])[H])([H])([H])[H]

>  <h>  (14) 
<NA>

>  <Training>  (14) 
True

>  <Success>  (14) 
True

>  <enamine_searched>  (14) 
False

>  <enamine_id>  (14) 
nan

$$$$

     RDKit          3D

 67 73  0  0  0  0  0  0  0  0999 V2000
    7.4917   -3.1423   23.4069 C   0  0  0  0  0  0  0  0  0  0  0  0
    7.6621   -2.2891   22.1595 C   0  0  1  0  0  0  0  0  0  0  0  0
    6.3133   -1.7521   21.6569 C   0  0  0  0  0  0  0  0  0  0  0  0
    6.6837   -0.5694   20.9001 N   0  0  0  0  0  0  0  0  0  0  0  0
    5.9358   -0.0227   19.8342 C   0  0  0  0  0  0  0  0  0  0  0  0
    6.4216   -0.0634   18.5476 C   0  0  0  0  0  0  0  0  0  0  0  0
    5.7477    0.4161   17.4741 N   0  0  0  0  0  0  0  0  0  0  0  0
    4.5844    0.9806   17.6785 C   0  0  0  0  0  0  0  0  0  0  0  0
    3.9602    1.0764   18.9535 C   0  0  0  0  0  0  0  0  0  0  0  0
    2.6968    1.7032   19.1383 C   0  0  0  0  0  0  0  0  0  0  0  0
    2.1392    1.7689   20.3819 C   0  0  0  0  0  0  0  0  0  0  0  0
    2.7896    1.1842   21.4917 C   0  0  0  0  0  0  0  0  0  0  0  0
    4.0118    0.5762   21.3412 C   0  0  0  0  0  0  0  0  0  0  0  0
    4.6398    0.5348   20.0681 C   0  0  0  0  0  0  0  0  0  0  0  0
    4.4928    0.1273   22.2050 H   0  0  0  0  0  0  0  0  0  0  0  0
    2.3267    1.2195   22.4721 H   0  0  0  0  0  0  0  0  0  0  0  0
    1.1797    2.2598   20.5317 H   0  0  0  0  0  0  0  0  0  0  0  0
    2.2015    2.1493   18.2778 H   0  0  0  0  0  0  0  0  0  0  0  0
    4.0475    1.3606   16.8067 H   0  0  0  0  0  0  0  0  0  0  0  0
    7.3761   -0.5441   18.3390 H   0  0  0  0  0  0  0  0  0  0  0  0
    7.9741   -0.1540   21.1534 C   0  0  0  0  0  0  0  0  0  0  0  0
    8.5087    0.7887   20.6003 O   0  0  0  0  0  0  0  0  0  0  0  0
    8.5792   -1.0316   22.2782 C   0  0  1  0  0  0  0  0  0  0  0  0
    8.3972   -0.3172   23.6510 C   0  0  0  0  0  0  0  0  0  0  0  0
    9.2723    0.8190   23.8488 N   0  0  0  0  0  0  0  0  0  0  0  0
    8.7713    2.1050   24.2671 C   0  0  0  0  0  0  0  0  0  0  0  0
    8.2842    2.9224   23.0814 C   0  0  0  0  0  0  0  0  0  0  0  0
    7.7011    4.1898   23.5763 N   0  0  2  0  0  4  0  0  0  0  0  0
    6.8228    4.9018   22.5585 C   0  0  0  0  0  0  0  0  0  0  0  0
    7.4737    6.2940   22.4627 C   0  0  2  0  0  0  0  0  0  0  0  0
    8.9618    5.9833   22.6190 C   0  0  0  0  0  0  0  0  0  0  0  0
    8.7277    5.2795   23.9497 C   0  0  1  0  0  0  0  0  0  0  0  0
    7.9258    6.3342   24.7038 C   0  0  0  0  0  0  0  0  0  0  0  0
    7.1755    7.0050   23.6740 O   0  0  0  0  0  0  0  0  0  0  0  0
    7.2463    5.8542   25.4220 H   0  0  0  0  0  0  0  0  0  0  0  0
    8.5554    7.0585   25.2310 H   0  0  0  0  0  0  0  0  0  0  0  0
    9.5901    4.8614   24.4604 H   0  0  0  0  0  0  0  0  0  0  0  0
    9.3940    5.3344   21.8553 H   0  0  0  0  0  0  0  0  0  0  0  0
    9.5663    6.8853   22.7196 H   0  0  0  0  0  0  0  0  0  0  0  0
    7.1566    6.8886   21.6076 H   0  0  0  0  0  0  0  0  0  0  0  0
    6.8625    4.3467   21.6183 H   0  0  0  0  0  0  0  0  0  0  0  0
    5.7956    4.9352   22.9229 H   0  0  0  0  0  0  0  0  0  0  0  0
    7.1408    3.9317   24.4065 H   0  0  0  0  0  0  0  0  0  0  0  0
    7.5289    2.3632   22.5201 H   0  0  0  0  0  0  0  0  0  0  0  0
    9.1070    3.1279   22.3897 H   0  0  0  0  0  0  0  0  0  0  0  0
    9.5971    2.6231   24.7586 H   0  0  0  0  0  0  0  0  0  0  0  0
    7.9523    1.9776   24.9835 H   0  0  0  0  0  0  0  0  0  0  0  0
   10.5870    0.7692   23.5145 C   0  0  0  0  0  0  0  0  0  0  0  0
   11.3720    1.6684   23.7910 O   0  0  0  0  0  0  0  0  0  0  0  0
   11.0037   -0.4363   22.7488 C   0  0  0  0  0  0  0  0  0  0  0  0
   12.3712   -0.6355   22.6275 C   0  0  0  0  0  0  0  0  0  0  0  0
   12.8576   -1.5873   21.7629 C   0  0  0  0  0  0  0  0  0  0  0  0
   11.9531   -2.3258   21.0030 C   0  0  0  0  0  0  0  0  0  0  0  0
   12.5859   -3.3436   19.7324 Cl  0  0  0  0  0  0  0  0  0  0  0  0
   10.5860   -2.2162   21.2049 C   0  0  0  0  0  0  0  0  0  0  0  0
   10.0718   -1.2651   22.0998 C   0  0  0  0  0  0  0  0  0  0  0  0
    9.9335   -2.8733   20.6366 H   0  0  0  0  0  0  0  0  0  0  0  0
   13.9229   -1.7367   21.6982 H   0  0  0  0  0  0  0  0  0  0  0  0
   13.0482    0.0101   23.1773 H   0  0  0  0  0  0  0  0  0  0  0  0
    7.3627    0.0155   23.7594 H   0  0  0  0  0  0  0  0  0  0  0  0
    8.6230   -1.0472   24.4352 H   0  0  0  0  0  0  0  0  0  0  0  0
    5.7772   -2.4761   21.0337 H   0  0  0  0  0  0  0  0  0  0  0  0
    5.6691   -1.5053   22.5113 H   0  0  0  0  0  0  0  0  0  0  0  0
    8.0697   -2.9020   21.3515 H   0  0  0  0  0  0  0  0  0  0  0  0
    7.0100   -2.5583   24.1995 H   0  0  0  0  0  0  0  0  0  0  0  0
    6.8425   -4.0003   23.2015 H   0  0  0  0  0  0  0  0  0  0  0  0
    8.4489   -3.5136   23.7857 H   0  0  0  0  0  0  0  0  0  0  0  0
  1  2  1  0
  2  3  1  0
  3  4  1  0
  4  5  1  0
  5  6  2  0
  6  7  1  0
  7  8  2  0
  8  9  1  0
  9 10  2  0
 10 11  1  0
 11 12  2  0
 12 13  1  0
 13 14  2  0
 13 15  1  0
 12 16  1  0
 11 17  1  0
 10 18  1  0
  8 19  1  0
  6 20  1  0
  4 21  1  0
 21 22  2  0
 21 23  1  0
 23 24  1  1
 24 25  1  0
 25 26  1  0
 26 27  1  0
 27 28  1  0
 28 29  1  0
 29 30  1  0
 30 31  1  0
 31 32  1  0
 32 33  1  0
 33 34  1  0
 33 35  1  0
 33 36  1  0
 32 37  1  1
 31 38  1  0
 31 39  1  0
 30 40  1  6
 29 41  1  0
 29 42  1  0
 28 43  1  1
 27 44  1  0
 27 45  1  0
 26 46  1  0
 26 47  1  0
 25 48  1  0
 48 49  2  0
 48 50  1  0
 50 51  2  0
 51 52  1  0
 52 53  2  0
 53 54  1  0
 53 55  1  0
 55 56  2  0
 55 57  1  0
 52 58  1  0
 51 59  1  0
 24 60  1  0
 24 61  1  0
  3 62  1  0
  3 63  1  0
  2 64  1  6
  1 65  1  0
  1 66  1  0
  1 67  1  0
 23  2  1  0
 32 28  1  0
 56 50  1  0
 14  5  1  0
 56 23  1  0
 14  9  1  0
 34 30  1  0
M  CHG  1  28   1
M  END
>  <cnnaffinities>  (15) 
[6.65762, 6.55236]

>  <score>  (15) 
6.65762

>  <index>  (15) 
14

>  <Smiles>  (15) 
C([C@]1(C(N(c2c(nc(c3c(c(c(c(c23)[H])[H])[H])[H])[H])[H])C(=O)[C@]21C(N(C(C([N@@+]1(C([C@@]3(C([C@]1(C(O3)([H])[H])[H])([H])[H])[H])([H])[H])[H])([H])[H])([H])[H])C(=O)c1c(c(c(Cl)c(c21)[H])[H])[H])([H])[H])([H])[H])[H])([H])([H])[H]

>  <h>  (15) 
<NA>

>  <Training>  (15) 
True

>  <Success>  (15) 
True

>  <enamine_searched>  (15) 
False

>  <enamine_id>  (15) 
nan

$$$$

     RDKit          3D

 72 77  0  0  0  0  0  0  0  0999 V2000
    4.6715    6.6366   21.5353 C   0  0  0  0  0  0  0  0  0  0  0  0
    4.5058    5.7012   22.7271 C   0  0  1  0  0  0  0  0  0  0  0  0
    5.5102    4.5523   22.7455 C   0  0  0  0  0  0  0  0  0  0  0  0
    6.8847    5.0143   23.1347 N   0  0  2  0  0  4  0  0  0  0  0  0
    7.8747    3.8899   23.0572 C   0  0  0  0  0  0  0  0  0  0  0  0
    7.8159    2.9471   24.2614 C   0  0  0  0  0  0  0  0  0  0  0  0
    8.5600    1.7329   23.9942 N   0  0  0  0  0  0  0  0  0  0  0  0
    7.8724    0.4661   23.8390 C   0  0  0  0  0  0  0  0  0  0  0  0
    8.3984   -0.3440   22.6295 C   0  0  2  0  0  0  0  0  0  0  0  0
    7.9239    0.2778   21.2894 C   0  0  0  0  0  0  0  0  0  0  0  0
    8.4199    1.2096   20.6875 O   0  0  0  0  0  0  0  0  0  0  0  0
    6.8091   -0.4195   20.8782 N   0  0  0  0  0  0  0  0  0  0  0  0
    5.9954    0.0222   19.8171 C   0  0  0  0  0  0  0  0  0  0  0  0
    6.4196   -0.1391   18.5240 C   0  0  0  0  0  0  0  0  0  0  0  0
    5.7343    0.3099   17.4445 N   0  0  0  0  0  0  0  0  0  0  0  0
    4.6262    0.9670   17.6717 C   0  0  0  0  0  0  0  0  0  0  0  0
    4.0533    1.1581   18.9595 C   0  0  0  0  0  0  0  0  0  0  0  0
    2.8422    1.8723   19.1381 C   0  0  0  0  0  0  0  0  0  0  0  0
    2.2942    2.0056   20.3858 C   0  0  0  0  0  0  0  0  0  0  0  0
    2.9393    1.4421   21.5136 C   0  0  0  0  0  0  0  0  0  0  0  0
    4.1374    0.7837   21.3747 C   0  0  0  0  0  0  0  0  0  0  0  0
    4.7337    0.6382   20.0820 C   0  0  0  0  0  0  0  0  0  0  0  0
    4.6437    0.3931   22.2562 H   0  0  0  0  0  0  0  0  0  0  0  0
    2.4939    1.5624   22.5027 H   0  0  0  0  0  0  0  0  0  0  0  0
    1.3646    2.5558   20.5153 H   0  0  0  0  0  0  0  0  0  0  0  0
    2.3666    2.2783   18.2495 H   0  0  0  0  0  0  0  0  0  0  0  0
    4.1103    1.3809   16.8036 H   0  0  0  0  0  0  0  0  0  0  0  0
    7.3780   -0.6185   18.3312 H   0  0  0  0  0  0  0  0  0  0  0  0
    6.4988   -1.5874   21.6643 C   0  0  0  0  0  0  0  0  0  0  0  0
    7.7305   -1.7537   22.5573 C   0  0  2  0  0  0  0  0  0  0  0  0
    7.3748   -2.4375   23.8674 C   0  0  0  0  0  0  0  0  0  0  0  0
    8.2432   -2.5452   24.5247 H   0  0  0  0  0  0  0  0  0  0  0  0
    6.5981   -1.8748   24.4000 H   0  0  0  0  0  0  0  0  0  0  0  0
    6.9761   -3.4347   23.6534 H   0  0  0  0  0  0  0  0  0  0  0  0
    8.4142   -2.4092   22.0152 H   0  0  0  0  0  0  0  0  0  0  0  0
    6.3446   -2.4551   21.0139 H   0  0  0  0  0  0  0  0  0  0  0  0
    5.5862   -1.4657   22.2655 H   0  0  0  0  0  0  0  0  0  0  0  0
    9.9085   -0.3498   22.7099 C   0  0  0  0  0  0  0  0  0  0  0  0
   10.6258   -1.3078   21.9960 C   0  0  0  0  0  0  0  0  0  0  0  0
   12.0030   -1.3177   22.0377 C   0  0  0  0  0  0  0  0  0  0  0  0
   12.8216   -2.5420   21.1311 Cl  0  0  0  0  0  0  0  0  0  0  0  0
   12.7300   -0.3798   22.7670 C   0  0  0  0  0  0  0  0  0  0  0  0
   12.0280    0.6008   23.4393 C   0  0  0  0  0  0  0  0  0  0  0  0
   10.6327    0.6344   23.3977 C   0  0  0  0  0  0  0  0  0  0  0  0
    9.9236    1.7866   24.0435 C   0  0  0  0  0  0  0  0  0  0  0  0
   10.5316    2.7242   24.5481 O   0  0  0  0  0  0  0  0  0  0  0  0
   12.5523    1.3715   23.9914 H   0  0  0  0  0  0  0  0  0  0  0  0
   13.8148   -0.4114   22.7724 H   0  0  0  0  0  0  0  0  0  0  0  0
   10.1227   -2.0472   21.3847 H   0  0  0  0  0  0  0  0  0  0  0  0
    6.8003    0.6567   23.7234 H   0  0  0  0  0  0  0  0  0  0  0  0
    8.0161   -0.1357   24.7475 H   0  0  0  0  0  0  0  0  0  0  0  0
    8.2103    3.4323   25.1591 H   0  0  0  0  0  0  0  0  0  0  0  0
    6.7739    2.6784   24.4714 H   0  0  0  0  0  0  0  0  0  0  0  0
    8.8820    4.3058   22.9617 H   0  0  0  0  0  0  0  0  0  0  0  0
    7.6754    3.3280   22.1364 H   0  0  0  0  0  0  0  0  0  0  0  0
    6.8622    5.7923   24.4403 C   0  0  1  0  0  0  0  0  0  0  0  0
    8.2395    6.3568   24.7582 C   0  0  0  0  0  0  0  0  0  0  0  0
    8.5920    6.9539   23.9072 H   0  0  0  0  0  0  0  0  0  0  0  0
    8.9786    5.5718   24.9487 H   0  0  0  0  0  0  0  0  0  0  0  0
    8.1985    7.0009   25.6420 H   0  0  0  0  0  0  0  0  0  0  0  0
    5.8186    6.8978   24.3011 C   0  0  0  0  0  0  0  0  0  0  0  0
    4.5351    6.3999   23.9723 O   0  0  0  0  0  0  0  0  0  0  0  0
    5.7105    7.4309   25.2511 H   0  0  0  0  0  0  0  0  0  0  0  0
    6.1687    7.6214   23.5479 H   0  0  0  0  0  0  0  0  0  0  0  0
    6.5357    5.1119   25.2332 H   0  0  0  0  0  0  0  0  0  0  0  0
    7.1857    5.6886   22.4028 H   0  0  0  0  0  0  0  0  0  0  0  0
    5.5765    4.0760   21.7630 H   0  0  0  0  0  0  0  0  0  0  0  0
    5.1701    3.8045   23.4678 H   0  0  0  0  0  0  0  0  0  0  0  0
    3.5063    5.2555   22.6806 H   0  0  0  0  0  0  0  0  0  0  0  0
    5.6890    7.0370   21.4655 H   0  0  0  0  0  0  0  0  0  0  0  0
    4.4576    6.1048   20.6012 H   0  0  0  0  0  0  0  0  0  0  0  0
    3.9734    7.4733   21.6297 H   0  0  0  0  0  0  0  0  0  0  0  0
  1  2  1  0
  2  3  1  0
  3  4  1  0
  4  5  1  0
  5  6  1  0
  6  7  1  0
  7  8  1  0
  9  8  1  1
  9 10  1  0
 10 11  2  0
 10 12  1  0
 12 13  1  0
 13 14  2  0
 14 15  1  0
 15 16  2  0
 16 17  1  0
 17 18  2  0
 18 19  1  0
 19 20  2  0
 20 21  1  0
 21 22  2  0
 21 23  1  0
 20 24  1  0
 19 25  1  0
 18 26  1  0
 16 27  1  0
 14 28  1  0
 12 29  1  0
 29 30  1  0
 30 31  1  0
 31 32  1  0
 31 33  1  0
 31 34  1  0
 30 35  1  6
 29 36  1  0
 29 37  1  0
  9 38  1  0
 38 39  2  0
 39 40  1  0
 40 41  1  0
 40 42  2  0
 42 43  1  0
 43 44  2  0
 44 45  1  0
 45 46  2  0
 43 47  1  0
 42 48  1  0
 39 49  1  0
  8 50  1  0
  8 51  1  0
  6 52  1  0
  6 53  1  0
  5 54  1  0
  5 55  1  0
  4 56  1  0
 56 57  1  0
 57 58  1  0
 57 59  1  0
 57 60  1  0
 56 61  1  0
 61 62  1  0
 61 63  1  0
 61 64  1  0
 56 65  1  1
  4 66  1  6
  3 67  1  0
  3 68  1  0
  2 69  1  6
  1 70  1  0
  1 71  1  0
  1 72  1  0
 62  2  1  0
 45  7  1  0
 30  9  1  0
 44 38  1  0
 22 13  1  0
 22 17  1  0
M  CHG  1   4   1
M  END
>  <cnnaffinities>  (16) 
[6.57383, 6.66906]

>  <score>  (16) 
6.57383

>  <index>  (16) 
15

>  <Smiles>  (16) 
C([C@]1(C([N@+](C(C(N2C([C@@]3(C(=O)N(c4c(nc(c5c(c(c(c(c45)[H])[H])[H])[H])[H])[H])C([C@@]3(C([H])([H])[H])[H])([H])[H])c3c(c(Cl)c(c(c3C2=O)[H])[H])[H])([H])[H])([H])[H])([H])[H])([C@@](C([H])([H])[H])(C(O1)([H])[H])[H])[H])([H])[H])[H])([H])([H])[H]

>  <h>  (16) 
<NA>

>  <Training>  (16) 
True

>  <Success>  (16) 
True

>  <enamine_searched>  (16) 
False

>  <enamine_id>  (16) 
nan

$$$$

     RDKit          3D

 47 50  0  0  0  0  0  0  0  0999 V2000
    8.3555   -0.3425   26.2328 C   0  0  0  0  0  0  0  0  0  0  0  0
    7.8086    0.6079   25.1721 C   0  0  1  0  0  0  0  0  0  0  0  0
    8.7985    1.7236   24.7972 C   0  0  0  0  0  0  0  0  0  0  0  0
    8.5431    2.0690   23.3199 C   0  0  2  0  0  0  0  0  0  0  0  0
    7.7227    3.3298   23.0821 C   0  0  0  0  0  0  0  0  0  0  0  0
    6.3713    3.4019   23.4224 C   0  0  0  0  0  0  0  0  0  0  0  0
    5.6418    4.5660   23.1997 C   0  0  0  0  0  0  0  0  0  0  0  0
    6.2548    5.6788   22.6295 C   0  0  0  0  0  0  0  0  0  0  0  0
    7.5998    5.6182   22.2859 C   0  0  0  0  0  0  0  0  0  0  0  0
    8.3240    4.4503   22.5087 C   0  0  0  0  0  0  0  0  0  0  0  0
    9.3719    4.4081   22.2154 H   0  0  0  0  0  0  0  0  0  0  0  0
    8.0885    6.4773   21.8341 H   0  0  0  0  0  0  0  0  0  0  0  0
    5.6863    6.5878   22.4514 H   0  0  0  0  0  0  0  0  0  0  0  0
    4.5868    4.6003   23.4583 H   0  0  0  0  0  0  0  0  0  0  0  0
    5.8665    2.5365   23.8503 H   0  0  0  0  0  0  0  0  0  0  0  0
    7.8794    0.8759   22.8061 N   0  0  0  0  0  0  0  0  0  0  0  0
    7.7891    0.7102   21.4542 C   0  0  0  0  0  0  0  0  0  0  0  0
    8.3943    1.4218   20.6639 O   0  0  0  0  0  0  0  0  0  0  0  0
    6.9157   -0.4508   20.9664 C   0  0  0  0  0  0  0  0  0  0  0  0
    5.9772   -0.0257   19.8697 C   0  0  0  0  0  0  0  0  0  0  0  0
    6.3907   -0.1469   18.5702 C   0  0  0  0  0  0  0  0  0  0  0  0
    5.7317    0.3229   17.4836 N   0  0  0  0  0  0  0  0  0  0  0  0
    4.6094    0.9612   17.7034 C   0  0  0  0  0  0  0  0  0  0  0  0
    4.0295    1.1278   18.9838 C   0  0  0  0  0  0  0  0  0  0  0  0
    2.8004    1.8152   19.1478 C   0  0  0  0  0  0  0  0  0  0  0  0
    2.2142    1.9231   20.3789 C   0  0  0  0  0  0  0  0  0  0  0  0
    2.8533    1.3464   21.5028 C   0  0  0  0  0  0  0  0  0  0  0  0
    4.0726    0.7165   21.3750 C   0  0  0  0  0  0  0  0  0  0  0  0
    4.7116    0.5981   20.1094 C   0  0  0  0  0  0  0  0  0  0  0  0
    4.5405    0.3030   22.2629 H   0  0  0  0  0  0  0  0  0  0  0  0
    2.3774    1.4243   22.4744 H   0  0  0  0  0  0  0  0  0  0  0  0
    1.2714    2.4488   20.5003 H   0  0  0  0  0  0  0  0  0  0  0  0
    2.3190    2.2263   18.2657 H   0  0  0  0  0  0  0  0  0  0  0  0
    4.1062    1.3813   16.8326 H   0  0  0  0  0  0  0  0  0  0  0  0
    7.3542   -0.6040   18.3548 H   0  0  0  0  0  0  0  0  0  0  0  0
    7.6125   -1.2022   20.5691 H   0  0  0  0  0  0  0  0  0  0  0  0
    6.3852   -0.9211   21.7954 H   0  0  0  0  0  0  0  0  0  0  0  0
    7.4943   -0.0830   23.8369 C   0  0  0  0  0  0  0  0  0  0  0  0
    6.4273   -0.3344   23.7777 H   0  0  0  0  0  0  0  0  0  0  0  0
    8.0642   -1.0165   23.7225 H   0  0  0  0  0  0  0  0  0  0  0  0
    9.4921    2.1843   22.7840 H   0  0  0  0  0  0  0  0  0  0  0  0
    9.8171    1.3295   24.8913 H   0  0  0  0  0  0  0  0  0  0  0  0
    8.7173    2.5968   25.4513 H   0  0  0  0  0  0  0  0  0  0  0  0
    6.8768    1.0571   25.5438 H   0  0  0  0  0  0  0  0  0  0  0  0
    8.5527    0.1861   27.1724 H   0  0  0  0  0  0  0  0  0  0  0  0
    9.3023   -0.7866   25.8976 H   0  0  0  0  0  0  0  0  0  0  0  0
    7.6606   -1.1620   26.4493 H   0  0  0  0  0  0  0  0  0  0  0  0
  1  2  1  0
  2  3  1  0
  3  4  1  0
  4  5  1  0
  5  6  2  0
  6  7  1  0
  7  8  2  0
  8  9  1  0
  9 10  2  0
 10 11  1  0
  9 12  1  0
  8 13  1  0
  7 14  1  0
  6 15  1  0
  4 16  1  0
 16 17  1  0
 17 18  2  0
 17 19  1  0
 19 20  1  0
 20 21  2  0
 21 22  1  0
 22 23  2  0
 23 24  1  0
 24 25  2  0
 25 26  1  0
 26 27  2  0
 27 28  1  0
 28 29  2  0
 28 30  1  0
 27 31  1  0
 26 32  1  0
 25 33  1  0
 23 34  1  0
 21 35  1  0
 19 36  1  0
 19 37  1  0
 16 38  1  0
 38 39  1  0
 38 40  1  0
  4 41  1  6
  3 42  1  0
  3 43  1  0
  2 44  1  1
  1 45  1  0
  1 46  1  0
  1 47  1  0
 38  2  1  0
 10  5  1  0
 29 20  1  0
 29 24  1  0
M  END
>  <cnnaffinities>  (17) 
[5.57021, 5.5859, 5.76057, 5.76192, 5.8627, 5.82154]

>  <score>  (17) 
5.57021

>  <index>  (17) 
16

>  <Smiles>  (17) 
C([C@]1(C([C@](c2c(c(c(c(c2[H])[H])[H])[H])[H])(N(C(=O)C(c2c(nc(c3c(c(c(c(c23)[H])[H])[H])[H])[H])[H])([H])[H])C1([H])[H])[H])([H])[H])[H])([H])([H])[H]

>  <h>  (17) 
<NA>

>  <Training>  (17) 
True

>  <Success>  (17) 
True

>  <enamine_searched>  (17) 
False

>  <enamine_id>  (17) 
nan

$$$$

     RDKit          3D

 58 63  0  0  0  0  0  0  0  0999 V2000
    7.2074   -3.0535   23.4525 C   0  0  0  0  0  0  0  0  0  0  0  0
    7.1934   -2.3060   22.1378 C   0  0  1  0  0  0  0  0  0  0  0  0
    5.9375   -1.4754   21.8461 C   0  0  0  0  0  0  0  0  0  0  0  0
    6.4093   -0.4160   20.9511 N   0  0  0  0  0  0  0  0  0  0  0  0
    5.7006    0.0993   19.8442 C   0  0  0  0  0  0  0  0  0  0  0  0
    6.2323    0.0673   18.5732 C   0  0  0  0  0  0  0  0  0  0  0  0
    5.5951    0.5211   17.4701 N   0  0  0  0  0  0  0  0  0  0  0  0
    4.4045    1.0463   17.6238 C   0  0  0  0  0  0  0  0  0  0  0  0
    3.7458    1.1551   18.8789 C   0  0  0  0  0  0  0  0  0  0  0  0
    2.4795    1.7846   19.0178 C   0  0  0  0  0  0  0  0  0  0  0  0
    1.8971    1.9004   20.2490 C   0  0  0  0  0  0  0  0  0  0  0  0
    2.5450    1.3942   21.3967 C   0  0  0  0  0  0  0  0  0  0  0  0
    3.7681    0.7861   21.2894 C   0  0  0  0  0  0  0  0  0  0  0  0
    4.3989    0.6576   20.0249 C   0  0  0  0  0  0  0  0  0  0  0  0
    4.2879    0.4515   22.1793 H   0  0  0  0  0  0  0  0  0  0  0  0
    2.0883    1.5140   22.3762 H   0  0  0  0  0  0  0  0  0  0  0  0
    0.9429    2.4101   20.3609 H   0  0  0  0  0  0  0  0  0  0  0  0
    2.0062    2.1953   18.1303 H   0  0  0  0  0  0  0  0  0  0  0  0
    3.9065    1.4187   16.7289 H   0  0  0  0  0  0  0  0  0  0  0  0
    7.2182   -0.3526   18.3908 H   0  0  0  0  0  0  0  0  0  0  0  0
    7.7709   -0.2175   21.0588 C   0  0  0  0  0  0  0  0  0  0  0  0
    8.4076    0.6561   20.5036 O   0  0  0  0  0  0  0  0  0  0  0  0
    8.3700   -1.3070   21.9327 C   0  0  1  0  0  0  0  0  0  0  0  0
    8.9963   -0.6487   23.1822 C   0  0  0  0  0  0  0  0  0  0  0  0
    9.8778   -1.3891   24.0982 N   0  0  0  0  0  0  0  0  0  0  0  0
    9.6929   -1.1361   25.5215 C   0  0  0  0  0  0  0  0  0  0  0  0
    8.8178   -2.1906   26.1147 C   0  0  0  0  0  0  0  0  0  0  0  0
    9.1464   -3.4552   26.1905 N   0  0  0  0  0  0  0  0  0  0  0  0
    8.1047   -4.1143   26.8018 N   0  0  0  0  0  0  0  0  0  0  0  0
    7.1897   -3.2232   27.0627 C   0  0  0  0  0  0  0  0  0  0  0  0
    7.5849   -1.9782   26.6587 N   0  0  0  0  0  0  0  0  0  0  0  0
    6.8760   -0.7211   26.7972 C   0  0  0  0  0  0  0  0  0  0  0  0
    5.8989   -0.9250   27.2379 H   0  0  0  0  0  0  0  0  0  0  0  0
    7.4239   -0.0277   27.4457 H   0  0  0  0  0  0  0  0  0  0  0  0
    6.7312   -0.2565   25.8146 H   0  0  0  0  0  0  0  0  0  0  0  0
    6.2357   -3.4206   27.5341 H   0  0  0  0  0  0  0  0  0  0  0  0
    9.2876   -0.1340   25.6917 H   0  0  0  0  0  0  0  0  0  0  0  0
   10.6804   -1.1605   25.9841 H   0  0  0  0  0  0  0  0  0  0  0  0
   11.1151   -1.9191   23.7326 C   0  0  0  0  0  0  0  0  0  0  0  0
   12.1172   -1.8600   24.4243 O   0  0  0  0  0  0  0  0  0  0  0  0
   11.1645   -2.5914   22.4333 C   0  0  0  0  0  0  0  0  0  0  0  0
   12.5366   -2.5460   21.7511 C   0  0  0  0  0  0  0  0  0  0  0  0
   12.5731   -2.5643   20.3878 C   0  0  0  0  0  0  0  0  0  0  0  0
   12.6216   -2.6752   20.3123 C   0  0  0  0  0  0  0  0  0  0  0  0
   12.6703   -3.7025   19.4099 F   0  0  0  0  0  0  0  0  0  0  0  0
   10.2065   -2.8761   21.5345 C   0  0  0  0  0  0  0  0  0  0  0  0
    9.3960   -2.0368   20.9836 C   0  0  0  0  0  0  0  0  0  0  0  0
    9.0482   -1.9512   19.9318 H   0  0  0  0  0  0  0  0  0  0  0  0
   13.1854   -1.8019   19.5176 H   0  0  0  0  0  0  0  0  0  0  0  0
   13.2242   -1.8295   21.6821 H   0  0  0  0  0  0  0  0  0  0  0  0
    8.1554   -0.3060   23.7994 H   0  0  0  0  0  0  0  0  0  0  0  0
    9.4761    0.2786   22.8398 H   0  0  0  0  0  0  0  0  0  0  0  0
    5.5389   -1.0529   22.7789 H   0  0  0  0  0  0  0  0  0  0  0  0
    5.1455   -2.0494   21.3582 H   0  0  0  0  0  0  0  0  0  0  0  0
    7.2882   -3.0380   21.3265 H   0  0  0  0  0  0  0  0  0  0  0  0
    8.2139   -3.4545   23.6219 H   0  0  0  0  0  0  0  0  0  0  0  0
    6.9563   -2.3932   24.2893 H   0  0  0  0  0  0  0  0  0  0  0  0
    6.4901   -3.8816   23.4565 H   0  0  0  0  0  0  0  0  0  0  0  0
  1  2  1  0
  2  3  1  0
  3  4  1  0
  4  5  1  0
  5  6  2  0
  6  7  1  0
  7  8  2  0
  8  9  1  0
  9 10  2  0
 10 11  1  0
 11 12  2  0
 12 13  1  0
 13 14  2  0
 13 15  1  0
 12 16  1  0
 11 17  1  0
 10 18  1  0
  8 19  1  0
  6 20  1  0
  4 21  1  0
 21 22  2  0
 21 23  1  0
 23 24  1  1
 24 25  1  0
 25 26  1  0
 26 27  1  0
 27 28  2  0
 28 29  1  0
 29 30  2  0
 30 31  1  0
 31 32  1  0
 32 33  1  0
 32 34  1  0
 32 35  1  0
 30 36  1  0
 26 37  1  0
 26 38  1  0
 25 39  1  0
 39 40  2  0
 39 41  1  0
 41 42  2  0
 42 43  1  0
 43 44  2  0
 44 45  1  0
 44 46  1  0
 46 47  2  0
 46 48  1  0
 43 49  1  0
 42 50  1  0
 24 51  1  0
 24 52  1  0
  3 53  1  0
  3 54  1  0
  2 55  1  6
  1 56  1  0
  1 57  1  0
  1 58  1  0
 23  2  1  0
 31 27  1  0
 47 41  1  0
 14  5  1  0
 47 23  1  0
 14  9  1  0
M  END
>  <cnnaffinities>  (18) 
[5.97953]

>  <score>  (18) 
5.97953

>  <index>  (18) 
17

>  <Smiles>  (18) 
C([C@]1(C(N(c2c(nc(c3c(c(c(c(c23)[H])[H])[H])[H])[H])[H])C(=O)[C@]21C(N(C(c1nnc(n1C([H])([H])[H])[H])([H])[H])C(=O)c1c(c(c(F)c(c21)[H])[H])[H])([H])[H])([H])[H])[H])([H])([H])[H]

>  <h>  (18) 
<NA>

>  <Training>  (18) 
True

>  <Success>  (18) 
True

>  <enamine_searched>  (18) 
False

>  <enamine_id>  (18) 
nan

$$$$

     RDKit          3D

 50 53  0  0  0  0  0  0  0  0999 V2000
    6.1655    0.0218   28.6921 C   0  0  0  0  0  0  0  0  0  0  0  0
    5.8059   -0.5515   27.3145 C   0  0  1  0  0  0  0  0  0  0  0  0
    5.4191    0.5311   26.2900 C   0  0  0  0  0  0  0  0  0  0  0  0
    6.6201    1.3296   25.7695 C   0  0  0  0  0  0  0  0  0  0  0  0
    7.7602    0.4599   25.1919 C   0  0  2  0  0  0  0  0  0  0  0  0
    8.9567    1.3659   24.8208 C   0  0  0  0  0  0  0  0  0  0  0  0
    8.8158    1.7292   23.3417 C   0  0  0  0  0  0  0  0  0  0  0  0
    7.9263    0.7074   22.8120 N   0  0  0  0  0  0  0  0  0  0  0  0
    7.7868    0.5948   21.4641 C   0  0  0  0  0  0  0  0  0  0  0  0
    8.3862    1.3287   20.6885 O   0  0  0  0  0  0  0  0  0  0  0  0
    6.8750   -0.5274   20.9516 C   0  0  0  0  0  0  0  0  0  0  0  0
    5.9610   -0.0486   19.8569 C   0  0  0  0  0  0  0  0  0  0  0  0
    6.3860   -0.1483   18.5567 C   0  0  0  0  0  0  0  0  0  0  0  0
    5.7344    0.3374   17.4722 N   0  0  0  0  0  0  0  0  0  0  0  0
    4.6075    0.9632   17.6952 C   0  0  0  0  0  0  0  0  0  0  0  0
    4.0291    1.1345   18.9811 C   0  0  0  0  0  0  0  0  0  0  0  0
    2.7961    1.8156   19.1480 C   0  0  0  0  0  0  0  0  0  0  0  0
    2.2171    1.9141   20.3817 C   0  0  0  0  0  0  0  0  0  0  0  0
    2.8524    1.3303   21.4981 C   0  0  0  0  0  0  0  0  0  0  0  0
    4.0596    0.6887   21.3689 C   0  0  0  0  0  0  0  0  0  0  0  0
    4.7012    0.5866   20.1031 C   0  0  0  0  0  0  0  0  0  0  0  0
    4.5239    0.2491   22.2468 H   0  0  0  0  0  0  0  0  0  0  0  0
    2.3736    1.4019   22.4694 H   0  0  0  0  0  0  0  0  0  0  0  0
    1.2783    2.4468   20.5071 H   0  0  0  0  0  0  0  0  0  0  0  0
    2.3096    2.2245   18.2672 H   0  0  0  0  0  0  0  0  0  0  0  0
    4.1021    1.3901   16.8278 H   0  0  0  0  0  0  0  0  0  0  0  0
    7.3526   -0.6023   18.3424 H   0  0  0  0  0  0  0  0  0  0  0  0
    6.3189   -1.0023   21.7626 H   0  0  0  0  0  0  0  0  0  0  0  0
    7.5471   -1.2966   20.5426 H   0  0  0  0  0  0  0  0  0  0  0  0
    7.3807   -0.1761   23.8326 C   0  0  0  0  0  0  0  0  0  0  0  0
    6.2927   -0.2624   23.7171 H   0  0  0  0  0  0  0  0  0  0  0  0
    7.8082   -1.1847   23.7270 H   0  0  0  0  0  0  0  0  0  0  0  0
    9.7739    1.6946   22.8156 H   0  0  0  0  0  0  0  0  0  0  0  0
    8.3863    2.7239   23.1745 H   0  0  0  0  0  0  0  0  0  0  0  0
    9.9012    0.8310   24.9775 H   0  0  0  0  0  0  0  0  0  0  0  0
    8.9685    2.2639   25.4425 H   0  0  0  0  0  0  0  0  0  0  0  0
    8.1335   -0.5913   26.2542 C   0  0  0  0  0  0  0  0  0  0  0  0
    6.9359   -1.4236   26.7376 C   0  0  0  0  0  0  0  0  0  0  0  0
    6.5401   -2.0155   25.8986 H   0  0  0  0  0  0  0  0  0  0  0  0
    7.2653   -2.1443   27.4968 H   0  0  0  0  0  0  0  0  0  0  0  0
    8.5748   -0.0655   27.1138 H   0  0  0  0  0  0  0  0  0  0  0  0
    8.9201   -1.2528   25.8673 H   0  0  0  0  0  0  0  0  0  0  0  0
    7.0420    1.9097   26.6039 H   0  0  0  0  0  0  0  0  0  0  0  0
    6.2994    2.0625   25.0180 H   0  0  0  0  0  0  0  0  0  0  0  0
    4.9068    0.0500   25.4443 H   0  0  0  0  0  0  0  0  0  0  0  0
    4.6917    1.2218   26.7362 H   0  0  0  0  0  0  0  0  0  0  0  0
    4.9264   -1.1940   27.4656 H   0  0  0  0  0  0  0  0  0  0  0  0
    7.0342    0.6886   28.6598 H   0  0  0  0  0  0  0  0  0  0  0  0
    5.3284    0.5936   29.1094 H   0  0  0  0  0  0  0  0  0  0  0  0
    6.4017   -0.7882   29.3930 H   0  0  0  0  0  0  0  0  0  0  0  0
  1  2  1  0
  2  3  1  0
  3  4  1  0
  5  4  1  1
  5  6  1  0
  6  7  1  0
  7  8  1  0
  8  9  1  0
  9 10  2  0
  9 11  1  0
 11 12  1  0
 12 13  2  0
 13 14  1  0
 14 15  2  0
 15 16  1  0
 16 17  2  0
 17 18  1  0
 18 19  2  0
 19 20  1  0
 20 21  2  0
 20 22  1  0
 19 23  1  0
 18 24  1  0
 17 25  1  0
 15 26  1  0
 13 27  1  0
 11 28  1  0
 11 29  1  0
  8 30  1  0
 30 31  1  0
 30 32  1  0
  7 33  1  0
  7 34  1  0
  6 35  1  0
  6 36  1  0
  5 37  1  0
 37 38  1  0
 38 39  1  0
 38 40  1  0
 37 41  1  0
 37 42  1  0
  4 43  1  0
  4 44  1  0
  3 45  1  0
  3 46  1  0
  2 47  1  1
  1 48  1  0
  1 49  1  0
  1 50  1  0
 38  2  1  0
 30  5  1  0
 21 12  1  0
 21 16  1  0
M  END
>  <cnnaffinities>  (19) 
[5.73491, 5.67238]

>  <score>  (19) 
5.73491

>  <index>  (19) 
18

>  <Smiles>  (19) 
C([C@]1(C(C([C@@]2(C(C(N(C(=O)C(c3c(nc(c4c(c(c(c(c34)[H])[H])[H])[H])[H])[H])([H])[H])C2([H])[H])([H])[H])([H])[H])C(C1([H])[H])([H])[H])([H])[H])([H])[H])[H])([H])([H])[H]

>  <h>  (19) 
<NA>

>  <Training>  (19) 
True

>  <Success>  (19) 
True

>  <enamine_searched>  (19) 
False

>  <enamine_id>  (19) 
nan

$$$$

     RDKit          3D

 67 71  0  0  0  0  0  0  0  0999 V2000
    4.5773   -5.7047   26.1579 O   0  0  0  0  0  0  0  0  0  0  0  0
    4.5405   -5.3589   24.9875 C   0  0  0  0  0  0  0  0  0  0  0  0
    5.8079   -4.9876   24.1963 C   0  0  0  0  0  0  0  0  0  0  0  0
    6.0236   -3.5287   24.0517 N   0  0  1  0  0  4  0  0  0  0  0  0
    6.0923   -2.8792   25.4069 C   0  0  0  0  0  0  0  0  0  0  0  0
    6.3539   -1.3951   25.3388 C   0  0  0  0  0  0  0  0  0  0  0  0
    6.0364   -0.5677   26.4178 C   0  0  0  0  0  0  0  0  0  0  0  0
    6.2908    0.7964   26.3799 C   0  0  0  0  0  0  0  0  0  0  0  0
    6.8586    1.3368   25.2308 C   0  0  0  0  0  0  0  0  0  0  0  0
    7.1654    3.0501   25.1643 Cl  0  0  0  0  0  0  0  0  0  0  0  0
    7.1765    0.5314   24.1460 C   0  0  0  0  0  0  0  0  0  0  0  0
    6.9618   -0.8514   24.2141 C   0  0  0  0  0  0  0  0  0  0  0  0
    7.3096   -1.7330   23.0306 C   0  0  2  0  0  0  0  0  0  0  0  0
    6.2382   -1.5174   21.9712 C   0  0  0  0  0  0  0  0  0  0  0  0
    5.1302   -2.0333   22.0683 O   0  0  0  0  0  0  0  0  0  0  0  0
    6.6281   -0.6983   20.9538 N   0  0  0  0  0  0  0  0  0  0  0  0
    5.8479   -0.1571   19.9141 C   0  0  0  0  0  0  0  0  0  0  0  0
    6.3530   -0.2002   18.6395 C   0  0  0  0  0  0  0  0  0  0  0  0
    5.7482    0.3259   17.5530 N   0  0  0  0  0  0  0  0  0  0  0  0
    4.5990    0.9249   17.7370 C   0  0  0  0  0  0  0  0  0  0  0  0
    3.9872    1.0768   19.0102 C   0  0  0  0  0  0  0  0  0  0  0  0
    2.7620    1.7794   19.1650 C   0  0  0  0  0  0  0  0  0  0  0  0
    2.1809    1.8957   20.3959 C   0  0  0  0  0  0  0  0  0  0  0  0
    2.8126    1.3438   21.5338 C   0  0  0  0  0  0  0  0  0  0  0  0
    4.0081    0.6865   21.4226 C   0  0  0  0  0  0  0  0  0  0  0  0
    4.6165    0.5190   20.1465 C   0  0  0  0  0  0  0  0  0  0  0  0
    4.4831    0.2725   22.3035 H   0  0  0  0  0  0  0  0  0  0  0  0
    2.3468    1.4410   22.5090 H   0  0  0  0  0  0  0  0  0  0  0  0
    1.2430    2.4353   20.5156 H   0  0  0  0  0  0  0  0  0  0  0  0
    2.2983    2.2140   18.2849 H   0  0  0  0  0  0  0  0  0  0  0  0
    4.1245    1.3745   16.8638 H   0  0  0  0  0  0  0  0  0  0  0  0
    7.3306   -0.6496   18.4627 H   0  0  0  0  0  0  0  0  0  0  0  0
    7.6210   -0.5373   20.8692 H   0  0  0  0  0  0  0  0  0  0  0  0
    7.2948   -3.2320   23.3186 C   0  0  0  0  0  0  0  0  0  0  0  0
    8.1584   -3.5555   23.9098 H   0  0  0  0  0  0  0  0  0  0  0  0
    7.3045   -3.7817   22.3709 H   0  0  0  0  0  0  0  0  0  0  0  0
    8.2752   -1.4286   22.6219 H   0  0  0  0  0  0  0  0  0  0  0  0
    7.5805    0.9877   23.2457 H   0  0  0  0  0  0  0  0  0  0  0  0
    6.0404    1.4381   27.2205 H   0  0  0  0  0  0  0  0  0  0  0  0
    5.5806   -0.9914   27.3089 H   0  0  0  0  0  0  0  0  0  0  0  0
    5.1591   -3.0781   25.9348 H   0  0  0  0  0  0  0  0  0  0  0  0
    6.8929   -3.3720   25.9799 H   0  0  0  0  0  0  0  0  0  0  0  0
    5.2753   -3.0866   23.4673 H   0  0  0  0  0  0  0  0  0  0  0  0
    6.6590   -5.4074   24.7419 H   0  0  0  0  0  0  0  0  0  0  0  0
    5.7865   -5.4529   23.2037 H   0  0  0  0  0  0  0  0  0  0  0  0
    3.3711   -5.2761   24.2968 N   0  0  0  0  0  0  0  0  0  0  0  0
    2.1033   -5.6453   24.9125 C   0  0  0  0  0  0  0  0  0  0  0  0
    1.9178   -7.1693   25.0425 C   0  0  0  0  0  0  0  0  0  0  0  0
    0.6175   -7.5490   25.7112 C   0  0  0  0  0  0  0  0  0  0  0  0
    0.5326   -7.6668   27.1006 C   0  0  0  0  0  0  0  0  0  0  0  0
   -0.6743   -7.9605   27.7234 C   0  0  0  0  0  0  0  0  0  0  0  0
   -1.8280   -8.1491   26.9649 C   0  0  0  0  0  0  0  0  0  0  0  0
   -3.1252   -8.4771   27.6401 C   0  0  0  0  0  0  0  0  0  0  0  0
   -3.4426   -7.5154   28.5555 F   0  0  0  0  0  0  0  0  0  0  0  0
   -3.0146   -9.6467   28.3358 F   0  0  0  0  0  0  0  0  0  0  0  0
   -3.9640   -8.5741   26.9405 H   0  0  0  0  0  0  0  0  0  0  0  0
   -1.7546   -8.0377   25.5798 C   0  0  0  0  0  0  0  0  0  0  0  0
   -0.5444   -7.7415   24.9613 C   0  0  0  0  0  0  0  0  0  0  0  0
   -0.5036   -7.6651   23.8772 H   0  0  0  0  0  0  0  0  0  0  0  0
   -2.6471   -8.1817   24.9720 H   0  0  0  0  0  0  0  0  0  0  0  0
   -0.7250   -8.0454   28.8047 H   0  0  0  0  0  0  0  0  0  0  0  0
    1.4228   -7.5337   27.7114 H   0  0  0  0  0  0  0  0  0  0  0  0
    2.7695   -7.5497   25.6171 H   0  0  0  0  0  0  0  0  0  0  0  0
    1.9665   -7.6197   24.0427 H   0  0  0  0  0  0  0  0  0  0  0  0
    2.0569   -5.1836   25.9039 H   0  0  0  0  0  0  0  0  0  0  0  0
    1.2993   -5.2232   24.3032 H   0  0  0  0  0  0  0  0  0  0  0  0
    3.3748   -4.9294   23.3505 H   0  0  0  0  0  0  0  0  0  0  0  0
  1  2  2  0
  2  3  1  0
  3  4  1  0
  4  5  1  0
  5  6  1  0
  6  7  2  0
  7  8  1  0
  8  9  2  0
  9 10  1  0
  9 11  1  0
 11 12  2  0
 12 13  1  0
 13 14  1  0
 14 15  2  0
 14 16  1  0
 16 17  1  0
 17 18  2  0
 18 19  1  0
 19 20  2  0
 20 21  1  0
 21 22  2  0
 22 23  1  0
 23 24  2  0
 24 25  1  0
 25 26  2  0
 25 27  1  0
 24 28  1  0
 23 29  1  0
 22 30  1  0
 20 31  1  0
 18 32  1  0
 16 33  1  0
 13 34  1  0
 34 35  1  0
 34 36  1  0
 13 37  1  6
 11 38  1  0
  8 39  1  0
  7 40  1  0
  5 41  1  0
  5 42  1  0
  4 43  1  6
  3 44  1  0
  3 45  1  0
  2 46  1  0
 46 47  1  0
 47 48  1  0
 48 49  1  0
 49 50  2  0
 50 51  1  0
 51 52  2  0
 52 53  1  0
 53 54  1  0
 53 55  1  0
 53 56  1  0
 52 57  1  0
 57 58  2  0
 58 59  1  0
 57 60  1  0
 51 61  1  0
 50 62  1  0
 48 63  1  0
 48 64  1  0
 47 65  1  0
 47 66  1  0
 46 67  1  0
 34  4  1  0
 58 49  1  0
 12  6  1  0
 26 17  1  0
 26 21  1  0
M  CHG  1   4   1
M  END
>  <cnnaffinities>  (20) 
[6.59504, 6.87807, 6.65268]

>  <score>  (20) 
6.59504

>  <index>  (20) 
19

>  <Smiles>  (20) 
O=C(C([N@+]1(C(c2c(c(c(Cl)c(c2[C@](C(=O)N(c2c(nc(c3c(c(c(c(c23)[H])[H])[H])[H])[H])[H])[H])(C1([H])[H])[H])[H])[H])[H])([H])[H])[H])([H])[H])N(C(C(c1c(c(c(C(F)(F)[H])c(c1[H])[H])[H])[H])([H])[H])([H])[H])[H]

>  <h>  (20) 
<NA>

>  <Training>  (20) 
True

>  <Success>  (20) 
True

>  <enamine_searched>  (20) 
False

>  <enamine_id>  (20) 
nan

$$$$

     RDKit          3D

 66 70  0  0  0  0  0  0  0  0999 V2000
    4.1600    6.4228   22.4875 C   0  0  0  0  0  0  0  0  0  0  0  0
    5.3511    5.4666   22.4671 C   0  0  0  0  0  0  0  0  0  0  0  0
    6.5941    6.2044   22.0051 C   0  0  0  0  0  0  0  0  0  0  0  0
    6.5411    6.9954   21.0844 O   0  0  0  0  0  0  0  0  0  0  0  0
    7.7582    6.0600   22.7652 N   0  0  0  0  0  0  0  0  0  0  0  0
    8.3979    7.3540   23.0732 C   0  0  0  0  0  0  0  0  0  0  0  0
    9.7871    7.2053   23.6616 C   0  0  0  0  0  0  0  0  0  0  0  0
    9.7384    6.1281   24.7365 C   0  0  0  0  0  0  0  0  0  0  0  0
    9.3148    4.8196   24.1264 C   0  0  0  0  0  0  0  0  0  0  0  0
    9.9413    3.6316   24.4672 C   0  0  0  0  0  0  0  0  0  0  0  0
    9.4918    2.4102   23.9952 C   0  0  0  0  0  0  0  0  0  0  0  0
    8.3995    2.3900   23.1267 C   0  0  0  0  0  0  0  0  0  0  0  0
    7.8619    1.1230   22.7430 N   0  0  0  0  0  0  0  0  0  0  0  0
    7.6722    0.8696   21.3813 C   0  0  0  0  0  0  0  0  0  0  0  0
    8.1349    1.6073   20.5400 O   0  0  0  0  0  0  0  0  0  0  0  0
    6.8726   -0.3806   21.0048 C   0  0  0  0  0  0  0  0  0  0  0  0
    5.9318   -0.0576   19.8928 C   0  0  0  0  0  0  0  0  0  0  0  0
    6.3958   -0.1188   18.6051 C   0  0  0  0  0  0  0  0  0  0  0  0
    5.7536    0.3712   17.5196 N   0  0  0  0  0  0  0  0  0  0  0  0
    4.5728    0.8962   17.7254 C   0  0  0  0  0  0  0  0  0  0  0  0
    3.9546    0.9981   19.0008 C   0  0  0  0  0  0  0  0  0  0  0  0
    2.6958    1.6257   19.1741 C   0  0  0  0  0  0  0  0  0  0  0  0
    2.1129    1.6888   20.4051 C   0  0  0  0  0  0  0  0  0  0  0  0
    2.7696    1.1439   21.5301 C   0  0  0  0  0  0  0  0  0  0  0  0
    4.0098    0.5624   21.4018 C   0  0  0  0  0  0  0  0  0  0  0  0
    4.6370    0.4818   20.1280 C   0  0  0  0  0  0  0  0  0  0  0  0
    4.5143    0.1770   22.2863 H   0  0  0  0  0  0  0  0  0  0  0  0
    2.3014    1.2072   22.5076 H   0  0  0  0  0  0  0  0  0  0  0  0
    1.1468    2.1713   20.5394 H   0  0  0  0  0  0  0  0  0  0  0  0
    2.2209    2.0673   18.3031 H   0  0  0  0  0  0  0  0  0  0  0  0
    4.0475    1.2853   16.8528 H   0  0  0  0  0  0  0  0  0  0  0  0
    7.3618   -0.5800   18.4084 H   0  0  0  0  0  0  0  0  0  0  0  0
    7.5859   -1.1325   20.6398 H   0  0  0  0  0  0  0  0  0  0  0  0
    6.3759   -0.7850   21.8869 H   0  0  0  0  0  0  0  0  0  0  0  0
    7.8863    0.0815   23.6669 N   0  0  0  0  0  0  0  0  0  0  0  0
    8.7678   -1.0495   23.4468 C   0  0  0  0  0  0  0  0  0  0  0  0
    9.5838   -1.0833   24.1858 H   0  0  0  0  0  0  0  0  0  0  0  0
    8.2090   -1.9942   23.5147 H   0  0  0  0  0  0  0  0  0  0  0  0
    9.2048   -0.9731   22.4488 H   0  0  0  0  0  0  0  0  0  0  0  0
    7.0166    0.1141   24.7530 C   0  0  0  0  0  0  0  0  0  0  0  0
    5.9826    1.0623   24.8303 C   0  0  0  0  0  0  0  0  0  0  0  0
    5.1996    1.1484   25.9735 C   0  0  0  0  0  0  0  0  0  0  0  0
    5.3840    0.2778   27.0431 C   0  0  0  0  0  0  0  0  0  0  0  0
    6.3594   -0.6997   26.9250 C   0  0  0  0  0  0  0  0  0  0  0  0
    6.5714   -1.8452   28.2191 Cl  0  0  0  0  0  0  0  0  0  0  0  0
    7.1703   -0.8002   25.8034 C   0  0  0  0  0  0  0  0  0  0  0  0
    7.9155   -1.5859   25.7632 H   0  0  0  0  0  0  0  0  0  0  0  0
    4.7873    0.3436   27.9470 H   0  0  0  0  0  0  0  0  0  0  0  0
    4.4298    1.9121   26.0405 H   0  0  0  0  0  0  0  0  0  0  0  0
    5.8001    1.7232   23.9896 H   0  0  0  0  0  0  0  0  0  0  0  0
    7.8066    3.5771   22.6928 C   0  0  0  0  0  0  0  0  0  0  0  0
    8.2601    4.8097   23.1971 C   0  0  0  0  0  0  0  0  0  0  0  0
    7.0004    3.5332   21.9649 H   0  0  0  0  0  0  0  0  0  0  0  0
    9.9569    1.4713   24.2782 H   0  0  0  0  0  0  0  0  0  0  0  0
   10.7978    3.6767   25.1359 H   0  0  0  0  0  0  0  0  0  0  0  0
    9.0030    6.4220   25.4996 H   0  0  0  0  0  0  0  0  0  0  0  0
   10.7019    6.0090   25.2477 H   0  0  0  0  0  0  0  0  0  0  0  0
   10.5109    6.9346   22.8857 H   0  0  0  0  0  0  0  0  0  0  0  0
   10.0983    8.1675   24.0849 H   0  0  0  0  0  0  0  0  0  0  0  0
    7.7684    7.8934   23.8007 H   0  0  0  0  0  0  0  0  0  0  0  0
    8.3802    7.9341   22.1452 H   0  0  0  0  0  0  0  0  0  0  0  0
    5.5221    5.0054   23.4471 H   0  0  0  0  0  0  0  0  0  0  0  0
    5.1493    4.6584   21.7597 H   0  0  0  0  0  0  0  0  0  0  0  0
    3.2298    5.8740   22.6502 H   0  0  0  0  0  0  0  0  0  0  0  0
    4.0965    6.9367   21.5247 H   0  0  0  0  0  0  0  0  0  0  0  0
    4.2530    7.1824   23.2723 H   0  0  0  0  0  0  0  0  0  0  0  0
  1  2  1  0
  2  3  1  0
  3  4  2  0
  3  5  1  0
  5  6  1  0
  6  7  1  0
  7  8  1  0
  8  9  1  0
  9 10  2  0
 10 11  1  0
 11 12  2  0
 12 13  1  0
 13 14  1  0
 14 15  2  0
 14 16  1  0
 16 17  1  0
 17 18  2  0
 18 19  1  0
 19 20  2  0
 20 21  1  0
 21 22  2  0
 22 23  1  0
 23 24  2  0
 24 25  1  0
 25 26  2  0
 25 27  1  0
 24 28  1  0
 23 29  1  0
 22 30  1  0
 20 31  1  0
 18 32  1  0
 16 33  1  0
 16 34  1  0
 13 35  1  0
 35 36  1  0
 36 37  1  0
 36 38  1  0
 36 39  1  0
 35 40  1  0
 40 41  2  0
 41 42  1  0
 42 43  2  0
 43 44  1  0
 44 45  1  0
 44 46  2  0
 46 47  1  0
 43 48  1  0
 42 49  1  0
 41 50  1  0
 12 51  1  0
 51 52  2  0
 51 53  1  0
 11 54  1  0
 10 55  1  0
  8 56  1  0
  8 57  1  0
  7 58  1  0
  7 59  1  0
  6 60  1  0
  6 61  1  0
  2 62  1  0
  2 63  1  0
  1 64  1  0
  1 65  1  0
  1 66  1  0
 52  5  1  0
 52  9  1  0
 26 17  1  0
 46 40  1  0
 26 21  1  0
M  END
>  <cnnaffinities>  (21) 
[6.97607]

>  <score>  (21) 
6.97607

>  <index>  (21) 
20

>  <Smiles>  (21) 
C(C(C(=O)N1C(C(C(c2c(c(c(N(C(=O)C(c3c(nc(c4c(c(c(c(c34)[H])[H])[H])[H])[H])[H])([H])[H])N(C([H])([H])[H])c3c(c(c(c(Cl)c3[H])[H])[H])[H])c(c12)[H])[H])[H])([H])[H])([H])[H])([H])[H])([H])[H])([H])([H])[H]

>  <h>  (21) 
<NA>

>  <Training>  (21) 
True

>  <Success>  (21) 
True

>  <enamine_searched>  (21) 
False

>  <enamine_id>  (21) 
nan

$$$$

     RDKit          3D

 59 64  0  0  0  0  0  0  0  0999 V2000
    7.7781   -3.0607   23.2557 C   0  0  0  0  0  0  0  0  0  0  0  0
    8.0194   -1.9581   22.2315 C   0  0  1  0  0  0  0  0  0  0  0  0
    6.8263   -1.8433   21.2703 C   0  0  0  0  0  0  0  0  0  0  0  0
    6.8277   -0.4500   20.8998 N   0  0  0  0  0  0  0  0  0  0  0  0
    6.0190    0.0462   19.8508 C   0  0  0  0  0  0  0  0  0  0  0  0
    6.4167   -0.1497   18.5526 C   0  0  0  0  0  0  0  0  0  0  0  0
    5.7528    0.3072   17.4644 N   0  0  0  0  0  0  0  0  0  0  0  0
    4.6325    0.9482   17.6767 C   0  0  0  0  0  0  0  0  0  0  0  0
    4.0701    1.1644   18.9656 C   0  0  0  0  0  0  0  0  0  0  0  0
    2.8283    1.8344   19.1281 C   0  0  0  0  0  0  0  0  0  0  0  0
    2.2515    1.9432   20.3606 C   0  0  0  0  0  0  0  0  0  0  0  0
    2.8927    1.3834   21.4901 C   0  0  0  0  0  0  0  0  0  0  0  0
    4.1109    0.7533   21.3645 C   0  0  0  0  0  0  0  0  0  0  0  0
    4.7515    0.6649   20.0982 C   0  0  0  0  0  0  0  0  0  0  0  0
    4.5868    0.3193   22.2356 H   0  0  0  0  0  0  0  0  0  0  0  0
    2.4336    1.4814   22.4642 H   0  0  0  0  0  0  0  0  0  0  0  0
    1.3110    2.4755   20.4897 H   0  0  0  0  0  0  0  0  0  0  0  0
    2.3390    2.2335   18.2469 H   0  0  0  0  0  0  0  0  0  0  0  0
    4.1202    1.3560   16.8057 H   0  0  0  0  0  0  0  0  0  0  0  0
    7.3390   -0.6843   18.3394 H   0  0  0  0  0  0  0  0  0  0  0  0
    7.6405    0.3565   21.6660 C   0  0  0  0  0  0  0  0  0  0  0  0
    7.7637    1.5516   21.4967 O   0  0  0  0  0  0  0  0  0  0  0  0
    8.2585   -0.5051   22.7871 C   0  0  1  0  0  0  0  0  0  0  0  0
    7.4390   -0.1490   24.0476 C   0  0  0  0  0  0  0  0  0  0  0  0
    8.0265   -0.6815   25.2698 N   0  0  0  0  0  0  0  0  0  0  0  0
    7.1503   -1.0555   26.3813 C   0  0  0  0  0  0  0  0  0  0  0  0
    6.6934    0.0827   27.2605 C   0  0  0  0  0  0  0  0  0  0  0  0
    5.6261    0.9855   27.0668 C   0  0  0  0  0  0  0  0  0  0  0  0
    5.5638    1.8879   28.0349 N   0  0  0  0  0  0  0  0  0  0  0  0
    6.5807    1.5910   28.8501 N   0  0  0  0  0  0  0  0  0  0  0  0
    6.7838    2.3867   30.0375 C   0  0  0  0  0  0  0  0  0  0  0  0
    6.3338    1.9152   30.9131 H   0  0  0  0  0  0  0  0  0  0  0  0
    6.3078    3.3526   29.8700 H   0  0  0  0  0  0  0  0  0  0  0  0
    7.8438    2.5444   30.2265 H   0  0  0  0  0  0  0  0  0  0  0  0
    7.2740    0.5050   28.4338 C   0  0  0  0  0  0  0  0  0  0  0  0
    8.1283    0.0990   28.9654 H   0  0  0  0  0  0  0  0  0  0  0  0
    4.8838    1.0091   26.2760 H   0  0  0  0  0  0  0  0  0  0  0  0
    7.7013   -1.7879   26.9796 H   0  0  0  0  0  0  0  0  0  0  0  0
    6.2870   -1.5777   25.9481 H   0  0  0  0  0  0  0  0  0  0  0  0
    9.3353   -0.3975   25.5672 C   0  0  0  0  0  0  0  0  0  0  0  0
    9.7705   -0.3499   26.7106 O   0  0  0  0  0  0  0  0  0  0  0  0
   10.2230   -0.1872   24.3904 C   0  0  0  0  0  0  0  0  0  0  0  0
   11.5810   -0.0036   24.6584 C   0  0  0  0  0  0  0  0  0  0  0  0
   12.4639    0.2573   23.6316 C   0  0  0  0  0  0  0  0  0  0  0  0
   11.9614    0.3116   22.3365 C   0  0  0  0  0  0  0  0  0  0  0  0
   12.8329    0.6132   21.3595 F   0  0  0  0  0  0  0  0  0  0  0  0
   10.6276    0.0808   22.0381 C   0  0  0  0  0  0  0  0  0  0  0  0
    9.7225   -0.1845   23.0776 C   0  0  0  0  0  0  0  0  0  0  0  0
   10.2945    0.1199   21.0069 H   0  0  0  0  0  0  0  0  0  0  0  0
   13.5223    0.4183   23.8012 H   0  0  0  0  0  0  0  0  0  0  0  0
   11.9205   -0.0707   25.6887 H   0  0  0  0  0  0  0  0  0  0  0  0
    6.4115   -0.5243   23.9445 H   0  0  0  0  0  0  0  0  0  0  0  0
    7.3948    0.9503   24.0827 H   0  0  0  0  0  0  0  0  0  0  0  0
    5.8835   -2.1299   21.7650 H   0  0  0  0  0  0  0  0  0  0  0  0
    6.9080   -2.4801   20.3825 H   0  0  0  0  0  0  0  0  0  0  0  0
    8.9113   -2.1988   21.6362 H   0  0  0  0  0  0  0  0  0  0  0  0
    8.5906   -3.1289   23.9805 H   0  0  0  0  0  0  0  0  0  0  0  0
    6.8486   -2.8743   23.8078 H   0  0  0  0  0  0  0  0  0  0  0  0
    7.6712   -4.0298   22.7561 H   0  0  0  0  0  0  0  0  0  0  0  0
  1  2  1  0
  2  3  1  0
  3  4  1  0
  4  5  1  0
  5  6  2  0
  6  7  1  0
  7  8  2  0
  8  9  1  0
  9 10  2  0
 10 11  1  0
 11 12  2  0
 12 13  1  0
 13 14  2  0
 13 15  1  0
 12 16  1  0
 11 17  1  0
 10 18  1  0
  8 19  1  0
  6 20  1  0
  4 21  1  0
 21 22  2  0
 21 23  1  0
 23 24  1  1
 24 25  1  0
 25 26  1  0
 26 27  1  0
 27 28  1  0
 28 29  2  0
 29 30  1  0
 30 31  1  0
 31 32  1  0
 31 33  1  0
 31 34  1  0
 30 35  1  0
 35 36  1  0
 28 37  1  0
 26 38  1  0
 26 39  1  0
 25 40  1  0
 40 41  2  0
 40 42  1  0
 42 43  2  0
 43 44  1  0
 44 45  2  0
 45 46  1  0
 45 47  1  0
 47 48  2  0
 47 49  1  0
 44 50  1  0
 43 51  1  0
 24 52  1  0
 24 53  1  0
  3 54  1  0
  3 55  1  0
  2 56  1  6
  1 57  1  0
  1 58  1  0
  1 59  1  0
 23  2  1  0
 35 27  2  0
 48 42  1  0
 14  5  1  0
 48 23  1  0
 14  9  1  0
M  END
>  <cnnaffinities>  (22) 
[6.6551, 6.61924, 6.44217]

>  <score>  (22) 
6.6551

>  <index>  (22) 
21

>  <Smiles>  (22) 
C([C@]1(C(N(c2c(nc(c3c(c(c(c(c23)[H])[H])[H])[H])[H])[H])C(=O)[C@]21C(N(C(c1c(nn(C([H])([H])[H])c1[H])[H])([H])[H])C(=O)c1c(c(c(F)c(c21)[H])[H])[H])([H])[H])([H])[H])[H])([H])([H])[H]

>  <h>  (22) 
<NA>

>  <Training>  (22) 
True

>  <Success>  (22) 
True

>  <enamine_searched>  (22) 
False

>  <enamine_id>  (22) 
nan

$$$$

     RDKit          3D

 41 44  0  0  0  0  0  0  0  0999 V2000
    7.9323    1.6796   20.9580 O   0  0  0  0  0  0  0  0  0  0  0  0
    7.9990    0.5219   21.3372 C   0  0  0  0  0  0  0  0  0  0  0  0
    6.9370   -0.5224   20.9559 C   0  0  0  0  0  0  0  0  0  0  0  0
    6.0108   -0.0493   19.8717 C   0  0  0  0  0  0  0  0  0  0  0  0
    6.4203   -0.1699   18.5680 C   0  0  0  0  0  0  0  0  0  0  0  0
    5.7688    0.3126   17.4835 N   0  0  0  0  0  0  0  0  0  0  0  0
    4.6481    0.9529   17.7006 C   0  0  0  0  0  0  0  0  0  0  0  0
    4.0780    1.1390   18.9886 C   0  0  0  0  0  0  0  0  0  0  0  0
    2.8449    1.8158   19.1588 C   0  0  0  0  0  0  0  0  0  0  0  0
    2.2702    1.9127   20.3925 C   0  0  0  0  0  0  0  0  0  0  0  0
    2.9219    1.3494   21.5174 C   0  0  0  0  0  0  0  0  0  0  0  0
    4.1312    0.7109   21.3795 C   0  0  0  0  0  0  0  0  0  0  0  0
    4.7572    0.5990   20.1113 C   0  0  0  0  0  0  0  0  0  0  0  0
    4.6269    0.2980   22.2520 H   0  0  0  0  0  0  0  0  0  0  0  0
    2.4590    1.4304   22.4952 H   0  0  0  0  0  0  0  0  0  0  0  0
    1.3324    2.4484   20.5247 H   0  0  0  0  0  0  0  0  0  0  0  0
    2.3548    2.2185   18.2747 H   0  0  0  0  0  0  0  0  0  0  0  0
    4.1445    1.3799   16.8327 H   0  0  0  0  0  0  0  0  0  0  0  0
    7.3744   -0.6457   18.3478 H   0  0  0  0  0  0  0  0  0  0  0  0
    6.3929   -0.8158   21.8617 H   0  0  0  0  0  0  0  0  0  0  0  0
    7.4767   -1.4124   20.6021 H   0  0  0  0  0  0  0  0  0  0  0  0
    9.0278    0.0735   22.1204 N   0  0  0  0  0  0  0  0  0  0  0  0
    9.1451   -1.3099   22.5728 C   0  0  0  0  0  0  0  0  0  0  0  0
   10.0167   -1.4055   23.8216 C   0  0  0  0  0  0  0  0  0  0  0  0
   11.3635   -0.7985   23.5404 C   0  0  0  0  0  0  0  0  0  0  0  0
   12.5772   -1.3157   23.9742 C   0  0  0  0  0  0  0  0  0  0  0  0
   12.6200   -2.7496   24.9716 Cl  0  0  0  0  0  0  0  0  0  0  0  0
   13.7811   -0.7256   23.6164 C   0  0  0  0  0  0  0  0  0  0  0  0
   13.7792    0.3897   22.7848 C   0  0  0  0  0  0  0  0  0  0  0  0
   12.5728    0.9440   22.3703 C   0  0  0  0  0  0  0  0  0  0  0  0
   11.3722    0.3827   22.7886 C   0  0  0  0  0  0  0  0  0  0  0  0
   10.0345    1.0395   22.5583 C   0  0  0  0  0  0  0  0  0  0  0  0
    9.6990    1.4945   23.5065 H   0  0  0  0  0  0  0  0  0  0  0  0
   10.1166    1.8420   21.8216 H   0  0  0  0  0  0  0  0  0  0  0  0
   12.5728    1.8260   21.7307 H   0  0  0  0  0  0  0  0  0  0  0  0
   14.7163    0.8396   22.4742 H   0  0  0  0  0  0  0  0  0  0  0  0
   14.6919   -1.1582   24.0011 H   0  0  0  0  0  0  0  0  0  0  0  0
   10.1159   -2.4529   24.1109 H   0  0  0  0  0  0  0  0  0  0  0  0
    9.5351   -0.8800   24.6583 H   0  0  0  0  0  0  0  0  0  0  0  0
    9.5912   -1.9325   21.7819 H   0  0  0  0  0  0  0  0  0  0  0  0
    8.1557   -1.7193   22.8007 H   0  0  0  0  0  0  0  0  0  0  0  0
  1  2  2  0
  2  3  1  0
  3  4  1  0
  4  5  2  0
  5  6  1  0
  6  7  2  0
  7  8  1  0
  8  9  2  0
  9 10  1  0
 10 11  2  0
 11 12  1  0
 12 13  2  0
 12 14  1  0
 11 15  1  0
 10 16  1  0
  9 17  1  0
  7 18  1  0
  5 19  1  0
  3 20  1  0
  3 21  1  0
  2 22  1  0
 22 23  1  0
 23 24  1  0
 24 25  1  0
 25 26  2  0
 26 27  1  0
 26 28  1  0
 28 29  2  0
 29 30  1  0
 30 31  2  0
 31 32  1  0
 32 33  1  0
 32 34  1  0
 30 35  1  0
 29 36  1  0
 28 37  1  0
 24 38  1  0
 24 39  1  0
 23 40  1  0
 23 41  1  0
 13  4  1  0
 32 22  1  0
 13  8  1  0
 31 25  1  0
M  END
>  <cnnaffinities>  (23) 
[5.97384]

>  <score>  (23) 
5.97384

>  <index>  (23) 
22

>  <Smiles>  (23) 
O=C(C(c1c(nc(c2c(c(c(c(c12)[H])[H])[H])[H])[H])[H])([H])[H])N1C(C(c2c(Cl)c(c(c(c2C1([H])[H])[H])[H])[H])([H])[H])([H])[H]

>  <h>  (23) 
<NA>

>  <Training>  (23) 
True

>  <Success>  (23) 
True

>  <enamine_searched>  (23) 
False

>  <enamine_id>  (23) 
nan

$$$$

     RDKit          3D

 69 74  0  0  0  0  0  0  0  0999 V2000
    8.7861    7.6067   24.3458 C   0  0  0  0  0  0  0  0  0  0  0  0
    8.3094    6.3891   23.5736 C   0  0  1  0  0  0  0  0  0  0  0  0
    7.8375    5.2437   24.4655 C   0  0  0  0  0  0  0  0  0  0  0  0
    7.2636    4.0906   23.6631 N   0  0  1  0  0  4  0  0  0  0  0  0
    6.6801    3.0483   24.5592 C   0  0  0  0  0  0  0  0  0  0  0  0
    7.7461    2.3037   25.3587 C   0  0  0  0  0  0  0  0  0  0  0  0
    8.5717    1.4746   24.4971 N   0  0  0  0  0  0  0  0  0  0  0  0
    8.0837    0.1403   24.1939 C   0  0  0  0  0  0  0  0  0  0  0  0
    8.3853   -0.2782   22.7392 C   0  0  2  0  0  0  0  0  0  0  0  0
    7.5276    0.5525   21.7548 C   0  0  0  0  0  0  0  0  0  0  0  0
    7.4646    1.7685   21.7149 O   0  0  0  0  0  0  0  0  0  0  0  0
    6.8473   -0.3206   20.9371 N   0  0  0  0  0  0  0  0  0  0  0  0
    6.0312    0.0890   19.8650 C   0  0  0  0  0  0  0  0  0  0  0  0
    6.4015   -0.1740   18.5728 C   0  0  0  0  0  0  0  0  0  0  0  0
    5.7309    0.2566   17.4846 N   0  0  0  0  0  0  0  0  0  0  0  0
    4.6446    0.9583   17.6831 C   0  0  0  0  0  0  0  0  0  0  0  0
    4.0940    1.2086   18.9678 C   0  0  0  0  0  0  0  0  0  0  0  0
    2.8664    1.9021   19.1283 C   0  0  0  0  0  0  0  0  0  0  0  0
    2.2957    2.0292   20.3639 C   0  0  0  0  0  0  0  0  0  0  0  0
    2.9240    1.4666   21.4981 C   0  0  0  0  0  0  0  0  0  0  0  0
    4.1272    0.8169   21.3690 C   0  0  0  0  0  0  0  0  0  0  0  0
    4.7687    0.7136   20.1028 C   0  0  0  0  0  0  0  0  0  0  0  0
    4.6075    0.3787   22.2362 H   0  0  0  0  0  0  0  0  0  0  0  0
    2.4694    1.5890   22.4763 H   0  0  0  0  0  0  0  0  0  0  0  0
    1.3722    2.5901   20.4816 H   0  0  0  0  0  0  0  0  0  0  0  0
    2.3817    2.2888   18.2363 H   0  0  0  0  0  0  0  0  0  0  0  0
    4.1448    1.3465   16.7997 H   0  0  0  0  0  0  0  0  0  0  0  0
    7.3248   -0.7071   18.3603 H   0  0  0  0  0  0  0  0  0  0  0  0
    7.3270   -1.6835   21.0239 C   0  0  0  0  0  0  0  0  0  0  0  0
    7.9850   -1.7566   22.4133 C   0  0  2  0  0  0  0  0  0  0  0  0
    7.1083   -2.4653   23.4408 C   0  0  0  0  0  0  0  0  0  0  0  0
    7.6324   -2.5404   24.3978 H   0  0  0  0  0  0  0  0  0  0  0  0
    6.1527   -1.9585   23.6017 H   0  0  0  0  0  0  0  0  0  0  0  0
    6.9087   -3.4863   23.1001 H   0  0  0  0  0  0  0  0  0  0  0  0
    8.8856   -2.3719   22.3616 H   0  0  0  0  0  0  0  0  0  0  0  0
    6.4947   -2.3852   20.8993 H   0  0  0  0  0  0  0  0  0  0  0  0
    8.0554   -1.8869   20.2266 H   0  0  0  0  0  0  0  0  0  0  0  0
    9.8659   -0.0175   22.5115 C   0  0  0  0  0  0  0  0  0  0  0  0
   10.6080   -0.8686   21.6982 C   0  0  0  0  0  0  0  0  0  0  0  0
   11.9693   -0.7083   21.5790 C   0  0  0  0  0  0  0  0  0  0  0  0
   12.8137   -1.9682   20.7465 Cl  0  0  0  0  0  0  0  0  0  0  0  0
   12.6384    0.3876   22.1221 C   0  0  0  0  0  0  0  0  0  0  0  0
   11.8943    1.2781   22.8805 C   0  0  0  0  0  0  0  0  0  0  0  0
   10.5337    1.0523   23.1265 C   0  0  0  0  0  0  0  0  0  0  0  0
    9.8077    1.9129   24.1205 C   0  0  0  0  0  0  0  0  0  0  0  0
   10.3065    2.9424   24.5696 O   0  0  0  0  0  0  0  0  0  0  0  0
   12.3728    2.1414   23.3370 H   0  0  0  0  0  0  0  0  0  0  0  0
   13.7070    0.5164   21.9666 H   0  0  0  0  0  0  0  0  0  0  0  0
   10.1580   -1.7072   21.1786 H   0  0  0  0  0  0  0  0  0  0  0  0
    8.5297   -0.5919   24.8841 H   0  0  0  0  0  0  0  0  0  0  0  0
    7.0064    0.1335   24.3597 H   0  0  0  0  0  0  0  0  0  0  0  0
    7.2607    1.6663   26.1049 H   0  0  0  0  0  0  0  0  0  0  0  0
    8.4053    2.9890   25.8905 H   0  0  0  0  0  0  0  0  0  0  0  0
    5.9527    3.5178   25.2341 H   0  0  0  0  0  0  0  0  0  0  0  0
    6.1381    2.3342   23.9303 H   0  0  0  0  0  0  0  0  0  0  0  0
    6.2424    4.6128   22.6852 C   0  0  0  0  0  0  0  0  0  0  0  0
    6.8171    5.7820   21.9031 C   0  0  0  0  0  0  0  0  0  0  0  0
    7.2420    6.8269   22.7470 O   0  0  0  0  0  0  0  0  0  0  0  0
    6.0664    6.1944   21.2202 H   0  0  0  0  0  0  0  0  0  0  0  0
    7.6782    5.4217   21.3167 H   0  0  0  0  0  0  0  0  0  0  0  0
    5.9709    3.8016   22.0054 H   0  0  0  0  0  0  0  0  0  0  0  0
    5.3511    4.9309   23.2386 H   0  0  0  0  0  0  0  0  0  0  0  0
    7.9918    3.6233   23.0869 H   0  0  0  0  0  0  0  0  0  0  0  0
    7.0535    5.6143   25.1391 H   0  0  0  0  0  0  0  0  0  0  0  0
    8.6725    4.8804   25.0637 H   0  0  0  0  0  0  0  0  0  0  0  0
    9.1278    6.0149   22.9314 H   0  0  0  0  0  0  0  0  0  0  0  0
    9.6114    7.3669   25.0257 H   0  0  0  0  0  0  0  0  0  0  0  0
    9.1312    8.3649   23.6359 H   0  0  0  0  0  0  0  0  0  0  0  0
    7.9574    8.0260   24.9269 H   0  0  0  0  0  0  0  0  0  0  0  0
  1  2  1  0
  2  3  1  0
  3  4  1  0
  4  5  1  0
  5  6  1  0
  6  7  1  0
  7  8  1  0
  9  8  1  1
  9 10  1  0
 10 11  2  0
 10 12  1  0
 12 13  1  0
 13 14  2  0
 14 15  1  0
 15 16  2  0
 16 17  1  0
 17 18  2  0
 18 19  1  0
 19 20  2  0
 20 21  1  0
 21 22  2  0
 21 23  1  0
 20 24  1  0
 19 25  1  0
 18 26  1  0
 16 27  1  0
 14 28  1  0
 12 29  1  0
 29 30  1  0
 30 31  1  0
 31 32  1  0
 31 33  1  0
 31 34  1  0
 30 35  1  6
 29 36  1  0
 29 37  1  0
  9 38  1  0
 38 39  2  0
 39 40  1  0
 40 41  1  0
 40 42  2  0
 42 43  1  0
 43 44  2  0
 44 45  1  0
 45 46  2  0
 43 47  1  0
 42 48  1  0
 39 49  1  0
  8 50  1  0
  8 51  1  0
  6 52  1  0
  6 53  1  0
  5 54  1  0
  5 55  1  0
  4 56  1  0
 56 57  1  0
 57 58  1  0
 57 59  1  0
 57 60  1  0
 56 61  1  0
 56 62  1  0
  4 63  1  6
  3 64  1  0
  3 65  1  0
  2 66  1  6
  1 67  1  0
  1 68  1  0
  1 69  1  0
 58  2  1  0
 45  7  1  0
 30  9  1  0
 44 38  1  0
 22 13  1  0
 22 17  1  0
M  CHG  1   4   1
M  END
>  <cnnaffinities>  (24) 
[6.43351]

>  <score>  (24) 
6.43351

>  <index>  (24) 
23

>  <Smiles>  (24) 
C([C@]1(C([N@@+](C(C(N2C([C@@]3(C(=O)N(c4c(nc(c5c(c(c(c(c45)[H])[H])[H])[H])[H])[H])C([C@@]3(C([H])([H])[H])[H])([H])[H])c3c(c(Cl)c(c(c3C2=O)[H])[H])[H])([H])[H])([H])[H])([H])[H])(C(C(O1)([H])[H])([H])[H])[H])([H])[H])[H])([H])([H])[H]

>  <h>  (24) 
<NA>

>  <Training>  (24) 
True

>  <Success>  (24) 
True

>  <enamine_searched>  (24) 
False

>  <enamine_id>  (24) 
nan

$$$$

     RDKit          3D

 70 75  0  0  0  0  0  0  0  0999 V2000
    9.7172    4.7237   22.4275 C   0  0  0  0  0  0  0  0  0  0  0  0
    8.7916    3.6297   22.0414 N   0  0  0  0  0  4  0  0  0  0  0  0
    7.7508    3.3648   23.0700 C   0  0  0  0  0  0  0  0  0  0  0  0
    8.3619    2.7025   24.3105 C   0  0  0  0  0  0  0  0  0  0  0  0
    9.0309    1.4560   23.9650 N   0  0  0  0  0  0  0  0  0  0  0  0
    8.2258    0.2629   23.8067 C   0  0  0  0  0  0  0  0  0  0  0  0
    8.5514   -0.5023   22.4973 C   0  0  2  0  0  0  0  0  0  0  0  0
    7.9314    0.2880   21.3219 C   0  0  0  0  0  0  0  0  0  0  0  0
    8.3927    1.3288   20.8759 O   0  0  0  0  0  0  0  0  0  0  0  0
    6.7665   -0.3260   20.9270 N   0  0  0  0  0  0  0  0  0  0  0  0
    5.9413    0.1107   19.8467 C   0  0  0  0  0  0  0  0  0  0  0  0
    6.4356    0.1597   18.5689 C   0  0  0  0  0  0  0  0  0  0  0  0
    5.7159    0.5479   17.4830 N   0  0  0  0  0  0  0  0  0  0  0  0
    4.4872    0.9590   17.6680 C   0  0  0  0  0  0  0  0  0  0  0  0
    3.8364    0.9592   18.9360 C   0  0  0  0  0  0  0  0  0  0  0  0
    2.5129    1.4602   19.1081 C   0  0  0  0  0  0  0  0  0  0  0  0
    1.9202    1.4483   20.3439 C   0  0  0  0  0  0  0  0  0  0  0  0
    2.6204    0.9194   21.4519 C   0  0  0  0  0  0  0  0  0  0  0  0
    3.8983    0.4295   21.3106 C   0  0  0  0  0  0  0  0  0  0  0  0
    4.5593    0.4637   20.0509 C   0  0  0  0  0  0  0  0  0  0  0  0
    4.4446    0.0738   22.1781 H   0  0  0  0  0  0  0  0  0  0  0  0
    2.1443    0.8978   22.4301 H   0  0  0  0  0  0  0  0  0  0  0  0
    0.9201    1.8567   20.4862 H   0  0  0  0  0  0  0  0  0  0  0  0
    2.0224    1.9310   18.2592 H   0  0  0  0  0  0  0  0  0  0  0  0
    3.9344    1.2783   16.7805 H   0  0  0  0  0  0  0  0  0  0  0  0
    7.4458   -0.1935   18.3617 H   0  0  0  0  0  0  0  0  0  0  0  0
    6.5169   -1.5730   21.6333 C   0  0  0  0  0  0  0  0  0  0  0  0
    7.8048   -1.8615   22.4181 C   0  0  2  0  0  0  0  0  0  0  0  0
    7.5283   -2.5679   23.7570 C   0  0  0  0  0  0  0  0  0  0  0  0
    6.8637   -3.8016   23.5705 O   0  0  0  0  0  0  0  0  0  0  0  0
    7.7174   -4.9286   23.6225 C   0  0  0  0  0  0  0  0  0  0  0  0
    6.9368   -6.1461   23.1684 C   0  0  0  0  0  0  0  0  0  0  0  0
    6.1957   -6.0208   21.8299 C   0  0  0  0  0  0  0  0  0  0  0  0
    4.9182   -6.1733   22.4565 O   0  0  0  0  0  0  0  0  0  0  0  0
    5.5249   -6.3039   23.7487 C   0  0  0  0  0  0  0  0  0  0  0  0
    5.2968   -7.2757   24.2026 H   0  0  0  0  0  0  0  0  0  0  0  0
    5.2202   -5.4940   24.4181 H   0  0  0  0  0  0  0  0  0  0  0  0
    6.3874   -6.8179   21.1017 H   0  0  0  0  0  0  0  0  0  0  0  0
    6.2919   -5.0436   21.3450 H   0  0  0  0  0  0  0  0  0  0  0  0
    7.5676   -7.0348   23.2567 H   0  0  0  0  0  0  0  0  0  0  0  0
    8.5939   -4.7699   22.9720 H   0  0  0  0  0  0  0  0  0  0  0  0
    8.0891   -5.0793   24.6497 H   0  0  0  0  0  0  0  0  0  0  0  0
    6.8612   -1.9516   24.3753 H   0  0  0  0  0  0  0  0  0  0  0  0
    8.4662   -2.7141   24.3192 H   0  0  0  0  0  0  0  0  0  0  0  0
    8.4139   -2.5461   21.8249 H   0  0  0  0  0  0  0  0  0  0  0  0
    6.2702   -2.3641   20.9206 H   0  0  0  0  0  0  0  0  0  0  0  0
    5.6787   -1.4847   22.3280 H   0  0  0  0  0  0  0  0  0  0  0  0
   10.0539   -0.6078   22.3457 C   0  0  0  0  0  0  0  0  0  0  0  0
   10.6114   -1.5313   21.4517 C   0  0  0  0  0  0  0  0  0  0  0  0
   11.9829   -1.6334   21.3199 C   0  0  0  0  0  0  0  0  0  0  0  0
   12.6276   -2.8374   20.2436 Cl  0  0  0  0  0  0  0  0  0  0  0  0
   12.8475   -0.7963   22.0245 C   0  0  0  0  0  0  0  0  0  0  0  0
   12.3029    0.1618   22.8594 C   0  0  0  0  0  0  0  0  0  0  0  0
   10.9195    0.2716   23.0082 C   0  0  0  0  0  0  0  0  0  0  0  0
   10.3879    1.4140   23.8255 C   0  0  0  0  0  0  0  0  0  0  0  0
   11.1354    2.2728   24.2803 O   0  0  0  0  0  0  0  0  0  0  0  0
   12.9277    0.8619   23.4037 H   0  0  0  0  0  0  0  0  0  0  0  0
   13.9186   -0.8881   21.8848 H   0  0  0  0  0  0  0  0  0  0  0  0
    9.9846   -2.1570   20.8260 H   0  0  0  0  0  0  0  0  0  0  0  0
    8.3930   -0.4055   24.6603 H   0  0  0  0  0  0  0  0  0  0  0  0
    7.1706    0.5572   23.8038 H   0  0  0  0  0  0  0  0  0  0  0  0
    7.5768    2.4872   25.0432 H   0  0  0  0  0  0  0  0  0  0  0  0
    9.1070    3.3445   24.7832 H   0  0  0  0  0  0  0  0  0  0  0  0
    7.2489    4.2979   23.3481 H   0  0  0  0  0  0  0  0  0  0  0  0
    7.0078    2.7074   22.6158 H   0  0  0  0  0  0  0  0  0  0  0  0
    8.3557    3.8987   21.1420 H   0  0  0  0  0  0  0  0  0  0  0  0
    9.2430    2.7248   21.8146 H   0  0  0  0  0  0  0  0  0  0  0  0
   10.2422    5.1093   21.5531 H   0  0  0  0  0  0  0  0  0  0  0  0
   10.4518    4.3923   23.1615 H   0  0  0  0  0  0  0  0  0  0  0  0
    9.1439    5.5490   22.8687 H   0  0  0  0  0  0  0  0  0  0  0  0
  1  2  1  0
  2  3  1  0
  3  4  1  0
  4  5  1  0
  5  6  1  0
  7  6  1  1
  7  8  1  0
  8  9  2  0
  8 10  1  0
 10 11  1  0
 11 12  2  0
 12 13  1  0
 13 14  2  0
 14 15  1  0
 15 16  2  0
 16 17  1  0
 17 18  2  0
 18 19  1  0
 19 20  2  0
 19 21  1  0
 18 22  1  0
 17 23  1  0
 16 24  1  0
 14 25  1  0
 12 26  1  0
 10 27  1  0
 27 28  1  0
 28 29  1  0
 29 30  1  0
 30 31  1  0
 31 32  1  0
 32 33  1  0
 33 34  1  0
 34 35  1  0
 35 36  1  0
 35 37  1  0
 33 38  1  0
 33 39  1  0
 32 40  1  0
 31 41  1  0
 31 42  1  0
 29 43  1  0
 29 44  1  0
 28 45  1  6
 27 46  1  0
 27 47  1  0
  7 48  1  0
 48 49  2  0
 49 50  1  0
 50 51  1  0
 50 52  2  0
 52 53  1  0
 53 54  2  0
 54 55  1  0
 55 56  2  0
 53 57  1  0
 52 58  1  0
 49 59  1  0
  6 60  1  0
  6 61  1  0
  4 62  1  0
  4 63  1  0
  3 64  1  0
  3 65  1  0
  2 66  1  0
  2 67  1  0
  1 68  1  0
  1 69  1  0
  1 70  1  0
 55  5  1  0
 28  7  1  0
 35 32  1  0
 54 48  1  0
 20 11  1  0
 20 15  1  0
M  CHG  1   2   1
M  END
>  <cnnaffinities>  (25) 
[6.77259]

>  <score>  (25) 
6.77259

>  <index>  (25) 
24

>  <Smiles>  (25) 
C([N+](C(C(N1C([C@@]2(C(=O)N(c3c(nc(c4c(c(c(c(c34)[H])[H])[H])[H])[H])[H])C([C@@]2(C(OC(C2(C(OC2([H])[H])([H])[H])[H])([H])[H])([H])[H])[H])([H])[H])c2c(c(Cl)c(c(c2C1=O)[H])[H])[H])([H])[H])([H])[H])([H])[H])([H])[H])([H])([H])[H]

>  <h>  (25) 
<NA>

>  <Training>  (25) 
True

>  <Success>  (25) 
True

>  <enamine_searched>  (25) 
False

>  <enamine_id>  (25) 
nan

$$$$

     RDKit          3D

 68 73  0  0  0  0  0  0  0  0999 V2000
    7.8790   -8.4972   23.0569 C   0  0  0  0  0  0  0  0  0  0  0  0
    6.9560   -7.4043   22.8357 N   0  0  0  0  0  0  0  0  0  0  0  0
    7.1491   -6.5712   21.7811 C   0  0  0  0  0  0  0  0  0  0  0  0
    7.9666   -6.7782   20.9023 O   0  0  0  0  0  0  0  0  0  0  0  0
    6.2378   -5.3401   21.8177 C   0  0  0  0  0  0  0  0  0  0  0  0
    6.7369   -4.3537   22.7542 N   0  0  0  0  0  0  0  0  0  0  0  0
    7.7946   -3.4565   22.3406 C   0  0  0  0  0  0  0  0  0  0  0  0
    7.4353   -1.9929   22.6903 C   0  0  2  0  0  0  0  0  0  0  0  0
    6.2961   -1.5892   21.7327 C   0  0  0  0  0  0  0  0  0  0  0  0
    5.2057   -2.1240   21.6587 O   0  0  0  0  0  0  0  0  0  0  0  0
    6.7269   -0.5612   20.9210 N   0  0  0  0  0  0  0  0  0  0  0  0
    5.9510   -0.0314   19.8772 C   0  0  0  0  0  0  0  0  0  0  0  0
    6.4217   -0.0967   18.5873 C   0  0  0  0  0  0  0  0  0  0  0  0
    5.7602    0.3665   17.5056 N   0  0  0  0  0  0  0  0  0  0  0  0
    4.6179    0.9683   17.7129 C   0  0  0  0  0  0  0  0  0  0  0  0
    4.0240    1.1222   18.9959 C   0  0  0  0  0  0  0  0  0  0  0  0
    2.7539    1.7370   19.1403 C   0  0  0  0  0  0  0  0  0  0  0  0
    2.1659    1.8368   20.3693 C   0  0  0  0  0  0  0  0  0  0  0  0
    2.8031    1.2818   21.5005 C   0  0  0  0  0  0  0  0  0  0  0  0
    4.0223    0.6603   21.3905 C   0  0  0  0  0  0  0  0  0  0  0  0
    4.6783    0.5812   20.1236 C   0  0  0  0  0  0  0  0  0  0  0  0
    4.4706    0.2121   22.2727 H   0  0  0  0  0  0  0  0  0  0  0  0
    2.3218    1.3444   22.4698 H   0  0  0  0  0  0  0  0  0  0  0  0
    1.2123    2.3403   20.4864 H   0  0  0  0  0  0  0  0  0  0  0  0
    2.2692    2.1297   18.2534 H   0  0  0  0  0  0  0  0  0  0  0  0
    4.0938    1.3552   16.8390 H   0  0  0  0  0  0  0  0  0  0  0  0
    7.3672   -0.5903   18.3706 H   0  0  0  0  0  0  0  0  0  0  0  0
    8.1756   -0.4341   20.9391 C   0  0  0  0  0  0  0  0  0  0  0  0
    8.5651   -0.9967   22.3083 C   0  0  2  0  0  0  0  0  0  0  0  0
    9.9906   -1.5474   22.3100 C   0  0  0  0  0  0  0  0  0  0  0  0
   10.3049   -2.1211   23.5869 N   0  0  0  0  0  0  0  0  0  0  0  0
   11.5736   -2.5302   23.9452 C   0  0  0  0  0  0  0  0  0  0  0  0
   12.8459   -2.3544   23.3452 C   0  0  0  0  0  0  0  0  0  0  0  0
   13.8052   -2.9067   24.0861 N   0  0  0  0  0  0  0  0  0  0  0  0
   13.1811   -3.4211   25.1469 N   0  0  0  0  0  0  0  0  0  0  0  0
   13.9033   -4.1373   26.1702 C   0  0  0  0  0  0  0  0  0  0  0  0
   14.9428   -4.1852   25.8718 H   0  0  0  0  0  0  0  0  0  0  0  0
   13.5270   -5.1568   26.2800 H   0  0  0  0  0  0  0  0  0  0  0  0
   13.8279   -3.6232   27.1285 H   0  0  0  0  0  0  0  0  0  0  0  0
   11.8380   -3.2496   25.0897 C   0  0  0  0  0  0  0  0  0  0  0  0
   11.1538   -3.6610   25.8223 H   0  0  0  0  0  0  0  0  0  0  0  0
   13.1261   -1.8583   22.4252 H   0  0  0  0  0  0  0  0  0  0  0  0
    9.6578   -1.9779   24.3501 H   0  0  0  0  0  0  0  0  0  0  0  0
   10.7065   -0.7515   22.0547 H   0  0  0  0  0  0  0  0  0  0  0  0
   10.0856   -2.3084   21.5218 H   0  0  0  0  0  0  0  0  0  0  0  0
    8.5243   -0.1717   23.0218 H   0  0  0  0  0  0  0  0  0  0  0  0
    8.4576    0.6136   20.8140 H   0  0  0  0  0  0  0  0  0  0  0  0
    8.6482   -1.0172   20.1338 H   0  0  0  0  0  0  0  0  0  0  0  0
    6.9723   -1.9215   24.1392 C   0  0  0  0  0  0  0  0  0  0  0  0
    6.9356   -0.6990   24.8308 C   0  0  0  0  0  0  0  0  0  0  0  0
    6.4509   -0.6474   26.1261 C   0  0  0  0  0  0  0  0  0  0  0  0
    6.4112    0.8858   26.9557 Cl  0  0  0  0  0  0  0  0  0  0  0  0
    5.9872   -1.7909   26.7759 C   0  0  0  0  0  0  0  0  0  0  0  0
    5.9733   -2.9883   26.0859 C   0  0  0  0  0  0  0  0  0  0  0  0
    6.4347   -3.0558   24.7718 C   0  0  0  0  0  0  0  0  0  0  0  0
    6.2550   -4.3425   24.0241 C   0  0  0  0  0  0  0  0  0  0  0  0
    5.6658   -5.3171   24.4975 O   0  0  0  0  0  0  0  0  0  0  0  0
    5.5892   -3.8937   26.5426 H   0  0  0  0  0  0  0  0  0  0  0  0
    5.6222   -1.7230   27.7944 H   0  0  0  0  0  0  0  0  0  0  0  0
    7.2389    0.2319   24.3616 H   0  0  0  0  0  0  0  0  0  0  0  0
    7.8978   -3.5374   21.2618 H   0  0  0  0  0  0  0  0  0  0  0  0
    8.7485   -3.7424   22.7944 H   0  0  0  0  0  0  0  0  0  0  0  0
    6.1734   -4.8876   20.8234 H   0  0  0  0  0  0  0  0  0  0  0  0
    5.2293   -5.6187   22.1436 H   0  0  0  0  0  0  0  0  0  0  0  0
    6.4106   -7.0484   23.6135 H   0  0  0  0  0  0  0  0  0  0  0  0
    8.8789   -8.1387   23.3321 H   0  0  0  0  0  0  0  0  0  0  0  0
    7.9897   -9.0934   22.1494 H   0  0  0  0  0  0  0  0  0  0  0  0
    7.4823   -9.1341   23.8496 H   0  0  0  0  0  0  0  0  0  0  0  0
  1  2  1  0
  2  3  1  0
  3  4  2  0
  3  5  1  0
  5  6  1  0
  6  7  1  0
  8  7  1  6
  8  9  1  0
  9 10  2  0
  9 11  1  0
 11 12  1  0
 12 13  2  0
 13 14  1  0
 14 15  2  0
 15 16  1  0
 16 17  2  0
 17 18  1  0
 18 19  2  0
 19 20  1  0
 20 21  2  0
 20 22  1  0
 19 23  1  0
 18 24  1  0
 17 25  1  0
 15 26  1  0
 13 27  1  0
 11 28  1  0
 28 29  1  0
 29 30  1  0
 30 31  1  0
 31 32  1  0
 32 33  1  0
 33 34  2  0
 34 35  1  0
 35 36  1  0
 36 37  1  0
 36 38  1  0
 36 39  1  0
 35 40  1  0
 40 41  1  0
 33 42  1  0
 31 43  1  0
 30 44  1  0
 30 45  1  0
 29 46  1  1
 28 47  1  0
 28 48  1  0
  8 49  1  0
 49 50  2  0
 50 51  1  0
 51 52  1  0
 51 53  2  0
 53 54  1  0
 54 55  2  0
 55 56  1  0
 56 57  2  0
 54 58  1  0
 53 59  1  0
 50 60  1  0
  7 61  1  0
  7 62  1  0
  5 63  1  0
  5 64  1  0
  2 65  1  0
  1 66  1  0
  1 67  1  0
  1 68  1  0
 56  6  1  0
 29  8  1  0
 40 32  2  0
 55 49  1  0
 21 12  1  0
 21 16  1  0
M  END
>  <cnnaffinities>  (26) 
[7.50351, 6.84127, 6.82843]

>  <score>  (26) 
7.50351

>  <index>  (26) 
25

>  <Smiles>  (26) 
C(N(C(=O)C(N1C([C@@]2(C(=O)N(c3c(nc(c4c(c(c(c(c34)[H])[H])[H])[H])[H])[H])C([C@@]2(C(N(c2c(nn(C([H])([H])[H])c2[H])[H])[H])([H])[H])[H])([H])[H])c2c(c(Cl)c(c(c2C1=O)[H])[H])[H])([H])[H])([H])[H])[H])([H])([H])[H]

>  <h>  (26) 
<NA>

>  <Training>  (26) 
True

>  <Success>  (26) 
True

>  <enamine_searched>  (26) 
False

>  <enamine_id>  (26) 
nan

$$$$

     RDKit          3D

 43 47  0  0  0  0  0  0  0  0999 V2000
    8.7049    0.6789   20.6799 O   0  0  0  0  0  0  0  0  0  0  0  0
    8.1062   -0.2915   21.0860 C   0  0  0  0  0  0  0  0  0  0  0  0
    8.5887   -1.3639   21.7844 N   0  0  0  0  0  0  0  0  0  0  0  0
    7.5399   -2.1175   22.4367 C   0  0  1  0  0  0  0  0  0  0  0  0
    7.6095   -3.6524   22.4992 C   0  0  0  0  0  0  0  0  0  0  0  0
    7.6830   -3.5854   24.0531 C   0  0  2  0  0  0  0  0  0  0  0  0
    6.5762   -4.2877   24.7766 C   0  0  0  0  0  0  0  0  0  0  0  0
    5.2368   -4.0484   24.4411 C   0  0  0  0  0  0  0  0  0  0  0  0
    4.1959   -4.6928   25.0941 C   0  0  0  0  0  0  0  0  0  0  0  0
    4.4657   -5.5427   26.1590 C   0  0  0  0  0  0  0  0  0  0  0  0
    5.7803   -5.7235   26.5638 C   0  0  0  0  0  0  0  0  0  0  0  0
    6.8168   -5.1535   25.8366 C   0  0  0  0  0  0  0  0  0  0  0  0
    8.4529   -5.5796   26.2645 Cl  0  0  0  0  0  0  0  0  0  0  0  0
    6.0258   -6.2771   27.4551 H   0  0  0  0  0  0  0  0  0  0  0  0
    3.6474   -6.0612   26.6494 H   0  0  0  0  0  0  0  0  0  0  0  0
    3.1715   -4.5114   24.7826 H   0  0  0  0  0  0  0  0  0  0  0  0
    4.9828   -3.3354   23.6590 H   0  0  0  0  0  0  0  0  0  0  0  0
    7.5004   -2.0412   23.9779 C   0  0  0  0  0  0  0  0  0  0  0  0
    8.2894   -1.4294   24.4229 H   0  0  0  0  0  0  0  0  0  0  0  0
    6.5258   -1.7023   24.3389 H   0  0  0  0  0  0  0  0  0  0  0  0
    8.6718   -3.8628   24.4254 H   0  0  0  0  0  0  0  0  0  0  0  0
    8.4539   -4.1030   21.9771 H   0  0  0  0  0  0  0  0  0  0  0  0
    6.6797   -4.1028   22.1394 H   0  0  0  0  0  0  0  0  0  0  0  0
    6.3050   -1.6021   21.7455 C   0  0  0  0  0  0  0  0  0  0  0  0
    5.1692   -2.0067   21.8806 O   0  0  0  0  0  0  0  0  0  0  0  0
    6.7242   -0.5418   20.9461 N   0  0  0  0  0  0  0  0  0  0  0  0
    5.9705   -0.0317   19.8704 C   0  0  0  0  0  0  0  0  0  0  0  0
    6.4339   -0.1678   18.5845 C   0  0  0  0  0  0  0  0  0  0  0  0
    5.7740    0.3038   17.5034 N   0  0  0  0  0  0  0  0  0  0  0  0
    4.6672    0.9653   17.7168 C   0  0  0  0  0  0  0  0  0  0  0  0
    4.0762    1.1413   18.9955 C   0  0  0  0  0  0  0  0  0  0  0  0
    2.8638    1.8540   19.1527 C   0  0  0  0  0  0  0  0  0  0  0  0
    2.3102    2.0134   20.3912 C   0  0  0  0  0  0  0  0  0  0  0  0
    2.9467    1.4713   21.5332 C   0  0  0  0  0  0  0  0  0  0  0  0
    4.1409    0.8012   21.4070 C   0  0  0  0  0  0  0  0  0  0  0  0
    4.7302    0.6171   20.1218 C   0  0  0  0  0  0  0  0  0  0  0  0
    4.6363    0.4066   22.2847 H   0  0  0  0  0  0  0  0  0  0  0  0
    2.4916    1.5853   22.5137 H   0  0  0  0  0  0  0  0  0  0  0  0
    1.3746    2.5510   20.4994 H   0  0  0  0  0  0  0  0  0  0  0  0
    2.4166    2.2584   18.2508 H   0  0  0  0  0  0  0  0  0  0  0  0
    4.1762    1.3962   16.8459 H   0  0  0  0  0  0  0  0  0  0  0  0
    7.3841   -0.6610   18.3808 H   0  0  0  0  0  0  0  0  0  0  0  0
    9.5404   -1.3537   22.1077 H   0  0  0  0  0  0  0  0  0  0  0  0
  1  2  2  0
  2  3  1  0
  4  3  1  6
  4  5  1  0
  5  6  1  0
  6  7  1  0
  7  8  2  0
  8  9  1  0
  9 10  2  0
 10 11  1  0
 11 12  2  0
 12 13  1  0
 11 14  1  0
 10 15  1  0
  9 16  1  0
  8 17  1  0
  6 18  1  0
 18 19  1  0
 18 20  1  0
  6 21  1  1
  5 22  1  0
  5 23  1  0
  4 24  1  0
 24 25  2  0
 24 26  1  0
 26 27  1  0
 27 28  2  0
 28 29  1  0
 29 30  2  0
 30 31  1  0
 31 32  2  0
 32 33  1  0
 33 34  2  0
 34 35  1  0
 35 36  2  0
 35 37  1  0
 34 38  1  0
 33 39  1  0
 32 40  1  0
 30 41  1  0
 28 42  1  0
  3 43  1  0
 26  2  1  0
 36 27  1  0
 18  4  1  0
 36 31  1  0
 12  7  1  0
M  END
>  <cnnaffinities>  (27) 
[5.99133, 6.1072]

>  <score>  (27) 
5.99133

>  <index>  (27) 
26

>  <Smiles>  (27) 
O=C1N([C@]2(C([C@](c3c(c(c(c(c3Cl)[H])[H])[H])[H])(C2([H])[H])[H])([H])[H])C(=O)N1c1c(nc(c2c(c(c(c(c12)[H])[H])[H])[H])[H])[H])[H]

>  <h>  (27) 
<NA>

>  <Training>  (27) 
True

>  <Success>  (27) 
True

>  <enamine_searched>  (27) 
False

>  <enamine_id>  (27) 
nan

$$$$

     RDKit          3D

 46 48  0  0  0  0  0  0  0  0999 V2000
    9.3003   -0.5430   25.5053 C   0  0  0  0  0  0  0  0  0  0  0  0
    9.1753    0.3414   24.2653 C   0  0  0  0  0  0  0  0  0  0  0  0
    7.7211    0.5481   23.7959 C   0  0  1  0  0  0  0  0  0  0  0  0
    6.7826    1.1945   24.8291 C   0  0  0  0  0  0  0  0  0  0  0  0
    6.8291    2.7286   24.9157 C   0  0  1  0  0  0  0  0  0  0  0  0
    7.9037    3.2705   25.8492 C   0  0  0  0  0  0  0  0  0  0  0  0
    7.6580    4.5594   26.1673 F   0  0  0  0  0  0  0  0  0  0  0  0
    7.9596    2.5795   27.0024 F   0  0  0  0  0  0  0  0  0  0  0  0
    9.1478    3.2542   25.3159 F   0  0  0  0  0  0  0  0  0  0  0  0
    6.9189    3.3908   23.5388 C   0  0  0  0  0  0  0  0  0  0  0  0
    7.9827    2.7341   22.6642 C   0  0  0  0  0  0  0  0  0  0  0  0
    7.6677    1.3135   22.5417 N   0  0  0  0  0  0  0  0  0  0  0  0
    7.7647    0.7665   21.2757 C   0  0  0  0  0  0  0  0  0  0  0  0
    8.4343    1.2826   20.3958 O   0  0  0  0  0  0  0  0  0  0  0  0
    6.9254   -0.4693   20.9531 C   0  0  0  0  0  0  0  0  0  0  0  0
    5.9575   -0.0925   19.8556 C   0  0  0  0  0  0  0  0  0  0  0  0
    6.3683   -0.2003   18.5534 C   0  0  0  0  0  0  0  0  0  0  0  0
    5.7164    0.2968   17.4752 N   0  0  0  0  0  0  0  0  0  0  0  0
    4.6086    0.9525   17.7015 C   0  0  0  0  0  0  0  0  0  0  0  0
    4.0287    1.1050   18.9849 C   0  0  0  0  0  0  0  0  0  0  0  0
    2.8044    1.8012   19.1532 C   0  0  0  0  0  0  0  0  0  0  0  0
    2.2229    1.9032   20.3864 C   0  0  0  0  0  0  0  0  0  0  0  0
    2.8619    1.3146   21.4995 C   0  0  0  0  0  0  0  0  0  0  0  0
    4.0683    0.6733   21.3670 C   0  0  0  0  0  0  0  0  0  0  0  0
    4.7013    0.5508   20.1004 C   0  0  0  0  0  0  0  0  0  0  0  0
    4.5435    0.2562   22.2491 H   0  0  0  0  0  0  0  0  0  0  0  0
    2.3930    1.4004   22.4768 H   0  0  0  0  0  0  0  0  0  0  0  0
    1.2926    2.4480   20.5143 H   0  0  0  0  0  0  0  0  0  0  0  0
    2.3321    2.2313   18.2748 H   0  0  0  0  0  0  0  0  0  0  0  0
    4.1169    1.4050   16.8405 H   0  0  0  0  0  0  0  0  0  0  0  0
    7.3335   -0.6506   18.3311 H   0  0  0  0  0  0  0  0  0  0  0  0
    7.6232   -1.2333   20.5854 H   0  0  0  0  0  0  0  0  0  0  0  0
    6.4206   -0.8604   21.8382 H   0  0  0  0  0  0  0  0  0  0  0  0
    7.9824    3.1693   21.6638 H   0  0  0  0  0  0  0  0  0  0  0  0
    8.9869    2.8764   23.0749 H   0  0  0  0  0  0  0  0  0  0  0  0
    7.1133    4.4634   23.6417 H   0  0  0  0  0  0  0  0  0  0  0  0
    5.9544    3.2868   23.0275 H   0  0  0  0  0  0  0  0  0  0  0  0
    5.8998    3.0549   25.3982 H   0  0  0  0  0  0  0  0  0  0  0  0
    5.7586    0.9134   24.5535 H   0  0  0  0  0  0  0  0  0  0  0  0
    6.9470    0.7583   25.8189 H   0  0  0  0  0  0  0  0  0  0  0  0
    7.3245   -0.4529   23.5930 H   0  0  0  0  0  0  0  0  0  0  0  0
    9.6450    1.3041   24.4731 H   0  0  0  0  0  0  0  0  0  0  0  0
    9.7320   -0.1185   23.4391 H   0  0  0  0  0  0  0  0  0  0  0  0
   10.3522   -0.7816   25.6899 H   0  0  0  0  0  0  0  0  0  0  0  0
    8.7644   -1.4907   25.3798 H   0  0  0  0  0  0  0  0  0  0  0  0
    8.9118   -0.0421   26.3982 H   0  0  0  0  0  0  0  0  0  0  0  0
  1  2  1  0
  2  3  1  0
  3  4  1  0
  4  5  1  0
  5  6  1  0
  6  7  1  0
  6  8  1  0
  6  9  1  0
  5 10  1  0
 10 11  1  0
 11 12  1  0
 12 13  1  0
 13 14  2  0
 13 15  1  0
 15 16  1  0
 16 17  2  0
 17 18  1  0
 18 19  2  0
 19 20  1  0
 20 21  2  0
 21 22  1  0
 22 23  2  0
 23 24  1  0
 24 25  2  0
 24 26  1  0
 23 27  1  0
 22 28  1  0
 21 29  1  0
 19 30  1  0
 17 31  1  0
 15 32  1  0
 15 33  1  0
 11 34  1  0
 11 35  1  0
 10 36  1  0
 10 37  1  0
  5 38  1  1
  4 39  1  0
  4 40  1  0
  3 41  1  6
  2 42  1  0
  2 43  1  0
  1 44  1  0
  1 45  1  0
  1 46  1  0
 12  3  1  0
 25 16  1  0
 25 20  1  0
M  END
>  <cnnaffinities>  (28) 
[5.54814, 5.54773, 5.54797, 5.54761, 5.54775, 5.72282, 5.78974, 5.92761, 5.77294, 5.77273, 5.6877]

>  <score>  (28) 
5.54814

>  <index>  (28) 
27

>  <Smiles>  (28) 
C(C([C@]1(C([C@@](C(F)(F)F)(C(C(N1C(=O)C(c1c(nc(c2c(c(c(c(c12)[H])[H])[H])[H])[H])[H])([H])[H])([H])[H])([H])[H])[H])([H])[H])[H])([H])[H])([H])([H])[H]

>  <h>  (28) 
<NA>

>  <Training>  (28) 
True

>  <Success>  (28) 
True

>  <enamine_searched>  (28) 
False

>  <enamine_id>  (28) 
nan

$$$$

     RDKit          3D

 70 75  0  0  0  0  0  0  0  0999 V2000
    7.9106   -5.7077   25.9481 C   0  0  0  0  0  0  0  0  0  0  0  0
    6.5760   -6.0641   25.4021 N   0  0  0  0  0  4  0  0  0  0  0  0
    6.5847   -6.2447   23.9179 C   0  0  0  0  0  0  0  0  0  0  0  0
    5.8720   -5.0835   23.2041 C   0  0  0  0  0  0  0  0  0  0  0  0
    6.3001   -3.7665   23.6553 N   0  0  0  0  0  0  0  0  0  0  0  0
    7.4900   -3.1519   23.0779 C   0  0  0  0  0  0  0  0  0  0  0  0
    7.2483   -1.6740   22.7212 C   0  0  2  0  0  0  0  0  0  0  0  0
    6.3258   -1.5481   21.4938 C   0  0  0  0  0  0  0  0  0  0  0  0
    5.3686   -2.2464   21.2163 O   0  0  0  0  0  0  0  0  0  0  0  0
    6.7606   -0.4804   20.7385 N   0  0  0  0  0  0  0  0  0  0  0  0
    5.9760    0.1022   19.7183 C   0  0  0  0  0  0  0  0  0  0  0  0
    6.5064    0.2758   18.4639 C   0  0  0  0  0  0  0  0  0  0  0  0
    5.8234    0.7624   17.4021 N   0  0  0  0  0  0  0  0  0  0  0  0
    4.5747    1.1093   17.5974 C   0  0  0  0  0  0  0  0  0  0  0  0
    3.9185    1.0364   18.8559 C   0  0  0  0  0  0  0  0  0  0  0  0
    2.5820    1.4861   19.0127 C   0  0  0  0  0  0  0  0  0  0  0  0
    1.9845    1.4710   20.2428 C   0  0  0  0  0  0  0  0  0  0  0  0
    2.7124    1.0325   21.3727 C   0  0  0  0  0  0  0  0  0  0  0  0
    4.0021    0.5883   21.2484 C   0  0  0  0  0  0  0  0  0  0  0  0
    4.6337    0.5478   19.9690 C   0  0  0  0  0  0  0  0  0  0  0  0
    4.5598    0.2812   22.1328 H   0  0  0  0  0  0  0  0  0  0  0  0
    2.2428    1.0632   22.3539 H   0  0  0  0  0  0  0  0  0  0  0  0
    0.9623    1.8206   20.3643 H   0  0  0  0  0  0  0  0  0  0  0  0
    2.0666    1.8730   18.1390 H   0  0  0  0  0  0  0  0  0  0  0  0
    4.0243    1.4862   16.7361 H   0  0  0  0  0  0  0  0  0  0  0  0
    7.5386   -0.0173   18.2729 H   0  0  0  0  0  0  0  0  0  0  0  0
    8.0159    0.0899   21.2060 C   0  0  0  0  0  0  0  0  0  0  0  0
    8.5498   -0.9450   22.2086 C   0  0  2  0  0  0  0  0  0  0  0  0
    9.6188   -1.8214   21.5124 C   0  0  0  0  0  0  0  0  0  0  0  0
   10.3634   -2.5906   22.4140 O   0  0  0  0  0  0  0  0  0  0  0  0
   11.4534   -1.9429   23.0266 C   0  0  0  0  0  0  0  0  0  0  0  0
   11.6650   -2.2168   24.5226 C   0  0  0  0  0  0  0  0  0  0  0  0
    9.7064   -1.0969   24.5717 F   0  0  0  0  0  0  0  0  0  0  0  0
   13.0033   -1.7288   25.0136 C   0  0  0  0  0  0  0  0  0  0  0  0
   13.3610   -0.8451   24.0918 O   0  0  0  0  0  0  0  0  0  0  0  0
   11.6505   -2.6003   24.5861 C   0  0  0  0  0  0  0  0  0  0  0  0
   11.8705   -3.6210   24.2318 H   0  0  0  0  0  0  0  0  0  0  0  0
   11.4131   -3.3731   25.4169 H   0  0  0  0  0  0  0  0  0  0  0  0
   12.8084   -1.3203   26.0291 H   0  0  0  0  0  0  0  0  0  0  0  0
   13.7670   -2.4895   25.1248 H   0  0  0  0  0  0  0  0  0  0  0  0
   12.3838   -2.2042   22.5575 H   0  0  0  0  0  0  0  0  0  0  0  0
   11.3559   -0.8701   22.9481 H   0  0  0  0  0  0  0  0  0  0  0  0
    9.1443   -2.5179   20.8118 H   0  0  0  0  0  0  0  0  0  0  0  0
   10.2933   -1.1855   20.9122 H   0  0  0  0  0  0  0  0  0  0  0  0
    9.0694   -0.5255   23.0690 H   0  0  0  0  0  0  0  0  0  0  0  0
    8.7017    0.2275   20.3671 H   0  0  0  0  0  0  0  0  0  0  0  0
    7.8528    1.0774   21.6532 H   0  0  0  0  0  0  0  0  0  0  0  0
    6.6306   -1.0055   23.9703 C   0  0  0  0  0  0  0  0  0  0  0  0
    6.7899    0.3588   24.2516 C   0  0  0  0  0  0  0  0  0  0  0  0
    6.2606    0.9217   25.4039 C   0  0  0  0  0  0  0  0  0  0  0  0
    6.5384    2.6100   25.7416 Cl  0  0  0  0  0  0  0  0  0  0  0  0
    5.5323    0.1703   26.3217 C   0  0  0  0  0  0  0  0  0  0  0  0
    5.3447   -1.1701   26.0536 C   0  0  0  0  0  0  0  0  0  0  0  0
    5.8939   -1.7522   24.9086 C   0  0  0  0  0  0  0  0  0  0  0  0
    5.6808   -3.2132   24.7225 C   0  0  0  0  0  0  0  0  0  0  0  0
    4.9854   -3.8959   25.4963 O   0  0  0  0  0  0  0  0  0  0  0  0
    4.7760   -1.8067   26.7261 H   0  0  0  0  0  0  0  0  0  0  0  0
    5.1337    0.6289   27.2214 H   0  0  0  0  0  0  0  0  0  0  0  0
    7.3568    1.0112   23.6037 H   0  0  0  0  0  0  0  0  0  0  0  0
    7.7346   -3.7225   22.1825 H   0  0  0  0  0  0  0  0  0  0  0  0
    8.3348   -3.1740   23.7833 H   0  0  0  0  0  0  0  0  0  0  0  0
    6.0235   -5.1280   22.1199 H   0  0  0  0  0  0  0  0  0  0  0  0
    4.7961   -5.1454   23.3988 H   0  0  0  0  0  0  0  0  0  0  0  0
    6.0847   -7.1836   23.6632 H   0  0  0  0  0  0  0  0  0  0  0  0
    7.6241   -6.3245   23.5793 H   0  0  0  0  0  0  0  0  0  0  0  0
    5.8678   -5.3347   25.6465 H   0  0  0  0  0  0  0  0  0  0  0  0
    6.2861   -6.9499   25.8540 H   0  0  0  0  0  0  0  0  0  0  0  0
    8.6183   -6.5369   25.8346 H   0  0  0  0  0  0  0  0  0  0  0  0
    7.8431   -5.4544   27.0070 H   0  0  0  0  0  0  0  0  0  0  0  0
    8.3247   -4.8490   25.4100 H   0  0  0  0  0  0  0  0  0  0  0  0
  1  2  1  0
  2  3  1  0
  3  4  1  0
  4  5  1  0
  5  6  1  0
  7  6  1  1
  7  8  1  0
  8  9  2  0
  8 10  1  0
 10 11  1  0
 11 12  2  0
 12 13  1  0
 13 14  2  0
 14 15  1  0
 15 16  2  0
 16 17  1  0
 17 18  2  0
 18 19  1  0
 19 20  2  0
 19 21  1  0
 18 22  1  0
 17 23  1  0
 16 24  1  0
 14 25  1  0
 12 26  1  0
 10 27  1  0
 27 28  1  0
 28 29  1  0
 29 30  1  0
 30 31  1  0
 31 32  1  0
 32 33  1  0
 32 34  1  0
 34 35  1  0
 35 36  1  0
 36 37  1  0
 36 38  1  0
 34 39  1  0
 34 40  1  0
 31 41  1  0
 31 42  1  0
 29 43  1  0
 29 44  1  0
 28 45  1  1
 27 46  1  0
 27 47  1  0
  7 48  1  0
 48 49  2  0
 49 50  1  0
 50 51  1  0
 50 52  2  0
 52 53  1  0
 53 54  2  0
 54 55  1  0
 55 56  2  0
 53 57  1  0
 52 58  1  0
 49 59  1  0
  6 60  1  0
  6 61  1  0
  4 62  1  0
  4 63  1  0
  3 64  1  0
  3 65  1  0
  2 66  1  0
  2 67  1  0
  1 68  1  0
  1 69  1  0
  1 70  1  0
 55  5  1  0
 28  7  1  0
 36 32  1  0
 54 48  1  0
 20 11  1  0
 20 15  1  0
M  CHG  1   2   1
M  END
>  <cnnaffinities>  (29) 
[7.06697]

>  <score>  (29) 
7.06697

>  <index>  (29) 
28

>  <Smiles>  (29) 
C([N+](C(C(N1C([C@@]2(C(=O)N(c3c(nc(c4c(c(c(c(c34)[H])[H])[H])[H])[H])[H])C([C@@]2(C(OC(C2(F)C(OC2([H])[H])([H])[H])([H])[H])([H])[H])[H])([H])[H])c2c(c(Cl)c(c(c2C1=O)[H])[H])[H])([H])[H])([H])[H])([H])[H])([H])[H])([H])([H])[H]

>  <h>  (29) 
<NA>

>  <Training>  (29) 
True

>  <Success>  (29) 
True

>  <enamine_searched>  (29) 
False

>  <enamine_id>  (29) 
nan

$$$$

     RDKit          3D

 67 72  0  0  0  0  0  0  0  0999 V2000
   10.1059    4.4229   22.1954 C   0  0  0  0  0  0  0  0  0  0  0  0
    9.0385    3.4294   21.9161 N   0  0  0  0  0  4  0  0  0  0  0  0
    8.0805    3.2381   23.0378 C   0  0  0  0  0  0  0  0  0  0  0  0
    8.7220    2.5101   24.2270 C   0  0  0  0  0  0  0  0  0  0  0  0
    9.3304    1.2513   23.8209 N   0  0  0  0  0  0  0  0  0  0  0  0
    8.4903    0.0733   23.6799 C   0  0  0  0  0  0  0  0  0  0  0  0
    8.7293   -0.6544   22.3221 C   0  0  2  0  0  0  0  0  0  0  0  0
    8.0938    0.1972   21.1907 C   0  0  0  0  0  0  0  0  0  0  0  0
    8.6156    1.1702   20.6600 O   0  0  0  0  0  0  0  0  0  0  0  0
    6.8257   -0.2751   20.9343 N   0  0  0  0  0  0  0  0  0  0  0  0
    5.9949    0.1531   19.8580 C   0  0  0  0  0  0  0  0  0  0  0  0
    6.4652    0.1380   18.5652 C   0  0  0  0  0  0  0  0  0  0  0  0
    5.7345    0.5053   17.4825 N   0  0  0  0  0  0  0  0  0  0  0  0
    4.5163    0.9476   17.6747 C   0  0  0  0  0  0  0  0  0  0  0  0
    3.8785    0.9828   18.9484 C   0  0  0  0  0  0  0  0  0  0  0  0
    2.5619    1.5020   19.1189 C   0  0  0  0  0  0  0  0  0  0  0  0
    1.9668    1.4890   20.3515 C   0  0  0  0  0  0  0  0  0  0  0  0
    2.6603    0.9486   21.4588 C   0  0  0  0  0  0  0  0  0  0  0  0
    3.9426    0.4679   21.3211 C   0  0  0  0  0  0  0  0  0  0  0  0
    4.6107    0.5112   20.0656 C   0  0  0  0  0  0  0  0  0  0  0  0
    4.4666    0.0812   22.1885 H   0  0  0  0  0  0  0  0  0  0  0  0
    2.1809    0.9349   22.4352 H   0  0  0  0  0  0  0  0  0  0  0  0
    0.9676    1.9019   20.4902 H   0  0  0  0  0  0  0  0  0  0  0  0
    2.0627    1.9448   18.2583 H   0  0  0  0  0  0  0  0  0  0  0  0
    3.9604    1.2662   16.7907 H   0  0  0  0  0  0  0  0  0  0  0  0
    7.4673   -0.2303   18.3502 H   0  0  0  0  0  0  0  0  0  0  0  0
    6.5422   -1.5065   21.6639 C   0  0  0  0  0  0  0  0  0  0  0  0
    7.9049   -1.9637   22.1905 C   0  0  2  0  0  0  0  0  0  0  0  0
    7.8365   -2.8165   23.4532 C   0  0  0  0  0  0  0  0  0  0  0  0
    7.1863   -4.0994   23.2567 N   0  0  0  0  0  0  0  0  0  0  0  0
    6.6575   -4.7626   24.3026 C   0  0  0  0  0  0  0  0  0  0  0  0
    6.9398   -4.3078   25.5398 N   0  0  0  0  0  0  0  0  0  0  0  0
    6.4484   -5.0514   26.5214 C   0  0  0  0  0  0  0  0  0  0  0  0
    5.6685   -6.1231   26.3923 N   0  0  0  0  0  0  0  0  0  0  0  0
    5.4411   -6.4541   25.1169 C   0  0  0  0  0  0  0  0  0  0  0  0
    5.8809   -5.8320   24.0373 N   0  0  0  0  0  0  0  0  0  0  0  0
    4.8361   -7.3405   24.9377 H   0  0  0  0  0  0  0  0  0  0  0  0
    6.7047   -4.7652   27.5425 H   0  0  0  0  0  0  0  0  0  0  0  0
    6.9274   -4.4400   22.3431 H   0  0  0  0  0  0  0  0  0  0  0  0
    8.8404   -2.9728   23.8722 H   0  0  0  0  0  0  0  0  0  0  0  0
    7.2698   -2.2958   24.2298 H   0  0  0  0  0  0  0  0  0  0  0  0
    8.3708   -2.5653   21.4080 H   0  0  0  0  0  0  0  0  0  0  0  0
    5.8691   -1.3382   22.5147 H   0  0  0  0  0  0  0  0  0  0  0  0
    6.0845   -2.2207   20.9755 H   0  0  0  0  0  0  0  0  0  0  0  0
   10.2215   -0.8545   22.1609 C   0  0  0  0  0  0  0  0  0  0  0  0
   10.7442   -1.8295   21.3032 C   0  0  0  0  0  0  0  0  0  0  0  0
   12.1116   -1.9659   21.1568 C   0  0  0  0  0  0  0  0  0  0  0  0
   12.6897   -3.0693   19.9414 Cl  0  0  0  0  0  0  0  0  0  0  0  0
   13.0083   -1.2216   21.9229 C   0  0  0  0  0  0  0  0  0  0  0  0
   12.5054   -0.2396   22.7536 C   0  0  0  0  0  0  0  0  0  0  0  0
   11.1313   -0.0176   22.8224 C   0  0  0  0  0  0  0  0  0  0  0  0
   10.6659    1.1977   23.5613 C   0  0  0  0  0  0  0  0  0  0  0  0
   11.4522    2.0895   23.8723 O   0  0  0  0  0  0  0  0  0  0  0  0
   13.1466    0.3991   23.3542 H   0  0  0  0  0  0  0  0  0  0  0  0
   14.0709   -1.4030   21.8432 H   0  0  0  0  0  0  0  0  0  0  0  0
   10.1104   -2.4929   20.7251 H   0  0  0  0  0  0  0  0  0  0  0  0
    8.7141   -0.6246   24.5006 H   0  0  0  0  0  0  0  0  0  0  0  0
    7.4413    0.3828   23.7648 H   0  0  0  0  0  0  0  0  0  0  0  0
    9.5086    3.1125   24.6876 H   0  0  0  0  0  0  0  0  0  0  0  0
    7.9578    2.2896   24.9813 H   0  0  0  0  0  0  0  0  0  0  0  0
    7.2396    2.6523   22.6551 H   0  0  0  0  0  0  0  0  0  0  0  0
    7.6871    4.2080   23.3637 H   0  0  0  0  0  0  0  0  0  0  0  0
    9.4020    2.5001   21.6457 H   0  0  0  0  0  0  0  0  0  0  0  0
    8.5297    3.7391   21.0712 H   0  0  0  0  0  0  0  0  0  0  0  0
   10.8886    3.9947   22.8206 H   0  0  0  0  0  0  0  0  0  0  0  0
   10.5500    4.7657   21.2596 H   0  0  0  0  0  0  0  0  0  0  0  0
    9.6781    5.2894   22.7142 H   0  0  0  0  0  0  0  0  0  0  0  0
  1  2  1  0
  2  3  1  0
  3  4  1  0
  4  5  1  0
  5  6  1  0
  7  6  1  1
  7  8  1  0
  8  9  2  0
  8 10  1  0
 10 11  1  0
 11 12  2  0
 12 13  1  0
 13 14  2  0
 14 15  1  0
 15 16  2  0
 16 17  1  0
 17 18  2  0
 18 19  1  0
 19 20  2  0
 19 21  1  0
 18 22  1  0
 17 23  1  0
 16 24  1  0
 14 25  1  0
 12 26  1  0
 10 27  1  0
 27 28  1  0
 28 29  1  0
 29 30  1  0
 30 31  1  0
 31 32  2  0
 32 33  1  0
 33 34  2  0
 34 35  1  0
 35 36  2  0
 35 37  1  0
 33 38  1  0
 30 39  1  0
 29 40  1  0
 29 41  1  0
 28 42  1  6
 27 43  1  0
 27 44  1  0
  7 45  1  0
 45 46  2  0
 46 47  1  0
 47 48  1  0
 47 49  2  0
 49 50  1  0
 50 51  2  0
 51 52  1  0
 52 53  2  0
 50 54  1  0
 49 55  1  0
 46 56  1  0
  6 57  1  0
  6 58  1  0
  4 59  1  0
  4 60  1  0
  3 61  1  0
  3 62  1  0
  2 63  1  0
  2 64  1  0
  1 65  1  0
  1 66  1  0
  1 67  1  0
 52  5  1  0
 28  7  1  0
 36 31  1  0
 51 45  1  0
 20 11  1  0
 20 15  1  0
M  CHG  1   2   1
M  END
>  <cnnaffinities>  (30) 
[6.61416]

>  <score>  (30) 
6.61416

>  <index>  (30) 
29

>  <Smiles>  (30) 
C([N+](C(C(N1C([C@@]2(C(=O)N(c3c(nc(c4c(c(c(c(c34)[H])[H])[H])[H])[H])[H])C([C@@]2(C(N(c2nc(nc(n2)[H])[H])[H])([H])[H])[H])([H])[H])c2c(c(Cl)c(c(c2C1=O)[H])[H])[H])([H])[H])([H])[H])([H])[H])([H])[H])([H])([H])[H]

>  <h>  (30) 
<NA>

>  <Training>  (30) 
True

>  <Success>  (30) 
True

>  <enamine_searched>  (30) 
False

>  <enamine_id>  (30) 
nan

$$$$

     RDKit          3D

 66 71  0  0  0  0  0  0  0  0999 V2000
    7.7868   -8.4698   23.1758 C   0  0  0  0  0  0  0  0  0  0  0  0
    6.8431   -7.4448   22.7846 N   0  0  0  0  0  0  0  0  0  0  0  0
    7.1440   -6.6391   21.7314 C   0  0  0  0  0  0  0  0  0  0  0  0
    8.0213   -6.8802   20.9202 O   0  0  0  0  0  0  0  0  0  0  0  0
    6.2718   -5.3774   21.6602 C   0  0  0  0  0  0  0  0  0  0  0  0
    6.6799   -4.3842   22.6374 N   0  0  0  0  0  0  0  0  0  0  0  0
    7.7662   -3.4719   22.3314 C   0  0  0  0  0  0  0  0  0  0  0  0
    7.3885   -2.0179   22.7217 C   0  0  2  0  0  0  0  0  0  0  0  0
    6.2967   -1.5808   21.7248 C   0  0  0  0  0  0  0  0  0  0  0  0
    5.2015   -2.0968   21.6078 O   0  0  0  0  0  0  0  0  0  0  0  0
    6.7901   -0.5669   20.9246 N   0  0  0  0  0  0  0  0  0  0  0  0
    6.0158   -0.0097   19.8797 C   0  0  0  0  0  0  0  0  0  0  0  0
    6.4737   -0.0689   18.5857 C   0  0  0  0  0  0  0  0  0  0  0  0
    5.8212    0.4267   17.5102 N   0  0  0  0  0  0  0  0  0  0  0  0
    4.6466    0.9707   17.7103 C   0  0  0  0  0  0  0  0  0  0  0  0
    4.0381    1.0895   18.9859 C   0  0  0  0  0  0  0  0  0  0  0  0
    2.7725    1.7247   19.1284 C   0  0  0  0  0  0  0  0  0  0  0  0
    2.1878    1.8260   20.3594 C   0  0  0  0  0  0  0  0  0  0  0  0
    2.8451    1.2982   21.4942 C   0  0  0  0  0  0  0  0  0  0  0  0
    4.0689    0.6826   21.3810 C   0  0  0  0  0  0  0  0  0  0  0  0
    4.7184    0.5759   20.1134 C   0  0  0  0  0  0  0  0  0  0  0  0
    4.5261    0.2649   22.2697 H   0  0  0  0  0  0  0  0  0  0  0  0
    2.3751    1.3884   22.4700 H   0  0  0  0  0  0  0  0  0  0  0  0
    1.2333    2.3323   20.4829 H   0  0  0  0  0  0  0  0  0  0  0  0
    2.2893    2.1321   18.2430 H   0  0  0  0  0  0  0  0  0  0  0  0
    4.1075    1.3292   16.8358 H   0  0  0  0  0  0  0  0  0  0  0  0
    7.4077   -0.5874   18.3730 H   0  0  0  0  0  0  0  0  0  0  0  0
    8.2592   -0.5042   21.0010 C   0  0  0  0  0  0  0  0  0  0  0  0
    8.5310   -0.9978   22.4380 C   0  0  2  0  0  0  0  0  0  0  0  0
    9.9303   -1.5589   22.7850 C   0  0  0  0  0  0  0  0  0  0  0  0
   11.0948   -0.5952   22.7642 C   0  0  0  0  0  0  0  0  0  0  0  0
   12.0762   -0.6502   21.7716 C   0  0  0  0  0  0  0  0  0  0  0  0
   13.0965    0.2947   21.7168 C   0  0  0  0  0  0  0  0  0  0  0  0
   13.1678    1.3081   22.6621 C   0  0  0  0  0  0  0  0  0  0  0  0
   12.2225    1.3428   23.6829 C   0  0  0  0  0  0  0  0  0  0  0  0
   11.2273    0.3746   23.7588 C   0  0  0  0  0  0  0  0  0  0  0  0
   10.5186    0.3768   24.5853 H   0  0  0  0  0  0  0  0  0  0  0  0
   12.2494    2.1484   24.4003 H   0  0  0  0  0  0  0  0  0  0  0  0
   13.9403    2.0701   22.5784 H   0  0  0  0  0  0  0  0  0  0  0  0
   13.8319    0.2414   20.9182 H   0  0  0  0  0  0  0  0  0  0  0  0
   12.0597   -1.4569   21.0413 H   0  0  0  0  0  0  0  0  0  0  0  0
    9.8545   -1.9650   23.8065 H   0  0  0  0  0  0  0  0  0  0  0  0
   10.1586   -2.4066   22.1270 H   0  0  0  0  0  0  0  0  0  0  0  0
    8.3459   -0.1295   23.0750 H   0  0  0  0  0  0  0  0  0  0  0  0
    8.5735    0.5269   20.8262 H   0  0  0  0  0  0  0  0  0  0  0  0
    8.7394   -1.1495   20.2460 H   0  0  0  0  0  0  0  0  0  0  0  0
    6.8875   -2.0337   24.1548 C   0  0  0  0  0  0  0  0  0  0  0  0
    6.8656   -0.8646   24.9294 C   0  0  0  0  0  0  0  0  0  0  0  0
    6.4237   -0.9120   26.2383 C   0  0  0  0  0  0  0  0  0  0  0  0
    6.4150    0.5510   27.1859 Cl  0  0  0  0  0  0  0  0  0  0  0  0
    5.9716   -2.0953   26.8206 C   0  0  0  0  0  0  0  0  0  0  0  0
    5.9356   -3.2383   26.0466 C   0  0  0  0  0  0  0  0  0  0  0  0
    6.3605   -3.2064   24.7183 C   0  0  0  0  0  0  0  0  0  0  0  0
    6.1596   -4.4362   23.8907 C   0  0  0  0  0  0  0  0  0  0  0  0
    5.5368   -5.4150   24.3068 O   0  0  0  0  0  0  0  0  0  0  0  0
    5.5546   -4.1722   26.4451 H   0  0  0  0  0  0  0  0  0  0  0  0
    5.6350   -2.0957   27.8522 H   0  0  0  0  0  0  0  0  0  0  0  0
    7.1555    0.0952   24.5155 H   0  0  0  0  0  0  0  0  0  0  0  0
    7.9401   -3.5032   21.2596 H   0  0  0  0  0  0  0  0  0  0  0  0
    8.6796   -3.8069   22.8438 H   0  0  0  0  0  0  0  0  0  0  0  0
    6.3630   -4.9487   20.6591 H   0  0  0  0  0  0  0  0  0  0  0  0
    5.2182   -5.6096   21.8563 H   0  0  0  0  0  0  0  0  0  0  0  0
    6.2595   -7.0326   23.5069 H   0  0  0  0  0  0  0  0  0  0  0  0
    8.7081   -8.0420   23.5920 H   0  0  0  0  0  0  0  0  0  0  0  0
    7.3152   -9.1223   23.9124 H   0  0  0  0  0  0  0  0  0  0  0  0
    8.0647   -9.0700   22.3111 H   0  0  0  0  0  0  0  0  0  0  0  0
  1  2  1  0
  2  3  1  0
  3  4  2  0
  3  5  1  0
  5  6  1  0
  6  7  1  0
  8  7  1  6
  8  9  1  0
  9 10  2  0
  9 11  1  0
 11 12  1  0
 12 13  2  0
 13 14  1  0
 14 15  2  0
 15 16  1  0
 16 17  2  0
 17 18  1  0
 18 19  2  0
 19 20  1  0
 20 21  2  0
 20 22  1  0
 19 23  1  0
 18 24  1  0
 17 25  1  0
 15 26  1  0
 13 27  1  0
 11 28  1  0
 28 29  1  0
 29 30  1  0
 30 31  1  0
 31 32  2  0
 32 33  1  0
 33 34  2  0
 34 35  1  0
 35 36  2  0
 36 37  1  0
 35 38  1  0
 34 39  1  0
 33 40  1  0
 32 41  1  0
 30 42  1  0
 30 43  1  0
 29 44  1  1
 28 45  1  0
 28 46  1  0
  8 47  1  0
 47 48  2  0
 48 49  1  0
 49 50  1  0
 49 51  2  0
 51 52  1  0
 52 53  2  0
 53 54  1  0
 54 55  2  0
 52 56  1  0
 51 57  1  0
 48 58  1  0
  7 59  1  0
  7 60  1  0
  5 61  1  0
  5 62  1  0
  2 63  1  0
  1 64  1  0
  1 65  1  0
  1 66  1  0
 54  6  1  0
 29  8  1  0
 36 31  1  0
 53 47  1  0
 21 12  1  0
 21 16  1  0
M  END
>  <cnnaffinities>  (31) 
[7.35591, 7.35491]

>  <score>  (31) 
7.35591

>  <index>  (31) 
30

>  <Smiles>  (31) 
C(N(C(=O)C(N1C([C@@]2(C(=O)N(c3c(nc(c4c(c(c(c(c34)[H])[H])[H])[H])[H])[H])C([C@@]2(C(c2c(c(c(c(c2[H])[H])[H])[H])[H])([H])[H])[H])([H])[H])c2c(c(Cl)c(c(c2C1=O)[H])[H])[H])([H])[H])([H])[H])[H])([H])([H])[H]

>  <h>  (31) 
<NA>

>  <Training>  (31) 
True

>  <Success>  (31) 
True

>  <enamine_searched>  (31) 
False

>  <enamine_id>  (31) 
nan

$$$$

     RDKit          3D

 64 70  0  0  0  0  0  0  0  0999 V2000
    4.8648   -4.8902   24.5811 O   0  0  0  0  0  0  0  0  0  0  0  0
    5.6027   -4.0376   24.1094 C   0  0  0  0  0  0  0  0  0  0  0  0
    5.9935   -2.7983   24.8573 C   0  0  0  0  0  0  0  0  0  0  0  0
    5.7618   -2.7707   26.2318 C   0  0  0  0  0  0  0  0  0  0  0  0
    6.0293   -1.6325   26.9686 C   0  0  0  0  0  0  0  0  0  0  0  0
    6.4972   -0.5066   26.2936 C   0  0  0  0  0  0  0  0  0  0  0  0
    6.7883    0.9639   27.1856 Cl  0  0  0  0  0  0  0  0  0  0  0  0
    6.7494   -0.5204   24.9345 C   0  0  0  0  0  0  0  0  0  0  0  0
    6.5530   -1.6958   24.1901 C   0  0  0  0  0  0  0  0  0  0  0  0
    6.9686   -1.8128   22.7302 C   0  0  1  0  0  0  0  0  0  0  0  0
    7.2755   -3.3139   22.4781 C   0  0  0  0  0  0  0  0  0  0  0  0
    6.1296   -4.1217   22.8508 N   0  0  0  0  0  0  0  0  0  0  0  0
    5.7338   -5.2153   21.9866 C   0  0  0  0  0  0  0  0  0  0  0  0
    6.7065   -6.3437   22.0794 C   0  0  0  0  0  0  0  0  0  0  0  0
    7.7628   -6.5462   21.3705 N   0  0  0  0  0  0  0  0  0  0  0  0
    8.4033   -7.6411   21.9426 N   0  0  0  0  0  0  0  0  0  0  0  0
    7.6703   -8.0101   22.9274 C   0  0  0  0  0  0  0  0  0  0  0  0
    6.5713   -7.2411   23.0847 O   0  0  0  0  0  0  0  0  0  0  0  0
    7.8306   -8.8276   23.6153 H   0  0  0  0  0  0  0  0  0  0  0  0
    5.6999   -4.8501   20.9545 H   0  0  0  0  0  0  0  0  0  0  0  0
    4.7437   -5.5509   22.3000 H   0  0  0  0  0  0  0  0  0  0  0  0
    7.4732   -3.4847   21.4165 H   0  0  0  0  0  0  0  0  0  0  0  0
    8.1632   -3.6261   23.0534 H   0  0  0  0  0  0  0  0  0  0  0  0
    5.8785   -1.4368   21.6960 C   0  0  0  0  0  0  0  0  0  0  0  0
    4.7700   -1.9185   21.6225 O   0  0  0  0  0  0  0  0  0  0  0  0
    6.4256   -0.5315   20.7930 N   0  0  0  0  0  0  0  0  0  0  0  0
    5.7076    0.0350   19.7317 C   0  0  0  0  0  0  0  0  0  0  0  0
    6.2588    0.0754   18.4707 C   0  0  0  0  0  0  0  0  0  0  0  0
    5.6198    0.5509   17.3801 N   0  0  0  0  0  0  0  0  0  0  0  0
    4.4138    1.0315   17.5455 C   0  0  0  0  0  0  0  0  0  0  0  0
    3.7454    1.0905   18.7963 C   0  0  0  0  0  0  0  0  0  0  0  0
    2.4595    1.6727   18.9170 C   0  0  0  0  0  0  0  0  0  0  0  0
    1.8603    1.7901   20.1400 C   0  0  0  0  0  0  0  0  0  0  0  0
    2.5423    1.3593   21.3008 C   0  0  0  0  0  0  0  0  0  0  0  0
    3.7905    0.8000   21.2147 C   0  0  0  0  0  0  0  0  0  0  0  0
    4.4119    0.6175   19.9413 C   0  0  0  0  0  0  0  0  0  0  0  0
    4.3144    0.5296   22.1260 H   0  0  0  0  0  0  0  0  0  0  0  0
    2.0854    1.4972   22.2761 H   0  0  0  0  0  0  0  0  0  0  0  0
    0.8850    2.2553   20.2370 H   0  0  0  0  0  0  0  0  0  0  0  0
    1.9892    2.0533   18.0198 H   0  0  0  0  0  0  0  0  0  0  0  0
    3.9141    1.4240   16.6636 H   0  0  0  0  0  0  0  0  0  0  0  0
    7.2657   -0.3085   18.3041 H   0  0  0  0  0  0  0  0  0  0  0  0
    7.8874   -0.5446   20.8516 C   0  0  0  0  0  0  0  0  0  0  0  0
    8.1309   -0.8648   22.3242 C   0  0  2  0  0  0  0  0  0  0  0  0
    9.5245   -1.4200   22.6100 C   0  0  0  0  0  0  0  0  0  0  0  0
   10.5991   -0.4820   22.2815 N   0  0  0  0  0  0  0  0  0  0  0  0
   11.8536   -0.9014   22.2444 C   0  0  0  0  0  0  0  0  0  0  0  0
   13.1943    0.0912   22.3967 C   0  0  0  0  0  0  0  0  0  0  0  0
   12.9676   -0.1350   22.6310 C   0  0  0  0  0  0  0  0  0  0  0  0
   14.2446   -1.4394   23.0034 N   0  0  0  0  0  0  0  0  0  0  0  0
   13.3720   -2.3713   22.6307 C   0  0  0  0  0  0  0  0  0  0  0  0
   12.1308   -2.1724   22.2358 N   0  0  0  0  0  0  0  0  0  0  0  0
   13.7058   -3.4010   22.7423 H   0  0  0  0  0  0  0  0  0  0  0  0
   14.1202   -0.5520   22.1927 H   0  0  0  0  0  0  0  0  0  0  0  0
   13.8650    0.3860   21.5331 H   0  0  0  0  0  0  0  0  0  0  0  0
   10.5297    0.4641   22.6420 H   0  0  0  0  0  0  0  0  0  0  0  0
    9.5760   -1.7775   23.6523 H   0  0  0  0  0  0  0  0  0  0  0  0
    9.6696   -2.3062   21.9865 H   0  0  0  0  0  0  0  0  0  0  0  0
    7.9726    0.0755   22.8573 H   0  0  0  0  0  0  0  0  0  0  0  0
    8.3235   -1.3304   20.2116 H   0  0  0  0  0  0  0  0  0  0  0  0
    8.2876    0.4225   20.5351 H   0  0  0  0  0  0  0  0  0  0  0  0
    7.0985    0.3992   24.4796 H   0  0  0  0  0  0  0  0  0  0  0  0
    5.8668   -1.5947   28.0411 H   0  0  0  0  0  0  0  0  0  0  0  0
    5.3720   -3.6681   26.7015 H   0  0  0  0  0  0  0  0  0  0  0  0
  1  2  2  0
  2  3  1  0
  3  4  2  0
  4  5  1  0
  5  6  2  0
  6  7  1  0
  6  8  1  0
  8  9  2  0
  9 10  1  0
 10 11  1  6
 11 12  1  0
 12 13  1  0
 13 14  1  0
 14 15  2  0
 15 16  1  0
 16 17  2  0
 17 18  1  0
 17 19  1  0
 13 20  1  0
 13 21  1  0
 11 22  1  0
 11 23  1  0
 10 24  1  0
 24 25  2  0
 24 26  1  0
 26 27  1  0
 27 28  2  0
 28 29  1  0
 29 30  2  0
 30 31  1  0
 31 32  2  0
 32 33  1  0
 33 34  2  0
 34 35  1  0
 35 36  2  0
 35 37  1  0
 34 38  1  0
 33 39  1  0
 32 40  1  0
 30 41  1  0
 28 42  1  0
 26 43  1  0
 43 44  1  0
 44 45  1  0
 45 46  1  0
 46 47  1  0
 47 48  2  0
 48 49  1  0
 49 50  2  0
 50 51  1  0
 51 52  2  0
 51 53  1  0
 49 54  1  0
 48 55  1  0
 46 56  1  0
 45 57  1  0
 45 58  1  0
 44 59  1  1
 43 60  1  0
 43 61  1  0
  8 62  1  0
  5 63  1  0
  4 64  1  0
 12  2  1  0
 18 14  1  0
 36 27  1  0
 52 47  1  0
  9  3  1  0
 44 10  1  0
 36 31  1  0
M  END
>  <cnnaffinities>  (32) 
[7.54837]

>  <score>  (32) 
7.54837

>  <index>  (32) 
31

>  <Smiles>  (32) 
O=C1c2c(c(c(Cl)c(c2[C@@]2(C(N1C(c1nnc(o1)[H])([H])[H])([H])[H])C(=O)N(c1c(nc(c3c(c(c(c(c13)[H])[H])[H])[H])[H])[H])C([C@@]2(C(N(c1c(c(nc(n1)[H])[H])[H])[H])([H])[H])[H])([H])[H])[H])[H])[H]

>  <h>  (32) 
<NA>

>  <Training>  (32) 
True

>  <Success>  (32) 
True

>  <enamine_searched>  (32) 
False

>  <enamine_id>  (32) 
nan

$$$$

     RDKit          3D

 72 77  0  0  0  0  0  0  0  0999 V2000
    7.1524   -2.7783   23.7199 C   0  0  0  0  0  0  0  0  0  0  0  0
    7.5974   -1.9670   22.5175 C   0  0  1  0  0  0  0  0  0  0  0  0
    6.4473   -1.7451   21.5296 C   0  0  0  0  0  0  0  0  0  0  0  0
    6.7865   -0.4914   20.9041 N   0  0  0  0  0  0  0  0  0  0  0  0
    6.0066    0.0188   19.8405 C   0  0  0  0  0  0  0  0  0  0  0  0
    6.4266   -0.1442   18.5490 C   0  0  0  0  0  0  0  0  0  0  0  0
    5.7502    0.3093   17.4663 N   0  0  0  0  0  0  0  0  0  0  0  0
    4.6351    0.9618   17.6821 C   0  0  0  0  0  0  0  0  0  0  0  0
    4.0624    1.1571   18.9705 C   0  0  0  0  0  0  0  0  0  0  0  0
    2.8366    1.8501   19.1443 C   0  0  0  0  0  0  0  0  0  0  0  0
    2.2719    1.9598   20.3882 C   0  0  0  0  0  0  0  0  0  0  0  0
    2.9084    1.3802   21.5134 C   0  0  0  0  0  0  0  0  0  0  0  0
    4.1121    0.7340   21.3751 C   0  0  0  0  0  0  0  0  0  0  0  0
    4.7347    0.6277   20.0928 C   0  0  0  0  0  0  0  0  0  0  0  0
    4.6112    0.3019   22.2406 H   0  0  0  0  0  0  0  0  0  0  0  0
    2.4499    1.4768   22.4948 H   0  0  0  0  0  0  0  0  0  0  0  0
    1.3389    2.5015   20.5108 H   0  0  0  0  0  0  0  0  0  0  0  0
    2.3532    2.2440   18.2545 H   0  0  0  0  0  0  0  0  0  0  0  0
    4.1261    1.3773   16.8134 H   0  0  0  0  0  0  0  0  0  0  0  0
    7.3849   -0.6246   18.3573 H   0  0  0  0  0  0  0  0  0  0  0  0
    7.7906    0.2246   21.5268 C   0  0  0  0  0  0  0  0  0  0  0  0
    8.2294    1.2854   21.1351 O   0  0  0  0  0  0  0  0  0  0  0  0
    8.2140   -0.5431   22.8003 C   0  0  1  0  0  0  0  0  0  0  0  0
    7.6692    0.2326   24.0295 C   0  0  0  0  0  0  0  0  0  0  0  0
    8.2147   -0.2705   25.2888 N   0  0  0  0  0  0  0  0  0  0  0  0
    7.3743   -0.2522   26.4780 C   0  0  0  0  0  0  0  0  0  0  0  0
    7.4016    1.1095   27.1675 C   0  0  0  0  0  0  0  0  0  0  0  0
    6.6424    1.1235   28.4548 N   0  0  1  0  0  4  0  0  0  0  0  0
    6.8990    2.3819   29.2321 C   0  0  0  0  0  0  0  0  0  0  0  0
    6.1559    2.3501   30.5513 C   0  0  0  0  0  0  0  0  0  0  0  0
    4.7646    2.2608   30.3319 O   0  0  0  0  0  0  0  0  0  0  0  0
    4.3711    1.0904   29.5998 C   0  0  0  0  0  0  0  0  0  0  0  0
    2.8973    1.3355   29.3055 C   0  0  0  0  0  0  0  0  0  0  0  0
    2.4517    0.5226   28.7221 H   0  0  0  0  0  0  0  0  0  0  0  0
    2.3526    1.4375   30.2481 H   0  0  0  0  0  0  0  0  0  0  0  0
    2.7929    2.2723   28.7476 H   0  0  0  0  0  0  0  0  0  0  0  0
    4.5764   -0.1588   30.4639 C   0  0  0  0  0  0  0  0  0  0  0  0
    5.6371   -0.3957   30.6098 H   0  0  0  0  0  0  0  0  0  0  0  0
    4.1196   -0.0117   31.4479 H   0  0  0  0  0  0  0  0  0  0  0  0
    4.1123   -1.0327   29.9952 H   0  0  0  0  0  0  0  0  0  0  0  0
    5.1464    0.9804   28.2709 C   0  0  0  0  0  0  0  0  0  0  0  0
    4.9353    0.0158   27.8023 H   0  0  0  0  0  0  0  0  0  0  0  0
    4.8239    1.7730   27.5844 H   0  0  0  0  0  0  0  0  0  0  0  0
    6.3338    3.2757   31.1080 H   0  0  0  0  0  0  0  0  0  0  0  0
    6.5146    1.5143   31.1708 H   0  0  0  0  0  0  0  0  0  0  0  0
    7.9669    2.4917   29.3957 H   0  0  0  0  0  0  0  0  0  0  0  0
    6.5534    3.2316   28.6340 H   0  0  0  0  0  0  0  0  0  0  0  0
    7.0021    0.3229   29.0145 H   0  0  0  0  0  0  0  0  0  0  0  0
    8.4392    1.3734   27.3830 H   0  0  0  0  0  0  0  0  0  0  0  0
    6.9914    1.8803   26.4980 H   0  0  0  0  0  0  0  0  0  0  0  0
    6.3537   -0.5256   26.1849 H   0  0  0  0  0  0  0  0  0  0  0  0
    7.7274   -1.0233   27.1665 H   0  0  0  0  0  0  0  0  0  0  0  0
    9.5694   -0.3997   25.4638 C   0  0  0  0  0  0  0  0  0  0  0  0
   10.1028   -0.4297   26.5660 O   0  0  0  0  0  0  0  0  0  0  0  0
   10.3588   -0.5651   24.2031 C   0  0  0  0  0  0  0  0  0  0  0  0
   11.7373   -0.7657   24.3009 C   0  0  0  0  0  0  0  0  0  0  0  0
   12.5029   -1.0510   23.1829 C   0  0  0  0  0  0  0  0  0  0  0  0
   11.8473   -1.1522   21.9548 C   0  0  0  0  0  0  0  0  0  0  0  0
   12.6713   -1.7346   20.5450 Cl  0  0  0  0  0  0  0  0  0  0  0  0
   10.4980   -0.8759   21.8317 C   0  0  0  0  0  0  0  0  0  0  0  0
    9.7214   -0.6105   22.9587 C   0  0  0  0  0  0  0  0  0  0  0  0
   10.0431   -0.8725   20.8476 H   0  0  0  0  0  0  0  0  0  0  0  0
   13.5776   -1.1940   23.2689 H   0  0  0  0  0  0  0  0  0  0  0  0
   12.1861   -0.7321   25.2868 H   0  0  0  0  0  0  0  0  0  0  0  0
    7.9279    1.2955   23.8850 H   0  0  0  0  0  0  0  0  0  0  0  0
    6.5747    0.1839   24.0646 H   0  0  0  0  0  0  0  0  0  0  0  0
    5.4722   -1.7062   22.0396 H   0  0  0  0  0  0  0  0  0  0  0  0
    6.3731   -2.5312   20.7684 H   0  0  0  0  0  0  0  0  0  0  0  0
    8.3742   -2.5258   21.9740 H   0  0  0  0  0  0  0  0  0  0  0  0
    7.9754   -2.9355   24.4198 H   0  0  0  0  0  0  0  0  0  0  0  0
    6.3438   -2.2538   24.2416 H   0  0  0  0  0  0  0  0  0  0  0  0
    6.7736   -3.7500   23.3855 H   0  0  0  0  0  0  0  0  0  0  0  0
  1  2  1  0
  2  3  1  0
  3  4  1  0
  4  5  1  0
  5  6  2  0
  6  7  1  0
  7  8  2  0
  8  9  1  0
  9 10  2  0
 10 11  1  0
 11 12  2  0
 12 13  1  0
 13 14  2  0
 13 15  1  0
 12 16  1  0
 11 17  1  0
 10 18  1  0
  8 19  1  0
  6 20  1  0
  4 21  1  0
 21 22  2  0
 21 23  1  0
 23 24  1  1
 24 25  1  0
 25 26  1  0
 26 27  1  0
 27 28  1  0
 28 29  1  0
 29 30  1  0
 30 31  1  0
 31 32  1  0
 32 33  1  0
 33 34  1  0
 33 35  1  0
 33 36  1  0
 32 37  1  0
 37 38  1  0
 37 39  1  0
 37 40  1  0
 32 41  1  0
 41 42  1  0
 41 43  1  0
 30 44  1  0
 30 45  1  0
 29 46  1  0
 29 47  1  0
 28 48  1  1
 27 49  1  0
 27 50  1  0
 26 51  1  0
 26 52  1  0
 25 53  1  0
 53 54  2  0
 53 55  1  0
 55 56  2  0
 56 57  1  0
 57 58  2  0
 58 59  1  0
 58 60  1  0
 60 61  2  0
 60 62  1  0
 57 63  1  0
 56 64  1  0
 24 65  1  0
 24 66  1  0
  3 67  1  0
  3 68  1  0
  2 69  1  6
  1 70  1  0
  1 71  1  0
  1 72  1  0
 23  2  1  0
 41 28  1  0
 61 55  1  0
 14  5  1  0
 61 23  1  0
 14  9  1  0
M  CHG  1  28   1
M  END
>  <cnnaffinities>  (33) 
[6.04683, 6.64133, 6.58862]

>  <score>  (33) 
6.04683

>  <index>  (33) 
32

>  <Smiles>  (33) 
C([C@]1(C(N(c2c(nc(c3c(c(c(c(c23)[H])[H])[H])[H])[H])[H])C(=O)[C@]21C(N(C(C([N@+]1(C(C(OC(C([H])([H])[H])(C([H])([H])[H])C1([H])[H])([H])[H])([H])[H])[H])([H])[H])([H])[H])C(=O)c1c(c(c(Cl)c(c21)[H])[H])[H])([H])[H])([H])[H])[H])([H])([H])[H]

>  <h>  (33) 
<NA>

>  <Training>  (33) 
True

>  <Success>  (33) 
True

>  <enamine_searched>  (33) 
False

>  <enamine_id>  (33) 
nan

$$$$

     RDKit          3D

 44 47  0  0  0  0  0  0  0  0999 V2000
    8.3591    1.3827   20.6946 O   0  0  0  0  0  0  0  0  0  0  0  0
    7.7389    0.6711   21.4701 C   0  0  0  0  0  0  0  0  0  0  0  0
    6.8736   -0.4879   20.9668 C   0  0  0  0  0  0  0  0  0  0  0  0
    5.9576   -0.0646   19.8593 C   0  0  0  0  0  0  0  0  0  0  0  0
    6.3865   -0.1576   18.5627 C   0  0  0  0  0  0  0  0  0  0  0  0
    5.7326    0.3295   17.4818 N   0  0  0  0  0  0  0  0  0  0  0  0
    4.6077    0.9582   17.7052 C   0  0  0  0  0  0  0  0  0  0  0  0
    4.0154    1.0974   18.9845 C   0  0  0  0  0  0  0  0  0  0  0  0
    2.7864    1.7847   19.1536 C   0  0  0  0  0  0  0  0  0  0  0  0
    2.2005    1.8753   20.3882 C   0  0  0  0  0  0  0  0  0  0  0  0
    2.8310    1.2755   21.5006 C   0  0  0  0  0  0  0  0  0  0  0  0
    4.0483    0.6570   21.3687 C   0  0  0  0  0  0  0  0  0  0  0  0
    4.6906    0.5533   20.1044 C   0  0  0  0  0  0  0  0  0  0  0  0
    4.5202    0.2261   22.2501 H   0  0  0  0  0  0  0  0  0  0  0  0
    2.3441    1.3436   22.4703 H   0  0  0  0  0  0  0  0  0  0  0  0
    1.2603    2.4055   20.5107 H   0  0  0  0  0  0  0  0  0  0  0  0
    2.3096    2.2065   18.2772 H   0  0  0  0  0  0  0  0  0  0  0  0
    4.1116    1.3961   16.8421 H   0  0  0  0  0  0  0  0  0  0  0  0
    7.3598   -0.5926   18.3513 H   0  0  0  0  0  0  0  0  0  0  0  0
    7.5890   -1.2334   20.5975 H   0  0  0  0  0  0  0  0  0  0  0  0
    6.3074   -0.9536   21.7715 H   0  0  0  0  0  0  0  0  0  0  0  0
    7.8025    0.8521   22.8227 N   0  0  0  0  0  0  0  0  0  0  0  0
    8.5228    2.0007   23.3605 C   0  0  0  0  0  0  0  0  0  0  0  0
    8.1681    1.9558   24.8464 C   0  0  0  0  0  0  0  0  0  0  0  0
    8.0479    0.4641   25.1379 C   0  0  0  0  0  0  0  0  0  0  0  0
    7.4657   -0.1354   23.8499 C   0  0  2  0  0  0  0  0  0  0  0  0
    8.0167   -1.5308   23.5934 C   0  0  0  0  0  0  0  0  0  0  0  0
    7.1708   -2.6260   23.7610 C   0  0  0  0  0  0  0  0  0  0  0  0
    7.6468   -3.9232   23.6036 C   0  0  0  0  0  0  0  0  0  0  0  0
    8.9799   -4.1384   23.2843 C   0  0  0  0  0  0  0  0  0  0  0  0
    9.8104   -3.0415   23.1162 C   0  0  0  0  0  0  0  0  0  0  0  0
   11.1037   -3.2580   22.8169 F   0  0  0  0  0  0  0  0  0  0  0  0
    9.3596   -1.7362   23.2645 C   0  0  0  0  0  0  0  0  0  0  0  0
   10.0703   -0.9202   23.1369 H   0  0  0  0  0  0  0  0  0  0  0  0
    9.3699   -5.1368   23.1811 H   0  0  0  0  0  0  0  0  0  0  0  0
    6.9718   -4.7645   23.7236 H   0  0  0  0  0  0  0  0  0  0  0  0
    6.1267   -2.4705   24.0243 H   0  0  0  0  0  0  0  0  0  0  0  0
    6.3699   -0.2020   23.9325 H   0  0  0  0  0  0  0  0  0  0  0  0
    7.4220    0.2507   26.0082 H   0  0  0  0  0  0  0  0  0  0  0  0
    9.0394    0.0349   25.3258 H   0  0  0  0  0  0  0  0  0  0  0  0
    8.9119    2.4343   25.4852 H   0  0  0  0  0  0  0  0  0  0  0  0
    7.2123    2.4676   25.0136 H   0  0  0  0  0  0  0  0  0  0  0  0
    9.5958    1.8812   23.1583 H   0  0  0  0  0  0  0  0  0  0  0  0
    8.1955    2.9252   22.8798 H   0  0  0  0  0  0  0  0  0  0  0  0
  1  2  2  0
  2  3  1  0
  3  4  1  0
  4  5  2  0
  5  6  1  0
  6  7  2  0
  7  8  1  0
  8  9  2  0
  9 10  1  0
 10 11  2  0
 11 12  1  0
 12 13  2  0
 12 14  1  0
 11 15  1  0
 10 16  1  0
  9 17  1  0
  7 18  1  0
  5 19  1  0
  3 20  1  0
  3 21  1  0
  2 22  1  0
 22 23  1  0
 23 24  1  0
 24 25  1  0
 25 26  1  0
 26 27  1  0
 27 28  2  0
 28 29  1  0
 29 30  2  0
 30 31  1  0
 31 32  1  0
 31 33  2  0
 33 34  1  0
 30 35  1  0
 29 36  1  0
 28 37  1  0
 26 38  1  1
 25 39  1  0
 25 40  1  0
 24 41  1  0
 24 42  1  0
 23 43  1  0
 23 44  1  0
 13  4  1  0
 26 22  1  0
 33 27  1  0
 13  8  1  0
M  END
>  <cnnaffinities>  (34) 
[5.72393, 5.48842, 5.57427, 5.95228, 5.71788, 5.93503]

>  <score>  (34) 
5.72393

>  <index>  (34) 
33

>  <Smiles>  (34) 
O=C(C(c1c(nc(c2c(c(c(c(c12)[H])[H])[H])[H])[H])[H])([H])[H])N1C(C(C([C@@]1(c1c(c(c(c(F)c1[H])[H])[H])[H])[H])([H])[H])([H])[H])([H])[H]

>  <h>  (34) 
<NA>

>  <Training>  (34) 
True

>  <Success>  (34) 
True

>  <enamine_searched>  (34) 
False

>  <enamine_id>  (34) 
nan

$$$$

     RDKit          3D

 58 63  0  0  0  0  0  0  0  0999 V2000
    7.7616   -3.0238   23.2915 C   0  0  0  0  0  0  0  0  0  0  0  0
    8.0090   -1.9415   22.2526 C   0  0  1  0  0  0  0  0  0  0  0  0
    6.8322   -1.8305   21.2753 C   0  0  0  0  0  0  0  0  0  0  0  0
    6.8428   -0.4398   20.8928 N   0  0  0  0  0  0  0  0  0  0  0  0
    6.0320    0.0501   19.8430 C   0  0  0  0  0  0  0  0  0  0  0  0
    6.4118   -0.1686   18.5448 C   0  0  0  0  0  0  0  0  0  0  0  0
    5.7429    0.2832   17.4616 N   0  0  0  0  0  0  0  0  0  0  0  0
    4.6454    0.9612   17.6744 C   0  0  0  0  0  0  0  0  0  0  0  0
    4.0986    1.1987   18.9634 C   0  0  0  0  0  0  0  0  0  0  0  0
    2.8646    1.8817   19.1252 C   0  0  0  0  0  0  0  0  0  0  0  0
    2.2905    2.0042   20.3628 C   0  0  0  0  0  0  0  0  0  0  0  0
    2.9277    1.4427   21.4972 C   0  0  0  0  0  0  0  0  0  0  0  0
    4.1387    0.7956   21.3642 C   0  0  0  0  0  0  0  0  0  0  0  0
    4.7756    0.6896   20.0916 C   0  0  0  0  0  0  0  0  0  0  0  0
    4.6267    0.3681   22.2337 H   0  0  0  0  0  0  0  0  0  0  0  0
    2.4749    1.5643   22.4771 H   0  0  0  0  0  0  0  0  0  0  0  0
    1.3593    2.5555   20.4816 H   0  0  0  0  0  0  0  0  0  0  0  0
    2.3755    2.2672   18.2358 H   0  0  0  0  0  0  0  0  0  0  0  0
    4.1393    1.3638   16.7988 H   0  0  0  0  0  0  0  0  0  0  0  0
    7.3397   -0.6924   18.3381 H   0  0  0  0  0  0  0  0  0  0  0  0
    7.6481    0.3737   21.6608 C   0  0  0  0  0  0  0  0  0  0  0  0
    7.7788    1.5681   21.4900 O   0  0  0  0  0  0  0  0  0  0  0  0
    8.2602   -0.4822   22.7919 C   0  0  1  0  0  0  0  0  0  0  0  0
    7.4438   -0.1110   24.0614 C   0  0  0  0  0  0  0  0  0  0  0  0
    8.0499   -0.5880   25.3029 N   0  0  0  0  0  0  0  0  0  0  0  0
    7.2008   -0.9579   26.4340 C   0  0  0  0  0  0  0  0  0  0  0  0
    6.9998   -2.4412   26.5774 C   0  0  0  0  0  0  0  0  0  0  0  0
    7.9488   -3.4479   26.7860 C   0  0  0  0  0  0  0  0  0  0  0  0
    7.3380   -4.6311   26.7985 N   0  0  0  0  0  0  0  0  0  0  0  0
    6.0725   -4.3236   26.5975 N   0  0  0  0  0  0  0  0  0  0  0  0
    5.0492   -5.3440   26.4672 C   0  0  0  0  0  0  0  0  0  0  0  0
    4.4086   -5.0942   25.6182 H   0  0  0  0  0  0  0  0  0  0  0  0
    5.5653   -6.2873   26.2850 H   0  0  0  0  0  0  0  0  0  0  0  0
    4.4432   -5.4192   27.3746 H   0  0  0  0  0  0  0  0  0  0  0  0
    5.8092   -3.0306   26.4630 N   0  0  0  0  0  0  0  0  0  0  0  0
    9.0175   -3.3760   26.9173 H   0  0  0  0  0  0  0  0  0  0  0  0
    7.6903   -0.5559   27.3284 H   0  0  0  0  0  0  0  0  0  0  0  0
    6.2211   -0.4869   26.3188 H   0  0  0  0  0  0  0  0  0  0  0  0
    9.3888   -0.4311   25.5546 C   0  0  0  0  0  0  0  0  0  0  0  0
    9.8670   -0.4585   26.6800 O   0  0  0  0  0  0  0  0  0  0  0  0
   10.2569   -0.2240   24.3632 C   0  0  0  0  0  0  0  0  0  0  0  0
   11.6233   -0.0847   24.6098 C   0  0  0  0  0  0  0  0  0  0  0  0
   12.5000    0.1816   23.5825 C   0  0  0  0  0  0  0  0  0  0  0  0
   11.9791    0.2801   22.2985 C   0  0  0  0  0  0  0  0  0  0  0  0
   12.8438    0.5823   21.3167 F   0  0  0  0  0  0  0  0  0  0  0  0
   10.6357    0.0775   22.0201 C   0  0  0  0  0  0  0  0  0  0  0  0
    9.7337   -0.1824   23.0640 C   0  0  0  0  0  0  0  0  0  0  0  0
   10.2975    0.1292   20.9929 H   0  0  0  0  0  0  0  0  0  0  0  0
   13.5628    0.3147   23.7534 H   0  0  0  0  0  0  0  0  0  0  0  0
   11.9725   -0.1869   25.6317 H   0  0  0  0  0  0  0  0  0  0  0  0
    6.4311   -0.5289   23.9780 H   0  0  0  0  0  0  0  0  0  0  0  0
    7.3487    0.9867   24.0819 H   0  0  0  0  0  0  0  0  0  0  0  0
    6.9389   -2.4716   20.3957 H   0  0  0  0  0  0  0  0  0  0  0  0
    5.8829   -2.1172   21.7565 H   0  0  0  0  0  0  0  0  0  0  0  0
    8.9067   -2.2014   21.6744 H   0  0  0  0  0  0  0  0  0  0  0  0
    6.8115   -2.8571   23.8108 H   0  0  0  0  0  0  0  0  0  0  0  0
    7.7121   -4.0026   22.8037 H   0  0  0  0  0  0  0  0  0  0  0  0
    8.5572   -3.0391   24.0400 H   0  0  0  0  0  0  0  0  0  0  0  0
  1  2  1  0
  2  3  1  0
  3  4  1  0
  4  5  1  0
  5  6  2  0
  6  7  1  0
  7  8  2  0
  8  9  1  0
  9 10  2  0
 10 11  1  0
 11 12  2  0
 12 13  1  0
 13 14  2  0
 13 15  1  0
 12 16  1  0
 11 17  1  0
 10 18  1  0
  8 19  1  0
  6 20  1  0
  4 21  1  0
 21 22  2  0
 21 23  1  0
 23 24  1  1
 24 25  1  0
 25 26  1  0
 26 27  1  0
 27 28  1  0
 28 29  2  0
 29 30  1  0
 30 31  1  0
 31 32  1  0
 31 33  1  0
 31 34  1  0
 30 35  1  0
 28 36  1  0
 26 37  1  0
 26 38  1  0
 25 39  1  0
 39 40  2  0
 39 41  1  0
 41 42  2  0
 42 43  1  0
 43 44  2  0
 44 45  1  0
 44 46  1  0
 46 47  2  0
 46 48  1  0
 43 49  1  0
 42 50  1  0
 24 51  1  0
 24 52  1  0
  3 53  1  0
  3 54  1  0
  2 55  1  6
  1 56  1  0
  1 57  1  0
  1 58  1  0
 23  2  1  0
 35 27  2  0
 47 41  1  0
 14  5  1  0
 47 23  1  0
 14  9  1  0
M  END
>  <cnnaffinities>  (35) 
[6.48879, 6.69552]

>  <score>  (35) 
6.48879

>  <index>  (35) 
34

>  <Smiles>  (35) 
C([C@]1(C(N(c2c(nc(c3c(c(c(c(c23)[H])[H])[H])[H])[H])[H])C(=O)[C@]21C(N(C(c1c(nn(C([H])([H])[H])n1)[H])([H])[H])C(=O)c1c(c(c(F)c(c21)[H])[H])[H])([H])[H])([H])[H])[H])([H])([H])[H]

>  <h>  (35) 
<NA>

>  <Training>  (35) 
True

>  <Success>  (35) 
True

>  <enamine_searched>  (35) 
False

>  <enamine_id>  (35) 
nan

$$$$

     RDKit          3D

 51 54  0  0  0  0  0  0  0  0999 V2000
   13.3610   -3.1563   25.8815 N   0  0  0  0  0  0  0  0  0  0  0  0
   12.9025   -2.4853   25.0580 C   0  0  0  0  0  0  0  0  0  0  0  0
   12.4071   -1.5795   24.0031 C   0  0  0  0  0  0  0  0  0  0  0  0
   10.9940   -1.8509   23.5223 C   0  0  0  0  0  0  0  0  0  0  0  0
    9.8952   -1.1284   23.9829 C   0  0  0  0  0  0  0  0  0  0  0  0
    8.6153   -1.3940   23.5040 C   0  0  0  0  0  0  0  0  0  0  0  0
    8.4057   -2.3937   22.5526 C   0  0  0  0  0  0  0  0  0  0  0  0
    7.0924   -2.7312   22.0975 N   0  0  0  0  0  0  0  0  0  0  0  0
    6.5420   -4.0366   22.4611 C   0  0  0  0  0  0  0  0  0  0  0  0
    5.9859   -4.0190   23.8697 C   0  0  0  0  0  0  0  0  0  0  0  0
    6.8340   -4.2206   24.9568 C   0  0  0  0  0  0  0  0  0  0  0  0
    6.3361   -4.1599   26.2521 C   0  0  0  0  0  0  0  0  0  0  0  0
    4.9926   -3.8828   26.4757 C   0  0  0  0  0  0  0  0  0  0  0  0
    4.1579   -3.6654   25.3865 C   0  0  0  0  0  0  0  0  0  0  0  0
    2.4694   -3.3427   25.6658 Cl  0  0  0  0  0  0  0  0  0  0  0  0
    4.6407   -3.7174   24.0858 C   0  0  0  0  0  0  0  0  0  0  0  0
    3.9844   -3.5094   23.2448 H   0  0  0  0  0  0  0  0  0  0  0  0
    4.5940   -3.8483   27.4839 H   0  0  0  0  0  0  0  0  0  0  0  0
    6.9993   -4.3366   27.0941 H   0  0  0  0  0  0  0  0  0  0  0  0
    7.8939   -4.4094   24.7896 H   0  0  0  0  0  0  0  0  0  0  0  0
    5.7521   -4.2588   21.7399 H   0  0  0  0  0  0  0  0  0  0  0  0
    7.3268   -4.7943   22.3625 H   0  0  0  0  0  0  0  0  0  0  0  0
    6.2244   -1.8723   21.4652 C   0  0  0  0  0  0  0  0  0  0  0  0
    5.0458   -2.1630   21.3128 O   0  0  0  0  0  0  0  0  0  0  0  0
    6.8021   -0.5751   20.9088 C   0  0  0  0  0  0  0  0  0  0  0  0
    5.9557   -0.0470   19.7999 C   0  0  0  0  0  0  0  0  0  0  0  0
    6.3786   -0.1750   18.5046 C   0  0  0  0  0  0  0  0  0  0  0  0
    5.7251    0.3130   17.4208 N   0  0  0  0  0  0  0  0  0  0  0  0
    4.6173    0.9736   17.6598 C   0  0  0  0  0  0  0  0  0  0  0  0
    4.0365    1.1409   18.9493 C   0  0  0  0  0  0  0  0  0  0  0  0
    2.8207    1.8521   19.1303 C   0  0  0  0  0  0  0  0  0  0  0  0
    2.2600    1.9651   20.3760 C   0  0  0  0  0  0  0  0  0  0  0  0
    2.8927    1.3681   21.4919 C   0  0  0  0  0  0  0  0  0  0  0  0
    4.0918    0.7053   21.3470 C   0  0  0  0  0  0  0  0  0  0  0  0
    4.7025    0.5833   20.0623 C   0  0  0  0  0  0  0  0  0  0  0  0
    4.5692    0.2544   22.2106 H   0  0  0  0  0  0  0  0  0  0  0  0
    2.4412    1.4625   22.4755 H   0  0  0  0  0  0  0  0  0  0  0  0
    1.3315    2.5071   20.5004 H   0  0  0  0  0  0  0  0  0  0  0  0
    2.3567    2.2763   18.2434 H   0  0  0  0  0  0  0  0  0  0  0  0
    4.1139    1.4185   16.8008 H   0  0  0  0  0  0  0  0  0  0  0  0
    7.3361   -0.6568   18.2970 H   0  0  0  0  0  0  0  0  0  0  0  0
    7.8152   -0.7799   20.5486 H   0  0  0  0  0  0  0  0  0  0  0  0
    6.8812    0.1756   21.7061 H   0  0  0  0  0  0  0  0  0  0  0  0
    9.5035   -3.1151   22.0844 C   0  0  0  0  0  0  0  0  0  0  0  0
   10.7776   -2.8320   22.5579 C   0  0  0  0  0  0  0  0  0  0  0  0
   11.6271   -3.3903   22.1754 H   0  0  0  0  0  0  0  0  0  0  0  0
    9.3564   -3.8998   21.3448 H   0  0  0  0  0  0  0  0  0  0  0  0
    7.7588   -0.8467   23.8904 H   0  0  0  0  0  0  0  0  0  0  0  0
   10.0254   -0.3404   24.7221 H   0  0  0  0  0  0  0  0  0  0  0  0
   12.4923   -0.5569   24.3846 H   0  0  0  0  0  0  0  0  0  0  0  0
   13.1004   -1.6753   23.1584 H   0  0  0  0  0  0  0  0  0  0  0  0
  1  2  3  0
  2  3  1  0
  3  4  1  0
  4  5  2  0
  5  6  1  0
  6  7  2  0
  7  8  1  0
  8  9  1  0
  9 10  1  0
 10 11  2  0
 11 12  1  0
 12 13  2  0
 13 14  1  0
 14 15  1  0
 14 16  2  0
 16 17  1  0
 13 18  1  0
 12 19  1  0
 11 20  1  0
  9 21  1  0
  9 22  1  0
  8 23  1  0
 23 24  2  0
 23 25  1  0
 25 26  1  0
 26 27  2  0
 27 28  1  0
 28 29  2  0
 29 30  1  0
 30 31  2  0
 31 32  1  0
 32 33  2  0
 33 34  1  0
 34 35  2  0
 34 36  1  0
 33 37  1  0
 32 38  1  0
 31 39  1  0
 29 40  1  0
 27 41  1  0
 25 42  1  0
 25 43  1  0
  7 44  1  0
 44 45  2  0
 45 46  1  0
 44 47  1  0
  6 48  1  0
  5 49  1  0
  3 50  1  0
  3 51  1  0
 45  4  1  0
 16 10  1  0
 35 26  1  0
 35 30  1  0
M  END
>  <cnnaffinities>  (36) 
[6.69699, 6.82854]

>  <score>  (36) 
6.69699

>  <index>  (36) 
35

>  <Smiles>  (36) 
N#CC(c1c(c(c(N(C(c2c(c(c(c(Cl)c2[H])[H])[H])[H])([H])[H])C(=O)C(c2c(nc(c3c(c(c(c(c23)[H])[H])[H])[H])[H])[H])([H])[H])c(c1[H])[H])[H])[H])([H])[H]

>  <h>  (36) 
<NA>

>  <Training>  (36) 
True

>  <Success>  (36) 
True

>  <enamine_searched>  (36) 
False

>  <enamine_id>  (36) 
nan

$$$$

     RDKit          3D

 59 64  0  0  0  0  0  0  0  0999 V2000
    7.7714   -3.0221   23.2703 C   0  0  0  0  0  0  0  0  0  0  0  0
    8.0222   -1.9362   22.2374 C   0  0  1  0  0  0  0  0  0  0  0  0
    6.8367   -1.8247   21.2702 C   0  0  0  0  0  0  0  0  0  0  0  0
    6.8410   -0.4330   20.8940 N   0  0  0  0  0  0  0  0  0  0  0  0
    6.0318    0.0583   19.8442 C   0  0  0  0  0  0  0  0  0  0  0  0
    6.4144   -0.1563   18.5467 C   0  0  0  0  0  0  0  0  0  0  0  0
    5.7471    0.2919   17.4606 N   0  0  0  0  0  0  0  0  0  0  0  0
    4.6385    0.9557   17.6727 C   0  0  0  0  0  0  0  0  0  0  0  0
    4.0894    1.1919   18.9624 C   0  0  0  0  0  0  0  0  0  0  0  0
    2.8510    1.8673   19.1254 C   0  0  0  0  0  0  0  0  0  0  0  0
    2.2756    1.9847   20.3601 C   0  0  0  0  0  0  0  0  0  0  0  0
    2.9162    1.4232   21.4934 C   0  0  0  0  0  0  0  0  0  0  0  0
    4.1311    0.7845   21.3608 C   0  0  0  0  0  0  0  0  0  0  0  0
    4.7713    0.6896   20.0941 C   0  0  0  0  0  0  0  0  0  0  0  0
    4.6085    0.3448   22.2287 H   0  0  0  0  0  0  0  0  0  0  0  0
    2.4597    1.5326   22.4705 H   0  0  0  0  0  0  0  0  0  0  0  0
    1.3398    2.5221   20.4836 H   0  0  0  0  0  0  0  0  0  0  0  0
    2.3562    2.2484   18.2398 H   0  0  0  0  0  0  0  0  0  0  0  0
    4.1295    1.3575   16.7983 H   0  0  0  0  0  0  0  0  0  0  0  0
    7.3389   -0.6847   18.3363 H   0  0  0  0  0  0  0  0  0  0  0  0
    7.6565    0.3769   21.6558 C   0  0  0  0  0  0  0  0  0  0  0  0
    7.7867    1.5719   21.4809 O   0  0  0  0  0  0  0  0  0  0  0  0
    8.2715   -0.4790   22.7836 C   0  0  1  0  0  0  0  0  0  0  0  0
    7.4532   -0.1109   24.0506 C   0  0  0  0  0  0  0  0  0  0  0  0
    8.0582   -0.5827   25.2907 N   0  0  0  0  0  0  0  0  0  0  0  0
    7.2085   -0.9676   26.4072 C   0  0  0  0  0  0  0  0  0  0  0  0
    7.0166   -2.4510   26.5196 C   0  0  0  0  0  0  0  0  0  0  0  0
    7.9774   -3.4320   26.8291 C   0  0  0  0  0  0  0  0  0  0  0  0
    7.2685   -4.6092   26.8838 C   0  0  0  0  0  0  0  0  0  0  0  0
    5.9860   -4.3100   26.5708 N   0  0  0  0  0  0  0  0  0  0  0  0
    4.9215   -5.2412   26.2507 C   0  0  0  0  0  0  0  0  0  0  0  0
    5.0474   -5.6450   25.2367 H   0  0  0  0  0  0  0  0  0  0  0  0
    4.9353   -6.0628   26.9708 H   0  0  0  0  0  0  0  0  0  0  0  0
    3.9707   -4.7075   26.3084 H   0  0  0  0  0  0  0  0  0  0  0  0
    5.8218   -2.9959   26.3300 N   0  0  0  0  0  0  0  0  0  0  0  0
    7.5715   -5.6164   27.1504 H   0  0  0  0  0  0  0  0  0  0  0  0
    9.0458   -3.3067   26.9586 H   0  0  0  0  0  0  0  0  0  0  0  0
    7.6934   -0.5827   27.3105 H   0  0  0  0  0  0  0  0  0  0  0  0
    6.2249   -0.5030   26.3008 H   0  0  0  0  0  0  0  0  0  0  0  0
    9.3962   -0.4342   25.5455 C   0  0  0  0  0  0  0  0  0  0  0  0
    9.8694   -0.4716   26.6765 O   0  0  0  0  0  0  0  0  0  0  0  0
   10.2665   -0.2255   24.3600 C   0  0  0  0  0  0  0  0  0  0  0  0
   11.6330   -0.0862   24.6108 C   0  0  0  0  0  0  0  0  0  0  0  0
   12.5063    0.1826   23.5809 C   0  0  0  0  0  0  0  0  0  0  0  0
   11.9891    0.2851   22.2960 C   0  0  0  0  0  0  0  0  0  0  0  0
   12.8564    0.5946   21.3174 F   0  0  0  0  0  0  0  0  0  0  0  0
   10.6459    0.0833   22.0147 C   0  0  0  0  0  0  0  0  0  0  0  0
    9.7449   -0.1789   23.0594 C   0  0  0  0  0  0  0  0  0  0  0  0
   10.3050    0.1378   20.9886 H   0  0  0  0  0  0  0  0  0  0  0  0
   13.5684    0.3131   23.7503 H   0  0  0  0  0  0  0  0  0  0  0  0
   11.9822   -0.1917   25.6342 H   0  0  0  0  0  0  0  0  0  0  0  0
    7.3561    0.9858   24.0713 H   0  0  0  0  0  0  0  0  0  0  0  0
    6.4416   -0.5353   23.9734 H   0  0  0  0  0  0  0  0  0  0  0  0
    6.9307   -2.4665   20.3877 H   0  0  0  0  0  0  0  0  0  0  0  0
    5.8926   -2.1119   21.7627 H   0  0  0  0  0  0  0  0  0  0  0  0
    8.9171   -2.1868   21.6508 H   0  0  0  0  0  0  0  0  0  0  0  0
    7.7262   -4.0010   22.7819 H   0  0  0  0  0  0  0  0  0  0  0  0
    6.8112   -2.8511   23.7684 H   0  0  0  0  0  0  0  0  0  0  0  0
    8.5557   -3.0427   24.0308 H   0  0  0  0  0  0  0  0  0  0  0  0
  1  2  1  0
  2  3  1  0
  3  4  1  0
  4  5  1  0
  5  6  2  0
  6  7  1  0
  7  8  2  0
  8  9  1  0
  9 10  2  0
 10 11  1  0
 11 12  2  0
 12 13  1  0
 13 14  2  0
 13 15  1  0
 12 16  1  0
 11 17  1  0
 10 18  1  0
  8 19  1  0
  6 20  1  0
  4 21  1  0
 21 22  2  0
 21 23  1  0
 23 24  1  1
 24 25  1  0
 25 26  1  0
 26 27  1  0
 27 28  1  0
 28 29  2  0
 29 30  1  0
 30 31  1  0
 31 32  1  0
 31 33  1  0
 31 34  1  0
 30 35  1  0
 29 36  1  0
 28 37  1  0
 26 38  1  0
 26 39  1  0
 25 40  1  0
 40 41  2  0
 40 42  1  0
 42 43  2  0
 43 44  1  0
 44 45  2  0
 45 46  1  0
 45 47  1  0
 47 48  2  0
 47 49  1  0
 44 50  1  0
 43 51  1  0
 24 52  1  0
 24 53  1  0
  3 54  1  0
  3 55  1  0
  2 56  1  6
  1 57  1  0
  1 58  1  0
  1 59  1  0
 23  2  1  0
 35 27  2  0
 48 42  1  0
 14  5  1  0
 48 23  1  0
 14  9  1  0
M  END
>  <cnnaffinities>  (37) 
[6.55668, 6.71817, 6.62131]

>  <score>  (37) 
6.55668

>  <index>  (37) 
36

>  <Smiles>  (37) 
C([C@]1(C(N(c2c(nc(c3c(c(c(c(c23)[H])[H])[H])[H])[H])[H])C(=O)[C@]21C(N(C(c1c(c(n(C([H])([H])[H])n1)[H])[H])([H])[H])C(=O)c1c(c(c(F)c(c21)[H])[H])[H])([H])[H])([H])[H])[H])([H])([H])[H]

>  <h>  (37) 
<NA>

>  <Training>  (37) 
True

>  <Success>  (37) 
True

>  <enamine_searched>  (37) 
False

>  <enamine_id>  (37) 
nan

$$$$

     RDKit          3D

 48 51  0  0  0  0  0  0  0  0999 V2000
   13.4091   -1.3606   24.3318 N   0  0  0  0  0  0  0  0  0  0  0  0
   12.3396   -1.5812   23.9402 C   0  0  0  0  0  0  0  0  0  0  0  0
   11.0068   -1.8518   23.4622 C   0  0  0  0  0  0  0  0  0  0  0  0
    9.9116   -1.1409   23.9607 C   0  0  0  0  0  0  0  0  0  0  0  0
    8.6329   -1.4107   23.4911 C   0  0  0  0  0  0  0  0  0  0  0  0
    8.4274   -2.4050   22.5337 C   0  0  0  0  0  0  0  0  0  0  0  0
    7.1094   -2.7310   22.0877 N   0  0  0  0  0  0  0  0  0  0  0  0
    6.5534   -4.0377   22.4427 C   0  0  0  0  0  0  0  0  0  0  0  0
    5.9863   -4.0284   23.8479 C   0  0  0  0  0  0  0  0  0  0  0  0
    6.8289   -4.2287   24.9396 C   0  0  0  0  0  0  0  0  0  0  0  0
    6.3268   -4.1714   26.2342 C   0  0  0  0  0  0  0  0  0  0  0  0
    4.9804   -3.9054   26.4526 C   0  0  0  0  0  0  0  0  0  0  0  0
    4.1480   -3.6995   25.3594 C   0  0  0  0  0  0  0  0  0  0  0  0
    2.4543   -3.3918   25.6341 Cl  0  0  0  0  0  0  0  0  0  0  0  0
    4.6363   -3.7481   24.0598 C   0  0  0  0  0  0  0  0  0  0  0  0
    3.9789   -3.5497   23.2175 H   0  0  0  0  0  0  0  0  0  0  0  0
    4.5756   -3.8726   27.4593 H   0  0  0  0  0  0  0  0  0  0  0  0
    6.9884   -4.3397   27.0797 H   0  0  0  0  0  0  0  0  0  0  0  0
    7.8897   -4.4122   24.7787 H   0  0  0  0  0  0  0  0  0  0  0  0
    7.3429   -4.7922   22.3534 H   0  0  0  0  0  0  0  0  0  0  0  0
    5.7705   -4.2591   21.7122 H   0  0  0  0  0  0  0  0  0  0  0  0
    6.2408   -1.8648   21.4596 C   0  0  0  0  0  0  0  0  0  0  0  0
    5.0618   -2.1438   21.3232 O   0  0  0  0  0  0  0  0  0  0  0  0
    6.8252   -0.5647   20.9042 C   0  0  0  0  0  0  0  0  0  0  0  0
    5.9730   -0.0382   19.7979 C   0  0  0  0  0  0  0  0  0  0  0  0
    6.3855   -0.1778   18.5016 C   0  0  0  0  0  0  0  0  0  0  0  0
    5.7271    0.3033   17.4226 N   0  0  0  0  0  0  0  0  0  0  0  0
    4.6315    0.9825   17.6572 C   0  0  0  0  0  0  0  0  0  0  0  0
    4.0573    1.1565   18.9414 C   0  0  0  0  0  0  0  0  0  0  0  0
    2.8564    1.8840   19.1235 C   0  0  0  0  0  0  0  0  0  0  0  0
    2.3111    2.0307   20.3705 C   0  0  0  0  0  0  0  0  0  0  0  0
    2.9417    1.4328   21.4910 C   0  0  0  0  0  0  0  0  0  0  0  0
    4.1350    0.7628   21.3415 C   0  0  0  0  0  0  0  0  0  0  0  0
    4.7298    0.6097   20.0550 C   0  0  0  0  0  0  0  0  0  0  0  0
    4.6095    0.3199   22.2114 H   0  0  0  0  0  0  0  0  0  0  0  0
    2.5014    1.5589   22.4803 H   0  0  0  0  0  0  0  0  0  0  0  0
    1.3841    2.5829   20.4995 H   0  0  0  0  0  0  0  0  0  0  0  0
    2.3910    2.3141   18.2399 H   0  0  0  0  0  0  0  0  0  0  0  0
    4.1283    1.4142   16.7944 H   0  0  0  0  0  0  0  0  0  0  0  0
    7.3300   -0.6803   18.2909 H   0  0  0  0  0  0  0  0  0  0  0  0
    7.8366   -0.7748   20.5393 H   0  0  0  0  0  0  0  0  0  0  0  0
    6.9189    0.1840   21.7053 H   0  0  0  0  0  0  0  0  0  0  0  0
    9.5181   -3.1242   22.0444 C   0  0  0  0  0  0  0  0  0  0  0  0
   10.7993   -2.8413   22.4979 C   0  0  0  0  0  0  0  0  0  0  0  0
   11.6465   -3.3968   22.1181 H   0  0  0  0  0  0  0  0  0  0  0  0
    9.3566   -3.9085   21.3083 H   0  0  0  0  0  0  0  0  0  0  0  0
    7.7771   -0.8723   23.8908 H   0  0  0  0  0  0  0  0  0  0  0  0
   10.0649   -0.3841   24.7207 H   0  0  0  0  0  0  0  0  0  0  0  0
  1  2  3  0
  2  3  1  0
  3  4  2  0
  4  5  1  0
  5  6  2  0
  6  7  1  0
  7  8  1  0
  8  9  1  0
  9 10  2  0
 10 11  1  0
 11 12  2  0
 12 13  1  0
 13 14  1  0
 13 15  2  0
 15 16  1  0
 12 17  1  0
 11 18  1  0
 10 19  1  0
  8 20  1  0
  8 21  1  0
  7 22  1  0
 22 23  2  0
 22 24  1  0
 24 25  1  0
 25 26  2  0
 26 27  1  0
 27 28  2  0
 28 29  1  0
 29 30  2  0
 30 31  1  0
 31 32  2  0
 32 33  1  0
 33 34  2  0
 33 35  1  0
 32 36  1  0
 31 37  1  0
 30 38  1  0
 28 39  1  0
 26 40  1  0
 24 41  1  0
 24 42  1  0
  6 43  1  0
 43 44  2  0
 44 45  1  0
 43 46  1  0
  5 47  1  0
  4 48  1  0
 44  3  1  0
 15  9  1  0
 34 25  1  0
 34 29  1  0
M  END
>  <cnnaffinities>  (38) 
[6.58067]

>  <score>  (38) 
6.58067

>  <index>  (38) 
37

>  <Smiles>  (38) 
N#Cc1c(c(c(N(C(c2c(c(c(c(Cl)c2[H])[H])[H])[H])([H])[H])C(=O)C(c2c(nc(c3c(c(c(c(c23)[H])[H])[H])[H])[H])[H])([H])[H])c(c1[H])[H])[H])[H]

>  <h>  (38) 
<NA>

>  <Training>  (38) 
True

>  <Success>  (38) 
True

>  <enamine_searched>  (38) 
False

>  <enamine_id>  (38) 
nan

$$$$

     RDKit          3D

 72 77  0  0  0  0  0  0  0  0999 V2000
    8.3240   -8.0141   22.7862 C   0  0  0  0  0  0  0  0  0  0  0  0
    7.1072   -7.2125   22.5786 N   0  0  0  0  0  4  0  0  0  0  0  0
    7.0935   -6.4511   21.2960 C   0  0  0  0  0  0  0  0  0  0  0  0
    6.3021   -5.1640   21.4902 C   0  0  0  0  0  0  0  0  0  0  0  0
    6.8484   -4.3774   22.5879 N   0  0  0  0  0  0  0  0  0  0  0  0
    7.8551   -3.3808   22.3190 C   0  0  0  0  0  0  0  0  0  0  0  0
    7.3430   -1.9634   22.6735 C   0  0  2  0  0  0  0  0  0  0  0  0
    6.1970   -1.6312   21.6837 C   0  0  0  0  0  0  0  0  0  0  0  0
    5.1111   -2.1775   21.6321 O   0  0  0  0  0  0  0  0  0  0  0  0
    6.6234   -0.6450   20.8154 N   0  0  0  0  0  0  0  0  0  0  0  0
    5.8409   -0.0921   19.7800 C   0  0  0  0  0  0  0  0  0  0  0  0
    6.3534   -0.0280   18.5037 C   0  0  0  0  0  0  0  0  0  0  0  0
    5.7037    0.4841   17.4329 N   0  0  0  0  0  0  0  0  0  0  0  0
    4.5111    0.9835   17.6341 C   0  0  0  0  0  0  0  0  0  0  0  0
    3.8734    1.0223   18.9042 C   0  0  0  0  0  0  0  0  0  0  0  0
    2.6014    1.6340   19.0640 C   0  0  0  0  0  0  0  0  0  0  0  0
    2.0275    1.7254   20.3009 C   0  0  0  0  0  0  0  0  0  0  0  0
    2.7026    1.2110   21.4300 C   0  0  0  0  0  0  0  0  0  0  0  0
    3.9282    0.6082   21.3022 C   0  0  0  0  0  0  0  0  0  0  0  0
    4.5467    0.4866   20.0234 C   0  0  0  0  0  0  0  0  0  0  0  0
    4.4375    0.2354   22.1831 H   0  0  0  0  0  0  0  0  0  0  0  0
    2.2532    1.3113   22.4123 H   0  0  0  0  0  0  0  0  0  0  0  0
    1.0674    2.2169   20.4278 H   0  0  0  0  0  0  0  0  0  0  0  0
    2.1176    2.0481   18.1843 H   0  0  0  0  0  0  0  0  0  0  0  0
    3.9934    1.4044   16.7718 H   0  0  0  0  0  0  0  0  0  0  0  0
    7.3460   -0.4232   18.2962 H   0  0  0  0  0  0  0  0  0  0  0  0
    8.0558   -0.3966   20.9181 C   0  0  0  0  0  0  0  0  0  0  0  0
    8.4121   -0.8844   22.3358 C   0  0  2  0  0  0  0  0  0  0  0  0
    9.8654   -1.3614   22.4379 C   0  0  0  0  0  0  0  0  0  0  0  0
   10.7672   -0.2938   22.4003 O   0  0  0  0  0  0  0  0  0  0  0  0
   11.3226   -0.0460   23.6969 C   0  0  0  0  0  0  0  0  0  0  0  0
   11.8765    1.3176   23.9023 C   0  0  0  0  0  0  0  0  0  0  0  0
   12.1967    1.3518   23.7482 C   0  0  0  0  0  0  0  0  0  0  0  0
   10.6729    3.8387   23.9548 S   0  0  0  0  0  0  0  0  0  0  0  0
    9.6268    3.5658   24.9365 O   0  0  0  0  0  0  0  0  0  0  0  0
   11.8669    4.6149   24.2839 O   0  0  0  0  0  0  0  0  0  0  0  0
   11.0741    2.2880   23.0886 C   0  0  0  0  0  0  0  0  0  0  0  0
   11.5388    2.5276   22.1395 H   0  0  0  0  0  0  0  0  0  0  0  0
   10.0630    1.8820   22.8778 H   0  0  0  0  0  0  0  0  0  0  0  0
   13.2697    2.0635   23.5987 H   0  0  0  0  0  0  0  0  0  0  0  0
   12.1883    1.2027   25.1017 H   0  0  0  0  0  0  0  0  0  0  0  0
   13.0846    1.0076   23.0021 H   0  0  0  0  0  0  0  0  0  0  0  0
   11.9545   -0.9241   23.9718 H   0  0  0  0  0  0  0  0  0  0  0  0
   10.4720   -0.0330   24.4119 H   0  0  0  0  0  0  0  0  0  0  0  0
   10.0151   -1.9386   23.3639 H   0  0  0  0  0  0  0  0  0  0  0  0
   10.0956   -2.0293   21.5949 H   0  0  0  0  0  0  0  0  0  0  0  0
    8.2828   -0.0374   23.0143 H   0  0  0  0  0  0  0  0  0  0  0  0
    8.2486    0.6663   20.7618 H   0  0  0  0  0  0  0  0  0  0  0  0
    8.6234   -0.9570   20.1612 H   0  0  0  0  0  0  0  0  0  0  0  0
    6.8594   -2.0205   24.1190 C   0  0  0  0  0  0  0  0  0  0  0  0
    6.8352   -0.8857   24.9405 C   0  0  0  0  0  0  0  0  0  0  0  0
    6.4138   -0.9870   26.2550 C   0  0  0  0  0  0  0  0  0  0  0  0
    6.4274    0.4391   27.2564 Cl  0  0  0  0  0  0  0  0  0  0  0  0
    5.9819   -2.1932   26.8027 C   0  0  0  0  0  0  0  0  0  0  0  0
    5.9589   -3.3099   25.9897 C   0  0  0  0  0  0  0  0  0  0  0  0
    6.3832   -3.2304   24.6634 C   0  0  0  0  0  0  0  0  0  0  0  0
    6.3036   -4.4648   23.8272 C   0  0  0  0  0  0  0  0  0  0  0  0
    5.7836   -5.5150   24.2233 O   0  0  0  0  0  0  0  0  0  0  0  0
    5.6129   -4.2677   26.3624 H   0  0  0  0  0  0  0  0  0  0  0  0
    5.6693   -2.2415   27.8408 H   0  0  0  0  0  0  0  0  0  0  0  0
    7.1254    0.0897   24.5663 H   0  0  0  0  0  0  0  0  0  0  0  0
    8.7530   -3.6010   22.9116 H   0  0  0  0  0  0  0  0  0  0  0  0
    8.1278   -3.4158   21.2646 H   0  0  0  0  0  0  0  0  0  0  0  0
    5.2610   -5.3916   21.7412 H   0  0  0  0  0  0  0  0  0  0  0  0
    6.3022   -4.5433   20.5877 H   0  0  0  0  0  0  0  0  0  0  0  0
    6.6535   -7.0521   20.4937 H   0  0  0  0  0  0  0  0  0  0  0  0
    8.1299   -6.2196   21.0161 H   0  0  0  0  0  0  0  0  0  0  0  0
    6.9632   -6.5518   23.3600 H   0  0  0  0  0  0  0  0  0  0  0  0
    6.2706   -7.8231   22.5942 H   0  0  0  0  0  0  0  0  0  0  0  0
    8.2814   -8.9379   22.2024 H   0  0  0  0  0  0  0  0  0  0  0  0
    9.2016   -7.4494   22.4563 H   0  0  0  0  0  0  0  0  0  0  0  0
    8.4526   -8.2621   23.8395 H   0  0  0  0  0  0  0  0  0  0  0  0
  1  2  1  0
  2  3  1  0
  3  4  1  0
  4  5  1  0
  5  6  1  0
  7  6  1  6
  7  8  1  0
  8  9  2  0
  8 10  1  0
 10 11  1  0
 11 12  2  0
 12 13  1  0
 13 14  2  0
 14 15  1  0
 15 16  2  0
 16 17  1  0
 17 18  2  0
 18 19  1  0
 19 20  2  0
 19 21  1  0
 18 22  1  0
 17 23  1  0
 16 24  1  0
 14 25  1  0
 12 26  1  0
 10 27  1  0
 27 28  1  0
 28 29  1  0
 29 30  1  0
 30 31  1  0
 31 32  1  0
 32 33  1  0
 33 34  1  0
 34 35  2  0
 34 36  2  0
 34 37  1  0
 37 38  1  0
 37 39  1  0
 33 40  1  0
 33 41  1  0
 32 42  1  0
 31 43  1  0
 31 44  1  0
 29 45  1  0
 29 46  1  0
 28 47  1  1
 27 48  1  0
 27 49  1  0
  7 50  1  0
 50 51  2  0
 51 52  1  0
 52 53  1  0
 52 54  2  0
 54 55  1  0
 55 56  2  0
 56 57  1  0
 57 58  2  0
 55 59  1  0
 54 60  1  0
 51 61  1  0
  6 62  1  0
  6 63  1  0
  4 64  1  0
  4 65  1  0
  3 66  1  0
  3 67  1  0
  2 68  1  0
  2 69  1  0
  1 70  1  0
  1 71  1  0
  1 72  1  0
 57  5  1  0
 28  7  1  0
 37 32  1  0
 56 50  1  0
 20 11  1  0
 20 15  1  0
M  CHG  1   2   1
M  END
>  <cnnaffinities>  (39) 
[6.75634]

>  <score>  (39) 
6.75634

>  <index>  (39) 
38

>  <Smiles>  (39) 
C([N+](C(C(N1C([C@@]2(C(=O)N(c3c(nc(c4c(c(c(c(c34)[H])[H])[H])[H])[H])[H])C([C@@]2(C(OC(C2(C(S(=O)(=O)C2([H])[H])([H])[H])[H])([H])[H])([H])[H])[H])([H])[H])c2c(c(Cl)c(c(c2C1=O)[H])[H])[H])([H])[H])([H])[H])([H])[H])([H])[H])([H])([H])[H]

>  <h>  (39) 
<NA>

>  <Training>  (39) 
True

>  <Success>  (39) 
True

>  <enamine_searched>  (39) 
False

>  <enamine_id>  (39) 
nan

$$$$

     RDKit          3D

 60 64  0  0  0  0  0  0  0  0999 V2000
    8.2604   -4.6097   24.7312 C   0  0  0  0  0  0  0  0  0  0  0  0
    8.7579   -3.7512   23.5868 C   0  0  0  0  0  0  0  0  0  0  0  0
    7.6865   -2.9234   23.1835 O   0  0  0  0  0  0  0  0  0  0  0  0
    8.0195   -1.9541   22.2236 C   0  0  1  0  0  0  0  0  0  0  0  0
    6.8197   -1.8254   21.2896 C   0  0  0  0  0  0  0  0  0  0  0  0
    6.8425   -0.4360   20.9132 N   0  0  0  0  0  0  0  0  0  0  0  0
    6.0254    0.0564   19.8650 C   0  0  0  0  0  0  0  0  0  0  0  0
    6.4188   -0.1474   18.5667 C   0  0  0  0  0  0  0  0  0  0  0  0
    5.7539    0.3017   17.4778 N   0  0  0  0  0  0  0  0  0  0  0  0
    4.6346    0.9490   17.6851 C   0  0  0  0  0  0  0  0  0  0  0  0
    4.0701    1.1678   18.9751 C   0  0  0  0  0  0  0  0  0  0  0  0
    2.8258    1.8318   19.1318 C   0  0  0  0  0  0  0  0  0  0  0  0
    2.2388    1.9343   20.3622 C   0  0  0  0  0  0  0  0  0  0  0  0
    2.8757    1.3726   21.4949 C   0  0  0  0  0  0  0  0  0  0  0  0
    4.0935    0.7463   21.3707 C   0  0  0  0  0  0  0  0  0  0  0  0
    4.7473    0.6628   20.1086 C   0  0  0  0  0  0  0  0  0  0  0  0
    4.5710    0.3125   22.2423 H   0  0  0  0  0  0  0  0  0  0  0  0
    2.4045    1.4579   22.4641 H   0  0  0  0  0  0  0  0  0  0  0  0
    1.2966    2.4588   20.4812 H   0  0  0  0  0  0  0  0  0  0  0  0
    2.3398    2.2225   18.2453 H   0  0  0  0  0  0  0  0  0  0  0  0
    4.1252    1.3562   16.8127 H   0  0  0  0  0  0  0  0  0  0  0  0
    7.3465   -0.6744   18.3591 H   0  0  0  0  0  0  0  0  0  0  0  0
    7.6827    0.3575   21.6689 C   0  0  0  0  0  0  0  0  0  0  0  0
    7.8156    1.5528   21.5106 O   0  0  0  0  0  0  0  0  0  0  0  0
    8.3015   -0.5078   22.7845 C   0  0  1  0  0  0  0  0  0  0  0  0
    7.4658   -0.1777   24.0457 C   0  0  0  0  0  0  0  0  0  0  0  0
    8.0632   -0.7250   25.2556 N   0  0  0  0  0  0  0  0  0  0  0  0
    7.1999   -1.2408   26.2955 C   0  0  0  0  0  0  0  0  0  0  0  0
    6.5729   -0.1120   27.1152 C   0  0  0  0  0  0  0  0  0  0  0  0
    5.5135    0.4013   26.7944 O   0  0  0  0  0  0  0  0  0  0  0  0
    7.2820    0.2795   28.2044 N   0  0  0  0  0  0  0  0  0  0  0  0
    6.7715    1.3773   28.9977 C   0  0  0  0  0  0  0  0  0  0  0  0
    5.7671    1.1346   29.3517 H   0  0  0  0  0  0  0  0  0  0  0  0
    6.7006    2.3001   28.4124 H   0  0  0  0  0  0  0  0  0  0  0  0
    7.4182    1.5402   29.8607 H   0  0  0  0  0  0  0  0  0  0  0  0
    8.2668    0.0526   28.2266 H   0  0  0  0  0  0  0  0  0  0  0  0
    6.4096   -1.8289   25.8178 H   0  0  0  0  0  0  0  0  0  0  0  0
    7.7869   -1.9023   26.9376 H   0  0  0  0  0  0  0  0  0  0  0  0
    9.3489   -0.4241   25.5851 C   0  0  0  0  0  0  0  0  0  0  0  0
    9.7455   -0.3457   26.7481 O   0  0  0  0  0  0  0  0  0  0  0  0
   10.2564   -0.2272   24.4257 C   0  0  0  0  0  0  0  0  0  0  0  0
   11.6101   -0.0724   24.7245 C   0  0  0  0  0  0  0  0  0  0  0  0
   12.5174    0.1894   23.7199 C   0  0  0  0  0  0  0  0  0  0  0  0
   12.0490    0.2701   22.4099 C   0  0  0  0  0  0  0  0  0  0  0  0
   13.2422    0.6374   21.1916 Cl  0  0  0  0  0  0  0  0  0  0  0  0
   10.7082    0.0710   22.0911 C   0  0  0  0  0  0  0  0  0  0  0  0
    9.7721   -0.2082   23.1042 C   0  0  0  0  0  0  0  0  0  0  0  0
   10.3878    0.1519   21.0584 H   0  0  0  0  0  0  0  0  0  0  0  0
   13.5724    0.3396   23.9301 H   0  0  0  0  0  0  0  0  0  0  0  0
   11.9260   -0.1682   25.7600 H   0  0  0  0  0  0  0  0  0  0  0  0
    7.3848    0.9172   24.1054 H   0  0  0  0  0  0  0  0  0  0  0  0
    6.4507   -0.5783   23.9518 H   0  0  0  0  0  0  0  0  0  0  0  0
    6.8829   -2.4716   20.4061 H   0  0  0  0  0  0  0  0  0  0  0  0
    5.9082   -2.1076   21.8348 H   0  0  0  0  0  0  0  0  0  0  0  0
    8.8993   -2.2653   21.6371 H   0  0  0  0  0  0  0  0  0  0  0  0
    9.6083   -3.1213   23.8883 H   0  0  0  0  0  0  0  0  0  0  0  0
    9.0847   -4.3771   22.7403 H   0  0  0  0  0  0  0  0  0  0  0  0
    7.3569   -5.1498   24.4306 H   0  0  0  0  0  0  0  0  0  0  0  0
    9.0288   -5.3327   25.0237 H   0  0  0  0  0  0  0  0  0  0  0  0
    8.0158   -3.9829   25.5969 H   0  0  0  0  0  0  0  0  0  0  0  0
  1  2  1  0
  2  3  1  0
  3  4  1  0
  4  5  1  0
  5  6  1  0
  6  7  1  0
  7  8  2  0
  8  9  1  0
  9 10  2  0
 10 11  1  0
 11 12  2  0
 12 13  1  0
 13 14  2  0
 14 15  1  0
 15 16  2  0
 15 17  1  0
 14 18  1  0
 13 19  1  0
 12 20  1  0
 10 21  1  0
  8 22  1  0
  6 23  1  0
 23 24  2  0
 23 25  1  0
 25 26  1  1
 26 27  1  0
 27 28  1  0
 28 29  1  0
 29 30  2  0
 29 31  1  0
 31 32  1  0
 32 33  1  0
 32 34  1  0
 32 35  1  0
 31 36  1  0
 28 37  1  0
 28 38  1  0
 27 39  1  0
 39 40  2  0
 39 41  1  0
 41 42  2  0
 42 43  1  0
 43 44  2  0
 44 45  1  0
 44 46  1  0
 46 47  2  0
 46 48  1  0
 43 49  1  0
 42 50  1  0
 26 51  1  0
 26 52  1  0
  5 53  1  0
  5 54  1  0
  4 55  1  6
  2 56  1  0
  2 57  1  0
  1 58  1  0
  1 59  1  0
  1 60  1  0
 25  4  1  0
 47 41  1  0
 16  7  1  0
 47 25  1  0
 16 11  1  0
M  END
>  <cnnaffinities>  (40) 
[6.50506, 6.72838]

>  <score>  (40) 
6.50506

>  <index>  (40) 
39

>  <Smiles>  (40) 
C(C(O[C@]1(C(N(c2c(nc(c3c(c(c(c(c23)[H])[H])[H])[H])[H])[H])C(=O)[C@]21C(N(C(C(=O)N(C([H])([H])[H])[H])([H])[H])C(=O)c1c(c(c(Cl)c(c21)[H])[H])[H])([H])[H])([H])[H])[H])([H])[H])([H])([H])[H]

>  <h>  (40) 
<NA>

>  <Training>  (40) 
True

>  <Success>  (40) 
True

>  <enamine_searched>  (40) 
False

>  <enamine_id>  (40) 
nan

$$$$

     RDKit          3D

 57 61  0  0  0  0  0  0  0  0999 V2000
    7.7931   -8.5019   23.1398 C   0  0  0  0  0  0  0  0  0  0  0  0
    6.8642   -7.4498   22.7903 N   0  0  0  0  0  0  0  0  0  0  0  0
    7.1524   -6.6249   21.7492 C   0  0  0  0  0  0  0  0  0  0  0  0
    8.0291   -6.8457   20.9308 O   0  0  0  0  0  0  0  0  0  0  0  0
    6.2775   -5.3695   21.7063 C   0  0  0  0  0  0  0  0  0  0  0  0
    6.7237   -4.3873   22.6734 N   0  0  0  0  0  0  0  0  0  0  0  0
    7.7970   -3.4773   22.3339 C   0  0  0  0  0  0  0  0  0  0  0  0
    7.4015   -2.0215   22.6794 C   0  0  2  0  0  0  0  0  0  0  0  0
    6.2748   -1.6212   21.6997 C   0  0  0  0  0  0  0  0  0  0  0  0
    5.1953   -2.1652   21.6000 O   0  0  0  0  0  0  0  0  0  0  0  0
    6.7173   -0.5816   20.9025 N   0  0  0  0  0  0  0  0  0  0  0  0
    5.9478   -0.0271   19.8605 C   0  0  0  0  0  0  0  0  0  0  0  0
    6.4192   -0.0697   18.5711 C   0  0  0  0  0  0  0  0  0  0  0  0
    5.7712    0.4250   17.4907 N   0  0  0  0  0  0  0  0  0  0  0  0
    4.6050    0.9873   17.6953 C   0  0  0  0  0  0  0  0  0  0  0  0
    3.9887    1.0930   18.9741 C   0  0  0  0  0  0  0  0  0  0  0  0
    2.7231    1.7289   19.1254 C   0  0  0  0  0  0  0  0  0  0  0  0
    2.1516    1.8269   20.3635 C   0  0  0  0  0  0  0  0  0  0  0  0
    2.8029    1.2813   21.4892 C   0  0  0  0  0  0  0  0  0  0  0  0
    4.0189    0.6626   21.3690 C   0  0  0  0  0  0  0  0  0  0  0  0
    4.6602    0.5647   20.0998 C   0  0  0  0  0  0  0  0  0  0  0  0
    4.4835    0.2401   22.2493 H   0  0  0  0  0  0  0  0  0  0  0  0
    2.3359    1.3718   22.4633 H   0  0  0  0  0  0  0  0  0  0  0  0
    1.2008    2.3388   20.4883 H   0  0  0  0  0  0  0  0  0  0  0  0
    2.2402    2.1445   18.2432 H   0  0  0  0  0  0  0  0  0  0  0  0
    4.0671    1.3509   16.8190 H   0  0  0  0  0  0  0  0  0  0  0  0
    7.3524   -0.5886   18.3570 H   0  0  0  0  0  0  0  0  0  0  0  0
    8.1666   -0.4515   20.9495 C   0  0  0  0  0  0  0  0  0  0  0  0
    8.5154   -0.9983   22.3387 C   0  0  2  0  0  0  0  0  0  0  0  0
    9.9527   -1.5346   22.4528 C   0  0  0  0  0  0  0  0  0  0  0  0
   10.9609   -0.4770   22.2909 C   0  0  0  0  0  0  0  0  0  0  0  0
   11.7539    0.3580   22.1812 N   0  0  0  0  0  0  0  0  0  0  0  0
   10.1403   -2.3006   21.6913 H   0  0  0  0  0  0  0  0  0  0  0  0
   10.1092   -1.9960   23.4352 H   0  0  0  0  0  0  0  0  0  0  0  0
    8.4204   -0.1684   23.0368 H   0  0  0  0  0  0  0  0  0  0  0  0
    8.6610   -1.0370   20.1597 H   0  0  0  0  0  0  0  0  0  0  0  0
    8.4421    0.5965   20.8223 H   0  0  0  0  0  0  0  0  0  0  0  0
    6.9125   -1.9962   24.1194 C   0  0  0  0  0  0  0  0  0  0  0  0
    6.8805   -0.7987   24.8466 C   0  0  0  0  0  0  0  0  0  0  0  0
    6.4121   -0.7924   26.1467 C   0  0  0  0  0  0  0  0  0  0  0  0
    6.3814    0.7095   27.0281 Cl  0  0  0  0  0  0  0  0  0  0  0  0
    5.9489   -1.9534   26.7655 C   0  0  0  0  0  0  0  0  0  0  0  0
    5.9291   -3.1292   26.0401 C   0  0  0  0  0  0  0  0  0  0  0  0
    6.3837   -3.1505   24.7207 C   0  0  0  0  0  0  0  0  0  0  0  0
    6.2079   -4.4103   23.9297 C   0  0  0  0  0  0  0  0  0  0  0  0
    5.5953   -5.3874   24.3698 O   0  0  0  0  0  0  0  0  0  0  0  0
    5.5453   -4.0502   26.4681 H   0  0  0  0  0  0  0  0  0  0  0  0
    5.5894   -1.9112   27.7878 H   0  0  0  0  0  0  0  0  0  0  0  0
    7.1853    0.1441   24.4041 H   0  0  0  0  0  0  0  0  0  0  0  0
    8.7095   -3.7784   22.8657 H   0  0  0  0  0  0  0  0  0  0  0  0
    7.9771   -3.5513   21.2644 H   0  0  0  0  0  0  0  0  0  0  0  0
    5.2404   -5.6044   21.9638 H   0  0  0  0  0  0  0  0  0  0  0  0
    6.3187   -4.9340   20.7023 H   0  0  0  0  0  0  0  0  0  0  0  0
    6.2587   -7.0731   23.5125 H   0  0  0  0  0  0  0  0  0  0  0  0
    7.3197   -9.1639   23.8683 H   0  0  0  0  0  0  0  0  0  0  0  0
    8.0563   -9.0657   22.2422 H   0  0  0  0  0  0  0  0  0  0  0  0
    8.7165   -8.0993   23.5756 H   0  0  0  0  0  0  0  0  0  0  0  0
  1  2  1  0
  2  3  1  0
  3  4  2  0
  3  5  1  0
  5  6  1  0
  6  7  1  0
  8  7  1  6
  8  9  1  0
  9 10  2  0
  9 11  1  0
 11 12  1  0
 12 13  2  0
 13 14  1  0
 14 15  2  0
 15 16  1  0
 16 17  2  0
 17 18  1  0
 18 19  2  0
 19 20  1  0
 20 21  2  0
 20 22  1  0
 19 23  1  0
 18 24  1  0
 17 25  1  0
 15 26  1  0
 13 27  1  0
 11 28  1  0
 28 29  1  0
 29 30  1  0
 30 31  1  0
 31 32  3  0
 30 33  1  0
 30 34  1  0
 29 35  1  1
 28 36  1  0
 28 37  1  0
  8 38  1  0
 38 39  2  0
 39 40  1  0
 40 41  1  0
 40 42  2  0
 42 43  1  0
 43 44  2  0
 44 45  1  0
 45 46  2  0
 43 47  1  0
 42 48  1  0
 39 49  1  0
  7 50  1  0
  7 51  1  0
  5 52  1  0
  5 53  1  0
  2 54  1  0
  1 55  1  0
  1 56  1  0
  1 57  1  0
 45  6  1  0
 29  8  1  0
 44 38  1  0
 21 12  1  0
 21 16  1  0
M  END
>  <cnnaffinities>  (41) 
[7.12765, 6.89496]

>  <score>  (41) 
7.12765

>  <index>  (41) 
40

>  <Smiles>  (41) 
C(N(C(=O)C(N1C([C@@]2(C(=O)N(c3c(nc(c4c(c(c(c(c34)[H])[H])[H])[H])[H])[H])C([C@@]2(C(C#N)([H])[H])[H])([H])[H])c2c(c(Cl)c(c(c2C1=O)[H])[H])[H])([H])[H])([H])[H])[H])([H])([H])[H]

>  <h>  (41) 
<NA>

>  <Training>  (41) 
True

>  <Success>  (41) 
True

>  <enamine_searched>  (41) 
False

>  <enamine_id>  (41) 
nan

$$$$

     RDKit          3D

 68 73  0  0  0  0  0  0  0  0999 V2000
    7.6093   -2.4646   23.7849 C   0  0  0  0  0  0  0  0  0  0  0  0
    7.8650   -1.6539   22.5254 C   0  0  1  0  0  0  0  0  0  0  0  0
    6.6349   -1.6362   21.6073 C   0  0  0  0  0  0  0  0  0  0  0  0
    6.7930   -0.3936   20.8906 N   0  0  0  0  0  0  0  0  0  0  0  0
    5.9632    0.0334   19.8343 C   0  0  0  0  0  0  0  0  0  0  0  0
    6.4045   -0.0840   18.5432 C   0  0  0  0  0  0  0  0  0  0  0  0
    5.7073    0.3427   17.4655 N   0  0  0  0  0  0  0  0  0  0  0  0
    4.5647    0.9405   17.6868 C   0  0  0  0  0  0  0  0  0  0  0  0
    3.9856    1.1091   18.9762 C   0  0  0  0  0  0  0  0  0  0  0  0
    2.7210    1.7223   19.1548 C   0  0  0  0  0  0  0  0  0  0  0  0
    2.1508    1.7939   20.3937 C   0  0  0  0  0  0  0  0  0  0  0  0
    2.7998    1.2178   21.5053 C   0  0  0  0  0  0  0  0  0  0  0  0
    4.0160    0.5998   21.3609 C   0  0  0  0  0  0  0  0  0  0  0  0
    4.6661    0.5760   20.0926 C   0  0  0  0  0  0  0  0  0  0  0  0
    4.4837    0.1307   22.2221 H   0  0  0  0  0  0  0  0  0  0  0  0
    2.3187    1.2485   22.4784 H   0  0  0  0  0  0  0  0  0  0  0  0
    1.1962    2.2950   20.5301 H   0  0  0  0  0  0  0  0  0  0  0  0
    2.2256    2.1349   18.2848 H   0  0  0  0  0  0  0  0  0  0  0  0
    4.0283    1.3171   16.8169 H   0  0  0  0  0  0  0  0  0  0  0  0
    7.3675   -0.5454   18.3380 H   0  0  0  0  0  0  0  0  0  0  0  0
    7.7958    0.4219   21.3618 C   0  0  0  0  0  0  0  0  0  0  0  0
    8.1906    1.4145   20.7866 O   0  0  0  0  0  0  0  0  0  0  0  0
    8.2810   -0.1605   22.7109 C   0  0  1  0  0  0  0  0  0  0  0  0
    7.5043    0.4933   23.8911 C   0  0  0  0  0  0  0  0  0  0  0  0
    7.8991    1.8672   24.1322 N   0  0  0  0  0  0  0  0  0  0  0  0
    6.9223    2.9149   24.3848 C   0  0  0  0  0  0  0  0  0  0  0  0
    6.8040    3.8228   23.1666 C   0  0  0  0  0  0  0  0  0  0  0  0
    5.7408    4.8561   23.3016 N   0  0  0  0  0  4  0  0  0  0  0  0
    6.0569    5.9449   24.2783 C   0  0  0  0  0  0  0  0  0  0  0  0
    4.7761    6.6298   24.7524 C   0  0  0  0  0  0  0  0  0  0  0  0
    3.5828    6.6931   23.4034 S   0  0  0  0  0  0  0  0  0  0  0  0
    2.8965    5.3958   23.4258 O   0  0  0  0  0  0  0  0  0  0  0  0
    2.8413    7.9465   23.4742 O   0  0  0  0  0  0  0  0  0  0  0  0
    4.5923    6.6712   21.9187 C   0  0  0  0  0  0  0  0  0  0  0  0
    5.4495    5.4012   21.9292 C   0  0  0  0  0  0  0  0  0  0  0  0
    4.9263    4.6092   21.4012 H   0  0  0  0  0  0  0  0  0  0  0  0
    6.4001    5.5950   21.4273 H   0  0  0  0  0  0  0  0  0  0  0  0
    3.8788    6.6262   21.0912 H   0  0  0  0  0  0  0  0  0  0  0  0
    5.1806    7.5882   21.8323 H   0  0  0  0  0  0  0  0  0  0  0  0
    4.2706    6.0352   25.5191 H   0  0  0  0  0  0  0  0  0  0  0  0
    4.9618    7.6310   25.1444 H   0  0  0  0  0  0  0  0  0  0  0  0
    6.5742    5.5215   25.1405 H   0  0  0  0  0  0  0  0  0  0  0  0
    6.7315    6.6628   23.8040 H   0  0  0  0  0  0  0  0  0  0  0  0
    4.8657    4.3806   23.5972 H   0  0  0  0  0  0  0  0  0  0  0  0
    6.5875    3.2055   22.2884 H   0  0  0  0  0  0  0  0  0  0  0  0
    7.7633    4.3173   22.9807 H   0  0  0  0  0  0  0  0  0  0  0  0
    5.9465    2.4682   24.5990 H   0  0  0  0  0  0  0  0  0  0  0  0
    7.2440    3.4805   25.2612 H   0  0  0  0  0  0  0  0  0  0  0  0
    9.2179    2.2064   24.2309 C   0  0  0  0  0  0  0  0  0  0  0  0
    9.5888    3.2487   24.7588 O   0  0  0  0  0  0  0  0  0  0  0  0
   10.1925    1.2353   23.6285 C   0  0  0  0  0  0  0  0  0  0  0  0
   11.5521    1.5135   23.7736 C   0  0  0  0  0  0  0  0  0  0  0  0
   12.5070    0.6583   23.2598 C   0  0  0  0  0  0  0  0  0  0  0  0
   12.0785   -0.4723   22.5688 C   0  0  0  0  0  0  0  0  0  0  0  0
   13.2511   -1.5885   21.9332 Cl  0  0  0  0  0  0  0  0  0  0  0  0
   10.7361   -0.7416   22.3749 C   0  0  0  0  0  0  0  0  0  0  0  0
    9.7598    0.0987   22.9271 C   0  0  0  0  0  0  0  0  0  0  0  0
   10.4747   -1.6095   21.7799 H   0  0  0  0  0  0  0  0  0  0  0  0
   13.5668    0.8596   23.3749 H   0  0  0  0  0  0  0  0  0  0  0  0
   11.8417    2.4219   24.2859 H   0  0  0  0  0  0  0  0  0  0  0  0
    7.7048   -0.0991   24.7939 H   0  0  0  0  0  0  0  0  0  0  0  0
    6.4265    0.4673   23.6950 H   0  0  0  0  0  0  0  0  0  0  0  0
    6.6090   -2.4970   20.9266 H   0  0  0  0  0  0  0  0  0  0  0  0
    5.7012   -1.6682   22.1861 H   0  0  0  0  0  0  0  0  0  0  0  0
    8.6586   -2.1320   21.9459 H   0  0  0  0  0  0  0  0  0  0  0  0
    8.4660   -2.4490   24.4645 H   0  0  0  0  0  0  0  0  0  0  0  0
    7.3873   -3.5043   23.5227 H   0  0  0  0  0  0  0  0  0  0  0  0
    6.7381   -2.0731   24.3238 H   0  0  0  0  0  0  0  0  0  0  0  0
  1  2  1  0
  2  3  1  0
  3  4  1  0
  4  5  1  0
  5  6  2  0
  6  7  1  0
  7  8  2  0
  8  9  1  0
  9 10  2  0
 10 11  1  0
 11 12  2  0
 12 13  1  0
 13 14  2  0
 13 15  1  0
 12 16  1  0
 11 17  1  0
 10 18  1  0
  8 19  1  0
  6 20  1  0
  4 21  1  0
 21 22  2  0
 21 23  1  0
 23 24  1  1
 24 25  1  0
 25 26  1  0
 26 27  1  0
 27 28  1  0
 28 29  1  0
 29 30  1  0
 30 31  1  0
 31 32  2  0
 31 33  2  0
 31 34  1  0
 34 35  1  0
 35 36  1  0
 35 37  1  0
 34 38  1  0
 34 39  1  0
 30 40  1  0
 30 41  1  0
 29 42  1  0
 29 43  1  0
 28 44  1  0
 27 45  1  0
 27 46  1  0
 26 47  1  0
 26 48  1  0
 25 49  1  0
 49 50  2  0
 49 51  1  0
 51 52  2  0
 52 53  1  0
 53 54  2  0
 54 55  1  0
 54 56  1  0
 56 57  2  0
 56 58  1  0
 53 59  1  0
 52 60  1  0
 24 61  1  0
 24 62  1  0
  3 63  1  0
  3 64  1  0
  2 65  1  6
  1 66  1  0
  1 67  1  0
  1 68  1  0
 23  2  1  0
 35 28  1  0
 57 51  1  0
 14  5  1  0
 57 23  1  0
 14  9  1  0
M  CHG  1  28   1
M  END
>  <cnnaffinities>  (42) 
[6.63545, 6.67644]

>  <score>  (42) 
6.63545

>  <index>  (42) 
41

>  <Smiles>  (42) 
C([C@]1(C(N(c2c(nc(c3c(c(c(c(c23)[H])[H])[H])[H])[H])[H])C(=O)[C@]21C(N(C(C([N+]1(C(C(S(=O)(=O)C(C1([H])[H])([H])[H])([H])[H])([H])[H])[H])([H])[H])([H])[H])C(=O)c1c(c(c(Cl)c(c21)[H])[H])[H])([H])[H])([H])[H])[H])([H])([H])[H]

>  <h>  (42) 
<NA>

>  <Training>  (42) 
True

>  <Success>  (42) 
True

>  <enamine_searched>  (42) 
False

>  <enamine_id>  (42) 
nan

$$$$

     RDKit          3D

 60 65  0  0  0  0  0  0  0  0999 V2000
    6.6898    1.5728   29.0668 C   0  0  0  0  0  0  0  0  0  0  0  0
    7.1486    0.4141   28.3226 N   0  0  0  0  0  0  0  0  0  0  0  0
    6.5126    0.1162   27.1562 C   0  0  0  0  0  0  0  0  0  0  0  0
    5.5378    0.7313   26.7512 O   0  0  0  0  0  0  0  0  0  0  0  0
    7.0993   -1.0697   26.3851 C   0  0  0  0  0  0  0  0  0  0  0  0
    7.9740   -0.6441   25.3050 N   0  0  0  0  0  0  0  0  0  0  0  0
    7.3802   -0.1554   24.0604 C   0  0  0  0  0  0  0  0  0  0  0  0
    8.2462   -0.4630   22.8054 C   0  0  2  0  0  0  0  0  0  0  0  0
    7.6412    0.3948   21.6732 C   0  0  0  0  0  0  0  0  0  0  0  0
    7.7573    1.5934   21.5162 O   0  0  0  0  0  0  0  0  0  0  0  0
    6.8563   -0.4268   20.8880 N   0  0  0  0  0  0  0  0  0  0  0  0
    6.0261    0.0375   19.8413 C   0  0  0  0  0  0  0  0  0  0  0  0
    6.4087   -0.1786   18.5445 C   0  0  0  0  0  0  0  0  0  0  0  0
    5.7357    0.2765   17.4649 N   0  0  0  0  0  0  0  0  0  0  0  0
    4.6485    0.9682   17.6841 C   0  0  0  0  0  0  0  0  0  0  0  0
    4.0794    1.1710   18.9680 C   0  0  0  0  0  0  0  0  0  0  0  0
    2.8551    1.8677   19.1316 C   0  0  0  0  0  0  0  0  0  0  0  0
    2.2829    1.9929   20.3689 C   0  0  0  0  0  0  0  0  0  0  0  0
    2.9148    1.4247   21.5026 C   0  0  0  0  0  0  0  0  0  0  0  0
    4.1266    0.7836   21.3702 C   0  0  0  0  0  0  0  0  0  0  0  0
    4.7578    0.6573   20.0944 C   0  0  0  0  0  0  0  0  0  0  0  0
    4.6295    0.3835   22.2476 H   0  0  0  0  0  0  0  0  0  0  0  0
    2.4537    1.5473   22.4816 H   0  0  0  0  0  0  0  0  0  0  0  0
    1.3566    2.5496   20.4832 H   0  0  0  0  0  0  0  0  0  0  0  0
    2.3926    2.2789   18.2379 H   0  0  0  0  0  0  0  0  0  0  0  0
    4.1490    1.3741   16.8084 H   0  0  0  0  0  0  0  0  0  0  0  0
    7.3416   -0.7014   18.3413 H   0  0  0  0  0  0  0  0  0  0  0  0
    6.8620   -1.8148   21.2743 C   0  0  0  0  0  0  0  0  0  0  0  0
    8.0544   -1.9166   22.2248 C   0  0  2  0  0  0  0  0  0  0  0  0
    7.8235   -3.0712   23.2007 C   0  0  0  0  0  0  0  0  0  0  0  0
    9.0243   -3.4422   24.0195 C   0  0  0  0  0  0  0  0  0  0  0  0
   10.2880   -3.3624   23.6202 N   0  0  0  0  0  0  0  0  0  0  0  0
   11.0113   -3.7855   24.6561 N   0  0  0  0  0  0  0  0  0  0  0  0
   10.2125   -4.1130   25.6332 N   0  0  0  0  0  2  0  0  0  0  0  0
    8.9540   -3.9088   25.2566 N   0  0  0  0  0  0  0  0  0  0  0  0
    7.0179   -2.8212   23.8939 H   0  0  0  0  0  0  0  0  0  0  0  0
    7.4959   -3.9505   22.6321 H   0  0  0  0  0  0  0  0  0  0  0  0
    8.9589   -2.1315   21.6410 H   0  0  0  0  0  0  0  0  0  0  0  0
    6.9564   -2.4476   20.3884 H   0  0  0  0  0  0  0  0  0  0  0  0
    5.9252   -2.1108   21.7776 H   0  0  0  0  0  0  0  0  0  0  0  0
    9.6953   -0.1160   23.1570 C   0  0  0  0  0  0  0  0  0  0  0  0
   10.6537    0.0952   22.1535 C   0  0  0  0  0  0  0  0  0  0  0  0
   11.9808    0.3371   22.4781 C   0  0  0  0  0  0  0  0  0  0  0  0
   13.1715    0.6115   21.2441 Cl  0  0  0  0  0  0  0  0  0  0  0  0
   12.4251    0.3593   23.7955 C   0  0  0  0  0  0  0  0  0  0  0  0
   11.4977    0.1328   24.7858 C   0  0  0  0  0  0  0  0  0  0  0  0
   10.1586   -0.0772   24.4816 C   0  0  0  0  0  0  0  0  0  0  0  0
    9.2537   -0.3144   25.6398 C   0  0  0  0  0  0  0  0  0  0  0  0
    9.6427   -0.2495   26.8048 O   0  0  0  0  0  0  0  0  0  0  0  0
   11.7825    0.1052   25.8278 H   0  0  0  0  0  0  0  0  0  0  0  0
   13.4670    0.5514   24.0269 H   0  0  0  0  0  0  0  0  0  0  0  0
   10.3642    0.0774   21.1114 H   0  0  0  0  0  0  0  0  0  0  0  0
    6.3834   -0.5998   23.9559 H   0  0  0  0  0  0  0  0  0  0  0  0
    7.2325    0.9352   24.0952 H   0  0  0  0  0  0  0  0  0  0  0  0
    7.6724   -1.7262   27.0436 H   0  0  0  0  0  0  0  0  0  0  0  0
    6.2844   -1.6513   25.9465 H   0  0  0  0  0  0  0  0  0  0  0  0
    8.1196    0.1336   28.3924 H   0  0  0  0  0  0  0  0  0  0  0  0
    7.3054    1.6896   29.9614 H   0  0  0  0  0  0  0  0  0  0  0  0
    5.6484    1.4189   29.3720 H   0  0  0  0  0  0  0  0  0  0  0  0
    6.7453    2.4881   28.4609 H   0  0  0  0  0  0  0  0  0  0  0  0
  1  2  1  0
  2  3  1  0
  3  4  2  0
  3  5  1  0
  5  6  1  0
  6  7  1  0
  8  7  1  1
  8  9  1  0
  9 10  2  0
  9 11  1  0
 11 12  1  0
 12 13  2  0
 13 14  1  0
 14 15  2  0
 15 16  1  0
 16 17  2  0
 17 18  1  0
 18 19  2  0
 19 20  1  0
 20 21  2  0
 20 22  1  0
 19 23  1  0
 18 24  1  0
 17 25  1  0
 15 26  1  0
 13 27  1  0
 11 28  1  0
 28 29  1  0
 29 30  1  0
 30 31  1  0
 31 32  1  0
 32 33  2  0
 33 34  1  0
 34 35  1  0
 30 36  1  0
 30 37  1  0
 29 38  1  6
 28 39  1  0
 28 40  1  0
  8 41  1  0
 41 42  2  0
 42 43  1  0
 43 44  1  0
 43 45  2  0
 45 46  1  0
 46 47  2  0
 47 48  1  0
 48 49  2  0
 46 50  1  0
 45 51  1  0
 42 52  1  0
  7 53  1  0
  7 54  1  0
  5 55  1  0
  5 56  1  0
  2 57  1  0
  1 58  1  0
  1 59  1  0
  1 60  1  0
 48  6  1  0
 29  8  1  0
 35 31  2  0
 47 41  1  0
 21 12  1  0
 21 16  1  0
M  CHG  1  34  -1
M  END
>  <cnnaffinities>  (43) 
[6.54121, 6.83423, 6.83931, 6.7508, 6.9197]

>  <score>  (43) 
6.54121

>  <index>  (43) 
42

>  <Smiles>  (43) 
C(N(C(=O)C(N1C([C@@]2(C(=O)N(c3c(nc(c4c(c(c(c(c34)[H])[H])[H])[H])[H])[H])C([C@@]2(C(c2nn[n-]n2)([H])[H])[H])([H])[H])c2c(c(Cl)c(c(c2C1=O)[H])[H])[H])([H])[H])([H])[H])[H])([H])([H])[H]

>  <h>  (43) 
<NA>

>  <Training>  (43) 
True

>  <Success>  (43) 
True

>  <enamine_searched>  (43) 
False

>  <enamine_id>  (43) 
nan

$$$$

     RDKit          3D

 62 67  0  0  0  0  0  0  0  0999 V2000
   10.7552    5.4412   24.8634 C   0  0  0  0  0  0  0  0  0  0  0  0
    9.2635    5.3019   25.1722 C   0  0  0  0  0  0  0  0  0  0  0  0
    8.4563    4.7322   24.0948 N   0  0  0  0  0  0  0  0  0  0  0  0
    7.8360    5.5808   23.2612 N   0  0  0  0  0  0  0  0  0  0  0  0
    7.2941    4.8158   22.3271 C   0  0  0  0  0  0  0  0  0  0  0  0
    7.5698    3.4546   22.5379 C   0  0  0  0  0  0  0  0  0  0  0  0
    8.3057    3.4322   23.7048 C   0  0  0  0  0  0  0  0  0  0  0  0
    8.7900    2.2847   24.5391 C   0  0  0  0  0  0  0  0  0  0  0  0
    9.2297    1.1614   23.7347 N   0  0  0  0  0  0  0  0  0  0  0  0
    8.4229   -0.0460   23.6290 C   0  0  0  0  0  0  0  0  0  0  0  0
    8.6674   -0.8099   22.2964 C   0  0  2  0  0  0  0  0  0  0  0  0
    8.0639   -0.0178   21.1089 C   0  0  0  0  0  0  0  0  0  0  0  0
    8.5845    0.8898   20.4910 O   0  0  0  0  0  0  0  0  0  0  0  0
    6.7923   -0.4984   20.8749 N   0  0  0  0  0  0  0  0  0  0  0  0
    5.9962   -0.0124   19.8185 C   0  0  0  0  0  0  0  0  0  0  0  0
    6.4210   -0.1440   18.5188 C   0  0  0  0  0  0  0  0  0  0  0  0
    5.7401    0.3189   17.4467 N   0  0  0  0  0  0  0  0  0  0  0  0
    4.6186    0.9533   17.6730 C   0  0  0  0  0  0  0  0  0  0  0  0
    4.0509    1.1345   18.9628 C   0  0  0  0  0  0  0  0  0  0  0  0
    2.8309    1.8329   19.1476 C   0  0  0  0  0  0  0  0  0  0  0  0
    2.2773    1.9514   20.3929 C   0  0  0  0  0  0  0  0  0  0  0  0
    2.9259    1.3811   21.5106 C   0  0  0  0  0  0  0  0  0  0  0  0
    4.1333    0.7408   21.3632 C   0  0  0  0  0  0  0  0  0  0  0  0
    4.7372    0.6147   20.0807 C   0  0  0  0  0  0  0  0  0  0  0  0
    4.6292    0.3248   22.2313 H   0  0  0  0  0  0  0  0  0  0  0  0
    2.4777    1.4703   22.4929 H   0  0  0  0  0  0  0  0  0  0  0  0
    1.3438    2.4888   20.5252 H   0  0  0  0  0  0  0  0  0  0  0  0
    2.3374    2.2270   18.2655 H   0  0  0  0  0  0  0  0  0  0  0  0
    4.1061    1.3734   16.8101 H   0  0  0  0  0  0  0  0  0  0  0  0
    7.3743   -0.6156   18.3000 H   0  0  0  0  0  0  0  0  0  0  0  0
    6.4454   -1.6555   21.6721 C   0  0  0  0  0  0  0  0  0  0  0  0
    7.8006   -2.1066   22.2341 C   0  0  2  0  0  0  0  0  0  0  0  0
    7.6193   -2.8847   23.5285 C   0  0  0  0  0  0  0  0  0  0  0  0
    7.0647   -2.2808   24.2583 H   0  0  0  0  0  0  0  0  0  0  0  0
    7.0338   -3.7919   23.3411 H   0  0  0  0  0  0  0  0  0  0  0  0
    8.5752   -3.1699   23.9784 H   0  0  0  0  0  0  0  0  0  0  0  0
    8.2401   -2.7575   21.4724 H   0  0  0  0  0  0  0  0  0  0  0  0
    5.9639   -2.4245   21.0577 H   0  0  0  0  0  0  0  0  0  0  0  0
    5.7521   -1.4140   22.4911 H   0  0  0  0  0  0  0  0  0  0  0  0
   10.1700   -0.9801   22.1348 C   0  0  0  0  0  0  0  0  0  0  0  0
   10.7376   -2.0267   21.4007 C   0  0  0  0  0  0  0  0  0  0  0  0
   12.1020   -2.0585   21.1834 C   0  0  0  0  0  0  0  0  0  0  0  0
   12.6002   -3.0201   20.3905 F   0  0  0  0  0  0  0  0  0  0  0  0
   12.9748   -1.1341   21.7428 C   0  0  0  0  0  0  0  0  0  0  0  0
   12.4276   -0.1030   22.4702 C   0  0  0  0  0  0  0  0  0  0  0  0
   11.0485   -0.0095   22.6406 C   0  0  0  0  0  0  0  0  0  0  0  0
   10.5514    1.1684   23.3977 C   0  0  0  0  0  0  0  0  0  0  0  0
   11.3042    2.0804   23.7303 O   0  0  0  0  0  0  0  0  0  0  0  0
   13.0515    0.6595   22.9213 H   0  0  0  0  0  0  0  0  0  0  0  0
   14.0441   -1.2293   21.6227 H   0  0  0  0  0  0  0  0  0  0  0  0
   10.1482   -2.8320   20.9815 H   0  0  0  0  0  0  0  0  0  0  0  0
    8.6647   -0.7220   24.4628 H   0  0  0  0  0  0  0  0  0  0  0  0
    7.3685    0.2376   23.7130 H   0  0  0  0  0  0  0  0  0  0  0  0
    9.6490    2.6184   25.1301 H   0  0  0  0  0  0  0  0  0  0  0  0
    8.0067    1.9558   25.2344 H   0  0  0  0  0  0  0  0  0  0  0  0
    7.3092    2.6330   21.8807 H   0  0  0  0  0  0  0  0  0  0  0  0
    6.6992    5.2739   21.5506 H   0  0  0  0  0  0  0  0  0  0  0  0
    8.8360    6.2940   25.3342 H   0  0  0  0  0  0  0  0  0  0  0  0
    9.1060    4.7124   26.0822 H   0  0  0  0  0  0  0  0  0  0  0  0
   11.2409    4.4742   24.6862 H   0  0  0  0  0  0  0  0  0  0  0  0
   10.9046    6.0854   23.9910 H   0  0  0  0  0  0  0  0  0  0  0  0
   11.2454    5.9212   25.7178 H   0  0  0  0  0  0  0  0  0  0  0  0
  1  2  1  0
  2  3  1  0
  3  4  1  0
  4  5  2  0
  5  6  1  0
  6  7  2  0
  7  8  1  0
  8  9  1  0
  9 10  1  0
 11 10  1  1
 11 12  1  0
 12 13  2  0
 12 14  1  0
 14 15  1  0
 15 16  2  0
 16 17  1  0
 17 18  2  0
 18 19  1  0
 19 20  2  0
 20 21  1  0
 21 22  2  0
 22 23  1  0
 23 24  2  0
 23 25  1  0
 22 26  1  0
 21 27  1  0
 20 28  1  0
 18 29  1  0
 16 30  1  0
 14 31  1  0
 31 32  1  0
 32 33  1  0
 33 34  1  0
 33 35  1  0
 33 36  1  0
 32 37  1  6
 31 38  1  0
 31 39  1  0
 11 40  1  0
 40 41  2  0
 41 42  1  0
 42 43  1  0
 42 44  2  0
 44 45  1  0
 45 46  2  0
 46 47  1  0
 47 48  2  0
 45 49  1  0
 44 50  1  0
 41 51  1  0
 10 52  1  0
 10 53  1  0
  8 54  1  0
  8 55  1  0
  6 56  1  0
  5 57  1  0
  2 58  1  0
  2 59  1  0
  1 60  1  0
  1 61  1  0
  1 62  1  0
  7  3  1  0
 47  9  1  0
 32 11  1  0
 46 40  1  0
 24 15  1  0
 24 19  1  0
M  END
>  <cnnaffinities>  (44) 
[6.91216, 6.3109, 7.18761]

>  <score>  (44) 
6.91216

>  <index>  (44) 
43

>  <Smiles>  (44) 
C(C(n1nc(c(c1C(N1C([C@@]2(C(=O)N(c3c(nc(c4c(c(c(c(c34)[H])[H])[H])[H])[H])[H])C([C@@]2(C([H])([H])[H])[H])([H])[H])c2c(c(F)c(c(c2C1=O)[H])[H])[H])([H])[H])([H])[H])[H])[H])([H])[H])([H])([H])[H]

>  <h>  (44) 
<NA>

>  <Training>  (44) 
True

>  <Success>  (44) 
True

>  <enamine_searched>  (44) 
False

>  <enamine_id>  (44) 
nan

$$$$

     RDKit          3D

 56 60  0  0  0  0  0  0  0  0999 V2000
    7.8091   -8.4497   23.1578 C   0  0  0  0  0  0  0  0  0  0  0  0
    6.8514   -7.4504   22.7366 N   0  0  0  0  0  0  0  0  0  0  0  0
    7.1667   -6.6107   21.7173 C   0  0  0  0  0  0  0  0  0  0  0  0
    8.0838   -6.8192   20.9452 O   0  0  0  0  0  0  0  0  0  0  0  0
    6.2869   -5.3586   21.6460 C   0  0  0  0  0  0  0  0  0  0  0  0
    6.7215   -4.3712   22.6175 N   0  0  0  0  0  0  0  0  0  0  0  0
    7.8002   -3.4506   22.3032 C   0  0  0  0  0  0  0  0  0  0  0  0
    7.4026   -2.0034   22.6808 C   0  0  2  0  0  0  0  0  0  0  0  0
    6.2763   -1.5838   21.7154 C   0  0  0  0  0  0  0  0  0  0  0  0
    5.1754   -2.0938   21.6362 O   0  0  0  0  0  0  0  0  0  0  0  0
    6.7339   -0.5612   20.9092 N   0  0  0  0  0  0  0  0  0  0  0  0
    5.9557   -0.0324   19.8684 C   0  0  0  0  0  0  0  0  0  0  0  0
    6.4080   -0.1127   18.5716 C   0  0  0  0  0  0  0  0  0  0  0  0
    5.7485    0.3658   17.4960 N   0  0  0  0  0  0  0  0  0  0  0  0
    4.6119    0.9719   17.7110 C   0  0  0  0  0  0  0  0  0  0  0  0
    4.0328    1.1365   18.9975 C   0  0  0  0  0  0  0  0  0  0  0  0
    2.7714    1.7717   19.1456 C   0  0  0  0  0  0  0  0  0  0  0  0
    2.1881    1.8681   20.3788 C   0  0  0  0  0  0  0  0  0  0  0  0
    2.8279    1.3089   21.5081 C   0  0  0  0  0  0  0  0  0  0  0  0
    4.0454    0.6884   21.3908 C   0  0  0  0  0  0  0  0  0  0  0  0
    4.6910    0.5913   20.1200 C   0  0  0  0  0  0  0  0  0  0  0  0
    4.4944    0.2444   22.2704 H   0  0  0  0  0  0  0  0  0  0  0  0
    2.3496    1.3795   22.4816 H   0  0  0  0  0  0  0  0  0  0  0  0
    1.2320    2.3716   20.4950 H   0  0  0  0  0  0  0  0  0  0  0  0
    2.2863    2.1672   18.2573 H   0  0  0  0  0  0  0  0  0  0  0  0
    4.0971    1.3861   16.8450 H   0  0  0  0  0  0  0  0  0  0  0  0
    7.3529   -0.6014   18.3556 H   0  0  0  0  0  0  0  0  0  0  0  0
    8.1829   -0.4408   20.9599 C   0  0  0  0  0  0  0  0  0  0  0  0
    8.5207   -0.9719   22.3582 C   0  0  2  0  0  0  0  0  0  0  0  0
    9.9631   -1.4566   22.4153 C   0  0  0  0  0  0  0  0  0  0  0  0
   10.4465   -1.9752   24.0635 Cl  0  0  0  0  0  0  0  0  0  0  0  0
   10.1127   -2.3128   21.7508 H   0  0  0  0  0  0  0  0  0  0  0  0
   10.6555   -0.6648   22.1171 H   0  0  0  0  0  0  0  0  0  0  0  0
    8.4277   -0.1358   23.0496 H   0  0  0  0  0  0  0  0  0  0  0  0
    8.4802    0.6004   20.8317 H   0  0  0  0  0  0  0  0  0  0  0  0
    8.6729   -1.0418   20.1794 H   0  0  0  0  0  0  0  0  0  0  0  0
    6.9102   -2.0062   24.1168 C   0  0  0  0  0  0  0  0  0  0  0  0
    6.8669   -0.8257   24.8711 C   0  0  0  0  0  0  0  0  0  0  0  0
    6.4080   -0.8496   26.1754 C   0  0  0  0  0  0  0  0  0  0  0  0
    6.3962    0.6319   27.0902 Cl  0  0  0  0  0  0  0  0  0  0  0  0
    5.9672   -2.0312   26.7710 C   0  0  0  0  0  0  0  0  0  0  0  0
    5.9472   -3.1856   26.0132 C   0  0  0  0  0  0  0  0  0  0  0  0
    6.3823   -3.1741   24.6885 C   0  0  0  0  0  0  0  0  0  0  0  0
    6.1985   -4.4173   23.8716 C   0  0  0  0  0  0  0  0  0  0  0  0
    5.5822   -5.3956   24.2895 O   0  0  0  0  0  0  0  0  0  0  0  0
    5.5837   -4.1207   26.4229 H   0  0  0  0  0  0  0  0  0  0  0  0
    5.6259   -2.0311   27.8007 H   0  0  0  0  0  0  0  0  0  0  0  0
    7.1761    0.1267   24.4538 H   0  0  0  0  0  0  0  0  0  0  0  0
    8.7191   -3.7364   22.8332 H   0  0  0  0  0  0  0  0  0  0  0  0
    7.9917   -3.4962   21.2343 H   0  0  0  0  0  0  0  0  0  0  0  0
    5.2486   -5.6175   21.8689 H   0  0  0  0  0  0  0  0  0  0  0  0
    6.3201   -4.9150   20.6461 H   0  0  0  0  0  0  0  0  0  0  0  0
    6.1801   -7.1063   23.4084 H   0  0  0  0  0  0  0  0  0  0  0  0
    8.7095   -8.0024   23.5947 H   0  0  0  0  0  0  0  0  0  0  0  0
    7.3352   -9.0765   23.9130 H   0  0  0  0  0  0  0  0  0  0  0  0
    8.1132   -9.0562   22.3036 H   0  0  0  0  0  0  0  0  0  0  0  0
  1  2  1  0
  2  3  1  0
  3  4  2  0
  3  5  1  0
  5  6  1  0
  6  7  1  0
  8  7  1  6
  8  9  1  0
  9 10  2  0
  9 11  1  0
 11 12  1  0
 12 13  2  0
 13 14  1  0
 14 15  2  0
 15 16  1  0
 16 17  2  0
 17 18  1  0
 18 19  2  0
 19 20  1  0
 20 21  2  0
 20 22  1  0
 19 23  1  0
 18 24  1  0
 17 25  1  0
 15 26  1  0
 13 27  1  0
 11 28  1  0
 28 29  1  0
 29 30  1  0
 30 31  1  0
 30 32  1  0
 30 33  1  0
 29 34  1  1
 28 35  1  0
 28 36  1  0
  8 37  1  0
 37 38  2  0
 38 39  1  0
 39 40  1  0
 39 41  2  0
 41 42  1  0
 42 43  2  0
 43 44  1  0
 44 45  2  0
 42 46  1  0
 41 47  1  0
 38 48  1  0
  7 49  1  0
  7 50  1  0
  5 51  1  0
  5 52  1  0
  2 53  1  0
  1 54  1  0
  1 55  1  0
  1 56  1  0
 44  6  1  0
 29  8  1  0
 43 37  1  0
 21 12  1  0
 21 16  1  0
M  END
>  <cnnaffinities>  (45) 
[6.86456, 6.50603]

>  <score>  (45) 
6.86456

>  <index>  (45) 
44

>  <Smiles>  (45) 
C(N(C(=O)C(N1C([C@@]2(C(=O)N(c3c(nc(c4c(c(c(c(c34)[H])[H])[H])[H])[H])[H])C([C@@]2(C(Cl)([H])[H])[H])([H])[H])c2c(c(Cl)c(c(c2C1=O)[H])[H])[H])([H])[H])([H])[H])[H])([H])([H])[H]

>  <h>  (45) 
<NA>

>  <Training>  (45) 
True

>  <Success>  (45) 
True

>  <enamine_searched>  (45) 
False

>  <enamine_id>  (45) 
nan

$$$$

     RDKit          3D

 60 64  0  0  0  0  0  0  0  0999 V2000
    7.8212   -8.4538   23.1703 C   0  0  0  0  0  0  0  0  0  0  0  0
    6.8596   -7.4511   22.7548 N   0  0  0  0  0  0  0  0  0  0  0  0
    7.1657   -6.6249   21.7191 C   0  0  0  0  0  0  0  0  0  0  0  0
    8.0747   -6.8400   20.9388 O   0  0  0  0  0  0  0  0  0  0  0  0
    6.2913   -5.3685   21.6512 C   0  0  0  0  0  0  0  0  0  0  0  0
    6.7328   -4.3868   22.6264 N   0  0  0  0  0  0  0  0  0  0  0  0
    7.8130   -3.4682   22.3083 C   0  0  0  0  0  0  0  0  0  0  0  0
    7.4181   -2.0181   22.6772 C   0  0  2  0  0  0  0  0  0  0  0  0
    6.2884   -1.6031   21.7154 C   0  0  0  0  0  0  0  0  0  0  0  0
    5.1926   -2.1252   21.6319 O   0  0  0  0  0  0  0  0  0  0  0  0
    6.7282   -0.5662   20.9180 N   0  0  0  0  0  0  0  0  0  0  0  0
    5.9521   -0.0318   19.8737 C   0  0  0  0  0  0  0  0  0  0  0  0
    6.4122   -0.1035   18.5783 C   0  0  0  0  0  0  0  0  0  0  0  0
    5.7578    0.3795   17.5000 N   0  0  0  0  0  0  0  0  0  0  0  0
    4.6106    0.9702   17.7100 C   0  0  0  0  0  0  0  0  0  0  0  0
    4.0250    1.1307   18.9953 C   0  0  0  0  0  0  0  0  0  0  0  0
    2.7631    1.7676   19.1422 C   0  0  0  0  0  0  0  0  0  0  0  0
    2.1743    1.8549   20.3718 C   0  0  0  0  0  0  0  0  0  0  0  0
    2.8236    1.3157   21.5061 C   0  0  0  0  0  0  0  0  0  0  0  0
    4.0373    0.6792   21.3918 C   0  0  0  0  0  0  0  0  0  0  0  0
    4.6851    0.5929   20.1214 C   0  0  0  0  0  0  0  0  0  0  0  0
    4.4837    0.2263   22.2716 H   0  0  0  0  0  0  0  0  0  0  0  0
    2.3393    1.3638   22.4749 H   0  0  0  0  0  0  0  0  0  0  0  0
    1.2176    2.3564   20.4952 H   0  0  0  0  0  0  0  0  0  0  0  0
    2.2741    2.1611   18.2554 H   0  0  0  0  0  0  0  0  0  0  0  0
    4.0951    1.3776   16.8411 H   0  0  0  0  0  0  0  0  0  0  0  0
    7.3560   -0.5992   18.3616 H   0  0  0  0  0  0  0  0  0  0  0  0
    8.1754   -0.4248   20.9670 C   0  0  0  0  0  0  0  0  0  0  0  0
    8.5348   -0.9890   22.3441 C   0  0  2  0  0  0  0  0  0  0  0  0
    9.9655   -1.4985   22.3971 C   0  0  0  0  0  0  0  0  0  0  0  0
   10.2221   -1.9793   23.6940 O   0  0  0  0  0  0  0  0  0  0  0  0
   11.4881   -2.5845   23.7946 C   0  0  0  0  0  0  0  0  0  0  0  0
   12.2922   -1.8724   23.5452 H   0  0  0  0  0  0  0  0  0  0  0  0
   11.6090   -2.9163   24.8298 H   0  0  0  0  0  0  0  0  0  0  0  0
   11.5795   -3.4570   23.1240 H   0  0  0  0  0  0  0  0  0  0  0  0
   10.6725   -0.6900   22.1383 H   0  0  0  0  0  0  0  0  0  0  0  0
   10.1042   -2.2994   21.6507 H   0  0  0  0  0  0  0  0  0  0  0  0
    8.4583   -0.1763   23.0638 H   0  0  0  0  0  0  0  0  0  0  0  0
    8.6651   -0.9954   20.1627 H   0  0  0  0  0  0  0  0  0  0  0  0
    8.4496    0.6257   20.8535 H   0  0  0  0  0  0  0  0  0  0  0  0
    6.9338   -2.0201   24.1184 C   0  0  0  0  0  0  0  0  0  0  0  0
    6.8918   -0.8373   24.8706 C   0  0  0  0  0  0  0  0  0  0  0  0
    6.4187   -0.8548   26.1701 C   0  0  0  0  0  0  0  0  0  0  0  0
    6.3887    0.6326   27.0802 Cl  0  0  0  0  0  0  0  0  0  0  0  0
    5.9684   -2.0345   26.7650 C   0  0  0  0  0  0  0  0  0  0  0  0
    5.9508   -3.1925   26.0123 C   0  0  0  0  0  0  0  0  0  0  0  0
    6.3986   -3.1855   24.6929 C   0  0  0  0  0  0  0  0  0  0  0  0
    6.2136   -4.4263   23.8796 C   0  0  0  0  0  0  0  0  0  0  0  0
    5.5878   -5.4078   24.2993 O   0  0  0  0  0  0  0  0  0  0  0  0
    5.5800   -4.1250   26.4247 H   0  0  0  0  0  0  0  0  0  0  0  0
    5.6149   -2.0257   27.7897 H   0  0  0  0  0  0  0  0  0  0  0  0
    7.2006    0.1139   24.4488 H   0  0  0  0  0  0  0  0  0  0  0  0
    8.7272   -3.7572   22.8426 H   0  0  0  0  0  0  0  0  0  0  0  0
    8.0088   -3.5176   21.2405 H   0  0  0  0  0  0  0  0  0  0  0  0
    5.2511   -5.6179   21.8783 H   0  0  0  0  0  0  0  0  0  0  0  0
    6.3320   -4.9267   20.6507 H   0  0  0  0  0  0  0  0  0  0  0  0
    6.2092   -7.0844   23.4404 H   0  0  0  0  0  0  0  0  0  0  0  0
    8.1101   -9.0672   22.3144 H   0  0  0  0  0  0  0  0  0  0  0  0
    7.3560   -9.0728   23.9390 H   0  0  0  0  0  0  0  0  0  0  0  0
    8.7277   -7.9991   23.5865 H   0  0  0  0  0  0  0  0  0  0  0  0
  1  2  1  0
  2  3  1  0
  3  4  2  0
  3  5  1  0
  5  6  1  0
  6  7  1  0
  8  7  1  6
  8  9  1  0
  9 10  2  0
  9 11  1  0
 11 12  1  0
 12 13  2  0
 13 14  1  0
 14 15  2  0
 15 16  1  0
 16 17  2  0
 17 18  1  0
 18 19  2  0
 19 20  1  0
 20 21  2  0
 20 22  1  0
 19 23  1  0
 18 24  1  0
 17 25  1  0
 15 26  1  0
 13 27  1  0
 11 28  1  0
 28 29  1  0
 29 30  1  0
 30 31  1  0
 31 32  1  0
 32 33  1  0
 32 34  1  0
 32 35  1  0
 30 36  1  0
 30 37  1  0
 29 38  1  1
 28 39  1  0
 28 40  1  0
  8 41  1  0
 41 42  2  0
 42 43  1  0
 43 44  1  0
 43 45  2  0
 45 46  1  0
 46 47  2  0
 47 48  1  0
 48 49  2  0
 46 50  1  0
 45 51  1  0
 42 52  1  0
  7 53  1  0
  7 54  1  0
  5 55  1  0
  5 56  1  0
  2 57  1  0
  1 58  1  0
  1 59  1  0
  1 60  1  0
 48  6  1  0
 29  8  1  0
 47 41  1  0
 21 12  1  0
 21 16  1  0
M  END
>  <cnnaffinities>  (46) 
[6.81284, 6.87065]

>  <score>  (46) 
6.81284

>  <index>  (46) 
45

>  <Smiles>  (46) 
C(N(C(=O)C(N1C([C@@]2(C(=O)N(c3c(nc(c4c(c(c(c(c34)[H])[H])[H])[H])[H])[H])C([C@@]2(C(OC([H])([H])[H])([H])[H])[H])([H])[H])c2c(c(Cl)c(c(c2C1=O)[H])[H])[H])([H])[H])([H])[H])[H])([H])([H])[H]

>  <h>  (46) 
<NA>

>  <Training>  (46) 
True

>  <Success>  (46) 
True

>  <enamine_searched>  (46) 
False

>  <enamine_id>  (46) 
nan

$$$$

     RDKit          3D

 64 68  0  0  0  0  0  0  0  0999 V2000
   11.4548    0.7191   23.9519 C   0  0  0  0  0  0  0  0  0  0  0  0
   11.9752   -0.7122   23.9698 C   0  0  0  0  0  0  0  0  0  0  0  0
   10.6545   -1.9292   23.8598 S   0  0  0  0  0  0  0  0  0  0  0  0
   11.2433   -3.2455   23.6383 O   0  0  0  0  0  0  0  0  0  0  0  0
    9.7898   -1.7061   25.0048 O   0  0  0  0  0  0  0  0  0  0  0  0
    9.8995   -1.5132   22.4113 N   0  0  0  0  0  0  0  0  0  0  0  0
    8.5579   -0.9300   22.3922 C   0  0  1  0  0  0  0  0  0  0  0  0
    8.2336   -0.3619   21.0041 C   0  0  0  0  0  0  0  0  0  0  0  0
    6.7884   -0.5111   20.9027 N   0  0  0  0  0  0  0  0  0  0  0  0
    6.0011   -0.0172   19.8500 C   0  0  0  0  0  0  0  0  0  0  0  0
    6.4305   -0.1484   18.5513 C   0  0  0  0  0  0  0  0  0  0  0  0
    5.7671    0.3268   17.4749 N   0  0  0  0  0  0  0  0  0  0  0  0
    4.6482    0.9669   17.7000 C   0  0  0  0  0  0  0  0  0  0  0  0
    4.0731    1.1372   18.9884 C   0  0  0  0  0  0  0  0  0  0  0  0
    2.8504    1.8423   19.1517 C   0  0  0  0  0  0  0  0  0  0  0  0
    2.2856    1.9858   20.3886 C   0  0  0  0  0  0  0  0  0  0  0  0
    2.9253    1.4335   21.5225 C   0  0  0  0  0  0  0  0  0  0  0  0
    4.1327    0.7889   21.3963 C   0  0  0  0  0  0  0  0  0  0  0  0
    4.7475    0.6261   20.1144 C   0  0  0  0  0  0  0  0  0  0  0  0
    4.6067    0.3861   22.2823 H   0  0  0  0  0  0  0  0  0  0  0  0
    2.4680    1.5497   22.5017 H   0  0  0  0  0  0  0  0  0  0  0  0
    1.3543    2.5364   20.5035 H   0  0  0  0  0  0  0  0  0  0  0  0
    2.3777    2.2391   18.2577 H   0  0  0  0  0  0  0  0  0  0  0  0
    4.1359    1.3954   16.8406 H   0  0  0  0  0  0  0  0  0  0  0  0
    7.3745   -0.6465   18.3448 H   0  0  0  0  0  0  0  0  0  0  0  0
    6.3064   -1.5161   21.7078 C   0  0  0  0  0  0  0  0  0  0  0  0
    5.2229   -2.0521   21.5744 O   0  0  0  0  0  0  0  0  0  0  0  0
    7.3630   -1.8533   22.7682 C   0  0  1  0  0  0  0  0  0  0  0  0
    7.6813   -3.3583   22.6429 C   0  0  0  0  0  0  0  0  0  0  0  0
    6.5637   -4.1420   23.1404 N   0  0  0  0  0  0  0  0  0  0  0  0
    6.0493   -5.2269   22.3298 C   0  0  0  0  0  0  0  0  0  0  0  0
    6.9674   -6.4442   22.4239 C   0  0  0  0  0  0  0  0  0  0  0  0
    7.9031   -6.6425   21.6673 O   0  0  0  0  0  0  0  0  0  0  0  0
    6.6375   -7.2767   23.4459 N   0  0  0  0  0  0  0  0  0  0  0  0
    7.4164   -8.4750   23.6658 C   0  0  0  0  0  0  0  0  0  0  0  0
    8.3784   -8.2606   24.1503 H   0  0  0  0  0  0  0  0  0  0  0  0
    6.8377   -9.1698   24.2767 H   0  0  0  0  0  0  0  0  0  0  0  0
    7.6133   -8.9479   22.7006 H   0  0  0  0  0  0  0  0  0  0  0  0
    6.0680   -6.8918   24.1884 H   0  0  0  0  0  0  0  0  0  0  0  0
    5.0480   -5.4867   22.6871 H   0  0  0  0  0  0  0  0  0  0  0  0
    5.9635   -4.8764   21.2961 H   0  0  0  0  0  0  0  0  0  0  0  0
    6.0691   -3.9541   24.3978 C   0  0  0  0  0  0  0  0  0  0  0  0
    5.4654   -4.8386   25.0027 O   0  0  0  0  0  0  0  0  0  0  0  0
    6.2578   -2.5715   24.9487 C   0  0  0  0  0  0  0  0  0  0  0  0
    5.8002   -2.2894   26.2346 C   0  0  0  0  0  0  0  0  0  0  0  0
    5.8182   -0.9975   26.7239 C   0  0  0  0  0  0  0  0  0  0  0  0
    6.2771    0.0202   25.8896 C   0  0  0  0  0  0  0  0  0  0  0  0
    6.2794    1.6616   26.4677 Cl  0  0  0  0  0  0  0  0  0  0  0  0
    6.7498   -0.2437   24.6189 C   0  0  0  0  0  0  0  0  0  0  0  0
    6.8045   -1.5642   24.1486 C   0  0  0  0  0  0  0  0  0  0  0  0
    7.0567    0.5906   23.9973 H   0  0  0  0  0  0  0  0  0  0  0  0
    5.4704   -0.7684   27.7258 H   0  0  0  0  0  0  0  0  0  0  0  0
    5.4197   -3.1108   26.8281 H   0  0  0  0  0  0  0  0  0  0  0  0
    8.6072   -3.6038   23.1879 H   0  0  0  0  0  0  0  0  0  0  0  0
    7.8331   -3.6196   21.5925 H   0  0  0  0  0  0  0  0  0  0  0  0
    8.7610   -0.9410   20.2326 H   0  0  0  0  0  0  0  0  0  0  0  0
    8.5314    0.6861   20.9219 H   0  0  0  0  0  0  0  0  0  0  0  0
    8.5888   -0.1120   23.1086 H   0  0  0  0  0  0  0  0  0  0  0  0
   10.0238   -2.2623   21.7326 H   0  0  0  0  0  0  0  0  0  0  0  0
   12.6626   -0.9191   23.1431 H   0  0  0  0  0  0  0  0  0  0  0  0
   12.4764   -0.9460   24.9161 H   0  0  0  0  0  0  0  0  0  0  0  0
   11.0101    0.9655   22.9803 H   0  0  0  0  0  0  0  0  0  0  0  0
   12.2841    1.4116   24.1258 H   0  0  0  0  0  0  0  0  0  0  0  0
   10.7115    0.8737   24.7411 H   0  0  0  0  0  0  0  0  0  0  0  0
  1  2  1  0
  2  3  1  0
  3  4  2  0
  3  5  2  0
  3  6  1  0
  6  7  1  0
  7  8  1  0
  8  9  1  0
  9 10  1  0
 10 11  2  0
 11 12  1  0
 12 13  2  0
 13 14  1  0
 14 15  2  0
 15 16  1  0
 16 17  2  0
 17 18  1  0
 18 19  2  0
 18 20  1  0
 17 21  1  0
 16 22  1  0
 15 23  1  0
 13 24  1  0
 11 25  1  0
  9 26  1  0
 26 27  2  0
 26 28  1  0
 28 29  1  1
 29 30  1  0
 30 31  1  0
 31 32  1  0
 32 33  2  0
 32 34  1  0
 34 35  1  0
 35 36  1  0
 35 37  1  0
 35 38  1  0
 34 39  1  0
 31 40  1  0
 31 41  1  0
 30 42  1  0
 42 43  2  0
 42 44  1  0
 44 45  2  0
 45 46  1  0
 46 47  2  0
 47 48  1  0
 47 49  1  0
 49 50  2  0
 49 51  1  0
 46 52  1  0
 45 53  1  0
 29 54  1  0
 29 55  1  0
  8 56  1  0
  8 57  1  0
  7 58  1  1
  6 59  1  0
  2 60  1  0
  2 61  1  0
  1 62  1  0
  1 63  1  0
  1 64  1  0
 28  7  1  0
 50 44  1  0
 19 10  1  0
 50 28  1  0
 19 14  1  0
M  END
>  <cnnaffinities>  (47) 
[7.03963, 6.64033]

>  <score>  (47) 
7.03963

>  <index>  (47) 
46

>  <Smiles>  (47) 
C(C(S(=O)(=O)N([C@]1(C(N(c2c(nc(c3c(c(c(c(c23)[H])[H])[H])[H])[H])[H])C(=O)[C@]21C(N(C(C(=O)N(C([H])([H])[H])[H])([H])[H])C(=O)c1c(c(c(Cl)c(c21)[H])[H])[H])([H])[H])([H])[H])[H])[H])([H])[H])([H])([H])[H]

>  <h>  (47) 
<NA>

>  <Training>  (47) 
True

>  <Success>  (47) 
True

>  <enamine_searched>  (47) 
False

>  <enamine_id>  (47) 
nan

$$$$

     RDKit          3D

 56 60  0  0  0  0  0  0  0  0999 V2000
    7.7731   -8.5623   23.0525 C   0  0  0  0  0  0  0  0  0  0  0  0
    6.8470   -7.4933   22.7382 N   0  0  0  0  0  0  0  0  0  0  0  0
    7.1410   -6.5966   21.7590 C   0  0  0  0  0  0  0  0  0  0  0  0
    8.0384   -6.7571   20.9492 O   0  0  0  0  0  0  0  0  0  0  0  0
    6.2377   -5.3591   21.7876 C   0  0  0  0  0  0  0  0  0  0  0  0
    6.7264   -4.3716   22.7373 N   0  0  0  0  0  0  0  0  0  0  0  0
    7.7807   -3.4488   22.3503 C   0  0  0  0  0  0  0  0  0  0  0  0
    7.3935   -1.9843   22.6798 C   0  0  2  0  0  0  0  0  0  0  0  0
    6.2741   -1.5810   21.7057 C   0  0  0  0  0  0  0  0  0  0  0  0
    5.1781   -2.1000   21.6162 O   0  0  0  0  0  0  0  0  0  0  0  0
    6.7310   -0.5558   20.9059 N   0  0  0  0  0  0  0  0  0  0  0  0
    5.9471   -0.0471   19.8590 C   0  0  0  0  0  0  0  0  0  0  0  0
    6.3996   -0.1398   18.5653 C   0  0  0  0  0  0  0  0  0  0  0  0
    5.7490    0.3456   17.4854 N   0  0  0  0  0  0  0  0  0  0  0  0
    4.6157    0.9618   17.7077 C   0  0  0  0  0  0  0  0  0  0  0  0
    4.0258    1.1129   18.9941 C   0  0  0  0  0  0  0  0  0  0  0  0
    2.7869    1.7885   19.1501 C   0  0  0  0  0  0  0  0  0  0  0  0
    2.1972    1.8930   20.3795 C   0  0  0  0  0  0  0  0  0  0  0  0
    2.8303    1.3302   21.5123 C   0  0  0  0  0  0  0  0  0  0  0  0
    4.0474    0.7052   21.3945 C   0  0  0  0  0  0  0  0  0  0  0  0
    4.6880    0.5861   20.1216 C   0  0  0  0  0  0  0  0  0  0  0  0
    4.4931    0.2587   22.2756 H   0  0  0  0  0  0  0  0  0  0  0  0
    2.3429    1.3947   22.4806 H   0  0  0  0  0  0  0  0  0  0  0  0
    1.2452    2.4041   20.4903 H   0  0  0  0  0  0  0  0  0  0  0  0
    2.3046    2.1679   18.2555 H   0  0  0  0  0  0  0  0  0  0  0  0
    4.1121    1.4009   16.8481 H   0  0  0  0  0  0  0  0  0  0  0  0
    7.3613   -0.6046   18.3594 H   0  0  0  0  0  0  0  0  0  0  0  0
    8.1824   -0.4261   20.9532 C   0  0  0  0  0  0  0  0  0  0  0  0
    8.5354   -0.9825   22.3372 C   0  0  2  0  0  0  0  0  0  0  0  0
    9.9526   -1.5365   22.4163 C   0  0  0  0  0  0  0  0  0  0  0  0
   10.1064   -2.3276   21.6724 H   0  0  0  0  0  0  0  0  0  0  0  0
   10.1519   -1.9600   23.4074 H   0  0  0  0  0  0  0  0  0  0  0  0
   10.6896   -0.7490   22.2283 H   0  0  0  0  0  0  0  0  0  0  0  0
    8.4732   -0.1438   23.0329 H   0  0  0  0  0  0  0  0  0  0  0  0
    8.6706   -1.0112   20.1589 H   0  0  0  0  0  0  0  0  0  0  0  0
    8.4857    0.6188   20.8450 H   0  0  0  0  0  0  0  0  0  0  0  0
    6.8920   -1.9196   24.1095 C   0  0  0  0  0  0  0  0  0  0  0  0
    6.8581   -0.7043   24.8069 C   0  0  0  0  0  0  0  0  0  0  0  0
    6.3818   -0.6731   26.1008 C   0  0  0  0  0  0  0  0  0  0  0  0
    6.3733    0.4982   26.7606 F   0  0  0  0  0  0  0  0  0  0  0  0
    5.9219   -1.8099   26.7552 C   0  0  0  0  0  0  0  0  0  0  0  0
    5.9141   -2.9987   26.0544 C   0  0  0  0  0  0  0  0  0  0  0  0
    6.3642   -3.0570   24.7367 C   0  0  0  0  0  0  0  0  0  0  0  0
    6.1976   -4.3475   23.9917 C   0  0  0  0  0  0  0  0  0  0  0  0
    5.5839   -5.3081   24.4580 O   0  0  0  0  0  0  0  0  0  0  0  0
    5.5486   -3.9126   26.5054 H   0  0  0  0  0  0  0  0  0  0  0  0
    5.5778   -1.7434   27.7814 H   0  0  0  0  0  0  0  0  0  0  0  0
    7.1964    0.2268   24.3655 H   0  0  0  0  0  0  0  0  0  0  0  0
    8.7284   -3.6969   22.8490 H   0  0  0  0  0  0  0  0  0  0  0  0
    7.9324   -3.5506   21.2784 H   0  0  0  0  0  0  0  0  0  0  0  0
    5.2290   -5.6605   22.0880 H   0  0  0  0  0  0  0  0  0  0  0  0
    6.1708   -4.8969   20.7976 H   0  0  0  0  0  0  0  0  0  0  0  0
    6.2064   -7.1858   23.4592 H   0  0  0  0  0  0  0  0  0  0  0  0
    8.7294   -8.1705   23.4230 H   0  0  0  0  0  0  0  0  0  0  0  0
    7.3168   -9.1974   23.8138 H   0  0  0  0  0  0  0  0  0  0  0  0
    7.9730   -9.1731   22.1698 H   0  0  0  0  0  0  0  0  0  0  0  0
  1  2  1  0
  2  3  1  0
  3  4  2  0
  3  5  1  0
  5  6  1  0
  6  7  1  0
  8  7  1  6
  8  9  1  0
  9 10  2  0
  9 11  1  0
 11 12  1  0
 12 13  2  0
 13 14  1  0
 14 15  2  0
 15 16  1  0
 16 17  2  0
 17 18  1  0
 18 19  2  0
 19 20  1  0
 20 21  2  0
 20 22  1  0
 19 23  1  0
 18 24  1  0
 17 25  1  0
 15 26  1  0
 13 27  1  0
 11 28  1  0
 28 29  1  0
 29 30  1  0
 30 31  1  0
 30 32  1  0
 30 33  1  0
 29 34  1  1
 28 35  1  0
 28 36  1  0
  8 37  1  0
 37 38  2  0
 38 39  1  0
 39 40  1  0
 39 41  2  0
 41 42  1  0
 42 43  2  0
 43 44  1  0
 44 45  2  0
 42 46  1  0
 41 47  1  0
 38 48  1  0
  7 49  1  0
  7 50  1  0
  5 51  1  0
  5 52  1  0
  2 53  1  0
  1 54  1  0
  1 55  1  0
  1 56  1  0
 44  6  1  0
 29  8  1  0
 43 37  1  0
 21 12  1  0
 21 16  1  0
M  END
>  <cnnaffinities>  (48) 
[6.6322]

>  <score>  (48) 
6.6322

>  <index>  (48) 
47

>  <Smiles>  (48) 
C(N(C(=O)C(N1C([C@@]2(C(=O)N(c3c(nc(c4c(c(c(c(c34)[H])[H])[H])[H])[H])[H])C([C@@]2(C([H])([H])[H])[H])([H])[H])c2c(c(F)c(c(c2C1=O)[H])[H])[H])([H])[H])([H])[H])[H])([H])([H])[H]

>  <h>  (48) 
<NA>

>  <Training>  (48) 
True

>  <Success>  (48) 
True

>  <enamine_searched>  (48) 
False

>  <enamine_id>  (48) 
nan

$$$$

     RDKit          3D

 41 43  0  0  0  0  0  0  0  0999 V2000
   12.3459   -1.3761   22.0926 C   0  0  0  0  0  0  0  0  0  0  0  0
   11.0294   -0.6378   22.2830 C   0  0  1  0  0  0  0  0  0  0  0  0
    9.8901   -1.6014   22.6466 C   0  0  0  0  0  0  0  0  0  0  0  0
    8.6421   -0.9344   23.2634 C   0  0  0  0  0  0  0  0  0  0  0  0
    8.3297    0.4042   22.7619 N   0  0  0  0  0  0  0  0  0  0  0  0
    7.8436    0.6196   21.4862 C   0  0  0  0  0  0  0  0  0  0  0  0
    8.1360    1.6040   20.8304 O   0  0  0  0  0  0  0  0  0  0  0  0
    6.9067   -0.4813   20.9665 C   0  0  0  0  0  0  0  0  0  0  0  0
    5.9858   -0.0426   19.8628 C   0  0  0  0  0  0  0  0  0  0  0  0
    6.4017   -0.1531   18.5614 C   0  0  0  0  0  0  0  0  0  0  0  0
    5.7465    0.3274   17.4747 N   0  0  0  0  0  0  0  0  0  0  0  0
    4.6206    0.9554   17.6937 C   0  0  0  0  0  0  0  0  0  0  0  0
    4.0351    1.1137   18.9774 C   0  0  0  0  0  0  0  0  0  0  0  0
    2.8066    1.8044   19.1519 C   0  0  0  0  0  0  0  0  0  0  0  0
    2.2297    1.8962   20.3883 C   0  0  0  0  0  0  0  0  0  0  0  0
    2.8666    1.3052   21.5023 C   0  0  0  0  0  0  0  0  0  0  0  0
    4.0774    0.6679   21.3666 C   0  0  0  0  0  0  0  0  0  0  0  0
    4.7133    0.5714   20.0985 C   0  0  0  0  0  0  0  0  0  0  0  0
    4.5646    0.2396   22.2363 H   0  0  0  0  0  0  0  0  0  0  0  0
    2.3944    1.3787   22.4784 H   0  0  0  0  0  0  0  0  0  0  0  0
    1.2931    2.4346   20.5197 H   0  0  0  0  0  0  0  0  0  0  0  0
    2.3251    2.2273   18.2739 H   0  0  0  0  0  0  0  0  0  0  0  0
    4.1206    1.3934   16.8278 H   0  0  0  0  0  0  0  0  0  0  0  0
    7.3650   -0.6086   18.3410 H   0  0  0  0  0  0  0  0  0  0  0  0
    6.3498   -0.8878   21.8161 H   0  0  0  0  0  0  0  0  0  0  0  0
    7.5625   -1.2848   20.5981 H   0  0  0  0  0  0  0  0  0  0  0  0
    9.0448    1.4908   23.4220 C   0  0  0  0  0  0  0  0  0  0  0  0
   10.5433    1.5579   23.1113 C   0  0  0  0  0  0  0  0  0  0  0  0
   11.2321    0.3389   23.3034 O   0  0  0  0  0  0  0  0  0  0  0  0
   11.0112    2.2799   23.7932 H   0  0  0  0  0  0  0  0  0  0  0  0
   10.6850    1.9267   22.0836 H   0  0  0  0  0  0  0  0  0  0  0  0
    8.9112    1.3463   24.5025 H   0  0  0  0  0  0  0  0  0  0  0  0
    8.5804    2.4448   23.1500 H   0  0  0  0  0  0  0  0  0  0  0  0
    8.7960   -0.8298   24.3402 H   0  0  0  0  0  0  0  0  0  0  0  0
    7.7740   -1.5894   23.1347 H   0  0  0  0  0  0  0  0  0  0  0  0
   10.2656   -2.3381   23.3677 H   0  0  0  0  0  0  0  0  0  0  0  0
    9.6180   -2.1671   21.7453 H   0  0  0  0  0  0  0  0  0  0  0  0
   10.7719   -0.1215   21.3470 H   0  0  0  0  0  0  0  0  0  0  0  0
   13.1366   -0.6720   21.8154 H   0  0  0  0  0  0  0  0  0  0  0  0
   12.2630   -2.1302   21.3006 H   0  0  0  0  0  0  0  0  0  0  0  0
   12.6313   -1.8717   23.0264 H   0  0  0  0  0  0  0  0  0  0  0  0
  1  2  1  0
  2  3  1  0
  3  4  1  0
  4  5  1  0
  5  6  1  0
  6  7  2  0
  6  8  1  0
  8  9  1  0
  9 10  2  0
 10 11  1  0
 11 12  2  0
 12 13  1  0
 13 14  2  0
 14 15  1  0
 15 16  2  0
 16 17  1  0
 17 18  2  0
 17 19  1  0
 16 20  1  0
 15 21  1  0
 14 22  1  0
 12 23  1  0
 10 24  1  0
  8 25  1  0
  8 26  1  0
  5 27  1  0
 27 28  1  0
 28 29  1  0
 28 30  1  0
 28 31  1  0
 27 32  1  0
 27 33  1  0
  4 34  1  0
  4 35  1  0
  3 36  1  0
  3 37  1  0
  2 38  1  6
  1 39  1  0
  1 40  1  0
  1 41  1  0
 29  2  1  0
 18  9  1  0
 18 13  1  0
M  END
>  <cnnaffinities>  (49) 
[5.42516, 5.47144]

>  <score>  (49) 
5.42516

>  <index>  (49) 
48

>  <Smiles>  (49) 
C([C@]1(C(C(N(C(=O)C(c2c(nc(c3c(c(c(c(c23)[H])[H])[H])[H])[H])[H])([H])[H])C(C(O1)([H])[H])([H])[H])([H])[H])([H])[H])[H])([H])([H])[H]

>  <h>  (49) 
<NA>

>  <Training>  (49) 
True

>  <Success>  (49) 
True

>  <enamine_searched>  (49) 
False

>  <enamine_id>  (49) 
nan

$$$$

     RDKit          3D

 42 45  0  0  0  0  0  0  0  0999 V2000
   10.4494   -3.7880   23.4815 C   0  0  0  0  0  0  0  0  0  0  0  0
    9.5407   -2.6639   23.4703 N   0  0  0  0  0  0  0  0  0  0  0  0
    8.8448   -2.2440   22.2675 C   0  0  0  0  0  0  0  0  0  0  0  0
    8.8341   -0.7091   22.2224 C   0  0  1  0  0  0  0  0  0  0  0  0
    8.0420   -0.1365   21.0599 C   0  0  0  0  0  0  0  0  0  0  0  0
    8.4863    0.7539   20.3574 O   0  0  0  0  0  0  0  0  0  0  0  0
    6.7653   -0.6226   20.8881 N   0  0  0  0  0  0  0  0  0  0  0  0
    5.9517   -0.1099   19.8531 C   0  0  0  0  0  0  0  0  0  0  0  0
    6.4081   -0.1746   18.5632 C   0  0  0  0  0  0  0  0  0  0  0  0
    5.7532    0.3162   17.4899 N   0  0  0  0  0  0  0  0  0  0  0  0
    4.6255    0.9420   17.7098 C   0  0  0  0  0  0  0  0  0  0  0  0
    4.0410    1.1016   18.9936 C   0  0  0  0  0  0  0  0  0  0  0  0
    2.8160    1.7913   19.1711 C   0  0  0  0  0  0  0  0  0  0  0  0
    2.2517    1.8951   20.4121 C   0  0  0  0  0  0  0  0  0  0  0  0
    2.9039    1.3337   21.5329 C   0  0  0  0  0  0  0  0  0  0  0  0
    4.0928    0.6618   21.3872 C   0  0  0  0  0  0  0  0  0  0  0  0
    4.7010    0.5407   20.1103 C   0  0  0  0  0  0  0  0  0  0  0  0
    4.5848    0.2333   22.2546 H   0  0  0  0  0  0  0  0  0  0  0  0
    2.4477    1.4212   22.5129 H   0  0  0  0  0  0  0  0  0  0  0  0
    1.3167    2.4318   20.5429 H   0  0  0  0  0  0  0  0  0  0  0  0
    2.3253    2.1819   18.2866 H   0  0  0  0  0  0  0  0  0  0  0  0
    4.1436    1.3821   16.8408 H   0  0  0  0  0  0  0  0  0  0  0  0
    7.3874   -0.5893   18.3486 H   0  0  0  0  0  0  0  0  0  0  0  0
    6.3340   -1.1150   21.6560 H   0  0  0  0  0  0  0  0  0  0  0  0
    8.3363   -0.1410   23.5434 C   0  0  0  0  0  0  0  0  0  0  0  0
    7.7906    1.1426   23.6257 C   0  0  0  0  0  0  0  0  0  0  0  0
    7.3033    1.6118   24.8365 C   0  0  0  0  0  0  0  0  0  0  0  0
    6.5897    3.1993   24.8938 Cl  0  0  0  0  0  0  0  0  0  0  0  0
    7.3572    0.8374   25.9950 C   0  0  0  0  0  0  0  0  0  0  0  0
    7.9270   -0.4212   25.9155 C   0  0  0  0  0  0  0  0  0  0  0  0
    8.4335   -0.8994   24.7072 C   0  0  0  0  0  0  0  0  0  0  0  0
    9.1526   -2.2078   24.7001 C   0  0  0  0  0  0  0  0  0  0  0  0
    9.4170   -2.8183   25.7220 O   0  0  0  0  0  0  0  0  0  0  0  0
    7.9919   -1.0555   26.7918 H   0  0  0  0  0  0  0  0  0  0  0  0
    6.9873    1.2255   26.9404 H   0  0  0  0  0  0  0  0  0  0  0  0
    7.7300    1.7732   22.7441 H   0  0  0  0  0  0  0  0  0  0  0  0
    9.8578   -0.3624   22.0449 H   0  0  0  0  0  0  0  0  0  0  0  0
    7.8143   -2.6311   22.2391 H   0  0  0  0  0  0  0  0  0  0  0  0
    9.3600   -2.6406   21.3851 H   0  0  0  0  0  0  0  0  0  0  0  0
   11.3333   -3.5403   24.0732 H   0  0  0  0  0  0  0  0  0  0  0  0
    9.9903   -4.6710   23.9380 H   0  0  0  0  0  0  0  0  0  0  0  0
   10.7592   -3.9915   22.4585 H   0  0  0  0  0  0  0  0  0  0  0  0
  1  2  1  0
  2  3  1  0
  3  4  1  0
  4  5  1  0
  5  6  2  0
  5  7  1  0
  7  8  1  0
  8  9  2  0
  9 10  1  0
 10 11  2  0
 11 12  1  0
 12 13  2  0
 13 14  1  0
 14 15  2  0
 15 16  1  0
 16 17  2  0
 16 18  1  0
 15 19  1  0
 14 20  1  0
 13 21  1  0
 11 22  1  0
  9 23  1  0
  7 24  1  0
  4 25  1  0
 25 26  2  0
 26 27  1  0
 27 28  1  0
 27 29  2  0
 29 30  1  0
 30 31  2  0
 31 32  1  0
 32 33  2  0
 30 34  1  0
 29 35  1  0
 26 36  1  0
  4 37  1  6
  3 38  1  0
  3 39  1  0
  1 40  1  0
  1 41  1  0
  1 42  1  0
 32  2  1  0
 17  8  1  0
 31 25  1  0
 17 12  1  0
M  END
>  <cnnaffinities>  (50) 
[5.8479, 6.03406]

>  <score>  (50) 
5.8479

>  <index>  (50) 
49

>  <Smiles>  (50) 
C(N1C([C@@](C(=O)N(c2c(nc(c3c(c(c(c(c23)[H])[H])[H])[H])[H])[H])[H])(c2c(c(Cl)c(c(c2C1=O)[H])[H])[H])[H])([H])[H])([H])([H])[H]

>  <h>  (50) 
<NA>

>  <Training>  (50) 
True

>  <Success>  (50) 
True

>  <enamine_searched>  (50) 
False

>  <enamine_id>  (50) 
nan

$$$$

     RDKit          3D

 38 41  0  0  0  0  0  0  0  0999 V2000
    5.1288   -2.2404   21.1807 O   0  0  0  0  0  0  0  0  0  0  0  0
    6.2170   -1.8151   21.5400 C   0  0  0  0  0  0  0  0  0  0  0  0
    6.8292   -0.5622   20.9264 C   0  0  0  0  0  0  0  0  0  0  0  0
    5.9762   -0.0403   19.8218 C   0  0  0  0  0  0  0  0  0  0  0  0
    6.3910   -0.1951   18.5274 C   0  0  0  0  0  0  0  0  0  0  0  0
    5.7367    0.2838   17.4447 N   0  0  0  0  0  0  0  0  0  0  0  0
    4.6410    0.9643   17.6766 C   0  0  0  0  0  0  0  0  0  0  0  0
    4.0630    1.1433   18.9583 C   0  0  0  0  0  0  0  0  0  0  0  0
    2.8542    1.8660   19.1314 C   0  0  0  0  0  0  0  0  0  0  0  0
    2.2997    2.0090   20.3709 C   0  0  0  0  0  0  0  0  0  0  0  0
    2.9312    1.4285   21.5007 C   0  0  0  0  0  0  0  0  0  0  0  0
    4.1322    0.7595   21.3615 C   0  0  0  0  0  0  0  0  0  0  0  0
    4.7313    0.6048   20.0773 C   0  0  0  0  0  0  0  0  0  0  0  0
    4.6105    0.3366   22.2407 H   0  0  0  0  0  0  0  0  0  0  0  0
    2.4798    1.5474   22.4804 H   0  0  0  0  0  0  0  0  0  0  0  0
    1.3703    2.5634   20.4953 H   0  0  0  0  0  0  0  0  0  0  0  0
    2.3904    2.2891   18.2447 H   0  0  0  0  0  0  0  0  0  0  0  0
    4.1451    1.3954   16.8114 H   0  0  0  0  0  0  0  0  0  0  0  0
    7.3355   -0.7014   18.3290 H   0  0  0  0  0  0  0  0  0  0  0  0
    7.8281   -0.8152   20.5429 H   0  0  0  0  0  0  0  0  0  0  0  0
    6.9513    0.2129   21.6949 H   0  0  0  0  0  0  0  0  0  0  0  0
    6.9305   -2.4465   22.5262 N   0  0  0  0  0  0  0  0  0  0  0  0
    8.0821   -1.9010   23.2500 C   0  0  0  0  0  0  0  0  0  0  0  0
    9.1222   -2.9996   23.4663 C   0  0  0  0  0  0  0  0  0  0  0  0
    8.4374   -4.2019   24.0437 C   0  0  0  0  0  0  0  0  0  0  0  0
    9.2246   -5.4442   24.9467 S   0  0  0  0  0  0  0  0  0  0  0  0
    7.7732   -6.3671   25.0275 C   0  0  0  0  0  0  0  0  0  0  0  0
    6.7308   -5.7322   24.4321 C   0  0  0  0  0  0  0  0  0  0  0  0
    7.1181   -4.4819   23.8681 C   0  0  0  0  0  0  0  0  0  0  0  0
    6.2074   -3.5442   23.1515 C   0  0  0  0  0  0  0  0  0  0  0  0
    5.4349   -3.1446   23.8262 H   0  0  0  0  0  0  0  0  0  0  0  0
    5.6530   -4.0669   22.3679 H   0  0  0  0  0  0  0  0  0  0  0  0
    5.7245   -6.1357   24.3900 H   0  0  0  0  0  0  0  0  0  0  0  0
    7.7849   -7.3415   25.4884 H   0  0  0  0  0  0  0  0  0  0  0  0
    9.9306   -2.6527   24.1170 H   0  0  0  0  0  0  0  0  0  0  0  0
    9.5778   -3.2636   22.5013 H   0  0  0  0  0  0  0  0  0  0  0  0
    8.5332   -1.0711   22.6983 H   0  0  0  0  0  0  0  0  0  0  0  0
    7.7626   -1.5057   24.2271 H   0  0  0  0  0  0  0  0  0  0  0  0
  1  2  2  0
  2  3  1  0
  3  4  1  0
  4  5  2  0
  5  6  1  0
  6  7  2  0
  7  8  1  0
  8  9  2  0
  9 10  1  0
 10 11  2  0
 11 12  1  0
 12 13  2  0
 12 14  1  0
 11 15  1  0
 10 16  1  0
  9 17  1  0
  7 18  1  0
  5 19  1  0
  3 20  1  0
  3 21  1  0
  2 22  1  0
 22 23  1  0
 23 24  1  0
 24 25  1  0
 25 26  1  0
 26 27  1  0
 27 28  2  0
 28 29  1  0
 29 30  1  0
 30 31  1  0
 30 32  1  0
 28 33  1  0
 27 34  1  0
 24 35  1  0
 24 36  1  0
 23 37  1  0
 23 38  1  0
 13  4  1  0
 30 22  1  0
 13  8  1  0
 29 25  2  0
M  END
>  <cnnaffinities>  (51) 
[5.45083, 5.49816, 5.60664, 5.67402, 5.44718, 5.46441, 5.36808]

>  <score>  (51) 
5.45083

>  <index>  (51) 
50

>  <Smiles>  (51) 
O=C(C(c1c(nc(c2c(c(c(c(c12)[H])[H])[H])[H])[H])[H])([H])[H])N1C(C(c2sc(c(c2C1([H])[H])[H])[H])([H])[H])([H])[H]

>  <h>  (51) 
<NA>

>  <Training>  (51) 
True

>  <Success>  (51) 
True

>  <enamine_searched>  (51) 
False

>  <enamine_id>  (51) 
nan

$$$$

     RDKit          3D

 67 73  0  0  0  0  0  0  0  0999 V2000
    8.9152   -5.4301   26.7673 C   0  0  0  0  0  0  0  0  0  0  0  0
    7.8591   -4.4040   26.5817 C   0  0  0  0  0  0  0  0  0  0  0  0
    6.6155   -4.5333   26.2560 N   0  0  0  0  0  0  0  0  0  0  0  0
    6.0920   -3.2404   26.1702 N   0  0  0  0  0  0  0  0  0  0  0  0
    7.0659   -2.4407   26.4595 C   0  0  0  0  0  0  0  0  0  0  0  0
    7.1373   -0.9484   26.4032 C   0  0  0  0  0  0  0  0  0  0  0  0
    8.0045   -0.5051   25.3145 N   0  0  0  0  0  0  0  0  0  0  0  0
    7.4360   -0.1446   24.0221 C   0  0  0  0  0  0  0  0  0  0  0  0
    8.3375   -0.4631   22.7903 C   0  0  2  0  0  0  0  0  0  0  0  0
    7.7232    0.3833   21.6393 C   0  0  0  0  0  0  0  0  0  0  0  0
    7.9225    1.5556   21.3933 O   0  0  0  0  0  0  0  0  0  0  0  0
    6.8067   -0.4163   20.9712 N   0  0  0  0  0  0  0  0  0  0  0  0
    5.9934    0.0527   19.8986 C   0  0  0  0  0  0  0  0  0  0  0  0
    6.4390   -0.0685   18.6063 C   0  0  0  0  0  0  0  0  0  0  0  0
    5.7805    0.4034   17.5164 N   0  0  0  0  0  0  0  0  0  0  0  0
    4.6002    0.9382   17.7039 C   0  0  0  0  0  0  0  0  0  0  0  0
    3.9804    1.0726   18.9782 C   0  0  0  0  0  0  0  0  0  0  0  0
    2.6967    1.6649   19.1315 C   0  0  0  0  0  0  0  0  0  0  0  0
    2.0973    1.6984   20.3603 C   0  0  0  0  0  0  0  0  0  0  0  0
    2.7505    1.1438   21.4822 C   0  0  0  0  0  0  0  0  0  0  0  0
    3.9968    0.5778   21.3601 C   0  0  0  0  0  0  0  0  0  0  0  0
    4.6671    0.5681   20.1095 C   0  0  0  0  0  0  0  0  0  0  0  0
    4.4819    0.1209   22.2150 H   0  0  0  0  0  0  0  0  0  0  0  0
    2.2689    1.1682   22.4535 H   0  0  0  0  0  0  0  0  0  0  0  0
    1.1206    2.1581   20.4877 H   0  0  0  0  0  0  0  0  0  0  0  0
    2.2001    2.0810   18.2597 H   0  0  0  0  0  0  0  0  0  0  0  0
    4.0623    1.2922   16.8218 H   0  0  0  0  0  0  0  0  0  0  0  0
    7.3826   -0.5770   18.4104 H   0  0  0  0  0  0  0  0  0  0  0  0
    6.8745   -1.8190   21.3332 C   0  0  0  0  0  0  0  0  0  0  0  0
    8.1507   -1.8972   22.1849 C   0  0  2  0  0  0  0  0  0  0  0  0
    8.1428   -3.0562   23.1866 C   0  0  0  0  0  0  0  0  0  0  0  0
    8.1632   -4.3678   22.5640 N   0  0  0  0  0  0  0  0  0  0  0  0
    7.0716   -5.0521   22.1240 C   0  0  0  0  0  0  0  0  0  0  0  0
    5.7779   -4.8566   22.6546 C   0  0  0  0  0  0  0  0  0  0  0  0
    4.7704   -5.6174   22.0924 C   0  0  0  0  0  0  0  0  0  0  0  0
    4.9807   -6.5023   21.1122 N   0  0  0  0  0  0  0  0  0  0  0  0
    6.2387   -6.6055   20.7040 C   0  0  0  0  0  0  0  0  0  0  0  0
    7.3007   -5.9604   21.1618 N   0  0  0  0  0  0  0  0  0  0  0  0
    6.4169   -7.3049   19.8894 H   0  0  0  0  0  0  0  0  0  0  0  0
    3.7354   -5.5179   22.4303 H   0  0  0  0  0  0  0  0  0  0  0  0
    5.5924   -4.1706   23.4792 H   0  0  0  0  0  0  0  0  0  0  0  0
    9.0033   -4.6155   22.0534 H   0  0  0  0  0  0  0  0  0  0  0  0
    7.2605   -2.9807   23.8277 H   0  0  0  0  0  0  0  0  0  0  0  0
    9.0322   -2.9517   23.8174 H   0  0  0  0  0  0  0  0  0  0  0  0
    9.0115   -2.0382   21.5106 H   0  0  0  0  0  0  0  0  0  0  0  0
    6.9151   -2.4462   20.4374 H   0  0  0  0  0  0  0  0  0  0  0  0
    5.9876   -2.1407   21.9090 H   0  0  0  0  0  0  0  0  0  0  0  0
    9.7884   -0.1378   23.1228 C   0  0  0  0  0  0  0  0  0  0  0  0
   10.7388    0.0798   22.1052 C   0  0  0  0  0  0  0  0  0  0  0  0
   12.0724    0.3065   22.4262 C   0  0  0  0  0  0  0  0  0  0  0  0
   13.2955    0.6246   21.2238 Cl  0  0  0  0  0  0  0  0  0  0  0  0
   12.5160    0.2893   23.7454 C   0  0  0  0  0  0  0  0  0  0  0  0
   11.5945    0.0783   24.7480 C   0  0  0  0  0  0  0  0  0  0  0  0
   10.2434   -0.1111   24.4490 C   0  0  0  0  0  0  0  0  0  0  0  0
    9.3267   -0.3028   25.6122 C   0  0  0  0  0  0  0  0  0  0  0  0
    9.7496   -0.2865   26.7609 O   0  0  0  0  0  0  0  0  0  0  0  0
   11.9083    0.0565   25.7853 H   0  0  0  0  0  0  0  0  0  0  0  0
   13.5708    0.4457   23.9513 H   0  0  0  0  0  0  0  0  0  0  0  0
   10.4201    0.0877   21.0692 H   0  0  0  0  0  0  0  0  0  0  0  0
    7.2249    0.9342   23.9924 H   0  0  0  0  0  0  0  0  0  0  0  0
    6.4786   -0.6712   23.9141 H   0  0  0  0  0  0  0  0  0  0  0  0
    7.5744   -0.5766   27.3338 H   0  0  0  0  0  0  0  0  0  0  0  0
    6.1268   -0.5505   26.2876 H   0  0  0  0  0  0  0  0  0  0  0  0
    8.2079   -3.1031   26.7576 O   0  0  0  0  0  0  0  0  0  0  0  0
    8.9943   -5.6888   27.8277 H   0  0  0  0  0  0  0  0  0  0  0  0
    8.6684   -6.3259   26.1997 H   0  0  0  0  0  0  0  0  0  0  0  0
    9.8776   -5.0461   26.4237 H   0  0  0  0  0  0  0  0  0  0  0  0
  1  2  1  0
  2  3  2  0
  3  4  1  0
  4  5  2  0
  5  6  1  0
  6  7  1  0
  7  8  1  0
  9  8  1  1
  9 10  1  0
 10 11  2  0
 10 12  1  0
 12 13  1  0
 13 14  2  0
 14 15  1  0
 15 16  2  0
 16 17  1  0
 17 18  2  0
 18 19  1  0
 19 20  2  0
 20 21  1  0
 21 22  2  0
 21 23  1  0
 20 24  1  0
 19 25  1  0
 18 26  1  0
 16 27  1  0
 14 28  1  0
 12 29  1  0
 29 30  1  0
 30 31  1  0
 31 32  1  0
 32 33  1  0
 33 34  2  0
 34 35  1  0
 35 36  2  0
 36 37  1  0
 37 38  2  0
 37 39  1  0
 35 40  1  0
 34 41  1  0
 32 42  1  0
 31 43  1  0
 31 44  1  0
 30 45  1  6
 29 46  1  0
 29 47  1  0
  9 48  1  0
 48 49  2  0
 49 50  1  0
 50 51  1  0
 50 52  2  0
 52 53  1  0
 53 54  2  0
 54 55  1  0
 55 56  2  0
 53 57  1  0
 52 58  1  0
 49 59  1  0
  8 60  1  0
  8 61  1  0
  6 62  1  0
  6 63  1  0
  5 64  1  0
  1 65  1  0
  1 66  1  0
  1 67  1  0
 64  2  1  0
 55  7  1  0
 30  9  1  0
 38 33  1  0
 54 48  1  0
 22 13  1  0
 22 17  1  0
M  END
>  <cnnaffinities>  (52) 
[6.9047, 7.05911]

>  <score>  (52) 
6.9047

>  <index>  (52) 
51

>  <Smiles>  (52) 
C(c1nnc(C(N2C([C@@]3(C(=O)N(c4c(nc(c5c(c(c(c(c45)[H])[H])[H])[H])[H])[H])C([C@@]3(C(N(c3c(c(nc(n3)[H])[H])[H])[H])([H])[H])[H])([H])[H])c3c(c(Cl)c(c(c3C2=O)[H])[H])[H])([H])[H])([H])[H])o1)([H])([H])[H]

>  <h>  (52) 
<NA>

>  <Training>  (52) 
True

>  <Success>  (52) 
True

>  <enamine_searched>  (52) 
False

>  <enamine_id>  (52) 
nan

$$$$

     RDKit          3D

 66 71  0  0  0  0  0  0  0  0999 V2000
    7.8582   -8.5156   23.0590 C   0  0  0  0  0  0  0  0  0  0  0  0
    6.9184   -7.4487   22.7903 N   0  0  0  0  0  0  0  0  0  0  0  0
    7.1565   -6.5955   21.7589 C   0  0  0  0  0  0  0  0  0  0  0  0
    8.0213   -6.7781   20.9208 O   0  0  0  0  0  0  0  0  0  0  0  0
    6.2433   -5.3640   21.7711 C   0  0  0  0  0  0  0  0  0  0  0  0
    6.7174   -4.3752   22.7207 N   0  0  0  0  0  0  0  0  0  0  0  0
    7.7891   -3.4798   22.3406 C   0  0  0  0  0  0  0  0  0  0  0  0
    7.4284   -2.0181   22.6971 C   0  0  2  0  0  0  0  0  0  0  0  0
    6.2984   -1.6006   21.7286 C   0  0  0  0  0  0  0  0  0  0  0  0
    5.2093   -2.1277   21.6427 O   0  0  0  0  0  0  0  0  0  0  0  0
    6.7432   -0.5623   20.9321 N   0  0  0  0  0  0  0  0  0  0  0  0
    5.9761   -0.0234   19.8818 C   0  0  0  0  0  0  0  0  0  0  0  0
    6.4429   -0.0948   18.5907 C   0  0  0  0  0  0  0  0  0  0  0  0
    5.7805    0.3686   17.5096 N   0  0  0  0  0  0  0  0  0  0  0  0
    4.6375    0.9706   17.7140 C   0  0  0  0  0  0  0  0  0  0  0  0
    4.0464    1.1291   18.9936 C   0  0  0  0  0  0  0  0  0  0  0  0
    2.7800    1.7522   19.1349 C   0  0  0  0  0  0  0  0  0  0  0  0
    2.1971    1.8598   20.3682 C   0  0  0  0  0  0  0  0  0  0  0  0
    2.8437    1.3184   21.5052 C   0  0  0  0  0  0  0  0  0  0  0  0
    4.0564    0.6866   21.3932 C   0  0  0  0  0  0  0  0  0  0  0  0
    4.7045    0.5936   20.1216 C   0  0  0  0  0  0  0  0  0  0  0  0
    4.5158    0.2526   22.2787 H   0  0  0  0  0  0  0  0  0  0  0  0
    2.3639    1.3914   22.4804 H   0  0  0  0  0  0  0  0  0  0  0  0
    1.2440    2.3687   20.4862 H   0  0  0  0  0  0  0  0  0  0  0  0
    2.2941    2.1462   18.2483 H   0  0  0  0  0  0  0  0  0  0  0  0
    4.1104    1.3479   16.8399 H   0  0  0  0  0  0  0  0  0  0  0  0
    7.3775   -0.6123   18.3801 H   0  0  0  0  0  0  0  0  0  0  0  0
    8.1940   -0.4449   20.9698 C   0  0  0  0  0  0  0  0  0  0  0  0
    8.5637   -1.0209   22.3408 C   0  0  2  0  0  0  0  0  0  0  0  0
    9.9855   -1.5699   22.3534 C   0  0  0  0  0  0  0  0  0  0  0  0
   10.3308   -2.0831   23.6552 N   0  0  0  0  0  0  0  0  0  0  0  0
   11.5743   -2.5011   23.9893 C   0  0  0  0  0  0  0  0  0  0  0  0
   12.6557   -2.4079   23.0910 C   0  0  0  0  0  0  0  0  0  0  0  0
   13.8988   -2.6851   23.6083 C   0  0  0  0  0  0  0  0  0  0  0  0
   14.1065   -3.1020   24.8636 N   0  0  0  0  0  0  0  0  0  0  0  0
   13.0029   -3.2351   25.5892 C   0  0  0  0  0  0  0  0  0  0  0  0
   11.7509   -2.9738   25.2299 N   0  0  0  0  0  0  0  0  0  0  0  0
   13.1481   -3.6061   26.6019 H   0  0  0  0  0  0  0  0  0  0  0  0
   14.7878   -2.5614   22.9935 H   0  0  0  0  0  0  0  0  0  0  0  0
   12.5301   -2.1266   22.0497 H   0  0  0  0  0  0  0  0  0  0  0  0
    9.6231   -2.1583   24.3718 H   0  0  0  0  0  0  0  0  0  0  0  0
   10.6868   -0.7753   22.0697 H   0  0  0  0  0  0  0  0  0  0  0  0
   10.0790   -2.3460   21.5794 H   0  0  0  0  0  0  0  0  0  0  0  0
    8.5148   -0.2002   23.0561 H   0  0  0  0  0  0  0  0  0  0  0  0
    8.4793    0.6034   20.8527 H   0  0  0  0  0  0  0  0  0  0  0  0
    8.6685   -1.0245   20.1627 H   0  0  0  0  0  0  0  0  0  0  0  0
    6.9486   -1.9630   24.1421 C   0  0  0  0  0  0  0  0  0  0  0  0
    6.9052   -0.7463   24.8429 C   0  0  0  0  0  0  0  0  0  0  0  0
    6.4194   -0.7063   26.1378 C   0  0  0  0  0  0  0  0  0  0  0  0
    6.3804    0.8190   26.9817 Cl  0  0  0  0  0  0  0  0  0  0  0  0
    5.9548   -1.8565   26.7749 C   0  0  0  0  0  0  0  0  0  0  0  0
    5.9404   -3.0482   26.0734 C   0  0  0  0  0  0  0  0  0  0  0  0
    6.4065   -3.1046   24.7587 C   0  0  0  0  0  0  0  0  0  0  0  0
    6.2250   -4.3825   23.9896 C   0  0  0  0  0  0  0  0  0  0  0  0
    5.6301   -5.3590   24.4442 O   0  0  0  0  0  0  0  0  0  0  0  0
    5.5505   -3.9545   26.5251 H   0  0  0  0  0  0  0  0  0  0  0  0
    5.5873   -1.7976   27.7932 H   0  0  0  0  0  0  0  0  0  0  0  0
    7.2058    0.1893   24.3816 H   0  0  0  0  0  0  0  0  0  0  0  0
    7.9258   -3.5537   21.2646 H   0  0  0  0  0  0  0  0  0  0  0  0
    8.7282   -3.7764   22.8223 H   0  0  0  0  0  0  0  0  0  0  0  0
    6.2067   -4.9147   20.7729 H   0  0  0  0  0  0  0  0  0  0  0  0
    5.2260   -5.6381   22.0678 H   0  0  0  0  0  0  0  0  0  0  0  0
    6.3132   -7.1230   23.5359 H   0  0  0  0  0  0  0  0  0  0  0  0
    8.0213   -9.1135   22.1616 H   0  0  0  0  0  0  0  0  0  0  0  0
    8.8335   -8.1293   23.3761 H   0  0  0  0  0  0  0  0  0  0  0  0
    7.4513   -9.1538   23.8443 H   0  0  0  0  0  0  0  0  0  0  0  0
  1  2  1  0
  2  3  1  0
  3  4  2  0
  3  5  1  0
  5  6  1  0
  6  7  1  0
  8  7  1  6
  8  9  1  0
  9 10  2  0
  9 11  1  0
 11 12  1  0
 12 13  2  0
 13 14  1  0
 14 15  2  0
 15 16  1  0
 16 17  2  0
 17 18  1  0
 18 19  2  0
 19 20  1  0
 20 21  2  0
 20 22  1  0
 19 23  1  0
 18 24  1  0
 17 25  1  0
 15 26  1  0
 13 27  1  0
 11 28  1  0
 28 29  1  0
 29 30  1  0
 30 31  1  0
 31 32  1  0
 32 33  2  0
 33 34  1  0
 34 35  2  0
 35 36  1  0
 36 37  2  0
 36 38  1  0
 34 39  1  0
 33 40  1  0
 31 41  1  0
 30 42  1  0
 30 43  1  0
 29 44  1  1
 28 45  1  0
 28 46  1  0
  8 47  1  0
 47 48  2  0
 48 49  1  0
 49 50  1  0
 49 51  2  0
 51 52  1  0
 52 53  2  0
 53 54  1  0
 54 55  2  0
 52 56  1  0
 51 57  1  0
 48 58  1  0
  7 59  1  0
  7 60  1  0
  5 61  1  0
  5 62  1  0
  2 63  1  0
  1 64  1  0
  1 65  1  0
  1 66  1  0
 54  6  1  0
 29  8  1  0
 37 32  1  0
 53 47  1  0
 21 12  1  0
 21 16  1  0
M  END
>  <cnnaffinities>  (53) 
[7.37973, 7.21741]

>  <score>  (53) 
7.37973

>  <index>  (53) 
52

>  <Smiles>  (53) 
C(N(C(=O)C(N1C([C@@]2(C(=O)N(c3c(nc(c4c(c(c(c(c34)[H])[H])[H])[H])[H])[H])C([C@@]2(C(N(c2c(c(nc(n2)[H])[H])[H])[H])([H])[H])[H])([H])[H])c2c(c(Cl)c(c(c2C1=O)[H])[H])[H])([H])[H])([H])[H])[H])([H])([H])[H]

>  <h>  (53) 
<NA>

>  <Training>  (53) 
True

>  <Success>  (53) 
True

>  <enamine_searched>  (53) 
False

>  <enamine_id>  (53) 
nan

$$$$

     RDKit          3D

 77 84  0  0  0  0  0  0  0  0999 V2000
    9.7120    2.9672   24.7444 O   0  0  0  0  0  0  0  0  0  0  0  0
    9.5427    1.8219   24.3260 C   0  0  0  0  0  0  0  0  0  0  0  0
   10.5565    1.1637   23.4740 C   0  0  0  0  0  0  0  0  0  0  0  0
   11.8533    1.6478   23.5836 C   0  0  0  0  0  0  0  0  0  0  0  0
   12.8451    1.1715   22.7696 C   0  0  0  0  0  0  0  0  0  0  0  0
   12.4746    0.2439   21.8031 C   0  0  0  0  0  0  0  0  0  0  0  0
   13.6716   -0.0402   20.5925 Cl  0  0  0  0  0  0  0  0  0  0  0  0
   11.2109   -0.3312   21.7432 C   0  0  0  0  0  0  0  0  0  0  0  0
   10.1886    0.1511   22.5775 C   0  0  0  0  0  0  0  0  0  0  0  0
    8.7259   -0.3021   22.5421 C   0  0  1  0  0  0  0  0  0  0  0  0
    8.1467   -0.1617   23.9920 C   0  0  0  0  0  0  0  0  0  0  0  0
    8.4072    1.1362   24.5843 N   0  0  0  0  0  0  0  0  0  0  0  0
    7.3874    1.8437   25.3496 C   0  0  0  0  0  0  0  0  0  0  0  0
    6.4827    2.6798   24.4461 C   0  0  0  0  0  0  0  0  0  0  0  0
    7.2402    3.8038   23.8067 N   0  0  0  0  0  4  0  0  0  0  0  0
    7.6174    4.9920   24.7185 C   0  0  0  0  0  0  0  0  0  0  0  0
    6.7759    5.9725   23.8793 C   0  0  0  0  0  0  0  0  0  0  0  0
    5.6522    6.7855   24.5077 C   0  0  0  0  0  0  0  0  0  0  0  0
    6.1999    8.0116   24.0131 O   0  0  0  0  0  0  0  0  0  0  0  0
    7.2920    7.3254   23.3897 C   0  0  0  0  0  0  0  0  0  0  0  0
    8.2598    7.6454   23.7985 H   0  0  0  0  0  0  0  0  0  0  0  0
    7.2987    7.4628   22.2999 H   0  0  0  0  0  0  0  0  0  0  0  0
    4.6531    6.5830   24.1016 H   0  0  0  0  0  0  0  0  0  0  0  0
    5.6109    6.7643   25.6040 H   0  0  0  0  0  0  0  0  0  0  0  0
    6.4653    4.7879   22.9391 C   0  0  0  0  0  0  0  0  0  0  0  0
    5.4167    4.5070   22.8517 H   0  0  0  0  0  0  0  0  0  0  0  0
    6.9231    4.8336   21.9528 H   0  0  0  0  0  0  0  0  0  0  0  0
    8.6916    5.1492   24.7016 H   0  0  0  0  0  0  0  0  0  0  0  0
    7.2673    4.8229   25.7372 H   0  0  0  0  0  0  0  0  0  0  0  0
    8.0350    3.4359   23.2624 H   0  0  0  0  0  0  0  0  0  0  0  0
    6.0875    2.0609   23.6373 H   0  0  0  0  0  0  0  0  0  0  0  0
    5.6466    3.0925   25.0210 H   0  0  0  0  0  0  0  0  0  0  0  0
    7.9282    2.4816   26.0562 H   0  0  0  0  0  0  0  0  0  0  0  0
    6.8068    1.1191   25.9337 H   0  0  0  0  0  0  0  0  0  0  0  0
    7.0637   -0.3248   23.9660 H   0  0  0  0  0  0  0  0  0  0  0  0
    8.5795   -0.9451   24.6249 H   0  0  0  0  0  0  0  0  0  0  0  0
    7.8270    0.5725   21.6215 C   0  0  0  0  0  0  0  0  0  0  0  0
    7.8259    1.7878   21.5840 O   0  0  0  0  0  0  0  0  0  0  0  0
    6.9806   -0.2570   20.9101 N   0  0  0  0  0  0  0  0  0  0  0  0
    6.1046    0.1405   19.8661 C   0  0  0  0  0  0  0  0  0  0  0  0
    6.4623   -0.1302   18.5655 C   0  0  0  0  0  0  0  0  0  0  0  0
    5.7688    0.2814   17.4783 N   0  0  0  0  0  0  0  0  0  0  0  0
    4.6583    0.9430   17.6879 C   0  0  0  0  0  0  0  0  0  0  0  0
    4.1118    1.1880   18.9791 C   0  0  0  0  0  0  0  0  0  0  0  0
    2.8721    1.8594   19.1368 C   0  0  0  0  0  0  0  0  0  0  0  0
    2.3111    1.9932   20.3755 C   0  0  0  0  0  0  0  0  0  0  0  0
    2.9517    1.4347   21.5062 C   0  0  0  0  0  0  0  0  0  0  0  0
    4.1648    0.7943   21.3848 C   0  0  0  0  0  0  0  0  0  0  0  0
    4.8073    0.7067   20.1161 C   0  0  0  0  0  0  0  0  0  0  0  0
    4.6476    0.3643   22.2602 H   0  0  0  0  0  0  0  0  0  0  0  0
    2.4992    1.5451   22.4855 H   0  0  0  0  0  0  0  0  0  0  0  0
    1.3838    2.5435   20.5021 H   0  0  0  0  0  0  0  0  0  0  0  0
    2.3955    2.2672   18.2527 H   0  0  0  0  0  0  0  0  0  0  0  0
    4.1313    1.3305   16.8135 H   0  0  0  0  0  0  0  0  0  0  0  0
    7.3763   -0.6906   18.3518 H   0  0  0  0  0  0  0  0  0  0  0  0
    7.1236   -1.6545   21.2280 C   0  0  0  0  0  0  0  0  0  0  0  0
    8.4638   -1.7249   21.9690 C   0  0  2  0  0  0  0  0  0  0  0  0
    8.3977   -2.8322   23.0064 C   0  0  0  0  0  0  0  0  0  0  0  0
    8.1557   -4.1271   22.4073 N   0  0  0  0  0  0  0  0  0  0  0  0
    8.1329   -5.2179   23.2111 C   0  0  0  0  0  0  0  0  0  0  0  0
    8.0408   -6.4294   22.6320 N   0  0  0  0  0  0  0  0  0  0  0  0
    7.9779   -7.4503   23.4703 C   0  0  0  0  0  0  0  0  0  0  0  0
    8.0050   -7.3016   24.8521 C   0  0  0  0  0  0  0  0  0  0  0  0
    8.1146   -6.0089   25.3309 C   0  0  0  0  0  0  0  0  0  0  0  0
    8.1791   -4.9588   24.5301 N   0  0  0  0  0  0  0  0  0  0  0  0
    8.1491   -5.7976   26.3981 H   0  0  0  0  0  0  0  0  0  0  0  0
    7.9426   -8.1369   25.5193 H   0  0  0  0  0  0  0  0  0  0  0  0
    7.9006   -8.4371   23.0164 H   0  0  0  0  0  0  0  0  0  0  0  0
    8.4102   -4.3002   21.4463 H   0  0  0  0  0  0  0  0  0  0  0  0
    7.5613   -2.6447   23.6904 H   0  0  0  0  0  0  0  0  0  0  0  0
    9.2926   -2.8530   23.6369 H   0  0  0  0  0  0  0  0  0  0  0  0
    9.2396   -1.9646   21.2344 H   0  0  0  0  0  0  0  0  0  0  0  0
    7.0940   -2.2581   20.3175 H   0  0  0  0  0  0  0  0  0  0  0  0
    6.3027   -2.0219   21.8662 H   0  0  0  0  0  0  0  0  0  0  0  0
   11.0402   -1.1285   21.0253 H   0  0  0  0  0  0  0  0  0  0  0  0
   13.8690    1.5174   22.8398 H   0  0  0  0  0  0  0  0  0  0  0  0
   12.0526    2.4071   24.3211 H   0  0  0  0  0  0  0  0  0  0  0  0
  1  2  2  0
  2  3  1  0
  3  4  2  0
  4  5  1  0
  5  6  2  0
  6  7  1  0
  6  8  1  0
  8  9  2  0
  9 10  1  0
 10 11  1  1
 11 12  1  0
 12 13  1  0
 13 14  1  0
 14 15  1  0
 15 16  1  0
 16 17  1  0
 17 18  1  0
 18 19  1  0
 19 20  1  0
 20 21  1  0
 20 22  1  0
 18 23  1  0
 18 24  1  0
 17 25  1  0
 25 26  1  0
 25 27  1  0
 16 28  1  0
 16 29  1  0
 15 30  1  0
 14 31  1  0
 14 32  1  0
 13 33  1  0
 13 34  1  0
 11 35  1  0
 11 36  1  0
 10 37  1  0
 37 38  2  0
 37 39  1  0
 39 40  1  0
 40 41  2  0
 41 42  1  0
 42 43  2  0
 43 44  1  0
 44 45  2  0
 45 46  1  0
 46 47  2  0
 47 48  1  0
 48 49  2  0
 48 50  1  0
 47 51  1  0
 46 52  1  0
 45 53  1  0
 43 54  1  0
 41 55  1  0
 39 56  1  0
 56 57  1  0
 57 58  1  0
 58 59  1  0
 59 60  1  0
 60 61  2  0
 61 62  1  0
 62 63  2  0
 63 64  1  0
 64 65  2  0
 64 66  1  0
 63 67  1  0
 62 68  1  0
 59 69  1  0
 58 70  1  0
 58 71  1  0
 57 72  1  6
 56 73  1  0
 56 74  1  0
  8 75  1  0
  5 76  1  0
  4 77  1  0
 12  2  1  0
 25 15  1  0
 49 40  1  0
 65 60  1  0
  9  3  1  0
 57 10  1  0
 20 17  1  0
 49 44  1  0
M  CHG  1  15   1
M  END
>  <cnnaffinities>  (54) 
[7.24431]

>  <score>  (54) 
7.24431

>  <index>  (54) 
53

>  <Smiles>  (54) 
O=C1c2c(c(c(Cl)c(c2[C@@]2(C(N1C(C([N+]1(C(C3(C(OC3([H])[H])([H])[H])C1([H])[H])([H])[H])[H])([H])[H])([H])[H])([H])[H])C(=O)N(c1c(nc(c3c(c(c(c(c13)[H])[H])[H])[H])[H])[H])C([C@@]2(C(N(c1nc(c(c(n1)[H])[H])[H])[H])([H])[H])[H])([H])[H])[H])[H])[H]

>  <h>  (54) 
<NA>

>  <Training>  (54) 
True

>  <Success>  (54) 
True

>  <enamine_searched>  (54) 
False

>  <enamine_id>  (54) 
nan

$$$$

     RDKit          3D

 66 71  0  0  0  0  0  0  0  0999 V2000
    8.0391   -8.4344   23.0633 C   0  0  0  0  0  0  0  0  0  0  0  0
    7.1634   -7.2959   22.9107 N   0  0  0  0  0  0  0  0  0  0  0  0
    7.2413   -6.5570   21.7808 C   0  0  0  0  0  0  0  0  0  0  0  0
    7.9654   -6.8445   20.8417 O   0  0  0  0  0  0  0  0  0  0  0  0
    6.3476   -5.3172   21.7859 C   0  0  0  0  0  0  0  0  0  0  0  0
    6.8173   -4.3257   22.7334 N   0  0  0  0  0  0  0  0  0  0  0  0
    7.8720   -3.4042   22.3568 C   0  0  0  0  0  0  0  0  0  0  0  0
    7.4711   -1.9507   22.7060 C   0  0  2  0  0  0  0  0  0  0  0  0
    6.3329   -1.5676   21.7368 C   0  0  0  0  0  0  0  0  0  0  0  0
    5.2534   -2.1206   21.6506 O   0  0  0  0  0  0  0  0  0  0  0  0
    6.7514   -0.5261   20.9344 N   0  0  0  0  0  0  0  0  0  0  0  0
    5.9719   -0.0176   19.8831 C   0  0  0  0  0  0  0  0  0  0  0  0
    6.4391   -0.0946   18.5950 C   0  0  0  0  0  0  0  0  0  0  0  0
    5.7787    0.3666   17.5119 N   0  0  0  0  0  0  0  0  0  0  0  0
    4.6340    0.9650   17.7183 C   0  0  0  0  0  0  0  0  0  0  0  0
    4.0334    1.1090   18.9959 C   0  0  0  0  0  0  0  0  0  0  0  0
    2.7695    1.7344   19.1371 C   0  0  0  0  0  0  0  0  0  0  0  0
    2.1833    1.8378   20.3697 C   0  0  0  0  0  0  0  0  0  0  0  0
    2.8252    1.2900   21.5054 C   0  0  0  0  0  0  0  0  0  0  0  0
    4.0421    0.6667   21.3936 C   0  0  0  0  0  0  0  0  0  0  0  0
    4.6920    0.5762   20.1238 C   0  0  0  0  0  0  0  0  0  0  0  0
    4.5011    0.2368   22.2787 H   0  0  0  0  0  0  0  0  0  0  0  0
    2.3449    1.3645   22.4777 H   0  0  0  0  0  0  0  0  0  0  0  0
    1.2340    2.3509   20.4860 H   0  0  0  0  0  0  0  0  0  0  0  0
    2.2931    2.1404   18.2517 H   0  0  0  0  0  0  0  0  0  0  0  0
    4.1091    1.3464   16.8438 H   0  0  0  0  0  0  0  0  0  0  0  0
    7.3778   -0.6050   18.3875 H   0  0  0  0  0  0  0  0  0  0  0  0
    8.1950   -0.3715   20.9646 C   0  0  0  0  0  0  0  0  0  0  0  0
    8.5744   -0.9167   22.3377 C   0  0  2  0  0  0  0  0  0  0  0  0
   10.0144   -1.4070   22.3524 C   0  0  0  0  0  0  0  0  0  0  0  0
   10.3718   -1.7876   23.6930 N   0  0  0  0  0  0  0  0  0  0  0  0
   11.5706   -2.3655   23.9966 C   0  0  0  0  0  0  0  0  0  0  0  0
   12.6606   -2.3669   23.0925 C   0  0  0  0  0  0  0  0  0  0  0  0
   13.8484   -2.8295   23.4479 N   0  0  0  0  0  0  0  0  0  0  0  0
   13.9554   -3.3196   24.6855 C   0  0  0  0  0  0  0  0  0  0  0  0
   12.8774   -3.3690   25.5482 C   0  0  0  0  0  0  0  0  0  0  0  0
   11.6792   -2.9012   25.2115 N   0  0  0  0  0  0  0  0  0  0  0  0
   12.9856   -3.8193   26.5332 H   0  0  0  0  0  0  0  0  0  0  0  0
   14.9035   -3.7296   24.9916 H   0  0  0  0  0  0  0  0  0  0  0  0
   12.5569   -1.9811   22.0775 H   0  0  0  0  0  0  0  0  0  0  0  0
    9.6281   -2.0023   24.3467 H   0  0  0  0  0  0  0  0  0  0  0  0
   10.6855   -0.6108   22.0025 H   0  0  0  0  0  0  0  0  0  0  0  0
   10.1331   -2.2374   21.6355 H   0  0  0  0  0  0  0  0  0  0  0  0
    8.5035   -0.0971   23.0534 H   0  0  0  0  0  0  0  0  0  0  0  0
    8.6874   -0.9533   20.1692 H   0  0  0  0  0  0  0  0  0  0  0  0
    8.4625    0.6797   20.8373 H   0  0  0  0  0  0  0  0  0  0  0  0
    6.9860   -1.9108   24.1495 C   0  0  0  0  0  0  0  0  0  0  0  0
    6.9013   -0.7013   24.8555 C   0  0  0  0  0  0  0  0  0  0  0  0
    6.3967   -0.6818   26.1444 C   0  0  0  0  0  0  0  0  0  0  0  0
    6.2970    0.8364   26.9930 Cl  0  0  0  0  0  0  0  0  0  0  0  0
    5.9541   -1.8444   26.7747 C   0  0  0  0  0  0  0  0  0  0  0  0
    5.9847   -3.0319   26.0708 C   0  0  0  0  0  0  0  0  0  0  0  0
    6.4699   -3.0654   24.7634 C   0  0  0  0  0  0  0  0  0  0  0  0
    6.3257   -4.3413   23.9995 C   0  0  0  0  0  0  0  0  0  0  0  0
    5.7559   -5.3311   24.4639 O   0  0  0  0  0  0  0  0  0  0  0  0
    5.6156   -3.9537   26.5079 H   0  0  0  0  0  0  0  0  0  0  0  0
    5.5685   -1.8023   27.7868 H   0  0  0  0  0  0  0  0  0  0  0  0
    7.1857    0.2416   24.4013 H   0  0  0  0  0  0  0  0  0  0  0  0
    8.0201   -3.4742   21.2816 H   0  0  0  0  0  0  0  0  0  0  0  0
    8.8140   -3.6781   22.8500 H   0  0  0  0  0  0  0  0  0  0  0  0
    5.3244   -5.5815   22.0767 H   0  0  0  0  0  0  0  0  0  0  0  0
    6.3305   -4.8844   20.7814 H   0  0  0  0  0  0  0  0  0  0  0  0
    6.6417   -6.9189   23.6956 H   0  0  0  0  0  0  0  0  0  0  0  0
    7.8045   -9.2174   22.3364 H   0  0  0  0  0  0  0  0  0  0  0  0
    7.9262   -8.8321   24.0712 H   0  0  0  0  0  0  0  0  0  0  0  0
    9.0810   -8.1445   22.9004 H   0  0  0  0  0  0  0  0  0  0  0  0
  1  2  1  0
  2  3  1  0
  3  4  2  0
  3  5  1  0
  5  6  1  0
  6  7  1  0
  8  7  1  6
  8  9  1  0
  9 10  2  0
  9 11  1  0
 11 12  1  0
 12 13  2  0
 13 14  1  0
 14 15  2  0
 15 16  1  0
 16 17  2  0
 17 18  1  0
 18 19  2  0
 19 20  1  0
 20 21  2  0
 20 22  1  0
 19 23  1  0
 18 24  1  0
 17 25  1  0
 15 26  1  0
 13 27  1  0
 11 28  1  0
 28 29  1  0
 29 30  1  0
 30 31  1  0
 31 32  1  0
 32 33  2  0
 33 34  1  0
 34 35  2  0
 35 36  1  0
 36 37  2  0
 36 38  1  0
 35 39  1  0
 33 40  1  0
 31 41  1  0
 30 42  1  0
 30 43  1  0
 29 44  1  1
 28 45  1  0
 28 46  1  0
  8 47  1  0
 47 48  2  0
 48 49  1  0
 49 50  1  0
 49 51  2  0
 51 52  1  0
 52 53  2  0
 53 54  1  0
 54 55  2  0
 52 56  1  0
 51 57  1  0
 48 58  1  0
  7 59  1  0
  7 60  1  0
  5 61  1  0
  5 62  1  0
  2 63  1  0
  1 64  1  0
  1 65  1  0
  1 66  1  0
 54  6  1  0
 29  8  1  0
 37 32  1  0
 53 47  1  0
 21 12  1  0
 21 16  1  0
M  END
>  <cnnaffinities>  (55) 
[7.49353, 7.34825, 6.90087]

>  <score>  (55) 
7.49353

>  <index>  (55) 
54

>  <Smiles>  (55) 
C(N(C(=O)C(N1C([C@@]2(C(=O)N(c3c(nc(c4c(c(c(c(c34)[H])[H])[H])[H])[H])[H])C([C@@]2(C(N(c2c(nc(c(n2)[H])[H])[H])[H])([H])[H])[H])([H])[H])c2c(c(Cl)c(c(c2C1=O)[H])[H])[H])([H])[H])([H])[H])[H])([H])([H])[H]

>  <h>  (55) 
<NA>

>  <Training>  (55) 
True

>  <Success>  (55) 
True

>  <enamine_searched>  (55) 
False

>  <enamine_id>  (55) 
nan

$$$$

     RDKit          3D

 56 61  0  0  0  0  0  0  0  0999 V2000
   12.6176    2.2093   22.4161 C   0  0  0  0  0  0  0  0  0  0  0  0
   12.6435    0.8082   22.7808 N   0  0  0  0  0  0  0  0  0  0  0  0
   13.0307    0.2623   23.9523 C   0  0  0  0  0  0  0  0  0  0  0  0
   12.8670   -1.0942   23.8495 C   0  0  0  0  0  0  0  0  0  0  0  0
   12.3586   -1.2798   22.5473 C   0  0  0  0  0  0  0  0  0  0  0  0
   11.9100   -2.5620   21.9266 C   0  0  0  0  0  0  0  0  0  0  0  0
   10.5279   -2.8782   22.2761 N   0  0  0  0  0  0  0  0  0  0  0  0
    9.4261   -2.5866   21.3804 C   0  0  0  0  0  0  0  0  0  0  0  0
    8.2301   -1.9446   22.1231 C   0  0  1  0  0  0  0  0  0  0  0  0
    8.5005   -0.4689   22.5351 C   0  0  0  0  0  0  0  0  0  0  0  0
    7.8261    0.4027   21.4701 C   0  0  0  0  0  0  0  0  0  0  0  0
    6.8045   -0.4797   20.9280 N   0  0  0  0  0  0  0  0  0  0  0  0
    5.9784   -0.0580   19.8543 C   0  0  0  0  0  0  0  0  0  0  0  0
    6.3935   -0.2175   18.5572 C   0  0  0  0  0  0  0  0  0  0  0  0
    5.7503    0.2888   17.4767 N   0  0  0  0  0  0  0  0  0  0  0  0
    4.6440    0.9528   17.6960 C   0  0  0  0  0  0  0  0  0  0  0  0
    4.0682    1.1491   18.9840 C   0  0  0  0  0  0  0  0  0  0  0  0
    2.8257    1.8132   19.1502 C   0  0  0  0  0  0  0  0  0  0  0  0
    2.2478    1.9059   20.3893 C   0  0  0  0  0  0  0  0  0  0  0  0
    2.8929    1.3358   21.5155 C   0  0  0  0  0  0  0  0  0  0  0  0
    4.1019    0.6960   21.3794 C   0  0  0  0  0  0  0  0  0  0  0  0
    4.7366    0.6087   20.1088 C   0  0  0  0  0  0  0  0  0  0  0  0
    4.5841    0.2406   22.2385 H   0  0  0  0  0  0  0  0  0  0  0  0
    2.4253    1.4162   22.4922 H   0  0  0  0  0  0  0  0  0  0  0  0
    1.3046    2.4279   20.5210 H   0  0  0  0  0  0  0  0  0  0  0  0
    2.3244    2.1976   18.2682 H   0  0  0  0  0  0  0  0  0  0  0  0
    4.1465    1.3893   16.8279 H   0  0  0  0  0  0  0  0  0  0  0  0
    7.3188   -0.7418   18.3305 H   0  0  0  0  0  0  0  0  0  0  0  0
    7.0525   -1.8173   21.1512 C   0  0  0  0  0  0  0  0  0  0  0  0
    6.4041   -2.7268   20.6758 O   0  0  0  0  0  0  0  0  0  0  0  0
    8.5301    0.7221   20.6840 H   0  0  0  0  0  0  0  0  0  0  0  0
    7.3656    1.3031   21.8935 H   0  0  0  0  0  0  0  0  0  0  0  0
    9.5679   -0.2544   22.6050 H   0  0  0  0  0  0  0  0  0  0  0  0
    8.0503   -0.2860   23.5155 H   0  0  0  0  0  0  0  0  0  0  0  0
    7.8873   -2.8525   23.2844 C   0  0  0  0  0  0  0  0  0  0  0  0
    6.5848   -2.9308   23.7859 C   0  0  0  0  0  0  0  0  0  0  0  0
    6.3109   -3.7237   24.8879 C   0  0  0  0  0  0  0  0  0  0  0  0
    4.6908   -3.7636   25.5311 Cl  0  0  0  0  0  0  0  0  0  0  0  0
    7.3073   -4.4920   25.4907 C   0  0  0  0  0  0  0  0  0  0  0  0
    8.5984   -4.4138   24.9994 C   0  0  0  0  0  0  0  0  0  0  0  0
    8.8943   -3.5817   23.9219 C   0  0  0  0  0  0  0  0  0  0  0  0
   10.3203   -3.4583   23.4981 C   0  0  0  0  0  0  0  0  0  0  0  0
   11.2406   -3.8338   24.2140 O   0  0  0  0  0  0  0  0  0  0  0  0
    9.4099   -4.9879   25.4370 H   0  0  0  0  0  0  0  0  0  0  0  0
    7.0745   -5.1263   26.3395 H   0  0  0  0  0  0  0  0  0  0  0  0
    5.7718   -2.4066   23.2999 H   0  0  0  0  0  0  0  0  0  0  0  0
    9.7723   -1.8957   20.6100 H   0  0  0  0  0  0  0  0  0  0  0  0
    9.0808   -3.5225   20.9348 H   0  0  0  0  0  0  0  0  0  0  0  0
   12.0144   -2.5127   20.8390 H   0  0  0  0  0  0  0  0  0  0  0  0
   12.5182   -3.3814   22.3130 H   0  0  0  0  0  0  0  0  0  0  0  0
   12.2187   -0.1231   21.9105 N   0  0  0  0  0  0  0  0  0  0  0  0
   13.0527   -1.8501   24.6004 H   0  0  0  0  0  0  0  0  0  0  0  0
   13.3470    0.8660   24.7852 H   0  0  0  0  0  0  0  0  0  0  0  0
   13.6003    2.5521   22.0780 H   0  0  0  0  0  0  0  0  0  0  0  0
   11.8912    2.3319   21.6115 H   0  0  0  0  0  0  0  0  0  0  0  0
   12.3076    2.8156   23.2711 H   0  0  0  0  0  0  0  0  0  0  0  0
  1  2  1  0
  2  3  1  0
  3  4  2  0
  4  5  1  0
  5  6  1  0
  6  7  1  0
  7  8  1  0
  9  8  1  6
  9 10  1  0
 10 11  1  0
 11 12  1  0
 12 13  1  0
 13 14  2  0
 14 15  1  0
 15 16  2  0
 16 17  1  0
 17 18  2  0
 18 19  1  0
 19 20  2  0
 20 21  1  0
 21 22  2  0
 21 23  1  0
 20 24  1  0
 19 25  1  0
 18 26  1  0
 16 27  1  0
 14 28  1  0
 12 29  1  0
 29 30  2  0
 11 31  1  0
 11 32  1  0
 10 33  1  0
 10 34  1  0
  9 35  1  0
 35 36  2  0
 36 37  1  0
 37 38  1  0
 37 39  2  0
 39 40  1  0
 40 41  2  0
 41 42  1  0
 42 43  2  0
 40 44  1  0
 39 45  1  0
 36 46  1  0
  8 47  1  0
  8 48  1  0
  6 49  1  0
  6 50  1  0
  5 51  2  0
  4 52  1  0
  3 53  1  0
  1 54  1  0
  1 55  1  0
  1 56  1  0
 51  2  1  0
 42  7  1  0
 29  9  1  0
 41 35  1  0
 22 13  1  0
 22 17  1  0
M  END
>  <cnnaffinities>  (56) 
[6.99651]

>  <score>  (56) 
6.99651

>  <index>  (56) 
55

>  <Smiles>  (56) 
C(n1c(c(c(C(N2C([C@]3(C(C(N(c4c(nc(c5c(c(c(c(c45)[H])[H])[H])[H])[H])[H])C3=O)([H])[H])([H])[H])c3c(c(Cl)c(c(c3C2=O)[H])[H])[H])([H])[H])([H])[H])n1)[H])[H])([H])([H])[H]

>  <h>  (56) 
<NA>

>  <Training>  (56) 
True

>  <Success>  (56) 
True

>  <enamine_searched>  (56) 
False

>  <enamine_id>  (56) 
nan

$$$$

     RDKit          3D

 41 43  0  0  0  0  0  0  0  0999 V2000
    8.1569    1.5744   20.8606 O   0  0  0  0  0  0  0  0  0  0  0  0
    7.8878    0.5853   21.5175 C   0  0  0  0  0  0  0  0  0  0  0  0
    6.9053   -0.4851   21.0088 C   0  0  0  0  0  0  0  0  0  0  0  0
    6.0040   -0.0270   19.9006 C   0  0  0  0  0  0  0  0  0  0  0  0
    6.4236   -0.1558   18.6032 C   0  0  0  0  0  0  0  0  0  0  0  0
    5.7761    0.3178   17.5103 N   0  0  0  0  0  0  0  0  0  0  0  0
    4.6507    0.9497   17.7198 C   0  0  0  0  0  0  0  0  0  0  0  0
    4.0618    1.1228   19.0002 C   0  0  0  0  0  0  0  0  0  0  0  0
    2.8317    1.8116   19.1657 C   0  0  0  0  0  0  0  0  0  0  0  0
    2.2522    1.9147   20.4001 C   0  0  0  0  0  0  0  0  0  0  0  0
    2.8849    1.3335   21.5202 C   0  0  0  0  0  0  0  0  0  0  0  0
    4.0942    0.6935   21.3940 C   0  0  0  0  0  0  0  0  0  0  0  0
    4.7350    0.5910   20.1283 C   0  0  0  0  0  0  0  0  0  0  0  0
    4.5715    0.2691   22.2724 H   0  0  0  0  0  0  0  0  0  0  0  0
    2.4151    1.4229   22.4958 H   0  0  0  0  0  0  0  0  0  0  0  0
    1.3191    2.4605   20.5247 H   0  0  0  0  0  0  0  0  0  0  0  0
    2.3503    2.2266   18.2849 H   0  0  0  0  0  0  0  0  0  0  0  0
    4.1524    1.3755   16.8474 H   0  0  0  0  0  0  0  0  0  0  0  0
    7.3830   -0.6246   18.3957 H   0  0  0  0  0  0  0  0  0  0  0  0
    6.3191   -0.8726   21.8427 H   0  0  0  0  0  0  0  0  0  0  0  0
    7.5362   -1.3042   20.6305 H   0  0  0  0  0  0  0  0  0  0  0  0
    8.4750    0.3477   22.7473 N   0  0  0  0  0  0  0  0  0  0  0  0
    9.3320    1.4038   23.3051 C   0  0  0  0  0  0  0  0  0  0  0  0
   10.7353    1.4156   22.7024 C   0  0  0  0  0  0  0  0  0  0  0  0
   11.7065    0.3146   23.1187 C   0  0  0  0  0  0  0  0  0  0  0  0
   11.1611   -1.3801   22.7700 S   0  0  0  0  0  0  0  0  0  0  0  0
    9.7842   -1.4624   23.9372 C   0  0  0  0  0  0  0  0  0  0  0  0
    8.4403   -0.9518   23.3909 C   0  0  1  0  0  0  0  0  0  0  0  0
    7.4245   -0.9025   24.5272 C   0  0  0  0  0  0  0  0  0  0  0  0
    7.8382   -0.0557   25.4935 F   0  0  0  0  0  0  0  0  0  0  0  0
    6.2275   -0.4680   24.1046 F   0  0  0  0  0  0  0  0  0  0  0  0
    7.2551   -2.1083   25.0943 F   0  0  0  0  0  0  0  0  0  0  0  0
    8.0975   -1.6993   22.6686 H   0  0  0  0  0  0  0  0  0  0  0  0
   10.0644   -0.9167   24.8401 H   0  0  0  0  0  0  0  0  0  0  0  0
    9.6621   -2.5111   24.2198 H   0  0  0  0  0  0  0  0  0  0  0  0
   11.9843    0.3849   24.1798 H   0  0  0  0  0  0  0  0  0  0  0  0
   12.6271    0.4400   22.5370 H   0  0  0  0  0  0  0  0  0  0  0  0
   10.5873    1.3494   21.6276 H   0  0  0  0  0  0  0  0  0  0  0  0
   11.2070    2.3818   22.9244 H   0  0  0  0  0  0  0  0  0  0  0  0
    8.8518    2.3601   23.0698 H   0  0  0  0  0  0  0  0  0  0  0  0
    9.3454    1.3034   24.3933 H   0  0  0  0  0  0  0  0  0  0  0  0
  1  2  2  0
  2  3  1  0
  3  4  1  0
  4  5  2  0
  5  6  1  0
  6  7  2  0
  7  8  1  0
  8  9  2  0
  9 10  1  0
 10 11  2  0
 11 12  1  0
 12 13  2  0
 12 14  1  0
 11 15  1  0
 10 16  1  0
  9 17  1  0
  7 18  1  0
  5 19  1  0
  3 20  1  0
  3 21  1  0
  2 22  1  0
 22 23  1  0
 23 24  1  0
 24 25  1  0
 25 26  1  0
 26 27  1  0
 27 28  1  0
 28 29  1  0
 29 30  1  0
 29 31  1  0
 29 32  1  0
 28 33  1  6
 27 34  1  0
 27 35  1  0
 25 36  1  0
 25 37  1  0
 24 38  1  0
 24 39  1  0
 23 40  1  0
 23 41  1  0
 13  4  1  0
 28 22  1  0
 13  8  1  0
M  END
>  <cnnaffinities>  (57) 
[5.89631, 5.8963, 5.8963]

>  <score>  (57) 
5.89631

>  <index>  (57) 
56

>  <Smiles>  (57) 
O=C(C(c1c(nc(c2c(c(c(c(c12)[H])[H])[H])[H])[H])[H])([H])[H])N1C(C(C(SC([C@]1(C(F)(F)F)[H])([H])[H])([H])[H])([H])[H])([H])[H]

>  <h>  (57) 
<NA>

>  <Training>  (57) 
True

>  <Success>  (57) 
True

>  <enamine_searched>  (57) 
False

>  <enamine_id>  (57) 
nan

$$$$

     RDKit          3D

 67 72  0  0  0  0  0  0  0  0999 V2000
    7.9447   -8.4672   23.0939 C   0  0  0  0  0  0  0  0  0  0  0  0
    7.0658   -7.3358   22.9356 N   0  0  0  0  0  0  0  0  0  0  0  0
    7.1494   -6.5649   21.8289 C   0  0  0  0  0  0  0  0  0  0  0  0
    7.8718   -6.8217   20.8839 O   0  0  0  0  0  0  0  0  0  0  0  0
    6.2607   -5.3243   21.8714 C   0  0  0  0  0  0  0  0  0  0  0  0
    6.7634   -4.3380   22.8022 N   0  0  0  0  0  0  0  0  0  0  0  0
    7.8281   -3.4473   22.3875 C   0  0  0  0  0  0  0  0  0  0  0  0
    7.4402   -1.9787   22.6747 C   0  0  2  0  0  0  0  0  0  0  0  0
    6.2834   -1.6212   21.7076 C   0  0  0  0  0  0  0  0  0  0  0  0
    5.2186   -2.2006   21.6320 O   0  0  0  0  0  0  0  0  0  0  0  0
    6.6808   -0.5715   20.8984 N   0  0  0  0  0  0  0  0  0  0  0  0
    5.9025   -0.0486   19.8488 C   0  0  0  0  0  0  0  0  0  0  0  0
    6.4034   -0.0564   18.5682 C   0  0  0  0  0  0  0  0  0  0  0  0
    5.7722    0.4610   17.4901 N   0  0  0  0  0  0  0  0  0  0  0  0
    4.5832    0.9749   17.6876 C   0  0  0  0  0  0  0  0  0  0  0  0
    3.9424    1.0540   18.9568 C   0  0  0  0  0  0  0  0  0  0  0  0
    2.6800    1.6944   19.1103 C   0  0  0  0  0  0  0  0  0  0  0  0
    2.1023    1.7762   20.3465 C   0  0  0  0  0  0  0  0  0  0  0  0
    2.7618    1.2506   21.4816 C   0  0  0  0  0  0  0  0  0  0  0  0
    3.9736    0.6183   21.3579 C   0  0  0  0  0  0  0  0  0  0  0  0
    4.6091    0.5252   20.0846 C   0  0  0  0  0  0  0  0  0  0  0  0
    4.4478    0.2060   22.2427 H   0  0  0  0  0  0  0  0  0  0  0  0
    2.2861    1.3230   22.4551 H   0  0  0  0  0  0  0  0  0  0  0  0
    1.1496    2.2824   20.4745 H   0  0  0  0  0  0  0  0  0  0  0  0
    2.2032    2.1212   18.2296 H   0  0  0  0  0  0  0  0  0  0  0  0
    4.0533    1.3440   16.8117 H   0  0  0  0  0  0  0  0  0  0  0  0
    7.3569   -0.5469   18.3749 H   0  0  0  0  0  0  0  0  0  0  0  0
    8.1263   -0.4100   20.9031 C   0  0  0  0  0  0  0  0  0  0  0  0
    8.5489   -0.9606   22.2592 C   0  0  2  0  0  0  0  0  0  0  0  0
   10.0025   -1.4464   22.2343 C   0  0  0  0  0  0  0  0  0  0  0  0
   10.3558   -1.8404   23.5684 N   0  0  0  0  0  0  0  0  0  0  0  0
   11.5337   -2.4301   23.9560 C   0  0  0  0  0  0  0  0  0  0  0  0
   12.8165   -2.2628   23.5257 C   0  0  0  0  0  0  0  0  0  0  0  0
   13.7968   -2.8753   24.2850 N   0  0  0  0  0  0  0  0  0  0  0  0
   13.2731   -3.5133   25.2850 C   0  0  0  0  0  0  0  0  0  0  0  0
   14.0062   -4.3536   26.2868 C   0  0  0  0  0  0  0  0  0  0  0  0
   14.2793   -3.7859   27.1877 H   0  0  0  0  0  0  0  0  0  0  0  0
   13.3648   -5.1890   26.5758 H   0  0  0  0  0  0  0  0  0  0  0  0
   14.9180   -4.7435   25.8286 H   0  0  0  0  0  0  0  0  0  0  0  0
   11.5212   -3.5259   25.3045 S   0  0  0  0  0  0  0  0  0  0  0  0
   13.1058   -1.6981   22.6476 H   0  0  0  0  0  0  0  0  0  0  0  0
    9.5959   -1.8880   24.2369 H   0  0  0  0  0  0  0  0  0  0  0  0
   10.6602   -0.6419   21.8800 H   0  0  0  0  0  0  0  0  0  0  0  0
   10.1237   -2.2679   21.5103 H   0  0  0  0  0  0  0  0  0  0  0  0
    8.5034   -0.1484   22.9859 H   0  0  0  0  0  0  0  0  0  0  0  0
    8.5992   -0.9878   20.0936 H   0  0  0  0  0  0  0  0  0  0  0  0
    8.3795    0.6447   20.7723 H   0  0  0  0  0  0  0  0  0  0  0  0
    6.9766   -1.9000   24.1297 C   0  0  0  0  0  0  0  0  0  0  0  0
    6.9225   -0.6762   24.8117 C   0  0  0  0  0  0  0  0  0  0  0  0
    6.4292   -0.6145   26.1053 C   0  0  0  0  0  0  0  0  0  0  0  0
    6.3610    0.9238   26.9215 Cl  0  0  0  0  0  0  0  0  0  0  0  0
    5.9615   -1.7443   26.7748 C   0  0  0  0  0  0  0  0  0  0  0  0
    5.9730   -2.9501   26.1015 C   0  0  0  0  0  0  0  0  0  0  0  0
    6.4536   -3.0273   24.7924 C   0  0  0  0  0  0  0  0  0  0  0  0
    6.2965   -4.3282   24.0778 C   0  0  0  0  0  0  0  0  0  0  0  0
    5.7441   -5.3067   24.5827 O   0  0  0  0  0  0  0  0  0  0  0  0
    5.5825   -3.8510   26.5637 H   0  0  0  0  0  0  0  0  0  0  0  0
    5.5751   -1.6553   27.7865 H   0  0  0  0  0  0  0  0  0  0  0  0
    7.2109    0.2516   24.3316 H   0  0  0  0  0  0  0  0  0  0  0  0
    7.9604   -3.5683   21.3165 H   0  0  0  0  0  0  0  0  0  0  0  0
    8.7660   -3.7315   22.8861 H   0  0  0  0  0  0  0  0  0  0  0  0
    5.2522   -5.5861   22.2057 H   0  0  0  0  0  0  0  0  0  0  0  0
    6.2184   -4.8925   20.8666 H   0  0  0  0  0  0  0  0  0  0  0  0
    6.5954   -6.9381   23.7359 H   0  0  0  0  0  0  0  0  0  0  0  0
    7.9123   -9.0821   22.1947 H   0  0  0  0  0  0  0  0  0  0  0  0
    7.5964   -9.0608   23.9375 H   0  0  0  0  0  0  0  0  0  0  0  0
    8.9792   -8.1517   23.2649 H   0  0  0  0  0  0  0  0  0  0  0  0
  1  2  1  0
  2  3  1  0
  3  4  2  0
  3  5  1  0
  5  6  1  0
  6  7  1  0
  8  7  1  6
  8  9  1  0
  9 10  2  0
  9 11  1  0
 11 12  1  0
 12 13  2  0
 13 14  1  0
 14 15  2  0
 15 16  1  0
 16 17  2  0
 17 18  1  0
 18 19  2  0
 19 20  1  0
 20 21  2  0
 20 22  1  0
 19 23  1  0
 18 24  1  0
 17 25  1  0
 15 26  1  0
 13 27  1  0
 11 28  1  0
 28 29  1  0
 29 30  1  0
 30 31  1  0
 31 32  1  0
 32 33  2  0
 33 34  1  0
 34 35  2  0
 35 36  1  0
 36 37  1  0
 36 38  1  0
 36 39  1  0
 35 40  1  0
 33 41  1  0
 31 42  1  0
 30 43  1  0
 30 44  1  0
 29 45  1  1
 28 46  1  0
 28 47  1  0
  8 48  1  0
 48 49  2  0
 49 50  1  0
 50 51  1  0
 50 52  2  0
 52 53  1  0
 53 54  2  0
 54 55  1  0
 55 56  2  0
 53 57  1  0
 52 58  1  0
 49 59  1  0
  7 60  1  0
  7 61  1  0
  5 62  1  0
  5 63  1  0
  2 64  1  0
  1 65  1  0
  1 66  1  0
  1 67  1  0
 55  6  1  0
 29  8  1  0
 40 32  1  0
 54 48  1  0
 21 12  1  0
 21 16  1  0
M  END
>  <cnnaffinities>  (58) 
[7.55946, 7.06573, 7.33578]

>  <score>  (58) 
7.55946

>  <index>  (58) 
57

>  <Smiles>  (58) 
C(N(C(=O)C(N1C([C@@]2(C(=O)N(c3c(nc(c4c(c(c(c(c34)[H])[H])[H])[H])[H])[H])C([C@@]2(C(N(c2c(nc(C([H])([H])[H])s2)[H])[H])([H])[H])[H])([H])[H])c2c(c(Cl)c(c(c2C1=O)[H])[H])[H])([H])[H])([H])[H])[H])([H])([H])[H]

>  <h>  (58) 
<NA>

>  <Training>  (58) 
True

>  <Success>  (58) 
True

>  <enamine_searched>  (58) 
False

>  <enamine_id>  (58) 
nan

$$$$

     RDKit          3D

 57 62  0  0  0  0  0  0  0  0999 V2000
    7.7843   -3.0139   23.2541 C   0  0  0  0  0  0  0  0  0  0  0  0
    8.0281   -1.9309   22.2203 C   0  0  1  0  0  0  0  0  0  0  0  0
    6.8404   -1.8181   21.2589 C   0  0  0  0  0  0  0  0  0  0  0  0
    6.8396   -0.4284   20.8877 N   0  0  0  0  0  0  0  0  0  0  0  0
    6.0136    0.0378   19.8428 C   0  0  0  0  0  0  0  0  0  0  0  0
    6.4057   -0.1696   18.5465 C   0  0  0  0  0  0  0  0  0  0  0  0
    5.7419    0.2896   17.4638 N   0  0  0  0  0  0  0  0  0  0  0  0
    4.6373    0.9565   17.6820 C   0  0  0  0  0  0  0  0  0  0  0  0
    4.0679    1.1578   18.9687 C   0  0  0  0  0  0  0  0  0  0  0  0
    2.8447    1.8574   19.1324 C   0  0  0  0  0  0  0  0  0  0  0  0
    2.2701    1.9727   20.3678 C   0  0  0  0  0  0  0  0  0  0  0  0
    2.8987    1.4022   21.5005 C   0  0  0  0  0  0  0  0  0  0  0  0
    4.1113    0.7648   21.3723 C   0  0  0  0  0  0  0  0  0  0  0  0
    4.7449    0.6503   20.0982 C   0  0  0  0  0  0  0  0  0  0  0  0
    4.5969    0.3465   22.2475 H   0  0  0  0  0  0  0  0  0  0  0  0
    2.4251    1.4992   22.4738 H   0  0  0  0  0  0  0  0  0  0  0  0
    1.3319    2.5086   20.4849 H   0  0  0  0  0  0  0  0  0  0  0  0
    2.3747    2.2631   18.2423 H   0  0  0  0  0  0  0  0  0  0  0  0
    4.1380    1.3793   16.8116 H   0  0  0  0  0  0  0  0  0  0  0  0
    7.3422   -0.6870   18.3477 H   0  0  0  0  0  0  0  0  0  0  0  0
    7.6345    0.3867   21.6676 C   0  0  0  0  0  0  0  0  0  0  0  0
    7.7503    1.5873   21.5175 O   0  0  0  0  0  0  0  0  0  0  0  0
    8.2587   -0.4789   22.7840 C   0  0  1  0  0  0  0  0  0  0  0  0
    7.4433   -0.1434   24.0608 C   0  0  0  0  0  0  0  0  0  0  0  0
    8.0678   -0.6064   25.2977 N   0  0  0  0  0  0  0  0  0  0  0  0
    7.2048   -0.8816   26.4316 C   0  0  0  0  0  0  0  0  0  0  0  0
    6.7697   -2.3252   26.4451 C   0  0  0  0  0  0  0  0  0  0  0  0
    7.6233   -3.3682   26.8090 C   0  0  0  0  0  0  0  0  0  0  0  0
    7.0348   -4.6097   27.0002 C   0  0  0  0  0  0  0  0  0  0  0  0
    5.7420   -4.8367   26.7511 N   0  0  0  0  0  0  0  0  0  0  0  0
    5.0588   -3.7950   26.2725 C   0  0  0  0  0  0  0  0  0  0  0  0
    5.4988   -2.5581   26.0868 N   0  0  0  0  0  0  0  0  0  0  0  0
    4.0122   -3.9750   26.0218 H   0  0  0  0  0  0  0  0  0  0  0  0
    7.6178   -5.4532   27.3801 H   0  0  0  0  0  0  0  0  0  0  0  0
    8.6950   -3.2238   26.9526 H   0  0  0  0  0  0  0  0  0  0  0  0
    7.7669   -0.6131   27.3339 H   0  0  0  0  0  0  0  0  0  0  0  0
    6.3096   -0.2540   26.3610 H   0  0  0  0  0  0  0  0  0  0  0  0
    9.4020   -0.4591   25.5453 C   0  0  0  0  0  0  0  0  0  0  0  0
    9.8841   -0.4972   26.6743 O   0  0  0  0  0  0  0  0  0  0  0  0
   10.2591   -0.2444   24.3572 C   0  0  0  0  0  0  0  0  0  0  0  0
   11.6218   -0.1120   24.6097 C   0  0  0  0  0  0  0  0  0  0  0  0
   12.4976    0.1695   23.5877 C   0  0  0  0  0  0  0  0  0  0  0  0
   11.9702    0.2910   22.3088 C   0  0  0  0  0  0  0  0  0  0  0  0
   12.8262    0.6082   21.3259 F   0  0  0  0  0  0  0  0  0  0  0  0
   10.6275    0.0947   22.0251 C   0  0  0  0  0  0  0  0  0  0  0  0
    9.7277   -0.1775   23.0637 C   0  0  0  0  0  0  0  0  0  0  0  0
   10.2867    0.1523   21.0003 H   0  0  0  0  0  0  0  0  0  0  0  0
   13.5588    0.2971   23.7635 H   0  0  0  0  0  0  0  0  0  0  0  0
   11.9512   -0.2344   25.6359 H   0  0  0  0  0  0  0  0  0  0  0  0
    6.4430   -0.5967   24.0004 H   0  0  0  0  0  0  0  0  0  0  0  0
    7.3129    0.9495   24.0981 H   0  0  0  0  0  0  0  0  0  0  0  0
    5.8956   -2.1089   21.7507 H   0  0  0  0  0  0  0  0  0  0  0  0
    6.9343   -2.4435   20.3661 H   0  0  0  0  0  0  0  0  0  0  0  0
    8.9249   -2.1717   21.6308 H   0  0  0  0  0  0  0  0  0  0  0  0
    6.8286   -2.8267   23.7545 H   0  0  0  0  0  0  0  0  0  0  0  0
    8.5742   -3.0233   24.0100 H   0  0  0  0  0  0  0  0  0  0  0  0
    7.7279   -3.9945   22.7710 H   0  0  0  0  0  0  0  0  0  0  0  0
  1  2  1  0
  2  3  1  0
  3  4  1  0
  4  5  1  0
  5  6  2  0
  6  7  1  0
  7  8  2  0
  8  9  1  0
  9 10  2  0
 10 11  1  0
 11 12  2  0
 12 13  1  0
 13 14  2  0
 13 15  1  0
 12 16  1  0
 11 17  1  0
 10 18  1  0
  8 19  1  0
  6 20  1  0
  4 21  1  0
 21 22  2  0
 21 23  1  0
 23 24  1  1
 24 25  1  0
 25 26  1  0
 26 27  1  0
 27 28  2  0
 28 29  1  0
 29 30  2  0
 30 31  1  0
 31 32  2  0
 31 33  1  0
 29 34  1  0
 28 35  1  0
 26 36  1  0
 26 37  1  0
 25 38  1  0
 38 39  2  0
 38 40  1  0
 40 41  2  0
 41 42  1  0
 42 43  2  0
 43 44  1  0
 43 45  1  0
 45 46  2  0
 45 47  1  0
 42 48  1  0
 41 49  1  0
 24 50  1  0
 24 51  1  0
  3 52  1  0
  3 53  1  0
  2 54  1  6
  1 55  1  0
  1 56  1  0
  1 57  1  0
 23  2  1  0
 32 27  1  0
 46 40  1  0
 14  5  1  0
 46 23  1  0
 14  9  1  0
M  END
>  <cnnaffinities>  (59) 
[6.59326, 6.63757]

>  <score>  (59) 
6.59326

>  <index>  (59) 
58

>  <Smiles>  (59) 
C([C@]1(C(N(c2c(nc(c3c(c(c(c(c23)[H])[H])[H])[H])[H])[H])C(=O)[C@]21C(N(C(c1c(c(nc(n1)[H])[H])[H])([H])[H])C(=O)c1c(c(c(F)c(c21)[H])[H])[H])([H])[H])([H])[H])[H])([H])([H])[H]

>  <h>  (59) 
<NA>

>  <Training>  (59) 
True

>  <Success>  (59) 
True

>  <enamine_searched>  (59) 
False

>  <enamine_id>  (59) 
nan

$$$$

     RDKit          3D

 60 65  0  0  0  0  0  0  0  0999 V2000
    7.5112   -5.2885   23.5622 C   0  0  0  0  0  0  0  0  0  0  0  0
    7.7668   -4.2325   22.6756 O   0  0  0  0  0  0  0  0  0  0  0  0
    7.7920   -2.9831   23.3254 C   0  0  0  0  0  0  0  0  0  0  0  0
    8.0296   -1.9289   22.2584 C   0  0  1  0  0  0  0  0  0  0  0  0
    6.8444   -1.8377   21.2867 C   0  0  0  0  0  0  0  0  0  0  0  0
    6.8542   -0.4494   20.8892 N   0  0  0  0  0  0  0  0  0  0  0  0
    6.0337    0.0356   19.8427 C   0  0  0  0  0  0  0  0  0  0  0  0
    6.4143   -0.1819   18.5451 C   0  0  0  0  0  0  0  0  0  0  0  0
    5.7414    0.2725   17.4657 N   0  0  0  0  0  0  0  0  0  0  0  0
    4.6596    0.9756   17.6808 C   0  0  0  0  0  0  0  0  0  0  0  0
    4.1001    1.1945   18.9673 C   0  0  0  0  0  0  0  0  0  0  0  0
    2.8726    1.8873   19.1287 C   0  0  0  0  0  0  0  0  0  0  0  0
    2.3046    2.0182   20.3651 C   0  0  0  0  0  0  0  0  0  0  0  0
    2.9364    1.4530   21.4984 C   0  0  0  0  0  0  0  0  0  0  0  0
    4.1429    0.8028   21.3677 C   0  0  0  0  0  0  0  0  0  0  0  0
    4.7739    0.6751   20.0945 C   0  0  0  0  0  0  0  0  0  0  0  0
    4.6478    0.4068   22.2438 H   0  0  0  0  0  0  0  0  0  0  0  0
    2.4942    1.5997   22.4816 H   0  0  0  0  0  0  0  0  0  0  0  0
    1.3904    2.5944   20.4796 H   0  0  0  0  0  0  0  0  0  0  0  0
    2.4101    2.2963   18.2349 H   0  0  0  0  0  0  0  0  0  0  0  0
    4.1552    1.3699   16.8016 H   0  0  0  0  0  0  0  0  0  0  0  0
    7.3449   -0.7057   18.3368 H   0  0  0  0  0  0  0  0  0  0  0  0
    7.6678    0.3746   21.6442 C   0  0  0  0  0  0  0  0  0  0  0  0
    7.7799    1.5686   21.4701 O   0  0  0  0  0  0  0  0  0  0  0  0
    8.2895   -0.4718   22.7746 C   0  0  1  0  0  0  0  0  0  0  0  0
    7.4580   -0.1053   24.0409 C   0  0  0  0  0  0  0  0  0  0  0  0
    8.0432   -0.5830   25.2850 N   0  0  0  0  0  0  0  0  0  0  0  0
    7.1845   -0.8698   26.4177 C   0  0  0  0  0  0  0  0  0  0  0  0
    6.8796   -2.3309   26.5345 C   0  0  0  0  0  0  0  0  0  0  0  0
    5.7187   -2.8970   26.2905 N   0  0  0  0  0  0  0  0  0  0  0  0
    5.8766   -4.2159   26.6478 C   0  0  0  0  0  0  0  0  0  0  0  0
    7.1561   -4.4543   27.0762 C   0  0  0  0  0  0  0  0  0  0  0  0
    7.8019   -3.2387   26.9686 N   0  0  0  0  0  0  0  0  0  0  0  0
    8.7361   -3.0225   27.2905 H   0  0  0  0  0  0  0  0  0  0  0  0
    7.6335   -5.3571   27.4289 H   0  0  0  0  0  0  0  0  0  0  0  0
    5.0474   -4.9122   26.5896 H   0  0  0  0  0  0  0  0  0  0  0  0
    7.7102   -0.5370   27.3181 H   0  0  0  0  0  0  0  0  0  0  0  0
    6.2489   -0.3181   26.3140 H   0  0  0  0  0  0  0  0  0  0  0  0
    9.3831   -0.5244   25.5260 C   0  0  0  0  0  0  0  0  0  0  0  0
    9.8652   -0.6914   26.6380 O   0  0  0  0  0  0  0  0  0  0  0  0
   10.2585   -0.2538   24.3630 C   0  0  0  0  0  0  0  0  0  0  0  0
   11.6108   -0.0972   24.6576 C   0  0  0  0  0  0  0  0  0  0  0  0
   12.5188    0.1858   23.6678 C   0  0  0  0  0  0  0  0  0  0  0  0
   12.0417    0.2853   22.3660 C   0  0  0  0  0  0  0  0  0  0  0  0
   13.2393    0.6386   21.1560 Cl  0  0  0  0  0  0  0  0  0  0  0  0
   10.7005    0.0947   22.0506 C   0  0  0  0  0  0  0  0  0  0  0  0
    9.7626   -0.1824   23.0592 C   0  0  0  0  0  0  0  0  0  0  0  0
   10.3812    0.1622   21.0204 H   0  0  0  0  0  0  0  0  0  0  0  0
   13.5746    0.3287   23.8773 H   0  0  0  0  0  0  0  0  0  0  0  0
   11.9203   -0.2050   25.6877 H   0  0  0  0  0  0  0  0  0  0  0  0
    6.4458   -0.5254   23.9469 H   0  0  0  0  0  0  0  0  0  0  0  0
    7.3538    0.9879   24.0723 H   0  0  0  0  0  0  0  0  0  0  0  0
    6.9619   -2.4814   20.4133 H   0  0  0  0  0  0  0  0  0  0  0  0
    5.8908   -2.1300   21.7583 H   0  0  0  0  0  0  0  0  0  0  0  0
    8.9163   -2.2414   21.6937 H   0  0  0  0  0  0  0  0  0  0  0  0
    6.8447   -2.8038   23.8557 H   0  0  0  0  0  0  0  0  0  0  0  0
    8.5966   -2.9503   24.0702 H   0  0  0  0  0  0  0  0  0  0  0  0
    8.2258   -5.2939   24.3974 H   0  0  0  0  0  0  0  0  0  0  0  0
    6.4998   -5.2216   23.9851 H   0  0  0  0  0  0  0  0  0  0  0  0
    7.6068   -6.2209   22.9985 H   0  0  0  0  0  0  0  0  0  0  0  0
  1  2  1  0
  2  3  1  0
  3  4  1  0
  4  5  1  0
  5  6  1  0
  6  7  1  0
  7  8  2  0
  8  9  1  0
  9 10  2  0
 10 11  1  0
 11 12  2  0
 12 13  1  0
 13 14  2  0
 14 15  1  0
 15 16  2  0
 15 17  1  0
 14 18  1  0
 13 19  1  0
 12 20  1  0
 10 21  1  0
  8 22  1  0
  6 23  1  0
 23 24  2  0
 23 25  1  0
 25 26  1  1
 26 27  1  0
 27 28  1  0
 28 29  1  0
 29 30  2  0
 30 31  1  0
 31 32  2  0
 32 33  1  0
 33 34  1  0
 32 35  1  0
 31 36  1  0
 28 37  1  0
 28 38  1  0
 27 39  1  0
 39 40  2  0
 39 41  1  0
 41 42  2  0
 42 43  1  0
 43 44  2  0
 44 45  1  0
 44 46  1  0
 46 47  2  0
 46 48  1  0
 43 49  1  0
 42 50  1  0
 26 51  1  0
 26 52  1  0
  5 53  1  0
  5 54  1  0
  4 55  1  6
  3 56  1  0
  3 57  1  0
  1 58  1  0
  1 59  1  0
  1 60  1  0
 25  4  1  0
 33 29  1  0
 47 41  1  0
 16  7  1  0
 47 25  1  0
 16 11  1  0
M  END
>  <cnnaffinities>  (60) 
[6.66796, 6.62045, 6.64829, 6.75595, 6.78268, 6.63469]

>  <score>  (60) 
6.66796

>  <index>  (60) 
59

>  <Smiles>  (60) 
C(OC([C@]1(C(N(c2c(nc(c3c(c(c(c(c23)[H])[H])[H])[H])[H])[H])C(=O)[C@]21C(N(C(c1nc(c(n1[H])[H])[H])([H])[H])C(=O)c1c(c(c(Cl)c(c21)[H])[H])[H])([H])[H])([H])[H])[H])([H])[H])([H])([H])[H]

>  <h>  (60) 
<NA>

>  <Training>  (60) 
True

>  <Success>  (60) 
True

>  <enamine_searched>  (60) 
False

>  <enamine_id>  (60) 
nan

$$$$

     RDKit          3D

 38 41  0  0  0  0  0  0  0  0999 V2000
    5.1288   -2.2405   21.1807 O   0  0  0  0  0  0  0  0  0  0  0  0
    6.2170   -1.8151   21.5400 C   0  0  0  0  0  0  0  0  0  0  0  0
    6.8292   -0.5622   20.9264 C   0  0  0  0  0  0  0  0  0  0  0  0
    5.9762   -0.0403   19.8218 C   0  0  0  0  0  0  0  0  0  0  0  0
    6.3910   -0.1951   18.5274 C   0  0  0  0  0  0  0  0  0  0  0  0
    5.7367    0.2838   17.4447 N   0  0  0  0  0  0  0  0  0  0  0  0
    4.6410    0.9643   17.6766 C   0  0  0  0  0  0  0  0  0  0  0  0
    4.0630    1.1433   18.9583 C   0  0  0  0  0  0  0  0  0  0  0  0
    2.8542    1.8660   19.1314 C   0  0  0  0  0  0  0  0  0  0  0  0
    2.2996    2.0089   20.3710 C   0  0  0  0  0  0  0  0  0  0  0  0
    2.9311    1.4284   21.5007 C   0  0  0  0  0  0  0  0  0  0  0  0
    4.1322    0.7594   21.3615 C   0  0  0  0  0  0  0  0  0  0  0  0
    4.7313    0.6049   20.0773 C   0  0  0  0  0  0  0  0  0  0  0  0
    4.6104    0.3365   22.2407 H   0  0  0  0  0  0  0  0  0  0  0  0
    2.4797    1.5473   22.4804 H   0  0  0  0  0  0  0  0  0  0  0  0
    1.3702    2.5633   20.4953 H   0  0  0  0  0  0  0  0  0  0  0  0
    2.3904    2.2890   18.2448 H   0  0  0  0  0  0  0  0  0  0  0  0
    4.1451    1.3954   16.8114 H   0  0  0  0  0  0  0  0  0  0  0  0
    7.3355   -0.7014   18.3290 H   0  0  0  0  0  0  0  0  0  0  0  0
    7.8281   -0.8151   20.5429 H   0  0  0  0  0  0  0  0  0  0  0  0
    6.9513    0.2129   21.6949 H   0  0  0  0  0  0  0  0  0  0  0  0
    6.9305   -2.4465   22.5262 N   0  0  0  0  0  0  0  0  0  0  0  0
    8.0821   -1.9010   23.2500 C   0  0  0  0  0  0  0  0  0  0  0  0
    9.1221   -2.9996   23.4663 C   0  0  0  0  0  0  0  0  0  0  0  0
    8.4374   -4.2019   24.0437 C   0  0  0  0  0  0  0  0  0  0  0  0
    9.2246   -5.4442   24.9467 S   0  0  0  0  0  0  0  0  0  0  0  0
    7.7732   -6.3672   25.0275 C   0  0  0  0  0  0  0  0  0  0  0  0
    6.7308   -5.7322   24.4321 C   0  0  0  0  0  0  0  0  0  0  0  0
    7.1181   -4.4819   23.8682 C   0  0  0  0  0  0  0  0  0  0  0  0
    6.2074   -3.5442   23.1515 C   0  0  0  0  0  0  0  0  0  0  0  0
    5.4349   -3.1446   23.8262 H   0  0  0  0  0  0  0  0  0  0  0  0
    5.6530   -4.0669   22.3679 H   0  0  0  0  0  0  0  0  0  0  0  0
    5.7246   -6.1357   24.3900 H   0  0  0  0  0  0  0  0  0  0  0  0
    7.7849   -7.3415   25.4884 H   0  0  0  0  0  0  0  0  0  0  0  0
    9.9306   -2.6527   24.1170 H   0  0  0  0  0  0  0  0  0  0  0  0
    9.5778   -3.2636   22.5013 H   0  0  0  0  0  0  0  0  0  0  0  0
    8.5332   -1.0711   22.6982 H   0  0  0  0  0  0  0  0  0  0  0  0
    7.7626   -1.5057   24.2271 H   0  0  0  0  0  0  0  0  0  0  0  0
  1  2  2  0
  2  3  1  0
  3  4  1  0
  4  5  2  0
  5  6  1  0
  6  7  2  0
  7  8  1  0
  8  9  2  0
  9 10  1  0
 10 11  2  0
 11 12  1  0
 12 13  2  0
 12 14  1  0
 11 15  1  0
 10 16  1  0
  9 17  1  0
  7 18  1  0
  5 19  1  0
  3 20  1  0
  3 21  1  0
  2 22  1  0
 22 23  1  0
 23 24  1  0
 24 25  1  0
 25 26  1  0
 26 27  1  0
 27 28  2  0
 28 29  1  0
 29 30  1  0
 30 31  1  0
 30 32  1  0
 28 33  1  0
 27 34  1  0
 24 35  1  0
 24 36  1  0
 23 37  1  0
 23 38  1  0
 13  4  1  0
 30 22  1  0
 13  8  1  0
 29 25  2  0
M  END
>  <cnnaffinities>  (61) 
[5.45086, 5.49816, 5.60682, 5.67404, 5.44718, 5.46434, 5.36811]

>  <score>  (61) 
5.45086

>  <index>  (61) 
60

>  <Smiles>  (61) 
O=C(C(c1c(nc(c2c(c(c(c(c12)[H])[H])[H])[H])[H])[H])([H])[H])N1C(C(c2sc(c(c2C1([H])[H])[H])[H])([H])[H])([H])[H]

>  <h>  (61) 
<NA>

>  <Training>  (61) 
True

>  <Success>  (61) 
True

>  <enamine_searched>  (61) 
False

>  <enamine_id>  (61) 
nan

$$$$

     RDKit          3D

 64 70  0  0  0  0  0  0  0  0999 V2000
   11.4313   -3.6880   24.2026 O   0  0  0  0  0  0  0  0  0  0  0  0
   10.5055   -3.3374   23.4802 C   0  0  0  0  0  0  0  0  0  0  0  0
    9.0802   -3.5535   23.8753 C   0  0  0  0  0  0  0  0  0  0  0  0
    8.8238   -4.5128   24.8513 C   0  0  0  0  0  0  0  0  0  0  0  0
    7.5329   -4.7415   25.2896 C   0  0  0  0  0  0  0  0  0  0  0  0
    6.5055   -3.9542   24.7742 C   0  0  0  0  0  0  0  0  0  0  0  0
    4.8948   -4.1766   25.3917 Cl  0  0  0  0  0  0  0  0  0  0  0  0
    6.7432   -3.0076   23.7928 C   0  0  0  0  0  0  0  0  0  0  0  0
    8.0393   -2.8166   23.2991 C   0  0  0  0  0  0  0  0  0  0  0  0
    8.3147   -1.8285   22.1823 C   0  0  1  0  0  0  0  0  0  0  0  0
    9.5765   -2.3407   21.4236 C   0  0  0  0  0  0  0  0  0  0  0  0
   10.7041   -2.7006   22.2860 N   0  0  0  0  0  0  0  0  0  0  0  0
   12.0779   -2.6254   21.7783 C   0  0  0  0  0  0  0  0  0  0  0  0
   12.7972   -1.3198   22.0168 C   0  0  0  0  0  0  0  0  0  0  0  0
   13.1498   -0.8994   23.2732 C   0  0  0  0  0  0  0  0  0  0  0  0
   13.8579    0.2905   23.3666 C   0  0  0  0  0  0  0  0  0  0  0  0
   14.2092    1.0504   22.3333 N   0  0  0  0  0  0  0  0  0  0  0  0
   13.8914    0.6369   21.1156 N   0  0  0  0  0  0  0  0  0  0  0  0
   13.2450   -0.5147   20.9693 C   0  0  0  0  0  0  0  0  0  0  0  0
   13.1016   -0.8420   19.9368 H   0  0  0  0  0  0  0  0  0  0  0  0
   14.1496    0.6369   24.3452 H   0  0  0  0  0  0  0  0  0  0  0  0
   12.9102   -1.4849   24.1621 H   0  0  0  0  0  0  0  0  0  0  0  0
   12.1254   -2.8396   20.7063 H   0  0  0  0  0  0  0  0  0  0  0  0
   12.6480   -3.3947   22.3024 H   0  0  0  0  0  0  0  0  0  0  0  0
    9.9263   -1.5691   20.7337 H   0  0  0  0  0  0  0  0  0  0  0  0
    9.2635   -3.2222   20.8545 H   0  0  0  0  0  0  0  0  0  0  0  0
    7.1324   -1.7430   21.1880 C   0  0  0  0  0  0  0  0  0  0  0  0
    6.5170   -2.6723   20.7093 O   0  0  0  0  0  0  0  0  0  0  0  0
    6.8491   -0.4145   20.9372 N   0  0  0  0  0  0  0  0  0  0  0  0
    5.9931   -0.0379   19.8648 C   0  0  0  0  0  0  0  0  0  0  0  0
    6.4247   -0.1688   18.5696 C   0  0  0  0  0  0  0  0  0  0  0  0
    5.7714    0.3414   17.4968 N   0  0  0  0  0  0  0  0  0  0  0  0
    4.6193    0.9281   17.7038 C   0  0  0  0  0  0  0  0  0  0  0  0
    4.0086    1.0551   18.9831 C   0  0  0  0  0  0  0  0  0  0  0  0
    2.7415    1.6769   19.1506 C   0  0  0  0  0  0  0  0  0  0  0  0
    2.1558    1.7202   20.3869 C   0  0  0  0  0  0  0  0  0  0  0  0
    2.8131    1.1572   21.5049 C   0  0  0  0  0  0  0  0  0  0  0  0
    4.0438    0.5584   21.3674 C   0  0  0  0  0  0  0  0  0  0  0  0
    4.6916    0.5234   20.1029 C   0  0  0  0  0  0  0  0  0  0  0  0
    4.5414    0.1185   22.2250 H   0  0  0  0  0  0  0  0  0  0  0  0
    2.3322    1.1876   22.4799 H   0  0  0  0  0  0  0  0  0  0  0  0
    1.1932    2.2087   20.5258 H   0  0  0  0  0  0  0  0  0  0  0  0
    2.2554    2.1131   18.2810 H   0  0  0  0  0  0  0  0  0  0  0  0
    4.0986    1.3286   16.8323 H   0  0  0  0  0  0  0  0  0  0  0  0
    7.3442   -0.7099   18.3504 H   0  0  0  0  0  0  0  0  0  0  0  0
    7.8097    0.4989   21.5387 C   0  0  0  0  0  0  0  0  0  0  0  0
    8.4012   -0.3474   22.6777 C   0  0  2  0  0  0  0  0  0  0  0  0
    9.7941    0.0851   23.1448 C   0  0  0  0  0  0  0  0  0  0  0  0
    9.7982    1.3510   23.8522 N   0  0  0  0  0  0  0  0  0  0  0  0
   10.2012    2.4712   23.2136 C   0  0  0  0  0  0  0  0  0  0  0  0
   10.4710    2.4878   21.9318 N   0  0  0  0  0  0  0  0  0  0  0  0
   10.8753    3.7116   21.4871 N   0  0  0  0  0  0  0  0  0  0  0  0
   10.8962    4.6034   22.4171 C   0  0  0  0  0  0  0  0  0  0  0  0
   10.4298    4.0201   23.9898 S   0  0  0  0  0  0  0  0  0  0  0  0
   11.1707    5.6367   22.2414 H   0  0  0  0  0  0  0  0  0  0  0  0
    9.5452    1.3640   24.8259 H   0  0  0  0  0  0  0  0  0  0  0  0
   10.4421    0.1974   22.2778 H   0  0  0  0  0  0  0  0  0  0  0  0
   10.2127   -0.6934   23.7904 H   0  0  0  0  0  0  0  0  0  0  0  0
    7.7176   -0.2726   23.5353 H   0  0  0  0  0  0  0  0  0  0  0  0
    8.5684    0.8190   20.8073 H   0  0  0  0  0  0  0  0  0  0  0  0
    7.3098    1.4024   21.8991 H   0  0  0  0  0  0  0  0  0  0  0  0
    5.9052   -2.4535   23.3887 H   0  0  0  0  0  0  0  0  0  0  0  0
    7.3229   -5.5101   26.0252 H   0  0  0  0  0  0  0  0  0  0  0  0
    9.6707   -5.0684   25.2421 H   0  0  0  0  0  0  0  0  0  0  0  0
  1  2  2  0
  2  3  1  0
  3  4  2  0
  4  5  1  0
  5  6  2  0
  6  7  1  0
  6  8  1  0
  8  9  2  0
  9 10  1  0
 10 11  1  6
 11 12  1  0
 12 13  1  0
 13 14  1  0
 14 15  2  0
 15 16  1  0
 16 17  2  0
 17 18  1  0
 18 19  2  0
 19 20  1  0
 16 21  1  0
 15 22  1  0
 13 23  1  0
 13 24  1  0
 11 25  1  0
 11 26  1  0
 10 27  1  0
 27 28  2  0
 27 29  1  0
 29 30  1  0
 30 31  2  0
 31 32  1  0
 32 33  2  0
 33 34  1  0
 34 35  2  0
 35 36  1  0
 36 37  2  0
 37 38  1  0
 38 39  2  0
 38 40  1  0
 37 41  1  0
 36 42  1  0
 35 43  1  0
 33 44  1  0
 31 45  1  0
 29 46  1  0
 46 47  1  0
 47 48  1  0
 48 49  1  0
 49 50  1  0
 50 51  2  0
 51 52  1  0
 52 53  2  0
 53 54  1  0
 53 55  1  0
 49 56  1  0
 48 57  1  0
 48 58  1  0
 47 59  1  1
 46 60  1  0
 46 61  1  0
  8 62  1  0
  5 63  1  0
  4 64  1  0
 12  2  1  0
 19 14  1  0
 39 30  1  0
 54 50  1  0
  9  3  1  0
 47 10  1  0
 39 34  1  0
M  END
>  <cnnaffinities>  (62) 
[7.39941]

>  <score>  (62) 
7.39941

>  <index>  (62) 
61

>  <Smiles>  (62) 
O=C1c2c(c(c(Cl)c(c2[C@@]2(C(N1C(c1c(c(nnc1[H])[H])[H])([H])[H])([H])[H])C(=O)N(c1c(nc(c3c(c(c(c(c13)[H])[H])[H])[H])[H])[H])C([C@@]2(C(N(c1nnc(s1)[H])[H])([H])[H])[H])([H])[H])[H])[H])[H]

>  <h>  (62) 
<NA>

>  <Training>  (62) 
True

>  <Success>  (62) 
True

>  <enamine_searched>  (62) 
False

>  <enamine_id>  (62) 
nan

$$$$

     RDKit          3D

 70 76  0  0  0  0  0  0  0  0999 V2000
    7.3939   -2.9757   23.5328 C   0  0  0  0  0  0  0  0  0  0  0  0
    7.6826   -2.1861   22.2666 C   0  0  1  0  0  0  0  0  0  0  0  0
    6.3737   -1.7592   21.5884 C   0  0  0  0  0  0  0  0  0  0  0  0
    6.7490   -0.5619   20.8700 N   0  0  0  0  0  0  0  0  0  0  0  0
    5.9855   -0.0231   19.8160 C   0  0  0  0  0  0  0  0  0  0  0  0
    6.4217   -0.1354   18.5195 C   0  0  0  0  0  0  0  0  0  0  0  0
    5.7494    0.3443   17.4494 N   0  0  0  0  0  0  0  0  0  0  0  0
    4.6179    0.9648   17.6771 C   0  0  0  0  0  0  0  0  0  0  0  0
    4.0506    1.1423   18.9696 C   0  0  0  0  0  0  0  0  0  0  0  0
    2.8230    1.8271   19.1532 C   0  0  0  0  0  0  0  0  0  0  0  0
    2.2623    1.9329   20.3979 C   0  0  0  0  0  0  0  0  0  0  0  0
    2.9158    1.3658   21.5185 C   0  0  0  0  0  0  0  0  0  0  0  0
    4.1187    0.7191   21.3698 C   0  0  0  0  0  0  0  0  0  0  0  0
    4.7295    0.6075   20.0854 C   0  0  0  0  0  0  0  0  0  0  0  0
    4.6093    0.2845   22.2358 H   0  0  0  0  0  0  0  0  0  0  0  0
    2.4539    1.4356   22.4992 H   0  0  0  0  0  0  0  0  0  0  0  0
    1.3259    2.4651   20.5353 H   0  0  0  0  0  0  0  0  0  0  0  0
    2.3213    2.2120   18.2716 H   0  0  0  0  0  0  0  0  0  0  0  0
    4.1083    1.3950   16.8176 H   0  0  0  0  0  0  0  0  0  0  0  0
    7.3798   -0.6024   18.3006 H   0  0  0  0  0  0  0  0  0  0  0  0
    7.9944   -0.0762   21.1956 C   0  0  0  0  0  0  0  0  0  0  0  0
    8.5537    0.8381   20.6170 O   0  0  0  0  0  0  0  0  0  0  0  0
    8.5170   -0.8752   22.4143 C   0  0  1  0  0  0  0  0  0  0  0  0
    8.1696   -0.1503   23.7449 C   0  0  0  0  0  0  0  0  0  0  0  0
    8.9736    1.0363   23.9645 N   0  0  0  0  0  0  0  0  0  0  0  0
    8.3400    2.2939   24.3068 C   0  0  0  0  0  0  0  0  0  0  0  0
    7.8333    2.9841   23.0489 C   0  0  0  0  0  0  0  0  0  0  0  0
    7.1120    4.2393   23.3629 N   0  0  2  0  0  4  0  0  0  0  0  0
    6.4250    4.8123   22.1658 C   0  0  0  0  0  0  0  0  0  0  0  0
    6.2175    6.2788   22.4968 C   0  0  0  0  0  0  0  0  0  0  0  0
    7.4516    6.6765   23.3175 C   0  0  0  0  0  0  0  0  0  0  0  0
    8.5080    7.5439   22.6062 C   0  0  0  0  0  0  0  0  0  0  0  0
    8.3234    8.6349   23.5158 O   0  0  0  0  0  0  0  0  0  0  0  0
    7.3229    7.9035   24.2354 C   0  0  0  0  0  0  0  0  0  0  0  0
    7.6117    7.7427   25.2814 H   0  0  0  0  0  0  0  0  0  0  0  0
    6.3474    8.4056   24.1930 H   0  0  0  0  0  0  0  0  0  0  0  0
    9.5347    7.1575   22.6344 H   0  0  0  0  0  0  0  0  0  0  0  0
    8.2389    7.8146   21.5797 H   0  0  0  0  0  0  0  0  0  0  0  0
    7.9702    5.3633   23.9237 C   0  0  0  0  0  0  0  0  0  0  0  0
    9.0051    5.1606   23.6319 H   0  0  0  0  0  0  0  0  0  0  0  0
    7.9125    5.3371   25.0148 H   0  0  0  0  0  0  0  0  0  0  0  0
    5.3050    6.3904   23.0963 H   0  0  0  0  0  0  0  0  0  0  0  0
    6.1032    6.8729   21.5847 H   0  0  0  0  0  0  0  0  0  0  0  0
    7.1148    4.6925   21.3278 H   0  0  0  0  0  0  0  0  0  0  0  0
    5.5015    4.2663   21.9555 H   0  0  0  0  0  0  0  0  0  0  0  0
    6.3772    3.9952   24.0580 H   0  0  0  0  0  0  0  0  0  0  0  0
    8.6708    3.2051   22.3740 H   0  0  0  0  0  0  0  0  0  0  0  0
    7.1584    2.3163   22.4990 H   0  0  0  0  0  0  0  0  0  0  0  0
    7.5019    2.1185   24.9956 H   0  0  0  0  0  0  0  0  0  0  0  0
    9.0842    2.9031   24.8255 H   0  0  0  0  0  0  0  0  0  0  0  0
   10.3328    1.0044   23.8309 C   0  0  0  0  0  0  0  0  0  0  0  0
   11.0674    1.8659   24.2989 O   0  0  0  0  0  0  0  0  0  0  0  0
   10.8752   -0.1484   23.0406 C   0  0  0  0  0  0  0  0  0  0  0  0
   12.2619   -0.2754   22.9540 C   0  0  0  0  0  0  0  0  0  0  0  0
   12.8289   -1.1603   22.0587 C   0  0  0  0  0  0  0  0  0  0  0  0
   11.9809   -1.9589   21.2917 C   0  0  0  0  0  0  0  0  0  0  0  0
   12.6565   -2.9919   20.0653 Cl  0  0  0  0  0  0  0  0  0  0  0  0
   10.6087   -1.9334   21.4616 C   0  0  0  0  0  0  0  0  0  0  0  0
   10.0233   -1.0157   22.3405 C   0  0  0  0  0  0  0  0  0  0  0  0
   10.0098   -2.6371   20.8952 H   0  0  0  0  0  0  0  0  0  0  0  0
   13.9035   -1.2269   21.9271 H   0  0  0  0  0  0  0  0  0  0  0  0
   12.8780    0.3492   23.5916 H   0  0  0  0  0  0  0  0  0  0  0  0
    8.3458   -0.8547   24.5696 H   0  0  0  0  0  0  0  0  0  0  0  0
    7.1089    0.1247   23.7635 H   0  0  0  0  0  0  0  0  0  0  0  0
    5.5910   -1.5709   22.3378 H   0  0  0  0  0  0  0  0  0  0  0  0
    5.9846   -2.5254   20.9073 H   0  0  0  0  0  0  0  0  0  0  0  0
    8.2050   -2.8296   21.5536 H   0  0  0  0  0  0  0  0  0  0  0  0
    6.7688   -2.3839   24.2133 H   0  0  0  0  0  0  0  0  0  0  0  0
    8.3088   -3.2562   24.0624 H   0  0  0  0  0  0  0  0  0  0  0  0
    6.8369   -3.8853   23.2835 H   0  0  0  0  0  0  0  0  0  0  0  0
  1  2  1  0
  2  3  1  0
  3  4  1  0
  4  5  1  0
  5  6  2  0
  6  7  1  0
  7  8  2  0
  8  9  1  0
  9 10  2  0
 10 11  1  0
 11 12  2  0
 12 13  1  0
 13 14  2  0
 13 15  1  0
 12 16  1  0
 11 17  1  0
 10 18  1  0
  8 19  1  0
  6 20  1  0
  4 21  1  0
 21 22  2  0
 21 23  1  0
 23 24  1  1
 24 25  1  0
 25 26  1  0
 26 27  1  0
 27 28  1  0
 28 29  1  0
 29 30  1  0
 30 31  1  0
 31 32  1  0
 32 33  1  0
 33 34  1  0
 34 35  1  0
 34 36  1  0
 32 37  1  0
 32 38  1  0
 31 39  1  0
 39 40  1  0
 39 41  1  0
 30 42  1  0
 30 43  1  0
 29 44  1  0
 29 45  1  0
 28 46  1  1
 27 47  1  0
 27 48  1  0
 26 49  1  0
 26 50  1  0
 25 51  1  0
 51 52  2  0
 51 53  1  0
 53 54  2  0
 54 55  1  0
 55 56  2  0
 56 57  1  0
 56 58  1  0
 58 59  2  0
 58 60  1  0
 55 61  1  0
 54 62  1  0
 24 63  1  0
 24 64  1  0
  3 65  1  0
  3 66  1  0
  2 67  1  6
  1 68  1  0
  1 69  1  0
  1 70  1  0
 23  2  1  0
 39 28  1  0
 59 53  1  0
 14  5  1  0
 59 23  1  0
 14  9  1  0
 34 31  1  0
M  CHG  1  28   1
M  END
>  <cnnaffinities>  (63) 
[6.64701]

>  <score>  (63) 
6.64701

>  <index>  (63) 
62

>  <Smiles>  (63) 
C([C@]1(C(N(c2c(nc(c3c(c(c(c(c23)[H])[H])[H])[H])[H])[H])C(=O)[C@]21C(N(C(C([N@@+]1(C(C(C3(C(OC3([H])[H])([H])[H])C1([H])[H])([H])[H])([H])[H])[H])([H])[H])([H])[H])C(=O)c1c(c(c(Cl)c(c21)[H])[H])[H])([H])[H])([H])[H])[H])([H])([H])[H]

>  <h>  (63) 
<NA>

>  <Training>  (63) 
True

>  <Success>  (63) 
True

>  <enamine_searched>  (63) 
False

>  <enamine_id>  (63) 
nan

$$$$

     RDKit          3D

 56 61  0  0  0  0  0  0  0  0999 V2000
   12.6176    2.2099   22.4183 C   0  0  0  0  0  0  0  0  0  0  0  0
   12.6439    0.8088   22.7826 N   0  0  0  0  0  0  0  0  0  0  0  0
   13.0313    0.2623   23.9535 C   0  0  0  0  0  0  0  0  0  0  0  0
   12.8676   -1.0943   23.8506 C   0  0  0  0  0  0  0  0  0  0  0  0
   12.3592   -1.2791   22.5479 C   0  0  0  0  0  0  0  0  0  0  0  0
   11.9102   -2.5612   21.9269 C   0  0  0  0  0  0  0  0  0  0  0  0
   10.5281   -2.8779   22.2769 N   0  0  0  0  0  0  0  0  0  0  0  0
    9.4260   -2.5869   21.3810 C   0  0  0  0  0  0  0  0  0  0  0  0
    8.2299   -1.9447   22.1238 C   0  0  1  0  0  0  0  0  0  0  0  0
    8.5001   -0.4687   22.5354 C   0  0  0  0  0  0  0  0  0  0  0  0
    7.8259    0.4027   21.4699 C   0  0  0  0  0  0  0  0  0  0  0  0
    6.8042   -0.4800   20.9284 N   0  0  0  0  0  0  0  0  0  0  0  0
    5.9784   -0.0581   19.8549 C   0  0  0  0  0  0  0  0  0  0  0  0
    6.3934   -0.2170   18.5576 C   0  0  0  0  0  0  0  0  0  0  0  0
    5.7507    0.2902   17.4774 N   0  0  0  0  0  0  0  0  0  0  0  0
    4.6440    0.9523   17.6962 C   0  0  0  0  0  0  0  0  0  0  0  0
    4.0677    1.1484   18.9839 C   0  0  0  0  0  0  0  0  0  0  0  0
    2.8251    1.8119   19.1505 C   0  0  0  0  0  0  0  0  0  0  0  0
    2.2468    1.9036   20.3893 C   0  0  0  0  0  0  0  0  0  0  0  0
    2.8915    1.3334   21.5148 C   0  0  0  0  0  0  0  0  0  0  0  0
    4.1009    0.6949   21.3792 C   0  0  0  0  0  0  0  0  0  0  0  0
    4.7367    0.6086   20.1084 C   0  0  0  0  0  0  0  0  0  0  0  0
    4.5829    0.2394   22.2380 H   0  0  0  0  0  0  0  0  0  0  0  0
    2.4246    1.4143   22.4918 H   0  0  0  0  0  0  0  0  0  0  0  0
    1.3031    2.4257   20.5214 H   0  0  0  0  0  0  0  0  0  0  0  0
    2.3226    2.1965   18.2687 H   0  0  0  0  0  0  0  0  0  0  0  0
    4.1459    1.3881   16.8279 H   0  0  0  0  0  0  0  0  0  0  0  0
    7.3181   -0.7418   18.3303 H   0  0  0  0  0  0  0  0  0  0  0  0
    7.0522   -1.8175   21.1515 C   0  0  0  0  0  0  0  0  0  0  0  0
    6.4041   -2.7269   20.6761 O   0  0  0  0  0  0  0  0  0  0  0  0
    8.5295    0.7218   20.6832 H   0  0  0  0  0  0  0  0  0  0  0  0
    7.3647    1.3030   21.8925 H   0  0  0  0  0  0  0  0  0  0  0  0
    9.5674   -0.2536   22.6054 H   0  0  0  0  0  0  0  0  0  0  0  0
    8.0494   -0.2857   23.5156 H   0  0  0  0  0  0  0  0  0  0  0  0
    7.8871   -2.8529   23.2851 C   0  0  0  0  0  0  0  0  0  0  0  0
    6.5843   -2.9308   23.7868 C   0  0  0  0  0  0  0  0  0  0  0  0
    6.3103   -3.7236   24.8887 C   0  0  0  0  0  0  0  0  0  0  0  0
    4.6898   -3.7649   25.5316 Cl  0  0  0  0  0  0  0  0  0  0  0  0
    7.3069   -4.4919   25.4911 C   0  0  0  0  0  0  0  0  0  0  0  0
    8.5984   -4.4140   25.0000 C   0  0  0  0  0  0  0  0  0  0  0  0
    8.8945   -3.5819   23.9226 C   0  0  0  0  0  0  0  0  0  0  0  0
   10.3208   -3.4579   23.4986 C   0  0  0  0  0  0  0  0  0  0  0  0
   11.2413   -3.8339   24.2144 O   0  0  0  0  0  0  0  0  0  0  0  0
    9.4100   -4.9876   25.4383 H   0  0  0  0  0  0  0  0  0  0  0  0
    7.0740   -5.1267   26.3394 H   0  0  0  0  0  0  0  0  0  0  0  0
    5.7708   -2.4074   23.3008 H   0  0  0  0  0  0  0  0  0  0  0  0
    9.7724   -1.8948   20.6117 H   0  0  0  0  0  0  0  0  0  0  0  0
    9.0801   -3.5231   20.9357 H   0  0  0  0  0  0  0  0  0  0  0  0
   12.0147   -2.5125   20.8393 H   0  0  0  0  0  0  0  0  0  0  0  0
   12.5187   -3.3804   22.3134 H   0  0  0  0  0  0  0  0  0  0  0  0
   12.2193   -0.1222   21.9117 N   0  0  0  0  0  0  0  0  0  0  0  0
   13.0536   -1.8503   24.6012 H   0  0  0  0  0  0  0  0  0  0  0  0
   13.3474    0.8667   24.7860 H   0  0  0  0  0  0  0  0  0  0  0  0
   13.6002    2.5518   22.0792 H   0  0  0  0  0  0  0  0  0  0  0  0
   11.8914    2.3309   21.6133 H   0  0  0  0  0  0  0  0  0  0  0  0
   12.3077    2.8166   23.2733 H   0  0  0  0  0  0  0  0  0  0  0  0
  1  2  1  0
  2  3  1  0
  3  4  2  0
  4  5  1  0
  5  6  1  0
  6  7  1  0
  7  8  1  0
  9  8  1  6
  9 10  1  0
 10 11  1  0
 11 12  1  0
 12 13  1  0
 13 14  2  0
 14 15  1  0
 15 16  2  0
 16 17  1  0
 17 18  2  0
 18 19  1  0
 19 20  2  0
 20 21  1  0
 21 22  2  0
 21 23  1  0
 20 24  1  0
 19 25  1  0
 18 26  1  0
 16 27  1  0
 14 28  1  0
 12 29  1  0
 29 30  2  0
 11 31  1  0
 11 32  1  0
 10 33  1  0
 10 34  1  0
  9 35  1  0
 35 36  2  0
 36 37  1  0
 37 38  1  0
 37 39  2  0
 39 40  1  0
 40 41  2  0
 41 42  1  0
 42 43  2  0
 40 44  1  0
 39 45  1  0
 36 46  1  0
  8 47  1  0
  8 48  1  0
  6 49  1  0
  6 50  1  0
  5 51  2  0
  4 52  1  0
  3 53  1  0
  1 54  1  0
  1 55  1  0
  1 56  1  0
 51  2  1  0
 42  7  1  0
 29  9  1  0
 41 35  1  0
 22 13  1  0
 22 17  1  0
M  END
>  <cnnaffinities>  (64) 
[6.99686]

>  <score>  (64) 
6.99686

>  <index>  (64) 
63

>  <Smiles>  (64) 
C(n1c(c(c(C(N2C([C@]3(C(C(N(c4c(nc(c5c(c(c(c(c45)[H])[H])[H])[H])[H])[H])C3=O)([H])[H])([H])[H])c3c(c(Cl)c(c(c3C2=O)[H])[H])[H])([H])[H])([H])[H])n1)[H])[H])([H])([H])[H]

>  <h>  (64) 
<NA>

>  <Training>  (64) 
True

>  <Success>  (64) 
True

>  <enamine_searched>  (64) 
False

>  <enamine_id>  (64) 
nan

$$$$

     RDKit          3D

 66 71  0  0  0  0  0  0  0  0999 V2000
    7.6368   -2.5685   23.7028 C   0  0  0  0  0  0  0  0  0  0  0  0
    7.8881   -1.6990   22.4769 C   0  0  1  0  0  0  0  0  0  0  0  0
    6.6882   -1.6560   21.5190 C   0  0  0  0  0  0  0  0  0  0  0  0
    6.8086   -0.3569   20.9051 N   0  0  0  0  0  0  0  0  0  0  0  0
    5.9886    0.0770   19.8359 C   0  0  0  0  0  0  0  0  0  0  0  0
    6.4116   -0.0828   18.5445 C   0  0  0  0  0  0  0  0  0  0  0  0
    5.7184    0.3435   17.4608 N   0  0  0  0  0  0  0  0  0  0  0  0
    4.5800    0.9560   17.6736 C   0  0  0  0  0  0  0  0  0  0  0  0
    3.9987    1.1313   18.9612 C   0  0  0  0  0  0  0  0  0  0  0  0
    2.7366    1.7549   19.1425 C   0  0  0  0  0  0  0  0  0  0  0  0
    2.1755    1.8342   20.3889 C   0  0  0  0  0  0  0  0  0  0  0  0
    2.8337    1.2645   21.5023 C   0  0  0  0  0  0  0  0  0  0  0  0
    4.0632    0.6741   21.3576 C   0  0  0  0  0  0  0  0  0  0  0  0
    4.6954    0.6294   20.0827 C   0  0  0  0  0  0  0  0  0  0  0  0
    4.5468    0.2292   22.2198 H   0  0  0  0  0  0  0  0  0  0  0  0
    2.3635    1.3013   22.4796 H   0  0  0  0  0  0  0  0  0  0  0  0
    1.2168    2.3236   20.5325 H   0  0  0  0  0  0  0  0  0  0  0  0
    2.2365    2.1774   18.2794 H   0  0  0  0  0  0  0  0  0  0  0  0
    4.0297    1.3122   16.8023 H   0  0  0  0  0  0  0  0  0  0  0  0
    7.3454   -0.6058   18.3387 H   0  0  0  0  0  0  0  0  0  0  0  0
    7.6637    0.5111   21.5364 C   0  0  0  0  0  0  0  0  0  0  0  0
    7.8521    1.6602   21.1953 O   0  0  0  0  0  0  0  0  0  0  0  0
    8.3309   -0.2170   22.7207 C   0  0  1  0  0  0  0  0  0  0  0  0
    7.8083    0.3459   24.0669 C   0  0  0  0  0  0  0  0  0  0  0  0
    8.3607    1.6455   24.4169 N   0  0  0  0  0  0  0  0  0  0  0  0
    7.4865    2.5821   25.1186 C   0  0  0  0  0  0  0  0  0  0  0  0
    6.5798    3.3051   24.1267 C   0  0  0  0  0  0  0  0  0  0  0  0
    7.3964    4.1774   23.2190 N   0  0  0  0  0  4  0  0  0  0  0  0
    6.7090    4.5020   21.9298 C   0  0  0  0  0  0  0  0  0  0  0  0
    5.6580    5.5968   22.0607 C   0  0  0  0  0  0  0  0  0  0  0  0
    6.1910    6.7739   22.6313 O   0  0  0  0  0  0  0  0  0  0  0  0
    6.7377    6.5114   23.9081 C   0  0  0  0  0  0  0  0  0  0  0  0
    7.8648    5.4817   23.8341 C   0  0  0  0  0  0  0  0  0  0  0  0
    8.6529    5.8798   23.1906 H   0  0  0  0  0  0  0  0  0  0  0  0
    8.2894    5.2727   24.8176 H   0  0  0  0  0  0  0  0  0  0  0  0
    7.1331    7.4618   24.2719 H   0  0  0  0  0  0  0  0  0  0  0  0
    5.9434    6.1704   24.5887 H   0  0  0  0  0  0  0  0  0  0  0  0
    5.2848    5.8745   21.0717 H   0  0  0  0  0  0  0  0  0  0  0  0
    4.8090    5.2199   22.6546 H   0  0  0  0  0  0  0  0  0  0  0  0
    6.2597    3.5793   21.5625 H   0  0  0  0  0  0  0  0  0  0  0  0
    7.4974    4.8177   21.2413 H   0  0  0  0  0  0  0  0  0  0  0  0
    8.2241    3.6194   22.9434 H   0  0  0  0  0  0  0  0  0  0  0  0
    5.8045    3.8909   24.6277 H   0  0  0  0  0  0  0  0  0  0  0  0
    6.0834    2.5658   23.4850 H   0  0  0  0  0  0  0  0  0  0  0  0
    8.1281    3.2848   25.6525 H   0  0  0  0  0  0  0  0  0  0  0  0
    6.8712    2.0433   25.8486 H   0  0  0  0  0  0  0  0  0  0  0  0
    9.6891    1.9328   24.2700 C   0  0  0  0  0  0  0  0  0  0  0  0
   10.2029    2.9362   24.7578 O   0  0  0  0  0  0  0  0  0  0  0  0
   10.4774    0.9783   23.4103 C   0  0  0  0  0  0  0  0  0  0  0  0
   11.8653    1.1230   23.3359 C   0  0  0  0  0  0  0  0  0  0  0  0
   12.6273    0.2942   22.5250 C   0  0  0  0  0  0  0  0  0  0  0  0
   11.9665   -0.6633   21.7555 C   0  0  0  0  0  0  0  0  0  0  0  0
   12.8002   -1.8219   20.7689 Cl  0  0  0  0  0  0  0  0  0  0  0  0
   10.5951   -0.7700   21.7658 C   0  0  0  0  0  0  0  0  0  0  0  0
    9.8306   -0.0099   22.6556 C   0  0  0  0  0  0  0  0  0  0  0  0
   10.1580   -1.4612   21.0531 H   0  0  0  0  0  0  0  0  0  0  0  0
   13.7059    0.3889   22.4672 H   0  0  0  0  0  0  0  0  0  0  0  0
   12.3243    1.9015   23.9356 H   0  0  0  0  0  0  0  0  0  0  0  0
    6.7187    0.4326   24.0144 H   0  0  0  0  0  0  0  0  0  0  0  0
    8.0455   -0.3742   24.8594 H   0  0  0  0  0  0  0  0  0  0  0  0
    6.7241   -2.4530   20.7646 H   0  0  0  0  0  0  0  0  0  0  0  0
    5.7325   -1.7655   22.0520 H   0  0  0  0  0  0  0  0  0  0  0  0
    8.7020   -2.1564   21.9165 H   0  0  0  0  0  0  0  0  0  0  0  0
    7.3973   -3.5931   23.3977 H   0  0  0  0  0  0  0  0  0  0  0  0
    6.7926   -2.1979   24.2960 H   0  0  0  0  0  0  0  0  0  0  0  0
    8.5195   -2.6055   24.3498 H   0  0  0  0  0  0  0  0  0  0  0  0
  1  2  1  0
  2  3  1  0
  3  4  1  0
  4  5  1  0
  5  6  2  0
  6  7  1  0
  7  8  2  0
  8  9  1  0
  9 10  2  0
 10 11  1  0
 11 12  2  0
 12 13  1  0
 13 14  2  0
 13 15  1  0
 12 16  1  0
 11 17  1  0
 10 18  1  0
  8 19  1  0
  6 20  1  0
  4 21  1  0
 21 22  2  0
 21 23  1  0
 23 24  1  1
 24 25  1  0
 25 26  1  0
 26 27  1  0
 27 28  1  0
 28 29  1  0
 29 30  1  0
 30 31  1  0
 31 32  1  0
 32 33  1  0
 33 34  1  0
 33 35  1  0
 32 36  1  0
 32 37  1  0
 30 38  1  0
 30 39  1  0
 29 40  1  0
 29 41  1  0
 28 42  1  0
 27 43  1  0
 27 44  1  0
 26 45  1  0
 26 46  1  0
 25 47  1  0
 47 48  2  0
 47 49  1  0
 49 50  2  0
 50 51  1  0
 51 52  2  0
 52 53  1  0
 52 54  1  0
 54 55  2  0
 54 56  1  0
 51 57  1  0
 50 58  1  0
 24 59  1  0
 24 60  1  0
  3 61  1  0
  3 62  1  0
  2 63  1  6
  1 64  1  0
  1 65  1  0
  1 66  1  0
 23  2  1  0
 33 28  1  0
 55 49  1  0
 14  5  1  0
 55 23  1  0
 14  9  1  0
M  CHG  1  28   1
M  END
>  <cnnaffinities>  (65) 
[6.3388, 6.30681]

>  <score>  (65) 
6.3388

>  <index>  (65) 
64

>  <Smiles>  (65) 
C([C@]1(C(N(c2c(nc(c3c(c(c(c(c23)[H])[H])[H])[H])[H])[H])C(=O)[C@]21C(N(C(C([N+]1(C(C(OC(C1([H])[H])([H])[H])([H])[H])([H])[H])[H])([H])[H])([H])[H])C(=O)c1c(c(c(Cl)c(c21)[H])[H])[H])([H])[H])([H])[H])[H])([H])([H])[H]

>  <h>  (65) 
<NA>

>  <Training>  (65) 
True

>  <Success>  (65) 
True

>  <enamine_searched>  (65) 
False

>  <enamine_id>  (65) 
nan

$$$$

     RDKit          3D

 54 59  0  0  0  0  0  0  0  0999 V2000
    9.7668    3.0813   23.6561 C   0  0  0  0  0  0  0  0  0  0  0  0
    8.9882    2.2691   24.5674 N   0  0  0  0  0  0  0  0  0  0  0  0
    7.6576    2.1416   24.3553 C   0  0  0  0  0  0  0  0  0  0  0  0
    7.0943    2.6362   23.3872 O   0  0  0  0  0  0  0  0  0  0  0  0
    6.9141    1.3365   25.4270 C   0  0  0  0  0  0  0  0  0  0  0  0
    7.0892   -0.0914   25.2426 N   0  0  0  0  0  0  0  0  0  0  0  0
    8.1865   -0.7602   25.7456 C   0  0  0  0  0  0  0  0  0  0  0  0
    9.1039   -0.2327   26.3574 O   0  0  0  0  0  0  0  0  0  0  0  0
    8.0180   -2.1859   25.3309 C   0  0  0  0  0  0  0  0  0  0  0  0
    8.5736   -3.2895   25.9163 C   0  0  0  0  0  0  0  0  0  0  0  0
    8.1057   -4.5718   25.5405 C   0  0  0  0  0  0  0  0  0  0  0  0
    7.0614   -4.6930   24.6684 C   0  0  0  0  0  0  0  0  0  0  0  0
    6.4714   -6.2639   24.2410 Cl  0  0  0  0  0  0  0  0  0  0  0  0
    6.2762   -3.5619   24.1159 C   0  0  0  0  0  0  0  0  0  0  0  0
    7.0225   -2.2482   24.2699 C   0  0  1  0  0  0  0  0  0  0  0  0
    6.4023   -0.8776   24.2598 C   0  0  2  0  0  0  0  0  0  0  0  0
    7.1734   -1.3551   23.0369 C   0  0  2  0  0  0  0  0  0  0  0  0
    6.2919   -1.4662   21.8171 C   0  0  0  0  0  0  0  0  0  0  0  0
    5.2814   -2.1240   21.6632 O   0  0  0  0  0  0  0  0  0  0  0  0
    6.7878   -0.5699   20.8882 N   0  0  0  0  0  0  0  0  0  0  0  0
    5.9742   -0.0804   19.8424 C   0  0  0  0  0  0  0  0  0  0  0  0
    6.4132   -0.1853   18.5490 C   0  0  0  0  0  0  0  0  0  0  0  0
    5.7609    0.3120   17.4776 N   0  0  0  0  0  0  0  0  0  0  0  0
    4.6426    0.9552   17.7032 C   0  0  0  0  0  0  0  0  0  0  0  0
    4.0564    1.1086   18.9869 C   0  0  0  0  0  0  0  0  0  0  0  0
    2.8484    1.8328   19.1541 C   0  0  0  0  0  0  0  0  0  0  0  0
    2.2896    1.9811   20.3967 C   0  0  0  0  0  0  0  0  0  0  0  0
    2.9413    1.4294   21.5282 C   0  0  0  0  0  0  0  0  0  0  0  0
    4.1470    0.7835   21.3973 C   0  0  0  0  0  0  0  0  0  0  0  0
    4.7338    0.5893   20.1070 C   0  0  0  0  0  0  0  0  0  0  0  0
    4.6667    0.4175   22.2796 H   0  0  0  0  0  0  0  0  0  0  0  0
    2.4999    1.5769   22.5124 H   0  0  0  0  0  0  0  0  0  0  0  0
    1.3725    2.5503   20.5181 H   0  0  0  0  0  0  0  0  0  0  0  0
    2.3814    2.2516   18.2683 H   0  0  0  0  0  0  0  0  0  0  0  0
    4.1441    1.3993   16.8448 H   0  0  0  0  0  0  0  0  0  0  0  0
    7.3651   -0.6722   18.3520 H   0  0  0  0  0  0  0  0  0  0  0  0
    8.0548    0.0519   21.2833 C   0  0  0  0  0  0  0  0  0  0  0  0
    8.4024   -0.6920   22.5506 C   0  0  0  0  0  0  0  0  0  0  0  0
    9.6252   -0.7296   23.0776 C   0  0  0  0  0  0  0  0  0  0  0  0
   10.6076    0.0431   22.5760 F   0  0  0  0  0  0  0  0  0  0  0  0
    9.9511   -1.3641   23.8960 H   0  0  0  0  0  0  0  0  0  0  0  0
    7.9105    1.1231   21.4850 H   0  0  0  0  0  0  0  0  0  0  0  0
    8.8306   -0.0728   20.5235 H   0  0  0  0  0  0  0  0  0  0  0  0
    5.3408   -0.7028   24.1305 H   0  0  0  0  0  0  0  0  0  0  0  0
    6.0386   -3.7509   23.0622 H   0  0  0  0  0  0  0  0  0  0  0  0
    5.2935   -3.5218   24.6206 H   0  0  0  0  0  0  0  0  0  0  0  0
    8.5444   -5.4620   25.9869 H   0  0  0  0  0  0  0  0  0  0  0  0
    9.3451   -3.1722   26.6660 H   0  0  0  0  0  0  0  0  0  0  0  0
    7.2776    1.6023   26.4237 H   0  0  0  0  0  0  0  0  0  0  0  0
    5.8496    1.5829   25.3908 H   0  0  0  0  0  0  0  0  0  0  0  0
    9.4304    1.7145   25.2858 H   0  0  0  0  0  0  0  0  0  0  0  0
   10.8195    3.0377   23.9398 H   0  0  0  0  0  0  0  0  0  0  0  0
    9.6486    2.7155   22.6285 H   0  0  0  0  0  0  0  0  0  0  0  0
    9.4166    4.1182   23.7019 H   0  0  0  0  0  0  0  0  0  0  0  0
  1  2  1  0
  2  3  1  0
  3  4  2  0
  3  5  1  0
  5  6  1  0
  6  7  1  0
  7  8  2  0
  7  9  1  0
  9 10  2  0
 10 11  1  0
 11 12  2  0
 12 13  1  0
 12 14  1  0
 15 14  1  6
 15 16  1  0
 16 17  1  0
 17 18  1  6
 18 19  2  0
 18 20  1  0
 20 21  1  0
 21 22  2  0
 22 23  1  0
 23 24  2  0
 24 25  1  0
 25 26  2  0
 26 27  1  0
 27 28  2  0
 28 29  1  0
 29 30  2  0
 29 31  1  0
 28 32  1  0
 27 33  1  0
 26 34  1  0
 24 35  1  0
 22 36  1  0
 20 37  1  0
 37 38  1  0
 38 39  2  0
 39 40  1  0
 39 41  1  0
 37 42  1  0
 37 43  1  0
 16 44  1  6
 14 45  1  0
 14 46  1  0
 11 47  1  0
 10 48  1  0
  5 49  1  0
  5 50  1  0
  2 51  1  0
  1 52  1  0
  1 53  1  0
  1 54  1  0
 16  6  1  0
 38 17  1  0
 15  9  1  0
 30 21  1  0
 17 15  1  0
 30 25  1  0
M  END
>  <cnnaffinities>  (66) 
[6.40034]

>  <score>  (66) 
6.40034

>  <index>  (66) 
65

>  <Smiles>  (66) 
C(N(C(=O)C(N1C(=O)C2=C(C(=C(Cl)C([C@]32[C@@]1([C@@]13C(=O)N(c2c(nc(c3c(c(c(c(c23)[H])[H])[H])[H])[H])[H])C(/C/1=C(\F)/[H])([H])[H])[H])([H])[H])[H])[H])([H])[H])[H])([H])([H])[H]

>  <h>  (66) 
<NA>

>  <Training>  (66) 
True

>  <Success>  (66) 
True

>  <enamine_searched>  (66) 
False

>  <enamine_id>  (66) 
nan

$$$$

     RDKit          3D

 47 50  0  0  0  0  0  0  0  0999 V2000
    7.9529    1.6224   20.8670 O   0  0  0  0  0  0  0  0  0  0  0  0
    7.9945    0.5030   21.3495 C   0  0  0  0  0  0  0  0  0  0  0  0
    6.9169   -0.5419   21.0003 C   0  0  0  0  0  0  0  0  0  0  0  0
    5.9901   -0.0699   19.9035 C   0  0  0  0  0  0  0  0  0  0  0  0
    6.4047   -0.1733   18.5979 C   0  0  0  0  0  0  0  0  0  0  0  0
    5.7546    0.3153   17.5102 N   0  0  0  0  0  0  0  0  0  0  0  0
    4.6308    0.9469   17.7235 C   0  0  0  0  0  0  0  0  0  0  0  0
    4.0460    1.1066   19.0058 C   0  0  0  0  0  0  0  0  0  0  0  0
    2.7979    1.7640   19.1718 C   0  0  0  0  0  0  0  0  0  0  0  0
    2.2118    1.8395   20.4023 C   0  0  0  0  0  0  0  0  0  0  0  0
    2.8531    1.2546   21.5159 C   0  0  0  0  0  0  0  0  0  0  0  0
    4.0788    0.6462   21.3875 C   0  0  0  0  0  0  0  0  0  0  0  0
    4.7236    0.5590   20.1277 C   0  0  0  0  0  0  0  0  0  0  0  0
    4.5583    0.2151   22.2567 H   0  0  0  0  0  0  0  0  0  0  0  0
    2.3716    1.2971   22.4847 H   0  0  0  0  0  0  0  0  0  0  0  0
    1.2576    2.3488   20.5322 H   0  0  0  0  0  0  0  0  0  0  0  0
    2.3106    2.1804   18.2927 H   0  0  0  0  0  0  0  0  0  0  0  0
    4.1331    1.3819   16.8534 H   0  0  0  0  0  0  0  0  0  0  0  0
    7.3670   -0.6283   18.3705 H   0  0  0  0  0  0  0  0  0  0  0  0
    6.3762   -0.8480   21.9038 H   0  0  0  0  0  0  0  0  0  0  0  0
    7.4598   -1.4301   20.6456 H   0  0  0  0  0  0  0  0  0  0  0  0
    9.0269    0.1244   22.1982 N   0  0  0  0  0  0  0  0  0  0  0  0
    9.2680   -1.2618   22.6083 C   0  0  0  0  0  0  0  0  0  0  0  0
   10.0840   -1.2936   23.9015 C   0  0  0  0  0  0  0  0  0  0  0  0
   11.4327   -0.5791   23.7535 C   0  0  1  0  0  0  0  0  0  0  0  0
   12.4409   -1.3557   22.8925 C   0  0  0  0  0  0  0  0  0  0  0  0
   13.7791   -0.6198   22.8127 C   0  0  0  0  0  0  0  0  0  0  0  0
   13.5944    0.7653   22.2195 C   0  0  0  0  0  0  0  0  0  0  0  0
   14.7768    1.4565   22.2765 F   0  0  0  0  0  0  0  0  0  0  0  0
   13.3208    0.6246   20.8813 F   0  0  0  0  0  0  0  0  0  0  0  0
   12.5054    1.5996   22.8878 C   0  0  0  0  0  0  0  0  0  0  0  0
   11.1961    0.8438   23.2071 C   0  0  1  0  0  0  0  0  0  0  0  0
   10.2912    0.8216   21.9777 C   0  0  0  0  0  0  0  0  0  0  0  0
   10.8199    0.3142   21.1607 H   0  0  0  0  0  0  0  0  0  0  0  0
   10.0615    1.8435   21.6651 H   0  0  0  0  0  0  0  0  0  0  0  0
   10.6726    1.4087   23.9862 H   0  0  0  0  0  0  0  0  0  0  0  0
   12.2809    2.4519   22.2349 H   0  0  0  0  0  0  0  0  0  0  0  0
   12.9439    2.0060   23.8040 H   0  0  0  0  0  0  0  0  0  0  0  0
   14.4858   -1.1729   22.1907 H   0  0  0  0  0  0  0  0  0  0  0  0
   14.2163   -0.5048   23.8106 H   0  0  0  0  0  0  0  0  0  0  0  0
   12.0529   -1.4942   21.8768 H   0  0  0  0  0  0  0  0  0  0  0  0
   12.5924   -2.3590   23.3066 H   0  0  0  0  0  0  0  0  0  0  0  0
   11.8750   -0.4901   24.7546 H   0  0  0  0  0  0  0  0  0  0  0  0
    9.5006   -0.8167   24.6986 H   0  0  0  0  0  0  0  0  0  0  0  0
   10.2411   -2.3309   24.2213 H   0  0  0  0  0  0  0  0  0  0  0  0
    8.3254   -1.7872   22.7699 H   0  0  0  0  0  0  0  0  0  0  0  0
    9.8135   -1.8026   21.8127 H   0  0  0  0  0  0  0  0  0  0  0  0
  1  2  2  0
  2  3  1  0
  3  4  1  0
  4  5  2  0
  5  6  1  0
  6  7  2  0
  7  8  1  0
  8  9  2  0
  9 10  1  0
 10 11  2  0
 11 12  1  0
 12 13  2  0
 12 14  1  0
 11 15  1  0
 10 16  1  0
  9 17  1  0
  7 18  1  0
  5 19  1  0
  3 20  1  0
  3 21  1  0
  2 22  1  0
 22 23  1  0
 23 24  1  0
 24 25  1  0
 25 26  1  0
 26 27  1  0
 27 28  1  0
 28 29  1  0
 28 30  1  0
 28 31  1  0
 31 32  1  0
 32 33  1  0
 33 34  1  0
 33 35  1  0
 32 36  1  1
 31 37  1  0
 31 38  1  0
 27 39  1  0
 27 40  1  0
 26 41  1  0
 26 42  1  0
 25 43  1  1
 24 44  1  0
 24 45  1  0
 23 46  1  0
 23 47  1  0
 13  4  1  0
 33 22  1  0
 13  8  1  0
 32 25  1  0
M  END
>  <cnnaffinities>  (67) 
[6.03908, 5.79051, 5.79055]

>  <score>  (67) 
6.03908

>  <index>  (67) 
66

>  <Smiles>  (67) 
O=C(C(c1c(nc(c2c(c(c(c(c12)[H])[H])[H])[H])[H])[H])([H])[H])N1C(C([C@]2(C(C(C(F)(F)C([C@]2(C1([H])[H])[H])([H])[H])([H])[H])([H])[H])[H])([H])[H])([H])[H]

>  <h>  (67) 
<NA>

>  <Training>  (67) 
True

>  <Success>  (67) 
True

>  <enamine_searched>  (67) 
False

>  <enamine_id>  (67) 
nan

$$$$

     RDKit          3D

 69 74  0  0  0  0  0  0  0  0999 V2000
   10.0451    4.4328   22.2265 C   0  0  0  0  0  0  0  0  0  0  0  0
    8.9769    3.4446   21.9323 N   0  0  0  0  0  4  0  0  0  0  0  0
    8.0311    3.2291   23.0622 C   0  0  0  0  0  0  0  0  0  0  0  0
    8.6967    2.5090   24.2423 C   0  0  0  0  0  0  0  0  0  0  0  0
    9.2938    1.2517   23.8262 N   0  0  0  0  0  0  0  0  0  0  0  0
    8.4531    0.0782   23.6953 C   0  0  0  0  0  0  0  0  0  0  0  0
    8.6877   -0.6529   22.3437 C   0  0  2  0  0  0  0  0  0  0  0  0
    8.0610    0.1772   21.1895 C   0  0  0  0  0  0  0  0  0  0  0  0
    8.5731    1.1524   20.6536 O   0  0  0  0  0  0  0  0  0  0  0  0
    6.7988   -0.3058   20.9229 N   0  0  0  0  0  0  0  0  0  0  0  0
    5.9717    0.1368   19.8515 C   0  0  0  0  0  0  0  0  0  0  0  0
    6.4440    0.1504   18.5609 C   0  0  0  0  0  0  0  0  0  0  0  0
    5.7202    0.5294   17.4794 N   0  0  0  0  0  0  0  0  0  0  0  0
    4.4992    0.9675   17.6802 C   0  0  0  0  0  0  0  0  0  0  0  0
    3.8600    0.9739   18.9521 C   0  0  0  0  0  0  0  0  0  0  0  0
    2.5407    1.4815   19.1192 C   0  0  0  0  0  0  0  0  0  0  0  0
    1.9405    1.4473   20.3458 C   0  0  0  0  0  0  0  0  0  0  0  0
    2.6323    0.9083   21.4538 C   0  0  0  0  0  0  0  0  0  0  0  0
    3.9183    0.4349   21.3175 C   0  0  0  0  0  0  0  0  0  0  0  0
    4.5875    0.4878   20.0646 C   0  0  0  0  0  0  0  0  0  0  0  0
    4.4353    0.0484   22.1857 H   0  0  0  0  0  0  0  0  0  0  0  0
    2.1383    0.8682   22.4196 H   0  0  0  0  0  0  0  0  0  0  0  0
    0.9315    1.8338   20.4737 H   0  0  0  0  0  0  0  0  0  0  0  0
    2.0478    1.9268   18.2548 H   0  0  0  0  0  0  0  0  0  0  0  0
    3.9466    1.3008   16.8023 H   0  0  0  0  0  0  0  0  0  0  0  0
    7.4615   -0.1790   18.3482 H   0  0  0  0  0  0  0  0  0  0  0  0
    6.5034   -1.5277   21.6599 C   0  0  0  0  0  0  0  0  0  0  0  0
    7.8544   -1.9543   22.2489 C   0  0  2  0  0  0  0  0  0  0  0  0
    7.7064   -2.7487   23.5455 C   0  0  0  0  0  0  0  0  0  0  0  0
    7.0073   -3.9541   23.3178 O   0  0  0  0  0  0  0  0  0  0  0  0
    7.8266   -5.0956   23.3013 C   0  0  0  0  0  0  0  0  0  0  0  0
    6.9990   -6.2778   22.9009 C   0  0  0  0  0  0  0  0  0  0  0  0
    6.0081   -6.5612   23.8083 F   0  0  0  0  0  0  0  0  0  0  0  0
    7.6227   -7.4454   22.2356 C   0  0  0  0  0  0  0  0  0  0  0  0
    6.6919   -6.5264   21.4678 C   0  0  0  0  0  0  0  0  0  0  0  0
    7.1241   -5.8465   20.7394 H   0  0  0  0  0  0  0  0  0  0  0  0
    5.6999   -6.9017   21.2381 H   0  0  0  0  0  0  0  0  0  0  0  0
    7.2206   -8.4121   22.5177 H   0  0  0  0  0  0  0  0  0  0  0  0
    8.6874   -7.4148   22.0191 H   0  0  0  0  0  0  0  0  0  0  0  0
    8.2707   -5.2799   24.2921 H   0  0  0  0  0  0  0  0  0  0  0  0
    8.6532   -4.9648   22.5809 H   0  0  0  0  0  0  0  0  0  0  0  0
    7.1081   -2.1742   24.2671 H   0  0  0  0  0  0  0  0  0  0  0  0
    8.6908   -2.9424   24.0049 H   0  0  0  0  0  0  0  0  0  0  0  0
    8.3311   -2.6085   21.5167 H   0  0  0  0  0  0  0  0  0  0  0  0
    5.7879   -1.3544   22.4702 H   0  0  0  0  0  0  0  0  0  0  0  0
    6.0829   -2.2676   20.9761 H   0  0  0  0  0  0  0  0  0  0  0  0
   10.1813   -0.8553   22.1895 C   0  0  0  0  0  0  0  0  0  0  0  0
   10.7030   -1.8339   21.3327 C   0  0  0  0  0  0  0  0  0  0  0  0
   12.0706   -1.9650   21.1735 C   0  0  0  0  0  0  0  0  0  0  0  0
   12.6548   -3.0698   19.9568 Cl  0  0  0  0  0  0  0  0  0  0  0  0
   12.9760   -1.2119   21.9212 C   0  0  0  0  0  0  0  0  0  0  0  0
   12.4733   -0.2277   22.7509 C   0  0  0  0  0  0  0  0  0  0  0  0
   11.0982   -0.0220   22.8496 C   0  0  0  0  0  0  0  0  0  0  0  0
   10.6378    1.1736   23.6227 C   0  0  0  0  0  0  0  0  0  0  0  0
   11.4255    2.0382   23.9985 O   0  0  0  0  0  0  0  0  0  0  0  0
   13.1208    0.4274   23.3261 H   0  0  0  0  0  0  0  0  0  0  0  0
   14.0401   -1.3946   21.8314 H   0  0  0  0  0  0  0  0  0  0  0  0
   10.0678   -2.5010   20.7592 H   0  0  0  0  0  0  0  0  0  0  0  0
    8.6845   -0.6113   24.5205 H   0  0  0  0  0  0  0  0  0  0  0  0
    7.4027    0.3787   23.7877 H   0  0  0  0  0  0  0  0  0  0  0  0
    7.9485    2.2961   25.0144 H   0  0  0  0  0  0  0  0  0  0  0  0
    9.4940    3.1132   24.6806 H   0  0  0  0  0  0  0  0  0  0  0  0
    7.2023    2.6294   22.6776 H   0  0  0  0  0  0  0  0  0  0  0  0
    7.6204    4.1892   23.3953 H   0  0  0  0  0  0  0  0  0  0  0  0
    8.4594    3.7745   21.0974 H   0  0  0  0  0  0  0  0  0  0  0  0
    9.3573    2.5279   21.6419 H   0  0  0  0  0  0  0  0  0  0  0  0
   10.8175    3.9966   22.8583 H   0  0  0  0  0  0  0  0  0  0  0  0
    9.6167    5.2976   22.7462 H   0  0  0  0  0  0  0  0  0  0  0  0
   10.5007    4.7775   21.2978 H   0  0  0  0  0  0  0  0  0  0  0  0
  1  2  1  0
  2  3  1  0
  3  4  1  0
  4  5  1  0
  5  6  1  0
  7  6  1  1
  7  8  1  0
  8  9  2  0
  8 10  1  0
 10 11  1  0
 11 12  2  0
 12 13  1  0
 13 14  2  0
 14 15  1  0
 15 16  2  0
 16 17  1  0
 17 18  2  0
 18 19  1  0
 19 20  2  0
 19 21  1  0
 18 22  1  0
 17 23  1  0
 16 24  1  0
 14 25  1  0
 12 26  1  0
 10 27  1  0
 27 28  1  0
 28 29  1  0
 29 30  1  0
 30 31  1  0
 31 32  1  0
 32 33  1  0
 32 34  1  0
 34 35  1  0
 35 36  1  0
 35 37  1  0
 34 38  1  0
 34 39  1  0
 31 40  1  0
 31 41  1  0
 29 42  1  0
 29 43  1  0
 28 44  1  6
 27 45  1  0
 27 46  1  0
  7 47  1  0
 47 48  2  0
 48 49  1  0
 49 50  1  0
 49 51  2  0
 51 52  1  0
 52 53  2  0
 53 54  1  0
 54 55  2  0
 52 56  1  0
 51 57  1  0
 48 58  1  0
  6 59  1  0
  6 60  1  0
  4 61  1  0
  4 62  1  0
  3 63  1  0
  3 64  1  0
  2 65  1  0
  2 66  1  0
  1 67  1  0
  1 68  1  0
  1 69  1  0
 54  5  1  0
 28  7  1  0
 35 32  1  0
 53 47  1  0
 20 11  1  0
 20 15  1  0
M  CHG  1   2   1
M  END
>  <cnnaffinities>  (68) 
[6.80359]

>  <score>  (68) 
6.80359

>  <index>  (68) 
67

>  <Smiles>  (68) 
C([N+](C(C(N1C([C@@]2(C(=O)N(c3c(nc(c4c(c(c(c(c34)[H])[H])[H])[H])[H])[H])C([C@@]2(C(OC(C2(F)C(C2([H])[H])([H])[H])([H])[H])([H])[H])[H])([H])[H])c2c(c(Cl)c(c(c2C1=O)[H])[H])[H])([H])[H])([H])[H])([H])[H])([H])[H])([H])([H])[H]

>  <h>  (68) 
<NA>

>  <Training>  (68) 
True

>  <Success>  (68) 
True

>  <enamine_searched>  (68) 
False

>  <enamine_id>  (68) 
nan

$$$$

     RDKit          3D

 57 62  0  0  0  0  0  0  0  0999 V2000
    5.5536   -5.6597   26.5426 C   0  0  0  0  0  0  0  0  0  0  0  0
    6.3587   -4.4048   26.5902 C   0  0  0  0  0  0  0  0  0  0  0  0
    5.9831   -3.1635   26.4866 N   0  0  0  0  0  0  0  0  0  0  0  0
    7.1811   -2.4939   26.5098 C   0  0  0  0  0  0  0  0  0  0  0  0
    7.2946   -0.9973   26.4205 C   0  0  0  0  0  0  0  0  0  0  0  0
    8.1157   -0.5683   25.3027 N   0  0  0  0  0  0  0  0  0  0  0  0
    7.4901   -0.1141   24.0642 C   0  0  0  0  0  0  0  0  0  0  0  0
    8.2955   -0.4756   22.7870 C   0  0  2  0  0  0  0  0  0  0  0  0
    7.6622    0.3804   21.6635 C   0  0  0  0  0  0  0  0  0  0  0  0
    7.7841    1.5768   21.4955 O   0  0  0  0  0  0  0  0  0  0  0  0
    6.8459   -0.4327   20.9052 N   0  0  0  0  0  0  0  0  0  0  0  0
    6.0210    0.0391   19.8553 C   0  0  0  0  0  0  0  0  0  0  0  0
    6.4131   -0.1675   18.5577 C   0  0  0  0  0  0  0  0  0  0  0  0
    5.7486    0.2895   17.4715 N   0  0  0  0  0  0  0  0  0  0  0  0
    4.6408    0.9513   17.6870 C   0  0  0  0  0  0  0  0  0  0  0  0
    4.0737    1.1634   18.9745 C   0  0  0  0  0  0  0  0  0  0  0  0
    2.8442    1.8526   19.1341 C   0  0  0  0  0  0  0  0  0  0  0  0
    2.2648    1.9631   20.3680 C   0  0  0  0  0  0  0  0  0  0  0  0
    2.8956    1.3919   21.4989 C   0  0  0  0  0  0  0  0  0  0  0  0
    4.1101    0.7602   21.3739 C   0  0  0  0  0  0  0  0  0  0  0  0
    4.7516    0.6557   20.1062 C   0  0  0  0  0  0  0  0  0  0  0  0
    4.5936    0.3341   22.2463 H   0  0  0  0  0  0  0  0  0  0  0  0
    2.4281    1.4950   22.4733 H   0  0  0  0  0  0  0  0  0  0  0  0
    1.3287    2.5000   20.4848 H   0  0  0  0  0  0  0  0  0  0  0  0
    2.3690    2.2507   18.2440 H   0  0  0  0  0  0  0  0  0  0  0  0
    4.1384    1.3691   16.8148 H   0  0  0  0  0  0  0  0  0  0  0  0
    7.3464   -0.6864   18.3519 H   0  0  0  0  0  0  0  0  0  0  0  0
    6.8526   -1.8237   21.2787 C   0  0  0  0  0  0  0  0  0  0  0  0
    8.0437   -1.9320   22.2405 C   0  0  2  0  0  0  0  0  0  0  0  0
    7.7981   -3.0195   23.2730 C   0  0  0  0  0  0  0  0  0  0  0  0
    8.5899   -3.0372   24.0244 H   0  0  0  0  0  0  0  0  0  0  0  0
    6.8442   -2.8572   23.7897 H   0  0  0  0  0  0  0  0  0  0  0  0
    7.7459   -3.9981   22.7821 H   0  0  0  0  0  0  0  0  0  0  0  0
    8.9363   -2.1876   21.6524 H   0  0  0  0  0  0  0  0  0  0  0  0
    6.9499   -2.4564   20.3911 H   0  0  0  0  0  0  0  0  0  0  0  0
    5.9090   -2.1169   21.7689 H   0  0  0  0  0  0  0  0  0  0  0  0
    9.7687   -0.1618   23.0566 C   0  0  0  0  0  0  0  0  0  0  0  0
   10.6650    0.1054   22.0107 C   0  0  0  0  0  0  0  0  0  0  0  0
   12.0055    0.3283   22.2841 C   0  0  0  0  0  0  0  0  0  0  0  0
   12.8570    0.6525   21.2974 F   0  0  0  0  0  0  0  0  0  0  0  0
   12.5371    0.2329   23.5646 C   0  0  0  0  0  0  0  0  0  0  0  0
   11.6661   -0.0377   24.5972 C   0  0  0  0  0  0  0  0  0  0  0  0
   10.3013   -0.1822   24.3552 C   0  0  0  0  0  0  0  0  0  0  0  0
    9.4462   -0.3671   25.5545 C   0  0  0  0  0  0  0  0  0  0  0  0
    9.9147   -0.3514   26.6870 O   0  0  0  0  0  0  0  0  0  0  0  0
   12.0135   -0.1392   25.6204 H   0  0  0  0  0  0  0  0  0  0  0  0
   13.5976    0.3762   23.7305 H   0  0  0  0  0  0  0  0  0  0  0  0
   10.3196    0.1461   20.9852 H   0  0  0  0  0  0  0  0  0  0  0  0
    7.3823    0.9810   24.0758 H   0  0  0  0  0  0  0  0  0  0  0  0
    6.4836   -0.5497   24.0007 H   0  0  0  0  0  0  0  0  0  0  0  0
    6.2949   -0.5678   26.3324 H   0  0  0  0  0  0  0  0  0  0  0  0
    7.7770   -0.6141   27.3255 H   0  0  0  0  0  0  0  0  0  0  0  0
    8.2299   -3.2648   26.6291 N   0  0  0  0  0  0  0  0  0  0  0  0
    7.6806   -4.5402   26.7131 O   0  0  0  0  0  0  0  0  0  0  0  0
    5.0443   -5.8400   27.4928 H   0  0  0  0  0  0  0  0  0  0  0  0
    6.2190   -6.4923   26.3202 H   0  0  0  0  0  0  0  0  0  0  0  0
    4.7938   -5.5920   25.7622 H   0  0  0  0  0  0  0  0  0  0  0  0
  1  2  1  0
  2  3  2  0
  3  4  1  0
  4  5  1  0
  5  6  1  0
  6  7  1  0
  8  7  1  1
  8  9  1  0
  9 10  2  0
  9 11  1  0
 11 12  1  0
 12 13  2  0
 13 14  1  0
 14 15  2  0
 15 16  1  0
 16 17  2  0
 17 18  1  0
 18 19  2  0
 19 20  1  0
 20 21  2  0
 20 22  1  0
 19 23  1  0
 18 24  1  0
 17 25  1  0
 15 26  1  0
 13 27  1  0
 11 28  1  0
 28 29  1  0
 29 30  1  0
 30 31  1  0
 30 32  1  0
 30 33  1  0
 29 34  1  6
 28 35  1  0
 28 36  1  0
  8 37  1  0
 37 38  2  0
 38 39  1  0
 39 40  1  0
 39 41  2  0
 41 42  1  0
 42 43  2  0
 43 44  1  0
 44 45  2  0
 42 46  1  0
 41 47  1  0
 38 48  1  0
  7 49  1  0
  7 50  1  0
  5 51  1  0
  5 52  1  0
  4 53  2  0
 53 54  1  0
  1 55  1  0
  1 56  1  0
  1 57  1  0
 54  2  1  0
 44  6  1  0
 29  8  1  0
 43 37  1  0
 21 12  1  0
 21 16  1  0
M  END
>  <cnnaffinities>  (69) 
[6.48551]

>  <score>  (69) 
6.48551

>  <index>  (69) 
68

>  <Smiles>  (69) 
C(c1nc(C(N2C([C@@]3(C(=O)N(c4c(nc(c5c(c(c(c(c45)[H])[H])[H])[H])[H])[H])C([C@@]3(C([H])([H])[H])[H])([H])[H])c3c(c(F)c(c(c3C2=O)[H])[H])[H])([H])[H])([H])[H])no1)([H])([H])[H]

>  <h>  (69) 
<NA>

>  <Training>  (69) 
True

>  <Success>  (69) 
True

>  <enamine_searched>  (69) 
False

>  <enamine_id>  (69) 
nan

$$$$

     RDKit          3D

 64 68  0  0  0  0  0  0  0  0999 V2000
    8.0072    2.3214   23.8073 C   0  0  0  0  0  0  0  0  0  0  0  0
    8.7602    2.0635   25.1147 C   0  0  0  0  0  0  0  0  0  0  0  0
    8.9204    0.5726   25.2624 C   0  0  0  0  0  0  0  0  0  0  0  0
    8.0375   -0.1033   25.7459 O   0  0  0  0  0  0  0  0  0  0  0  0
   10.0760   -0.0013   24.7180 N   0  0  0  0  0  0  0  0  0  0  0  0
   11.4114    0.5896   24.7969 C   0  0  0  0  0  0  0  0  0  0  0  0
   12.4019   -0.5327   25.0759 C   0  0  0  0  0  0  0  0  0  0  0  0
   12.4264   -1.4386   23.8485 C   0  0  0  0  0  0  0  0  0  0  0  0
   11.0234   -1.8121   23.4007 C   0  0  0  0  0  0  0  0  0  0  0  0
   10.8079   -2.8392   22.4838 C   0  0  0  0  0  0  0  0  0  0  0  0
    9.5403   -3.1627   22.0145 C   0  0  0  0  0  0  0  0  0  0  0  0
    8.4363   -2.4438   22.4699 C   0  0  0  0  0  0  0  0  0  0  0  0
    7.1227   -2.7964   22.0151 N   0  0  0  0  0  0  0  0  0  0  0  0
    6.5559   -4.0685   22.4695 C   0  0  0  0  0  0  0  0  0  0  0  0
    5.9505   -3.9592   23.8572 C   0  0  0  0  0  0  0  0  0  0  0  0
    4.5816   -3.7461   24.0278 C   0  0  0  0  0  0  0  0  0  0  0  0
    4.0434   -3.6425   25.3065 C   0  0  0  0  0  0  0  0  0  0  0  0
    4.8648   -3.7462   26.4253 C   0  0  0  0  0  0  0  0  0  0  0  0
    6.2305   -3.9387   26.2439 C   0  0  0  0  0  0  0  0  0  0  0  0
    7.2628   -4.1200   27.6349 Cl  0  0  0  0  0  0  0  0  0  0  0  0
    6.7833   -4.0165   24.9733 C   0  0  0  0  0  0  0  0  0  0  0  0
    7.8628   -4.1001   24.8515 H   0  0  0  0  0  0  0  0  0  0  0  0
    4.4622   -3.6627   27.4301 H   0  0  0  0  0  0  0  0  0  0  0  0
    2.9740   -3.4877   25.4366 H   0  0  0  0  0  0  0  0  0  0  0  0
    3.9498   -3.6457   23.1489 H   0  0  0  0  0  0  0  0  0  0  0  0
    5.7915   -4.3597   21.7434 H   0  0  0  0  0  0  0  0  0  0  0  0
    7.3657   -4.8073   22.4623 H   0  0  0  0  0  0  0  0  0  0  0  0
    6.2378   -1.9220   21.4159 C   0  0  0  0  0  0  0  0  0  0  0  0
    5.0623   -2.2083   21.2731 O   0  0  0  0  0  0  0  0  0  0  0  0
    6.8019   -0.5882   20.9051 C   0  0  0  0  0  0  0  0  0  0  0  0
    5.9628   -0.0075   19.8088 C   0  0  0  0  0  0  0  0  0  0  0  0
    6.3768   -0.1192   18.5046 C   0  0  0  0  0  0  0  0  0  0  0  0
    5.7144    0.3574   17.4245 N   0  0  0  0  0  0  0  0  0  0  0  0
    4.5836    0.9859   17.6476 C   0  0  0  0  0  0  0  0  0  0  0  0
    4.0331    1.1642   18.9492 C   0  0  0  0  0  0  0  0  0  0  0  0
    2.7935    1.8100   19.1655 C   0  0  0  0  0  0  0  0  0  0  0  0
    2.1641    2.3170   18.0904 F   0  0  0  0  0  0  0  0  0  0  0  0
    2.2134    1.9019   20.3950 C   0  0  0  0  0  0  0  0  0  0  0  0
    2.8694    1.3177   21.4936 C   0  0  0  0  0  0  0  0  0  0  0  0
    4.0742    0.6785   21.3436 C   0  0  0  0  0  0  0  0  0  0  0  0
    4.7070    0.6217   20.0684 C   0  0  0  0  0  0  0  0  0  0  0  0
    4.5208    0.1822   22.1946 H   0  0  0  0  0  0  0  0  0  0  0  0
    2.4251    1.4014   22.4787 H   0  0  0  0  0  0  0  0  0  0  0  0
    1.2759    2.4316   20.5090 H   0  0  0  0  0  0  0  0  0  0  0  0
    4.0511    1.3945   16.7908 H   0  0  0  0  0  0  0  0  0  0  0  0
    7.3122   -0.6251   18.2633 H   0  0  0  0  0  0  0  0  0  0  0  0
    6.8590    0.1305   21.7356 H   0  0  0  0  0  0  0  0  0  0  0  0
    7.8290   -0.7548   20.5606 H   0  0  0  0  0  0  0  0  0  0  0  0
    8.6128   -1.4391   23.4074 C   0  0  0  0  0  0  0  0  0  0  0  0
    9.8995   -1.1042   23.8587 C   0  0  0  0  0  0  0  0  0  0  0  0
    7.7451   -0.9134   23.7888 H   0  0  0  0  0  0  0  0  0  0  0  0
    9.3789   -3.9646   21.3009 H   0  0  0  0  0  0  0  0  0  0  0  0
   11.6529   -3.4096   22.1156 H   0  0  0  0  0  0  0  0  0  0  0  0
   13.0327   -2.3345   24.0333 H   0  0  0  0  0  0  0  0  0  0  0  0
   12.9416   -0.9055   23.0334 H   0  0  0  0  0  0  0  0  0  0  0  0
   13.4060   -0.1627   25.3144 H   0  0  0  0  0  0  0  0  0  0  0  0
   12.0419   -1.0855   25.9482 H   0  0  0  0  0  0  0  0  0  0  0  0
   11.6608    1.0838   23.8462 H   0  0  0  0  0  0  0  0  0  0  0  0
   11.4306    1.3482   25.5763 H   0  0  0  0  0  0  0  0  0  0  0  0
    9.7330    2.5574   25.0884 H   0  0  0  0  0  0  0  0  0  0  0  0
    8.1864    2.4156   25.9760 H   0  0  0  0  0  0  0  0  0  0  0  0
    7.8578    3.3924   23.6558 H   0  0  0  0  0  0  0  0  0  0  0  0
    7.0266    1.8338   23.8300 H   0  0  0  0  0  0  0  0  0  0  0  0
    8.5739    1.9293   22.9551 H   0  0  0  0  0  0  0  0  0  0  0  0
  1  2  1  0
  2  3  1  0
  3  4  2  0
  3  5  1  0
  5  6  1  0
  6  7  1  0
  7  8  1  0
  8  9  1  0
  9 10  2  0
 10 11  1  0
 11 12  2  0
 12 13  1  0
 13 14  1  0
 14 15  1  0
 15 16  2  0
 16 17  1  0
 17 18  2  0
 18 19  1  0
 19 20  1  0
 19 21  2  0
 21 22  1  0
 18 23  1  0
 17 24  1  0
 16 25  1  0
 14 26  1  0
 14 27  1  0
 13 28  1  0
 28 29  2  0
 28 30  1  0
 30 31  1  0
 31 32  2  0
 32 33  1  0
 33 34  2  0
 34 35  1  0
 35 36  2  0
 36 37  1  0
 36 38  1  0
 38 39  2  0
 39 40  1  0
 40 41  2  0
 40 42  1  0
 39 43  1  0
 38 44  1  0
 34 45  1  0
 32 46  1  0
 30 47  1  0
 30 48  1  0
 12 49  1  0
 49 50  2  0
 49 51  1  0
 11 52  1  0
 10 53  1  0
  8 54  1  0
  8 55  1  0
  7 56  1  0
  7 57  1  0
  6 58  1  0
  6 59  1  0
  2 60  1  0
  2 61  1  0
  1 62  1  0
  1 63  1  0
  1 64  1  0
 50  5  1  0
 50  9  1  0
 21 15  1  0
 41 31  1  0
 41 35  1  0
M  END
>  <cnnaffinities>  (70) 
[7.19227, 7.09993]

>  <score>  (70) 
7.19227

>  <index>  (70) 
69

>  <Smiles>  (70) 
C(C(C(=O)N1C(C(C(c2c(c(c(N(C(c3c(c(c(c(Cl)c3[H])[H])[H])[H])([H])[H])C(=O)C(c3c(nc(c4c(F)c(c(c(c34)[H])[H])[H])[H])[H])([H])[H])c(c12)[H])[H])[H])([H])[H])([H])[H])([H])[H])([H])[H])([H])([H])[H]

>  <h>  (70) 
<NA>

>  <Training>  (70) 
True

>  <Success>  (70) 
True

>  <enamine_searched>  (70) 
False

>  <enamine_id>  (70) 
nan

$$$$

     RDKit          3D

 57 62  0  0  0  0  0  0  0  0999 V2000
    7.2040   -3.0139   23.4580 C   0  0  0  0  0  0  0  0  0  0  0  0
    7.2401   -2.3123   22.1122 C   0  0  1  0  0  0  0  0  0  0  0  0
    5.9941   -1.4590   21.8257 C   0  0  0  0  0  0  0  0  0  0  0  0
    6.4531   -0.4371   20.8903 N   0  0  0  0  0  0  0  0  0  0  0  0
    5.7014    0.1000   19.8168 C   0  0  0  0  0  0  0  0  0  0  0  0
    6.2207    0.1017   18.5388 C   0  0  0  0  0  0  0  0  0  0  0  0
    5.5659    0.5448   17.4421 N   0  0  0  0  0  0  0  0  0  0  0  0
    4.3689    1.0423   17.6135 C   0  0  0  0  0  0  0  0  0  0  0  0
    3.7219    1.1405   18.8727 C   0  0  0  0  0  0  0  0  0  0  0  0
    2.4524    1.7617   18.9986 C   0  0  0  0  0  0  0  0  0  0  0  0
    1.8682    1.8969   20.2256 C   0  0  0  0  0  0  0  0  0  0  0  0
    2.5235    1.4059   21.3770 C   0  0  0  0  0  0  0  0  0  0  0  0
    3.7495    0.7916   21.2798 C   0  0  0  0  0  0  0  0  0  0  0  0
    4.3885    0.6479   20.0171 C   0  0  0  0  0  0  0  0  0  0  0  0
    4.2546    0.4604   22.1811 H   0  0  0  0  0  0  0  0  0  0  0  0
    2.0660    1.5419   22.3522 H   0  0  0  0  0  0  0  0  0  0  0  0
    0.9111    2.4008   20.3264 H   0  0  0  0  0  0  0  0  0  0  0  0
    1.9825    2.1520   18.1014 H   0  0  0  0  0  0  0  0  0  0  0  0
    3.8569    1.4097   16.7264 H   0  0  0  0  0  0  0  0  0  0  0  0
    7.2212   -0.2742   18.3487 H   0  0  0  0  0  0  0  0  0  0  0  0
    7.8219   -0.2538   20.9717 C   0  0  0  0  0  0  0  0  0  0  0  0
    8.4415    0.6256   20.4052 O   0  0  0  0  0  0  0  0  0  0  0  0
    8.4468   -1.3464   21.8604 C   0  0  1  0  0  0  0  0  0  0  0  0
    9.0060   -0.6280   23.1209 C   0  0  0  0  0  0  0  0  0  0  0  0
    9.8436   -1.3505   24.0920 N   0  0  0  0  0  0  0  0  0  0  0  0
    9.5794   -1.1236   25.5035 C   0  0  0  0  0  0  0  0  0  0  0  0
    8.7753   -2.2430   26.0988 C   0  0  0  0  0  0  0  0  0  0  0  0
    9.2003   -3.5283   26.1133 N   0  0  0  0  0  0  0  0  0  0  0  0
    8.3037   -4.2010   26.7895 N   0  0  0  0  0  0  0  0  0  0  0  0
    7.3833   -3.3368   27.1422 N   0  0  0  0  0  0  0  0  0  0  0  0
    6.2574   -3.6723   27.9825 C   0  0  0  0  0  0  0  0  0  0  0  0
    6.1716   -4.7577   28.0110 H   0  0  0  0  0  0  0  0  0  0  0  0
    5.3617   -3.2303   27.5451 H   0  0  0  0  0  0  0  0  0  0  0  0
    6.4174   -3.2760   28.9889 H   0  0  0  0  0  0  0  0  0  0  0  0
    7.6249   -2.0947   26.7449 N   0  0  0  0  0  0  0  0  0  0  0  0
    9.0492   -0.1784   25.6530 H   0  0  0  0  0  0  0  0  0  0  0  0
   10.5533   -1.0673   26.0042 H   0  0  0  0  0  0  0  0  0  0  0  0
   11.1048   -1.8750   23.7901 C   0  0  0  0  0  0  0  0  0  0  0  0
   12.0760   -1.7630   24.5194 O   0  0  0  0  0  0  0  0  0  0  0  0
   11.1751   -2.5907   22.5153 C   0  0  0  0  0  0  0  0  0  0  0  0
   12.4464   -2.4830   21.7169 C   0  0  0  0  0  0  0  0  0  0  0  0
   12.3952   -2.5403   20.3579 C   0  0  0  0  0  0  0  0  0  0  0  0
   12.4452   -2.6638   20.2787 C   0  0  0  0  0  0  0  0  0  0  0  0
   12.4883   -3.7093   19.3792 F   0  0  0  0  0  0  0  0  0  0  0  0
   10.1381   -2.8990   21.7379 C   0  0  0  0  0  0  0  0  0  0  0  0
    9.4819   -2.0946   20.9686 C   0  0  0  0  0  0  0  0  0  0  0  0
    9.1490   -2.0847   19.9281 H   0  0  0  0  0  0  0  0  0  0  0  0
   13.0541   -1.8315   19.4694 H   0  0  0  0  0  0  0  0  0  0  0  0
   13.1164   -1.7635   21.5721 H   0  0  0  0  0  0  0  0  0  0  0  0
    8.1257   -0.2812   23.6788 H   0  0  0  0  0  0  0  0  0  0  0  0
    9.5068    0.2864   22.7715 H   0  0  0  0  0  0  0  0  0  0  0  0
    5.6416   -0.9990   22.7605 H   0  0  0  0  0  0  0  0  0  0  0  0
    5.1725   -2.0374   21.3948 H   0  0  0  0  0  0  0  0  0  0  0  0
    7.3025   -3.0787   21.3301 H   0  0  0  0  0  0  0  0  0  0  0  0
    6.4377   -3.7993   23.4689 H   0  0  0  0  0  0  0  0  0  0  0  0
    6.9617   -2.3124   24.2644 H   0  0  0  0  0  0  0  0  0  0  0  0
    8.1697   -3.4750   23.6866 H   0  0  0  0  0  0  0  0  0  0  0  0
  1  2  1  0
  2  3  1  0
  3  4  1  0
  4  5  1  0
  5  6  2  0
  6  7  1  0
  7  8  2  0
  8  9  1  0
  9 10  2  0
 10 11  1  0
 11 12  2  0
 12 13  1  0
 13 14  2  0
 13 15  1  0
 12 16  1  0
 11 17  1  0
 10 18  1  0
  8 19  1  0
  6 20  1  0
  4 21  1  0
 21 22  2  0
 21 23  1  0
 23 24  1  1
 24 25  1  0
 25 26  1  0
 26 27  1  0
 27 28  1  0
 28 29  2  0
 29 30  1  0
 30 31  1  0
 31 32  1  0
 31 33  1  0
 31 34  1  0
 30 35  1  0
 26 36  1  0
 26 37  1  0
 25 38  1  0
 38 39  2  0
 38 40  1  0
 40 41  2  0
 41 42  1  0
 42 43  2  0
 43 44  1  0
 43 45  1  0
 45 46  2  0
 45 47  1  0
 42 48  1  0
 41 49  1  0
 24 50  1  0
 24 51  1  0
  3 52  1  0
  3 53  1  0
  2 54  1  6
  1 55  1  0
  1 56  1  0
  1 57  1  0
 23  2  1  0
 35 27  2  0
 46 40  1  0
 14  5  1  0
 46 23  1  0
 14  9  1  0
M  END
>  <cnnaffinities>  (71) 
[5.98823]

>  <score>  (71) 
5.98823

>  <index>  (71) 
70

>  <Smiles>  (71) 
C([C@]1(C(N(c2c(nc(c3c(c(c(c(c23)[H])[H])[H])[H])[H])[H])C(=O)[C@]21C(N(C(c1nnn(C([H])([H])[H])n1)([H])[H])C(=O)c1c(c(c(F)c(c21)[H])[H])[H])([H])[H])([H])[H])[H])([H])([H])[H]

>  <h>  (71) 
<NA>

>  <Training>  (71) 
True

>  <Success>  (71) 
True

>  <enamine_searched>  (71) 
False

>  <enamine_id>  (71) 
nan

$$$$

     RDKit          3D

 59 64  0  0  0  0  0  0  0  0999 V2000
    7.5734   -2.9728   23.5182 C   0  0  0  0  0  0  0  0  0  0  0  0
    7.7870   -2.0655   22.3265 C   0  0  1  0  0  0  0  0  0  0  0  0
    6.4798   -1.5556   21.7266 C   0  0  0  0  0  0  0  0  0  0  0  0
    6.8616   -0.3432   21.0235 N   0  0  0  0  0  0  0  0  0  0  0  0
    6.0892    0.1219   19.9264 C   0  0  0  0  0  0  0  0  0  0  0  0
    6.5836    0.1049   18.6442 C   0  0  0  0  0  0  0  0  0  0  0  0
    5.8755    0.4837   17.5496 N   0  0  0  0  0  0  0  0  0  0  0  0
    4.6596    0.9383   17.7246 C   0  0  0  0  0  0  0  0  0  0  0  0
    4.0088    0.9946   18.9882 C   0  0  0  0  0  0  0  0  0  0  0  0
    2.6986    1.5284   19.1311 C   0  0  0  0  0  0  0  0  0  0  0  0
    2.0924    1.5589   20.3580 C   0  0  0  0  0  0  0  0  0  0  0  0
    2.7767    1.0566   21.4898 C   0  0  0  0  0  0  0  0  0  0  0  0
    4.0587    0.5707   21.3790 C   0  0  0  0  0  0  0  0  0  0  0  0
    4.7200    0.5312   20.1197 C   0  0  0  0  0  0  0  0  0  0  0  0
    4.6073    0.2779   22.2668 H   0  0  0  0  0  0  0  0  0  0  0  0
    2.2917    1.0824   22.4615 H   0  0  0  0  0  0  0  0  0  0  0  0
    1.0992    1.9864   20.4702 H   0  0  0  0  0  0  0  0  0  0  0  0
    2.2300    1.9542   18.2471 H   0  0  0  0  0  0  0  0  0  0  0  0
    4.1165    1.2637   16.8346 H   0  0  0  0  0  0  0  0  0  0  0  0
    7.5938   -0.2471   18.4472 H   0  0  0  0  0  0  0  0  0  0  0  0
    8.1826    0.0155   21.2708 C   0  0  0  0  0  0  0  0  0  0  0  0
    8.7978    0.8454   20.6318 O   0  0  0  0  0  0  0  0  0  0  0  0
    8.6726   -0.7868   22.5168 C   0  0  1  0  0  0  0  0  0  0  0  0
    8.4069    0.0743   23.7692 C   0  0  0  0  0  0  0  0  0  0  0  0
    9.0948   -0.4117   24.9679 N   0  0  0  0  0  0  0  0  0  0  0  0
    8.5079   -0.1206   26.2673 C   0  0  0  0  0  0  0  0  0  0  0  0
    7.3789   -1.0216   26.6814 C   0  0  0  0  0  0  0  0  0  0  0  0
    6.2191   -0.5076   27.0276 N   0  0  0  0  0  0  0  0  0  0  0  0
    5.4000   -1.5713   27.2940 C   0  0  0  0  0  0  0  0  0  0  0  0
    6.0847   -2.7364   27.1160 C   0  0  0  0  0  0  0  0  0  0  0  0
    7.3687   -2.3904   26.7370 N   0  0  0  0  0  0  0  0  0  0  0  0
    8.4365   -3.3591   26.5134 C   0  0  0  0  0  0  0  0  0  0  0  0
    8.0562   -4.1691   25.8806 H   0  0  0  0  0  0  0  0  0  0  0  0
    9.3005   -2.8915   26.0312 H   0  0  0  0  0  0  0  0  0  0  0  0
    8.7608   -3.8200   27.4478 H   0  0  0  0  0  0  0  0  0  0  0  0
    5.7706   -3.7628   27.2009 H   0  0  0  0  0  0  0  0  0  0  0  0
    4.3625   -1.4177   27.5798 H   0  0  0  0  0  0  0  0  0  0  0  0
    8.0639    0.8818   26.2659 H   0  0  0  0  0  0  0  0  0  0  0  0
    9.3284   -0.1379   26.9944 H   0  0  0  0  0  0  0  0  0  0  0  0
   10.4512   -0.6383   24.9269 C   0  0  0  0  0  0  0  0  0  0  0  0
   11.1841   -0.5110   25.8988 O   0  0  0  0  0  0  0  0  0  0  0  0
   10.9585   -1.1384   23.6239 C   0  0  0  0  0  0  0  0  0  0  0  0
   12.2389   -1.6922   23.5769 C   0  0  0  0  0  0  0  0  0  0  0  0
   12.7252   -2.2379   22.4048 C   0  0  0  0  0  0  0  0  0  0  0  0
   11.9256   -2.1840   21.2701 C   0  0  0  0  0  0  0  0  0  0  0  0
   12.4169   -2.7103   20.1367 F   0  0  0  0  0  0  0  0  0  0  0  0
   10.6527   -1.6506   21.3078 C   0  0  0  0  0  0  0  0  0  0  0  0
   10.1384   -1.1438   22.4965 C   0  0  0  0  0  0  0  0  0  0  0  0
    9.9845   -1.6155   20.4651 H   0  0  0  0  0  0  0  0  0  0  0  0
   13.6955   -2.7145   22.3288 H   0  0  0  0  0  0  0  0  0  0  0  0
   12.8295   -1.6961   24.4860 H   0  0  0  0  0  0  0  0  0  0  0  0
    7.3413    0.1143   23.9927 H   0  0  0  0  0  0  0  0  0  0  0  0
    8.7267    1.0972   23.5263 H   0  0  0  0  0  0  0  0  0  0  0  0
    5.7532   -1.3624   22.5246 H   0  0  0  0  0  0  0  0  0  0  0  0
    6.0344   -2.2597   21.0179 H   0  0  0  0  0  0  0  0  0  0  0  0
    8.3075   -2.6369   21.5460 H   0  0  0  0  0  0  0  0  0  0  0  0
    8.5300   -3.3665   23.8740 H   0  0  0  0  0  0  0  0  0  0  0  0
    7.0743   -2.4409   24.3335 H   0  0  0  0  0  0  0  0  0  0  0  0
    6.9450   -3.8278   23.2410 H   0  0  0  0  0  0  0  0  0  0  0  0
  1  2  1  0
  2  3  1  0
  3  4  1  0
  4  5  1  0
  5  6  2  0
  6  7  1  0
  7  8  2  0
  8  9  1  0
  9 10  2  0
 10 11  1  0
 11 12  2  0
 12 13  1  0
 13 14  2  0
 13 15  1  0
 12 16  1  0
 11 17  1  0
 10 18  1  0
  8 19  1  0
  6 20  1  0
  4 21  1  0
 21 22  2  0
 21 23  1  0
 23 24  1  1
 24 25  1  0
 25 26  1  0
 26 27  1  0
 27 28  2  0
 28 29  1  0
 29 30  2  0
 30 31  1  0
 31 32  1  0
 32 33  1  0
 32 34  1  0
 32 35  1  0
 30 36  1  0
 29 37  1  0
 26 38  1  0
 26 39  1  0
 25 40  1  0
 40 41  2  0
 40 42  1  0
 42 43  2  0
 43 44  1  0
 44 45  2  0
 45 46  1  0
 45 47  1  0
 47 48  2  0
 47 49  1  0
 44 50  1  0
 43 51  1  0
 24 52  1  0
 24 53  1  0
  3 54  1  0
  3 55  1  0
  2 56  1  6
  1 57  1  0
  1 58  1  0
  1 59  1  0
 23  2  1  0
 31 27  1  0
 48 42  1  0
 14  5  1  0
 48 23  1  0
 14  9  1  0
M  END
>  <cnnaffinities>  (72) 
[6.3098, 6.36405]

>  <score>  (72) 
6.3098

>  <index>  (72) 
71

>  <Smiles>  (72) 
C([C@]1(C(N(c2c(nc(c3c(c(c(c(c23)[H])[H])[H])[H])[H])[H])C(=O)[C@]21C(N(C(c1nc(c(n1C([H])([H])[H])[H])[H])([H])[H])C(=O)c1c(c(c(F)c(c21)[H])[H])[H])([H])[H])([H])[H])[H])([H])([H])[H]

>  <h>  (72) 
<NA>

>  <Training>  (72) 
True

>  <Success>  (72) 
True

>  <enamine_searched>  (72) 
False

>  <enamine_id>  (72) 
nan

$$$$

     RDKit          3D

 60 64  0  0  0  0  0  0  0  0999 V2000
    7.8571   -8.5143   23.0995 C   0  0  0  0  0  0  0  0  0  0  0  0
    6.9293   -7.4424   22.8236 N   0  0  0  0  0  0  0  0  0  0  0  0
    7.1453   -6.6212   21.7648 C   0  0  0  0  0  0  0  0  0  0  0  0
    7.9835   -6.8296   20.9045 O   0  0  0  0  0  0  0  0  0  0  0  0
    6.2392   -5.3869   21.7644 C   0  0  0  0  0  0  0  0  0  0  0  0
    6.7037   -4.3956   22.7160 N   0  0  0  0  0  0  0  0  0  0  0  0
    7.7858   -3.4996   22.3545 C   0  0  0  0  0  0  0  0  0  0  0  0
    7.4074   -2.0400   22.6936 C   0  0  2  0  0  0  0  0  0  0  0  0
    6.3013   -1.6172   21.7084 C   0  0  0  0  0  0  0  0  0  0  0  0
    5.2168   -2.1529   21.5820 O   0  0  0  0  0  0  0  0  0  0  0  0
    6.7486   -0.5552   20.9476 N   0  0  0  0  0  0  0  0  0  0  0  0
    5.9795   -0.0137   19.8973 C   0  0  0  0  0  0  0  0  0  0  0  0
    6.4548   -0.0699   18.6084 C   0  0  0  0  0  0  0  0  0  0  0  0
    5.7924    0.3907   17.5248 N   0  0  0  0  0  0  0  0  0  0  0  0
    4.6327    0.9638   17.7260 C   0  0  0  0  0  0  0  0  0  0  0  0
    4.0236    1.0963   19.0022 C   0  0  0  0  0  0  0  0  0  0  0  0
    2.7507    1.7088   19.1386 C   0  0  0  0  0  0  0  0  0  0  0  0
    2.1580    1.7984   20.3682 C   0  0  0  0  0  0  0  0  0  0  0  0
    2.7983    1.2487   21.5037 C   0  0  0  0  0  0  0  0  0  0  0  0
    4.0254    0.6425   21.3970 C   0  0  0  0  0  0  0  0  0  0  0  0
    4.6875    0.5695   20.1317 C   0  0  0  0  0  0  0  0  0  0  0  0
    4.4768    0.2018   22.2811 H   0  0  0  0  0  0  0  0  0  0  0  0
    2.3118    1.3068   22.4740 H   0  0  0  0  0  0  0  0  0  0  0  0
    1.1951    2.2858   20.4837 H   0  0  0  0  0  0  0  0  0  0  0  0
    2.2688    2.1092   18.2517 H   0  0  0  0  0  0  0  0  0  0  0  0
    4.1007    1.3374   16.8510 H   0  0  0  0  0  0  0  0  0  0  0  0
    7.3887   -0.5904   18.3980 H   0  0  0  0  0  0  0  0  0  0  0  0
    8.2004   -0.4565   20.9915 C   0  0  0  0  0  0  0  0  0  0  0  0
    8.5457   -1.0278   22.3701 C   0  0  2  0  0  0  0  0  0  0  0  0
    9.9047   -1.5099   22.4403 N   0  0  0  0  0  0  0  0  0  0  0  0
   10.5558   -1.6973   23.6325 C   0  0  0  0  0  0  0  0  0  0  0  0
   10.1172   -1.2700   24.6865 O   0  0  0  0  0  0  0  0  0  0  0  0
   11.8467   -2.4791   23.5059 C   0  0  0  0  0  0  0  0  0  0  0  0
   11.6575   -3.4694   23.0724 H   0  0  0  0  0  0  0  0  0  0  0  0
   12.2956   -2.5863   24.4939 H   0  0  0  0  0  0  0  0  0  0  0  0
   12.5397   -1.9599   22.8364 H   0  0  0  0  0  0  0  0  0  0  0  0
   10.3117   -1.8983   21.6014 H   0  0  0  0  0  0  0  0  0  0  0  0
    8.4681   -0.2256   23.0956 H   0  0  0  0  0  0  0  0  0  0  0  0
    8.5099    0.5821   20.8704 H   0  0  0  0  0  0  0  0  0  0  0  0
    8.6751   -1.0598   20.2028 H   0  0  0  0  0  0  0  0  0  0  0  0
    6.8968   -1.9882   24.1256 C   0  0  0  0  0  0  0  0  0  0  0  0
    6.8425   -0.7677   24.8148 C   0  0  0  0  0  0  0  0  0  0  0  0
    6.3856   -0.7297   26.1174 C   0  0  0  0  0  0  0  0  0  0  0  0
    6.3692    0.7962   26.9615 Cl  0  0  0  0  0  0  0  0  0  0  0  0
    5.9420   -1.8844   26.7644 C   0  0  0  0  0  0  0  0  0  0  0  0
    5.9221   -3.0802   26.0701 C   0  0  0  0  0  0  0  0  0  0  0  0
    6.3741   -3.1324   24.7508 C   0  0  0  0  0  0  0  0  0  0  0  0
    6.2122   -4.4080   23.9825 C   0  0  0  0  0  0  0  0  0  0  0  0
    5.6243   -5.3941   24.4425 O   0  0  0  0  0  0  0  0  0  0  0  0
    5.5469   -3.9921   26.5262 H   0  0  0  0  0  0  0  0  0  0  0  0
    5.5941   -1.8220   27.7876 H   0  0  0  0  0  0  0  0  0  0  0  0
    7.1386    0.1633   24.3426 H   0  0  0  0  0  0  0  0  0  0  0  0
    7.9526   -3.5905   21.2836 H   0  0  0  0  0  0  0  0  0  0  0  0
    8.7030   -3.7861   22.8788 H   0  0  0  0  0  0  0  0  0  0  0  0
    6.2141   -4.9470   20.7621 H   0  0  0  0  0  0  0  0  0  0  0  0
    5.2203   -5.6529   22.0631 H   0  0  0  0  0  0  0  0  0  0  0  0
    6.3563   -7.0807   23.5783 H   0  0  0  0  0  0  0  0  0  0  0  0
    8.8256   -8.1318   23.4377 H   0  0  0  0  0  0  0  0  0  0  0  0
    8.0291   -9.0996   22.1953 H   0  0  0  0  0  0  0  0  0  0  0  0
    7.4393   -9.1559   23.8768 H   0  0  0  0  0  0  0  0  0  0  0  0
  1  2  1  0
  2  3  1  0
  3  4  2  0
  3  5  1  0
  5  6  1  0
  6  7  1  0
  8  7  1  6
  8  9  1  0
  9 10  2  0
  9 11  1  0
 11 12  1  0
 12 13  2  0
 13 14  1  0
 14 15  2  0
 15 16  1  0
 16 17  2  0
 17 18  1  0
 18 19  2  0
 19 20  1  0
 20 21  2  0
 20 22  1  0
 19 23  1  0
 18 24  1  0
 17 25  1  0
 15 26  1  0
 13 27  1  0
 11 28  1  0
 28 29  1  0
 29 30  1  0
 30 31  1  0
 31 32  2  0
 31 33  1  0
 33 34  1  0
 33 35  1  0
 33 36  1  0
 30 37  1  0
 29 38  1  1
 28 39  1  0
 28 40  1  0
  8 41  1  0
 41 42  2  0
 42 43  1  0
 43 44  1  0
 43 45  2  0
 45 46  1  0
 46 47  2  0
 47 48  1  0
 48 49  2  0
 46 50  1  0
 45 51  1  0
 42 52  1  0
  7 53  1  0
  7 54  1  0
  5 55  1  0
  5 56  1  0
  2 57  1  0
  1 58  1  0
  1 59  1  0
  1 60  1  0
 48  6  1  0
 29  8  1  0
 47 41  1  0
 21 12  1  0
 21 16  1  0
M  END
>  <cnnaffinities>  (73) 
[6.93261]

>  <score>  (73) 
6.93261

>  <index>  (73) 
72

>  <Smiles>  (73) 
C(N(C(=O)C(N1C([C@@]2(C(=O)N(c3c(nc(c4c(c(c(c(c34)[H])[H])[H])[H])[H])[H])C([C@@]2(N(C(=O)C([H])([H])[H])[H])[H])([H])[H])c2c(c(Cl)c(c(c2C1=O)[H])[H])[H])([H])[H])([H])[H])[H])([H])([H])[H]

>  <h>  (73) 
<NA>

>  <Training>  (73) 
True

>  <Success>  (73) 
True

>  <enamine_searched>  (73) 
False

>  <enamine_id>  (73) 
nan

$$$$

     RDKit          3D

 56 61  0  0  0  0  0  0  0  0999 V2000
    7.5847   -2.9188   23.6495 C   0  0  0  0  0  0  0  0  0  0  0  0
    7.7136   -2.1612   22.3356 C   0  0  1  0  0  0  0  0  0  0  0  0
    6.3590   -1.6383   21.8455 C   0  0  0  0  0  0  0  0  0  0  0  0
    6.7175   -0.5520   20.9462 N   0  0  0  0  0  0  0  0  0  0  0  0
    5.9116   -0.0539   19.8988 C   0  0  0  0  0  0  0  0  0  0  0  0
    6.4374    0.0398   18.6275 C   0  0  0  0  0  0  0  0  0  0  0  0
    5.7646    0.4952   17.5479 N   0  0  0  0  0  0  0  0  0  0  0  0
    4.5356    0.9061   17.7286 C   0  0  0  0  0  0  0  0  0  0  0  0
    3.8710    0.8989   18.9854 C   0  0  0  0  0  0  0  0  0  0  0  0
    2.5599    1.4269   19.1158 C   0  0  0  0  0  0  0  0  0  0  0  0
    1.9305    1.4216   20.3280 C   0  0  0  0  0  0  0  0  0  0  0  0
    2.6074    0.9316   21.4657 C   0  0  0  0  0  0  0  0  0  0  0  0
    3.8862    0.4372   21.3667 C   0  0  0  0  0  0  0  0  0  0  0  0
    4.5633    0.4047   20.1152 C   0  0  0  0  0  0  0  0  0  0  0  0
    4.3979    0.1139   22.2640 H   0  0  0  0  0  0  0  0  0  0  0  0
    2.1198    0.9649   22.4359 H   0  0  0  0  0  0  0  0  0  0  0  0
    0.9307    1.8319   20.4350 H   0  0  0  0  0  0  0  0  0  0  0  0
    2.0888    1.8625   18.2359 H   0  0  0  0  0  0  0  0  0  0  0  0
    4.0236    1.3388   16.8706 H   0  0  0  0  0  0  0  0  0  0  0  0
    7.4671   -0.2496   18.4425 H   0  0  0  0  0  0  0  0  0  0  0  0
    8.0356   -0.1451   21.1071 C   0  0  0  0  0  0  0  0  0  0  0  0
    8.5703    0.7310   20.4584 O   0  0  0  0  0  0  0  0  0  0  0  0
    8.6559   -0.9210   22.2950 C   0  0  1  0  0  0  0  0  0  0  0  0
    8.5201   -0.0067   23.5487 C   0  0  0  0  0  0  0  0  0  0  0  0
    9.5157    1.0636   23.5610 N   0  0  0  0  0  0  0  0  0  0  0  0
    9.1061    2.4692   23.6667 C   0  0  0  0  0  0  0  0  0  0  0  0
    9.7466    3.4351   22.6357 C   0  0  0  0  0  0  0  0  0  0  0  0
   10.8031    3.8004   23.6487 N   0  0  0  0  0  4  0  0  0  0  0  0
    9.8757    3.2912   24.7222 C   0  0  0  0  0  0  0  0  0  0  0  0
    9.2869    4.0912   25.1780 H   0  0  0  0  0  0  0  0  0  0  0  0
   10.4093    2.7118   25.4593 H   0  0  0  0  0  0  0  0  0  0  0  0
   11.5649    3.0856   23.5903 H   0  0  0  0  0  0  0  0  0  0  0  0
   11.2356    4.7291   23.6940 H   0  0  0  0  0  0  0  0  0  0  0  0
    9.1001    4.2831   22.4115 H   0  0  0  0  0  0  0  0  0  0  0  0
   10.1340    3.0230   21.7095 H   0  0  0  0  0  0  0  0  0  0  0  0
    8.0163    2.4786   23.7342 H   0  0  0  0  0  0  0  0  0  0  0  0
   10.8332    0.7122   23.5160 C   0  0  0  0  0  0  0  0  0  0  0  0
   11.7675    1.4138   23.9320 O   0  0  0  0  0  0  0  0  0  0  0  0
   11.1165   -0.5679   22.8329 C   0  0  0  0  0  0  0  0  0  0  0  0
   12.4508   -0.9706   22.8037 C   0  0  0  0  0  0  0  0  0  0  0  0
   12.8552   -1.9697   21.9574 C   0  0  0  0  0  0  0  0  0  0  0  0
   11.9242   -2.4986   21.0670 C   0  0  0  0  0  0  0  0  0  0  0  0
   12.5242   -3.3721   19.6831 Cl  0  0  0  0  0  0  0  0  0  0  0  0
   10.5706   -2.2189   21.1990 C   0  0  0  0  0  0  0  0  0  0  0  0
   10.1282   -1.2587   22.1185 C   0  0  0  0  0  0  0  0  0  0  0  0
    9.8631   -2.6893   20.5282 H   0  0  0  0  0  0  0  0  0  0  0  0
   13.8921   -2.2706   21.9300 H   0  0  0  0  0  0  0  0  0  0  0  0
   13.1771   -0.4373   23.4072 H   0  0  0  0  0  0  0  0  0  0  0  0
    8.6516   -0.6290   24.4447 H   0  0  0  0  0  0  0  0  0  0  0  0
    7.5330    0.4581   23.5742 H   0  0  0  0  0  0  0  0  0  0  0  0
    5.7747   -2.4086   21.3347 H   0  0  0  0  0  0  0  0  0  0  0  0
    5.7710   -1.2938   22.7074 H   0  0  0  0  0  0  0  0  0  0  0  0
    8.0978   -2.8483   21.5744 H   0  0  0  0  0  0  0  0  0  0  0  0
    6.9097   -3.7719   23.5209 H   0  0  0  0  0  0  0  0  0  0  0  0
    7.1602   -2.2871   24.4390 H   0  0  0  0  0  0  0  0  0  0  0  0
    8.5463   -3.3058   23.9981 H   0  0  0  0  0  0  0  0  0  0  0  0
  1  2  1  0
  2  3  1  0
  3  4  1  0
  4  5  1  0
  5  6  2  0
  6  7  1  0
  7  8  2  0
  8  9  1  0
  9 10  2  0
 10 11  1  0
 11 12  2  0
 12 13  1  0
 13 14  2  0
 13 15  1  0
 12 16  1  0
 11 17  1  0
 10 18  1  0
  8 19  1  0
  6 20  1  0
  4 21  1  0
 21 22  2  0
 21 23  1  0
 23 24  1  1
 24 25  1  0
 25 26  1  0
 26 27  1  0
 27 28  1  0
 28 29  1  0
 29 30  1  0
 29 31  1  0
 28 32  1  0
 28 33  1  0
 27 34  1  0
 27 35  1  0
 26 36  1  0
 25 37  1  0
 37 38  2  0
 37 39  1  0
 39 40  2  0
 40 41  1  0
 41 42  2  0
 42 43  1  0
 42 44  1  0
 44 45  2  0
 44 46  1  0
 41 47  1  0
 40 48  1  0
 24 49  1  0
 24 50  1  0
  3 51  1  0
  3 52  1  0
  2 53  1  6
  1 54  1  0
  1 55  1  0
  1 56  1  0
 23  2  1  0
 29 26  1  0
 45 39  1  0
 14  5  1  0
 45 23  1  0
 14  9  1  0
M  CHG  1  28   1
M  END
>  <cnnaffinities>  (74) 
[6.25236, 6.35618, 6.35491, 6.26877, 6.26907, 6.10939]

>  <score>  (74) 
6.25236

>  <index>  (74) 
73

>  <Smiles>  (74) 
C([C@]1(C(N(c2c(nc(c3c(c(c(c(c23)[H])[H])[H])[H])[H])[H])C(=O)[C@]21C(N(C1(C([N+](C1([H])[H])([H])[H])([H])[H])[H])C(=O)c1c(c(c(Cl)c(c21)[H])[H])[H])([H])[H])([H])[H])[H])([H])([H])[H]

>  <h>  (74) 
<NA>

>  <Training>  (74) 
True

>  <Success>  (74) 
True

>  <enamine_searched>  (74) 
False

>  <enamine_id>  (74) 
nan

$$$$

     RDKit          3D

 55 60  0  0  0  0  0  0  0  0999 V2000
    7.7341   -3.0210   23.2865 C   0  0  0  0  0  0  0  0  0  0  0  0
    8.0055   -1.9439   22.2472 C   0  0  1  0  0  0  0  0  0  0  0  0
    6.8315   -1.8231   21.2671 C   0  0  0  0  0  0  0  0  0  0  0  0
    6.8535   -0.4359   20.8774 N   0  0  0  0  0  0  0  0  0  0  0  0
    6.0301    0.0455   19.8334 C   0  0  0  0  0  0  0  0  0  0  0  0
    6.4108   -0.1778   18.5369 C   0  0  0  0  0  0  0  0  0  0  0  0
    5.7339    0.2721   17.4581 N   0  0  0  0  0  0  0  0  0  0  0  0
    4.6547    0.9789   17.6745 C   0  0  0  0  0  0  0  0  0  0  0  0
    4.0966    1.1986   18.9618 C   0  0  0  0  0  0  0  0  0  0  0  0
    2.8696    1.8913   19.1241 C   0  0  0  0  0  0  0  0  0  0  0  0
    2.3122    2.0349   20.3660 C   0  0  0  0  0  0  0  0  0  0  0  0
    2.9468    1.4733   21.5004 C   0  0  0  0  0  0  0  0  0  0  0  0
    4.1466    0.8134   21.3666 C   0  0  0  0  0  0  0  0  0  0  0  0
    4.7687    0.6777   20.0879 C   0  0  0  0  0  0  0  0  0  0  0  0
    4.6494    0.4080   22.2405 H   0  0  0  0  0  0  0  0  0  0  0  0
    2.4912    1.6013   22.4806 H   0  0  0  0  0  0  0  0  0  0  0  0
    1.3872    2.5953   20.4793 H   0  0  0  0  0  0  0  0  0  0  0  0
    2.4051    2.3002   18.2309 H   0  0  0  0  0  0  0  0  0  0  0  0
    4.1500    1.3755   16.7968 H   0  0  0  0  0  0  0  0  0  0  0  0
    7.3431   -0.7051   18.3351 H   0  0  0  0  0  0  0  0  0  0  0  0
    7.6478    0.3750   21.6590 C   0  0  0  0  0  0  0  0  0  0  0  0
    7.7720    1.5738   21.5007 O   0  0  0  0  0  0  0  0  0  0  0  0
    8.2599   -0.4865   22.7858 C   0  0  1  0  0  0  0  0  0  0  0  0
    7.4529   -0.1196   24.0583 C   0  0  0  0  0  0  0  0  0  0  0  0
    8.0621   -0.5932   25.2940 N   0  0  0  0  0  0  0  0  0  0  0  0
    7.2134   -0.9298   26.4170 C   0  0  0  0  0  0  0  0  0  0  0  0
    6.9915   -2.4057   26.5557 C   0  0  0  0  0  0  0  0  0  0  0  0
    7.9279   -3.4490   26.8050 C   0  0  0  0  0  0  0  0  0  0  0  0
    7.1377   -4.5371   26.9518 C   0  0  0  0  0  0  0  0  0  0  0  0
    5.8508   -4.2137   26.7765 O   0  0  0  0  0  0  0  0  0  0  0  0
    5.7658   -2.8594   26.5214 N   0  0  0  0  0  0  0  0  0  0  0  0
    7.3216   -5.5688   27.2108 H   0  0  0  0  0  0  0  0  0  0  0  0
    9.0050   -3.3984   26.8879 H   0  0  0  0  0  0  0  0  0  0  0  0
    6.2382   -0.4537   26.2965 H   0  0  0  0  0  0  0  0  0  0  0  0
    7.7024   -0.5469   27.3177 H   0  0  0  0  0  0  0  0  0  0  0  0
    9.3996   -0.4549   25.5411 C   0  0  0  0  0  0  0  0  0  0  0  0
    9.8813   -0.5074   26.6674 O   0  0  0  0  0  0  0  0  0  0  0  0
   10.2581   -0.2462   24.3509 C   0  0  0  0  0  0  0  0  0  0  0  0
   11.6232   -0.1147   24.5976 C   0  0  0  0  0  0  0  0  0  0  0  0
   12.5062    0.1478   23.5784 C   0  0  0  0  0  0  0  0  0  0  0  0
   11.9761    0.2532   22.3008 C   0  0  0  0  0  0  0  0  0  0  0  0
   12.8369    0.5480   21.3170 F   0  0  0  0  0  0  0  0  0  0  0  0
   10.6330    0.0613   22.0165 C   0  0  0  0  0  0  0  0  0  0  0  0
    9.7311   -0.1974   23.0558 C   0  0  0  0  0  0  0  0  0  0  0  0
   10.2911    0.1113   20.9913 H   0  0  0  0  0  0  0  0  0  0  0  0
   13.5715    0.2761   23.7461 H   0  0  0  0  0  0  0  0  0  0  0  0
   11.9676   -0.2204   25.6170 H   0  0  0  0  0  0  0  0  0  0  0  0
    7.3422    0.9745   24.0831 H   0  0  0  0  0  0  0  0  0  0  0  0
    6.4443   -0.5446   23.9853 H   0  0  0  0  0  0  0  0  0  0  0  0
    5.8791   -2.1113   21.7451 H   0  0  0  0  0  0  0  0  0  0  0  0
    6.9357   -2.4575   20.3840 H   0  0  0  0  0  0  0  0  0  0  0  0
    8.9049   -2.2127   21.6748 H   0  0  0  0  0  0  0  0  0  0  0  0
    7.6868   -4.0018   22.8008 H   0  0  0  0  0  0  0  0  0  0  0  0
    8.5077   -3.0361   24.0584 H   0  0  0  0  0  0  0  0  0  0  0  0
    6.7716   -2.8352   23.7727 H   0  0  0  0  0  0  0  0  0  0  0  0
  1  2  1  0
  2  3  1  0
  3  4  1  0
  4  5  1  0
  5  6  2  0
  6  7  1  0
  7  8  2  0
  8  9  1  0
  9 10  2  0
 10 11  1  0
 11 12  2  0
 12 13  1  0
 13 14  2  0
 13 15  1  0
 12 16  1  0
 11 17  1  0
 10 18  1  0
  8 19  1  0
  6 20  1  0
  4 21  1  0
 21 22  2  0
 21 23  1  0
 23 24  1  1
 24 25  1  0
 25 26  1  0
 26 27  1  0
 27 28  1  0
 28 29  2  0
 29 30  1  0
 30 31  1  0
 29 32  1  0
 28 33  1  0
 26 34  1  0
 26 35  1  0
 25 36  1  0
 36 37  2  0
 36 38  1  0
 38 39  2  0
 39 40  1  0
 40 41  2  0
 41 42  1  0
 41 43  1  0
 43 44  2  0
 43 45  1  0
 40 46  1  0
 39 47  1  0
 24 48  1  0
 24 49  1  0
  3 50  1  0
  3 51  1  0
  2 52  1  6
  1 53  1  0
  1 54  1  0
  1 55  1  0
 23  2  1  0
 31 27  2  0
 44 38  1  0
 14  5  1  0
 44 23  1  0
 14  9  1  0
M  END
>  <cnnaffinities>  (75) 
[6.43708, 6.31546, 6.46711]

>  <score>  (75) 
6.43708

>  <index>  (75) 
74

>  <Smiles>  (75) 
C([C@]1(C(N(c2c(nc(c3c(c(c(c(c23)[H])[H])[H])[H])[H])[H])C(=O)[C@]21C(N(C(c1c(c(on1)[H])[H])([H])[H])C(=O)c1c(c(c(F)c(c21)[H])[H])[H])([H])[H])([H])[H])[H])([H])([H])[H]

>  <h>  (75) 
<NA>

>  <Training>  (75) 
True

>  <Success>  (75) 
True

>  <enamine_searched>  (75) 
False

>  <enamine_id>  (75) 
nan

$$$$

     RDKit          3D

 70 75  0  0  0  0  0  0  0  0999 V2000
    7.1963    1.0240   32.9850 C   0  0  0  0  0  0  0  0  0  0  0  0
    5.8589    0.5988   32.8425 O   0  0  0  0  0  0  0  0  0  0  0  0
    5.2941    0.6921   31.6089 C   0  0  0  0  0  0  0  0  0  0  0  0
    3.9805    0.2244   31.4900 C   0  0  0  0  0  0  0  0  0  0  0  0
    3.3412    0.2873   30.2628 C   0  0  0  0  0  0  0  0  0  0  0  0
    3.9899    0.8177   29.1546 C   0  0  0  0  0  0  0  0  0  0  0  0
    5.2881    1.2966   29.2722 C   0  0  0  0  0  0  0  0  0  0  0  0
    5.9875    1.8464   28.0450 C   0  0  0  0  0  0  0  0  0  0  0  0
    6.2472    0.8149   27.0524 N   0  0  0  0  0  0  0  0  0  0  0  0
    7.2066   -0.1100   27.3325 C   0  0  0  0  0  0  0  0  0  0  0  0
    7.8024   -0.0878   28.3898 O   0  0  0  0  0  0  0  0  0  0  0  0
    7.4831   -1.1373   26.2322 C   0  0  0  0  0  0  0  0  0  0  0  0
    8.3118   -0.6171   25.1571 N   0  0  0  0  0  0  0  0  0  0  0  0
    7.7303   -0.0612   23.9490 C   0  0  0  0  0  0  0  0  0  0  0  0
    8.5438   -0.4059   22.6760 C   0  0  2  0  0  0  0  0  0  0  0  0
    7.9048    0.4453   21.5429 C   0  0  0  0  0  0  0  0  0  0  0  0
    8.1331    1.6017   21.2611 O   0  0  0  0  0  0  0  0  0  0  0  0
    6.9233   -0.3314   20.9445 N   0  0  0  0  0  0  0  0  0  0  0  0
    6.0834    0.1210   19.8881 C   0  0  0  0  0  0  0  0  0  0  0  0
    6.4793   -0.0728   18.5867 C   0  0  0  0  0  0  0  0  0  0  0  0
    5.7839    0.3411   17.5002 N   0  0  0  0  0  0  0  0  0  0  0  0
    4.6387    0.9418   17.7026 C   0  0  0  0  0  0  0  0  0  0  0  0
    4.0510    1.1140   18.9850 C   0  0  0  0  0  0  0  0  0  0  0  0
    2.7755    1.7200   19.1379 C   0  0  0  0  0  0  0  0  0  0  0  0
    2.1962    1.7995   20.3727 C   0  0  0  0  0  0  0  0  0  0  0  0
    2.8505    1.2460   21.4946 C   0  0  0  0  0  0  0  0  0  0  0  0
    4.0936    0.6685   21.3711 C   0  0  0  0  0  0  0  0  0  0  0  0
    4.7568    0.6341   20.1152 C   0  0  0  0  0  0  0  0  0  0  0  0
    4.5668    0.2241   22.2405 H   0  0  0  0  0  0  0  0  0  0  0  0
    2.3741    1.3014   22.4667 H   0  0  0  0  0  0  0  0  0  0  0  0
    1.2286    2.2782   20.4994 H   0  0  0  0  0  0  0  0  0  0  0  0
    2.2795    2.1255   18.2592 H   0  0  0  0  0  0  0  0  0  0  0  0
    4.0777    1.2698   16.8276 H   0  0  0  0  0  0  0  0  0  0  0  0
    7.3988   -0.6187   18.3781 H   0  0  0  0  0  0  0  0  0  0  0  0
    6.9982   -1.7346   21.3036 C   0  0  0  0  0  0  0  0  0  0  0  0
    8.2930   -1.8438   22.1169 C   0  0  2  0  0  0  0  0  0  0  0  0
    8.2343   -2.9838   23.1250 C   0  0  0  0  0  0  0  0  0  0  0  0
    9.1340   -3.0383   23.7433 H   0  0  0  0  0  0  0  0  0  0  0  0
    8.1092   -3.9397   22.6085 H   0  0  0  0  0  0  0  0  0  0  0  0
    7.3730   -2.8554   23.7893 H   0  0  0  0  0  0  0  0  0  0  0  0
    9.1240   -2.0151   21.4191 H   0  0  0  0  0  0  0  0  0  0  0  0
    7.0088   -2.3729   20.4138 H   0  0  0  0  0  0  0  0  0  0  0  0
    6.1363   -2.0439   21.9134 H   0  0  0  0  0  0  0  0  0  0  0  0
   10.0135   -0.1376   22.9693 C   0  0  0  0  0  0  0  0  0  0  0  0
   10.9602   -0.0428   21.9397 C   0  0  0  0  0  0  0  0  0  0  0  0
   12.2963    0.2113   22.2207 C   0  0  0  0  0  0  0  0  0  0  0  0
   13.4951    0.3402   20.9624 Cl  0  0  0  0  0  0  0  0  0  0  0  0
   12.7487    0.3602   23.5308 C   0  0  0  0  0  0  0  0  0  0  0  0
   11.8337    0.2197   24.5523 C   0  0  0  0  0  0  0  0  0  0  0  0
   10.4974   -0.0687   24.2802 C   0  0  0  0  0  0  0  0  0  0  0  0
    9.6320   -0.4194   25.4398 C   0  0  0  0  0  0  0  0  0  0  0  0
   10.0972   -0.5563   26.5635 O   0  0  0  0  0  0  0  0  0  0  0  0
   12.1355    0.3046   25.5903 H   0  0  0  0  0  0  0  0  0  0  0  0
   13.8011    0.5273   23.7370 H   0  0  0  0  0  0  0  0  0  0  0  0
   10.6454   -0.1842   20.9173 H   0  0  0  0  0  0  0  0  0  0  0  0
    6.7019   -0.4181   23.8332 H   0  0  0  0  0  0  0  0  0  0  0  0
    7.6924    1.0342   24.0062 H   0  0  0  0  0  0  0  0  0  0  0  0
    6.5392   -1.4920   25.8026 H   0  0  0  0  0  0  0  0  0  0  0  0
    8.0150   -1.9774   26.6808 H   0  0  0  0  0  0  0  0  0  0  0  0
    5.7442    0.8094   26.1784 H   0  0  0  0  0  0  0  0  0  0  0  0
    6.9392    2.2902   28.3490 H   0  0  0  0  0  0  0  0  0  0  0  0
    5.3865    2.6216   27.5614 H   0  0  0  0  0  0  0  0  0  0  0  0
    5.9557    1.2069   30.4968 C   0  0  0  0  0  0  0  0  0  0  0  0
    7.0037    1.4925   30.5494 H   0  0  0  0  0  0  0  0  0  0  0  0
    3.4927    0.8510   28.1884 H   0  0  0  0  0  0  0  0  0  0  0  0
    2.3243   -0.0812   30.1602 H   0  0  0  0  0  0  0  0  0  0  0  0
    3.4818   -0.1897   32.3612 H   0  0  0  0  0  0  0  0  0  0  0  0
    7.3121    2.0962   32.7765 H   0  0  0  0  0  0  0  0  0  0  0  0
    7.4540    0.8273   34.0256 H   0  0  0  0  0  0  0  0  0  0  0  0
    7.8789    0.4648   32.3309 H   0  0  0  0  0  0  0  0  0  0  0  0
  1  2  1  0
  2  3  1  0
  3  4  2  0
  4  5  1  0
  5  6  2  0
  6  7  1  0
  7  8  1  0
  8  9  1  0
  9 10  1  0
 10 11  2  0
 10 12  1  0
 12 13  1  0
 13 14  1  0
 15 14  1  1
 15 16  1  0
 16 17  2  0
 16 18  1  0
 18 19  1  0
 19 20  2  0
 20 21  1  0
 21 22  2  0
 22 23  1  0
 23 24  2  0
 24 25  1  0
 25 26  2  0
 26 27  1  0
 27 28  2  0
 27 29  1  0
 26 30  1  0
 25 31  1  0
 24 32  1  0
 22 33  1  0
 20 34  1  0
 18 35  1  0
 35 36  1  0
 36 37  1  0
 37 38  1  0
 37 39  1  0
 37 40  1  0
 36 41  1  6
 35 42  1  0
 35 43  1  0
 15 44  1  0
 44 45  2  0
 45 46  1  0
 46 47  1  0
 46 48  2  0
 48 49  1  0
 49 50  2  0
 50 51  1  0
 51 52  2  0
 49 53  1  0
 48 54  1  0
 45 55  1  0
 14 56  1  0
 14 57  1  0
 12 58  1  0
 12 59  1  0
  9 60  1  0
  8 61  1  0
  8 62  1  0
  7 63  2  0
 63 64  1  0
  6 65  1  0
  5 66  1  0
  4 67  1  0
  1 68  1  0
  1 69  1  0
  1 70  1  0
 63  3  1  0
 51 13  1  0
 36 15  1  0
 50 44  1  0
 28 19  1  0
 28 23  1  0
M  END
>  <cnnaffinities>  (76) 
[6.60949]

>  <score>  (76) 
6.60949

>  <index>  (76) 
75

>  <Smiles>  (76) 
C(Oc1c(c(c(c(C(N(C(=O)C(N2C([C@@]3(C(=O)N(c4c(nc(c5c(c(c(c(c45)[H])[H])[H])[H])[H])[H])C([C@@]3(C([H])([H])[H])[H])([H])[H])c3c(c(Cl)c(c(c3C2=O)[H])[H])[H])([H])[H])([H])[H])[H])([H])[H])c1[H])[H])[H])[H])([H])([H])[H]

>  <h>  (76) 
<NA>

>  <Training>  (76) 
True

>  <Success>  (76) 
True

>  <enamine_searched>  (76) 
False

>  <enamine_id>  (76) 
nan

$$$$

     RDKit          3D

 61 65  0  0  0  0  0  0  0  0999 V2000
    7.6143   -2.8781   23.6338 C   0  0  0  0  0  0  0  0  0  0  0  0
    7.7944   -2.0914   22.3344 C   0  0  1  0  0  0  0  0  0  0  0  0
    6.4490   -1.6168   21.7610 C   0  0  0  0  0  0  0  0  0  0  0  0
    6.7736   -0.4397   20.9697 N   0  0  0  0  0  0  0  0  0  0  0  0
    5.9704    0.0585   19.9042 C   0  0  0  0  0  0  0  0  0  0  0  0
    6.4723    0.0881   18.6236 C   0  0  0  0  0  0  0  0  0  0  0  0
    5.7677    0.4786   17.5335 N   0  0  0  0  0  0  0  0  0  0  0  0
    4.5567    0.9393   17.7106 C   0  0  0  0  0  0  0  0  0  0  0  0
    3.8970    0.9676   18.9688 C   0  0  0  0  0  0  0  0  0  0  0  0
    2.5858    1.5025   19.1125 C   0  0  0  0  0  0  0  0  0  0  0  0
    1.9763    1.5172   20.3359 C   0  0  0  0  0  0  0  0  0  0  0  0
    2.6513    1.0031   21.4640 C   0  0  0  0  0  0  0  0  0  0  0  0
    3.9265    0.4953   21.3470 C   0  0  0  0  0  0  0  0  0  0  0  0
    4.6057    0.4870   20.0993 C   0  0  0  0  0  0  0  0  0  0  0  0
    4.4355    0.1290   22.2295 H   0  0  0  0  0  0  0  0  0  0  0  0
    2.1557    1.0182   22.4318 H   0  0  0  0  0  0  0  0  0  0  0  0
    0.9737    1.9259   20.4427 H   0  0  0  0  0  0  0  0  0  0  0  0
    2.0949    1.9063   18.2290 H   0  0  0  0  0  0  0  0  0  0  0  0
    4.0185    1.2585   16.8172 H   0  0  0  0  0  0  0  0  0  0  0  0
    7.4906   -0.2361   18.4247 H   0  0  0  0  0  0  0  0  0  0  0  0
    8.0494    0.0232   21.2192 C   0  0  0  0  0  0  0  0  0  0  0  0
    8.5550    0.9727   20.6436 O   0  0  0  0  0  0  0  0  0  0  0  0
    8.6718   -0.7992   22.3931 C   0  0  1  0  0  0  0  0  0  0  0  0
    8.4138   -0.0145   23.7109 C   0  0  0  0  0  0  0  0  0  0  0  0
    9.3610    1.0683   23.9249 N   0  0  0  0  0  0  0  0  0  0  0  0
    8.9016    2.3774   24.3502 C   0  0  0  0  0  0  0  0  0  0  0  0
    8.8471    3.3847   23.1961 C   0  0  0  0  0  0  0  0  0  0  0  0
   10.2156    3.8373   22.7516 N   0  0  0  0  0  4  0  0  0  0  0  0
   10.3226    5.3175   22.7418 C   0  0  0  0  0  0  0  0  0  0  0  0
    9.6087    5.7348   22.0194 H   0  0  0  0  0  0  0  0  0  0  0  0
   10.1080    5.7182   23.7356 H   0  0  0  0  0  0  0  0  0  0  0  0
   11.3342    5.6081   22.4433 H   0  0  0  0  0  0  0  0  0  0  0  0
   10.5961    3.3168   21.4115 C   0  0  0  0  0  0  0  0  0  0  0  0
   11.4162    3.9112   20.9966 H   0  0  0  0  0  0  0  0  0  0  0  0
   10.9377    2.2833   21.5111 H   0  0  0  0  0  0  0  0  0  0  0  0
    9.7451    3.3665   20.7258 H   0  0  0  0  0  0  0  0  0  0  0  0
   10.9002    3.4528   23.4158 H   0  0  0  0  0  0  0  0  0  0  0  0
    8.2856    4.2652   23.5218 H   0  0  0  0  0  0  0  0  0  0  0  0
    8.3314    2.9500   22.3344 H   0  0  0  0  0  0  0  0  0  0  0  0
    9.5938    2.7422   25.1150 H   0  0  0  0  0  0  0  0  0  0  0  0
    7.9119    2.2589   24.7985 H   0  0  0  0  0  0  0  0  0  0  0  0
   10.6948    0.9000   23.7688 C   0  0  0  0  0  0  0  0  0  0  0  0
   11.5099    1.7502   24.1460 O   0  0  0  0  0  0  0  0  0  0  0  0
   11.1093   -0.3190   23.0164 C   0  0  0  0  0  0  0  0  0  0  0  0
   12.4702   -0.6217   22.9804 C   0  0  0  0  0  0  0  0  0  0  0  0
   12.9532   -1.5279   22.0550 C   0  0  0  0  0  0  0  0  0  0  0  0
   12.0434   -2.1445   21.1950 C   0  0  0  0  0  0  0  0  0  0  0  0
   12.6399   -3.1374   19.8899 Cl  0  0  0  0  0  0  0  0  0  0  0  0
   10.6776   -1.9625   21.3278 C   0  0  0  0  0  0  0  0  0  0  0  0
   10.1697   -1.0419   22.2582 C   0  0  0  0  0  0  0  0  0  0  0  0
   10.0198   -2.5287   20.6744 H   0  0  0  0  0  0  0  0  0  0  0  0
   14.0144   -1.7230   21.9612 H   0  0  0  0  0  0  0  0  0  0  0  0
   13.1340   -0.1044   23.6699 H   0  0  0  0  0  0  0  0  0  0  0  0
    7.4102    0.4228   23.6838 H   0  0  0  0  0  0  0  0  0  0  0  0
    8.4763   -0.7020   24.5625 H   0  0  0  0  0  0  0  0  0  0  0  0
    5.9601   -2.3701   21.1344 H   0  0  0  0  0  0  0  0  0  0  0  0
    5.7884   -1.3671   22.5997 H   0  0  0  0  0  0  0  0  0  0  0  0
    8.2456   -2.7629   21.6013 H   0  0  0  0  0  0  0  0  0  0  0  0
    7.0485   -2.2958   24.3706 H   0  0  0  0  0  0  0  0  0  0  0  0
    8.5724   -3.1543   24.0888 H   0  0  0  0  0  0  0  0  0  0  0  0
    7.0455   -3.7976   23.4507 H   0  0  0  0  0  0  0  0  0  0  0  0
  1  2  1  0
  2  3  1  0
  3  4  1  0
  4  5  1  0
  5  6  2  0
  6  7  1  0
  7  8  2  0
  8  9  1  0
  9 10  2  0
 10 11  1  0
 11 12  2  0
 12 13  1  0
 13 14  2  0
 13 15  1  0
 12 16  1  0
 11 17  1  0
 10 18  1  0
  8 19  1  0
  6 20  1  0
  4 21  1  0
 21 22  2  0
 21 23  1  0
 23 24  1  1
 24 25  1  0
 25 26  1  0
 26 27  1  0
 27 28  1  0
 28 29  1  0
 29 30  1  0
 29 31  1  0
 29 32  1  0
 28 33  1  0
 33 34  1  0
 33 35  1  0
 33 36  1  0
 28 37  1  0
 27 38  1  0
 27 39  1  0
 26 40  1  0
 26 41  1  0
 25 42  1  0
 42 43  2  0
 42 44  1  0
 44 45  2  0
 45 46  1  0
 46 47  2  0
 47 48  1  0
 47 49  1  0
 49 50  2  0
 49 51  1  0
 46 52  1  0
 45 53  1  0
 24 54  1  0
 24 55  1  0
  3 56  1  0
  3 57  1  0
  2 58  1  6
  1 59  1  0
  1 60  1  0
  1 61  1  0
 23  2  1  0
 50 44  1  0
 14  5  1  0
 50 23  1  0
 14  9  1  0
M  CHG  1  28   1
M  END
>  <cnnaffinities>  (77) 
[6.4071]

>  <score>  (77) 
6.4071

>  <index>  (77) 
76

>  <Smiles>  (77) 
C([C@]1(C(N(c2c(nc(c3c(c(c(c(c23)[H])[H])[H])[H])[H])[H])C(=O)[C@]21C(N(C(C([N+](C([H])([H])[H])(C([H])([H])[H])[H])([H])[H])([H])[H])C(=O)c1c(c(c(Cl)c(c21)[H])[H])[H])([H])[H])([H])[H])[H])([H])([H])[H]

>  <h>  (77) 
<NA>

>  <Training>  (77) 
True

>  <Success>  (77) 
True

>  <enamine_searched>  (77) 
False

>  <enamine_id>  (77) 
nan

$$$$

     RDKit          3D

 57 60  0  0  0  0  0  0  0  0999 V2000
    2.2142   -6.2822   25.0769 C   0  0  0  0  0  0  0  0  0  0  0  0
    3.7286   -6.4215   25.3633 C   0  0  0  0  0  0  0  0  0  0  0  0
    4.2055   -7.8082   24.9036 C   0  0  0  0  0  0  0  0  0  0  0  0
    3.6863   -8.5832   25.4737 H   0  0  0  0  0  0  0  0  0  0  0  0
    5.2845   -7.9280   25.0432 H   0  0  0  0  0  0  0  0  0  0  0  0
    3.9679   -7.9499   23.8446 H   0  0  0  0  0  0  0  0  0  0  0  0
    3.8575   -6.3345   26.8374 C   0  0  0  0  0  0  0  0  0  0  0  0
    3.8628   -6.2519   27.9937 N   0  0  0  0  0  0  0  0  0  0  0  0
    4.5189   -5.2714   24.7338 C   0  0  0  0  0  0  0  0  0  0  0  0
    5.3076   -5.4331   23.5940 C   0  0  0  0  0  0  0  0  0  0  0  0
    5.9257   -4.3474   22.9946 C   0  0  0  0  0  0  0  0  0  0  0  0
    5.7886   -3.0799   23.5494 C   0  0  0  0  0  0  0  0  0  0  0  0
    6.4304   -1.9665   22.9463 N   0  0  0  0  0  0  0  0  0  0  0  0
    7.4246   -1.2195   23.7160 C   0  0  0  0  0  0  0  0  0  0  0  0
    8.8524   -1.4544   23.2536 C   0  0  0  0  0  0  0  0  0  0  0  0
    9.3383   -2.7613   23.2129 C   0  0  0  0  0  0  0  0  0  0  0  0
   10.6385   -3.0107   22.7956 C   0  0  0  0  0  0  0  0  0  0  0  0
   11.4778   -1.9773   22.3996 C   0  0  0  0  0  0  0  0  0  0  0  0
   10.9998   -0.6772   22.4738 C   0  0  0  0  0  0  0  0  0  0  0  0
   12.0610    0.6387   22.0502 Cl  0  0  0  0  0  0  0  0  0  0  0  0
    9.7005   -0.4057   22.8963 C   0  0  0  0  0  0  0  0  0  0  0  0
    9.3749    0.6310   22.9453 H   0  0  0  0  0  0  0  0  0  0  0  0
   12.4844   -2.1784   22.0452 H   0  0  0  0  0  0  0  0  0  0  0  0
   11.0071   -4.0252   22.7860 H   0  0  0  0  0  0  0  0  0  0  0  0
    8.6938   -3.5889   23.5102 H   0  0  0  0  0  0  0  0  0  0  0  0
    7.3475   -1.5617   24.7532 H   0  0  0  0  0  0  0  0  0  0  0  0
    7.1833   -0.1500   23.7227 H   0  0  0  0  0  0  0  0  0  0  0  0
    6.1203   -1.7456   21.6182 C   0  0  0  0  0  0  0  0  0  0  0  0
    5.3255   -2.4455   21.0159 O   0  0  0  0  0  0  0  0  0  0  0  0
    6.7889   -0.5604   20.9410 C   0  0  0  0  0  0  0  0  0  0  0  0
    5.9534   -0.0403   19.8234 C   0  0  0  0  0  0  0  0  0  0  0  0
    6.3754   -0.1842   18.5306 C   0  0  0  0  0  0  0  0  0  0  0  0
    5.7307    0.3070   17.4423 N   0  0  0  0  0  0  0  0  0  0  0  0
    4.6249    0.9692   17.6719 C   0  0  0  0  0  0  0  0  0  0  0  0
    4.0412    1.1477   18.9595 C   0  0  0  0  0  0  0  0  0  0  0  0
    2.8239    1.8560   19.1310 C   0  0  0  0  0  0  0  0  0  0  0  0
    2.2546    1.9768   20.3700 C   0  0  0  0  0  0  0  0  0  0  0  0
    2.8853    1.3939   21.4944 C   0  0  0  0  0  0  0  0  0  0  0  0
    4.0838    0.7311   21.3589 C   0  0  0  0  0  0  0  0  0  0  0  0
    4.7036    0.5976   20.0800 C   0  0  0  0  0  0  0  0  0  0  0  0
    4.5729    0.3211   22.2380 H   0  0  0  0  0  0  0  0  0  0  0  0
    2.4341    1.5137   22.4766 H   0  0  0  0  0  0  0  0  0  0  0  0
    1.3358    2.5445   20.4923 H   0  0  0  0  0  0  0  0  0  0  0  0
    2.3666    2.2883   18.2443 H   0  0  0  0  0  0  0  0  0  0  0  0
    4.1286    1.4106   16.8075 H   0  0  0  0  0  0  0  0  0  0  0  0
    7.3269   -0.6825   18.3333 H   0  0  0  0  0  0  0  0  0  0  0  0
    6.9632    0.2426   21.6591 H   0  0  0  0  0  0  0  0  0  0  0  0
    7.7618   -0.8975   20.5627 H   0  0  0  0  0  0  0  0  0  0  0  0
    5.0337   -2.9058   24.7038 C   0  0  0  0  0  0  0  0  0  0  0  0
    4.3953   -3.9919   25.2816 C   0  0  0  0  0  0  0  0  0  0  0  0
    3.8171   -3.8407   26.1899 H   0  0  0  0  0  0  0  0  0  0  0  0
    4.9379   -1.9099   25.1285 H   0  0  0  0  0  0  0  0  0  0  0  0
    6.5040   -4.4759   22.0845 H   0  0  0  0  0  0  0  0  0  0  0  0
    5.4517   -6.4120   23.1461 H   0  0  0  0  0  0  0  0  0  0  0  0
    2.0201   -6.3365   24.0018 H   0  0  0  0  0  0  0  0  0  0  0  0
    1.6815   -7.0977   25.5750 H   0  0  0  0  0  0  0  0  0  0  0  0
    1.8276   -5.3276   25.4499 H   0  0  0  0  0  0  0  0  0  0  0  0
  1  2  1  0
  2  3  1  0
  3  4  1  0
  3  5  1  0
  3  6  1  0
  2  7  1  0
  7  8  3  0
  2  9  1  0
  9 10  2  0
 10 11  1  0
 11 12  2  0
 12 13  1  0
 13 14  1  0
 14 15  1  0
 15 16  2  0
 16 17  1  0
 17 18  2  0
 18 19  1  0
 19 20  1  0
 19 21  2  0
 21 22  1  0
 18 23  1  0
 17 24  1  0
 16 25  1  0
 14 26  1  0
 14 27  1  0
 13 28  1  0
 28 29  2  0
 28 30  1  0
 30 31  1  0
 31 32  2  0
 32 33  1  0
 33 34  2  0
 34 35  1  0
 35 36  2  0
 36 37  1  0
 37 38  2  0
 38 39  1  0
 39 40  2  0
 39 41  1  0
 38 42  1  0
 37 43  1  0
 36 44  1  0
 34 45  1  0
 32 46  1  0
 30 47  1  0
 30 48  1  0
 12 49  1  0
 49 50  2  0
 50 51  1  0
 49 52  1  0
 11 53  1  0
 10 54  1  0
  1 55  1  0
  1 56  1  0
  1 57  1  0
 50  9  1  0
 21 15  1  0
 40 31  1  0
 40 35  1  0
M  END
>  <cnnaffinities>  (78) 
[6.79382, 6.87884, 6.79122, 6.7778, 6.86651, 6.40843, 6.35251, 6.41601, 6.41001, 6.41486]

>  <score>  (78) 
6.79382

>  <index>  (78) 
77

>  <Smiles>  (78) 
C(C(C([H])([H])[H])(C#N)c1c(c(c(N(C(c2c(c(c(c(Cl)c2[H])[H])[H])[H])([H])[H])C(=O)C(c2c(nc(c3c(c(c(c(c23)[H])[H])[H])[H])[H])[H])([H])[H])c(c1[H])[H])[H])[H])([H])([H])[H]

>  <h>  (78) 
<NA>

>  <Training>  (78) 
True

>  <Success>  (78) 
True

>  <enamine_searched>  (78) 
False

>  <enamine_id>  (78) 
nan

$$$$

     RDKit          3D

 40 42  0  0  0  0  0  0  0  0999 V2000
    8.7303   -5.4149   25.0588 C   0  0  0  0  0  0  0  0  0  0  0  0
    8.4367   -4.6705   23.7627 C   0  0  0  0  0  0  0  0  0  0  0  0
    6.9853   -4.8737   23.3341 C   0  0  0  0  0  0  0  0  0  0  0  0
    6.7123   -4.1616   22.0280 C   0  0  0  0  0  0  0  0  0  0  0  0
    7.0630   -2.7482   22.1197 N   0  0  0  0  0  0  0  0  0  0  0  0
    6.2337   -1.9033   21.4307 C   0  0  0  0  0  0  0  0  0  0  0  0
    5.0725   -2.2117   21.1956 O   0  0  0  0  0  0  0  0  0  0  0  0
    6.8113   -0.5776   20.9317 C   0  0  0  0  0  0  0  0  0  0  0  0
    5.9756   -0.0206   19.8267 C   0  0  0  0  0  0  0  0  0  0  0  0
    6.3860   -0.1728   18.5295 C   0  0  0  0  0  0  0  0  0  0  0  0
    5.7317    0.3064   17.4437 N   0  0  0  0  0  0  0  0  0  0  0  0
    4.6293    0.9700   17.6697 C   0  0  0  0  0  0  0  0  0  0  0  0
    4.0587    1.1634   18.9561 C   0  0  0  0  0  0  0  0  0  0  0  0
    2.8377    1.8645   19.1327 C   0  0  0  0  0  0  0  0  0  0  0  0
    2.2777    1.9799   20.3727 C   0  0  0  0  0  0  0  0  0  0  0  0
    2.9142    1.3924   21.4927 C   0  0  0  0  0  0  0  0  0  0  0  0
    4.1072    0.7345   21.3524 C   0  0  0  0  0  0  0  0  0  0  0  0
    4.7279    0.6197   20.0741 C   0  0  0  0  0  0  0  0  0  0  0  0
    4.5748    0.2721   22.2158 H   0  0  0  0  0  0  0  0  0  0  0  0
    2.4618    1.4986   22.4751 H   0  0  0  0  0  0  0  0  0  0  0  0
    1.3498    2.5304   20.5013 H   0  0  0  0  0  0  0  0  0  0  0  0
    2.3574    2.2738   18.2479 H   0  0  0  0  0  0  0  0  0  0  0  0
    4.1280    1.3946   16.7996 H   0  0  0  0  0  0  0  0  0  0  0  0
    7.3330   -0.6679   18.3188 H   0  0  0  0  0  0  0  0  0  0  0  0
    6.8749    0.1441   21.7544 H   0  0  0  0  0  0  0  0  0  0  0  0
    7.8291   -0.7537   20.5564 H   0  0  0  0  0  0  0  0  0  0  0  0
    8.4354   -2.4596   22.5441 C   0  0  0  0  0  0  0  0  0  0  0  0
    8.7265   -3.1707   23.8689 C   0  0  0  0  0  0  0  0  0  0  0  0
    9.7709   -3.0034   24.1656 H   0  0  0  0  0  0  0  0  0  0  0  0
    8.1025   -2.7267   24.6585 H   0  0  0  0  0  0  0  0  0  0  0  0
    9.1562   -2.8059   21.7810 H   0  0  0  0  0  0  0  0  0  0  0  0
    8.5875   -1.3831   22.6700 H   0  0  0  0  0  0  0  0  0  0  0  0
    5.6575   -4.2175   21.7639 H   0  0  0  0  0  0  0  0  0  0  0  0
    7.2852   -4.6265   21.2084 H   0  0  0  0  0  0  0  0  0  0  0  0
    6.7561   -5.9402   23.2134 H   0  0  0  0  0  0  0  0  0  0  0  0
    6.3090   -4.4826   24.1081 H   0  0  0  0  0  0  0  0  0  0  0  0
    9.0767   -5.0793   22.9647 H   0  0  0  0  0  0  0  0  0  0  0  0
    8.5337   -6.4860   24.9368 H   0  0  0  0  0  0  0  0  0  0  0  0
    8.0867   -5.0409   25.8653 H   0  0  0  0  0  0  0  0  0  0  0  0
    9.7744   -5.2847   25.3622 H   0  0  0  0  0  0  0  0  0  0  0  0
  1  2  1  0
  2  3  1  0
  3  4  1  0
  4  5  1  0
  5  6  1  0
  6  7  2  0
  6  8  1  0
  8  9  1  0
  9 10  2  0
 10 11  1  0
 11 12  2  0
 12 13  1  0
 13 14  2  0
 14 15  1  0
 15 16  2  0
 16 17  1  0
 17 18  2  0
 17 19  1  0
 16 20  1  0
 15 21  1  0
 14 22  1  0
 12 23  1  0
 10 24  1  0
  8 25  1  0
  8 26  1  0
  5 27  1  0
 27 28  1  0
 28 29  1  0
 28 30  1  0
 27 31  1  0
 27 32  1  0
  4 33  1  0
  4 34  1  0
  3 35  1  0
  3 36  1  0
  2 37  1  0
  1 38  1  0
  1 39  1  0
  1 40  1  0
 28  2  1  0
 18  9  1  0
 18 13  1  0
M  END
>  <cnnaffinities>  (79) 
[5.27619, 5.27541]

>  <score>  (79) 
5.27619

>  <index>  (79) 
79

>  <Smiles>  (79) 
C(C1(C(C(N(C(=O)C(c2c(nc(c3c(c(c(c(c23)[H])[H])[H])[H])[H])[H])([H])[H])C(C1([H])[H])([H])[H])([H])[H])([H])[H])[H])([H])([H])[H]

>  <h>  (79) 
<NA>

>  <Training>  (79) 
True

>  <Success>  (79) 
True

>  <enamine_searched>  (79) 
False

>  <enamine_id>  (79) 
nan

$$$$

     RDKit          3D

 59 64  0  0  0  0  0  0  0  0999 V2000
    9.6753    0.2884   23.0939 C   0  0  0  0  0  0  0  0  0  0  0  0
    8.3124   -0.2769   22.7046 C   0  0  1  0  0  0  0  0  0  0  0  0
    7.7256    0.4729   21.4995 C   0  0  0  0  0  0  0  0  0  0  0  0
    6.7513   -0.4631   20.9670 N   0  0  0  0  0  0  0  0  0  0  0  0
    5.9090   -0.1265   19.8682 C   0  0  0  0  0  0  0  0  0  0  0  0
    6.3816   -0.1746   18.5801 C   0  0  0  0  0  0  0  0  0  0  0  0
    5.7294    0.3374   17.5064 N   0  0  0  0  0  0  0  0  0  0  0  0
    4.5605    0.8939   17.7035 C   0  0  0  0  0  0  0  0  0  0  0  0
    3.9053    0.9259   18.9671 C   0  0  0  0  0  0  0  0  0  0  0  0
    2.6326    1.5301   19.1357 C   0  0  0  0  0  0  0  0  0  0  0  0
    2.0314    1.5424   20.3638 C   0  0  0  0  0  0  0  0  0  0  0  0
    2.6864    0.9779   21.4800 C   0  0  0  0  0  0  0  0  0  0  0  0
    3.9414    0.4313   21.3480 C   0  0  0  0  0  0  0  0  0  0  0  0
    4.5866    0.3903   20.0856 C   0  0  0  0  0  0  0  0  0  0  0  0
    4.4744    0.0655   22.2168 H   0  0  0  0  0  0  0  0  0  0  0  0
    2.2145    1.0311   22.4567 H   0  0  0  0  0  0  0  0  0  0  0  0
    1.0646    2.0194   20.4980 H   0  0  0  0  0  0  0  0  0  0  0  0
    2.1746    2.0210   18.2813 H   0  0  0  0  0  0  0  0  0  0  0  0
    4.0696    1.3373   16.8355 H   0  0  0  0  0  0  0  0  0  0  0  0
    7.3448   -0.6326   18.3637 H   0  0  0  0  0  0  0  0  0  0  0  0
    7.0563   -1.7730   21.2789 C   0  0  0  0  0  0  0  0  0  0  0  0
    6.4691   -2.7349   20.8263 O   0  0  0  0  0  0  0  0  0  0  0  0
    8.2218   -1.7973   22.3070 C   0  0  1  0  0  0  0  0  0  0  0  0
    9.4835   -2.3410   21.5902 C   0  0  0  0  0  0  0  0  0  0  0  0
   10.5857   -2.6465   22.5165 N   0  0  0  0  0  0  0  0  0  0  0  0
   11.9325   -2.7482   21.9573 C   0  0  0  0  0  0  0  0  0  0  0  0
   12.7688   -1.5109   21.9080 C   0  0  0  0  0  0  0  0  0  0  0  0
   13.0772   -0.8041   20.7797 C   0  0  0  0  0  0  0  0  0  0  0  0
   13.8648    0.2752   21.2058 C   0  0  0  0  0  0  0  0  0  0  0  0
   14.1058    0.1958   22.5056 N   0  0  0  0  0  0  0  0  0  0  0  0
   13.4408   -0.8982   22.9253 N   0  0  0  0  0  0  0  0  0  0  0  0
   13.7516   -1.4198   24.2466 C   0  0  0  0  0  0  0  0  0  0  0  0
   14.3238   -0.6434   24.7622 H   0  0  0  0  0  0  0  0  0  0  0  0
   12.8281   -1.6540   24.7832 H   0  0  0  0  0  0  0  0  0  0  0  0
   14.3767   -2.3200   24.1805 H   0  0  0  0  0  0  0  0  0  0  0  0
   14.3379    1.0503   20.6176 H   0  0  0  0  0  0  0  0  0  0  0  0
   12.8507   -1.1364   19.7762 H   0  0  0  0  0  0  0  0  0  0  0  0
   12.4715   -3.4960   22.5397 H   0  0  0  0  0  0  0  0  0  0  0  0
   11.8405   -3.1011   20.9241 H   0  0  0  0  0  0  0  0  0  0  0  0
   10.3479   -3.3824   23.6551 C   0  0  0  0  0  0  0  0  0  0  0  0
   11.2476   -3.8720   24.3292 O   0  0  0  0  0  0  0  0  0  0  0  0
    8.9200   -3.5364   24.0439 C   0  0  0  0  0  0  0  0  0  0  0  0
    8.6225   -4.4777   25.0271 C   0  0  0  0  0  0  0  0  0  0  0  0
    7.3181   -4.7102   25.4130 C   0  0  0  0  0  0  0  0  0  0  0  0
    6.3258   -3.9373   24.8245 C   0  0  0  0  0  0  0  0  0  0  0  0
    5.0513   -4.1481   25.1891 F   0  0  0  0  0  0  0  0  0  0  0  0
    6.6013   -2.9630   23.8855 C   0  0  0  0  0  0  0  0  0  0  0  0
    7.9138   -2.7686   23.4412 C   0  0  0  0  0  0  0  0  0  0  0  0
    5.7814   -2.3843   23.4813 H   0  0  0  0  0  0  0  0  0  0  0  0
    7.0595   -5.4643   26.1472 H   0  0  0  0  0  0  0  0  0  0  0  0
    9.4479   -5.0251   25.4699 H   0  0  0  0  0  0  0  0  0  0  0  0
    9.1732   -3.2463   21.0508 H   0  0  0  0  0  0  0  0  0  0  0  0
    9.8335   -1.6269   20.8376 H   0  0  0  0  0  0  0  0  0  0  0  0
    7.2525    1.4181   21.7854 H   0  0  0  0  0  0  0  0  0  0  0  0
    8.5081    0.7201   20.7623 H   0  0  0  0  0  0  0  0  0  0  0  0
    7.6152   -0.1487   23.5436 H   0  0  0  0  0  0  0  0  0  0  0  0
   10.3891    0.1880   22.2695 H   0  0  0  0  0  0  0  0  0  0  0  0
    9.5848    1.3568   23.3216 H   0  0  0  0  0  0  0  0  0  0  0  0
   10.0910   -0.2102   23.9727 H   0  0  0  0  0  0  0  0  0  0  0  0
  1  2  1  0
  2  3  1  0
  3  4  1  0
  4  5  1  0
  5  6  2  0
  6  7  1  0
  7  8  2  0
  8  9  1  0
  9 10  2  0
 10 11  1  0
 11 12  2  0
 12 13  1  0
 13 14  2  0
 13 15  1  0
 12 16  1  0
 11 17  1  0
 10 18  1  0
  8 19  1  0
  6 20  1  0
  4 21  1  0
 21 22  2  0
 21 23  1  0
 23 24  1  6
 24 25  1  0
 25 26  1  0
 26 27  1  0
 27 28  2  0
 28 29  1  0
 29 30  2  0
 30 31  1  0
 31 32  1  0
 32 33  1  0
 32 34  1  0
 32 35  1  0
 29 36  1  0
 28 37  1  0
 26 38  1  0
 26 39  1  0
 25 40  1  0
 40 41  2  0
 40 42  1  0
 42 43  2  0
 43 44  1  0
 44 45  2  0
 45 46  1  0
 45 47  1  0
 47 48  2  0
 47 49  1  0
 44 50  1  0
 43 51  1  0
 24 52  1  0
 24 53  1  0
  3 54  1  0
  3 55  1  0
  2 56  1  1
  1 57  1  0
  1 58  1  0
  1 59  1  0
 23  2  1  0
 31 27  1  0
 48 42  1  0
 14  5  1  0
 48 23  1  0
 14  9  1  0
M  END
>  <cnnaffinities>  (80) 
[6.97902, 6.72931, 6.52273]

>  <score>  (80) 
6.97902

>  <index>  (80) 
80

>  <Smiles>  (80) 
C([C@]1(C(N(c2c(nc(c3c(c(c(c(c23)[H])[H])[H])[H])[H])[H])C(=O)[C@]21C(N(C(c1c(c(nn1C([H])([H])[H])[H])[H])([H])[H])C(=O)c1c(c(c(F)c(c21)[H])[H])[H])([H])[H])([H])[H])[H])([H])([H])[H]

>  <h>  (80) 
<NA>

>  <Training>  (80) 
True

>  <Success>  (80) 
True

>  <enamine_searched>  (80) 
False

>  <enamine_id>  (80) 
nan

$$$$

     RDKit          3D

 58 63  0  0  0  0  0  0  0  0999 V2000
    5.0666   -5.4134   26.4539 C   0  0  0  0  0  0  0  0  0  0  0  0
    5.9993   -4.2440   26.5557 C   0  0  0  0  0  0  0  0  0  0  0  0
    5.7830   -2.9730   26.4407 N   0  0  0  0  0  0  0  0  0  0  0  0
    7.0369   -2.3849   26.5521 C   0  0  0  0  0  0  0  0  0  0  0  0
    7.2405   -0.9071   26.4370 C   0  0  0  0  0  0  0  0  0  0  0  0
    8.0788   -0.5386   25.3068 N   0  0  0  0  0  0  0  0  0  0  0  0
    7.4647   -0.0900   24.0612 C   0  0  0  0  0  0  0  0  0  0  0  0
    8.2723   -0.4704   22.7891 C   0  0  2  0  0  0  0  0  0  0  0  0
    7.6540    0.3829   21.6578 C   0  0  0  0  0  0  0  0  0  0  0  0
    7.7817    1.5774   21.4917 O   0  0  0  0  0  0  0  0  0  0  0  0
    6.8500   -0.4349   20.8890 N   0  0  0  0  0  0  0  0  0  0  0  0
    6.0225    0.0327   19.8401 C   0  0  0  0  0  0  0  0  0  0  0  0
    6.4109   -0.1811   18.5429 C   0  0  0  0  0  0  0  0  0  0  0  0
    5.7412    0.2752   17.4611 N   0  0  0  0  0  0  0  0  0  0  0  0
    4.6514    0.9674   17.6792 C   0  0  0  0  0  0  0  0  0  0  0  0
    4.0867    1.1799   18.9666 C   0  0  0  0  0  0  0  0  0  0  0  0
    2.8656    1.8843   19.1283 C   0  0  0  0  0  0  0  0  0  0  0  0
    2.2999    2.0156   20.3693 C   0  0  0  0  0  0  0  0  0  0  0  0
    2.9264    1.4415   21.5041 C   0  0  0  0  0  0  0  0  0  0  0  0
    4.1355    0.7953   21.3751 C   0  0  0  0  0  0  0  0  0  0  0  0
    4.7595    0.6626   20.0958 C   0  0  0  0  0  0  0  0  0  0  0  0
    4.6325    0.3836   22.2495 H   0  0  0  0  0  0  0  0  0  0  0  0
    2.4655    1.5613   22.4820 H   0  0  0  0  0  0  0  0  0  0  0  0
    1.3709    2.5651   20.4811 H   0  0  0  0  0  0  0  0  0  0  0  0
    2.4009    2.2893   18.2342 H   0  0  0  0  0  0  0  0  0  0  0  0
    4.1468    1.3783   16.8075 H   0  0  0  0  0  0  0  0  0  0  0  0
    7.3470   -0.7021   18.3459 H   0  0  0  0  0  0  0  0  0  0  0  0
    6.8413   -1.8214   21.2800 C   0  0  0  0  0  0  0  0  0  0  0  0
    8.0185   -1.9313   22.2579 C   0  0  2  0  0  0  0  0  0  0  0  0
    7.7660   -3.0073   23.3022 C   0  0  0  0  0  0  0  0  0  0  0  0
    6.8180   -2.8321   23.8231 H   0  0  0  0  0  0  0  0  0  0  0  0
    8.5614   -3.0273   24.0511 H   0  0  0  0  0  0  0  0  0  0  0  0
    7.7090   -3.9882   22.8182 H   0  0  0  0  0  0  0  0  0  0  0  0
    8.9153   -2.2021   21.6816 H   0  0  0  0  0  0  0  0  0  0  0  0
    6.9536   -2.4569   20.3972 H   0  0  0  0  0  0  0  0  0  0  0  0
    5.8870   -2.1055   21.7562 H   0  0  0  0  0  0  0  0  0  0  0  0
    9.7459   -0.1748   23.0528 C   0  0  0  0  0  0  0  0  0  0  0  0
   10.6459    0.0893   22.0116 C   0  0  0  0  0  0  0  0  0  0  0  0
   11.9892    0.2931   22.2908 C   0  0  0  0  0  0  0  0  0  0  0  0
   12.8399    0.5987   21.2998 F   0  0  0  0  0  0  0  0  0  0  0  0
   12.5215    0.1880   23.5693 C   0  0  0  0  0  0  0  0  0  0  0  0
   11.6420   -0.0871   24.5909 C   0  0  0  0  0  0  0  0  0  0  0  0
   10.2766   -0.2251   24.3471 C   0  0  0  0  0  0  0  0  0  0  0  0
    9.4224   -0.4414   25.5401 C   0  0  0  0  0  0  0  0  0  0  0  0
    9.9131   -0.5279   26.6605 O   0  0  0  0  0  0  0  0  0  0  0  0
   11.9826   -0.1953   25.6128 H   0  0  0  0  0  0  0  0  0  0  0  0
   13.5849    0.3242   23.7422 H   0  0  0  0  0  0  0  0  0  0  0  0
   10.3043    0.1328   20.9856 H   0  0  0  0  0  0  0  0  0  0  0  0
    6.4562   -0.5182   23.9898 H   0  0  0  0  0  0  0  0  0  0  0  0
    7.3513    1.0043   24.0660 H   0  0  0  0  0  0  0  0  0  0  0  0
    7.7363   -0.5201   27.3349 H   0  0  0  0  0  0  0  0  0  0  0  0
    6.2640   -0.4300   26.3294 H   0  0  0  0  0  0  0  0  0  0  0  0
    7.9579   -3.3576   26.7383 C   0  0  0  0  0  0  0  0  0  0  0  0
    7.3045   -4.5583   26.7412 O   0  0  0  0  0  0  0  0  0  0  0  0
    9.0239   -3.3805   26.9091 H   0  0  0  0  0  0  0  0  0  0  0  0
    5.6674   -6.3218   26.4948 H   0  0  0  0  0  0  0  0  0  0  0  0
    4.3249   -5.4309   27.2567 H   0  0  0  0  0  0  0  0  0  0  0  0
    4.5252   -5.3779   25.5054 H   0  0  0  0  0  0  0  0  0  0  0  0
  1  2  1  0
  2  3  2  0
  3  4  1  0
  4  5  1  0
  5  6  1  0
  6  7  1  0
  8  7  1  1
  8  9  1  0
  9 10  2  0
  9 11  1  0
 11 12  1  0
 12 13  2  0
 13 14  1  0
 14 15  2  0
 15 16  1  0
 16 17  2  0
 17 18  1  0
 18 19  2  0
 19 20  1  0
 20 21  2  0
 20 22  1  0
 19 23  1  0
 18 24  1  0
 17 25  1  0
 15 26  1  0
 13 27  1  0
 11 28  1  0
 28 29  1  0
 29 30  1  0
 30 31  1  0
 30 32  1  0
 30 33  1  0
 29 34  1  6
 28 35  1  0
 28 36  1  0
  8 37  1  0
 37 38  2  0
 38 39  1  0
 39 40  1  0
 39 41  2  0
 41 42  1  0
 42 43  2  0
 43 44  1  0
 44 45  2  0
 42 46  1  0
 41 47  1  0
 38 48  1  0
  7 49  1  0
  7 50  1  0
  5 51  1  0
  5 52  1  0
  4 53  2  0
 53 54  1  0
 53 55  1  0
  1 56  1  0
  1 57  1  0
  1 58  1  0
 54  2  1  0
 44  6  1  0
 29  8  1  0
 43 37  1  0
 21 12  1  0
 21 16  1  0
M  END
>  <cnnaffinities>  (81) 
[6.47525, 6.76378]

>  <score>  (81) 
6.47525

>  <index>  (81) 
81

>  <Smiles>  (81) 
C(c1nc(C(N2C([C@@]3(C(=O)N(c4c(nc(c5c(c(c(c(c45)[H])[H])[H])[H])[H])[H])C([C@@]3(C([H])([H])[H])[H])([H])[H])c3c(c(F)c(c(c3C2=O)[H])[H])[H])([H])[H])([H])[H])c(o1)[H])([H])([H])[H]

>  <h>  (81) 
<NA>

>  <Training>  (81) 
True

>  <Success>  (81) 
True

>  <enamine_searched>  (81) 
False

>  <enamine_id>  (81) 
nan

$$$$

     RDKit          3D

 55 60  0  0  0  0  0  0  0  0999 V2000
    7.7892   -3.0369   23.2711 C   0  0  0  0  0  0  0  0  0  0  0  0
    8.0269   -1.9454   22.2398 C   0  0  1  0  0  0  0  0  0  0  0  0
    6.8426   -1.8246   21.2714 C   0  0  0  0  0  0  0  0  0  0  0  0
    6.8535   -0.4336   20.8919 N   0  0  0  0  0  0  0  0  0  0  0  0
    6.0326    0.0461   19.8438 C   0  0  0  0  0  0  0  0  0  0  0  0
    6.4132   -0.1772   18.5474 C   0  0  0  0  0  0  0  0  0  0  0  0
    5.7384    0.2723   17.4666 N   0  0  0  0  0  0  0  0  0  0  0  0
    4.6557    0.9748   17.6800 C   0  0  0  0  0  0  0  0  0  0  0  0
    4.0959    1.1938   18.9669 C   0  0  0  0  0  0  0  0  0  0  0  0
    2.8695    1.8859   19.1256 C   0  0  0  0  0  0  0  0  0  0  0  0
    2.3028    2.0235   20.3652 C   0  0  0  0  0  0  0  0  0  0  0  0
    2.9360    1.4585   21.5020 C   0  0  0  0  0  0  0  0  0  0  0  0
    4.1417    0.8045   21.3687 C   0  0  0  0  0  0  0  0  0  0  0  0
    4.7687    0.6753   20.0936 C   0  0  0  0  0  0  0  0  0  0  0  0
    4.6435    0.4033   22.2445 H   0  0  0  0  0  0  0  0  0  0  0  0
    2.4800    1.5872   22.4817 H   0  0  0  0  0  0  0  0  0  0  0  0
    1.3799    2.5857   20.4795 H   0  0  0  0  0  0  0  0  0  0  0  0
    2.4046    2.2950   18.2330 H   0  0  0  0  0  0  0  0  0  0  0  0
    4.1526    1.3715   16.8017 H   0  0  0  0  0  0  0  0  0  0  0  0
    7.3460   -0.7032   18.3428 H   0  0  0  0  0  0  0  0  0  0  0  0
    7.6482    0.3764   21.6758 C   0  0  0  0  0  0  0  0  0  0  0  0
    7.7655    1.5763   21.5292 O   0  0  0  0  0  0  0  0  0  0  0  0
    8.2741   -0.4925   22.7914 C   0  0  1  0  0  0  0  0  0  0  0  0
    7.4749   -0.1453   24.0732 C   0  0  0  0  0  0  0  0  0  0  0  0
    8.0922   -0.6520   25.2908 N   0  0  0  0  0  0  0  0  0  0  0  0
    7.2629   -1.0345   26.4114 C   0  0  0  0  0  0  0  0  0  0  0  0
    7.1499   -2.5200   26.5411 C   0  0  0  0  0  0  0  0  0  0  0  0
    6.0826   -3.2425   26.4585 N   0  0  0  0  0  0  0  0  0  0  0  0
    6.5216   -4.5240   26.7730 C   0  0  0  0  0  0  0  0  0  0  0  0
    7.8478   -4.4980   27.0095 C   0  0  0  0  0  0  0  0  0  0  0  0
    8.2746   -3.2079   26.8407 O   0  0  0  0  0  0  0  0  0  0  0  0
    8.5713   -5.2325   27.3230 H   0  0  0  0  0  0  0  0  0  0  0  0
    5.8450   -5.3639   26.8336 H   0  0  0  0  0  0  0  0  0  0  0  0
    7.7174   -0.6320   27.3212 H   0  0  0  0  0  0  0  0  0  0  0  0
    6.2643   -0.6172   26.2908 H   0  0  0  0  0  0  0  0  0  0  0  0
    9.4206   -0.4485   25.5528 C   0  0  0  0  0  0  0  0  0  0  0  0
    9.8883   -0.4410   26.6781 O   0  0  0  0  0  0  0  0  0  0  0  0
   10.2743   -0.2298   24.3566 C   0  0  0  0  0  0  0  0  0  0  0  0
   11.6375   -0.0674   24.5982 C   0  0  0  0  0  0  0  0  0  0  0  0
   12.5112    0.2145   23.5742 C   0  0  0  0  0  0  0  0  0  0  0  0
   11.9768    0.3095   22.2979 C   0  0  0  0  0  0  0  0  0  0  0  0
   12.8280    0.6292   21.3129 F   0  0  0  0  0  0  0  0  0  0  0  0
   10.6374    0.0882   22.0191 C   0  0  0  0  0  0  0  0  0  0  0  0
    9.7440   -0.1899   23.0613 C   0  0  0  0  0  0  0  0  0  0  0  0
   10.2906    0.1365   20.9956 H   0  0  0  0  0  0  0  0  0  0  0  0
   13.5735    0.3686   23.7374 H   0  0  0  0  0  0  0  0  0  0  0  0
   11.9889   -0.1630   25.6163 H   0  0  0  0  0  0  0  0  0  0  0  0
    7.3847    0.9499   24.1255 H   0  0  0  0  0  0  0  0  0  0  0  0
    6.4613   -0.5564   23.9937 H   0  0  0  0  0  0  0  0  0  0  0  0
    6.9459   -2.4508   20.3825 H   0  0  0  0  0  0  0  0  0  0  0  0
    5.8928   -2.1196   21.7497 H   0  0  0  0  0  0  0  0  0  0  0  0
    8.9216   -2.1966   21.6517 H   0  0  0  0  0  0  0  0  0  0  0  0
    8.6016   -3.0739   23.9984 H   0  0  0  0  0  0  0  0  0  0  0  0
    6.8567   -2.8590   23.8159 H   0  0  0  0  0  0  0  0  0  0  0  0
    7.7101   -4.0082   22.7713 H   0  0  0  0  0  0  0  0  0  0  0  0
  1  2  1  0
  2  3  1  0
  3  4  1  0
  4  5  1  0
  5  6  2  0
  6  7  1  0
  7  8  2  0
  8  9  1  0
  9 10  2  0
 10 11  1  0
 11 12  2  0
 12 13  1  0
 13 14  2  0
 13 15  1  0
 12 16  1  0
 11 17  1  0
 10 18  1  0
  8 19  1  0
  6 20  1  0
  4 21  1  0
 21 22  2  0
 21 23  1  0
 23 24  1  1
 24 25  1  0
 25 26  1  0
 26 27  1  0
 27 28  2  0
 28 29  1  0
 29 30  2  0
 30 31  1  0
 30 32  1  0
 29 33  1  0
 26 34  1  0
 26 35  1  0
 25 36  1  0
 36 37  2  0
 36 38  1  0
 38 39  2  0
 39 40  1  0
 40 41  2  0
 41 42  1  0
 41 43  1  0
 43 44  2  0
 43 45  1  0
 40 46  1  0
 39 47  1  0
 24 48  1  0
 24 49  1  0
  3 50  1  0
  3 51  1  0
  2 52  1  6
  1 53  1  0
  1 54  1  0
  1 55  1  0
 23  2  1  0
 31 27  1  0
 44 38  1  0
 14  5  1  0
 44 23  1  0
 14  9  1  0
M  END
>  <cnnaffinities>  (82) 
[6.44055, 6.44627]

>  <score>  (82) 
6.44055

>  <index>  (82) 
82

>  <Smiles>  (82) 
C([C@]1(C(N(c2c(nc(c3c(c(c(c(c23)[H])[H])[H])[H])[H])[H])C(=O)[C@]21C(N(C(c1nc(c(o1)[H])[H])([H])[H])C(=O)c1c(c(c(F)c(c21)[H])[H])[H])([H])[H])([H])[H])[H])([H])([H])[H]

>  <h>  (82) 
<NA>

>  <Training>  (82) 
True

>  <Success>  (82) 
True

>  <enamine_searched>  (82) 
False

>  <enamine_id>  (82) 
nan

$$$$

     RDKit          3D

 72 77  0  0  0  0  0  0  0  0999 V2000
    9.6002    5.8403   23.8226 C   0  0  0  0  0  0  0  0  0  0  0  0
    8.4815    5.9551   22.7892 C   0  0  2  0  0  0  0  0  0  0  0  0
    7.8013    7.3127   22.8683 C   0  0  0  0  0  0  0  0  0  0  0  0
    7.1072    7.4645   24.0897 O   0  0  0  0  0  0  0  0  0  0  0  0
    6.0178    6.5668   24.1400 C   0  0  0  0  0  0  0  0  0  0  0  0
    6.4408    5.1002   24.1048 C   0  0  1  0  0  0  0  0  0  0  0  0
    5.2203    4.2044   23.9415 C   0  0  0  0  0  0  0  0  0  0  0  0
    4.7224    4.4450   22.9923 H   0  0  0  0  0  0  0  0  0  0  0  0
    4.5053    4.3576   24.7554 H   0  0  0  0  0  0  0  0  0  0  0  0
    5.4741    3.1418   23.9186 H   0  0  0  0  0  0  0  0  0  0  0  0
    7.3940    4.8976   22.9328 N   0  0  0  0  0  4  0  0  0  0  0  0
    7.9227    3.5107   22.7572 C   0  0  0  0  0  0  0  0  0  0  0  0
    8.3470    2.8295   24.0599 C   0  0  0  0  0  0  0  0  0  0  0  0
    9.0077    1.5738   23.7728 N   0  0  0  0  0  0  0  0  0  0  0  0
    8.2337    0.3498   23.7018 C   0  0  0  0  0  0  0  0  0  0  0  0
    8.5804   -0.4919   22.4472 C   0  0  2  0  0  0  0  0  0  0  0  0
    8.0130    0.1774   21.1734 C   0  0  0  0  0  0  0  0  0  0  0  0
    8.5088    1.0901   20.5322 O   0  0  0  0  0  0  0  0  0  0  0  0
    6.8138   -0.4255   20.8758 N   0  0  0  0  0  0  0  0  0  0  0  0
    5.9987    0.0148   19.8175 C   0  0  0  0  0  0  0  0  0  0  0  0
    6.4181   -0.1335   18.5189 C   0  0  0  0  0  0  0  0  0  0  0  0
    5.7329    0.3209   17.4452 N   0  0  0  0  0  0  0  0  0  0  0  0
    4.6082    0.9507   17.6750 C   0  0  0  0  0  0  0  0  0  0  0  0
    4.0446    1.1354   18.9673 C   0  0  0  0  0  0  0  0  0  0  0  0
    2.8317    1.8454   19.1530 C   0  0  0  0  0  0  0  0  0  0  0  0
    2.2811    1.9683   20.3994 C   0  0  0  0  0  0  0  0  0  0  0  0
    2.9346    1.4095   21.5211 C   0  0  0  0  0  0  0  0  0  0  0  0
    4.1368    0.7575   21.3719 C   0  0  0  0  0  0  0  0  0  0  0  0
    4.7343    0.6254   20.0853 C   0  0  0  0  0  0  0  0  0  0  0  0
    4.6400    0.3557   22.2440 H   0  0  0  0  0  0  0  0  0  0  0  0
    2.4945    1.5142   22.5063 H   0  0  0  0  0  0  0  0  0  0  0  0
    1.3545    2.5153   20.5358 H   0  0  0  0  0  0  0  0  0  0  0  0
    2.3408    2.2411   18.2705 H   0  0  0  0  0  0  0  0  0  0  0  0
    4.0920    1.3731   16.8139 H   0  0  0  0  0  0  0  0  0  0  0  0
    7.3728   -0.6051   18.3047 H   0  0  0  0  0  0  0  0  0  0  0  0
    6.5018   -1.5780   21.6886 C   0  0  0  0  0  0  0  0  0  0  0  0
    7.8083   -1.8467   22.4403 C   0  0  2  0  0  0  0  0  0  0  0  0
    7.5470   -2.5086   23.7837 C   0  0  0  0  0  0  0  0  0  0  0  0
    6.8838   -1.8867   24.3984 H   0  0  0  0  0  0  0  0  0  0  0  0
    7.0482   -3.4703   23.6238 H   0  0  0  0  0  0  0  0  0  0  0  0
    8.4732   -2.6832   24.3400 H   0  0  0  0  0  0  0  0  0  0  0  0
    8.3785   -2.5421   21.8217 H   0  0  0  0  0  0  0  0  0  0  0  0
    5.6790   -1.3885   22.3912 H   0  0  0  0  0  0  0  0  0  0  0  0
    6.2038   -2.4276   21.0630 H   0  0  0  0  0  0  0  0  0  0  0  0
   10.0873   -0.6033   22.3650 C   0  0  0  0  0  0  0  0  0  0  0  0
   10.6693   -1.5942   21.5709 C   0  0  0  0  0  0  0  0  0  0  0  0
   12.0381   -1.6385   21.4034 C   0  0  0  0  0  0  0  0  0  0  0  0
   12.6869   -2.7792   20.2653 Cl  0  0  0  0  0  0  0  0  0  0  0  0
   12.8877   -0.7669   22.0827 C   0  0  0  0  0  0  0  0  0  0  0  0
   12.3206    0.2265   22.8578 C   0  0  0  0  0  0  0  0  0  0  0  0
   10.9333    0.3455   22.9580 C   0  0  0  0  0  0  0  0  0  0  0  0
   10.3637    1.5599   23.6310 C   0  0  0  0  0  0  0  0  0  0  0  0
   11.0804    2.4889   23.9996 O   0  0  0  0  0  0  0  0  0  0  0  0
   12.9416    0.9514   23.3715 H   0  0  0  0  0  0  0  0  0  0  0  0
   13.9626   -0.8590   21.9711 H   0  0  0  0  0  0  0  0  0  0  0  0
   10.0686   -2.3370   21.0596 H   0  0  0  0  0  0  0  0  0  0  0  0
    8.4431   -0.2566   24.5940 H   0  0  0  0  0  0  0  0  0  0  0  0
    7.1665    0.6015   23.7043 H   0  0  0  0  0  0  0  0  0  0  0  0
    9.0391    3.4475   24.6345 H   0  0  0  0  0  0  0  0  0  0  0  0
    7.4794    2.6457   24.7016 H   0  0  0  0  0  0  0  0  0  0  0  0
    7.1705    2.8922   22.2499 H   0  0  0  0  0  0  0  0  0  0  0  0
    8.7831    3.5569   22.0790 H   0  0  0  0  0  0  0  0  0  0  0  0
    6.7815    5.0461   22.1038 H   0  0  0  0  0  0  0  0  0  0  0  0
    6.9725    4.8642   25.0315 H   0  0  0  0  0  0  0  0  0  0  0  0
    5.4666    6.7765   25.0627 H   0  0  0  0  0  0  0  0  0  0  0  0
    5.3456    6.7553   23.2847 H   0  0  0  0  0  0  0  0  0  0  0  0
    7.1035    7.4220   22.0221 H   0  0  0  0  0  0  0  0  0  0  0  0
    8.5437    8.1146   22.8081 H   0  0  0  0  0  0  0  0  0  0  0  0
    8.9052    5.8269   21.7846 H   0  0  0  0  0  0  0  0  0  0  0  0
   10.2610    6.7091   23.7393 H   0  0  0  0  0  0  0  0  0  0  0  0
    9.1944    5.8328   24.8397 H   0  0  0  0  0  0  0  0  0  0  0  0
   10.2127    4.9451   23.6704 H   0  0  0  0  0  0  0  0  0  0  0  0
  1  2  1  0
  2  3  1  0
  3  4  1  0
  4  5  1  0
  5  6  1  0
  6  7  1  0
  7  8  1  0
  7  9  1  0
  7 10  1  0
  6 11  1  0
 11 12  1  0
 12 13  1  0
 13 14  1  0
 14 15  1  0
 16 15  1  1
 16 17  1  0
 17 18  2  0
 17 19  1  0
 19 20  1  0
 20 21  2  0
 21 22  1  0
 22 23  2  0
 23 24  1  0
 24 25  2  0
 25 26  1  0
 26 27  2  0
 27 28  1  0
 28 29  2  0
 28 30  1  0
 27 31  1  0
 26 32  1  0
 25 33  1  0
 23 34  1  0
 21 35  1  0
 19 36  1  0
 36 37  1  0
 37 38  1  0
 38 39  1  0
 38 40  1  0
 38 41  1  0
 37 42  1  6
 36 43  1  0
 36 44  1  0
 16 45  1  0
 45 46  2  0
 46 47  1  0
 47 48  1  0
 47 49  2  0
 49 50  1  0
 50 51  2  0
 51 52  1  0
 52 53  2  0
 50 54  1  0
 49 55  1  0
 46 56  1  0
 15 57  1  0
 15 58  1  0
 13 59  1  0
 13 60  1  0
 12 61  1  0
 12 62  1  0
 11 63  1  0
  6 64  1  1
  5 65  1  0
  5 66  1  0
  3 67  1  0
  3 68  1  0
  2 69  1  6
  1 70  1  0
  1 71  1  0
  1 72  1  0
 11  2  1  0
 52 14  1  0
 37 16  1  0
 51 45  1  0
 29 20  1  0
 29 24  1  0
M  CHG  1  11   1
M  END
>  <cnnaffinities>  (83) 
[6.80804]

>  <score>  (83) 
6.80804

>  <index>  (83) 
83

>  <Smiles>  (83) 
C([C@@]1(C(OC([C@@](C([H])([H])[H])([N+]1(C(C(N1C([C@@]2(C(=O)N(c3c(nc(c4c(c(c(c(c34)[H])[H])[H])[H])[H])[H])C([C@@]2(C([H])([H])[H])[H])([H])[H])c2c(c(Cl)c(c(c2C1=O)[H])[H])[H])([H])[H])([H])[H])([H])[H])[H])[H])([H])[H])([H])[H])[H])([H])([H])[H]

>  <h>  (83) 
<NA>

>  <Training>  (83) 
True

>  <Success>  (83) 
True

>  <enamine_searched>  (83) 
False

>  <enamine_id>  (83) 
nan

$$$$

     RDKit          3D

 60 65  0  0  0  0  0  0  0  0999 V2000
    7.6866   -8.6314   22.9728 C   0  0  0  0  0  0  0  0  0  0  0  0
    6.8017   -7.5589   22.5745 N   0  0  0  0  0  0  0  0  0  0  0  0
    7.2211   -6.6896   21.6157 C   0  0  0  0  0  0  0  0  0  0  0  0
    8.1620   -6.9291   20.8721 O   0  0  0  0  0  0  0  0  0  0  0  0
    6.3971   -5.4165   21.5569 C   0  0  0  0  0  0  0  0  0  0  0  0
    6.7541   -4.4256   22.5292 N   0  0  0  0  0  0  0  0  0  0  0  0
    7.8286   -3.4965   22.2538 C   0  0  0  0  0  0  0  0  0  0  0  0
    7.4110   -2.0611   22.6439 C   0  0  2  0  0  0  0  0  0  0  0  0
    6.2874   -1.6089   21.6777 C   0  0  0  0  0  0  0  0  0  0  0  0
    5.1782   -2.1048   21.5857 O   0  0  0  0  0  0  0  0  0  0  0  0
    6.7444   -0.5777   20.8842 N   0  0  0  0  0  0  0  0  0  0  0  0
    5.9857   -0.0138   19.8340 C   0  0  0  0  0  0  0  0  0  0  0  0
    6.4426   -0.1019   18.5403 C   0  0  0  0  0  0  0  0  0  0  0  0
    5.7869    0.3807   17.4593 N   0  0  0  0  0  0  0  0  0  0  0  0
    4.6499    0.9970   17.6690 C   0  0  0  0  0  0  0  0  0  0  0  0
    4.0576    1.1662   18.9529 C   0  0  0  0  0  0  0  0  0  0  0  0
    2.8159    1.8442   19.1156 C   0  0  0  0  0  0  0  0  0  0  0  0
    2.2726    1.9992   20.3633 C   0  0  0  0  0  0  0  0  0  0  0  0
    2.9277    1.4578   21.4959 C   0  0  0  0  0  0  0  0  0  0  0  0
    4.1232    0.7923   21.3649 C   0  0  0  0  0  0  0  0  0  0  0  0
    4.7268    0.6339   20.0796 C   0  0  0  0  0  0  0  0  0  0  0  0
    4.6049    0.3749   22.2428 H   0  0  0  0  0  0  0  0  0  0  0  0
    2.5006    1.6123   22.4820 H   0  0  0  0  0  0  0  0  0  0  0  0
    1.3385    2.5388   20.4941 H   0  0  0  0  0  0  0  0  0  0  0  0
    2.3272    2.2466   18.2316 H   0  0  0  0  0  0  0  0  0  0  0  0
    4.1141    1.3560   16.7902 H   0  0  0  0  0  0  0  0  0  0  0  0
    7.3669   -0.6406   18.3291 H   0  0  0  0  0  0  0  0  0  0  0  0
    8.1887   -0.4306   20.9656 C   0  0  0  0  0  0  0  0  0  0  0  0
    8.5286   -1.0152   22.3469 C   0  0  2  0  0  0  0  0  0  0  0  0
    9.9708   -1.5126   22.4367 C   0  0  0  0  0  0  0  0  0  0  0  0
   10.6833   -0.6925   22.2910 H   0  0  0  0  0  0  0  0  0  0  0  0
   10.1798   -1.9718   23.4098 H   0  0  0  0  0  0  0  0  0  0  0  0
   10.1774   -2.2619   21.6623 H   0  0  0  0  0  0  0  0  0  0  0  0
    8.3941   -0.2057   23.0644 H   0  0  0  0  0  0  0  0  0  0  0  0
    8.6990   -0.9883   20.1657 H   0  0  0  0  0  0  0  0  0  0  0  0
    8.4537    0.6257   20.8709 H   0  0  0  0  0  0  0  0  0  0  0  0
    6.9113   -2.1107   24.0802 C   0  0  0  0  0  0  0  0  0  0  0  0
    6.8674   -0.9545   24.8690 C   0  0  0  0  0  0  0  0  0  0  0  0
    6.3961   -1.0181   26.1673 C   0  0  0  0  0  0  0  0  0  0  0  0
    6.3655    0.4382   27.1233 Cl  0  0  0  0  0  0  0  0  0  0  0  0
    5.9339   -2.2110   26.7252 C   0  0  0  0  0  0  0  0  0  0  0  0
    5.9287   -3.3476   25.9412 C   0  0  0  0  0  0  0  0  0  0  0  0
    6.3940   -3.2982   24.6262 C   0  0  0  0  0  0  0  0  0  0  0  0
    6.2422   -4.5227   23.7918 C   0  0  0  0  0  0  0  0  0  0  0  0
    5.6487   -5.5257   24.1839 O   0  0  0  0  0  0  0  0  0  0  0  0
    5.5478   -4.2923   26.3174 H   0  0  0  0  0  0  0  0  0  0  0  0
    5.5659   -2.2204   27.7461 H   0  0  0  0  0  0  0  0  0  0  0  0
    7.1700    0.0089   24.4724 H   0  0  0  0  0  0  0  0  0  0  0  0
    8.0403   -3.5236   21.1954 H   0  0  0  0  0  0  0  0  0  0  0  0
    8.7314   -3.7973   22.8048 H   0  0  0  0  0  0  0  0  0  0  0  0
    4.9484   -5.5851   21.2301 C   0  0  0  0  0  0  0  0  0  0  0  0
    5.8632   -4.9684   20.2211 C   0  0  0  0  0  0  0  0  0  0  0  0
    6.1308   -5.5646   19.3538 H   0  0  0  0  0  0  0  0  0  0  0  0
    5.7673   -3.8921   20.0827 H   0  0  0  0  0  0  0  0  0  0  0  0
    4.6377   -6.6164   21.0855 H   0  0  0  0  0  0  0  0  0  0  0  0
    4.2665   -4.9426   21.7732 H   0  0  0  0  0  0  0  0  0  0  0  0
    6.1576   -7.2096   23.2745 H   0  0  0  0  0  0  0  0  0  0  0  0
    8.0157   -9.1968   22.1009 H   0  0  0  0  0  0  0  0  0  0  0  0
    8.5937   -8.2706   23.4792 H   0  0  0  0  0  0  0  0  0  0  0  0
    7.1173   -9.2792   23.6407 H   0  0  0  0  0  0  0  0  0  0  0  0
  1  2  1  0
  2  3  1  0
  3  4  2  0
  3  5  1  0
  5  6  1  0
  6  7  1  0
  8  7  1  6
  8  9  1  0
  9 10  2  0
  9 11  1  0
 11 12  1  0
 12 13  2  0
 13 14  1  0
 14 15  2  0
 15 16  1  0
 16 17  2  0
 17 18  1  0
 18 19  2  0
 19 20  1  0
 20 21  2  0
 20 22  1  0
 19 23  1  0
 18 24  1  0
 17 25  1  0
 15 26  1  0
 13 27  1  0
 11 28  1  0
 28 29  1  0
 29 30  1  0
 30 31  1  0
 30 32  1  0
 30 33  1  0
 29 34  1  1
 28 35  1  0
 28 36  1  0
  8 37  1  0
 37 38  2  0
 38 39  1  0
 39 40  1  0
 39 41  2  0
 41 42  1  0
 42 43  2  0
 43 44  1  0
 44 45  2  0
 42 46  1  0
 41 47  1  0
 38 48  1  0
  7 49  1  0
  7 50  1  0
  5 51  1  0
 51 52  1  0
 52 53  1  0
 52 54  1  0
 51 55  1  0
 51 56  1  0
  2 57  1  0
  1 58  1  0
  1 59  1  0
  1 60  1  0
 52  5  1  0
 44  6  1  0
 29  8  1  0
 43 37  1  0
 21 12  1  0
 21 16  1  0
M  END
>  <cnnaffinities>  (84) 
[6.66202]

>  <score>  (84) 
6.66202

>  <index>  (84) 
84

>  <Smiles>  (84) 
C(N(C(=O)C1(N2C([C@@]3(C(=O)N(c4c(nc(c5c(c(c(c(c45)[H])[H])[H])[H])[H])[H])C([C@@]3(C([H])([H])[H])[H])([H])[H])c3c(c(Cl)c(c(c3C2=O)[H])[H])[H])([H])[H])C(C1([H])[H])([H])[H])[H])([H])([H])[H]

>  <h>  (84) 
<NA>

>  <Training>  (84) 
True

>  <Success>  (84) 
True

>  <enamine_searched>  (84) 
False

>  <enamine_id>  (84) 
nan

$$$$

     RDKit          3D

 55 60  0  0  0  0  0  0  0  0999 V2000
    7.7680   -3.0143   23.3115 C   0  0  0  0  0  0  0  0  0  0  0  0
    8.0096   -1.9382   22.2624 C   0  0  1  0  0  0  0  0  0  0  0  0
    6.8346   -1.8271   21.2819 C   0  0  0  0  0  0  0  0  0  0  0  0
    6.8431   -0.4408   20.8910 N   0  0  0  0  0  0  0  0  0  0  0  0
    6.0157    0.0241   19.8418 C   0  0  0  0  0  0  0  0  0  0  0  0
    6.4106   -0.1816   18.5453 C   0  0  0  0  0  0  0  0  0  0  0  0
    5.7461    0.2808   17.4636 N   0  0  0  0  0  0  0  0  0  0  0  0
    4.6494    0.9635   17.6808 C   0  0  0  0  0  0  0  0  0  0  0  0
    4.0782    1.1640   18.9674 C   0  0  0  0  0  0  0  0  0  0  0  0
    2.8608    1.8744   19.1282 C   0  0  0  0  0  0  0  0  0  0  0  0
    2.2951    2.0094   20.3689 C   0  0  0  0  0  0  0  0  0  0  0  0
    2.9211    1.4370   21.5051 C   0  0  0  0  0  0  0  0  0  0  0  0
    4.1302    0.7909   21.3764 C   0  0  0  0  0  0  0  0  0  0  0  0
    4.7500    0.6478   20.0973 C   0  0  0  0  0  0  0  0  0  0  0  0
    4.6287    0.3924   22.2561 H   0  0  0  0  0  0  0  0  0  0  0  0
    2.4574    1.5552   22.4809 H   0  0  0  0  0  0  0  0  0  0  0  0
    1.3673    2.5594   20.4823 H   0  0  0  0  0  0  0  0  0  0  0  0
    2.4043    2.2925   18.2371 H   0  0  0  0  0  0  0  0  0  0  0  0
    4.1499    1.3840   16.8121 H   0  0  0  0  0  0  0  0  0  0  0  0
    7.3468   -0.7041   18.3499 H   0  0  0  0  0  0  0  0  0  0  0  0
    7.6443    0.3774   21.6623 C   0  0  0  0  0  0  0  0  0  0  0  0
    7.7688    1.5743   21.4998 O   0  0  0  0  0  0  0  0  0  0  0  0
    8.2624   -0.4763   22.7907 C   0  0  1  0  0  0  0  0  0  0  0  0
    7.4540   -0.1007   24.0612 C   0  0  0  0  0  0  0  0  0  0  0  0
    8.0678   -0.5541   25.3026 N   0  0  0  0  0  0  0  0  0  0  0  0
    7.2278   -0.9212   26.4260 C   0  0  0  0  0  0  0  0  0  0  0  0
    7.0297   -2.3983   26.5318 C   0  0  0  0  0  0  0  0  0  0  0  0
    7.9441   -3.3780   26.7318 C   0  0  0  0  0  0  0  0  0  0  0  0
    7.2764   -4.5737   26.7755 O   0  0  0  0  0  0  0  0  0  0  0  0
    5.9882   -4.2347   26.5884 C   0  0  0  0  0  0  0  0  0  0  0  0
    5.7746   -2.9738   26.4358 N   0  0  0  0  0  0  0  0  0  0  0  0
    5.2460   -5.0267   26.6107 H   0  0  0  0  0  0  0  0  0  0  0  0
    9.0118   -3.4077   26.9074 H   0  0  0  0  0  0  0  0  0  0  0  0
    7.7156   -0.5407   27.3295 H   0  0  0  0  0  0  0  0  0  0  0  0
    6.2529   -0.4410   26.3129 H   0  0  0  0  0  0  0  0  0  0  0  0
    9.4093   -0.4536   25.5421 C   0  0  0  0  0  0  0  0  0  0  0  0
    9.8961   -0.5389   26.6637 O   0  0  0  0  0  0  0  0  0  0  0  0
   10.2634   -0.2349   24.3518 C   0  0  0  0  0  0  0  0  0  0  0  0
   11.6265   -0.0933   24.6013 C   0  0  0  0  0  0  0  0  0  0  0  0
   12.5052    0.1868   23.5805 C   0  0  0  0  0  0  0  0  0  0  0  0
   11.9756    0.2939   22.3003 C   0  0  0  0  0  0  0  0  0  0  0  0
   12.8274    0.6035   21.3114 F   0  0  0  0  0  0  0  0  0  0  0  0
   10.6337    0.0890   22.0171 C   0  0  0  0  0  0  0  0  0  0  0  0
    9.7343   -0.1797   23.0569 C   0  0  0  0  0  0  0  0  0  0  0  0
   10.2926    0.1346   20.9907 H   0  0  0  0  0  0  0  0  0  0  0  0
   13.5677    0.3250   23.7543 H   0  0  0  0  0  0  0  0  0  0  0  0
   11.9570   -0.2035   25.6270 H   0  0  0  0  0  0  0  0  0  0  0  0
    7.3407    0.9936   24.0718 H   0  0  0  0  0  0  0  0  0  0  0  0
    6.4471   -0.5335   23.9895 H   0  0  0  0  0  0  0  0  0  0  0  0
    5.8770   -2.1065   21.7528 H   0  0  0  0  0  0  0  0  0  0  0  0
    6.9500   -2.4589   20.3968 H   0  0  0  0  0  0  0  0  0  0  0  0
    8.9075   -2.2076   21.6865 H   0  0  0  0  0  0  0  0  0  0  0  0
    8.5838   -3.0367   24.0382 H   0  0  0  0  0  0  0  0  0  0  0  0
    6.8336   -2.8424   23.8594 H   0  0  0  0  0  0  0  0  0  0  0  0
    7.6987   -3.9949   22.8288 H   0  0  0  0  0  0  0  0  0  0  0  0
  1  2  1  0
  2  3  1  0
  3  4  1  0
  4  5  1  0
  5  6  2  0
  6  7  1  0
  7  8  2  0
  8  9  1  0
  9 10  2  0
 10 11  1  0
 11 12  2  0
 12 13  1  0
 13 14  2  0
 13 15  1  0
 12 16  1  0
 11 17  1  0
 10 18  1  0
  8 19  1  0
  6 20  1  0
  4 21  1  0
 21 22  2  0
 21 23  1  0
 23 24  1  1
 24 25  1  0
 25 26  1  0
 26 27  1  0
 27 28  2  0
 28 29  1  0
 29 30  1  0
 30 31  2  0
 30 32  1  0
 28 33  1  0
 26 34  1  0
 26 35  1  0
 25 36  1  0
 36 37  2  0
 36 38  1  0
 38 39  2  0
 39 40  1  0
 40 41  2  0
 41 42  1  0
 41 43  1  0
 43 44  2  0
 43 45  1  0
 40 46  1  0
 39 47  1  0
 24 48  1  0
 24 49  1  0
  3 50  1  0
  3 51  1  0
  2 52  1  6
  1 53  1  0
  1 54  1  0
  1 55  1  0
 23  2  1  0
 31 27  1  0
 44 38  1  0
 14  5  1  0
 44 23  1  0
 14  9  1  0
M  END
>  <cnnaffinities>  (85) 
[6.36695, 6.23092, 6.26173]

>  <score>  (85) 
6.36695

>  <index>  (85) 
85

>  <Smiles>  (85) 
C([C@]1(C(N(c2c(nc(c3c(c(c(c(c23)[H])[H])[H])[H])[H])[H])C(=O)[C@]21C(N(C(c1c(oc(n1)[H])[H])([H])[H])C(=O)c1c(c(c(F)c(c21)[H])[H])[H])([H])[H])([H])[H])[H])([H])([H])[H]

>  <h>  (85) 
<NA>

>  <Training>  (85) 
True

>  <Success>  (85) 
True

>  <enamine_searched>  (85) 
False

>  <enamine_id>  (85) 
nan

$$$$

     RDKit          3D

 65 70  0  0  0  0  0  0  0  0999 V2000
    6.7167    2.3176   28.8970 C   0  0  0  0  0  0  0  0  0  0  0  0
    7.2196    1.1752   28.1583 N   0  0  0  0  0  0  0  0  0  0  0  0
    6.6730    0.8526   26.9573 C   0  0  0  0  0  0  0  0  0  0  0  0
    5.8447    1.5536   26.3927 O   0  0  0  0  0  0  0  0  0  0  0  0
    7.1314   -0.4881   26.3757 C   0  0  0  0  0  0  0  0  0  0  0  0
    8.0514   -0.3357   25.2649 N   0  0  0  0  0  0  0  0  0  0  0  0
    7.5669    0.1670   23.9905 C   0  0  0  0  0  0  0  0  0  0  0  0
    8.3292   -0.4507   22.7931 C   0  0  2  0  0  0  0  0  0  0  0  0
    7.8490    0.3220   21.5354 C   0  0  0  0  0  0  0  0  0  0  0  0
    8.2182    1.4031   21.1365 O   0  0  0  0  0  0  0  0  0  0  0  0
    6.8362   -0.4193   20.9488 N   0  0  0  0  0  0  0  0  0  0  0  0
    6.0403    0.0717   19.8777 C   0  0  0  0  0  0  0  0  0  0  0  0
    6.4706   -0.0851   18.5846 C   0  0  0  0  0  0  0  0  0  0  0  0
    5.7872    0.3469   17.4944 N   0  0  0  0  0  0  0  0  0  0  0  0
    4.6422    0.9512   17.6917 C   0  0  0  0  0  0  0  0  0  0  0  0
    4.0373    1.1178   18.9713 C   0  0  0  0  0  0  0  0  0  0  0  0
    2.7766    1.7563   19.1344 C   0  0  0  0  0  0  0  0  0  0  0  0
    2.2193    1.8662   20.3788 C   0  0  0  0  0  0  0  0  0  0  0  0
    2.8674    1.3046   21.5015 C   0  0  0  0  0  0  0  0  0  0  0  0
    4.0918    0.6932   21.3715 C   0  0  0  0  0  0  0  0  0  0  0  0
    4.7315    0.6220   20.1019 C   0  0  0  0  0  0  0  0  0  0  0  0
    4.5608    0.2409   22.2395 H   0  0  0  0  0  0  0  0  0  0  0  0
    2.4055    1.3822   22.4805 H   0  0  0  0  0  0  0  0  0  0  0  0
    1.2666    2.3710   20.5124 H   0  0  0  0  0  0  0  0  0  0  0  0
    2.2844    2.1749   18.2598 H   0  0  0  0  0  0  0  0  0  0  0  0
    4.0933    1.2878   16.8103 H   0  0  0  0  0  0  0  0  0  0  0  0
    7.3991   -0.6215   18.3894 H   0  0  0  0  0  0  0  0  0  0  0  0
    6.6764   -1.7547   21.4876 C   0  0  0  0  0  0  0  0  0  0  0  0
    7.8878   -1.9077   22.4144 C   0  0  2  0  0  0  0  0  0  0  0  0
    7.5884   -2.8795   23.5639 C   0  0  0  0  0  0  0  0  0  0  0  0
    7.3381   -4.2429   23.1072 N   0  0  0  0  0  0  0  0  0  0  0  0
    6.1199   -4.8079   22.9846 C   0  0  0  0  0  0  0  0  0  0  0  0
    5.0589   -4.2057   23.5639 N   0  0  0  0  0  0  0  0  0  0  0  0
    3.9247   -4.8841   23.4647 C   0  0  0  0  0  0  0  0  0  0  0  0
    3.7331   -6.0278   22.8104 N   0  0  0  0  0  0  0  0  0  0  0  0
    4.8477   -6.5025   22.2431 C   0  0  0  0  0  0  0  0  0  0  0  0
    6.0550   -5.9701   22.2907 N   0  0  0  0  0  0  0  0  0  0  0  0
    4.7427   -7.4356   21.6890 H   0  0  0  0  0  0  0  0  0  0  0  0
    3.0703   -4.4692   23.9985 H   0  0  0  0  0  0  0  0  0  0  0  0
    8.0735   -4.7143   22.5986 H   0  0  0  0  0  0  0  0  0  0  0  0
    8.4336   -2.8839   24.2565 H   0  0  0  0  0  0  0  0  0  0  0  0
    6.6977   -2.5567   24.1097 H   0  0  0  0  0  0  0  0  0  0  0  0
    8.7322   -2.3147   21.8370 H   0  0  0  0  0  0  0  0  0  0  0  0
    6.6616   -2.5066   20.6901 H   0  0  0  0  0  0  0  0  0  0  0  0
    5.7323   -1.8653   22.0472 H   0  0  0  0  0  0  0  0  0  0  0  0
    9.8210   -0.3322   23.0881 C   0  0  0  0  0  0  0  0  0  0  0  0
   10.7628   -0.3647   22.0473 C   0  0  0  0  0  0  0  0  0  0  0  0
   12.1171   -0.2985   22.3424 C   0  0  0  0  0  0  0  0  0  0  0  0
   13.3191   -0.2949   21.0896 Cl  0  0  0  0  0  0  0  0  0  0  0  0
   12.5896   -0.2267   23.6498 C   0  0  0  0  0  0  0  0  0  0  0  0
   11.6730   -0.2003   24.6791 C   0  0  0  0  0  0  0  0  0  0  0  0
   10.3056   -0.2447   24.4052 C   0  0  0  0  0  0  0  0  0  0  0  0
    9.3798   -0.2690   25.5753 C   0  0  0  0  0  0  0  0  0  0  0  0
    9.7802   -0.2654   26.7367 O   0  0  0  0  0  0  0  0  0  0  0  0
   12.0008   -0.1565   25.7123 H   0  0  0  0  0  0  0  0  0  0  0  0
   13.6599   -0.1995   23.8309 H   0  0  0  0  0  0  0  0  0  0  0  0
   10.4403   -0.4337   21.0130 H   0  0  0  0  0  0  0  0  0  0  0  0
    7.6933    1.2568   23.9373 H   0  0  0  0  0  0  0  0  0  0  0  0
    6.4915   -0.0342   23.9184 H   0  0  0  0  0  0  0  0  0  0  0  0
    7.6448   -1.0914   27.1278 H   0  0  0  0  0  0  0  0  0  0  0  0
    6.2357   -1.0208   26.0353 H   0  0  0  0  0  0  0  0  0  0  0  0
    8.0741    0.7147   28.4419 H   0  0  0  0  0  0  0  0  0  0  0  0
    7.2322    2.3906   29.8565 H   0  0  0  0  0  0  0  0  0  0  0  0
    5.6425    2.1921   29.0618 H   0  0  0  0  0  0  0  0  0  0  0  0
    6.8520    3.2615   28.3594 H   0  0  0  0  0  0  0  0  0  0  0  0
  1  2  1  0
  2  3  1  0
  3  4  2  0
  3  5  1  0
  5  6  1  0
  6  7  1  0
  8  7  1  1
  8  9  1  0
  9 10  2  0
  9 11  1  0
 11 12  1  0
 12 13  2  0
 13 14  1  0
 14 15  2  0
 15 16  1  0
 16 17  2  0
 17 18  1  0
 18 19  2  0
 19 20  1  0
 20 21  2  0
 20 22  1  0
 19 23  1  0
 18 24  1  0
 17 25  1  0
 15 26  1  0
 13 27  1  0
 11 28  1  0
 28 29  1  0
 29 30  1  0
 30 31  1  0
 31 32  1  0
 32 33  2  0
 33 34  1  0
 34 35  2  0
 35 36  1  0
 36 37  2  0
 36 38  1  0
 34 39  1  0
 31 40  1  0
 30 41  1  0
 30 42  1  0
 29 43  1  6
 28 44  1  0
 28 45  1  0
  8 46  1  0
 46 47  2  0
 47 48  1  0
 48 49  1  0
 48 50  2  0
 50 51  1  0
 51 52  2  0
 52 53  1  0
 53 54  2  0
 51 55  1  0
 50 56  1  0
 47 57  1  0
  7 58  1  0
  7 59  1  0
  5 60  1  0
  5 61  1  0
  2 62  1  0
  1 63  1  0
  1 64  1  0
  1 65  1  0
 53  6  1  0
 29  8  1  0
 37 32  1  0
 52 46  1  0
 21 12  1  0
 21 16  1  0
M  END
>  <cnnaffinities>  (86) 
[6.6991, 7.49209, 6.73951, 7.43945]

>  <score>  (86) 
6.6991

>  <index>  (86) 
86

>  <Smiles>  (86) 
C(N(C(=O)C(N1C([C@@]2(C(=O)N(c3c(nc(c4c(c(c(c(c34)[H])[H])[H])[H])[H])[H])C([C@@]2(C(N(c2nc(nc(n2)[H])[H])[H])([H])[H])[H])([H])[H])c2c(c(Cl)c(c(c2C1=O)[H])[H])[H])([H])[H])([H])[H])[H])([H])([H])[H]

>  <h>  (86) 
<NA>

>  <Training>  (86) 
True

>  <Success>  (86) 
True

>  <enamine_searched>  (86) 
False

>  <enamine_id>  (86) 
nan

$$$$

     RDKit          3D

 63 68  0  0  0  0  0  0  0  0999 V2000
    4.9881   -3.1079   18.8223 C   0  0  0  0  0  0  0  0  0  0  0  0
    5.5287   -3.7662   19.9898 N   0  0  0  0  0  0  0  0  0  0  0  0
    5.9360   -5.0483   20.0761 C   0  0  0  0  0  0  0  0  0  0  0  0
    5.6891   -5.9204   19.2598 O   0  0  0  0  0  0  0  0  0  0  0  0
    6.8172   -5.3646   21.3066 C   0  0  0  0  0  0  0  0  0  0  0  0
    6.8623   -4.3525   22.3511 N   0  0  0  0  0  0  0  0  0  0  0  0
    7.7666   -3.2114   22.2147 C   0  0  0  0  0  0  0  0  0  0  0  0
    7.1704   -1.9195   22.8302 C   0  0  2  0  0  0  0  0  0  0  0  0
    6.0677   -1.3550   21.9136 C   0  0  0  0  0  0  0  0  0  0  0  0
    4.9311   -1.7972   21.8264 O   0  0  0  0  0  0  0  0  0  0  0  0
    6.5738   -0.3242   21.1499 N   0  0  0  0  0  0  0  0  0  0  0  0
    5.8925    0.2418   20.0607 C   0  0  0  0  0  0  0  0  0  0  0  0
    6.5439    0.4094   18.8615 C   0  0  0  0  0  0  0  0  0  0  0  0
    5.9395    0.8079   17.7210 N   0  0  0  0  0  0  0  0  0  0  0  0
    4.6556    1.0759   17.7793 C   0  0  0  0  0  0  0  0  0  0  0  0
    3.8948    1.0450   18.9747 C   0  0  0  0  0  0  0  0  0  0  0  0
    2.5413    1.4689   18.9927 C   0  0  0  0  0  0  0  0  0  0  0  0
    1.8305    1.5275   20.1628 C   0  0  0  0  0  0  0  0  0  0  0  0
    2.4661    1.1929   21.3747 C   0  0  0  0  0  0  0  0  0  0  0  0
    3.7724    0.7667   21.3824 C   0  0  0  0  0  0  0  0  0  0  0  0
    4.5171    0.6475   20.1724 C   0  0  0  0  0  0  0  0  0  0  0  0
    4.2474    0.5265   22.3241 H   0  0  0  0  0  0  0  0  0  0  0  0
    1.9082    1.2250   22.3059 H   0  0  0  0  0  0  0  0  0  0  0  0
    0.8006    1.8688   20.1742 H   0  0  0  0  0  0  0  0  0  0  0  0
    2.1146    1.7999   18.0568 H   0  0  0  0  0  0  0  0  0  0  0  0
    4.1633    1.3774   16.8539 H   0  0  0  0  0  0  0  0  0  0  0  0
    7.6132    0.2169   18.7738 H   0  0  0  0  0  0  0  0  0  0  0  0
    8.0158   -0.2013   21.3381 C   0  0  0  0  0  0  0  0  0  0  0  0
    8.1667   -0.7323   22.7614 C   0  0  2  0  0  0  0  0  0  0  0  0
    9.6202   -0.9670   23.1606 C   0  0  0  0  0  0  0  0  0  0  0  0
   10.2960    0.3041   23.3506 N   0  0  0  0  0  0  0  0  0  0  0  0
   10.1813    1.1120   24.4272 C   0  0  0  0  0  0  0  0  0  0  0  0
   10.8004    2.2987   24.1061 C   0  0  0  0  0  0  0  0  0  0  0  0
   11.2523    2.1034   22.7834 C   0  0  0  0  0  0  0  0  0  0  0  0
   10.9284    0.8964   22.3314 N   0  0  0  0  0  0  0  0  0  0  0  0
   11.7912    2.7892   22.1394 H   0  0  0  0  0  0  0  0  0  0  0  0
   10.8986    3.1838   24.7189 H   0  0  0  0  0  0  0  0  0  0  0  0
    9.6602    0.7726   25.3128 H   0  0  0  0  0  0  0  0  0  0  0  0
    9.6926   -1.5319   24.0961 H   0  0  0  0  0  0  0  0  0  0  0  0
   10.1677   -1.5025   22.3795 H   0  0  0  0  0  0  0  0  0  0  0  0
    7.7443    0.0380   23.4097 H   0  0  0  0  0  0  0  0  0  0  0  0
    8.5637   -0.8376   20.6265 H   0  0  0  0  0  0  0  0  0  0  0  0
    8.3701    0.8211   21.2062 H   0  0  0  0  0  0  0  0  0  0  0  0
    6.5997   -2.2402   24.1965 C   0  0  0  0  0  0  0  0  0  0  0  0
    6.3039   -1.2079   25.0956 C   0  0  0  0  0  0  0  0  0  0  0  0
    5.6612   -1.4889   26.2859 C   0  0  0  0  0  0  0  0  0  0  0  0
    5.2508   -0.1740   27.3465 Cl  0  0  0  0  0  0  0  0  0  0  0  0
    5.3211   -2.7891   26.6518 C   0  0  0  0  0  0  0  0  0  0  0  0
    5.6056   -3.8137   25.7735 C   0  0  0  0  0  0  0  0  0  0  0  0
    6.2088   -3.5412   24.5450 C   0  0  0  0  0  0  0  0  0  0  0  0
    6.3687   -4.6865   23.5926 C   0  0  0  0  0  0  0  0  0  0  0  0
    6.0337   -5.8260   23.8905 O   0  0  0  0  0  0  0  0  0  0  0  0
    5.3499   -4.8443   25.9992 H   0  0  0  0  0  0  0  0  0  0  0  0
    4.8121   -2.9740   27.5909 H   0  0  0  0  0  0  0  0  0  0  0  0
    6.5488   -0.1768   24.8696 H   0  0  0  0  0  0  0  0  0  0  0  0
    7.9782   -3.0600   21.1533 H   0  0  0  0  0  0  0  0  0  0  0  0
    8.7183   -3.4347   22.7179 H   0  0  0  0  0  0  0  0  0  0  0  0
    6.4416   -6.2931   21.7401 H   0  0  0  0  0  0  0  0  0  0  0  0
    7.8367   -5.5889   20.9584 H   0  0  0  0  0  0  0  0  0  0  0  0
    5.4675   -3.2598   20.8588 H   0  0  0  0  0  0  0  0  0  0  0  0
    4.9911   -3.7879   17.9703 H   0  0  0  0  0  0  0  0  0  0  0  0
    3.9770   -2.7509   19.0298 H   0  0  0  0  0  0  0  0  0  0  0  0
    5.5899   -2.2326   18.5471 H   0  0  0  0  0  0  0  0  0  0  0  0
  1  2  1  0
  2  3  1  0
  3  4  2  0
  3  5  1  0
  5  6  1  0
  6  7  1  0
  8  7  1  6
  8  9  1  0
  9 10  2  0
  9 11  1  0
 11 12  1  0
 12 13  2  0
 13 14  1  0
 14 15  2  0
 15 16  1  0
 16 17  2  0
 17 18  1  0
 18 19  2  0
 19 20  1  0
 20 21  2  0
 20 22  1  0
 19 23  1  0
 18 24  1  0
 17 25  1  0
 15 26  1  0
 13 27  1  0
 11 28  1  0
 28 29  1  0
 29 30  1  0
 30 31  1  0
 31 32  1  0
 32 33  2  0
 33 34  1  0
 34 35  2  0
 34 36  1  0
 33 37  1  0
 32 38  1  0
 30 39  1  0
 30 40  1  0
 29 41  1  1
 28 42  1  0
 28 43  1  0
  8 44  1  0
 44 45  2  0
 45 46  1  0
 46 47  1  0
 46 48  2  0
 48 49  1  0
 49 50  2  0
 50 51  1  0
 51 52  2  0
 49 53  1  0
 48 54  1  0
 45 55  1  0
  7 56  1  0
  7 57  1  0
  5 58  1  0
  5 59  1  0
  2 60  1  0
  1 61  1  0
  1 62  1  0
  1 63  1  0
 51  6  1  0
 29  8  1  0
 35 31  1  0
 50 44  1  0
 21 12  1  0
 21 16  1  0
M  END
>  <cnnaffinities>  (87) 
[6.88826]

>  <score>  (87) 
6.88826

>  <index>  (87) 
87

>  <Smiles>  (87) 
C(N(C(=O)C(N1C([C@@]2(C(=O)N(c3c(nc(c4c(c(c(c(c34)[H])[H])[H])[H])[H])[H])C([C@@]2(C(n2c(c(c(n2)[H])[H])[H])([H])[H])[H])([H])[H])c2c(c(Cl)c(c(c2C1=O)[H])[H])[H])([H])[H])([H])[H])[H])([H])([H])[H]

>  <h>  (87) 
<NA>

>  <Training>  (87) 
True

>  <Success>  (87) 
True

>  <enamine_searched>  (87) 
False

>  <enamine_id>  (87) 
nan

$$$$

     RDKit          3D

 64 68  0  0  0  0  0  0  0  0999 V2000
    5.8733    5.3240   26.0506 C   0  0  0  0  0  0  0  0  0  0  0  0
    6.8817    4.9154   27.1414 C   0  0  0  0  0  0  0  0  0  0  0  0
    7.8892    3.9045   26.5937 C   0  0  0  0  0  0  0  0  0  0  0  0
    7.6121    2.7106   26.6869 O   0  0  0  0  0  0  0  0  0  0  0  0
    8.9582    4.3248   25.8082 N   0  0  0  0  0  0  0  0  0  0  0  0
    9.5258    5.6673   25.9343 C   0  0  0  0  0  0  0  0  0  0  0  0
   11.0601    5.5852   25.9127 C   0  0  0  0  0  0  0  0  0  0  0  0
   11.5723    4.8800   24.6469 C   0  0  0  0  0  0  0  0  0  0  0  0
   10.7272    3.6980   24.2354 C   0  0  0  0  0  0  0  0  0  0  0  0
   11.1816    2.8542   23.2071 C   0  0  0  0  0  0  0  0  0  0  0  0
   10.3237    1.8923   22.6522 C   0  0  0  0  0  0  0  0  0  0  0  0
    9.0237    1.7633   23.1365 C   0  0  0  0  0  0  0  0  0  0  0  0
    8.1284    0.8288   22.6226 N   0  0  0  0  0  0  0  0  0  0  0  0
    7.4361   -0.0184   23.5827 C   0  0  0  0  0  0  0  0  0  0  0  0
    8.0660   -1.3864   23.6019 C   0  0  0  0  0  0  0  0  0  0  0  0
    7.2613   -2.5259   23.4888 C   0  0  0  0  0  0  0  0  0  0  0  0
    7.8267   -3.8033   23.5276 C   0  0  0  0  0  0  0  0  0  0  0  0
    9.2062   -3.9440   23.7324 C   0  0  0  0  0  0  0  0  0  0  0  0
   10.0237   -2.8137   23.8414 C   0  0  0  0  0  0  0  0  0  0  0  0
   11.9069   -3.0109   24.1136 Br  0  0  0  0  0  0  0  0  0  0  0  0
    9.4557   -1.5407   23.7467 C   0  0  0  0  0  0  0  0  0  0  0  0
   10.1087   -0.6737   23.7981 H   0  0  0  0  0  0  0  0  0  0  0  0
    9.6539   -4.9274   23.8005 H   0  0  0  0  0  0  0  0  0  0  0  0
    7.1898   -4.6748   23.4066 H   0  0  0  0  0  0  0  0  0  0  0  0
    6.1875   -2.4030   23.3962 H   0  0  0  0  0  0  0  0  0  0  0  0
    6.3747   -0.0730   23.3310 H   0  0  0  0  0  0  0  0  0  0  0  0
    7.4887    0.4113   24.5865 H   0  0  0  0  0  0  0  0  0  0  0  0
    7.9291    0.6219   21.2630 C   0  0  0  0  0  0  0  0  0  0  0  0
    8.5539    1.2576   20.4209 O   0  0  0  0  0  0  0  0  0  0  0  0
    6.8967   -0.4363   20.8313 C   0  0  0  0  0  0  0  0  0  0  0  0
    5.9589   -0.0010   19.7146 C   0  0  0  0  0  0  0  0  0  0  0  0
    6.4081   -0.0114   18.3847 C   0  0  0  0  0  0  0  0  0  0  0  0
    5.6709    0.4163   17.3500 N   0  0  0  0  0  0  0  0  0  0  0  0
    4.4504    0.9062   17.6139 C   0  0  0  0  0  0  0  0  0  0  0  0
    3.8876    0.9269   18.8930 C   0  0  0  0  0  0  0  0  0  0  0  0
    2.6062    1.4651   19.1097 C   0  0  0  0  0  0  0  0  0  0  0  0
    2.0639    1.4825   20.3979 C   0  0  0  0  0  0  0  0  0  0  0  0
    2.7991    0.9702   21.4712 C   0  0  0  0  0  0  0  0  0  0  0  0
    4.0844    0.4505   21.2567 C   0  0  0  0  0  0  0  0  0  0  0  0
    4.6467    0.4365   19.9709 C   0  0  0  0  0  0  0  0  0  0  0  0
    4.6627    0.1114   22.1073 H   0  0  0  0  0  0  0  0  0  0  0  0
    2.3758    0.9865   22.4727 H   0  0  0  0  0  0  0  0  0  0  0  0
    1.0860    1.9247   20.5717 H   0  0  0  0  0  0  0  0  0  0  0  0
    2.0586    1.9220   18.2893 H   0  0  0  0  0  0  0  0  0  0  0  0
    3.8959    1.3221   16.7816 H   0  0  0  0  0  0  0  0  0  0  0  0
    7.4220   -0.3536   18.2059 H   0  0  0  0  0  0  0  0  0  0  0  0
    6.2889   -0.6940   21.6989 H   0  0  0  0  0  0  0  0  0  0  0  0
    7.4453   -1.3358   20.5488 H   0  0  0  0  0  0  0  0  0  0  0  0
    8.6076    2.5478   24.2081 C   0  0  0  0  0  0  0  0  0  0  0  0
    9.4446    3.5084   24.7757 C   0  0  0  0  0  0  0  0  0  0  0  0
    7.5944    2.4401   24.5752 H   0  0  0  0  0  0  0  0  0  0  0  0
   10.6530    1.2469   21.8451 H   0  0  0  0  0  0  0  0  0  0  0  0
   12.1915    2.9700   22.8224 H   0  0  0  0  0  0  0  0  0  0  0  0
   12.6148    4.5768   24.7839 H   0  0  0  0  0  0  0  0  0  0  0  0
   11.5424    5.5934   23.8194 H   0  0  0  0  0  0  0  0  0  0  0  0
   11.4822    6.5938   25.9542 H   0  0  0  0  0  0  0  0  0  0  0  0
   11.4126    5.0514   26.7984 H   0  0  0  0  0  0  0  0  0  0  0  0
    9.2145    6.1427   26.8718 H   0  0  0  0  0  0  0  0  0  0  0  0
    9.1751    6.2903   25.1049 H   0  0  0  0  0  0  0  0  0  0  0  0
    6.3518    4.4570   27.9814 H   0  0  0  0  0  0  0  0  0  0  0  0
    7.4070    5.8000   27.5126 H   0  0  0  0  0  0  0  0  0  0  0  0
    5.1672    6.0605   26.4445 H   0  0  0  0  0  0  0  0  0  0  0  0
    5.3028    4.4533   25.7039 H   0  0  0  0  0  0  0  0  0  0  0  0
    6.3849    5.7708   25.1894 H   0  0  0  0  0  0  0  0  0  0  0  0
  1  2  1  0
  2  3  1  0
  3  4  2  0
  3  5  1  0
  5  6  1  0
  6  7  1  0
  7  8  1  0
  8  9  1  0
  9 10  2  0
 10 11  1  0
 11 12  2  0
 12 13  1  0
 13 14  1  0
 14 15  1  0
 15 16  2  0
 16 17  1  0
 17 18  2  0
 18 19  1  0
 19 20  1  0
 19 21  2  0
 21 22  1  0
 18 23  1  0
 17 24  1  0
 16 25  1  0
 14 26  1  0
 14 27  1  0
 13 28  1  0
 28 29  2  0
 28 30  1  0
 30 31  1  0
 31 32  2  0
 32 33  1  0
 33 34  2  0
 34 35  1  0
 35 36  2  0
 36 37  1  0
 37 38  2  0
 38 39  1  0
 39 40  2  0
 39 41  1  0
 38 42  1  0
 37 43  1  0
 36 44  1  0
 34 45  1  0
 32 46  1  0
 30 47  1  0
 30 48  1  0
 12 49  1  0
 49 50  2  0
 49 51  1  0
 11 52  1  0
 10 53  1  0
  8 54  1  0
  8 55  1  0
  7 56  1  0
  7 57  1  0
  6 58  1  0
  6 59  1  0
  2 60  1  0
  2 61  1  0
  1 62  1  0
  1 63  1  0
  1 64  1  0
 50  5  1  0
 50  9  1  0
 21 15  1  0
 40 31  1  0
 40 35  1  0
M  END
>  <cnnaffinities>  (88) 
[6.88979]

>  <score>  (88) 
6.88979

>  <index>  (88) 
88

>  <Smiles>  (88) 
C(C(C(=O)N1C(C(C(c2c(c(c(N(C(c3c(c(c(c(Br)c3[H])[H])[H])[H])([H])[H])C(=O)C(c3c(nc(c4c(c(c(c(c34)[H])[H])[H])[H])[H])[H])([H])[H])c(c12)[H])[H])[H])([H])[H])([H])[H])([H])[H])([H])[H])([H])([H])[H]

>  <h>  (88) 
<NA>

>  <Training>  (88) 
True

>  <Success>  (88) 
True

>  <enamine_searched>  (88) 
False

>  <enamine_id>  (88) 
nan

$$$$

     RDKit          3D

 38 40  0  0  0  0  0  0  0  0999 V2000
    7.9912    1.6472   20.8686 O   0  0  0  0  0  0  0  0  0  0  0  0
    7.8481    0.5887   21.4567 C   0  0  0  0  0  0  0  0  0  0  0  0
    6.8900   -0.5037   20.9610 C   0  0  0  0  0  0  0  0  0  0  0  0
    5.9752   -0.0534   19.8630 C   0  0  0  0  0  0  0  0  0  0  0  0
    6.3964   -0.1616   18.5623 C   0  0  0  0  0  0  0  0  0  0  0  0
    5.7459    0.3237   17.4770 N   0  0  0  0  0  0  0  0  0  0  0  0
    4.6270    0.9635   17.6937 C   0  0  0  0  0  0  0  0  0  0  0  0
    4.0393    1.1207   18.9758 C   0  0  0  0  0  0  0  0  0  0  0  0
    2.8153    1.8150   19.1501 C   0  0  0  0  0  0  0  0  0  0  0  0
    2.2442    1.9174   20.3865 C   0  0  0  0  0  0  0  0  0  0  0  0
    2.8809    1.3295   21.5041 C   0  0  0  0  0  0  0  0  0  0  0  0
    4.0915    0.6890   21.3654 C   0  0  0  0  0  0  0  0  0  0  0  0
    4.7139    0.5770   20.0952 C   0  0  0  0  0  0  0  0  0  0  0  0
    4.5908    0.2816   22.2369 H   0  0  0  0  0  0  0  0  0  0  0  0
    2.4193    1.4218   22.4831 H   0  0  0  0  0  0  0  0  0  0  0  0
    1.3137    2.4671   20.5192 H   0  0  0  0  0  0  0  0  0  0  0  0
    2.3394    2.2454   18.2741 H   0  0  0  0  0  0  0  0  0  0  0  0
    4.1313    1.3993   16.8261 H   0  0  0  0  0  0  0  0  0  0  0  0
    7.3574   -0.6233   18.3489 H   0  0  0  0  0  0  0  0  0  0  0  0
    7.5274   -1.3189   20.5883 H   0  0  0  0  0  0  0  0  0  0  0  0
    6.3331   -0.8946   21.8187 H   0  0  0  0  0  0  0  0  0  0  0  0
    8.5383    0.2959   22.6160 N   0  0  0  0  0  0  0  0  0  0  0  0
    9.3982    1.3453   23.1686 C   0  0  0  0  0  0  0  0  0  0  0  0
   10.7640    1.4490   22.5201 C   0  0  0  0  0  0  0  0  0  0  0  0
   11.6364    0.4443   22.4664 C   0  0  0  0  0  0  0  0  0  0  0  0
   11.4011   -0.9253   23.0665 C   0  0  0  0  0  0  0  0  0  0  0  0
   10.1310   -1.6565   22.5895 C   0  0  0  0  0  0  0  0  0  0  0  0
    8.8092   -1.0598   23.0846 C   0  0  0  0  0  0  0  0  0  0  0  0
    8.8242   -1.0240   24.1823 H   0  0  0  0  0  0  0  0  0  0  0  0
    7.9832   -1.7196   22.8024 H   0  0  0  0  0  0  0  0  0  0  0  0
   10.1255   -1.6966   21.4918 H   0  0  0  0  0  0  0  0  0  0  0  0
   10.1801   -2.6973   22.9391 H   0  0  0  0  0  0  0  0  0  0  0  0
   12.2633   -1.5649   22.8412 H   0  0  0  0  0  0  0  0  0  0  0  0
   11.3647   -0.8296   24.1641 H   0  0  0  0  0  0  0  0  0  0  0  0
   12.5900    0.6195   21.9661 H   0  0  0  0  0  0  0  0  0  0  0  0
   11.0221    2.4106   22.0768 H   0  0  0  0  0  0  0  0  0  0  0  0
    9.5209    1.1179   24.2371 H   0  0  0  0  0  0  0  0  0  0  0  0
    8.8753    2.3036   23.0976 H   0  0  0  0  0  0  0  0  0  0  0  0
  1  2  2  0
  2  3  1  0
  3  4  1  0
  4  5  2  0
  5  6  1  0
  6  7  2  0
  7  8  1  0
  8  9  2  0
  9 10  1  0
 10 11  2  0
 11 12  1  0
 12 13  2  0
 12 14  1  0
 11 15  1  0
 10 16  1  0
  9 17  1  0
  7 18  1  0
  5 19  1  0
  3 20  1  0
  3 21  1  0
  2 22  1  0
 22 23  1  0
 23 24  1  0
 24 25  2  0
 25 26  1  0
 26 27  1  0
 27 28  1  0
 28 29  1  0
 28 30  1  0
 27 31  1  0
 27 32  1  0
 26 33  1  0
 26 34  1  0
 25 35  1  0
 24 36  1  0
 23 37  1  0
 23 38  1  0
 13  4  1  0
 28 22  1  0
 13  8  1  0
M  END
>  <cnnaffinities>  (89) 
[5.43746, 5.32019, 5.5477, 5.49956, 5.21985]

>  <score>  (89) 
5.43746

>  <index>  (89) 
89

>  <Smiles>  (89) 
O=C(C(c1c(nc(c2c(c(c(c(c12)[H])[H])[H])[H])[H])[H])([H])[H])N1C(C(=C(C(C(C1([H])[H])([H])[H])([H])[H])[H])[H])([H])[H]

>  <h>  (89) 
<NA>

>  <Training>  (89) 
True

>  <Success>  (89) 
True

>  <enamine_searched>  (89) 
False

>  <enamine_id>  (89) 
nan

$$$$

     RDKit          3D

 62 67  0  0  0  0  0  0  0  0999 V2000
    8.0841   -2.9839   23.1783 C   0  0  0  0  0  0  0  0  0  0  0  0
    8.0763   -1.8316   22.1768 C   0  0  1  0  0  0  0  0  0  0  0  0
    6.8203   -1.8260   21.2895 C   0  0  0  0  0  0  0  0  0  0  0  0
    6.6969   -0.4399   20.8961 N   0  0  0  0  0  0  0  0  0  0  0  0
    5.8591   -0.0078   19.8304 C   0  0  0  0  0  0  0  0  0  0  0  0
    6.3184   -0.0484   18.5415 C   0  0  0  0  0  0  0  0  0  0  0  0
    5.6467    0.4439   17.4717 N   0  0  0  0  0  0  0  0  0  0  0  0
    4.4539    0.9456   17.6799 C   0  0  0  0  0  0  0  0  0  0  0  0
    3.8181    0.9754   18.9542 C   0  0  0  0  0  0  0  0  0  0  0  0
    2.5103    1.4999   19.1371 C   0  0  0  0  0  0  0  0  0  0  0  0
    1.9083    1.4507   20.3650 C   0  0  0  0  0  0  0  0  0  0  0  0
    2.5894    0.8842   21.4632 C   0  0  0  0  0  0  0  0  0  0  0  0
    3.8535    0.3728   21.3145 C   0  0  0  0  0  0  0  0  0  0  0  0
    4.5182    0.4432   20.0606 C   0  0  0  0  0  0  0  0  0  0  0  0
    4.3836   -0.0673   22.1557 H   0  0  0  0  0  0  0  0  0  0  0  0
    2.1165    0.8551   22.4405 H   0  0  0  0  0  0  0  0  0  0  0  0
    0.9151    1.8665   20.5121 H   0  0  0  0  0  0  0  0  0  0  0  0
    2.0168    1.9619   18.2887 H   0  0  0  0  0  0  0  0  0  0  0  0
    3.9100    1.3197   16.8118 H   0  0  0  0  0  0  0  0  0  0  0  0
    7.2834   -0.5089   18.3263 H   0  0  0  0  0  0  0  0  0  0  0  0
    7.4029    0.4258   21.6961 C   0  0  0  0  0  0  0  0  0  0  0  0
    7.3876    1.6371   21.5958 O   0  0  0  0  0  0  0  0  0  0  0  0
    8.1561   -0.3916   22.7743 C   0  0  1  0  0  0  0  0  0  0  0  0
    7.3584   -0.2702   24.1072 C   0  0  0  0  0  0  0  0  0  0  0  0
    7.4706    1.0344   24.7345 N   0  0  0  0  0  0  0  0  0  0  0  0
    6.2927    1.7879   25.1361 C   0  0  0  0  0  0  0  0  0  0  0  0
    5.9658    2.9067   24.1476 C   0  0  0  0  0  0  0  0  0  0  0  0
    6.8536    4.0896   24.3378 N   0  0  0  0  0  4  0  0  0  0  0  0
    7.9414    4.4170   23.3007 C   0  0  0  0  0  0  0  0  0  0  0  0
    7.3075    5.7975   22.9908 C   0  0  0  0  0  0  0  0  0  0  0  0
    6.2198    5.4287   24.0372 C   0  0  0  0  0  0  0  0  0  0  0  0
    5.2264    5.2667   23.6173 H   0  0  0  0  0  0  0  0  0  0  0  0
    6.1449    6.0515   24.9250 H   0  0  0  0  0  0  0  0  0  0  0  0
    6.9470    5.9142   21.9660 H   0  0  0  0  0  0  0  0  0  0  0  0
    7.9303    6.6586   23.2527 H   0  0  0  0  0  0  0  0  0  0  0  0
    7.9663    3.6631   22.5136 H   0  0  0  0  0  0  0  0  0  0  0  0
    8.8917    4.4840   23.8291 H   0  0  0  0  0  0  0  0  0  0  0  0
    7.3354    4.0001   25.2426 H   0  0  0  0  0  0  0  0  0  0  0  0
    6.0846    2.5471   23.1225 H   0  0  0  0  0  0  0  0  0  0  0  0
    4.9453    3.2576   24.3059 H   0  0  0  0  0  0  0  0  0  0  0  0
    5.4601    1.0880   25.2280 H   0  0  0  0  0  0  0  0  0  0  0  0
    6.4705    2.2097   26.1282 H   0  0  0  0  0  0  0  0  0  0  0  0
    8.6603    1.6708   24.8320 C   0  0  0  0  0  0  0  0  0  0  0  0
    8.7814    2.7054   25.4960 O   0  0  0  0  0  0  0  0  0  0  0  0
    9.7822    1.0765   24.0345 C   0  0  0  0  0  0  0  0  0  0  0  0
   11.0625    1.5455   24.2961 C   0  0  0  0  0  0  0  0  0  0  0  0
   12.1602    1.0969   23.5884 C   0  0  0  0  0  0  0  0  0  0  0  0
   11.9390    0.1885   22.5572 C   0  0  0  0  0  0  0  0  0  0  0  0
   13.3026   -0.3899   21.6355 Cl  0  0  0  0  0  0  0  0  0  0  0  0
   10.6665   -0.2600   22.2457 C   0  0  0  0  0  0  0  0  0  0  0  0
    9.5607    0.1304   23.0206 C   0  0  0  0  0  0  0  0  0  0  0  0
   10.5629   -0.9358   21.4033 H   0  0  0  0  0  0  0  0  0  0  0  0
   13.1728    1.4077   23.8237 H   0  0  0  0  0  0  0  0  0  0  0  0
   11.1564    2.2977   25.0632 H   0  0  0  0  0  0  0  0  0  0  0  0
    7.7242   -1.0344   24.8048 H   0  0  0  0  0  0  0  0  0  0  0  0
    6.3019   -0.4515   23.8943 H   0  0  0  0  0  0  0  0  0  0  0  0
    6.9054   -2.4560   20.4005 H   0  0  0  0  0  0  0  0  0  0  0  0
    5.9452   -2.1778   21.8615 H   0  0  0  0  0  0  0  0  0  0  0  0
    8.9287   -1.9358   21.5017 H   0  0  0  0  0  0  0  0  0  0  0  0
    7.1663   -2.9609   23.7775 H   0  0  0  0  0  0  0  0  0  0  0  0
    8.1198   -3.9561   22.6732 H   0  0  0  0  0  0  0  0  0  0  0  0
    8.9346   -2.9298   23.8668 H   0  0  0  0  0  0  0  0  0  0  0  0
  1  2  1  0
  2  3  1  0
  3  4  1  0
  4  5  1  0
  5  6  2  0
  6  7  1  0
  7  8  2  0
  8  9  1  0
  9 10  2  0
 10 11  1  0
 11 12  2  0
 12 13  1  0
 13 14  2  0
 13 15  1  0
 12 16  1  0
 11 17  1  0
 10 18  1  0
  8 19  1  0
  6 20  1  0
  4 21  1  0
 21 22  2  0
 21 23  1  0
 23 24  1  1
 24 25  1  0
 25 26  1  0
 26 27  1  0
 27 28  1  0
 28 29  1  0
 29 30  1  0
 30 31  1  0
 31 32  1  0
 31 33  1  0
 30 34  1  0
 30 35  1  0
 29 36  1  0
 29 37  1  0
 28 38  1  0
 27 39  1  0
 27 40  1  0
 26 41  1  0
 26 42  1  0
 25 43  1  0
 43 44  2  0
 43 45  1  0
 45 46  2  0
 46 47  1  0
 47 48  2  0
 48 49  1  0
 48 50  1  0
 50 51  2  0
 50 52  1  0
 47 53  1  0
 46 54  1  0
 24 55  1  0
 24 56  1  0
  3 57  1  0
  3 58  1  0
  2 59  1  6
  1 60  1  0
  1 61  1  0
  1 62  1  0
 23  2  1  0
 31 28  1  0
 51 45  1  0
 14  5  1  0
 51 23  1  0
 14  9  1  0
M  CHG  1  28   1
M  END
>  <cnnaffinities>  (90) 
[6.6152, 6.5479]

>  <score>  (90) 
6.6152

>  <index>  (90) 
90

>  <Smiles>  (90) 
C([C@]1(C(N(c2c(nc(c3c(c(c(c(c23)[H])[H])[H])[H])[H])[H])C(=O)[C@]21C(N(C(C([N+]1(C(C(C1([H])[H])([H])[H])([H])[H])[H])([H])[H])([H])[H])C(=O)c1c(c(c(Cl)c(c21)[H])[H])[H])([H])[H])([H])[H])[H])([H])([H])[H]

>  <h>  (90) 
<NA>

>  <Training>  (90) 
True

>  <Success>  (90) 
True

>  <enamine_searched>  (90) 
False

>  <enamine_id>  (90) 
nan

$$$$

     RDKit          3D

 56 61  0  0  0  0  0  0  0  0999 V2000
    7.7884   -3.0138   23.2924 C   0  0  0  0  0  0  0  0  0  0  0  0
    8.0286   -1.9322   22.2501 C   0  0  1  0  0  0  0  0  0  0  0  0
    6.8403   -1.8244   21.2853 C   0  0  0  0  0  0  0  0  0  0  0  0
    6.8463   -0.4355   20.8984 N   0  0  0  0  0  0  0  0  0  0  0  0
    6.0304    0.0477   19.8479 C   0  0  0  0  0  0  0  0  0  0  0  0
    6.4148   -0.1630   18.5514 C   0  0  0  0  0  0  0  0  0  0  0  0
    5.7484    0.2879   17.4653 N   0  0  0  0  0  0  0  0  0  0  0  0
    4.6407    0.9524   17.6782 C   0  0  0  0  0  0  0  0  0  0  0  0
    4.0873    1.1804   18.9677 C   0  0  0  0  0  0  0  0  0  0  0  0
    2.8526    1.8598   19.1276 C   0  0  0  0  0  0  0  0  0  0  0  0
    2.2756    1.9793   20.3650 C   0  0  0  0  0  0  0  0  0  0  0  0
    2.9164    1.4169   21.4958 C   0  0  0  0  0  0  0  0  0  0  0  0
    4.1254    0.7752   21.3662 C   0  0  0  0  0  0  0  0  0  0  0  0
    4.7670    0.6735   20.0980 C   0  0  0  0  0  0  0  0  0  0  0  0
    4.6046    0.3383   22.2366 H   0  0  0  0  0  0  0  0  0  0  0  0
    2.4503    1.5196   22.4732 H   0  0  0  0  0  0  0  0  0  0  0  0
    1.3384    2.5153   20.4856 H   0  0  0  0  0  0  0  0  0  0  0  0
    2.3634    2.2485   18.2420 H   0  0  0  0  0  0  0  0  0  0  0  0
    4.1344    1.3599   16.8049 H   0  0  0  0  0  0  0  0  0  0  0  0
    7.3436   -0.6878   18.3413 H   0  0  0  0  0  0  0  0  0  0  0  0
    7.6646    0.3795   21.6517 C   0  0  0  0  0  0  0  0  0  0  0  0
    7.7944    1.5725   21.4714 O   0  0  0  0  0  0  0  0  0  0  0  0
    8.2833   -0.4713   22.7825 C   0  0  1  0  0  0  0  0  0  0  0  0
    7.4719   -0.0937   24.0497 C   0  0  0  0  0  0  0  0  0  0  0  0
    8.0814   -0.5522   25.2905 N   0  0  0  0  0  0  0  0  0  0  0  0
    7.2265   -0.9148   26.4118 C   0  0  0  0  0  0  0  0  0  0  0  0
    6.9717   -2.3946   26.5410 C   0  0  0  0  0  0  0  0  0  0  0  0
    5.7465   -3.0915   26.5125 C   0  0  0  0  0  0  0  0  0  0  0  0
    5.8890   -4.3887   26.7690 N   0  0  0  0  0  0  0  0  0  0  0  0
    7.2122   -4.5306   26.9409 N   0  0  0  0  0  0  0  0  0  0  0  0
    7.9063   -3.3694   26.8072 C   0  0  0  0  0  0  0  0  0  0  0  0
    8.9837   -3.3245   26.9252 H   0  0  0  0  0  0  0  0  0  0  0  0
    7.5814   -5.4165   27.2329 H   0  0  0  0  0  0  0  0  0  0  0  0
    4.7633   -2.6865   26.3038 H   0  0  0  0  0  0  0  0  0  0  0  0
    6.2756   -0.3787   26.3147 H   0  0  0  0  0  0  0  0  0  0  0  0
    7.7358   -0.5637   27.3149 H   0  0  0  0  0  0  0  0  0  0  0  0
    9.4223   -0.4450   25.5365 C   0  0  0  0  0  0  0  0  0  0  0  0
    9.9044   -0.5184   26.6612 O   0  0  0  0  0  0  0  0  0  0  0  0
   10.2854   -0.2268   24.3487 C   0  0  0  0  0  0  0  0  0  0  0  0
   11.6516   -0.0887   24.5978 C   0  0  0  0  0  0  0  0  0  0  0  0
   12.5237    0.1867   23.5698 C   0  0  0  0  0  0  0  0  0  0  0  0
   12.0017    0.2931   22.2872 C   0  0  0  0  0  0  0  0  0  0  0  0
   12.8652    0.6044   21.3065 F   0  0  0  0  0  0  0  0  0  0  0  0
   10.6581    0.0904   22.0076 C   0  0  0  0  0  0  0  0  0  0  0  0
    9.7581   -0.1734   23.0512 C   0  0  0  0  0  0  0  0  0  0  0  0
   10.3169    0.1429   20.9815 H   0  0  0  0  0  0  0  0  0  0  0  0
   13.5865    0.3190   23.7380 H   0  0  0  0  0  0  0  0  0  0  0  0
   11.9990   -0.2007   25.6205 H   0  0  0  0  0  0  0  0  0  0  0  0
    7.3676    1.0025   24.0602 H   0  0  0  0  0  0  0  0  0  0  0  0
    6.4631   -0.5226   23.9820 H   0  0  0  0  0  0  0  0  0  0  0  0
    5.8955   -2.1061   21.7783 H   0  0  0  0  0  0  0  0  0  0  0  0
    6.9335   -2.4688   20.4055 H   0  0  0  0  0  0  0  0  0  0  0  0
    8.9203   -2.1883   21.6613 H   0  0  0  0  0  0  0  0  0  0  0  0
    7.7247   -3.9920   22.8047 H   0  0  0  0  0  0  0  0  0  0  0  0
    6.8441   -2.8376   23.8170 H   0  0  0  0  0  0  0  0  0  0  0  0
    8.5877   -3.0395   24.0365 H   0  0  0  0  0  0  0  0  0  0  0  0
  1  2  1  0
  2  3  1  0
  3  4  1  0
  4  5  1  0
  5  6  2  0
  6  7  1  0
  7  8  2  0
  8  9  1  0
  9 10  2  0
 10 11  1  0
 11 12  2  0
 12 13  1  0
 13 14  2  0
 13 15  1  0
 12 16  1  0
 11 17  1  0
 10 18  1  0
  8 19  1  0
  6 20  1  0
  4 21  1  0
 21 22  2  0
 21 23  1  0
 23 24  1  1
 24 25  1  0
 25 26  1  0
 26 27  1  0
 27 28  1  0
 28 29  2  0
 29 30  1  0
 30 31  1  0
 31 32  1  0
 30 33  1  0
 28 34  1  0
 26 35  1  0
 26 36  1  0
 25 37  1  0
 37 38  2  0
 37 39  1  0
 39 40  2  0
 40 41  1  0
 41 42  2  0
 42 43  1  0
 42 44  1  0
 44 45  2  0
 44 46  1  0
 41 47  1  0
 40 48  1  0
 24 49  1  0
 24 50  1  0
  3 51  1  0
  3 52  1  0
  2 53  1  6
  1 54  1  0
  1 55  1  0
  1 56  1  0
 23  2  1  0
 31 27  2  0
 45 39  1  0
 14  5  1  0
 45 23  1  0
 14  9  1  0
M  END
>  <cnnaffinities>  (91) 
[6.49985]

>  <score>  (91) 
6.49985

>  <index>  (91) 
91

>  <Smiles>  (91) 
C([C@]1(C(N(c2c(nc(c3c(c(c(c(c23)[H])[H])[H])[H])[H])[H])C(=O)[C@]21C(N(C(c1c(nn(c1[H])[H])[H])([H])[H])C(=O)c1c(c(c(F)c(c21)[H])[H])[H])([H])[H])([H])[H])[H])([H])([H])[H]

>  <h>  (91) 
<NA>

>  <Training>  (91) 
True

>  <Success>  (91) 
True

>  <enamine_searched>  (91) 
False

>  <enamine_id>  (91) 
nan

$$$$

     RDKit          3D

 47 50  0  0  0  0  0  0  0  0999 V2000
    8.1881    1.4333   20.6957 O   0  0  0  0  0  0  0  0  0  0  0  0
    7.7670    0.5439   21.4111 C   0  0  0  0  0  0  0  0  0  0  0  0
    6.8431   -0.5624   20.8960 C   0  0  0  0  0  0  0  0  0  0  0  0
    5.9419   -0.0785   19.7999 C   0  0  0  0  0  0  0  0  0  0  0  0
    6.3611   -0.1691   18.4984 C   0  0  0  0  0  0  0  0  0  0  0  0
    5.7056    0.3330   17.4205 N   0  0  0  0  0  0  0  0  0  0  0  0
    4.5827    0.9613   17.6609 C   0  0  0  0  0  0  0  0  0  0  0  0
    4.0190    1.1314   18.9549 C   0  0  0  0  0  0  0  0  0  0  0  0
    2.7937    1.8233   19.1390 C   0  0  0  0  0  0  0  0  0  0  0  0
    2.2224    1.9096   20.3770 C   0  0  0  0  0  0  0  0  0  0  0  0
    2.8716    1.3297   21.4920 C   0  0  0  0  0  0  0  0  0  0  0  0
    4.0711    0.6771   21.3481 C   0  0  0  0  0  0  0  0  0  0  0  0
    4.6941    0.5724   20.0702 C   0  0  0  0  0  0  0  0  0  0  0  0
    4.5520    0.2407   22.2216 H   0  0  0  0  0  0  0  0  0  0  0  0
    2.3896    1.3787   22.4622 H   0  0  0  0  0  0  0  0  0  0  0  0
    1.2805    2.4329   20.5105 H   0  0  0  0  0  0  0  0  0  0  0  0
    2.2940    2.2189   18.2588 H   0  0  0  0  0  0  0  0  0  0  0  0
    4.0806    1.4189   16.8054 H   0  0  0  0  0  0  0  0  0  0  0  0
    7.3319   -0.6112   18.2756 H   0  0  0  0  0  0  0  0  0  0  0  0
    6.2640   -0.9885   21.7163 H   0  0  0  0  0  0  0  0  0  0  0  0
    7.5044   -1.3542   20.5126 H   0  0  0  0  0  0  0  0  0  0  0  0
    8.1105    0.4528   22.7468 N   0  0  0  0  0  0  0  0  0  0  0  0
    7.7607   -0.6575   23.5430 C   0  0  0  0  0  0  0  0  0  0  0  0
    6.7303   -0.6728   24.4044 C   0  0  0  0  0  0  0  0  0  0  0  0
    6.0027    0.4775   24.9273 C   0  0  0  0  0  0  0  0  0  0  0  0
    6.5452    1.6030   25.4271 C   0  0  0  0  0  0  0  0  0  0  0  0
    7.9806    1.8222   25.6523 C   0  0  0  0  0  0  0  0  0  0  0  0
    8.9648    1.6039   24.7808 C   0  0  0  0  0  0  0  0  0  0  0  0
    8.8754    1.5982   23.2767 C   0  0  1  0  0  0  0  0  0  0  0  0
   10.3046    1.6250   22.7580 C   0  0  0  0  0  0  0  0  0  0  0  0
   11.0833    0.4703   22.8145 C   0  0  0  0  0  0  0  0  0  0  0  0
   12.4360    0.5179   22.4914 C   0  0  0  0  0  0  0  0  0  0  0  0
   13.0277    1.7468   22.2051 C   0  0  0  0  0  0  0  0  0  0  0  0
   12.2599    2.9089   22.1993 C   0  0  0  0  0  0  0  0  0  0  0  0
   10.8909    2.8451   22.4392 C   0  0  0  0  0  0  0  0  0  0  0  0
   10.2645    3.7371   22.4179 H   0  0  0  0  0  0  0  0  0  0  0  0
   12.7512    3.8584   22.0038 H   0  0  0  0  0  0  0  0  0  0  0  0
   14.0915    1.8208   21.9901 H   0  0  0  0  0  0  0  0  0  0  0  0
   13.0268   -0.3946   22.4794 H   0  0  0  0  0  0  0  0  0  0  0  0
   10.6326   -0.4560   23.1707 H   0  0  0  0  0  0  0  0  0  0  0  0
    8.3572    2.5077   22.9482 H   0  0  0  0  0  0  0  0  0  0  0  0
    9.9932    1.5195   25.1212 H   0  0  0  0  0  0  0  0  0  0  0  0
    8.2305    2.2038   26.6437 H   0  0  0  0  0  0  0  0  0  0  0  0
    5.8855    2.3661   25.8379 H   0  0  0  0  0  0  0  0  0  0  0  0
    4.9209    0.3473   25.0151 H   0  0  0  0  0  0  0  0  0  0  0  0
    6.3942   -1.6429   24.7664 H   0  0  0  0  0  0  0  0  0  0  0  0
    8.3085   -1.5808   23.3439 H   0  0  0  0  0  0  0  0  0  0  0  0
  1  2  2  0
  2  3  1  0
  3  4  1  0
  4  5  2  0
  5  6  1  0
  6  7  2  0
  7  8  1  0
  8  9  2  0
  9 10  1  0
 10 11  2  0
 11 12  1  0
 12 13  2  0
 12 14  1  0
 11 15  1  0
 10 16  1  0
  9 17  1  0
  7 18  1  0
  5 19  1  0
  3 20  1  0
  3 21  1  0
  2 22  1  0
 22 23  1  0
 23 24  2  3
 24 25  1  0
 25 26  2  3
 26 27  1  0
 27 28  2  3
 28 29  1  0
 29 30  1  0
 30 31  2  0
 31 32  1  0
 32 33  2  0
 33 34  1  0
 34 35  2  0
 35 36  1  0
 34 37  1  0
 33 38  1  0
 32 39  1  0
 31 40  1  0
 29 41  1  6
 28 42  1  0
 27 43  1  0
 26 44  1  0
 25 45  1  0
 24 46  1  0
 23 47  1  0
 13  4  1  0
 29 22  1  0
 35 30  1  0
 13  8  1  0
M  END
>  <cnnaffinities>  (92) 
[5.97534, 5.97525, 6.10584, 6.10579, 6.08271, 6.36314, 6.36319, 6.08139]

>  <score>  (92) 
5.97534

>  <index>  (92) 
92

>  <Smiles>  (92) 
O=C(C(c1c(nc(c2c(c(c(c(c12)[H])[H])[H])[H])[H])[H])([H])[H])N1C(=C(C(=C(C(=C([C@]1(c1c(c(c(c(c1[H])[H])[H])[H])[H])[H])[H])[H])[H])[H])[H])[H]

>  <h>  (92) 
<NA>

>  <Training>  (92) 
True

>  <Success>  (92) 
True

>  <enamine_searched>  (92) 
False

>  <enamine_id>  (92) 
nan

$$$$

     RDKit          3D

 58 62  0  0  0  0  0  0  0  0999 V2000
    8.2267    5.4003   24.0167 C   0  0  0  0  0  0  0  0  0  0  0  0
    7.9122    4.1828   23.2315 N   0  0  0  0  0  4  0  0  0  0  0  0
    6.8049    3.3703   23.8112 C   0  0  0  0  0  0  0  0  0  0  0  0
    7.3032    2.4589   24.9402 C   0  0  0  0  0  0  0  0  0  0  0  0
    8.2367    1.4500   24.4322 N   0  0  0  0  0  0  0  0  0  0  0  0
    7.7244    0.1516   24.0262 C   0  0  0  0  0  0  0  0  0  0  0  0
    8.3290   -0.3897   22.6927 C   0  0  2  0  0  0  0  0  0  0  0  0
    7.7116    0.3782   21.5047 C   0  0  0  0  0  0  0  0  0  0  0  0
    7.9558    1.5207   21.1721 O   0  0  0  0  0  0  0  0  0  0  0  0
    6.8061   -0.4335   20.8712 N   0  0  0  0  0  0  0  0  0  0  0  0
    5.9983    0.0547   19.8151 C   0  0  0  0  0  0  0  0  0  0  0  0
    6.4249   -0.0824   18.5225 C   0  0  0  0  0  0  0  0  0  0  0  0
    5.7324    0.3578   17.4447 N   0  0  0  0  0  0  0  0  0  0  0  0
    4.5908    0.9678   17.6599 C   0  0  0  0  0  0  0  0  0  0  0  0
    4.0091    1.1319   18.9502 C   0  0  0  0  0  0  0  0  0  0  0  0
    2.7427    1.7517   19.1315 C   0  0  0  0  0  0  0  0  0  0  0  0
    2.1870    1.8345   20.3813 C   0  0  0  0  0  0  0  0  0  0  0  0
    2.8508    1.2697   21.4948 C   0  0  0  0  0  0  0  0  0  0  0  0
    4.0709    0.6594   21.3483 C   0  0  0  0  0  0  0  0  0  0  0  0
    4.7038    0.6143   20.0674 C   0  0  0  0  0  0  0  0  0  0  0  0
    4.5544    0.2115   22.2146 H   0  0  0  0  0  0  0  0  0  0  0  0
    2.3946    1.3307   22.4776 H   0  0  0  0  0  0  0  0  0  0  0  0
    1.2383    2.3427   20.5291 H   0  0  0  0  0  0  0  0  0  0  0  0
    2.2442    2.1834   18.2683 H   0  0  0  0  0  0  0  0  0  0  0  0
    4.0283    1.3121   16.7905 H   0  0  0  0  0  0  0  0  0  0  0  0
    7.3543   -0.6168   18.3152 H   0  0  0  0  0  0  0  0  0  0  0  0
    6.6614   -1.7460   21.4521 C   0  0  0  0  0  0  0  0  0  0  0  0
    7.8617   -1.8523   22.4108 C   0  0  2  0  0  0  0  0  0  0  0  0
    7.5308   -2.7181   23.6243 C   0  0  0  0  0  0  0  0  0  0  0  0
    6.6655   -2.3145   24.1635 H   0  0  0  0  0  0  0  0  0  0  0  0
    7.2673   -3.7351   23.3177 H   0  0  0  0  0  0  0  0  0  0  0  0
    8.3669   -2.7830   24.3279 H   0  0  0  0  0  0  0  0  0  0  0  0
    8.6770   -2.3226   21.8584 H   0  0  0  0  0  0  0  0  0  0  0  0
    5.7082   -1.8392   21.9929 H   0  0  0  0  0  0  0  0  0  0  0  0
    6.6674   -2.5218   20.6777 H   0  0  0  0  0  0  0  0  0  0  0  0
    9.8374   -0.2005   22.7176 C   0  0  0  0  0  0  0  0  0  0  0  0
   10.6984   -0.9255   21.8817 C   0  0  0  0  0  0  0  0  0  0  0  0
   12.0621   -0.7388   21.9954 C   0  0  0  0  0  0  0  0  0  0  0  0
   12.8711   -1.4703   21.2136 F   0  0  0  0  0  0  0  0  0  0  0  0
   12.6305    0.1720   22.8798 C   0  0  0  0  0  0  0  0  0  0  0  0
   11.7818    0.9662   23.6209 C   0  0  0  0  0  0  0  0  0  0  0  0
   10.3988    0.7980   23.5239 C   0  0  0  0  0  0  0  0  0  0  0  0
    9.5215    1.7992   24.1933 C   0  0  0  0  0  0  0  0  0  0  0  0
    9.9452    2.9327   24.4386 O   0  0  0  0  0  0  0  0  0  0  0  0
   12.1654    1.7408   24.2774 H   0  0  0  0  0  0  0  0  0  0  0  0
   13.7095    0.2546   22.9480 H   0  0  0  0  0  0  0  0  0  0  0  0
   10.3441   -1.6267   21.1324 H   0  0  0  0  0  0  0  0  0  0  0  0
    7.9407   -0.5732   24.8173 H   0  0  0  0  0  0  0  0  0  0  0  0
    6.6374    0.2294   23.9158 H   0  0  0  0  0  0  0  0  0  0  0  0
    6.4565    1.9414   25.4002 H   0  0  0  0  0  0  0  0  0  0  0  0
    7.8108    3.0308   25.7278 H   0  0  0  0  0  0  0  0  0  0  0  0
    6.0138    4.0418   24.1616 H   0  0  0  0  0  0  0  0  0  0  0  0
    6.3961    2.7575   23.0055 H   0  0  0  0  0  0  0  0  0  0  0  0
    8.7722    3.6223   23.2530 H   0  0  0  0  0  0  0  0  0  0  0  0
    7.7237    4.3824   22.2297 H   0  0  0  0  0  0  0  0  0  0  0  0
    8.7937    5.1118   24.9030 H   0  0  0  0  0  0  0  0  0  0  0  0
    8.8398    6.0876   23.4332 H   0  0  0  0  0  0  0  0  0  0  0  0
    7.3166    5.9162   24.3307 H   0  0  0  0  0  0  0  0  0  0  0  0
  1  2  1  0
  2  3  1  0
  3  4  1  0
  4  5  1  0
  5  6  1  0
  7  6  1  1
  7  8  1  0
  8  9  2  0
  8 10  1  0
 10 11  1  0
 11 12  2  0
 12 13  1  0
 13 14  2  0
 14 15  1  0
 15 16  2  0
 16 17  1  0
 17 18  2  0
 18 19  1  0
 19 20  2  0
 19 21  1  0
 18 22  1  0
 17 23  1  0
 16 24  1  0
 14 25  1  0
 12 26  1  0
 10 27  1  0
 27 28  1  0
 28 29  1  0
 29 30  1  0
 29 31  1  0
 29 32  1  0
 28 33  1  6
 27 34  1  0
 27 35  1  0
  7 36  1  0
 36 37  2  0
 37 38  1  0
 38 39  1  0
 38 40  2  0
 40 41  1  0
 41 42  2  0
 42 43  1  0
 43 44  2  0
 41 45  1  0
 40 46  1  0
 37 47  1  0
  6 48  1  0
  6 49  1  0
  4 50  1  0
  4 51  1  0
  3 52  1  0
  3 53  1  0
  2 54  1  0
  2 55  1  0
  1 56  1  0
  1 57  1  0
  1 58  1  0
 43  5  1  0
 28  7  1  0
 42 36  1  0
 20 11  1  0
 20 15  1  0
M  CHG  1   2   1
M  END
>  <cnnaffinities>  (93) 
[6.47054, 6.29773]

>  <score>  (93) 
6.47054

>  <index>  (93) 
93

>  <Smiles>  (93) 
C([N+](C(C(N1C([C@@]2(C(=O)N(c3c(nc(c4c(c(c(c(c34)[H])[H])[H])[H])[H])[H])C([C@@]2(C([H])([H])[H])[H])([H])[H])c2c(c(F)c(c(c2C1=O)[H])[H])[H])([H])[H])([H])[H])([H])[H])([H])[H])([H])([H])[H]

>  <h>  (93) 
<NA>

>  <Training>  (93) 
True

>  <Success>  (93) 
True

>  <enamine_searched>  (93) 
False

>  <enamine_id>  (93) 
nan

$$$$

     RDKit          3D

 65 69  0  0  0  0  0  0  0  0999 V2000
   13.7773    0.5773   22.9621 C   0  0  0  0  0  0  0  0  0  0  0  0
   12.6910    0.8158   24.0085 C   0  0  0  0  0  0  0  0  0  0  0  0
   11.4194    0.1994   23.4781 C   0  0  0  0  0  0  0  0  0  0  0  0
   10.9624    0.4645   22.3941 O   0  0  0  0  0  0  0  0  0  0  0  0
   10.7587   -0.8290   24.3254 N   0  0  2  0  0  4  0  0  0  0  0  0
   11.1673   -2.3102   23.9874 C   0  0  0  0  0  0  0  0  0  0  0  0
   10.4059   -2.7509   22.7521 C   0  0  0  0  0  0  0  0  0  0  0  0
    8.9116   -2.8139   23.0776 C   0  0  0  0  0  0  0  0  0  0  0  0
    8.3824   -1.5331   23.7057 C   0  0  0  0  0  0  0  0  0  0  0  0
    7.0100   -1.2074   23.7452 C   0  0  0  0  0  0  0  0  0  0  0  0
    6.0528   -1.9066   22.9506 N   0  0  0  0  0  0  0  0  0  0  0  0
    5.1010   -2.7510   23.6665 C   0  0  0  0  0  0  0  0  0  0  0  0
    5.8086   -3.9857   24.1598 C   0  0  0  0  0  0  0  0  0  0  0  0
    6.3279   -4.0527   25.4512 C   0  0  0  0  0  0  0  0  0  0  0  0
    7.0464   -5.1710   25.8564 C   0  0  0  0  0  0  0  0  0  0  0  0
    7.2617   -6.2242   24.9729 C   0  0  0  0  0  0  0  0  0  0  0  0
    6.7726   -6.1287   23.6748 C   0  0  0  0  0  0  0  0  0  0  0  0
    7.0705   -7.4230   22.5507 Cl  0  0  0  0  0  0  0  0  0  0  0  0
    6.0780   -5.0055   23.2499 C   0  0  0  0  0  0  0  0  0  0  0  0
    5.7881   -4.8917   22.2080 H   0  0  0  0  0  0  0  0  0  0  0  0
    7.8280   -7.0994   25.2710 H   0  0  0  0  0  0  0  0  0  0  0  0
    7.4671   -5.2145   26.8579 H   0  0  0  0  0  0  0  0  0  0  0  0
    6.2088   -3.2005   26.1188 H   0  0  0  0  0  0  0  0  0  0  0  0
    4.6825   -2.1863   24.5095 H   0  0  0  0  0  0  0  0  0  0  0  0
    4.3019   -2.9977   22.9616 H   0  0  0  0  0  0  0  0  0  0  0  0
    5.9702   -1.8315   21.5726 C   0  0  0  0  0  0  0  0  0  0  0  0
    5.3163   -2.6343   20.9320 O   0  0  0  0  0  0  0  0  0  0  0  0
    6.7181   -0.6705   20.9003 C   0  0  0  0  0  0  0  0  0  0  0  0
    5.9336   -0.0663   19.7675 C   0  0  0  0  0  0  0  0  0  0  0  0
    6.3737   -0.1360   18.4728 C   0  0  0  0  0  0  0  0  0  0  0  0
    5.7156    0.3791   17.4018 N   0  0  0  0  0  0  0  0  0  0  0  0
    4.5808    0.9908   17.6339 C   0  0  0  0  0  0  0  0  0  0  0  0
    3.9939    1.1255   18.9200 C   0  0  0  0  0  0  0  0  0  0  0  0
    2.7423    1.7726   19.1024 C   0  0  0  0  0  0  0  0  0  0  0  0
    2.1986    1.8700   20.3542 C   0  0  0  0  0  0  0  0  0  0  0  0
    2.8632    1.2996   21.4657 C   0  0  0  0  0  0  0  0  0  0  0  0
    4.0587    0.6444   21.3098 C   0  0  0  0  0  0  0  0  0  0  0  0
    4.6746    0.5585   20.0243 C   0  0  0  0  0  0  0  0  0  0  0  0
    4.5155    0.1788   22.1806 H   0  0  0  0  0  0  0  0  0  0  0  0
    2.4007    1.3572   22.4480 H   0  0  0  0  0  0  0  0  0  0  0  0
    1.2449    2.3666   20.4976 H   0  0  0  0  0  0  0  0  0  0  0  0
    2.2403    2.1946   18.2327 H   0  0  0  0  0  0  0  0  0  0  0  0
    4.0459    1.3836   16.7678 H   0  0  0  0  0  0  0  0  0  0  0  0
    7.3057   -0.6589   18.2424 H   0  0  0  0  0  0  0  0  0  0  0  0
    6.9511    0.0783   21.6651 H   0  0  0  0  0  0  0  0  0  0  0  0
    7.6748   -1.0659   20.5350 H   0  0  0  0  0  0  0  0  0  0  0  0
    6.5435   -0.1562   24.5285 C   0  0  0  0  0  0  0  0  0  0  0  0
    7.4339    0.7654   25.0676 C   0  0  0  0  0  0  0  0  0  0  0  0
    8.7944    0.5467   24.9016 C   0  0  0  0  0  0  0  0  0  0  0  0
    9.2471   -0.6398   24.3341 C   0  0  0  0  0  0  0  0  0  0  0  0
    9.5300    1.2966   25.1607 H   0  0  0  0  0  0  0  0  0  0  0  0
    7.0734    1.6421   25.5961 H   0  0  0  0  0  0  0  0  0  0  0  0
    5.4669   -0.0437   24.6374 H   0  0  0  0  0  0  0  0  0  0  0  0
    8.3411   -3.0632   22.1786 H   0  0  0  0  0  0  0  0  0  0  0  0
    8.7483   -3.6284   23.7959 H   0  0  0  0  0  0  0  0  0  0  0  0
   10.5932   -2.0538   21.9244 H   0  0  0  0  0  0  0  0  0  0  0  0
   10.7745   -3.7347   22.4540 H   0  0  0  0  0  0  0  0  0  0  0  0
   10.8669   -2.9012   24.8577 H   0  0  0  0  0  0  0  0  0  0  0  0
   12.2569   -2.3811   23.8818 H   0  0  0  0  0  0  0  0  0  0  0  0
   11.0973   -0.6925   25.2945 H   0  0  0  0  0  0  0  0  0  0  0  0
   12.9592    0.4040   24.9863 H   0  0  0  0  0  0  0  0  0  0  0  0
   12.4743    1.8807   24.1442 H   0  0  0  0  0  0  0  0  0  0  0  0
   13.2941    0.5021   21.9865 H   0  0  0  0  0  0  0  0  0  0  0  0
   14.4968    1.3949   22.9331 H   0  0  0  0  0  0  0  0  0  0  0  0
   14.2802   -0.3737   23.1572 H   0  0  0  0  0  0  0  0  0  0  0  0
  1  2  1  0
  2  3  1  0
  3  4  2  0
  3  5  1  0
  5  6  1  0
  6  7  1  0
  7  8  1  0
  8  9  1  0
  9 10  2  0
 10 11  1  0
 11 12  1  0
 12 13  1  0
 13 14  2  0
 14 15  1  0
 15 16  2  0
 16 17  1  0
 17 18  1  0
 17 19  2  0
 19 20  1  0
 16 21  1  0
 15 22  1  0
 14 23  1  0
 12 24  1  0
 12 25  1  0
 11 26  1  0
 26 27  2  0
 26 28  1  0
 28 29  1  0
 29 30  2  0
 30 31  1  0
 31 32  2  0
 32 33  1  0
 33 34  2  0
 34 35  1  0
 35 36  2  0
 36 37  1  0
 37 38  2  0
 37 39  1  0
 36 40  1  0
 35 41  1  0
 34 42  1  0
 32 43  1  0
 30 44  1  0
 28 45  1  0
 28 46  1  0
 10 47  1  0
 47 48  2  0
 48 49  1  0
 49 50  2  0
 49 51  1  0
 48 52  1  0
 47 53  1  0
  8 54  1  0
  8 55  1  0
  7 56  1  0
  7 57  1  0
  6 58  1  0
  6 59  1  0
  5 60  1  1
  2 61  1  0
  2 62  1  0
  1 63  1  0
  1 64  1  0
  1 65  1  0
 50  5  1  0
 50  9  1  0
 19 13  1  0
 38 29  1  0
 38 33  1  0
M  CHG  1   5   1
M  END
>  <cnnaffinities>  (94) 
[7.12954, 6.65836]

>  <score>  (94) 
7.12954

>  <index>  (94) 
94

>  <Smiles>  (94) 
C(C(C(=O)[N@@+]1(C(C(C(c2c(N(C(c3c(c(c(c(Cl)c3[H])[H])[H])[H])([H])[H])C(=O)C(c3c(nc(c4c(c(c(c(c34)[H])[H])[H])[H])[H])[H])([H])[H])c(c(c(c12)[H])[H])[H])([H])[H])([H])[H])([H])[H])[H])([H])[H])([H])([H])[H]

>  <h>  (94) 
<NA>

>  <Training>  (94) 
True

>  <Success>  (94) 
True

>  <enamine_searched>  (94) 
False

>  <enamine_id>  (94) 
nan

$$$$

     RDKit          3D

 67 71  0  0  0  0  0  0  0  0999 V2000
    7.7406   -8.5504   23.0342 C   0  0  0  0  0  0  0  0  0  0  0  0
    6.8376   -7.4639   22.7282 N   0  0  0  0  0  0  0  0  0  0  0  0
    7.1379   -6.6679   21.6724 C   0  0  0  0  0  0  0  0  0  0  0  0
    8.0186   -6.9255   20.8663 O   0  0  0  0  0  0  0  0  0  0  0  0
    6.3219   -5.3822   21.5720 C   0  0  0  0  0  0  0  0  0  0  0  0
    6.7143   -4.4120   22.5724 N   0  0  0  0  0  0  0  0  0  0  0  0
    7.8018   -3.4796   22.3155 C   0  0  0  0  0  0  0  0  0  0  0  0
    7.3674   -2.0401   22.6715 C   0  0  2  0  0  0  0  0  0  0  0  0
    6.2380   -1.6499   21.6829 C   0  0  0  0  0  0  0  0  0  0  0  0
    5.1480   -2.1804   21.5928 O   0  0  0  0  0  0  0  0  0  0  0  0
    6.6906   -0.6308   20.8645 N   0  0  0  0  0  0  0  0  0  0  0  0
    5.9255   -0.0707   19.8182 C   0  0  0  0  0  0  0  0  0  0  0  0
    6.4139   -0.0741   18.5319 C   0  0  0  0  0  0  0  0  0  0  0  0
    5.7702    0.4309   17.4532 N   0  0  0  0  0  0  0  0  0  0  0  0
    4.6008    0.9859   17.6557 C   0  0  0  0  0  0  0  0  0  0  0  0
    3.9905    1.1063   18.9388 C   0  0  0  0  0  0  0  0  0  0  0  0
    2.7365    1.7600   19.1050 C   0  0  0  0  0  0  0  0  0  0  0  0
    2.1838    1.8887   20.3518 C   0  0  0  0  0  0  0  0  0  0  0  0
    2.8495    1.3626   21.4815 C   0  0  0  0  0  0  0  0  0  0  0  0
    4.0629    0.7352   21.3478 C   0  0  0  0  0  0  0  0  0  0  0  0
    4.6649    0.5782   20.0644 C   0  0  0  0  0  0  0  0  0  0  0  0
    4.5748    0.3526   22.2236 H   0  0  0  0  0  0  0  0  0  0  0  0
    2.4205    1.5082   22.4684 H   0  0  0  0  0  0  0  0  0  0  0  0
    1.2404    2.4136   20.4797 H   0  0  0  0  0  0  0  0  0  0  0  0
    2.2458    2.1726   18.2248 H   0  0  0  0  0  0  0  0  0  0  0  0
    4.0761    1.3756   16.7813 H   0  0  0  0  0  0  0  0  0  0  0  0
    7.3691   -0.5493   18.3184 H   0  0  0  0  0  0  0  0  0  0  0  0
    8.1357   -0.4852   20.9440 C   0  0  0  0  0  0  0  0  0  0  0  0
    8.4572   -0.9682   22.3628 C   0  0  2  0  0  0  0  0  0  0  0  0
    9.9358   -1.3447   22.4774 C   0  0  0  0  0  0  0  0  0  0  0  0
   10.5066   -1.4719   24.1817 S   0  0  0  0  0  0  0  0  0  0  0  0
   10.4733   -0.1411   24.7674 O   0  0  0  0  0  0  0  0  0  0  0  0
    9.8469   -2.5890   24.8351 O   0  0  0  0  0  0  0  0  0  0  0  0
   12.1146   -1.8898   24.0503 N   0  0  0  0  0  0  0  0  0  0  0  0
   13.0317   -0.8418   23.6331 C   0  0  0  0  0  0  0  0  0  0  0  0
   14.0457   -1.1410   23.9134 H   0  0  0  0  0  0  0  0  0  0  0  0
   12.7760    0.0726   24.1667 H   0  0  0  0  0  0  0  0  0  0  0  0
   13.0115   -0.6570   22.5484 H   0  0  0  0  0  0  0  0  0  0  0  0
   12.3889   -3.2011   23.4907 C   0  0  0  0  0  0  0  0  0  0  0  0
   11.7305   -3.9321   23.9632 H   0  0  0  0  0  0  0  0  0  0  0  0
   12.2631   -3.2510   22.3977 H   0  0  0  0  0  0  0  0  0  0  0  0
   13.4267   -3.4496   23.7254 H   0  0  0  0  0  0  0  0  0  0  0  0
   10.1443   -2.2915   21.9670 H   0  0  0  0  0  0  0  0  0  0  0  0
   10.5549   -0.5690   22.0129 H   0  0  0  0  0  0  0  0  0  0  0  0
    8.2809   -0.1221   23.0260 H   0  0  0  0  0  0  0  0  0  0  0  0
    8.4115    0.5583   20.7795 H   0  0  0  0  0  0  0  0  0  0  0  0
    8.6511   -1.0987   20.1880 H   0  0  0  0  0  0  0  0  0  0  0  0
    6.8715   -2.0896   24.1077 C   0  0  0  0  0  0  0  0  0  0  0  0
    6.8715   -0.9554   24.9236 C   0  0  0  0  0  0  0  0  0  0  0  0
    6.4378   -1.0532   26.2310 C   0  0  0  0  0  0  0  0  0  0  0  0
    6.4631    0.0502   26.9978 F   0  0  0  0  0  0  0  0  0  0  0  0
    5.9747   -2.2383   26.7911 C   0  0  0  0  0  0  0  0  0  0  0  0
    5.9191   -3.3516   25.9780 C   0  0  0  0  0  0  0  0  0  0  0  0
    6.3414   -3.2731   24.6526 C   0  0  0  0  0  0  0  0  0  0  0  0
    6.1422   -4.4732   23.7987 C   0  0  0  0  0  0  0  0  0  0  0  0
    5.4800   -5.4462   24.1768 O   0  0  0  0  0  0  0  0  0  0  0  0
    5.5401   -4.3032   26.3347 H   0  0  0  0  0  0  0  0  0  0  0  0
    5.6382   -2.2543   27.8216 H   0  0  0  0  0  0  0  0  0  0  0  0
    7.1882    0.0136   24.5599 H   0  0  0  0  0  0  0  0  0  0  0  0
    8.6748   -3.7560   22.9224 H   0  0  0  0  0  0  0  0  0  0  0  0
    8.0624   -3.5306   21.2611 H   0  0  0  0  0  0  0  0  0  0  0  0
    6.4951   -4.9547   20.5850 H   0  0  0  0  0  0  0  0  0  0  0  0
    5.2525   -5.5786   21.7008 H   0  0  0  0  0  0  0  0  0  0  0  0
    6.2279   -7.0920   23.4565 H   0  0  0  0  0  0  0  0  0  0  0  0
    8.7268   -8.1703   23.3299 H   0  0  0  0  0  0  0  0  0  0  0  0
    7.8769   -9.1868   22.1555 H   0  0  0  0  0  0  0  0  0  0  0  0
    7.3181   -9.1581   23.8341 H   0  0  0  0  0  0  0  0  0  0  0  0
  1  2  1  0
  2  3  1  0
  3  4  2  0
  3  5  1  0
  5  6  1  0
  6  7  1  0
  8  7  1  6
  8  9  1  0
  9 10  2  0
  9 11  1  0
 11 12  1  0
 12 13  2  0
 13 14  1  0
 14 15  2  0
 15 16  1  0
 16 17  2  0
 17 18  1  0
 18 19  2  0
 19 20  1  0
 20 21  2  0
 20 22  1  0
 19 23  1  0
 18 24  1  0
 17 25  1  0
 15 26  1  0
 13 27  1  0
 11 28  1  0
 28 29  1  0
 29 30  1  0
 30 31  1  0
 31 32  2  0
 31 33  2  0
 31 34  1  0
 34 35  1  0
 35 36  1  0
 35 37  1  0
 35 38  1  0
 34 39  1  0
 39 40  1  0
 39 41  1  0
 39 42  1  0
 30 43  1  0
 30 44  1  0
 29 45  1  1
 28 46  1  0
 28 47  1  0
  8 48  1  0
 48 49  2  0
 49 50  1  0
 50 51  1  0
 50 52  2  0
 52 53  1  0
 53 54  2  0
 54 55  1  0
 55 56  2  0
 53 57  1  0
 52 58  1  0
 49 59  1  0
  7 60  1  0
  7 61  1  0
  5 62  1  0
  5 63  1  0
  2 64  1  0
  1 65  1  0
  1 66  1  0
  1 67  1  0
 55  6  1  0
 29  8  1  0
 54 48  1  0
 21 12  1  0
 21 16  1  0
M  END
>  <cnnaffinities>  (95) 
[7.11243, 6.97324]

>  <score>  (95) 
7.11243

>  <index>  (95) 
95

>  <Smiles>  (95) 
C(N(C(=O)C(N1C([C@@]2(C(=O)N(c3c(nc(c4c(c(c(c(c34)[H])[H])[H])[H])[H])[H])C([C@@]2(C(S(=O)(=O)N(C([H])([H])[H])C([H])([H])[H])([H])[H])[H])([H])[H])c2c(c(F)c(c(c2C1=O)[H])[H])[H])([H])[H])([H])[H])[H])([H])([H])[H]

>  <h>  (95) 
<NA>

>  <Training>  (95) 
True

>  <Success>  (95) 
True

>  <enamine_searched>  (95) 
False

>  <enamine_id>  (95) 
nan

$$$$

     RDKit          3D

 37 39  0  0  0  0  0  0  0  0999 V2000
    8.5487    1.2779   20.5535 O   0  0  0  0  0  0  0  0  0  0  0  0
    7.8412    0.6885   21.3493 C   0  0  0  0  0  0  0  0  0  0  0  0
    6.9058   -0.4567   20.9350 C   0  0  0  0  0  0  0  0  0  0  0  0
    5.9589   -0.0486   19.8398 C   0  0  0  0  0  0  0  0  0  0  0  0
    6.3683   -0.1700   18.5375 C   0  0  0  0  0  0  0  0  0  0  0  0
    5.7107    0.3121   17.4574 N   0  0  0  0  0  0  0  0  0  0  0  0
    4.6021    0.9733   17.6809 C   0  0  0  0  0  0  0  0  0  0  0  0
    4.0174    1.1224   18.9626 C   0  0  0  0  0  0  0  0  0  0  0  0
    2.8035    1.8316   19.1387 C   0  0  0  0  0  0  0  0  0  0  0  0
    2.2371    1.9508   20.3783 C   0  0  0  0  0  0  0  0  0  0  0  0
    2.8744    1.3607   21.4944 C   0  0  0  0  0  0  0  0  0  0  0  0
    4.0843    0.7121   21.3511 C   0  0  0  0  0  0  0  0  0  0  0  0
    4.6980    0.5797   20.0796 C   0  0  0  0  0  0  0  0  0  0  0  0
    4.5687    0.3067   22.2336 H   0  0  0  0  0  0  0  0  0  0  0  0
    2.4053    1.4448   22.4718 H   0  0  0  0  0  0  0  0  0  0  0  0
    1.3095    2.5004   20.5120 H   0  0  0  0  0  0  0  0  0  0  0  0
    2.3341    2.2723   18.2668 H   0  0  0  0  0  0  0  0  0  0  0  0
    4.1081    1.4133   16.8150 H   0  0  0  0  0  0  0  0  0  0  0  0
    7.3262   -0.6385   18.3195 H   0  0  0  0  0  0  0  0  0  0  0  0
    7.5587   -1.2529   20.5554 H   0  0  0  0  0  0  0  0  0  0  0  0
    6.3920   -0.8664   21.8097 H   0  0  0  0  0  0  0  0  0  0  0  0
    7.8354    0.9612   22.6874 N   0  0  0  0  0  0  0  0  0  0  0  0
    8.7285    1.9552   23.2637 C   0  0  0  0  0  0  0  0  0  0  0  0
   10.1580    1.4627   23.4321 C   0  0  0  0  0  0  0  0  0  0  0  0
   11.1578    1.9478   22.5899 C   0  0  0  0  0  0  0  0  0  0  0  0
   12.4641    1.4824   22.6893 C   0  0  0  0  0  0  0  0  0  0  0  0
   12.7973    0.5236   23.6340 C   0  0  0  0  0  0  0  0  0  0  0  0
   11.8041    0.0553   24.4854 C   0  0  0  0  0  0  0  0  0  0  0  0
   12.2429   -1.1191   25.6912 Cl  0  0  0  0  0  0  0  0  0  0  0  0
   10.4906    0.5050   24.3933 C   0  0  0  0  0  0  0  0  0  0  0  0
    9.7362    0.0980   25.0634 H   0  0  0  0  0  0  0  0  0  0  0  0
   13.8112    0.1415   23.7096 H   0  0  0  0  0  0  0  0  0  0  0  0
   13.2298    1.8714   22.0252 H   0  0  0  0  0  0  0  0  0  0  0  0
   10.9049    2.6865   21.8339 H   0  0  0  0  0  0  0  0  0  0  0  0
    8.7215    2.8399   22.6210 H   0  0  0  0  0  0  0  0  0  0  0  0
    8.3186    2.2557   24.2333 H   0  0  0  0  0  0  0  0  0  0  0  0
    7.1771    0.4906   23.2825 H   0  0  0  0  0  0  0  0  0  0  0  0
  1  2  2  0
  2  3  1  0
  3  4  1  0
  4  5  2  0
  5  6  1  0
  6  7  2  0
  7  8  1  0
  8  9  2  0
  9 10  1  0
 10 11  2  0
 11 12  1  0
 12 13  2  0
 12 14  1  0
 11 15  1  0
 10 16  1  0
  9 17  1  0
  7 18  1  0
  5 19  1  0
  3 20  1  0
  3 21  1  0
  2 22  1  0
 22 23  1  0
 23 24  1  0
 24 25  2  0
 25 26  1  0
 26 27  2  0
 27 28  1  0
 28 29  1  0
 28 30  2  0
 30 31  1  0
 27 32  1  0
 26 33  1  0
 25 34  1  0
 23 35  1  0
 23 36  1  0
 22 37  1  0
 13  4  1  0
 30 24  1  0
 13  8  1  0
M  END
>  <cnnaffinities>  (96) 
[5.44326, 5.15779, 5.06584]

>  <score>  (96) 
5.44326

>  <index>  (96) 
96

>  <Smiles>  (96) 
O=C(C(c1c(nc(c2c(c(c(c(c12)[H])[H])[H])[H])[H])[H])([H])[H])N(C(c1c(c(c(c(Cl)c1[H])[H])[H])[H])([H])[H])[H]

>  <h>  (96) 
<NA>

>  <Training>  (96) 
True

>  <Success>  (96) 
True

>  <enamine_searched>  (96) 
False

>  <enamine_id>  (96) 
nan

$$$$
