
     RDKit          3D

 63 69  0  0  0  0  0  0  0  0999 V2000
    4.8816   -3.6269   25.5581 O   0  0  0  0  0  0  0  0  0  0  0  0
    5.6953   -3.0491   24.8534 C   0  0  0  0  0  0  0  0  0  0  0  0
    6.0711   -1.6165   25.0669 C   0  0  0  0  0  0  0  0  0  0  0  0
    5.5835   -0.9923   26.2127 C   0  0  0  0  0  0  0  0  0  0  0  0
    5.7973    0.3546   26.4224 C   0  0  0  0  0  0  0  0  0  0  0  0
    6.4981    1.0704   25.4533 C   0  0  0  0  0  0  0  0  0  0  0  0
    6.7364    2.7808   25.6736 Cl  0  0  0  0  0  0  0  0  0  0  0  0
    7.0027    0.4595   24.3172 C   0  0  0  0  0  0  0  0  0  0  0  0
    6.8226   -0.9153   24.1190 C   0  0  0  0  0  0  0  0  0  0  0  0
    7.3490   -1.6075   22.8611 C   0  0  1  0  0  0  0  0  0  0  0  0
    7.4885   -3.1140   23.1693 C   0  0  0  0  0  0  0  0  0  0  0  0
    6.2833   -3.6470   23.7737 N   0  0  0  0  0  0  0  0  0  0  0  0
    5.7293   -4.8850   23.2887 C   0  0  0  0  0  0  0  0  0  0  0  0
    6.4058   -6.1113   23.8281 C   0  0  0  0  0  0  0  0  0  0  0  0
    5.8867   -7.0999   24.4734 N   0  0  0  0  0  0  0  0  0  0  0  0
    6.9036   -8.0355   24.6578 N   0  0  0  0  0  0  0  0  0  0  0  0
    7.9390   -7.5325   24.0908 C   0  0  0  0  0  0  0  0  0  0  0  0
    7.7215   -6.3081   23.5564 O   0  0  0  0  0  0  0  0  0  0  0  0
    8.9032   -7.9879   23.9473 H   0  0  0  0  0  0  0  0  0  0  0  0
    4.6801   -4.9294   23.5850 H   0  0  0  0  0  0  0  0  0  0  0  0
    5.7882   -4.8669   22.1915 H   0  0  0  0  0  0  0  0  0  0  0  0
    7.6856   -3.6637   22.2468 H   0  0  0  0  0  0  0  0  0  0  0  0
    8.3353   -3.2622   23.8535 H   0  0  0  0  0  0  0  0  0  0  0  0
    6.3471   -1.4012   21.7090 C   0  0  0  0  0  0  0  0  0  0  0  0
    5.2627   -1.9299   21.5820 O   0  0  0  0  0  0  0  0  0  0  0  0
    6.8751   -0.4831   20.8348 N   0  0  0  0  0  0  0  0  0  0  0  0
    6.1163    0.0624   19.7767 C   0  0  0  0  0  0  0  0  0  0  0  0
    6.4606   -0.2205   18.4799 C   0  0  0  0  0  0  0  0  0  0  0  0
    5.7968    0.2334   17.3894 N   0  0  0  0  0  0  0  0  0  0  0  0
    4.7648    1.0144   17.6062 C   0  0  0  0  0  0  0  0  0  0  0  0
    4.3127    1.4017   18.9006 C   0  0  0  0  0  0  0  0  0  0  0  0
    3.1987    2.2658   19.0603 C   0  0  0  0  0  0  0  0  0  0  0  0
    2.7931    2.6488   20.3071 C   0  0  0  0  0  0  0  0  0  0  0  0
    3.4886    2.1947   21.4511 C   0  0  0  0  0  0  0  0  0  0  0  0
    4.5721    1.3597   21.3299 C   0  0  0  0  0  0  0  0  0  0  0  0
    5.0037    0.9259   20.0371 C   0  0  0  0  0  0  0  0  0  0  0  0
    5.1022    1.0370   22.2287 H   0  0  0  0  0  0  0  0  0  0  0  0
    3.1611    2.5211   22.4339 H   0  0  0  0  0  0  0  0  0  0  0  0
    1.9419    3.3127   20.4252 H   0  0  0  0  0  0  0  0  0  0  0  0
    2.6939    2.6206   18.1652 H   0  0  0  0  0  0  0  0  0  0  0  0
    4.2278    1.3902   16.7344 H   0  0  0  0  0  0  0  0  0  0  0  0
    7.3088   -0.8755   18.2849 H   0  0  0  0  0  0  0  0  0  0  0  0
    8.2237   -0.0651   21.1323 C   0  0  0  0  0  0  0  0  0  0  0  0
    8.6509   -0.9537   22.3131 C   0  0  2  0  0  0  0  0  0  0  0  0
    9.7741   -1.9203   21.8772 C   0  0  0  0  0  0  0  0  0  0  0  0
   10.9601   -1.2092   21.4422 N   0  0  0  0  0  0  0  0  0  0  0  0
   11.8308   -0.6288   22.2937 C   0  0  0  0  0  0  0  0  0  0  0  0
   12.8437    0.0648   21.7318 N   0  0  0  0  0  0  0  0  0  0  0  0
   13.7000    0.5716   22.5965 C   0  0  0  0  0  0  0  0  0  0  0  0
   13.6353    0.5033   23.9340 N   0  0  0  0  0  0  0  0  0  0  0  0
   12.5726   -0.1725   24.3662 C   0  0  0  0  0  0  0  0  0  0  0  0
   11.6352   -0.7521   23.6230 N   0  0  0  0  0  0  0  0  0  0  0  0
   12.4539   -0.2531   25.4486 H   0  0  0  0  0  0  0  0  0  0  0  0
   14.5450    1.1061   22.1602 H   0  0  0  0  0  0  0  0  0  0  0  0
   11.2424   -1.2192   20.4735 H   0  0  0  0  0  0  0  0  0  0  0  0
    9.4432   -2.5682   21.0596 H   0  0  0  0  0  0  0  0  0  0  0  0
   10.0751   -2.5493   22.7181 H   0  0  0  0  0  0  0  0  0  0  0  0
    9.0967   -0.3600   23.1139 H   0  0  0  0  0  0  0  0  0  0  0  0
    8.8644   -0.2231   20.2665 H   0  0  0  0  0  0  0  0  0  0  0  0
    8.2618    1.0057   21.3733 H   0  0  0  0  0  0  0  0  0  0  0  0
    7.5406    1.0716   23.5988 H   0  0  0  0  0  0  0  0  0  0  0  0
    5.4107    0.8565   27.3021 H   0  0  0  0  0  0  0  0  0  0  0  0
    5.0253   -1.6041   26.9131 H   0  0  0  0  0  0  0  0  0  0  0  0
  1  2  2  0
  2  3  1  0
  3  4  2  0
  4  5  1  0
  5  6  2  0
  6  7  1  0
  6  8  1  0
  8  9  2  0
  9 10  1  0
 10 11  1  1
 11 12  1  0
 12 13  1  0
 13 14  1  0
 14 15  2  0
 15 16  1  0
 16 17  2  0
 17 18  1  0
 17 19  1  0
 13 20  1  0
 13 21  1  0
 11 22  1  0
 11 23  1  0
 10 24  1  0
 24 25  2  0
 24 26  1  0
 26 27  1  0
 27 28  2  0
 28 29  1  0
 29 30  2  0
 30 31  1  0
 31 32  2  0
 32 33  1  0
 33 34  2  0
 34 35  1  0
 35 36  2  0
 35 37  1  0
 34 38  1  0
 33 39  1  0
 32 40  1  0
 30 41  1  0
 28 42  1  0
 26 43  1  0
 43 44  1  0
 44 45  1  0
 45 46  1  0
 46 47  1  0
 47 48  2  0
 48 49  1  0
 49 50  2  0
 50 51  1  0
 51 52  2  0
 51 53  1  0
 49 54  1  0
 46 55  1  0
 45 56  1  0
 45 57  1  0
 44 58  1  1
 43 59  1  0
 43 60  1  0
  8 61  1  0
  5 62  1  0
  4 63  1  0
 12  2  1  0
 18 14  1  0
 36 27  1  0
 52 47  1  0
  9  3  1  0
 44 10  1  0
 36 31  1  0
M  END
>  <cnnaffinities>  (1) 
[7.27885, 7.27609]

>  <score>  (1) 
7.27885

>  <index>  (1) 
0

>  <Smiles>  (1) 
O=C1c2c(c(c(Cl)c(c2[C@@]2(C(N1C(c1nnc(o1)[H])([H])[H])([H])[H])C(=O)N(c1c(nc(c3c(c(c(c(c13)[H])[H])[H])[H])[H])[H])C([C@@]2(C(N(c1nc(nc(n1)[H])[H])[H])([H])[H])[H])([H])[H])[H])[H])[H]

>  <h>  (1) 
<NA>

>  <Training>  (1) 
True

>  <Success>  (1) 
True

>  <enamine_searched>  (1) 
False

>  <enamine_id>  (1) 
nan

$$$$

     RDKit          3D

 51 54  0  0  0  0  0  0  0  0999 V2000
   12.6447   -0.6748   24.8362 C   0  0  0  0  0  0  0  0  0  0  0  0
   12.2953   -1.6546   23.8928 O   0  0  0  0  0  0  0  0  0  0  0  0
   10.9927   -1.8085   23.5326 C   0  0  0  0  0  0  0  0  0  0  0  0
   10.8211   -2.7745   22.5418 C   0  0  0  0  0  0  0  0  0  0  0  0
    9.5483   -3.0722   22.0815 C   0  0  0  0  0  0  0  0  0  0  0  0
    8.4423   -2.3792   22.5697 C   0  0  0  0  0  0  0  0  0  0  0  0
    7.1397   -2.7071   22.0549 N   0  0  0  0  0  0  0  0  0  0  0  0
    6.5460   -3.9991   22.4249 C   0  0  0  0  0  0  0  0  0  0  0  0
    5.9769   -4.0077   23.8349 C   0  0  0  0  0  0  0  0  0  0  0  0
    6.8139   -4.2160   24.9324 C   0  0  0  0  0  0  0  0  0  0  0  0
    6.3140   -4.1548   26.2299 C   0  0  0  0  0  0  0  0  0  0  0  0
    4.9663   -3.8924   26.4518 C   0  0  0  0  0  0  0  0  0  0  0  0
    4.1343   -3.7074   25.3543 C   0  0  0  0  0  0  0  0  0  0  0  0
    2.4451   -3.3672   25.6146 Cl  0  0  0  0  0  0  0  0  0  0  0  0
    4.6195   -3.7659   24.0537 C   0  0  0  0  0  0  0  0  0  0  0  0
    3.9450   -3.5951   23.2199 H   0  0  0  0  0  0  0  0  0  0  0  0
    4.5603   -3.8273   27.4571 H   0  0  0  0  0  0  0  0  0  0  0  0
    6.9819   -4.2985   27.0762 H   0  0  0  0  0  0  0  0  0  0  0  0
    7.8725   -4.4068   24.7691 H   0  0  0  0  0  0  0  0  0  0  0  0
    5.7555   -4.2317   21.7025 H   0  0  0  0  0  0  0  0  0  0  0  0
    7.3307   -4.7609   22.3427 H   0  0  0  0  0  0  0  0  0  0  0  0
    6.2866   -1.7845   21.4683 C   0  0  0  0  0  0  0  0  0  0  0  0
    5.0876   -1.9936   21.3937 O   0  0  0  0  0  0  0  0  0  0  0  0
    6.9270   -0.5155   20.8845 C   0  0  0  0  0  0  0  0  0  0  0  0
    6.1161    0.0827   19.7635 C   0  0  0  0  0  0  0  0  0  0  0  0
    6.4255   -0.2155   18.4632 C   0  0  0  0  0  0  0  0  0  0  0  0
    5.7594    0.2369   17.3677 N   0  0  0  0  0  0  0  0  0  0  0  0
    4.7366    1.0287   17.5808 C   0  0  0  0  0  0  0  0  0  0  0  0
    4.2879    1.4171   18.8696 C   0  0  0  0  0  0  0  0  0  0  0  0
    3.1685    2.2696   19.0440 C   0  0  0  0  0  0  0  0  0  0  0  0
    2.7491    2.6190   20.2985 C   0  0  0  0  0  0  0  0  0  0  0  0
    3.4348    2.1279   21.4320 C   0  0  0  0  0  0  0  0  0  0  0  0
    4.5235    1.3014   21.2885 C   0  0  0  0  0  0  0  0  0  0  0  0
    4.9877    0.9267   19.9998 C   0  0  0  0  0  0  0  0  0  0  0  0
    5.0308    0.9163   22.1677 H   0  0  0  0  0  0  0  0  0  0  0  0
    3.0969    2.4135   22.4246 H   0  0  0  0  0  0  0  0  0  0  0  0
    1.8921    3.2755   20.4274 H   0  0  0  0  0  0  0  0  0  0  0  0
    2.6645    2.6404   18.1545 H   0  0  0  0  0  0  0  0  0  0  0  0
    4.2073    1.3975   16.7001 H   0  0  0  0  0  0  0  0  0  0  0  0
    7.2700   -0.8654   18.2360 H   0  0  0  0  0  0  0  0  0  0  0  0
    7.0733    0.2113   21.6964 H   0  0  0  0  0  0  0  0  0  0  0  0
    7.9363   -0.7816   20.5468 H   0  0  0  0  0  0  0  0  0  0  0  0
    8.6312   -1.3958   23.5414 C   0  0  0  0  0  0  0  0  0  0  0  0
    9.9059   -1.1028   24.0328 C   0  0  0  0  0  0  0  0  0  0  0  0
   10.0391   -0.3143   24.7721 H   0  0  0  0  0  0  0  0  0  0  0  0
    7.7666   -0.8626   23.9316 H   0  0  0  0  0  0  0  0  0  0  0  0
    9.3332   -3.8064   21.3128 H   0  0  0  0  0  0  0  0  0  0  0  0
   11.7642   -3.1828   22.1959 H   0  0  0  0  0  0  0  0  0  0  0  0
   12.3661    0.3271   24.4826 H   0  0  0  0  0  0  0  0  0  0  0  0
   13.7317   -0.7535   24.9326 H   0  0  0  0  0  0  0  0  0  0  0  0
   12.1622   -0.8715   25.8030 H   0  0  0  0  0  0  0  0  0  0  0  0
  1  2  1  0
  2  3  1  0
  3  4  2  0
  4  5  1  0
  5  6  2  0
  6  7  1  0
  7  8  1  0
  8  9  1  0
  9 10  2  0
 10 11  1  0
 11 12  2  0
 12 13  1  0
 13 14  1  0
 13 15  2  0
 15 16  1  0
 12 17  1  0
 11 18  1  0
 10 19  1  0
  8 20  1  0
  8 21  1  0
  7 22  1  0
 22 23  2  0
 22 24  1  0
 24 25  1  0
 25 26  2  0
 26 27  1  0
 27 28  2  0
 28 29  1  0
 29 30  2  0
 30 31  1  0
 31 32  2  0
 32 33  1  0
 33 34  2  0
 33 35  1  0
 32 36  1  0
 31 37  1  0
 30 38  1  0
 28 39  1  0
 26 40  1  0
 24 41  1  0
 24 42  1  0
  6 43  1  0
 43 44  2  0
 44 45  1  0
 43 46  1  0
  5 47  1  0
  4 48  1  0
  1 49  1  0
  1 50  1  0
  1 51  1  0
 44  3  1  0
 15  9  1  0
 34 25  1  0
 34 29  1  0
M  END
>  <cnnaffinities>  (2) 
[6.24668, 6.32042, 6.31139, 6.4632]

>  <score>  (2) 
6.24668

>  <index>  (2) 
1

>  <Smiles>  (2) 
C(Oc1c(c(c(N(C(c2c(c(c(c(Cl)c2[H])[H])[H])[H])([H])[H])C(=O)C(c2c(nc(c3c(c(c(c(c23)[H])[H])[H])[H])[H])[H])([H])[H])c(c1[H])[H])[H])[H])([H])([H])[H]

>  <h>  (2) 
<NA>

>  <Training>  (2) 
True

>  <Success>  (2) 
True

>  <enamine_searched>  (2) 
False

>  <enamine_id>  (2) 
nan

$$$$

     RDKit          3D

 56 60  0  0  0  0  0  0  0  0999 V2000
    7.5816   -8.5374   22.9698 C   0  0  0  0  0  0  0  0  0  0  0  0
    6.7458   -7.3688   22.7982 N   0  0  0  0  0  0  0  0  0  0  0  0
    6.9152   -6.5272   21.7445 C   0  0  0  0  0  0  0  0  0  0  0  0
    7.6723   -6.7576   20.8143 O   0  0  0  0  0  0  0  0  0  0  0  0
    6.0781   -5.2433   21.8700 C   0  0  0  0  0  0  0  0  0  0  0  0
    6.6739   -4.3043   22.8109 N   0  0  0  0  0  0  0  0  0  0  0  0
    7.7259   -3.3951   22.3829 C   0  0  0  0  0  0  0  0  0  0  0  0
    7.3696   -1.9159   22.6740 C   0  0  2  0  0  0  0  0  0  0  0  0
    6.2934   -1.4486   21.6694 C   0  0  0  0  0  0  0  0  0  0  0  0
    5.1573   -1.8624   21.5770 O   0  0  0  0  0  0  0  0  0  0  0  0
    6.8368   -0.4845   20.8516 N   0  0  0  0  0  0  0  0  0  0  0  0
    6.1060    0.0702   19.7813 C   0  0  0  0  0  0  0  0  0  0  0  0
    6.4639   -0.2150   18.4890 C   0  0  0  0  0  0  0  0  0  0  0  0
    5.8039    0.2342   17.3924 N   0  0  0  0  0  0  0  0  0  0  0  0
    4.7691    1.0140   17.5994 C   0  0  0  0  0  0  0  0  0  0  0  0
    4.3117    1.4069   18.8889 C   0  0  0  0  0  0  0  0  0  0  0  0
    3.1971    2.2689   19.0469 C   0  0  0  0  0  0  0  0  0  0  0  0
    2.7868    2.6558   20.2918 C   0  0  0  0  0  0  0  0  0  0  0  0
    3.4768    2.2064   21.4408 C   0  0  0  0  0  0  0  0  0  0  0  0
    4.5606    1.3726   21.3166 C   0  0  0  0  0  0  0  0  0  0  0  0
    4.9970    0.9367   20.0311 C   0  0  0  0  0  0  0  0  0  0  0  0
    5.0915    1.0455   22.2074 H   0  0  0  0  0  0  0  0  0  0  0  0
    3.1534    2.5366   22.4233 H   0  0  0  0  0  0  0  0  0  0  0  0
    1.9342    3.3192   20.4082 H   0  0  0  0  0  0  0  0  0  0  0  0
    2.6933    2.6251   18.1526 H   0  0  0  0  0  0  0  0  0  0  0  0
    4.2364    1.3896   16.7237 H   0  0  0  0  0  0  0  0  0  0  0  0
    7.3079   -0.8781   18.3003 H   0  0  0  0  0  0  0  0  0  0  0  0
    8.2726   -0.3583   20.9735 C   0  0  0  0  0  0  0  0  0  0  0  0
    8.5538   -0.9534   22.3578 C   0  0  2  0  0  0  0  0  0  0  0  0
    9.9189   -1.5819   22.4297 N   0  0  0  0  0  4  0  0  0  0  0  0
   10.0060   -2.3314   21.7235 H   0  0  0  0  0  0  0  0  0  0  0  0
   10.6434   -0.8695   22.2358 H   0  0  0  0  0  0  0  0  0  0  0  0
   10.1016   -1.9746   23.3681 H   0  0  0  0  0  0  0  0  0  0  0  0
    8.5555   -0.1551   23.0903 H   0  0  0  0  0  0  0  0  0  0  0  0
    8.8052   -0.9283   20.1993 H   0  0  0  0  0  0  0  0  0  0  0  0
    8.5568    0.6950   20.8909 H   0  0  0  0  0  0  0  0  0  0  0  0
    6.8587   -1.8154   24.0972 C   0  0  0  0  0  0  0  0  0  0  0  0
    6.8060   -0.5789   24.7512 C   0  0  0  0  0  0  0  0  0  0  0  0
    6.3347   -0.5041   26.0480 C   0  0  0  0  0  0  0  0  0  0  0  0
    6.2760    1.0474   26.8315 Cl  0  0  0  0  0  0  0  0  0  0  0  0
    5.9011   -1.6314   26.7445 C   0  0  0  0  0  0  0  0  0  0  0  0
    5.9090   -2.8459   26.0900 C   0  0  0  0  0  0  0  0  0  0  0  0
    6.3595   -2.9366   24.7756 C   0  0  0  0  0  0  0  0  0  0  0  0
    6.1886   -4.2469   24.0812 C   0  0  0  0  0  0  0  0  0  0  0  0
    5.5763   -5.1911   24.5842 O   0  0  0  0  0  0  0  0  0  0  0  0
    5.5598   -3.7568   26.5629 H   0  0  0  0  0  0  0  0  0  0  0  0
    5.5477   -1.5381   27.7649 H   0  0  0  0  0  0  0  0  0  0  0  0
    7.1215    0.3343   24.2610 H   0  0  0  0  0  0  0  0  0  0  0  0
    8.6714   -3.6441   22.8803 H   0  0  0  0  0  0  0  0  0  0  0  0
    7.8436   -3.5457   21.3137 H   0  0  0  0  0  0  0  0  0  0  0  0
    5.9817   -4.7410   20.8988 H   0  0  0  0  0  0  0  0  0  0  0  0
    5.0841   -5.5045   22.2612 H   0  0  0  0  0  0  0  0  0  0  0  0
    6.1788   -7.0803   23.5837 H   0  0  0  0  0  0  0  0  0  0  0  0
    7.1581   -9.1748   23.7424 H   0  0  0  0  0  0  0  0  0  0  0  0
    8.6050   -8.2855   23.2601 H   0  0  0  0  0  0  0  0  0  0  0  0
    7.6383   -9.1271   22.0598 H   0  0  0  0  0  0  0  0  0  0  0  0
  1  2  1  0
  2  3  1  0
  3  4  2  0
  3  5  1  0
  5  6  1  0
  6  7  1  0
  8  7  1  6
  8  9  1  0
  9 10  2  0
  9 11  1  0
 11 12  1  0
 12 13  2  0
 13 14  1  0
 14 15  2  0
 15 16  1  0
 16 17  2  0
 17 18  1  0
 18 19  2  0
 19 20  1  0
 20 21  2  0
 20 22  1  0
 19 23  1  0
 18 24  1  0
 17 25  1  0
 15 26  1  0
 13 27  1  0
 11 28  1  0
 28 29  1  0
 29 30  1  0
 30 31  1  0
 30 32  1  0
 30 33  1  0
 29 34  1  1
 28 35  1  0
 28 36  1  0
  8 37  1  0
 37 38  2  0
 38 39  1  0
 39 40  1  0
 39 41  2  0
 41 42  1  0
 42 43  2  0
 43 44  1  0
 44 45  2  0
 42 46  1  0
 41 47  1  0
 38 48  1  0
  7 49  1  0
  7 50  1  0
  5 51  1  0
  5 52  1  0
  2 53  1  0
  1 54  1  0
  1 55  1  0
  1 56  1  0
 44  6  1  0
 29  8  1  0
 43 37  1  0
 21 12  1  0
 21 16  1  0
M  CHG  1  30   1
M  END
>  <cnnaffinities>  (3) 
[6.4829]

>  <score>  (3) 
6.4829

>  <index>  (3) 
2

>  <Smiles>  (3) 
C(N(C(=O)C(N1C([C@@]2(C(=O)N(c3c(nc(c4c(c(c(c(c34)[H])[H])[H])[H])[H])[H])C([C@@]2([N+]([H])([H])[H])[H])([H])[H])c2c(c(Cl)c(c(c2C1=O)[H])[H])[H])([H])[H])([H])[H])[H])([H])([H])[H]

>  <h>  (3) 
<NA>

>  <Training>  (3) 
True

>  <Success>  (3) 
True

>  <enamine_searched>  (3) 
False

>  <enamine_id>  (3) 
nan

$$$$

     RDKit          3D

 67 73  0  0  0  0  0  0  0  0999 V2000
    9.7821   -0.9297   26.4671 O   0  0  0  0  0  0  0  0  0  0  0  0
    9.3246   -0.6436   25.3770 C   0  0  0  0  0  0  0  0  0  0  0  0
   10.2484   -0.2723   24.2815 C   0  0  0  0  0  0  0  0  0  0  0  0
   11.5895   -0.1068   24.6283 C   0  0  0  0  0  0  0  0  0  0  0  0
   12.5358    0.0672   23.6466 C   0  0  0  0  0  0  0  0  0  0  0  0
   12.1178    0.0492   22.3168 C   0  0  0  0  0  0  0  0  0  0  0  0
   13.3796    0.2487   21.1455 Cl  0  0  0  0  0  0  0  0  0  0  0  0
   10.7873   -0.1255   21.9592 C   0  0  0  0  0  0  0  0  0  0  0  0
    9.8117   -0.2357   22.9603 C   0  0  0  0  0  0  0  0  0  0  0  0
    8.3474   -0.4279   22.6211 C   0  0  1  0  0  0  0  0  0  0  0  0
    7.4813   -0.0888   23.8720 C   0  0  0  0  0  0  0  0  0  0  0  0
    7.9931   -0.6962   25.0899 N   0  0  0  0  0  0  0  0  0  0  0  0
    7.1103   -1.0781   26.1875 C   0  0  0  0  0  0  0  0  0  0  0  0
    6.6752    0.0658   27.0858 C   0  0  0  0  0  0  0  0  0  0  0  0
    5.6105    0.8809   26.7767 C   0  0  0  0  0  0  0  0  0  0  0  0
    5.2559    1.8655   27.6984 C   0  0  0  0  0  0  0  0  0  0  0  0
    5.8934    2.0681   28.8458 N   0  0  0  0  0  0  0  0  0  0  0  0
    6.9396    1.3076   29.1432 N   0  0  0  0  0  0  0  0  0  0  0  0
    7.3135    0.3491   28.3002 C   0  0  0  0  0  0  0  0  0  0  0  0
    8.1822   -0.2229   28.6165 H   0  0  0  0  0  0  0  0  0  0  0  0
    4.4069    2.5224   27.5220 H   0  0  0  0  0  0  0  0  0  0  0  0
    5.0590    0.7594   25.8423 H   0  0  0  0  0  0  0  0  0  0  0  0
    6.2281   -1.5784   25.7728 H   0  0  0  0  0  0  0  0  0  0  0  0
    7.6551   -1.8118   26.7841 H   0  0  0  0  0  0  0  0  0  0  0  0
    7.4580    1.0056   23.9685 H   0  0  0  0  0  0  0  0  0  0  0  0
    6.4526   -0.4342   23.7006 H   0  0  0  0  0  0  0  0  0  0  0  0
    7.8302    0.4786   21.4827 C   0  0  0  0  0  0  0  0  0  0  0  0
    8.0800    1.6499   21.2786 O   0  0  0  0  0  0  0  0  0  0  0  0
    6.9473   -0.2690   20.7263 N   0  0  0  0  0  0  0  0  0  0  0  0
    6.1515    0.2276   19.6740 C   0  0  0  0  0  0  0  0  0  0  0  0
    6.4173   -0.1680   18.3892 C   0  0  0  0  0  0  0  0  0  0  0  0
    5.7367    0.2556   17.2988 N   0  0  0  0  0  0  0  0  0  0  0  0
    4.7272    1.0698   17.5029 C   0  0  0  0  0  0  0  0  0  0  0  0
    4.2843    1.4835   18.7940 C   0  0  0  0  0  0  0  0  0  0  0  0
    3.1512    2.3233   18.9745 C   0  0  0  0  0  0  0  0  0  0  0  0
    2.7145    2.6360   20.2329 C   0  0  0  0  0  0  0  0  0  0  0  0
    3.3841    2.1307   21.3703 C   0  0  0  0  0  0  0  0  0  0  0  0
    4.4967    1.3413   21.2234 C   0  0  0  0  0  0  0  0  0  0  0  0
    4.9892    1.0212   19.9271 C   0  0  0  0  0  0  0  0  0  0  0  0
    5.0047    0.9457   22.0986 H   0  0  0  0  0  0  0  0  0  0  0  0
    3.0204    2.3799   22.3626 H   0  0  0  0  0  0  0  0  0  0  0  0
    1.8489    3.2802   20.3676 H   0  0  0  0  0  0  0  0  0  0  0  0
    2.6462    2.7090   18.0917 H   0  0  0  0  0  0  0  0  0  0  0  0
    4.1962    1.4272   16.6200 H   0  0  0  0  0  0  0  0  0  0  0  0
    7.2376   -0.8601   18.2016 H   0  0  0  0  0  0  0  0  0  0  0  0
    6.8114   -1.6361   21.1605 C   0  0  0  0  0  0  0  0  0  0  0  0
    8.0605   -1.8386   22.0035 C   0  0  2  0  0  0  0  0  0  0  0  0
    7.8887   -2.9894   22.9736 C   0  0  0  0  0  0  0  0  0  0  0  0
    7.4908   -4.1984   22.2651 N   0  0  0  0  0  0  0  0  0  0  0  0
    7.1224   -5.2898   23.0023 C   0  0  0  0  0  0  0  0  0  0  0  0
    6.9792   -6.5638   22.4157 C   0  0  0  0  0  0  0  0  0  0  0  0
    6.6007   -7.5835   23.2589 C   0  0  0  0  0  0  0  0  0  0  0  0
    6.3735   -7.4179   24.5739 N   0  0  0  0  0  0  0  0  0  0  0  0
    6.5363   -6.1795   25.0057 C   0  0  0  0  0  0  0  0  0  0  0  0
    6.8709   -5.1002   24.3012 N   0  0  0  0  0  0  0  0  0  0  0  0
    6.3846   -6.0061   26.0721 H   0  0  0  0  0  0  0  0  0  0  0  0
    6.4900   -8.6010   22.8866 H   0  0  0  0  0  0  0  0  0  0  0  0
    7.1848   -6.7358   21.3615 H   0  0  0  0  0  0  0  0  0  0  0  0
    8.0694   -4.4062   21.4634 H   0  0  0  0  0  0  0  0  0  0  0  0
    7.0958   -2.7662   23.6821 H   0  0  0  0  0  0  0  0  0  0  0  0
    8.7998   -3.1501   23.5609 H   0  0  0  0  0  0  0  0  0  0  0  0
    8.9089   -2.0544   21.3366 H   0  0  0  0  0  0  0  0  0  0  0  0
    6.7387   -2.2966   20.2950 H   0  0  0  0  0  0  0  0  0  0  0  0
    5.9065   -1.7871   21.7733 H   0  0  0  0  0  0  0  0  0  0  0  0
   10.4922   -0.2015   20.9185 H   0  0  0  0  0  0  0  0  0  0  0  0
   13.5945    0.1584   23.8734 H   0  0  0  0  0  0  0  0  0  0  0  0
   11.8585   -0.1252   25.6792 H   0  0  0  0  0  0  0  0  0  0  0  0
  1  2  2  0
  2  3  1  0
  3  4  2  0
  4  5  1  0
  5  6  2  0
  6  7  1  0
  6  8  1  0
  8  9  2  0
  9 10  1  0
 10 11  1  1
 11 12  1  0
 12 13  1  0
 13 14  1  0
 14 15  2  0
 15 16  1  0
 16 17  2  0
 17 18  1  0
 18 19  2  0
 19 20  1  0
 16 21  1  0
 15 22  1  0
 13 23  1  0
 13 24  1  0
 11 25  1  0
 11 26  1  0
 10 27  1  0
 27 28  2  0
 27 29  1  0
 29 30  1  0
 30 31  2  0
 31 32  1  0
 32 33  2  0
 33 34  1  0
 34 35  2  0
 35 36  1  0
 36 37  2  0
 37 38  1  0
 38 39  2  0
 38 40  1  0
 37 41  1  0
 36 42  1  0
 35 43  1  0
 33 44  1  0
 31 45  1  0
 29 46  1  0
 46 47  1  0
 47 48  1  0
 48 49  1  0
 49 50  1  0
 50 51  2  0
 51 52  1  0
 52 53  2  0
 53 54  1  0
 54 55  2  0
 54 56  1  0
 52 57  1  0
 51 58  1  0
 49 59  1  0
 48 60  1  0
 48 61  1  0
 47 62  1  6
 46 63  1  0
 46 64  1  0
  8 65  1  0
  5 66  1  0
  4 67  1  0
 12  2  1  0
 19 14  1  0
 39 30  1  0
 55 50  1  0
  9  3  1  0
 47 10  1  0
 39 34  1  0
M  END
>  <cnnaffinities>  (4) 
[6.65669, 6.79731]

>  <score>  (4) 
6.65669

>  <index>  (4) 
3

>  <Smiles>  (4) 
O=C1c2c(c(c(Cl)c(c2[C@@]2(C(N1C(c1c(c(nnc1[H])[H])[H])([H])[H])([H])[H])C(=O)N(c1c(nc(c3c(c(c(c(c13)[H])[H])[H])[H])[H])[H])C([C@@]2(C(N(c1c(c(nc(n1)[H])[H])[H])[H])([H])[H])[H])([H])[H])[H])[H])[H]

>  <h>  (4) 
<NA>

>  <Training>  (4) 
True

>  <Success>  (4) 
True

>  <enamine_searched>  (4) 
False

>  <enamine_id>  (4) 
nan

$$$$

     RDKit          3D

 41 44  0  0  0  0  0  0  0  0999 V2000
    7.3165   -0.2889   24.4586 C   0  0  0  0  0  0  0  0  0  0  0  0
    7.7562   -1.4603   23.5747 C   0  0  1  0  0  0  0  0  0  0  0  0
    8.4914   -2.4697   24.4018 C   0  0  0  0  0  0  0  0  0  0  0  0
    9.8897   -2.4842   24.6774 C   0  0  0  0  0  0  0  0  0  0  0  0
   10.2573   -3.5479   25.4278 C   0  0  0  0  0  0  0  0  0  0  0  0
    8.8832   -4.4645   25.9318 S   0  0  0  0  0  0  0  0  0  0  0  0
    7.8130   -3.4798   25.0009 C   0  0  0  0  0  0  0  0  0  0  0  0
    6.3301   -3.6359   24.8436 C   0  0  0  0  0  0  0  0  0  0  0  0
    5.9152   -3.2466   23.4215 C   0  0  0  0  0  0  0  0  0  0  0  0
    6.6346   -2.0907   22.8772 N   0  0  0  0  0  0  0  0  0  0  0  0
    6.1774   -1.6729   21.6472 C   0  0  0  0  0  0  0  0  0  0  0  0
    5.2317   -2.2421   21.1217 O   0  0  0  0  0  0  0  0  0  0  0  0
    6.8995   -0.5100   20.9311 C   0  0  0  0  0  0  0  0  0  0  0  0
    6.1043    0.0678   19.7855 C   0  0  0  0  0  0  0  0  0  0  0  0
    6.4238   -0.2281   18.4859 C   0  0  0  0  0  0  0  0  0  0  0  0
    5.7670    0.2298   17.3838 N   0  0  0  0  0  0  0  0  0  0  0  0
    4.7446    1.0223   17.5867 C   0  0  0  0  0  0  0  0  0  0  0  0
    4.2890    1.4118   18.8730 C   0  0  0  0  0  0  0  0  0  0  0  0
    3.1723    2.2670   19.0456 C   0  0  0  0  0  0  0  0  0  0  0  0
    2.7522    2.6200   20.2982 C   0  0  0  0  0  0  0  0  0  0  0  0
    3.4372    2.1358   21.4349 C   0  0  0  0  0  0  0  0  0  0  0  0
    4.5254    1.3108   21.2933 C   0  0  0  0  0  0  0  0  0  0  0  0
    4.9820    0.9224   20.0066 C   0  0  0  0  0  0  0  0  0  0  0  0
    5.0486    0.9493   22.1730 H   0  0  0  0  0  0  0  0  0  0  0  0
    3.1049    2.4255   22.4274 H   0  0  0  0  0  0  0  0  0  0  0  0
    1.8983    3.2796   20.4251 H   0  0  0  0  0  0  0  0  0  0  0  0
    2.6738    2.6368   18.1532 H   0  0  0  0  0  0  0  0  0  0  0  0
    4.2207    1.3915   16.7022 H   0  0  0  0  0  0  0  0  0  0  0  0
    7.2685   -0.8746   18.2511 H   0  0  0  0  0  0  0  0  0  0  0  0
    7.8540   -0.8955   20.5405 H   0  0  0  0  0  0  0  0  0  0  0  0
    7.1777    0.2695   21.6530 H   0  0  0  0  0  0  0  0  0  0  0  0
    4.8519   -2.9976   23.3876 H   0  0  0  0  0  0  0  0  0  0  0  0
    6.0594   -4.0831   22.7258 H   0  0  0  0  0  0  0  0  0  0  0  0
    5.8228   -2.9882   25.5780 H   0  0  0  0  0  0  0  0  0  0  0  0
    5.9954   -4.6605   25.0397 H   0  0  0  0  0  0  0  0  0  0  0  0
   11.2648   -3.8590   25.6775 H   0  0  0  0  0  0  0  0  0  0  0  0
   10.5877   -1.7155   24.3689 H   0  0  0  0  0  0  0  0  0  0  0  0
    8.4465   -1.1132   22.7976 H   0  0  0  0  0  0  0  0  0  0  0  0
    6.7994    0.4925   23.8914 H   0  0  0  0  0  0  0  0  0  0  0  0
    8.2093    0.1385   24.9265 H   0  0  0  0  0  0  0  0  0  0  0  0
    6.6518   -0.6512   25.2513 H   0  0  0  0  0  0  0  0  0  0  0  0
  1  2  1  0
  2  3  1  0
  3  4  1  0
  4  5  2  0
  5  6  1  0
  6  7  1  0
  7  8  1  0
  8  9  1  0
  9 10  1  0
 10 11  1  0
 11 12  2  0
 11 13  1  0
 13 14  1  0
 14 15  2  0
 15 16  1  0
 16 17  2  0
 17 18  1  0
 18 19  2  0
 19 20  1  0
 20 21  2  0
 21 22  1  0
 22 23  2  0
 22 24  1  0
 21 25  1  0
 20 26  1  0
 19 27  1  0
 17 28  1  0
 15 29  1  0
 13 30  1  0
 13 31  1  0
  9 32  1  0
  9 33  1  0
  8 34  1  0
  8 35  1  0
  5 36  1  0
  4 37  1  0
  2 38  1  6
  1 39  1  0
  1 40  1  0
  1 41  1  0
 10  2  1  0
 23 14  1  0
  7  3  2  0
 23 18  1  0
M  END
>  <cnnaffinities>  (5) 
[5.40295, 5.43462, 5.38036]

>  <score>  (5) 
5.40295

>  <index>  (5) 
4

>  <Smiles>  (5) 
C([C@]1(c2c(c(sc2C(C(N1C(=O)C(c1c(nc(c2c(c(c(c(c12)[H])[H])[H])[H])[H])[H])([H])[H])([H])[H])([H])[H])[H])[H])[H])([H])([H])[H]

>  <h>  (5) 
<NA>

>  <Training>  (5) 
True

>  <Success>  (5) 
True

>  <enamine_searched>  (5) 
False

>  <enamine_id>  (5) 
nan

$$$$

     RDKit          3D

 50 54  0  0  0  0  0  0  0  0999 V2000
   10.0244   -1.5464   22.4130 C   0  0  0  0  0  0  0  0  0  0  0  0
    8.6095   -0.9463   22.3641 C   0  0  1  0  0  0  0  0  0  0  0  0
    8.2937   -0.3534   20.9734 C   0  0  0  0  0  0  0  0  0  0  0  0
    6.8502   -0.4723   20.8600 N   0  0  0  0  0  0  0  0  0  0  0  0
    6.1029    0.0635   19.7788 C   0  0  0  0  0  0  0  0  0  0  0  0
    6.4389   -0.2230   18.4792 C   0  0  0  0  0  0  0  0  0  0  0  0
    5.7761    0.2413   17.3897 N   0  0  0  0  0  0  0  0  0  0  0  0
    4.7456    1.0252   17.5917 C   0  0  0  0  0  0  0  0  0  0  0  0
    4.2932    1.4201   18.8794 C   0  0  0  0  0  0  0  0  0  0  0  0
    3.1764    2.2811   19.0537 C   0  0  0  0  0  0  0  0  0  0  0  0
    2.7786    2.6574   20.3067 C   0  0  0  0  0  0  0  0  0  0  0  0
    3.4859    2.2002   21.4430 C   0  0  0  0  0  0  0  0  0  0  0  0
    4.5693    1.3727   21.2986 C   0  0  0  0  0  0  0  0  0  0  0  0
    4.9892    0.9393   20.0106 C   0  0  0  0  0  0  0  0  0  0  0  0
    5.1122    1.0222   22.1713 H   0  0  0  0  0  0  0  0  0  0  0  0
    3.1678    2.5088   22.4362 H   0  0  0  0  0  0  0  0  0  0  0  0
    1.9253    3.3209   20.4398 H   0  0  0  0  0  0  0  0  0  0  0  0
    2.6586    2.6414   18.1690 H   0  0  0  0  0  0  0  0  0  0  0  0
    4.2167    1.3866   16.7109 H   0  0  0  0  0  0  0  0  0  0  0  0
    7.2803   -0.8784   18.2535 H   0  0  0  0  0  0  0  0  0  0  0  0
    6.3154   -1.3979   21.7348 C   0  0  0  0  0  0  0  0  0  0  0  0
    5.1637   -1.7734   21.7136 O   0  0  0  0  0  0  0  0  0  0  0  0
    7.4223   -1.8987   22.6959 C   0  0  1  0  0  0  0  0  0  0  0  0
    7.7417   -3.3675   22.3457 C   0  0  0  0  0  0  0  0  0  0  0  0
    6.6209   -4.2209   22.6768 N   0  0  0  0  0  0  0  0  0  0  0  0
    6.1522   -5.2251   21.7462 C   0  0  0  0  0  0  0  0  0  0  0  0
    6.7462   -6.5612   21.9619 C   0  0  0  0  0  0  0  0  0  0  0  0
    7.1873   -7.6070   22.1752 N   0  0  0  0  0  0  0  0  0  0  0  0
    5.0653   -5.3278   21.8299 H   0  0  0  0  0  0  0  0  0  0  0  0
    6.3691   -4.8929   20.7224 H   0  0  0  0  0  0  0  0  0  0  0  0
    6.1478   -4.2498   23.9623 C   0  0  0  0  0  0  0  0  0  0  0  0
    5.5448   -5.2212   24.3958 O   0  0  0  0  0  0  0  0  0  0  0  0
    6.3745   -2.9907   24.7423 C   0  0  0  0  0  0  0  0  0  0  0  0
    5.9202   -2.9440   26.0606 C   0  0  0  0  0  0  0  0  0  0  0  0
    5.9197   -1.7619   26.7687 C   0  0  0  0  0  0  0  0  0  0  0  0
    6.3616   -0.6213   26.1101 C   0  0  0  0  0  0  0  0  0  0  0  0
    6.3159    0.5503   26.7670 F   0  0  0  0  0  0  0  0  0  0  0  0
    6.8403   -0.6379   24.8166 C   0  0  0  0  0  0  0  0  0  0  0  0
    6.9161   -1.8529   24.1245 C   0  0  0  0  0  0  0  0  0  0  0  0
    7.1168    0.3107   24.3666 H   0  0  0  0  0  0  0  0  0  0  0  0
    5.5681   -1.6861   27.7925 H   0  0  0  0  0  0  0  0  0  0  0  0
    5.5373   -3.8497   26.5109 H   0  0  0  0  0  0  0  0  0  0  0  0
    7.9105   -3.4317   21.2759 H   0  0  0  0  0  0  0  0  0  0  0  0
    8.6573   -3.7038   22.8593 H   0  0  0  0  0  0  0  0  0  0  0  0
    8.5990    0.6967   20.8923 H   0  0  0  0  0  0  0  0  0  0  0  0
    8.8151   -0.9072   20.1759 H   0  0  0  0  0  0  0  0  0  0  0  0
    8.5719   -0.1298   23.0915 H   0  0  0  0  0  0  0  0  0  0  0  0
   10.2388   -2.0104   23.3844 H   0  0  0  0  0  0  0  0  0  0  0  0
   10.7908   -0.7754   22.2394 H   0  0  0  0  0  0  0  0  0  0  0  0
   10.1647   -2.3213   21.6446 H   0  0  0  0  0  0  0  0  0  0  0  0
  1  2  1  0
  2  3  1  0
  3  4  1  0
  4  5  1  0
  5  6  2  0
  6  7  1  0
  7  8  2  0
  8  9  1  0
  9 10  2  0
 10 11  1  0
 11 12  2  0
 12 13  1  0
 13 14  2  0
 13 15  1  0
 12 16  1  0
 11 17  1  0
 10 18  1  0
  8 19  1  0
  6 20  1  0
  4 21  1  0
 21 22  2  0
 21 23  1  0
 23 24  1  6
 24 25  1  0
 25 26  1  0
 26 27  1  0
 27 28  3  0
 26 29  1  0
 26 30  1  0
 25 31  1  0
 31 32  2  0
 31 33  1  0
 33 34  2  0
 34 35  1  0
 35 36  2  0
 36 37  1  0
 36 38  1  0
 38 39  2  0
 38 40  1  0
 35 41  1  0
 34 42  1  0
 24 43  1  0
 24 44  1  0
  3 45  1  0
  3 46  1  0
  2 47  1  1
  1 48  1  0
  1 49  1  0
  1 50  1  0
 23  2  1  0
 39 33  1  0
 14  5  1  0
 39 23  1  0
 14  9  1  0
M  END
>  <cnnaffinities>  (6) 
[6.12675, 5.95586, 6.16138]

>  <score>  (6) 
6.12675

>  <index>  (6) 
5

>  <Smiles>  (6) 
C([C@]1(C(N(c2c(nc(c3c(c(c(c(c23)[H])[H])[H])[H])[H])[H])C(=O)[C@]21C(N(C(C#N)([H])[H])C(=O)c1c(c(c(F)c(c21)[H])[H])[H])([H])[H])([H])[H])[H])([H])([H])[H]

>  <h>  (6) 
<NA>

>  <Training>  (6) 
True

>  <Success>  (6) 
True

>  <enamine_searched>  (6) 
False

>  <enamine_id>  (6) 
nan

$$$$

     RDKit          3D

 65 69  0  0  0  0  0  0  0  0999 V2000
    0.7996   -7.9720   23.1041 C   0  0  0  0  0  0  0  0  0  0  0  0
    0.8813   -6.6237   23.8221 C   0  0  0  0  0  0  0  0  0  0  0  0
    2.1001   -5.8794   23.3273 C   0  0  0  0  0  0  0  0  0  0  0  0
    2.2699   -5.5663   22.1800 O   0  0  0  0  0  0  0  0  0  0  0  0
    3.2063   -5.5829   24.3599 N   0  0  1  0  0  4  0  0  0  0  0  0
    4.4191   -6.5568   24.2411 C   0  0  0  0  0  0  0  0  0  0  0  0
    5.2887   -6.1282   23.0735 C   0  0  0  0  0  0  0  0  0  0  0  0
    5.8650   -4.7284   23.3049 C   0  0  0  0  0  0  0  0  0  0  0  0
    4.8305   -3.7054   23.7475 C   0  0  0  0  0  0  0  0  0  0  0  0
    5.0396   -2.3183   23.6333 C   0  0  0  0  0  0  0  0  0  0  0  0
    6.1975   -1.7953   22.9623 N   0  0  0  0  0  0  0  0  0  0  0  0
    7.2071   -1.1623   23.8078 C   0  0  0  0  0  0  0  0  0  0  0  0
    8.6252   -1.3784   23.3209 C   0  0  0  0  0  0  0  0  0  0  0  0
    9.0831   -2.6793   23.1342 C   0  0  0  0  0  0  0  0  0  0  0  0
   10.3821   -2.9103   22.7188 C   0  0  0  0  0  0  0  0  0  0  0  0
   11.2319   -1.8590   22.3887 C   0  0  0  0  0  0  0  0  0  0  0  0
   10.7762   -0.5601   22.5896 C   0  0  0  0  0  0  0  0  0  0  0  0
   11.8365    0.7911   22.2711 Cl  0  0  0  0  0  0  0  0  0  0  0  0
    9.4946   -0.3114   23.0776 C   0  0  0  0  0  0  0  0  0  0  0  0
    9.1943    0.7185   23.2724 H   0  0  0  0  0  0  0  0  0  0  0  0
   12.2325   -2.0313   22.0059 H   0  0  0  0  0  0  0  0  0  0  0  0
   10.7042   -3.9386   22.7430 H   0  0  0  0  0  0  0  0  0  0  0  0
    8.4411   -3.5334   23.3405 H   0  0  0  0  0  0  0  0  0  0  0  0
    7.0718   -1.6574   24.7792 H   0  0  0  0  0  0  0  0  0  0  0  0
    7.0333   -0.0800   23.9460 H   0  0  0  0  0  0  0  0  0  0  0  0
    6.1109   -1.6491   21.5852 C   0  0  0  0  0  0  0  0  0  0  0  0
    5.4258   -2.4005   20.9085 O   0  0  0  0  0  0  0  0  0  0  0  0
    6.8814   -0.5048   20.9123 C   0  0  0  0  0  0  0  0  0  0  0  0
    6.1087    0.0831   19.7647 C   0  0  0  0  0  0  0  0  0  0  0  0
    6.4228   -0.2192   18.4650 C   0  0  0  0  0  0  0  0  0  0  0  0
    5.7642    0.2372   17.3661 N   0  0  0  0  0  0  0  0  0  0  0  0
    4.7405    1.0292   17.5766 C   0  0  0  0  0  0  0  0  0  0  0  0
    4.2866    1.4167   18.8677 C   0  0  0  0  0  0  0  0  0  0  0  0
    3.1668    2.2682   19.0418 C   0  0  0  0  0  0  0  0  0  0  0  0
    2.7495    2.6190   20.2973 C   0  0  0  0  0  0  0  0  0  0  0  0
    3.4394    2.1385   21.4328 C   0  0  0  0  0  0  0  0  0  0  0  0
    4.5288    1.3158   21.2865 C   0  0  0  0  0  0  0  0  0  0  0  0
    4.9834    0.9297   19.9965 C   0  0  0  0  0  0  0  0  0  0  0  0
    5.0562    0.9623   22.1673 H   0  0  0  0  0  0  0  0  0  0  0  0
    3.1088    2.4315   22.4258 H   0  0  0  0  0  0  0  0  0  0  0  0
    1.8936    3.2742   20.4282 H   0  0  0  0  0  0  0  0  0  0  0  0
    2.6617    2.6374   18.1531 H   0  0  0  0  0  0  0  0  0  0  0  0
    4.2107    1.3986   16.6979 H   0  0  0  0  0  0  0  0  0  0  0  0
    7.2675   -0.8712   18.2438 H   0  0  0  0  0  0  0  0  0  0  0  0
    7.1399    0.2691   21.6441 H   0  0  0  0  0  0  0  0  0  0  0  0
    7.8267   -0.9238   20.5486 H   0  0  0  0  0  0  0  0  0  0  0  0
    4.1446   -1.3992   24.1786 C   0  0  0  0  0  0  0  0  0  0  0  0
    2.9879   -1.8339   24.8157 C   0  0  0  0  0  0  0  0  0  0  0  0
    2.7488   -3.1982   24.9136 C   0  0  0  0  0  0  0  0  0  0  0  0
    3.6461   -4.1121   24.3604 C   0  0  0  0  0  0  0  0  0  0  0  0
    1.8321   -3.5812   25.3540 H   0  0  0  0  0  0  0  0  0  0  0  0
    2.2737   -1.1156   25.2071 H   0  0  0  0  0  0  0  0  0  0  0  0
    4.3658   -0.3347   24.0972 H   0  0  0  0  0  0  0  0  0  0  0  0
    6.6359   -4.7937   24.0879 H   0  0  0  0  0  0  0  0  0  0  0  0
    6.3452   -4.3612   22.3944 H   0  0  0  0  0  0  0  0  0  0  0  0
    4.6800   -6.1422   22.1650 H   0  0  0  0  0  0  0  0  0  0  0  0
    6.0962   -6.8537   22.9476 H   0  0  0  0  0  0  0  0  0  0  0  0
    4.0431   -7.5753   24.1140 H   0  0  0  0  0  0  0  0  0  0  0  0
    4.9722   -6.5123   25.1818 H   0  0  0  0  0  0  0  0  0  0  0  0
    2.7733   -5.7274   25.2875 H   0  0  0  0  0  0  0  0  0  0  0  0
    0.9385   -6.7249   24.9106 H   0  0  0  0  0  0  0  0  0  0  0  0
    0.0123   -5.9989   23.5870 H   0  0  0  0  0  0  0  0  0  0  0  0
   -0.1010   -8.5247   23.3764 H   0  0  0  0  0  0  0  0  0  0  0  0
    0.8009   -7.8101   22.0245 H   0  0  0  0  0  0  0  0  0  0  0  0
    1.6696   -8.5898   23.3464 H   0  0  0  0  0  0  0  0  0  0  0  0
  1  2  1  0
  2  3  1  0
  3  4  2  0
  3  5  1  0
  5  6  1  0
  6  7  1  0
  7  8  1  0
  8  9  1  0
  9 10  2  0
 10 11  1  0
 11 12  1  0
 12 13  1  0
 13 14  2  0
 14 15  1  0
 15 16  2  0
 16 17  1  0
 17 18  1  0
 17 19  2  0
 19 20  1  0
 16 21  1  0
 15 22  1  0
 14 23  1  0
 12 24  1  0
 12 25  1  0
 11 26  1  0
 26 27  2  0
 26 28  1  0
 28 29  1  0
 29 30  2  0
 30 31  1  0
 31 32  2  0
 32 33  1  0
 33 34  2  0
 34 35  1  0
 35 36  2  0
 36 37  1  0
 37 38  2  0
 37 39  1  0
 36 40  1  0
 35 41  1  0
 34 42  1  0
 32 43  1  0
 30 44  1  0
 28 45  1  0
 28 46  1  0
 10 47  1  0
 47 48  2  0
 48 49  1  0
 49 50  2  0
 49 51  1  0
 48 52  1  0
 47 53  1  0
  8 54  1  0
  8 55  1  0
  7 56  1  0
  7 57  1  0
  6 58  1  0
  6 59  1  0
  5 60  1  1
  2 61  1  0
  2 62  1  0
  1 63  1  0
  1 64  1  0
  1 65  1  0
 50  5  1  0
 50  9  1  0
 19 13  1  0
 38 29  1  0
 38 33  1  0
M  CHG  1   5   1
M  END
>  <cnnaffinities>  (7) 
[6.90082, 6.60126, 6.58492]

>  <score>  (7) 
6.90082

>  <index>  (7) 
6

>  <Smiles>  (7) 
C(C(C(=O)[N@+]1(C(C(C(c2c(N(C(c3c(c(c(c(Cl)c3[H])[H])[H])[H])([H])[H])C(=O)C(c3c(nc(c4c(c(c(c(c34)[H])[H])[H])[H])[H])[H])([H])[H])c(c(c(c12)[H])[H])[H])([H])[H])([H])[H])([H])[H])[H])([H])[H])([H])([H])[H]

>  <h>  (7) 
<NA>

>  <Training>  (7) 
True

>  <Success>  (7) 
True

>  <enamine_searched>  (7) 
False

>  <enamine_id>  (7) 
nan

$$$$

     RDKit          3D

 37 39  0  0  0  0  0  0  0  0999 V2000
    7.9913    1.7162   21.0077 O   0  0  0  0  0  0  0  0  0  0  0  0
    8.0702    0.5381   21.3278 C   0  0  0  0  0  0  0  0  0  0  0  0
    6.9827   -0.4587   20.9017 C   0  0  0  0  0  0  0  0  0  0  0  0
    6.1266    0.0701   19.7776 C   0  0  0  0  0  0  0  0  0  0  0  0
    6.4494   -0.2225   18.4753 C   0  0  0  0  0  0  0  0  0  0  0  0
    5.7928    0.2275   17.3729 N   0  0  0  0  0  0  0  0  0  0  0  0
    4.7659    1.0168   17.5856 C   0  0  0  0  0  0  0  0  0  0  0  0
    4.3161    1.4140   18.8750 C   0  0  0  0  0  0  0  0  0  0  0  0
    3.1973    2.2681   19.0422 C   0  0  0  0  0  0  0  0  0  0  0  0
    2.7882    2.6332   20.2961 C   0  0  0  0  0  0  0  0  0  0  0  0
    3.4851    2.1687   21.4321 C   0  0  0  0  0  0  0  0  0  0  0  0
    4.5788    1.3493   21.2961 C   0  0  0  0  0  0  0  0  0  0  0  0
    5.0172    0.9389   20.0063 C   0  0  0  0  0  0  0  0  0  0  0  0
    5.1218    1.0226   22.1773 H   0  0  0  0  0  0  0  0  0  0  0  0
    3.1518    2.4697   22.4220 H   0  0  0  0  0  0  0  0  0  0  0  0
    1.9320    3.2902   20.4225 H   0  0  0  0  0  0  0  0  0  0  0  0
    2.6847    2.6296   18.1540 H   0  0  0  0  0  0  0  0  0  0  0  0
    4.2286    1.3873   16.7140 H   0  0  0  0  0  0  0  0  0  0  0  0
    7.2990   -0.8743   18.2676 H   0  0  0  0  0  0  0  0  0  0  0  0
    6.3765   -0.7339   21.7772 H   0  0  0  0  0  0  0  0  0  0  0  0
    7.4941   -1.3682   20.5652 H   0  0  0  0  0  0  0  0  0  0  0  0
    9.1390    0.0402   22.0345 N   0  0  0  0  0  0  0  0  0  0  0  0
    9.1756   -1.1688   22.8711 C   0  0  0  0  0  0  0  0  0  0  0  0
   10.4942   -1.9456   22.7240 C   0  0  0  0  0  0  0  0  0  0  0  0
   11.7083   -1.0282   22.9186 C   0  0  0  0  0  0  0  0  0  0  0  0
   11.5258    0.1186   21.9239 C   0  0  0  0  0  0  0  0  0  0  0  0
   10.2753    0.9303   22.2689 C   0  0  0  0  0  0  0  0  0  0  0  0
   10.2749    1.2469   23.3245 H   0  0  0  0  0  0  0  0  0  0  0  0
   10.1250    1.8438   21.6797 H   0  0  0  0  0  0  0  0  0  0  0  0
   11.3105   -0.3815   20.9810 H   0  0  0  0  0  0  0  0  0  0  0  0
   12.4096    0.7441   21.7858 H   0  0  0  0  0  0  0  0  0  0  0  0
   12.6394   -1.5801   22.7349 H   0  0  0  0  0  0  0  0  0  0  0  0
   11.7776   -0.6558   23.9477 H   0  0  0  0  0  0  0  0  0  0  0  0
   10.5473   -2.3367   21.7022 H   0  0  0  0  0  0  0  0  0  0  0  0
   10.4972   -2.8167   23.3958 H   0  0  0  0  0  0  0  0  0  0  0  0
    8.3177   -1.8184   22.6632 H   0  0  0  0  0  0  0  0  0  0  0  0
    9.0817   -0.8455   23.9157 H   0  0  0  0  0  0  0  0  0  0  0  0
  1  2  2  0
  2  3  1  0
  3  4  1  0
  4  5  2  0
  5  6  1  0
  6  7  2  0
  7  8  1  0
  8  9  2  0
  9 10  1  0
 10 11  2  0
 11 12  1  0
 12 13  2  0
 12 14  1  0
 11 15  1  0
 10 16  1  0
  9 17  1  0
  7 18  1  0
  5 19  1  0
  3 20  1  0
  3 21  1  0
  2 22  1  0
 22 23  1  0
 23 24  1  0
 24 25  1  0
 25 26  1  0
 26 27  1  0
 27 28  1  0
 27 29  1  0
 26 30  1  0
 26 31  1  0
 25 32  1  0
 25 33  1  0
 24 34  1  0
 24 35  1  0
 23 36  1  0
 23 37  1  0
 13  4  1  0
 27 22  1  0
 13  8  1  0
M  END
>  <cnnaffinities>  (8) 
[5.05042, 4.99398, 4.59631, 4.88968, 4.88983]

>  <score>  (8) 
5.05042

>  <index>  (8) 
7

>  <Smiles>  (8) 
O=C(C(c1c(nc(c2c(c(c(c(c12)[H])[H])[H])[H])[H])[H])([H])[H])N1C(C(C(C(C1([H])[H])([H])[H])([H])[H])([H])[H])([H])[H]

>  <h>  (8) 
<NA>

>  <Training>  (8) 
True

>  <Success>  (8) 
True

>  <enamine_searched>  (8) 
False

>  <enamine_id>  (8) 
nan

$$$$

     RDKit          3D

 66 71  0  0  0  0  0  0  0  0999 V2000
    7.7356   -3.0282   23.2051 C   0  0  0  0  0  0  0  0  0  0  0  0
    7.9569   -1.9373   22.1760 C   0  0  1  0  0  0  0  0  0  0  0  0
    6.7716   -1.7936   21.2224 C   0  0  0  0  0  0  0  0  0  0  0  0
    6.8763   -0.4199   20.7947 N   0  0  0  0  0  0  0  0  0  0  0  0
    6.1171    0.1154   19.7419 C   0  0  0  0  0  0  0  0  0  0  0  0
    6.4361   -0.2302   18.4558 C   0  0  0  0  0  0  0  0  0  0  0  0
    5.7802    0.2212   17.3625 N   0  0  0  0  0  0  0  0  0  0  0  0
    4.7673    1.0283   17.5743 C   0  0  0  0  0  0  0  0  0  0  0  0
    4.3127    1.4292   18.8633 C   0  0  0  0  0  0  0  0  0  0  0  0
    3.1898    2.2807   19.0232 C   0  0  0  0  0  0  0  0  0  0  0  0
    2.7400    2.6135   20.2701 C   0  0  0  0  0  0  0  0  0  0  0  0
    3.3999    2.1202   21.4206 C   0  0  0  0  0  0  0  0  0  0  0  0
    4.5028    1.3143   21.2948 C   0  0  0  0  0  0  0  0  0  0  0  0
    4.9946    0.9565   20.0030 C   0  0  0  0  0  0  0  0  0  0  0  0
    5.0109    0.9558   22.1876 H   0  0  0  0  0  0  0  0  0  0  0  0
    3.0317    2.3899   22.4067 H   0  0  0  0  0  0  0  0  0  0  0  0
    1.8740    3.2604   20.3851 H   0  0  0  0  0  0  0  0  0  0  0  0
    2.7067    2.6539   18.1242 H   0  0  0  0  0  0  0  0  0  0  0  0
    4.2375    1.3986   16.6972 H   0  0  0  0  0  0  0  0  0  0  0  0
    7.2831   -0.8933   18.2774 H   0  0  0  0  0  0  0  0  0  0  0  0
    7.6447    0.3787   21.6028 C   0  0  0  0  0  0  0  0  0  0  0  0
    7.7800    1.5744   21.4435 O   0  0  0  0  0  0  0  0  0  0  0  0
    8.2315   -0.4858   22.7180 C   0  0  1  0  0  0  0  0  0  0  0  0
    7.4423   -0.1116   24.0011 C   0  0  0  0  0  0  0  0  0  0  0  0
    8.0608   -0.6039   25.2211 N   0  0  0  0  0  0  0  0  0  0  0  0
    7.2409   -0.9619   26.3726 C   0  0  0  0  0  0  0  0  0  0  0  0
    6.8526   -2.4513   26.3508 C   0  0  0  0  0  0  0  0  0  0  0  0
    5.7285   -2.8449   26.0727 O   0  0  0  0  0  0  0  0  0  0  0  0
    7.8807   -3.2885   26.6239 N   0  0  0  0  0  0  0  0  0  0  0  0
    7.6944   -4.7348   26.7015 C   0  0  0  0  0  0  0  0  0  0  0  0
    8.9949   -5.3638   27.0777 C   0  0  0  0  0  0  0  0  0  0  0  0
    9.4567   -5.7756   28.3045 C   0  0  0  0  0  0  0  0  0  0  0  0
   10.8343   -5.9422   28.1343 C   0  0  0  0  0  0  0  0  0  0  0  0
   11.2068   -5.7116   26.8870 N   0  0  0  0  0  0  0  0  0  0  0  0
   10.0757   -5.3554   26.2483 N   0  0  0  0  0  0  0  0  0  0  0  0
   10.2285   -4.6597   24.9878 C   0  0  0  0  0  0  0  0  0  0  0  0
    9.5226   -5.0197   24.2360 H   0  0  0  0  0  0  0  0  0  0  0  0
   11.2430   -4.8493   24.6592 H   0  0  0  0  0  0  0  0  0  0  0  0
   10.1136   -3.5772   25.1231 H   0  0  0  0  0  0  0  0  0  0  0  0
   11.5761   -6.1639   28.8913 H   0  0  0  0  0  0  0  0  0  0  0  0
    8.9050   -5.9245   29.2143 H   0  0  0  0  0  0  0  0  0  0  0  0
    6.9495   -4.9754   27.4656 H   0  0  0  0  0  0  0  0  0  0  0  0
    7.2889   -5.1230   25.7560 H   0  0  0  0  0  0  0  0  0  0  0  0
    8.8052   -2.9035   26.7870 H   0  0  0  0  0  0  0  0  0  0  0  0
    7.8367   -0.7262   27.2596 H   0  0  0  0  0  0  0  0  0  0  0  0
    6.3302   -0.3602   26.4041 H   0  0  0  0  0  0  0  0  0  0  0  0
    9.4113   -0.6610   25.3660 C   0  0  0  0  0  0  0  0  0  0  0  0
    9.9330   -1.0608   26.4019 O   0  0  0  0  0  0  0  0  0  0  0  0
   10.2602   -0.3027   24.2042 C   0  0  0  0  0  0  0  0  0  0  0  0
   11.6246   -0.1372   24.4330 C   0  0  0  0  0  0  0  0  0  0  0  0
   12.4683    0.1369   23.3763 C   0  0  0  0  0  0  0  0  0  0  0  0
   11.9437    0.2082   22.0851 C   0  0  0  0  0  0  0  0  0  0  0  0
   10.5856    0.0147   21.8631 C   0  0  0  0  0  0  0  0  0  0  0  0
    9.7094   -0.2154   22.9294 C   0  0  0  0  0  0  0  0  0  0  0  0
   10.1803    0.0448   20.8571 H   0  0  0  0  0  0  0  0  0  0  0  0
   12.6181    0.4000   21.2570 H   0  0  0  0  0  0  0  0  0  0  0  0
   13.5301    0.2877   23.5449 H   0  0  0  0  0  0  0  0  0  0  0  0
   11.9906   -0.2504   25.4482 H   0  0  0  0  0  0  0  0  0  0  0  0
    6.4214   -0.5089   23.9440 H   0  0  0  0  0  0  0  0  0  0  0  0
    7.3701    0.9833   24.0333 H   0  0  0  0  0  0  0  0  0  0  0  0
    5.8144   -1.9860   21.7325 H   0  0  0  0  0  0  0  0  0  0  0  0
    6.8201   -2.4688   20.3660 H   0  0  0  0  0  0  0  0  0  0  0  0
    8.8415   -2.1835   21.5729 H   0  0  0  0  0  0  0  0  0  0  0  0
    8.5597   -3.0365   23.9131 H   0  0  0  0  0  0  0  0  0  0  0  0
    6.8023   -2.8785   23.7566 H   0  0  0  0  0  0  0  0  0  0  0  0
    7.6829   -4.0165   22.7351 H   0  0  0  0  0  0  0  0  0  0  0  0
  1  2  1  0
  2  3  1  0
  3  4  1  0
  4  5  1  0
  5  6  2  0
  6  7  1  0
  7  8  2  0
  8  9  1  0
  9 10  2  0
 10 11  1  0
 11 12  2  0
 12 13  1  0
 13 14  2  0
 13 15  1  0
 12 16  1  0
 11 17  1  0
 10 18  1  0
  8 19  1  0
  6 20  1  0
  4 21  1  0
 21 22  2  0
 21 23  1  0
 23 24  1  1
 24 25  1  0
 25 26  1  0
 26 27  1  0
 27 28  2  0
 27 29  1  0
 29 30  1  0
 30 31  1  0
 31 32  2  0
 32 33  1  0
 33 34  2  0
 34 35  1  0
 35 36  1  0
 36 37  1  0
 36 38  1  0
 36 39  1  0
 33 40  1  0
 32 41  1  0
 30 42  1  0
 30 43  1  0
 29 44  1  0
 26 45  1  0
 26 46  1  0
 25 47  1  0
 47 48  2  0
 47 49  1  0
 49 50  2  0
 50 51  1  0
 51 52  2  0
 52 53  1  0
 53 54  2  0
 53 55  1  0
 52 56  1  0
 51 57  1  0
 50 58  1  0
 24 59  1  0
 24 60  1  0
  3 61  1  0
  3 62  1  0
  2 63  1  6
  1 64  1  0
  1 65  1  0
  1 66  1  0
 23  2  1  0
 35 31  1  0
 54 49  1  0
 14  5  1  0
 54 23  1  0
 14  9  1  0
M  END
>  <cnnaffinities>  (9) 
[6.47397, 6.49117, 6.55819]

>  <score>  (9) 
6.47397

>  <index>  (9) 
8

>  <Smiles>  (9) 
C([C@]1(C(N(c2c(nc(c3c(c(c(c(c23)[H])[H])[H])[H])[H])[H])C(=O)[C@]21C(N(C(C(=O)N(C(c1c(c(nn1C([H])([H])[H])[H])[H])([H])[H])[H])([H])[H])C(=O)c1c(c(c(c(c21)[H])[H])[H])[H])([H])[H])([H])[H])[H])([H])([H])[H]

>  <h>  (9) 
<NA>

>  <Training>  (9) 
True

>  <Success>  (9) 
True

>  <enamine_searched>  (9) 
False

>  <enamine_id>  (9) 
nan

$$$$

     RDKit          3D

 58 63  0  0  0  0  0  0  0  0999 V2000
    9.0951   -8.1610   24.7181 C   0  0  0  0  0  0  0  0  0  0  0  0
    7.8334   -7.4255   24.4633 C   0  0  0  0  0  0  0  0  0  0  0  0
    7.7195   -6.1795   23.7961 C   0  0  0  0  0  0  0  0  0  0  0  0
    6.3767   -5.9824   23.7207 C   0  0  0  0  0  0  0  0  0  0  0  0
    5.5818   -4.8074   23.2462 C   0  0  0  0  0  0  0  0  0  0  0  0
    6.1447   -3.5602   23.7273 N   0  0  0  0  0  0  0  0  0  0  0  0
    7.3967   -3.1002   23.1577 C   0  0  0  0  0  0  0  0  0  0  0  0
    7.3195   -1.5935   22.8657 C   0  0  2  0  0  0  0  0  0  0  0  0
    6.3265   -1.3910   21.7044 C   0  0  0  0  0  0  0  0  0  0  0  0
    5.2466   -1.9302   21.5534 O   0  0  0  0  0  0  0  0  0  0  0  0
    6.8677   -0.4897   20.8249 N   0  0  0  0  0  0  0  0  0  0  0  0
    6.1114    0.0613   19.7662 C   0  0  0  0  0  0  0  0  0  0  0  0
    6.4585   -0.2163   18.4690 C   0  0  0  0  0  0  0  0  0  0  0  0
    5.7950    0.2419   17.3802 N   0  0  0  0  0  0  0  0  0  0  0  0
    4.7623    1.0214   17.5965 C   0  0  0  0  0  0  0  0  0  0  0  0
    4.3092    1.4062   18.8906 C   0  0  0  0  0  0  0  0  0  0  0  0
    3.1940    2.2683   19.0547 C   0  0  0  0  0  0  0  0  0  0  0  0
    2.7930    2.6503   20.3035 C   0  0  0  0  0  0  0  0  0  0  0  0
    3.4916    2.1933   21.4458 C   0  0  0  0  0  0  0  0  0  0  0  0
    4.5720    1.3554   21.3187 C   0  0  0  0  0  0  0  0  0  0  0  0
    5.0002    0.9261   20.0252 C   0  0  0  0  0  0  0  0  0  0  0  0
    5.1040    1.0192   22.2104 H   0  0  0  0  0  0  0  0  0  0  0  0
    3.1685    2.5156   22.4315 H   0  0  0  0  0  0  0  0  0  0  0  0
    1.9423    3.3155   20.4268 H   0  0  0  0  0  0  0  0  0  0  0  0
    2.6852    2.6257   18.1628 H   0  0  0  0  0  0  0  0  0  0  0  0
    4.2250    1.3920   16.7228 H   0  0  0  0  0  0  0  0  0  0  0  0
    7.3096   -0.8674   18.2719 H   0  0  0  0  0  0  0  0  0  0  0  0
    8.2100   -0.0651   21.1497 C   0  0  0  0  0  0  0  0  0  0  0  0
    8.6460   -0.9808   22.3123 C   0  0  2  0  0  0  0  0  0  0  0  0
    9.7084   -1.9817   21.8329 C   0  0  0  0  0  0  0  0  0  0  0  0
   10.0644   -2.6173   22.6482 H   0  0  0  0  0  0  0  0  0  0  0  0
   10.5772   -1.4402   21.4419 H   0  0  0  0  0  0  0  0  0  0  0  0
    9.3325   -2.6258   21.0308 H   0  0  0  0  0  0  0  0  0  0  0  0
    9.1197   -0.3928   23.1060 H   0  0  0  0  0  0  0  0  0  0  0  0
    8.8643   -0.1923   20.2880 H   0  0  0  0  0  0  0  0  0  0  0  0
    8.2337    0.9991   21.4197 H   0  0  0  0  0  0  0  0  0  0  0  0
    6.8180   -0.8923   24.1322 C   0  0  0  0  0  0  0  0  0  0  0  0
    7.0284    0.4791   24.3341 C   0  0  0  0  0  0  0  0  0  0  0  0
    6.5444    1.0840   25.4796 C   0  0  0  0  0  0  0  0  0  0  0  0
    6.7566    2.3996   25.6622 F   0  0  0  0  0  0  0  0  0  0  0  0
    5.8508    0.3896   26.4627 C   0  0  0  0  0  0  0  0  0  0  0  0
    5.6209   -0.9550   26.2596 C   0  0  0  0  0  0  0  0  0  0  0  0
    6.0751   -1.5822   25.1001 C   0  0  0  0  0  0  0  0  0  0  0  0
    5.6581   -3.0021   24.8782 C   0  0  0  0  0  0  0  0  0  0  0  0
    4.8942   -3.5868   25.6346 O   0  0  0  0  0  0  0  0  0  0  0  0
    5.0667   -1.5534   26.9756 H   0  0  0  0  0  0  0  0  0  0  0  0
    5.4890    0.9066   27.3423 H   0  0  0  0  0  0  0  0  0  0  0  0
    7.5743    1.0953   23.6274 H   0  0  0  0  0  0  0  0  0  0  0  0
    7.5674   -3.6613   22.2354 H   0  0  0  0  0  0  0  0  0  0  0  0
    8.2327   -3.2910   23.8501 H   0  0  0  0  0  0  0  0  0  0  0  0
    4.5609   -4.8743   23.6172 H   0  0  0  0  0  0  0  0  0  0  0  0
    5.5327   -4.7400   22.1475 H   0  0  0  0  0  0  0  0  0  0  0  0
    5.7332   -7.0218   24.2815 O   0  0  0  0  0  0  0  0  0  0  0  0
    6.6598   -7.9442   24.7386 N   0  0  0  0  0  0  0  0  0  0  0  0
    8.5246   -5.5368   23.4618 H   0  0  0  0  0  0  0  0  0  0  0  0
    9.2967   -8.4238   25.7529 H   0  0  0  0  0  0  0  0  0  0  0  0
    9.9621   -7.5821   24.4113 H   0  0  0  0  0  0  0  0  0  0  0  0
    9.0421   -9.0743   24.1258 H   0  0  0  0  0  0  0  0  0  0  0  0
  1  2  1  0
  2  3  1  0
  3  4  2  0
  4  5  1  0
  5  6  1  0
  6  7  1  0
  8  7  1  1
  8  9  1  0
  9 10  2  0
  9 11  1  0
 11 12  1  0
 12 13  2  0
 13 14  1  0
 14 15  2  0
 15 16  1  0
 16 17  2  0
 17 18  1  0
 18 19  2  0
 19 20  1  0
 20 21  2  0
 20 22  1  0
 19 23  1  0
 18 24  1  0
 17 25  1  0
 15 26  1  0
 13 27  1  0
 11 28  1  0
 28 29  1  0
 29 30  1  0
 30 31  1  0
 30 32  1  0
 30 33  1  0
 29 34  1  1
 28 35  1  0
 28 36  1  0
  8 37  1  0
 37 38  2  0
 38 39  1  0
 39 40  1  0
 39 41  2  0
 41 42  1  0
 42 43  2  0
 43 44  1  0
 44 45  2  0
 42 46  1  0
 41 47  1  0
 38 48  1  0
  7 49  1  0
  7 50  1  0
  5 51  1  0
  5 52  1  0
  4 53  1  0
 53 54  1  0
  3 55  1  0
  1 56  1  0
  1 57  1  0
  1 58  1  0
 54  2  2  0
 44  6  1  0
 29  8  1  0
 43 37  1  0
 21 12  1  0
 21 16  1  0
M  END
>  <cnnaffinities>  (10) 
[6.31559]

>  <score>  (10) 
6.31559

>  <index>  (10) 
9

>  <Smiles>  (10) 
C(c1c(c(C(N2C([C@@]3(C(=O)N(c4c(nc(c5c(c(c(c(c45)[H])[H])[H])[H])[H])[H])C([C@@]3(C([H])([H])[H])[H])([H])[H])c3c(c(F)c(c(c3C2=O)[H])[H])[H])([H])[H])([H])[H])on1)[H])([H])([H])[H]

>  <h>  (10) 
<NA>

>  <Training>  (10) 
True

>  <Success>  (10) 
True

>  <enamine_searched>  (10) 
False

>  <enamine_id>  (10) 
nan

$$$$

     RDKit          3D

 72 77  0  0  0  0  0  0  0  0999 V2000
    8.7889    0.9124   31.2467 C   0  0  0  0  0  0  0  0  0  0  0  0
    8.1209    1.4897   30.0158 C   0  0  1  0  0  0  0  0  0  0  0  0
    7.8321    0.4149   28.9745 C   0  0  0  0  0  0  0  0  0  0  0  0
    7.1932    0.9902   27.7317 N   0  0  0  0  0  4  0  0  0  0  0  0
    6.3219   -0.0010   27.0143 C   0  0  0  0  0  0  0  0  0  0  0  0
    7.1260   -1.1128   26.3508 C   0  0  0  0  0  0  0  0  0  0  0  0
    8.0273   -0.6238   25.3194 N   0  0  0  0  0  0  0  0  0  0  0  0
    7.4467   -0.1097   24.0958 C   0  0  0  0  0  0  0  0  0  0  0  0
    8.2471   -0.4638   22.8129 C   0  0  2  0  0  0  0  0  0  0  0  0
    7.6572    0.4000   21.6862 C   0  0  0  0  0  0  0  0  0  0  0  0
    7.7442    1.6040   21.5571 O   0  0  0  0  0  0  0  0  0  0  0  0
    6.9291   -0.4041   20.8384 N   0  0  0  0  0  0  0  0  0  0  0  0
    6.1458    0.1134   19.7770 C   0  0  0  0  0  0  0  0  0  0  0  0
    6.4468   -0.2283   18.4793 C   0  0  0  0  0  0  0  0  0  0  0  0
    5.7792    0.2209   17.3889 N   0  0  0  0  0  0  0  0  0  0  0  0
    4.7591    1.0201   17.5991 C   0  0  0  0  0  0  0  0  0  0  0  0
    4.3103    1.4161   18.8927 C   0  0  0  0  0  0  0  0  0  0  0  0
    3.1814    2.2636   19.0540 C   0  0  0  0  0  0  0  0  0  0  0  0
    2.7427    2.6044   20.3063 C   0  0  0  0  0  0  0  0  0  0  0  0
    3.4111    2.1116   21.4476 C   0  0  0  0  0  0  0  0  0  0  0  0
    4.5088    1.2986   21.3175 C   0  0  0  0  0  0  0  0  0  0  0  0
    5.0040    0.9441   20.0266 C   0  0  0  0  0  0  0  0  0  0  0  0
    5.0114    0.9292   22.2054 H   0  0  0  0  0  0  0  0  0  0  0  0
    3.0609    2.3875   22.4393 H   0  0  0  0  0  0  0  0  0  0  0  0
    1.8853    3.2619   20.4275 H   0  0  0  0  0  0  0  0  0  0  0  0
    2.6841    2.6336   18.1624 H   0  0  0  0  0  0  0  0  0  0  0  0
    4.2238    1.3858   16.7226 H   0  0  0  0  0  0  0  0  0  0  0  0
    7.2928   -0.8858   18.2773 H   0  0  0  0  0  0  0  0  0  0  0  0
    6.8914   -1.7961   21.2296 C   0  0  0  0  0  0  0  0  0  0  0  0
    8.0152   -1.9211   22.2704 C   0  0  2  0  0  0  0  0  0  0  0  0
    7.7473   -3.0159   23.3013 C   0  0  0  0  0  0  0  0  0  0  0  0
    8.5400   -3.0669   24.0518 H   0  0  0  0  0  0  0  0  0  0  0  0
    6.7999   -2.8548   23.8273 H   0  0  0  0  0  0  0  0  0  0  0  0
    7.6793   -3.9978   22.8246 H   0  0  0  0  0  0  0  0  0  0  0  0
    8.9409   -2.1705   21.7352 H   0  0  0  0  0  0  0  0  0  0  0  0
    7.0419   -2.4285   20.3535 H   0  0  0  0  0  0  0  0  0  0  0  0
    5.9106   -2.0583   21.6517 H   0  0  0  0  0  0  0  0  0  0  0  0
    9.7134   -0.1650   23.0605 C   0  0  0  0  0  0  0  0  0  0  0  0
   10.6167    0.0528   22.0105 C   0  0  0  0  0  0  0  0  0  0  0  0
   11.9717    0.1811   22.3093 C   0  0  0  0  0  0  0  0  0  0  0  0
   13.2295    0.2050   21.1165 Cl  0  0  0  0  0  0  0  0  0  0  0  0
   12.4544    0.1875   23.6158 C   0  0  0  0  0  0  0  0  0  0  0  0
   11.5714   -0.0798   24.6281 C   0  0  0  0  0  0  0  0  0  0  0  0
   10.2255   -0.2652   24.3451 C   0  0  0  0  0  0  0  0  0  0  0  0
    9.3739   -0.6756   25.4856 C   0  0  0  0  0  0  0  0  0  0  0  0
    9.9162   -1.0150   26.5191 O   0  0  0  0  0  0  0  0  0  0  0  0
   11.8684   -0.2020   25.6571 H   0  0  0  0  0  0  0  0  0  0  0  0
   13.5089    0.3445   23.8153 H   0  0  0  0  0  0  0  0  0  0  0  0
   10.2411    0.1028   20.9947 H   0  0  0  0  0  0  0  0  0  0  0  0
    7.3857    0.9861   24.1423 H   0  0  0  0  0  0  0  0  0  0  0  0
    6.4272   -0.5025   24.0217 H   0  0  0  0  0  0  0  0  0  0  0  0
    6.4266   -1.8380   25.9132 H   0  0  0  0  0  0  0  0  0  0  0  0
    7.7220   -1.6395   27.0880 H   0  0  0  0  0  0  0  0  0  0  0  0
    5.6047   -0.4345   27.7207 H   0  0  0  0  0  0  0  0  0  0  0  0
    5.7511    0.5475   26.2565 H   0  0  0  0  0  0  0  0  0  0  0  0
    6.4562    2.2600   28.0703 C   0  0  0  0  0  0  0  0  0  0  0  0
    5.8940    2.2422   29.4891 C   0  0  2  0  0  0  0  0  0  0  0  0
    5.0924    3.4950   29.7914 C   0  0  0  0  0  0  0  0  0  0  0  0
    4.2470    3.5864   29.1015 H   0  0  0  0  0  0  0  0  0  0  0  0
    5.7211    4.3844   29.6879 H   0  0  0  0  0  0  0  0  0  0  0  0
    4.6996    3.4727   30.8107 H   0  0  0  0  0  0  0  0  0  0  0  0
    6.9369    2.1461   30.4473 O   0  0  0  0  0  0  0  0  0  0  0  0
    5.2369    1.3646   29.6007 H   0  0  0  0  0  0  0  0  0  0  0  0
    5.6428    2.3847   27.3532 H   0  0  0  0  0  0  0  0  0  0  0  0
    7.1372    3.1090   27.9642 H   0  0  0  0  0  0  0  0  0  0  0  0
    7.9513    1.2181   27.0643 H   0  0  0  0  0  0  0  0  0  0  0  0
    8.7563   -0.0872   28.6887 H   0  0  0  0  0  0  0  0  0  0  0  0
    7.1583   -0.3333   29.4054 H   0  0  0  0  0  0  0  0  0  0  0  0
    8.7894    2.2376   29.5640 H   0  0  0  0  0  0  0  0  0  0  0  0
    8.9920    1.6924   31.9838 H   0  0  0  0  0  0  0  0  0  0  0  0
    9.7366    0.4392   30.9803 H   0  0  0  0  0  0  0  0  0  0  0  0
    8.1420    0.1625   31.7116 H   0  0  0  0  0  0  0  0  0  0  0  0
  1  2  1  0
  2  3  1  0
  3  4  1  0
  4  5  1  0
  5  6  1  0
  6  7  1  0
  7  8  1  0
  9  8  1  1
  9 10  1  0
 10 11  2  0
 10 12  1  0
 12 13  1  0
 13 14  2  0
 14 15  1  0
 15 16  2  0
 16 17  1  0
 17 18  2  0
 18 19  1  0
 19 20  2  0
 20 21  1  0
 21 22  2  0
 21 23  1  0
 20 24  1  0
 19 25  1  0
 18 26  1  0
 16 27  1  0
 14 28  1  0
 12 29  1  0
 29 30  1  0
 30 31  1  0
 31 32  1  0
 31 33  1  0
 31 34  1  0
 30 35  1  6
 29 36  1  0
 29 37  1  0
  9 38  1  0
 38 39  2  0
 39 40  1  0
 40 41  1  0
 40 42  2  0
 42 43  1  0
 43 44  2  0
 44 45  1  0
 45 46  2  0
 43 47  1  0
 42 48  1  0
 39 49  1  0
  8 50  1  0
  8 51  1  0
  6 52  1  0
  6 53  1  0
  5 54  1  0
  5 55  1  0
  4 56  1  0
 56 57  1  0
 57 58  1  0
 58 59  1  0
 58 60  1  0
 58 61  1  0
 57 62  1  0
 57 63  1  6
 56 64  1  0
 56 65  1  0
  4 66  1  0
  3 67  1  0
  3 68  1  0
  2 69  1  6
  1 70  1  0
  1 71  1  0
  1 72  1  0
 62  2  1  0
 45  7  1  0
 30  9  1  0
 44 38  1  0
 22 13  1  0
 22 17  1  0
M  CHG  1   4   1
M  END
>  <cnnaffinities>  (11) 
[6.50682, 6.38506, 6.35614]

>  <score>  (11) 
6.50682

>  <index>  (11) 
10

>  <Smiles>  (11) 
C([C@]1(C([N+](C(C(N2C([C@@]3(C(=O)N(c4c(nc(c5c(c(c(c(c45)[H])[H])[H])[H])[H])[H])C([C@@]3(C([H])([H])[H])[H])([H])[H])c3c(c(Cl)c(c(c3C2=O)[H])[H])[H])([H])[H])([H])[H])([H])[H])(C([C@](C([H])([H])[H])(O1)[H])([H])[H])[H])([H])[H])[H])([H])([H])[H]

>  <h>  (11) 
<NA>

>  <Training>  (11) 
True

>  <Success>  (11) 
True

>  <enamine_searched>  (11) 
False

>  <enamine_id>  (11) 
nan

$$$$

     RDKit          3D

 54 57  0  0  0  0  0  0  0  0999 V2000
    5.1137    1.8102   25.1050 C   0  0  0  0  0  0  0  0  0  0  0  0
    6.2295    1.6514   24.2706 O   0  0  0  0  0  0  0  0  0  0  0  0
    6.4998    2.7112   23.4598 C   0  0  0  0  0  0  0  0  0  0  0  0
    5.6732    3.8344   23.3789 C   0  0  0  0  0  0  0  0  0  0  0  0
    6.0569    4.9406   22.6294 C   0  0  0  0  0  0  0  0  0  0  0  0
    7.2373    4.8983   21.9042 C   0  0  0  0  0  0  0  0  0  0  0  0
    8.0428    3.7599   21.9713 C   0  0  0  0  0  0  0  0  0  0  0  0
    7.6901    2.6522   22.7320 C   0  0  0  0  0  0  0  0  0  0  0  0
    8.5512    1.4039   22.8587 C   0  0  2  0  0  0  0  0  0  0  0  0
   10.0257    1.6263   22.5254 C   0  0  0  0  0  0  0  0  0  0  0  0
   10.8411    0.4167   22.9970 C   0  0  2  0  0  0  0  0  0  0  0  0
   12.3298    0.5645   22.6720 C   0  0  0  0  0  0  0  0  0  0  0  0
   12.7100    1.5401   22.9874 H   0  0  0  0  0  0  0  0  0  0  0  0
   12.9247   -0.1957   23.1841 H   0  0  0  0  0  0  0  0  0  0  0  0
   12.5325    0.4736   21.5976 H   0  0  0  0  0  0  0  0  0  0  0  0
   10.2596   -0.9058   22.4500 C   0  0  0  0  0  0  0  0  0  0  0  0
    8.7381   -1.0072   22.6727 C   0  0  0  0  0  0  0  0  0  0  0  0
    8.0335    0.1887   22.2023 N   0  0  0  0  0  0  0  0  0  0  0  0
    7.6958    0.2488   20.8542 C   0  0  0  0  0  0  0  0  0  0  0  0
    8.0901    1.1134   20.1001 O   0  0  0  0  0  0  0  0  0  0  0  0
    6.7318   -0.8506   20.3823 C   0  0  0  0  0  0  0  0  0  0  0  0
    5.8622   -0.2489   19.3234 C   0  0  0  0  0  0  0  0  0  0  0  0
    6.1492   -0.4304   17.9961 C   0  0  0  0  0  0  0  0  0  0  0  0
    5.5174    0.2033   16.9737 N   0  0  0  0  0  0  0  0  0  0  0  0
    4.5761    1.0607   17.2976 C   0  0  0  0  0  0  0  0  0  0  0  0
    4.1767    1.3452   18.6339 C   0  0  0  0  0  0  0  0  0  0  0  0
    3.1469    2.2690   18.9413 C   0  0  0  0  0  0  0  0  0  0  0  0
    2.8668    2.5962   20.2402 C   0  0  0  0  0  0  0  0  0  0  0  0
    3.6100    2.0154   21.2922 C   0  0  0  0  0  0  0  0  0  0  0  0
    4.5917    1.0935   21.0280 C   0  0  0  0  0  0  0  0  0  0  0  0
    4.8784    0.7155   19.6853 C   0  0  0  0  0  0  0  0  0  0  0  0
    5.1674    0.6670   21.8446 H   0  0  0  0  0  0  0  0  0  0  0  0
    3.4116    2.3178   22.3177 H   0  0  0  0  0  0  0  0  0  0  0  0
    2.0803    3.3085   20.4672 H   0  0  0  0  0  0  0  0  0  0  0  0
    2.6033    2.7290   18.1228 H   0  0  0  0  0  0  0  0  0  0  0  0
    4.0811    1.5848   16.4783 H   0  0  0  0  0  0  0  0  0  0  0  0
    6.9533   -1.1087   17.7000 H   0  0  0  0  0  0  0  0  0  0  0  0
    6.1507   -1.2187   21.2379 H   0  0  0  0  0  0  0  0  0  0  0  0
    7.3138   -1.6954   19.9854 H   0  0  0  0  0  0  0  0  0  0  0  0
    8.3192   -1.8838   22.1647 H   0  0  0  0  0  0  0  0  0  0  0  0
    8.5258   -1.1155   23.7414 H   0  0  0  0  0  0  0  0  0  0  0  0
   10.4520   -0.9866   21.3678 H   0  0  0  0  0  0  0  0  0  0  0  0
   10.7555   -1.7512   22.9518 H   0  0  0  0  0  0  0  0  0  0  0  0
   10.7179    0.4027   24.0964 H   0  0  0  0  0  0  0  0  0  0  0  0
   10.3793    2.5380   23.0276 H   0  0  0  0  0  0  0  0  0  0  0  0
   10.1063    1.8136   21.4592 H   0  0  0  0  0  0  0  0  0  0  0  0
    8.5154    1.0981   23.9067 H   0  0  0  0  0  0  0  0  0  0  0  0
    8.9950    3.7345   21.4453 H   0  0  0  0  0  0  0  0  0  0  0  0
    7.5522    5.7601   21.3274 H   0  0  0  0  0  0  0  0  0  0  0  0
    5.4226    5.8278   22.6158 H   0  0  0  0  0  0  0  0  0  0  0  0
    4.7525    3.8821   23.9417 H   0  0  0  0  0  0  0  0  0  0  0  0
    5.1972    2.7281   25.7007 H   0  0  0  0  0  0  0  0  0  0  0  0
    5.0965    0.9499   25.7672 H   0  0  0  0  0  0  0  0  0  0  0  0
    4.1900    1.8474   24.5130 H   0  0  0  0  0  0  0  0  0  0  0  0
  1  2  1  0
  2  3  1  0
  3  4  2  0
  4  5  1  0
  5  6  2  0
  6  7  1  0
  7  8  2  0
  8  9  1  0
  9 10  1  0
 10 11  1  0
 11 12  1  0
 12 13  1  0
 12 14  1  0
 12 15  1  0
 11 16  1  0
 16 17  1  0
 17 18  1  0
 18 19  1  0
 19 20  2  0
 19 21  1  0
 21 22  1  0
 22 23  2  0
 23 24  1  0
 24 25  2  0
 25 26  1  0
 26 27  2  0
 27 28  1  0
 28 29  2  0
 29 30  1  0
 30 31  2  0
 30 32  1  0
 29 33  1  0
 28 34  1  0
 27 35  1  0
 25 36  1  0
 23 37  1  0
 21 38  1  0
 21 39  1  0
 17 40  1  0
 17 41  1  0
 16 42  1  0
 16 43  1  0
 11 44  1  1
 10 45  1  0
 10 46  1  0
  9 47  1  1
  7 48  1  0
  6 49  1  0
  5 50  1  0
  4 51  1  0
  1 52  1  0
  1 53  1  0
  1 54  1  0
  8  3  1  0
 18  9  1  0
 31 22  1  0
 31 26  1  0
M  END
>  <cnnaffinities>  (12) 
[6.04296]

>  <score>  (12) 
6.04296

>  <index>  (12) 
11

>  <Smiles>  (12) 
C(Oc1c(c(c(c(c1[C@@]1(C([C@](C([H])([H])[H])(C(C(N1C(=O)C(c1c(nc(c2c(c(c(c(c12)[H])[H])[H])[H])[H])[H])([H])[H])([H])[H])([H])[H])[H])([H])[H])[H])[H])[H])[H])[H])([H])([H])[H]

>  <h>  (12) 
<NA>

>  <Training>  (12) 
True

>  <Success>  (12) 
True

>  <enamine_searched>  (12) 
False

>  <enamine_id>  (12) 
nan

$$$$

     RDKit          3D

 47 50  0  0  0  0  0  0  0  0999 V2000
    5.5057   -2.4339   20.9493 O   0  0  0  0  0  0  0  0  0  0  0  0
    6.1758   -1.6579   21.6117 C   0  0  0  0  0  0  0  0  0  0  0  0
    6.9094   -0.4870   20.9197 C   0  0  0  0  0  0  0  0  0  0  0  0
    6.1145    0.0880   19.7697 C   0  0  0  0  0  0  0  0  0  0  0  0
    6.4208   -0.2148   18.4648 C   0  0  0  0  0  0  0  0  0  0  0  0
    5.7589    0.2375   17.3642 N   0  0  0  0  0  0  0  0  0  0  0  0
    4.7357    1.0320   17.5739 C   0  0  0  0  0  0  0  0  0  0  0  0
    4.2871    1.4232   18.8683 C   0  0  0  0  0  0  0  0  0  0  0  0
    3.1647    2.2753   19.0429 C   0  0  0  0  0  0  0  0  0  0  0  0
    2.7496    2.6275   20.3004 C   0  0  0  0  0  0  0  0  0  0  0  0
    3.4406    2.1391   21.4317 C   0  0  0  0  0  0  0  0  0  0  0  0
    4.5310    1.3151   21.2888 C   0  0  0  0  0  0  0  0  0  0  0  0
    4.9887    0.9384   19.9963 C   0  0  0  0  0  0  0  0  0  0  0  0
    5.0467    0.9515   22.1725 H   0  0  0  0  0  0  0  0  0  0  0  0
    3.1064    2.4248   22.4234 H   0  0  0  0  0  0  0  0  0  0  0  0
    1.8931    3.2816   20.4365 H   0  0  0  0  0  0  0  0  0  0  0  0
    2.6450    2.6457   18.1627 H   0  0  0  0  0  0  0  0  0  0  0  0
    4.1992    1.4001   16.6985 H   0  0  0  0  0  0  0  0  0  0  0  0
    7.2653   -0.8666   18.2472 H   0  0  0  0  0  0  0  0  0  0  0  0
    7.8454   -0.8942   20.5170 H   0  0  0  0  0  0  0  0  0  0  0  0
    7.2004    0.3079   21.6173 H   0  0  0  0  0  0  0  0  0  0  0  0
    6.2957   -1.8038   22.9634 N   0  0  0  0  0  0  0  0  0  0  0  0
    7.0451   -0.9653   23.8876 C   0  0  0  0  0  0  0  0  0  0  0  0
    6.7076   -1.5187   25.2759 C   0  0  2  0  0  0  0  0  0  0  0  0
    7.7445   -1.1900   26.3315 C   0  0  0  0  0  0  0  0  0  0  0  0
    9.0156   -1.5945   25.9350 F   0  0  0  0  0  0  0  0  0  0  0  0
    7.8117   -0.1097   26.5149 H   0  0  0  0  0  0  0  0  0  0  0  0
    7.5251   -1.6725   27.2913 H   0  0  0  0  0  0  0  0  0  0  0  0
    6.3221   -3.0038   25.0460 C   0  0  0  0  0  0  0  0  0  0  0  0
    7.5123   -3.9864   25.0851 C   0  0  0  0  0  0  0  0  0  0  0  0
    7.6341   -4.5071   26.5281 C   0  0  0  0  0  0  0  0  0  0  0  0
    6.2623   -4.2789   27.1889 C   0  0  0  0  0  0  0  0  0  0  0  0
    5.3892   -3.5667   26.1372 C   0  0  0  0  0  0  0  0  0  0  0  0
    4.7662   -2.7869   26.5867 H   0  0  0  0  0  0  0  0  0  0  0  0
    4.6956   -4.2824   25.6841 H   0  0  0  0  0  0  0  0  0  0  0  0
    5.7974   -5.2220   27.4946 H   0  0  0  0  0  0  0  0  0  0  0  0
    6.3626   -3.6779   28.0977 H   0  0  0  0  0  0  0  0  0  0  0  0
    7.9113   -5.5646   26.5343 H   0  0  0  0  0  0  0  0  0  0  0  0
    8.4221   -3.9770   27.0674 H   0  0  0  0  0  0  0  0  0  0  0  0
    7.2903   -4.8308   24.4232 H   0  0  0  0  0  0  0  0  0  0  0  0
    8.4373   -3.5362   24.7242 H   0  0  0  0  0  0  0  0  0  0  0  0
    5.6657   -2.9291   23.6512 C   0  0  0  0  0  0  0  0  0  0  0  0
    4.5823   -2.7842   23.7384 H   0  0  0  0  0  0  0  0  0  0  0  0
    5.8106   -3.8530   23.0911 H   0  0  0  0  0  0  0  0  0  0  0  0
    5.7974   -1.0170   25.6270 H   0  0  0  0  0  0  0  0  0  0  0  0
    6.7399    0.0829   23.8207 H   0  0  0  0  0  0  0  0  0  0  0  0
    8.1208   -1.0154   23.6993 H   0  0  0  0  0  0  0  0  0  0  0  0
  1  2  2  0
  2  3  1  0
  3  4  1  0
  4  5  2  0
  5  6  1  0
  6  7  2  0
  7  8  1  0
  8  9  2  0
  9 10  1  0
 10 11  2  0
 11 12  1  0
 12 13  2  0
 12 14  1  0
 11 15  1  0
 10 16  1  0
  9 17  1  0
  7 18  1  0
  5 19  1  0
  3 20  1  0
  3 21  1  0
  2 22  1  0
 22 23  1  0
 23 24  1  0
 24 25  1  0
 25 26  1  0
 25 27  1  0
 25 28  1  0
 24 29  1  0
 29 30  1  0
 30 31  1  0
 31 32  1  0
 32 33  1  0
 33 34  1  0
 33 35  1  0
 32 36  1  0
 32 37  1  0
 31 38  1  0
 31 39  1  0
 30 40  1  0
 30 41  1  0
 29 42  1  0
 42 43  1  0
 42 44  1  0
 24 45  1  1
 23 46  1  0
 23 47  1  0
 13  4  1  0
 42 22  1  0
 13  8  1  0
 33 29  1  0
M  END
>  <cnnaffinities>  (13) 
[5.54163, 5.53074, 5.5874, 5.56163, 5.56295, 5.56235, 5.65659, 5.65663, 5.57809, 5.57808, 5.58188, 5.58176, 5.52591, 5.52602]

>  <score>  (13) 
5.54163

>  <index>  (13) 
12

>  <Smiles>  (13) 
O=C(C(c1c(nc(c2c(c(c(c(c12)[H])[H])[H])[H])[H])[H])([H])[H])N1C([C@](C(F)([H])[H])(C2(C(C(C(C2([H])[H])([H])[H])([H])[H])([H])[H])C1([H])[H])[H])([H])[H]

>  <h>  (13) 
<NA>

>  <Training>  (13) 
True

>  <Success>  (13) 
True

>  <enamine_searched>  (13) 
False

>  <enamine_id>  (13) 
nan

$$$$

     RDKit          3D

 67 72  0  0  0  0  0  0  0  0999 V2000
    7.4245   -8.4776   23.0562 C   0  0  0  0  0  0  0  0  0  0  0  0
    6.5790   -7.3801   22.6351 N   0  0  0  0  0  0  0  0  0  0  0  0
    6.9218   -6.5543   21.6113 C   0  0  0  0  0  0  0  0  0  0  0  0
    7.7835   -6.7969   20.7893 O   0  0  0  0  0  0  0  0  0  0  0  0
    6.1406   -5.2312   21.5949 C   0  0  0  0  0  0  0  0  0  0  0  0
    6.6651   -4.3000   22.5806 N   0  0  0  0  0  0  0  0  0  0  0  0
    7.7688   -3.4023   22.2704 C   0  0  0  0  0  0  0  0  0  0  0  0
    7.4142   -1.9438   22.6505 C   0  0  2  0  0  0  0  0  0  0  0  0
    6.3160   -1.4476   21.6765 C   0  0  0  0  0  0  0  0  0  0  0  0
    5.1785   -1.8647   21.5863 O   0  0  0  0  0  0  0  0  0  0  0  0
    6.8457   -0.4680   20.8610 N   0  0  0  0  0  0  0  0  0  0  0  0
    6.1135    0.0758   19.7844 C   0  0  0  0  0  0  0  0  0  0  0  0
    6.4673   -0.2118   18.4903 C   0  0  0  0  0  0  0  0  0  0  0  0
    5.8093    0.2360   17.3935 N   0  0  0  0  0  0  0  0  0  0  0  0
    4.7751    1.0174   17.5956 C   0  0  0  0  0  0  0  0  0  0  0  0
    4.3160    1.4116   18.8842 C   0  0  0  0  0  0  0  0  0  0  0  0
    3.1957    2.2685   19.0383 C   0  0  0  0  0  0  0  0  0  0  0  0
    2.7867    2.6535   20.2854 C   0  0  0  0  0  0  0  0  0  0  0  0
    3.4793    2.2066   21.4330 C   0  0  0  0  0  0  0  0  0  0  0  0
    4.5654    1.3760   21.3108 C   0  0  0  0  0  0  0  0  0  0  0  0
    5.0020    0.9441   20.0244 C   0  0  0  0  0  0  0  0  0  0  0  0
    5.0969    1.0385   22.1955 H   0  0  0  0  0  0  0  0  0  0  0  0
    3.1505    2.5298   22.4171 H   0  0  0  0  0  0  0  0  0  0  0  0
    1.9333    3.3155   20.4017 H   0  0  0  0  0  0  0  0  0  0  0  0
    2.6894    2.6205   18.1435 H   0  0  0  0  0  0  0  0  0  0  0  0
    4.2407    1.3782   16.7163 H   0  0  0  0  0  0  0  0  0  0  0  0
    7.3137   -0.8693   18.2959 H   0  0  0  0  0  0  0  0  0  0  0  0
    8.2873   -0.3747   20.9620 C   0  0  0  0  0  0  0  0  0  0  0  0
    8.5728   -0.9452   22.3556 C   0  0  2  0  0  0  0  0  0  0  0  0
    9.9956   -1.4671   22.4568 C   0  0  0  0  0  0  0  0  0  0  0  0
   10.2102   -1.9672   23.7587 O   0  0  0  0  0  0  0  0  0  0  0  0
   11.5261   -2.4397   23.9767 C   0  0  0  0  0  0  0  0  0  0  0  0
   12.4837   -1.3594   24.4254 C   0  0  0  0  0  0  0  0  0  0  0  0
   13.2145   -0.5387   23.4001 C   0  0  0  0  0  0  0  0  0  0  0  0
   13.9442   -1.5957   24.1876 C   0  0  0  0  0  0  0  0  0  0  0  0
   14.6628   -1.2892   24.9423 H   0  0  0  0  0  0  0  0  0  0  0  0
   14.2175   -2.5130   23.6724 H   0  0  0  0  0  0  0  0  0  0  0  0
   13.0033   -0.7333   22.3480 H   0  0  0  0  0  0  0  0  0  0  0  0
   13.4345    0.5017   23.6241 H   0  0  0  0  0  0  0  0  0  0  0  0
   12.2043   -0.8497   25.3457 H   0  0  0  0  0  0  0  0  0  0  0  0
   11.4553   -3.2154   24.7499 H   0  0  0  0  0  0  0  0  0  0  0  0
   11.9184   -2.9230   23.0639 H   0  0  0  0  0  0  0  0  0  0  0  0
   10.1601   -2.2568   21.7037 H   0  0  0  0  0  0  0  0  0  0  0  0
   10.7086   -0.6597   22.2284 H   0  0  0  0  0  0  0  0  0  0  0  0
    8.4819   -0.1278   23.0705 H   0  0  0  0  0  0  0  0  0  0  0  0
    8.6119    0.6661   20.8638 H   0  0  0  0  0  0  0  0  0  0  0  0
    8.7965   -0.9599   20.1794 H   0  0  0  0  0  0  0  0  0  0  0  0
    6.9245   -1.9708   24.0914 C   0  0  0  0  0  0  0  0  0  0  0  0
    6.8897   -0.8056   24.8672 C   0  0  0  0  0  0  0  0  0  0  0  0
    6.4247   -0.8463   26.1698 C   0  0  0  0  0  0  0  0  0  0  0  0
    6.3762    0.6316   27.0912 Cl  0  0  0  0  0  0  0  0  0  0  0  0
    5.9959   -2.0340   26.7636 C   0  0  0  0  0  0  0  0  0  0  0  0
    5.9910   -3.1798   25.9950 C   0  0  0  0  0  0  0  0  0  0  0  0
    6.4093   -3.1439   24.6673 C   0  0  0  0  0  0  0  0  0  0  0  0
    6.1850   -4.3642   23.8475 C   0  0  0  0  0  0  0  0  0  0  0  0
    5.5542   -5.3383   24.2681 O   0  0  0  0  0  0  0  0  0  0  0  0
    5.6408   -4.1230   26.3982 H   0  0  0  0  0  0  0  0  0  0  0  0
    5.6516   -2.0437   27.7929 H   0  0  0  0  0  0  0  0  0  0  0  0
    7.2102    0.1499   24.4667 H   0  0  0  0  0  0  0  0  0  0  0  0
    8.6810   -3.7012   22.8053 H   0  0  0  0  0  0  0  0  0  0  0  0
    7.9681   -3.4599   21.2069 H   0  0  0  0  0  0  0  0  0  0  0  0
    5.0860   -5.4225   21.8260 H   0  0  0  0  0  0  0  0  0  0  0  0
    6.2038   -4.7627   20.6078 H   0  0  0  0  0  0  0  0  0  0  0  0
    5.9985   -6.9562   23.3531 H   0  0  0  0  0  0  0  0  0  0  0  0
    6.9353   -8.9628   23.9006 H   0  0  0  0  0  0  0  0  0  0  0  0
    8.4232   -8.1556   23.3815 H   0  0  0  0  0  0  0  0  0  0  0  0
    7.5514   -9.2160   22.2622 H   0  0  0  0  0  0  0  0  0  0  0  0
  1  2  1  0
  2  3  1  0
  3  4  2  0
  3  5  1  0
  5  6  1  0
  6  7  1  0
  8  7  1  6
  8  9  1  0
  9 10  2  0
  9 11  1  0
 11 12  1  0
 12 13  2  0
 13 14  1  0
 14 15  2  0
 15 16  1  0
 16 17  2  0
 17 18  1  0
 18 19  2  0
 19 20  1  0
 20 21  2  0
 20 22  1  0
 19 23  1  0
 18 24  1  0
 17 25  1  0
 15 26  1  0
 13 27  1  0
 11 28  1  0
 28 29  1  0
 29 30  1  0
 30 31  1  0
 31 32  1  0
 32 33  1  0
 33 34  1  0
 34 35  1  0
 35 36  1  0
 35 37  1  0
 34 38  1  0
 34 39  1  0
 33 40  1  0
 32 41  1  0
 32 42  1  0
 30 43  1  0
 30 44  1  0
 29 45  1  1
 28 46  1  0
 28 47  1  0
  8 48  1  0
 48 49  2  0
 49 50  1  0
 50 51  1  0
 50 52  2  0
 52 53  1  0
 53 54  2  0
 54 55  1  0
 55 56  2  0
 53 57  1  0
 52 58  1  0
 49 59  1  0
  7 60  1  0
  7 61  1  0
  5 62  1  0
  5 63  1  0
  2 64  1  0
  1 65  1  0
  1 66  1  0
  1 67  1  0
 55  6  1  0
 29  8  1  0
 35 33  1  0
 54 48  1  0
 21 12  1  0
 21 16  1  0
M  END
>  <cnnaffinities>  (14) 
[7.16827, 7.25329]

>  <score>  (14) 
7.16827

>  <index>  (14) 
13

>  <Smiles>  (14) 
C(N(C(=O)C(N1C([C@@]2(C(=O)N(c3c(nc(c4c(c(c(c(c34)[H])[H])[H])[H])[H])[H])C([C@@]2(C(OC(C2(C(C2([H])[H])([H])[H])[H])([H])[H])([H])[H])[H])([H])[H])c2c(c(Cl)c(c(c2C1=O)[H])[H])[H])([H])[H])([H])[H])[H])([H])([H])[H]

>  <h>  (14) 
<NA>

>  <Training>  (14) 
True

>  <Success>  (14) 
True

>  <enamine_searched>  (14) 
False

>  <enamine_id>  (14) 
nan

$$$$

     RDKit          3D

 67 73  0  0  0  0  0  0  0  0999 V2000
    9.9353   -1.1397   22.5826 C   0  0  0  0  0  0  0  0  0  0  0  0
    8.5731   -0.5316   22.2597 C   0  0  1  0  0  0  0  0  0  0  0  0
    8.3462   -0.3119   20.7508 C   0  0  0  0  0  0  0  0  0  0  0  0
    6.8917   -0.2831   20.6398 N   0  0  0  0  0  0  0  0  0  0  0  0
    6.1670    0.2146   19.5445 C   0  0  0  0  0  0  0  0  0  0  0  0
    6.5213   -0.1011   18.2547 C   0  0  0  0  0  0  0  0  0  0  0  0
    5.8568    0.3260   17.1522 N   0  0  0  0  0  0  0  0  0  0  0  0
    4.8219    1.1106   17.3431 C   0  0  0  0  0  0  0  0  0  0  0  0
    4.3528    1.5173   18.6230 C   0  0  0  0  0  0  0  0  0  0  0  0
    3.2195    2.3597   18.7711 C   0  0  0  0  0  0  0  0  0  0  0  0
    2.7734    2.7189   20.0114 C   0  0  0  0  0  0  0  0  0  0  0  0
    3.4553    2.2703   21.1618 C   0  0  0  0  0  0  0  0  0  0  0  0
    4.5713    1.4859   21.0493 C   0  0  0  0  0  0  0  0  0  0  0  0
    5.0363    1.0687   19.7676 C   0  0  0  0  0  0  0  0  0  0  0  0
    5.0789    1.1658   21.9499 H   0  0  0  0  0  0  0  0  0  0  0  0
    3.0914    2.5339   22.1504 H   0  0  0  0  0  0  0  0  0  0  0  0
    1.9041    3.3616   20.1225 H   0  0  0  0  0  0  0  0  0  0  0  0
    2.7283    2.7115   17.8686 H   0  0  0  0  0  0  0  0  0  0  0  0
    4.2884    1.4582   16.4577 H   0  0  0  0  0  0  0  0  0  0  0  0
    7.3673   -0.7640   18.0659 H   0  0  0  0  0  0  0  0  0  0  0  0
    6.2741   -0.9583   21.6767 C   0  0  0  0  0  0  0  0  0  0  0  0
    5.0873   -1.1904   21.7373 O   0  0  0  0  0  0  0  0  0  0  0  0
    7.3581   -1.4045   22.6764 C   0  0  1  0  0  0  0  0  0  0  0  0
    7.6417   -2.8756   22.3655 C   0  0  0  0  0  0  0  0  0  0  0  0
    6.4207   -3.6210   22.5413 N   0  0  0  0  0  0  0  0  0  0  0  0
    6.2130   -4.7068   21.6017 C   0  0  0  0  0  0  0  0  0  0  0  0
    7.1990   -5.8265   21.8928 C   0  0  0  0  0  0  0  0  0  0  0  0
    6.7992   -6.4840   23.1700 N   0  0  2  0  0  4  0  0  0  0  0  0
    7.9221   -6.8501   24.1210 C   0  0  0  0  0  0  0  0  0  0  0  0
    7.8128   -8.3780   24.1993 C   0  0  2  0  0  0  0  0  0  0  0  0
    7.3368   -8.7807   22.8136 C   0  0  0  0  0  0  0  0  0  0  0  0
    6.1390   -7.8324   22.9163 C   0  0  1  0  0  0  0  0  0  0  0  0
    5.5323   -8.2768   24.2501 C   0  0  0  0  0  0  0  0  0  0  0  0
    6.6713   -8.7166   25.0026 O   0  0  0  0  0  0  0  0  0  0  0  0
    4.8140   -9.0989   24.1396 H   0  0  0  0  0  0  0  0  0  0  0  0
    5.0221   -7.4415   24.7582 H   0  0  0  0  0  0  0  0  0  0  0  0
    5.4607   -7.8020   22.0587 H   0  0  0  0  0  0  0  0  0  0  0  0
    7.0864   -9.8441   22.7759 H   0  0  0  0  0  0  0  0  0  0  0  0
    8.0104   -8.5133   22.0028 H   0  0  0  0  0  0  0  0  0  0  0  0
    8.7139   -8.8457   24.5851 H   0  0  0  0  0  0  0  0  0  0  0  0
    7.7646   -6.3838   25.0981 H   0  0  0  0  0  0  0  0  0  0  0  0
    8.8971   -6.5364   23.7322 H   0  0  0  0  0  0  0  0  0  0  0  0
    6.1087   -5.8690   23.6637 H   0  0  0  0  0  0  0  0  0  0  0  0
    7.2644   -6.5555   21.0802 H   0  0  0  0  0  0  0  0  0  0  0  0
    8.2007   -5.3908   22.0030 H   0  0  0  0  0  0  0  0  0  0  0  0
    5.1789   -5.0398   21.6926 H   0  0  0  0  0  0  0  0  0  0  0  0
    6.3476   -4.2980   20.5990 H   0  0  0  0  0  0  0  0  0  0  0  0
    5.8847   -3.6560   23.7868 C   0  0  0  0  0  0  0  0  0  0  0  0
    5.2083   -4.6152   24.1865 O   0  0  0  0  0  0  0  0  0  0  0  0
    6.2161   -2.4848   24.6577 C   0  0  0  0  0  0  0  0  0  0  0  0
    5.8786   -2.5222   26.0118 C   0  0  0  0  0  0  0  0  0  0  0  0
    6.1512   -1.4412   26.8295 C   0  0  0  0  0  0  0  0  0  0  0  0
    6.7230   -0.2994   26.2666 C   0  0  0  0  0  0  0  0  0  0  0  0
    6.9462    1.1211   27.2485 Cl  0  0  0  0  0  0  0  0  0  0  0  0
    7.0989   -0.2570   24.9353 C   0  0  0  0  0  0  0  0  0  0  0  0
    6.8920   -1.3706   24.1175 C   0  0  0  0  0  0  0  0  0  0  0  0
    7.5540    0.6429   24.5357 H   0  0  0  0  0  0  0  0  0  0  0  0
    5.9228   -1.4726   27.8902 H   0  0  0  0  0  0  0  0  0  0  0  0
    5.4005   -3.4140   26.4062 H   0  0  0  0  0  0  0  0  0  0  0  0
    7.9960   -2.9963   21.3399 H   0  0  0  0  0  0  0  0  0  0  0  0
    8.4093   -3.2469   23.0610 H   0  0  0  0  0  0  0  0  0  0  0  0
    8.7776   -1.1484   20.1787 H   0  0  0  0  0  0  0  0  0  0  0  0
    8.7805    0.6225   20.3935 H   0  0  0  0  0  0  0  0  0  0  0  0
    8.4777    0.4503   22.7361 H   0  0  0  0  0  0  0  0  0  0  0  0
   10.7564   -0.4554   22.3494 H   0  0  0  0  0  0  0  0  0  0  0  0
   10.0899   -2.0514   21.9936 H   0  0  0  0  0  0  0  0  0  0  0  0
   10.0071   -1.4229   23.6396 H   0  0  0  0  0  0  0  0  0  0  0  0
  1  2  1  0
  2  3  1  0
  3  4  1  0
  4  5  1  0
  5  6  2  0
  6  7  1  0
  7  8  2  0
  8  9  1  0
  9 10  2  0
 10 11  1  0
 11 12  2  0
 12 13  1  0
 13 14  2  0
 13 15  1  0
 12 16  1  0
 11 17  1  0
 10 18  1  0
  8 19  1  0
  6 20  1  0
  4 21  1  0
 21 22  2  0
 21 23  1  0
 23 24  1  6
 24 25  1  0
 25 26  1  0
 26 27  1  0
 27 28  1  0
 28 29  1  0
 29 30  1  0
 30 31  1  0
 31 32  1  0
 32 33  1  0
 33 34  1  0
 33 35  1  0
 33 36  1  0
 32 37  1  6
 31 38  1  0
 31 39  1  0
 30 40  1  1
 29 41  1  0
 29 42  1  0
 28 43  1  1
 27 44  1  0
 27 45  1  0
 26 46  1  0
 26 47  1  0
 25 48  1  0
 48 49  2  0
 48 50  1  0
 50 51  2  0
 51 52  1  0
 52 53  2  0
 53 54  1  0
 53 55  1  0
 55 56  2  0
 55 57  1  0
 52 58  1  0
 51 59  1  0
 24 60  1  0
 24 61  1  0
  3 62  1  0
  3 63  1  0
  2 64  1  1
  1 65  1  0
  1 66  1  0
  1 67  1  0
 23  2  1  0
 32 28  1  0
 56 50  1  0
 14  5  1  0
 56 23  1  0
 14  9  1  0
 34 30  1  0
M  CHG  1  28   1
M  END
>  <cnnaffinities>  (15) 
[6.62556]

>  <score>  (15) 
6.62556

>  <index>  (15) 
14

>  <Smiles>  (15) 
C([C@]1(C(N(c2c(nc(c3c(c(c(c(c23)[H])[H])[H])[H])[H])[H])C(=O)[C@]21C(N(C(C([N@@+]1(C([C@@]3(C([C@]1(C(O3)([H])[H])[H])([H])[H])[H])([H])[H])[H])([H])[H])([H])[H])C(=O)c1c(c(c(Cl)c(c21)[H])[H])[H])([H])[H])([H])[H])[H])([H])([H])[H]

>  <h>  (15) 
<NA>

>  <Training>  (15) 
True

>  <Success>  (15) 
True

>  <enamine_searched>  (15) 
False

>  <enamine_id>  (15) 
nan

$$$$

     RDKit          3D

 72 77  0  0  0  0  0  0  0  0999 V2000
    5.7358    2.4954   30.7527 C   0  0  0  0  0  0  0  0  0  0  0  0
    5.6151    1.6435   29.5044 C   0  0  1  0  0  0  0  0  0  0  0  0
    6.3071    0.2844   29.6391 C   0  0  0  0  0  0  0  0  0  0  0  0
    6.1358   -0.5447   28.3932 N   0  0  2  0  0  4  0  0  0  0  0  0
    7.0289   -0.1043   27.2764 C   0  0  0  0  0  0  0  0  0  0  0  0
    7.3050   -1.2456   26.3006 C   0  0  0  0  0  0  0  0  0  0  0  0
    8.1301   -0.8091   25.1884 N   0  0  0  0  0  0  0  0  0  0  0  0
    7.5526   -0.1829   24.0181 C   0  0  0  0  0  0  0  0  0  0  0  0
    8.3394   -0.5229   22.7199 C   0  0  2  0  0  0  0  0  0  0  0  0
    7.7377    0.3672   21.6268 C   0  0  0  0  0  0  0  0  0  0  0  0
    7.8601    1.5709   21.5074 O   0  0  0  0  0  0  0  0  0  0  0  0
    6.9409   -0.4132   20.8201 N   0  0  0  0  0  0  0  0  0  0  0  0
    6.1499    0.1118   19.7758 C   0  0  0  0  0  0  0  0  0  0  0  0
    6.4492   -0.2288   18.4799 C   0  0  0  0  0  0  0  0  0  0  0  0
    5.7858    0.2199   17.3889 N   0  0  0  0  0  0  0  0  0  0  0  0
    4.7687    1.0215   17.5987 C   0  0  0  0  0  0  0  0  0  0  0  0
    4.3224    1.4151   18.8929 C   0  0  0  0  0  0  0  0  0  0  0  0
    3.1965    2.2636   19.0504 C   0  0  0  0  0  0  0  0  0  0  0  0
    2.7562    2.6065   20.2984 C   0  0  0  0  0  0  0  0  0  0  0  0
    3.4206    2.1183   21.4462 C   0  0  0  0  0  0  0  0  0  0  0  0
    4.5207    1.3057   21.3206 C   0  0  0  0  0  0  0  0  0  0  0  0
    5.0125    0.9434   20.0307 C   0  0  0  0  0  0  0  0  0  0  0  0
    5.0202    0.9479   22.2164 H   0  0  0  0  0  0  0  0  0  0  0  0
    3.0565    2.3932   22.4323 H   0  0  0  0  0  0  0  0  0  0  0  0
    1.8931    3.2556   20.4153 H   0  0  0  0  0  0  0  0  0  0  0  0
    2.7020    2.6313   18.1552 H   0  0  0  0  0  0  0  0  0  0  0  0
    4.2250    1.3897   16.7276 H   0  0  0  0  0  0  0  0  0  0  0  0
    7.2951   -0.8876   18.2879 H   0  0  0  0  0  0  0  0  0  0  0  0
    6.8809   -1.8042   21.2071 C   0  0  0  0  0  0  0  0  0  0  0  0
    8.0669   -1.9665   22.1629 C   0  0  2  0  0  0  0  0  0  0  0  0
    7.8420   -3.0744   23.1873 C   0  0  0  0  0  0  0  0  0  0  0  0
    6.9257   -2.8922   23.7617 H   0  0  0  0  0  0  0  0  0  0  0  0
    7.7328   -4.0422   22.6881 H   0  0  0  0  0  0  0  0  0  0  0  0
    8.6749   -3.1380   23.8935 H   0  0  0  0  0  0  0  0  0  0  0  0
    8.9544   -2.2166   21.5649 H   0  0  0  0  0  0  0  0  0  0  0  0
    5.9248   -2.0391   21.6993 H   0  0  0  0  0  0  0  0  0  0  0  0
    6.9490   -2.4372   20.3217 H   0  0  0  0  0  0  0  0  0  0  0  0
    9.8214   -0.2715   22.9652 C   0  0  0  0  0  0  0  0  0  0  0  0
   10.7550   -0.1143   21.9281 C   0  0  0  0  0  0  0  0  0  0  0  0
   12.1132    0.0002   22.2199 C   0  0  0  0  0  0  0  0  0  0  0  0
   13.3539    0.0728   21.0000 Cl  0  0  0  0  0  0  0  0  0  0  0  0
   12.5833    0.0407   23.5342 C   0  0  0  0  0  0  0  0  0  0  0  0
   11.6745   -0.1473   24.5498 C   0  0  0  0  0  0  0  0  0  0  0  0
   10.3241   -0.3197   24.2619 C   0  0  0  0  0  0  0  0  0  0  0  0
    9.4653   -0.7144   25.4004 C   0  0  0  0  0  0  0  0  0  0  0  0
    9.9887   -0.9910   26.4697 O   0  0  0  0  0  0  0  0  0  0  0  0
   11.9566   -0.2006   25.5980 H   0  0  0  0  0  0  0  0  0  0  0  0
   13.6382    0.2074   23.7383 H   0  0  0  0  0  0  0  0  0  0  0  0
   10.3998   -0.0676   20.9073 H   0  0  0  0  0  0  0  0  0  0  0  0
    7.5442    0.9102   24.1305 H   0  0  0  0  0  0  0  0  0  0  0  0
    6.5103   -0.4976   23.9270 H   0  0  0  0  0  0  0  0  0  0  0  0
    6.3673   -1.6484   25.9010 H   0  0  0  0  0  0  0  0  0  0  0  0
    7.8293   -2.0636   26.8030 H   0  0  0  0  0  0  0  0  0  0  0  0
    6.5792    0.7341   26.7318 H   0  0  0  0  0  0  0  0  0  0  0  0
    7.9760    0.2498   27.6928 H   0  0  0  0  0  0  0  0  0  0  0  0
    4.6485   -0.6254   28.0201 C   0  0  1  0  0  0  0  0  0  0  0  0
    3.9172   -1.5745   28.9644 C   0  0  0  0  0  0  0  0  0  0  0  0
    4.4094   -2.5546   28.9911 H   0  0  0  0  0  0  0  0  0  0  0  0
    2.8896   -1.7222   28.6172 H   0  0  0  0  0  0  0  0  0  0  0  0
    3.8744   -1.1735   29.9806 H   0  0  0  0  0  0  0  0  0  0  0  0
    4.0337    0.7748   28.0225 C   0  0  0  0  0  0  0  0  0  0  0  0
    4.2306    1.4446   29.2488 O   0  0  0  0  0  0  0  0  0  0  0  0
    2.9519    0.7001   27.8732 H   0  0  0  0  0  0  0  0  0  0  0  0
    4.4463    1.3705   27.1925 H   0  0  0  0  0  0  0  0  0  0  0  0
    4.5887   -1.0199   27.0012 H   0  0  0  0  0  0  0  0  0  0  0  0
    6.4392   -1.5095   28.6243 H   0  0  0  0  0  0  0  0  0  0  0  0
    5.8829   -0.2605   30.4865 H   0  0  0  0  0  0  0  0  0  0  0  0
    7.3773    0.4193   29.8386 H   0  0  0  0  0  0  0  0  0  0  0  0
    6.0615    2.1892   28.6546 H   0  0  0  0  0  0  0  0  0  0  0  0
    6.7860    2.7075   30.9863 H   0  0  0  0  0  0  0  0  0  0  0  0
    5.2170    3.4471   30.6045 H   0  0  0  0  0  0  0  0  0  0  0  0
    5.2811    1.9846   31.6077 H   0  0  0  0  0  0  0  0  0  0  0  0
  1  2  1  0
  2  3  1  0
  3  4  1  0
  4  5  1  0
  5  6  1  0
  6  7  1  0
  7  8  1  0
  9  8  1  1
  9 10  1  0
 10 11  2  0
 10 12  1  0
 12 13  1  0
 13 14  2  0
 14 15  1  0
 15 16  2  0
 16 17  1  0
 17 18  2  0
 18 19  1  0
 19 20  2  0
 20 21  1  0
 21 22  2  0
 21 23  1  0
 20 24  1  0
 19 25  1  0
 18 26  1  0
 16 27  1  0
 14 28  1  0
 12 29  1  0
 29 30  1  0
 30 31  1  0
 31 32  1  0
 31 33  1  0
 31 34  1  0
 30 35  1  6
 29 36  1  0
 29 37  1  0
  9 38  1  0
 38 39  2  0
 39 40  1  0
 40 41  1  0
 40 42  2  0
 42 43  1  0
 43 44  2  0
 44 45  1  0
 45 46  2  0
 43 47  1  0
 42 48  1  0
 39 49  1  0
  8 50  1  0
  8 51  1  0
  6 52  1  0
  6 53  1  0
  5 54  1  0
  5 55  1  0
  4 56  1  0
 56 57  1  0
 57 58  1  0
 57 59  1  0
 57 60  1  0
 56 61  1  0
 61 62  1  0
 61 63  1  0
 61 64  1  0
 56 65  1  6
  4 66  1  1
  3 67  1  0
  3 68  1  0
  2 69  1  6
  1 70  1  0
  1 71  1  0
  1 72  1  0
 62  2  1  0
 45  7  1  0
 30  9  1  0
 44 38  1  0
 22 13  1  0
 22 17  1  0
M  CHG  1   4   1
M  END
>  <cnnaffinities>  (16) 
[6.31039, 6.49026, 6.5018]

>  <score>  (16) 
6.31039

>  <index>  (16) 
15

>  <Smiles>  (16) 
C([C@]1(C([N@+](C(C(N2C([C@@]3(C(=O)N(c4c(nc(c5c(c(c(c(c45)[H])[H])[H])[H])[H])[H])C([C@@]3(C([H])([H])[H])[H])([H])[H])c3c(c(Cl)c(c(c3C2=O)[H])[H])[H])([H])[H])([H])[H])([H])[H])([C@@](C([H])([H])[H])(C(O1)([H])[H])[H])[H])([H])[H])[H])([H])([H])[H]

>  <h>  (16) 
<NA>

>  <Training>  (16) 
True

>  <Success>  (16) 
True

>  <enamine_searched>  (16) 
False

>  <enamine_id>  (16) 
nan

$$$$

     RDKit          3D

 47 50  0  0  0  0  0  0  0  0999 V2000
    8.6409   -4.5093   23.9873 C   0  0  0  0  0  0  0  0  0  0  0  0
    7.3759   -3.7647   24.4101 C   0  0  1  0  0  0  0  0  0  0  0  0
    7.6876   -2.3585   24.9376 C   0  0  0  0  0  0  0  0  0  0  0  0
    7.4158   -1.3758   23.7825 C   0  0  2  0  0  0  0  0  0  0  0  0
    6.6438   -0.1575   24.2624 C   0  0  0  0  0  0  0  0  0  0  0  0
    5.3157   -0.2584   24.6725 C   0  0  0  0  0  0  0  0  0  0  0  0
    4.6260    0.8588   25.1249 C   0  0  0  0  0  0  0  0  0  0  0  0
    5.2608    2.0972   25.1915 C   0  0  0  0  0  0  0  0  0  0  0  0
    6.5963    2.2039   24.8134 C   0  0  0  0  0  0  0  0  0  0  0  0
    7.2745    1.0780   24.3536 C   0  0  0  0  0  0  0  0  0  0  0  0
    8.3100    1.1401   24.0348 H   0  0  0  0  0  0  0  0  0  0  0  0
    7.1059    3.1620   24.8549 H   0  0  0  0  0  0  0  0  0  0  0  0
    4.7156    2.9718   25.5317 H   0  0  0  0  0  0  0  0  0  0  0  0
    3.5885    0.7596   25.4287 H   0  0  0  0  0  0  0  0  0  0  0  0
    4.8167   -1.2219   24.6473 H   0  0  0  0  0  0  0  0  0  0  0  0
    6.7006   -2.1669   22.7885 N   0  0  0  0  0  0  0  0  0  0  0  0
    6.2490   -1.7387   21.5622 C   0  0  0  0  0  0  0  0  0  0  0  0
    5.3941   -2.3656   20.9580 O   0  0  0  0  0  0  0  0  0  0  0  0
    6.9126   -0.4917   20.9204 C   0  0  0  0  0  0  0  0  0  0  0  0
    6.1107    0.0828   19.7732 C   0  0  0  0  0  0  0  0  0  0  0  0
    6.4198   -0.2156   18.4709 C   0  0  0  0  0  0  0  0  0  0  0  0
    5.7584    0.2379   17.3690 N   0  0  0  0  0  0  0  0  0  0  0  0
    4.7365    1.0314   17.5781 C   0  0  0  0  0  0  0  0  0  0  0  0
    4.2865    1.4218   18.8692 C   0  0  0  0  0  0  0  0  0  0  0  0
    3.1673    2.2743   19.0446 C   0  0  0  0  0  0  0  0  0  0  0  0
    2.7528    2.6269   20.2983 C   0  0  0  0  0  0  0  0  0  0  0  0
    3.4457    2.1354   21.4299 C   0  0  0  0  0  0  0  0  0  0  0  0
    4.5334    1.3096   21.2975 C   0  0  0  0  0  0  0  0  0  0  0  0
    4.9876    0.9340   20.0038 C   0  0  0  0  0  0  0  0  0  0  0  0
    5.0485    0.9472   22.1896 H   0  0  0  0  0  0  0  0  0  0  0  0
    3.1087    2.4262   22.4195 H   0  0  0  0  0  0  0  0  0  0  0  0
    1.8963    3.2845   20.4371 H   0  0  0  0  0  0  0  0  0  0  0  0
    2.6505    2.6455   18.1611 H   0  0  0  0  0  0  0  0  0  0  0  0
    4.2020    1.3994   16.6978 H   0  0  0  0  0  0  0  0  0  0  0  0
    7.2642   -0.8667   18.2449 H   0  0  0  0  0  0  0  0  0  0  0  0
    7.1482    0.2831   21.6613 H   0  0  0  0  0  0  0  0  0  0  0  0
    7.8811   -0.8253   20.5213 H   0  0  0  0  0  0  0  0  0  0  0  0
    6.4167   -3.5256   23.2368 C   0  0  0  0  0  0  0  0  0  0  0  0
    5.3644   -3.6559   23.5257 H   0  0  0  0  0  0  0  0  0  0  0  0
    6.5939   -4.2159   22.4102 H   0  0  0  0  0  0  0  0  0  0  0  0
    8.3617   -1.0385   23.3442 H   0  0  0  0  0  0  0  0  0  0  0  0
    7.0630   -2.1226   25.8029 H   0  0  0  0  0  0  0  0  0  0  0  0
    8.7177   -2.2772   25.2909 H   0  0  0  0  0  0  0  0  0  0  0  0
    6.8864   -4.3596   25.1842 H   0  0  0  0  0  0  0  0  0  0  0  0
    9.1820   -3.9583   23.2121 H   0  0  0  0  0  0  0  0  0  0  0  0
    8.4017   -5.5028   23.5953 H   0  0  0  0  0  0  0  0  0  0  0  0
    9.3254   -4.6418   24.8326 H   0  0  0  0  0  0  0  0  0  0  0  0
  1  2  1  0
  2  3  1  0
  3  4  1  0
  4  5  1  0
  5  6  2  0
  6  7  1  0
  7  8  2  0
  8  9  1  0
  9 10  2  0
 10 11  1  0
  9 12  1  0
  8 13  1  0
  7 14  1  0
  6 15  1  0
  4 16  1  0
 16 17  1  0
 17 18  2  0
 17 19  1  0
 19 20  1  0
 20 21  2  0
 21 22  1  0
 22 23  2  0
 23 24  1  0
 24 25  2  0
 25 26  1  0
 26 27  2  0
 27 28  1  0
 28 29  2  0
 28 30  1  0
 27 31  1  0
 26 32  1  0
 25 33  1  0
 23 34  1  0
 21 35  1  0
 19 36  1  0
 19 37  1  0
 16 38  1  0
 38 39  1  0
 38 40  1  0
  4 41  1  6
  3 42  1  0
  3 43  1  0
  2 44  1  1
  1 45  1  0
  1 46  1  0
  1 47  1  0
 38  2  1  0
 10  5  1  0
 29 20  1  0
 29 24  1  0
M  END
>  <cnnaffinities>  (17) 
[5.53923, 5.55234]

>  <score>  (17) 
5.53923

>  <index>  (17) 
16

>  <Smiles>  (17) 
C([C@]1(C([C@](c2c(c(c(c(c2[H])[H])[H])[H])[H])(N(C(=O)C(c2c(nc(c3c(c(c(c(c23)[H])[H])[H])[H])[H])[H])([H])[H])C1([H])[H])[H])([H])[H])[H])([H])([H])[H]

>  <h>  (17) 
<NA>

>  <Training>  (17) 
True

>  <Success>  (17) 
True

>  <enamine_searched>  (17) 
False

>  <enamine_id>  (17) 
nan

$$$$

     RDKit          3D

 58 63  0  0  0  0  0  0  0  0999 V2000
    9.7363   -1.9786   21.8251 C   0  0  0  0  0  0  0  0  0  0  0  0
    8.6663   -0.9838   22.3084 C   0  0  1  0  0  0  0  0  0  0  0  0
    8.2181   -0.0739   21.1407 C   0  0  0  0  0  0  0  0  0  0  0  0
    6.8654   -0.4896   20.8344 N   0  0  0  0  0  0  0  0  0  0  0  0
    6.1052    0.0583   19.7713 C   0  0  0  0  0  0  0  0  0  0  0  0
    6.4478   -0.2230   18.4720 C   0  0  0  0  0  0  0  0  0  0  0  0
    5.7859    0.2378   17.3840 N   0  0  0  0  0  0  0  0  0  0  0  0
    4.7569    1.0220   17.6002 C   0  0  0  0  0  0  0  0  0  0  0  0
    4.3008    1.4093   18.8933 C   0  0  0  0  0  0  0  0  0  0  0  0
    3.1870    2.2742   19.0594 C   0  0  0  0  0  0  0  0  0  0  0  0
    2.7869    2.6552   20.3099 C   0  0  0  0  0  0  0  0  0  0  0  0
    3.4880    2.1995   21.4482 C   0  0  0  0  0  0  0  0  0  0  0  0
    4.5679    1.3622   21.3174 C   0  0  0  0  0  0  0  0  0  0  0  0
    4.9939    0.9274   20.0266 C   0  0  0  0  0  0  0  0  0  0  0  0
    5.1017    1.0274   22.2077 H   0  0  0  0  0  0  0  0  0  0  0  0
    3.1635    2.5144   22.4367 H   0  0  0  0  0  0  0  0  0  0  0  0
    1.9314    3.3150   20.4328 H   0  0  0  0  0  0  0  0  0  0  0  0
    2.6768    2.6300   18.1678 H   0  0  0  0  0  0  0  0  0  0  0  0
    4.2226    1.3866   16.7238 H   0  0  0  0  0  0  0  0  0  0  0  0
    7.2977   -0.8752   18.2699 H   0  0  0  0  0  0  0  0  0  0  0  0
    6.3252   -1.3794   21.7324 C   0  0  0  0  0  0  0  0  0  0  0  0
    5.2183   -1.8714   21.6343 O   0  0  0  0  0  0  0  0  0  0  0  0
    7.3496   -1.6136   22.8667 C   0  0  1  0  0  0  0  0  0  0  0  0
    7.4636   -3.1236   23.1517 C   0  0  0  0  0  0  0  0  0  0  0  0
    6.2368   -3.6172   23.7404 N   0  0  0  0  0  0  0  0  0  0  0  0
    5.6819   -4.8636   23.3015 C   0  0  0  0  0  0  0  0  0  0  0  0
    6.2262   -6.0365   24.0585 C   0  0  0  0  0  0  0  0  0  0  0  0
    7.4977   -6.3558   24.0928 N   0  0  0  0  0  0  0  0  0  0  0  0
    7.5917   -7.6231   24.6081 N   0  0  0  0  0  0  0  0  0  0  0  0
    6.3749   -8.0167   24.8696 C   0  0  0  0  0  0  0  0  0  0  0  0
    5.4646   -7.0456   24.5788 N   0  0  0  0  0  0  0  0  0  0  0  0
    4.0298   -7.0707   24.8103 C   0  0  0  0  0  0  0  0  0  0  0  0
    3.4531   -7.2013   23.8834 H   0  0  0  0  0  0  0  0  0  0  0  0
    3.7216   -6.1456   25.3052 H   0  0  0  0  0  0  0  0  0  0  0  0
    3.8209   -7.9113   25.4760 H   0  0  0  0  0  0  0  0  0  0  0  0
    6.1043   -8.9743   25.2948 H   0  0  0  0  0  0  0  0  0  0  0  0
    5.9693   -4.9668   22.2491 H   0  0  0  0  0  0  0  0  0  0  0  0
    4.5888   -4.8019   23.3571 H   0  0  0  0  0  0  0  0  0  0  0  0
    5.6976   -3.0594   24.8595 C   0  0  0  0  0  0  0  0  0  0  0  0
    4.9179   -3.6723   25.5773 O   0  0  0  0  0  0  0  0  0  0  0  0
    6.0818   -1.6373   25.0927 C   0  0  0  0  0  0  0  0  0  0  0  0
    5.6005   -1.0147   26.2432 C   0  0  0  0  0  0  0  0  0  0  0  0
    5.8308    0.3342   26.4401 C   0  0  0  0  0  0  0  0  0  0  0  0
    6.5362    1.0412   25.4731 C   0  0  0  0  0  0  0  0  0  0  0  0
    6.7335    2.3599   25.6568 F   0  0  0  0  0  0  0  0  0  0  0  0
    7.0367    0.4397   24.3350 C   0  0  0  0  0  0  0  0  0  0  0  0
    6.8385   -0.9343   24.1410 C   0  0  0  0  0  0  0  0  0  0  0  0
    7.5705    1.0622   23.6233 H   0  0  0  0  0  0  0  0  0  0  0  0
    5.4599    0.8583   27.3094 H   0  0  0  0  0  0  0  0  0  0  0  0
    5.0294   -1.6263   26.9390 H   0  0  0  0  0  0  0  0  0  0  0  0
    8.3035   -3.3025   23.8431 H   0  0  0  0  0  0  0  0  0  0  0  0
    7.6401   -3.6727   22.2216 H   0  0  0  0  0  0  0  0  0  0  0  0
    8.8657   -0.2172   20.2744 H   0  0  0  0  0  0  0  0  0  0  0  0
    8.2395    0.9932   21.4055 H   0  0  0  0  0  0  0  0  0  0  0  0
    9.1315   -0.3914   23.1070 H   0  0  0  0  0  0  0  0  0  0  0  0
   10.0967   -2.6142   22.6397 H   0  0  0  0  0  0  0  0  0  0  0  0
   10.6017   -1.4325   21.4323 H   0  0  0  0  0  0  0  0  0  0  0  0
    9.3565   -2.6233   21.0235 H   0  0  0  0  0  0  0  0  0  0  0  0
  1  2  1  0
  2  3  1  0
  3  4  1  0
  4  5  1  0
  5  6  2  0
  6  7  1  0
  7  8  2  0
  8  9  1  0
  9 10  2  0
 10 11  1  0
 11 12  2  0
 12 13  1  0
 13 14  2  0
 13 15  1  0
 12 16  1  0
 11 17  1  0
 10 18  1  0
  8 19  1  0
  6 20  1  0
  4 21  1  0
 21 22  2  0
 21 23  1  0
 23 24  1  1
 24 25  1  0
 25 26  1  0
 26 27  1  0
 27 28  2  0
 28 29  1  0
 29 30  2  0
 30 31  1  0
 31 32  1  0
 32 33  1  0
 32 34  1  0
 32 35  1  0
 30 36  1  0
 26 37  1  0
 26 38  1  0
 25 39  1  0
 39 40  2  0
 39 41  1  0
 41 42  2  0
 42 43  1  0
 43 44  2  0
 44 45  1  0
 44 46  1  0
 46 47  2  0
 46 48  1  0
 43 49  1  0
 42 50  1  0
 24 51  1  0
 24 52  1  0
  3 53  1  0
  3 54  1  0
  2 55  1  1
  1 56  1  0
  1 57  1  0
  1 58  1  0
 23  2  1  0
 31 27  1  0
 47 41  1  0
 14  5  1  0
 47 23  1  0
 14  9  1  0
M  END
>  <cnnaffinities>  (18) 
[6.32268]

>  <score>  (18) 
6.32268

>  <index>  (18) 
17

>  <Smiles>  (18) 
C([C@]1(C(N(c2c(nc(c3c(c(c(c(c23)[H])[H])[H])[H])[H])[H])C(=O)[C@]21C(N(C(c1nnc(n1C([H])([H])[H])[H])([H])[H])C(=O)c1c(c(c(F)c(c21)[H])[H])[H])([H])[H])([H])[H])[H])([H])([H])[H]

>  <h>  (18) 
<NA>

>  <Training>  (18) 
True

>  <Success>  (18) 
True

>  <enamine_searched>  (18) 
False

>  <enamine_id>  (18) 
nan

$$$$

     RDKit          3D

 50 53  0  0  0  0  0  0  0  0999 V2000
    3.9011   -1.8263   29.3972 C   0  0  0  0  0  0  0  0  0  0  0  0
    3.9694   -2.1647   27.9152 C   0  0  1  0  0  0  0  0  0  0  0  0
    4.0173   -0.9054   27.0491 C   0  0  0  0  0  0  0  0  0  0  0  0
    4.1266   -1.2247   25.5558 C   0  0  0  0  0  0  0  0  0  0  0  0
    5.2865   -2.1855   25.1953 C   0  0  2  0  0  0  0  0  0  0  0  0
    6.6533   -1.4728   25.2923 C   0  0  0  0  0  0  0  0  0  0  0  0
    6.9250   -0.8664   23.9099 C   0  0  0  0  0  0  0  0  0  0  0  0
    6.0978   -1.6407   22.9919 N   0  0  0  0  0  0  0  0  0  0  0  0
    6.1475   -1.6290   21.6264 C   0  0  0  0  0  0  0  0  0  0  0  0
    5.5838   -2.4830   20.9605 O   0  0  0  0  0  0  0  0  0  0  0  0
    6.9098   -0.4851   20.9191 C   0  0  0  0  0  0  0  0  0  0  0  0
    6.1152    0.0913   19.7666 C   0  0  0  0  0  0  0  0  0  0  0  0
    6.4213   -0.2141   18.4636 C   0  0  0  0  0  0  0  0  0  0  0  0
    5.7581    0.2379   17.3637 N   0  0  0  0  0  0  0  0  0  0  0  0
    4.7355    1.0319   17.5743 C   0  0  0  0  0  0  0  0  0  0  0  0
    4.2867    1.4243   18.8675 C   0  0  0  0  0  0  0  0  0  0  0  0
    3.1635    2.2749   19.0429 C   0  0  0  0  0  0  0  0  0  0  0  0
    2.7491    2.6266   20.3000 C   0  0  0  0  0  0  0  0  0  0  0  0
    3.4403    2.1408   21.4319 C   0  0  0  0  0  0  0  0  0  0  0  0
    4.5321    1.3190   21.2880 C   0  0  0  0  0  0  0  0  0  0  0  0
    4.9894    0.9412   19.9958 C   0  0  0  0  0  0  0  0  0  0  0  0
    5.0494    0.9574   22.1724 H   0  0  0  0  0  0  0  0  0  0  0  0
    3.1054    2.4264   22.4239 H   0  0  0  0  0  0  0  0  0  0  0  0
    1.8913    3.2796   20.4362 H   0  0  0  0  0  0  0  0  0  0  0  0
    2.6424    2.6447   18.1629 H   0  0  0  0  0  0  0  0  0  0  0  0
    4.1982    1.4004   16.6990 H   0  0  0  0  0  0  0  0  0  0  0  0
    7.2662   -0.8675   18.2481 H   0  0  0  0  0  0  0  0  0  0  0  0
    7.8364   -0.9156   20.5175 H   0  0  0  0  0  0  0  0  0  0  0  0
    7.2122    0.3116   21.6093 H   0  0  0  0  0  0  0  0  0  0  0  0
    5.2286   -2.5793   23.6996 C   0  0  0  0  0  0  0  0  0  0  0  0
    5.5660   -3.6118   23.5487 H   0  0  0  0  0  0  0  0  0  0  0  0
    4.2087   -2.5258   23.3094 H   0  0  0  0  0  0  0  0  0  0  0  0
    7.9833   -0.9510   23.6508 H   0  0  0  0  0  0  0  0  0  0  0  0
    6.6513    0.1945   23.8878 H   0  0  0  0  0  0  0  0  0  0  0  0
    6.6762   -0.7047   26.0698 H   0  0  0  0  0  0  0  0  0  0  0  0
    7.4347   -2.1941   25.5538 H   0  0  0  0  0  0  0  0  0  0  0  0
    5.2164   -3.4245   26.1117 C   0  0  0  0  0  0  0  0  0  0  0  0
    5.1544   -3.0771   27.5990 C   0  0  0  0  0  0  0  0  0  0  0  0
    5.0913   -3.9944   28.1991 H   0  0  0  0  0  0  0  0  0  0  0  0
    6.0870   -2.5834   27.9020 H   0  0  0  0  0  0  0  0  0  0  0  0
    4.3268   -4.0142   25.8508 H   0  0  0  0  0  0  0  0  0  0  0  0
    6.0769   -4.0777   25.9186 H   0  0  0  0  0  0  0  0  0  0  0  0
    3.1806   -1.6850   25.2421 H   0  0  0  0  0  0  0  0  0  0  0  0
    4.2221   -0.2974   24.9775 H   0  0  0  0  0  0  0  0  0  0  0  0
    3.1210   -0.2974   27.2312 H   0  0  0  0  0  0  0  0  0  0  0  0
    4.8639   -0.2820   27.3637 H   0  0  0  0  0  0  0  0  0  0  0  0
    3.0561   -2.7117   27.6475 H   0  0  0  0  0  0  0  0  0  0  0  0
    3.0366   -1.1951   29.6232 H   0  0  0  0  0  0  0  0  0  0  0  0
    3.8335   -2.7310   30.0089 H   0  0  0  0  0  0  0  0  0  0  0  0
    4.8001   -1.2838   29.7066 H   0  0  0  0  0  0  0  0  0  0  0  0
  1  2  1  0
  2  3  1  0
  3  4  1  0
  5  4  1  1
  5  6  1  0
  6  7  1  0
  7  8  1  0
  8  9  1  0
  9 10  2  0
  9 11  1  0
 11 12  1  0
 12 13  2  0
 13 14  1  0
 14 15  2  0
 15 16  1  0
 16 17  2  0
 17 18  1  0
 18 19  2  0
 19 20  1  0
 20 21  2  0
 20 22  1  0
 19 23  1  0
 18 24  1  0
 17 25  1  0
 15 26  1  0
 13 27  1  0
 11 28  1  0
 11 29  1  0
  8 30  1  0
 30 31  1  0
 30 32  1  0
  7 33  1  0
  7 34  1  0
  6 35  1  0
  6 36  1  0
  5 37  1  0
 37 38  1  0
 38 39  1  0
 38 40  1  0
 37 41  1  0
 37 42  1  0
  4 43  1  0
  4 44  1  0
  3 45  1  0
  3 46  1  0
  2 47  1  6
  1 48  1  0
  1 49  1  0
  1 50  1  0
 38  2  1  0
 30  5  1  0
 21 12  1  0
 21 16  1  0
M  END
>  <cnnaffinities>  (19) 
[5.46806, 5.52567]

>  <score>  (19) 
5.46806

>  <index>  (19) 
18

>  <Smiles>  (19) 
C([C@]1(C(C([C@@]2(C(C(N(C(=O)C(c3c(nc(c4c(c(c(c(c34)[H])[H])[H])[H])[H])[H])([H])[H])C2([H])[H])([H])[H])([H])[H])C(C1([H])[H])([H])[H])([H])[H])([H])[H])[H])([H])([H])[H]

>  <h>  (19) 
<NA>

>  <Training>  (19) 
True

>  <Success>  (19) 
True

>  <enamine_searched>  (19) 
False

>  <enamine_id>  (19) 
nan

$$$$

     RDKit          3D

 67 71  0  0  0  0  0  0  0  0999 V2000
    3.6138   -5.3270   21.8841 O   0  0  0  0  0  0  0  0  0  0  0  0
    4.1812   -5.8886   22.8129 C   0  0  0  0  0  0  0  0  0  0  0  0
    5.6915   -5.6904   22.9102 C   0  0  0  0  0  0  0  0  0  0  0  0
    5.9164   -4.2204   22.8114 N   0  0  1  0  0  4  0  0  0  0  0  0
    5.1952   -3.5863   23.9677 C   0  0  0  0  0  0  0  0  0  0  0  0
    5.5333   -2.1476   24.2496 C   0  0  0  0  0  0  0  0  0  0  0  0
    4.7334   -1.4384   25.1470 C   0  0  0  0  0  0  0  0  0  0  0  0
    5.0781   -0.1596   25.5566 C   0  0  0  0  0  0  0  0  0  0  0  0
    6.2487    0.4067   25.0590 C   0  0  0  0  0  0  0  0  0  0  0  0
    6.7166    1.9983   25.5903 Cl  0  0  0  0  0  0  0  0  0  0  0  0
    7.0357   -0.2694   24.1349 C   0  0  0  0  0  0  0  0  0  0  0  0
    6.6547   -1.5432   23.6951 C   0  0  0  0  0  0  0  0  0  0  0  0
    7.3398   -2.2461   22.5366 C   0  0  2  0  0  0  0  0  0  0  0  0
    6.5867   -1.8808   21.2493 C   0  0  0  0  0  0  0  0  0  0  0  0
    5.8324   -2.6527   20.6743 O   0  0  0  0  0  0  0  0  0  0  0  0
    6.7737   -0.5878   20.8294 N   0  0  0  0  0  0  0  0  0  0  0  0
    6.0716   -0.0021   19.7508 C   0  0  0  0  0  0  0  0  0  0  0  0
    6.4238   -0.2841   18.4577 C   0  0  0  0  0  0  0  0  0  0  0  0
    5.7951    0.2220   17.3668 N   0  0  0  0  0  0  0  0  0  0  0  0
    4.7852    1.0305   17.5764 C   0  0  0  0  0  0  0  0  0  0  0  0
    4.3218    1.4130   18.8674 C   0  0  0  0  0  0  0  0  0  0  0  0
    3.2091    2.2731   19.0415 C   0  0  0  0  0  0  0  0  0  0  0  0
    2.7879    2.6131   20.2977 C   0  0  0  0  0  0  0  0  0  0  0  0
    3.4648    2.1172   21.4365 C   0  0  0  0  0  0  0  0  0  0  0  0
    4.5434    1.2795   21.2963 C   0  0  0  0  0  0  0  0  0  0  0  0
    4.9917    0.9024   19.9992 C   0  0  0  0  0  0  0  0  0  0  0  0
    5.0452    0.8915   22.1803 H   0  0  0  0  0  0  0  0  0  0  0  0
    3.1197    2.3996   22.4278 H   0  0  0  0  0  0  0  0  0  0  0  0
    1.9297    3.2658   20.4323 H   0  0  0  0  0  0  0  0  0  0  0  0
    2.7044    2.6498   18.1565 H   0  0  0  0  0  0  0  0  0  0  0  0
    4.2636    1.4169   16.7003 H   0  0  0  0  0  0  0  0  0  0  0  0
    7.2673   -0.9441   18.2724 H   0  0  0  0  0  0  0  0  0  0  0  0
    7.1899    0.0529   21.4874 H   0  0  0  0  0  0  0  0  0  0  0  0
    7.3344   -3.7681   22.7061 C   0  0  0  0  0  0  0  0  0  0  0  0
    7.8105   -4.2369   21.8372 H   0  0  0  0  0  0  0  0  0  0  0  0
    7.8879   -4.0646   23.6049 H   0  0  0  0  0  0  0  0  0  0  0  0
    8.3615   -1.8722   22.4300 H   0  0  0  0  0  0  0  0  0  0  0  0
    7.9404    0.2084   23.7668 H   0  0  0  0  0  0  0  0  0  0  0  0
    4.4599    0.3875   26.2612 H   0  0  0  0  0  0  0  0  0  0  0  0
    3.8311   -1.8997   25.5423 H   0  0  0  0  0  0  0  0  0  0  0  0
    5.3986   -4.1830   24.8663 H   0  0  0  0  0  0  0  0  0  0  0  0
    4.1216   -3.6605   23.7769 H   0  0  0  0  0  0  0  0  0  0  0  0
    5.4565   -3.9020   21.9265 H   0  0  0  0  0  0  0  0  0  0  0  0
    6.0903   -6.0914   23.8491 H   0  0  0  0  0  0  0  0  0  0  0  0
    6.1708   -6.2152   22.0757 H   0  0  0  0  0  0  0  0  0  0  0  0
    3.5684   -6.6158   23.7799 N   0  0  0  0  0  0  0  0  0  0  0  0
    2.1426   -6.9573   23.7662 C   0  0  0  0  0  0  0  0  0  0  0  0
    1.3026   -5.6855   23.5726 C   0  0  0  0  0  0  0  0  0  0  0  0
   -0.1945   -5.7848   23.5873 C   0  0  0  0  0  0  0  0  0  0  0  0
   -0.9219   -5.7199   24.7763 C   0  0  0  0  0  0  0  0  0  0  0  0
   -2.3062   -5.8470   24.7624 C   0  0  0  0  0  0  0  0  0  0  0  0
   -2.9829   -6.0230   23.5595 C   0  0  0  0  0  0  0  0  0  0  0  0
   -4.4644   -6.2446   23.5416 C   0  0  0  0  0  0  0  0  0  0  0  0
   -5.0749   -5.3302   22.7344 F   0  0  0  0  0  0  0  0  0  0  0  0
   -4.7560   -7.4732   23.0200 F   0  0  0  0  0  0  0  0  0  0  0  0
   -4.9223   -6.1788   24.5351 H   0  0  0  0  0  0  0  0  0  0  0  0
   -2.2720   -5.9927   22.3626 C   0  0  0  0  0  0  0  0  0  0  0  0
   -0.8913   -5.8632   22.3818 C   0  0  0  0  0  0  0  0  0  0  0  0
   -0.3462   -5.7913   21.4430 H   0  0  0  0  0  0  0  0  0  0  0  0
   -2.8013   -6.0682   21.4182 H   0  0  0  0  0  0  0  0  0  0  0  0
   -2.8619   -5.8028   25.6979 H   0  0  0  0  0  0  0  0  0  0  0  0
   -0.4082   -5.5407   25.7179 H   0  0  0  0  0  0  0  0  0  0  0  0
    1.6303   -4.9941   24.3563 H   0  0  0  0  0  0  0  0  0  0  0  0
    1.6225   -5.2819   22.6108 H   0  0  0  0  0  0  0  0  0  0  0  0
    1.9299   -7.4542   24.7185 H   0  0  0  0  0  0  0  0  0  0  0  0
    1.9554   -7.6652   22.9497 H   0  0  0  0  0  0  0  0  0  0  0  0
    4.1242   -6.9008   24.5736 H   0  0  0  0  0  0  0  0  0  0  0  0
  1  2  2  0
  2  3  1  0
  3  4  1  0
  4  5  1  0
  5  6  1  0
  6  7  2  0
  7  8  1  0
  8  9  2  0
  9 10  1  0
  9 11  1  0
 11 12  2  0
 12 13  1  0
 13 14  1  0
 14 15  2  0
 14 16  1  0
 16 17  1  0
 17 18  2  0
 18 19  1  0
 19 20  2  0
 20 21  1  0
 21 22  2  0
 22 23  1  0
 23 24  2  0
 24 25  1  0
 25 26  2  0
 25 27  1  0
 24 28  1  0
 23 29  1  0
 22 30  1  0
 20 31  1  0
 18 32  1  0
 16 33  1  0
 13 34  1  0
 34 35  1  0
 34 36  1  0
 13 37  1  6
 11 38  1  0
  8 39  1  0
  7 40  1  0
  5 41  1  0
  5 42  1  0
  4 43  1  6
  3 44  1  0
  3 45  1  0
  2 46  1  0
 46 47  1  0
 47 48  1  0
 48 49  1  0
 49 50  2  0
 50 51  1  0
 51 52  2  0
 52 53  1  0
 53 54  1  0
 53 55  1  0
 53 56  1  0
 52 57  1  0
 57 58  2  0
 58 59  1  0
 57 60  1  0
 51 61  1  0
 50 62  1  0
 48 63  1  0
 48 64  1  0
 47 65  1  0
 47 66  1  0
 46 67  1  0
 34  4  1  0
 58 49  1  0
 12  6  1  0
 26 17  1  0
 26 21  1  0
M  CHG  1   4   1
M  END
>  <cnnaffinities>  (20) 
[6.09794, 6.46095]

>  <score>  (20) 
6.09794

>  <index>  (20) 
19

>  <Smiles>  (20) 
O=C(C([N@+]1(C(c2c(c(c(Cl)c(c2[C@](C(=O)N(c2c(nc(c3c(c(c(c(c23)[H])[H])[H])[H])[H])[H])[H])(C1([H])[H])[H])[H])[H])[H])([H])[H])[H])([H])[H])N(C(C(c1c(c(c(C(F)(F)[H])c(c1[H])[H])[H])[H])([H])[H])([H])[H])[H]

>  <h>  (20) 
<NA>

>  <Training>  (20) 
True

>  <Success>  (20) 
True

>  <enamine_searched>  (20) 
False

>  <enamine_id>  (20) 
nan

$$$$

     RDKit          3D

 66 70  0  0  0  0  0  0  0  0999 V2000
    6.7213   -2.8169   28.2126 C   0  0  0  0  0  0  0  0  0  0  0  0
    6.5125   -4.3214   28.3815 C   0  0  0  0  0  0  0  0  0  0  0  0
    6.0143   -4.8140   27.0415 C   0  0  0  0  0  0  0  0  0  0  0  0
    6.7296   -5.3574   26.2340 O   0  0  0  0  0  0  0  0  0  0  0  0
    4.6702   -4.5049   26.7482 N   0  0  0  0  0  0  0  0  0  0  0  0
    3.6457   -4.6054   27.7836 C   0  0  0  0  0  0  0  0  0  0  0  0
    2.2969   -4.8449   27.1288 C   0  0  0  0  0  0  0  0  0  0  0  0
    1.9502   -3.6300   26.2785 C   0  0  0  0  0  0  0  0  0  0  0  0
    3.1261   -3.1594   25.4445 C   0  0  0  0  0  0  0  0  0  0  0  0
    2.9414   -2.1997   24.4534 C   0  0  0  0  0  0  0  0  0  0  0  0
    3.9681   -1.8255   23.6003 C   0  0  0  0  0  0  0  0  0  0  0  0
    5.2526   -2.3179   23.8191 C   0  0  0  0  0  0  0  0  0  0  0  0
    6.3191   -1.7965   23.0309 N   0  0  0  0  0  0  0  0  0  0  0  0
    6.0899   -1.6182   21.6590 C   0  0  0  0  0  0  0  0  0  0  0  0
    5.2502   -2.2742   21.0837 O   0  0  0  0  0  0  0  0  0  0  0  0
    6.9050   -0.5400   20.9486 C   0  0  0  0  0  0  0  0  0  0  0  0
    6.1295    0.0566   19.8059 C   0  0  0  0  0  0  0  0  0  0  0  0
    6.4502   -0.2499   18.5102 C   0  0  0  0  0  0  0  0  0  0  0  0
    5.8013    0.2030   17.4040 N   0  0  0  0  0  0  0  0  0  0  0  0
    4.7774    0.9966   17.6083 C   0  0  0  0  0  0  0  0  0  0  0  0
    4.3136    1.3872   18.8943 C   0  0  0  0  0  0  0  0  0  0  0  0
    3.1953    2.2455   19.0574 C   0  0  0  0  0  0  0  0  0  0  0  0
    2.7665    2.6048   20.3052 C   0  0  0  0  0  0  0  0  0  0  0  0
    3.4422    2.1214   21.4497 C   0  0  0  0  0  0  0  0  0  0  0  0
    4.5304    1.2930   21.3168 C   0  0  0  0  0  0  0  0  0  0  0  0
    5.0009    0.9003   20.0328 C   0  0  0  0  0  0  0  0  0  0  0  0
    5.0380    0.9510   22.2172 H   0  0  0  0  0  0  0  0  0  0  0  0
    3.1044    2.4134   22.4405 H   0  0  0  0  0  0  0  0  0  0  0  0
    1.9126    3.2658   20.4251 H   0  0  0  0  0  0  0  0  0  0  0  0
    2.6975    2.6189   18.1653 H   0  0  0  0  0  0  0  0  0  0  0  0
    4.2542    1.3707   16.7269 H   0  0  0  0  0  0  0  0  0  0  0  0
    7.2943   -0.9082   18.3031 H   0  0  0  0  0  0  0  0  0  0  0  0
    7.8240   -1.0072   20.5661 H   0  0  0  0  0  0  0  0  0  0  0  0
    7.2040    0.2038   21.6927 H   0  0  0  0  0  0  0  0  0  0  0  0
    7.5131   -1.3947   23.6241 N   0  0  0  0  0  0  0  0  0  0  0  0
    8.7019   -2.1591   23.2891 C   0  0  0  0  0  0  0  0  0  0  0  0
    9.5712   -1.4928   23.2555 H   0  0  0  0  0  0  0  0  0  0  0  0
    8.5869   -2.6080   22.2992 H   0  0  0  0  0  0  0  0  0  0  0  0
    8.9175   -2.9758   23.9954 H   0  0  0  0  0  0  0  0  0  0  0  0
    7.4600   -0.6011   24.7794 C   0  0  0  0  0  0  0  0  0  0  0  0
    8.4208   -0.7066   25.7932 C   0  0  0  0  0  0  0  0  0  0  0  0
    8.2955    0.0658   26.9462 C   0  0  0  0  0  0  0  0  0  0  0  0
    7.2824    0.9986   27.0976 C   0  0  0  0  0  0  0  0  0  0  0  0
    6.3563    1.1133   26.0740 C   0  0  0  0  0  0  0  0  0  0  0  0
    5.0706    2.2740   26.2289 Cl  0  0  0  0  0  0  0  0  0  0  0  0
    6.4053    0.3124   24.9443 C   0  0  0  0  0  0  0  0  0  0  0  0
    5.6219    0.3885   24.1989 H   0  0  0  0  0  0  0  0  0  0  0  0
    7.2125    1.6102   27.9915 H   0  0  0  0  0  0  0  0  0  0  0  0
    8.9999   -0.0497   27.7656 H   0  0  0  0  0  0  0  0  0  0  0  0
    9.2353   -1.4239   25.7216 H   0  0  0  0  0  0  0  0  0  0  0  0
    5.4978   -3.1871   24.8709 C   0  0  0  0  0  0  0  0  0  0  0  0
    4.4287   -3.6393   25.6607 C   0  0  0  0  0  0  0  0  0  0  0  0
    6.5143   -3.4827   25.1008 H   0  0  0  0  0  0  0  0  0  0  0  0
    3.7919   -1.1445   22.7755 H   0  0  0  0  0  0  0  0  0  0  0  0
    1.9621   -1.7430   24.3255 H   0  0  0  0  0  0  0  0  0  0  0  0
    1.6214   -2.8098   26.9336 H   0  0  0  0  0  0  0  0  0  0  0  0
    1.0934   -3.8490   25.6298 H   0  0  0  0  0  0  0  0  0  0  0  0
    1.5276   -5.0245   27.8897 H   0  0  0  0  0  0  0  0  0  0  0  0
    2.3615   -5.7411   26.5044 H   0  0  0  0  0  0  0  0  0  0  0  0
    3.5992   -3.6801   28.3817 H   0  0  0  0  0  0  0  0  0  0  0  0
    3.8975   -5.4289   28.4564 H   0  0  0  0  0  0  0  0  0  0  0  0
    7.4382   -4.8519   28.6076 H   0  0  0  0  0  0  0  0  0  0  0  0
    5.7801   -4.4886   29.1751 H   0  0  0  0  0  0  0  0  0  0  0  0
    5.8346   -2.3928   27.7313 H   0  0  0  0  0  0  0  0  0  0  0  0
    6.9097   -2.3010   29.1623 H   0  0  0  0  0  0  0  0  0  0  0  0
    7.5588   -2.6164   27.5368 H   0  0  0  0  0  0  0  0  0  0  0  0
  1  2  1  0
  2  3  1  0
  3  4  2  0
  3  5  1  0
  5  6  1  0
  6  7  1  0
  7  8  1  0
  8  9  1  0
  9 10  2  0
 10 11  1  0
 11 12  2  0
 12 13  1  0
 13 14  1  0
 14 15  2  0
 14 16  1  0
 16 17  1  0
 17 18  2  0
 18 19  1  0
 19 20  2  0
 20 21  1  0
 21 22  2  0
 22 23  1  0
 23 24  2  0
 24 25  1  0
 25 26  2  0
 25 27  1  0
 24 28  1  0
 23 29  1  0
 22 30  1  0
 20 31  1  0
 18 32  1  0
 16 33  1  0
 16 34  1  0
 13 35  1  0
 35 36  1  0
 36 37  1  0
 36 38  1  0
 36 39  1  0
 35 40  1  0
 40 41  2  0
 41 42  1  0
 42 43  2  0
 43 44  1  0
 44 45  1  0
 44 46  2  0
 46 47  1  0
 43 48  1  0
 42 49  1  0
 41 50  1  0
 12 51  1  0
 51 52  2  0
 51 53  1  0
 11 54  1  0
 10 55  1  0
  8 56  1  0
  8 57  1  0
  7 58  1  0
  7 59  1  0
  6 60  1  0
  6 61  1  0
  2 62  1  0
  2 63  1  0
  1 64  1  0
  1 65  1  0
  1 66  1  0
 52  5  1  0
 52  9  1  0
 26 17  1  0
 46 40  1  0
 26 21  1  0
M  END
>  <cnnaffinities>  (21) 
[6.41764]

>  <score>  (21) 
6.41764

>  <index>  (21) 
20

>  <Smiles>  (21) 
C(C(C(=O)N1C(C(C(c2c(c(c(N(C(=O)C(c3c(nc(c4c(c(c(c(c34)[H])[H])[H])[H])[H])[H])([H])[H])N(C([H])([H])[H])c3c(c(c(c(Cl)c3[H])[H])[H])[H])c(c12)[H])[H])[H])([H])[H])([H])[H])([H])[H])([H])[H])([H])([H])[H]

>  <h>  (21) 
<NA>

>  <Training>  (21) 
True

>  <Success>  (21) 
True

>  <enamine_searched>  (21) 
False

>  <enamine_id>  (21) 
nan

$$$$

     RDKit          3D

 59 64  0  0  0  0  0  0  0  0999 V2000
    9.6613   -1.9776   21.8403 C   0  0  0  0  0  0  0  0  0  0  0  0
    8.6209   -0.9563   22.3215 C   0  0  1  0  0  0  0  0  0  0  0  0
    8.2076   -0.0267   21.1623 C   0  0  0  0  0  0  0  0  0  0  0  0
    6.8832   -0.4696   20.8076 N   0  0  0  0  0  0  0  0  0  0  0  0
    6.1287    0.0753   19.7510 C   0  0  0  0  0  0  0  0  0  0  0  0
    6.4784   -0.2035   18.4552 C   0  0  0  0  0  0  0  0  0  0  0  0
    5.8106    0.2504   17.3684 N   0  0  0  0  0  0  0  0  0  0  0  0
    4.7747    1.0241   17.5911 C   0  0  0  0  0  0  0  0  0  0  0  0
    4.3220    1.4032   18.8870 C   0  0  0  0  0  0  0  0  0  0  0  0
    3.2047    2.2601   19.0489 C   0  0  0  0  0  0  0  0  0  0  0  0
    2.8026    2.6457   20.2963 C   0  0  0  0  0  0  0  0  0  0  0  0
    3.4980    2.1883   21.4409 C   0  0  0  0  0  0  0  0  0  0  0  0
    4.5779    1.3475   21.3176 C   0  0  0  0  0  0  0  0  0  0  0  0
    5.0119    0.9258   20.0209 C   0  0  0  0  0  0  0  0  0  0  0  0
    5.1045    1.0078   22.2125 H   0  0  0  0  0  0  0  0  0  0  0  0
    3.1726    2.5143   22.4252 H   0  0  0  0  0  0  0  0  0  0  0  0
    1.9535    3.3135   20.4158 H   0  0  0  0  0  0  0  0  0  0  0  0
    2.7021    2.6152   18.1533 H   0  0  0  0  0  0  0  0  0  0  0  0
    4.2315    1.3957   16.7218 H   0  0  0  0  0  0  0  0  0  0  0  0
    7.3318   -0.8520   18.2587 H   0  0  0  0  0  0  0  0  0  0  0  0
    6.3357   -1.3924   21.6580 C   0  0  0  0  0  0  0  0  0  0  0  0
    5.2941   -1.9774   21.4401 O   0  0  0  0  0  0  0  0  0  0  0  0
    7.2824   -1.5628   22.8633 C   0  0  1  0  0  0  0  0  0  0  0  0
    7.3544   -3.0766   23.1687 C   0  0  0  0  0  0  0  0  0  0  0  0
    6.1173   -3.5457   23.7730 N   0  0  0  0  0  0  0  0  0  0  0  0
    5.4695   -4.7555   23.2802 C   0  0  0  0  0  0  0  0  0  0  0  0
    6.1360   -6.0280   23.7412 C   0  0  0  0  0  0  0  0  0  0  0  0
    5.6199   -7.1212   24.4806 C   0  0  0  0  0  0  0  0  0  0  0  0
    6.5355   -8.0550   24.7012 N   0  0  0  0  0  0  0  0  0  0  0  0
    7.6636   -7.5488   24.1881 N   0  0  0  0  0  0  0  0  0  0  0  0
    8.8721   -8.3231   24.1955 C   0  0  0  0  0  0  0  0  0  0  0  0
    9.6876   -7.7058   23.8466 H   0  0  0  0  0  0  0  0  0  0  0  0
    9.1367   -8.6431   25.2019 H   0  0  0  0  0  0  0  0  0  0  0  0
    8.7945   -9.1941   23.5432 H   0  0  0  0  0  0  0  0  0  0  0  0
    7.4725   -6.3398   23.6126 C   0  0  0  0  0  0  0  0  0  0  0  0
    8.3290   -5.7577   23.2817 H   0  0  0  0  0  0  0  0  0  0  0  0
    4.6205   -7.2258   24.8979 H   0  0  0  0  0  0  0  0  0  0  0  0
    4.4381   -4.7102   23.6419 H   0  0  0  0  0  0  0  0  0  0  0  0
    5.4162   -4.6693   22.1804 H   0  0  0  0  0  0  0  0  0  0  0  0
    5.6303   -2.9600   24.9093 C   0  0  0  0  0  0  0  0  0  0  0  0
    4.8583   -3.5258   25.6715 O   0  0  0  0  0  0  0  0  0  0  0  0
    6.0465   -1.5345   25.1009 C   0  0  0  0  0  0  0  0  0  0  0  0
    5.6180   -0.9123   26.2721 C   0  0  0  0  0  0  0  0  0  0  0  0
    5.8529    0.4300   26.4859 C   0  0  0  0  0  0  0  0  0  0  0  0
    6.5404    1.1321   25.5037 C   0  0  0  0  0  0  0  0  0  0  0  0
    6.7736    2.4437   25.7039 F   0  0  0  0  0  0  0  0  0  0  0  0
    7.0052    0.5319   24.3445 C   0  0  0  0  0  0  0  0  0  0  0  0
    6.7725   -0.8389   24.1205 C   0  0  0  0  0  0  0  0  0  0  0  0
    7.5753    1.1548   23.6610 H   0  0  0  0  0  0  0  0  0  0  0  0
    5.5089    0.9356   27.3802 H   0  0  0  0  0  0  0  0  0  0  0  0
    5.0873   -1.5179   27.0008 H   0  0  0  0  0  0  0  0  0  0  0  0
    7.5013   -3.6342   22.2389 H   0  0  0  0  0  0  0  0  0  0  0  0
    8.2111   -3.2591   23.8382 H   0  0  0  0  0  0  0  0  0  0  0  0
    8.2090    1.0352   21.4398 H   0  0  0  0  0  0  0  0  0  0  0  0
    8.8844   -0.1305   20.3147 H   0  0  0  0  0  0  0  0  0  0  0  0
    9.1026   -0.3784   23.1156 H   0  0  0  0  0  0  0  0  0  0  0  0
    9.2807   -2.6058   21.0284 H   0  0  0  0  0  0  0  0  0  0  0  0
    9.9857   -2.6321   22.6533 H   0  0  0  0  0  0  0  0  0  0  0  0
   10.5506   -1.4595   21.4652 H   0  0  0  0  0  0  0  0  0  0  0  0
  1  2  1  0
  2  3  1  0
  3  4  1  0
  4  5  1  0
  5  6  2  0
  6  7  1  0
  7  8  2  0
  8  9  1  0
  9 10  2  0
 10 11  1  0
 11 12  2  0
 12 13  1  0
 13 14  2  0
 13 15  1  0
 12 16  1  0
 11 17  1  0
 10 18  1  0
  8 19  1  0
  6 20  1  0
  4 21  1  0
 21 22  2  0
 21 23  1  0
 23 24  1  1
 24 25  1  0
 25 26  1  0
 26 27  1  0
 27 28  1  0
 28 29  2  0
 29 30  1  0
 30 31  1  0
 31 32  1  0
 31 33  1  0
 31 34  1  0
 30 35  1  0
 35 36  1  0
 28 37  1  0
 26 38  1  0
 26 39  1  0
 25 40  1  0
 40 41  2  0
 40 42  1  0
 42 43  2  0
 43 44  1  0
 44 45  2  0
 45 46  1  0
 45 47  1  0
 47 48  2  0
 47 49  1  0
 44 50  1  0
 43 51  1  0
 24 52  1  0
 24 53  1  0
  3 54  1  0
  3 55  1  0
  2 56  1  1
  1 57  1  0
  1 58  1  0
  1 59  1  0
 23  2  1  0
 35 27  2  0
 48 42  1  0
 14  5  1  0
 48 23  1  0
 14  9  1  0
M  END
>  <cnnaffinities>  (22) 
[6.3653]

>  <score>  (22) 
6.3653

>  <index>  (22) 
21

>  <Smiles>  (22) 
C([C@]1(C(N(c2c(nc(c3c(c(c(c(c23)[H])[H])[H])[H])[H])[H])C(=O)[C@]21C(N(C(c1c(nn(C([H])([H])[H])c1[H])[H])([H])[H])C(=O)c1c(c(c(F)c(c21)[H])[H])[H])([H])[H])([H])[H])[H])([H])([H])[H]

>  <h>  (22) 
<NA>

>  <Training>  (22) 
True

>  <Success>  (22) 
True

>  <enamine_searched>  (22) 
False

>  <enamine_id>  (22) 
nan

$$$$

     RDKit          3D

 41 44  0  0  0  0  0  0  0  0999 V2000
    5.0961   -2.0838   21.2780 O   0  0  0  0  0  0  0  0  0  0  0  0
    6.2879   -1.8550   21.4521 C   0  0  0  0  0  0  0  0  0  0  0  0
    6.9215   -0.5693   20.9037 C   0  0  0  0  0  0  0  0  0  0  0  0
    6.1165    0.0389   19.7810 C   0  0  0  0  0  0  0  0  0  0  0  0
    6.4391   -0.2401   18.4784 C   0  0  0  0  0  0  0  0  0  0  0  0
    5.7859    0.2210   17.3775 N   0  0  0  0  0  0  0  0  0  0  0  0
    4.7607    1.0106   17.5887 C   0  0  0  0  0  0  0  0  0  0  0  0
    4.3026    1.3887   18.8772 C   0  0  0  0  0  0  0  0  0  0  0  0
    3.1915    2.2532   19.0457 C   0  0  0  0  0  0  0  0  0  0  0  0
    2.7685    2.6059   20.2973 C   0  0  0  0  0  0  0  0  0  0  0  0
    3.4452    2.1101   21.4349 C   0  0  0  0  0  0  0  0  0  0  0  0
    4.5238    1.2714   21.2979 C   0  0  0  0  0  0  0  0  0  0  0  0
    4.9888    0.8872   20.0124 C   0  0  0  0  0  0  0  0  0  0  0  0
    5.0289    0.8933   22.1825 H   0  0  0  0  0  0  0  0  0  0  0  0
    3.1088    2.4068   22.4253 H   0  0  0  0  0  0  0  0  0  0  0  0
    1.9155    3.2679   20.4254 H   0  0  0  0  0  0  0  0  0  0  0  0
    2.6935    2.6351   18.1557 H   0  0  0  0  0  0  0  0  0  0  0  0
    4.2277    1.3928   16.7145 H   0  0  0  0  0  0  0  0  0  0  0  0
    7.2916   -0.8823   18.2555 H   0  0  0  0  0  0  0  0  0  0  0  0
    7.0468    0.1415   21.7330 H   0  0  0  0  0  0  0  0  0  0  0  0
    7.9298   -0.8108   20.5387 H   0  0  0  0  0  0  0  0  0  0  0  0
    7.0857   -2.7441   22.1212 N   0  0  0  0  0  0  0  0  0  0  0  0
    8.4368   -2.4545   22.6012 C   0  0  0  0  0  0  0  0  0  0  0  0
    8.7549   -3.2034   23.8950 C   0  0  0  0  0  0  0  0  0  0  0  0
    8.4108   -4.6694   23.8164 C   0  0  0  0  0  0  0  0  0  0  0  0
    9.0966   -5.6586   24.5311 C   0  0  0  0  0  0  0  0  0  0  0  0
   10.4274   -5.2316   25.5810 Cl  0  0  0  0  0  0  0  0  0  0  0  0
    8.7852   -7.0094   24.4149 C   0  0  0  0  0  0  0  0  0  0  0  0
    7.7739   -7.3969   23.5431 C   0  0  0  0  0  0  0  0  0  0  0  0
    7.0514   -6.4279   22.8591 C   0  0  0  0  0  0  0  0  0  0  0  0
    7.3327   -5.0712   23.0258 C   0  0  0  0  0  0  0  0  0  0  0  0
    6.4483   -4.0329   22.3748 C   0  0  0  0  0  0  0  0  0  0  0  0
    6.0882   -4.4346   21.4227 H   0  0  0  0  0  0  0  0  0  0  0  0
    5.5341   -3.8263   22.9525 H   0  0  0  0  0  0  0  0  0  0  0  0
    6.2892   -6.7368   22.1483 H   0  0  0  0  0  0  0  0  0  0  0  0
    7.5459   -8.4523   23.4186 H   0  0  0  0  0  0  0  0  0  0  0  0
    9.3586   -7.7353   24.9863 H   0  0  0  0  0  0  0  0  0  0  0  0
    9.8177   -3.1140   24.1175 H   0  0  0  0  0  0  0  0  0  0  0  0
    8.2274   -2.7003   24.7151 H   0  0  0  0  0  0  0  0  0  0  0  0
    8.5122   -1.3807   22.8053 H   0  0  0  0  0  0  0  0  0  0  0  0
    9.1894   -2.6902   21.8361 H   0  0  0  0  0  0  0  0  0  0  0  0
  1  2  2  0
  2  3  1  0
  3  4  1  0
  4  5  2  0
  5  6  1  0
  6  7  2  0
  7  8  1  0
  8  9  2  0
  9 10  1  0
 10 11  2  0
 11 12  1  0
 12 13  2  0
 12 14  1  0
 11 15  1  0
 10 16  1  0
  9 17  1  0
  7 18  1  0
  5 19  1  0
  3 20  1  0
  3 21  1  0
  2 22  1  0
 22 23  1  0
 23 24  1  0
 24 25  1  0
 25 26  2  0
 26 27  1  0
 26 28  1  0
 28 29  2  0
 29 30  1  0
 30 31  2  0
 31 32  1  0
 32 33  1  0
 32 34  1  0
 30 35  1  0
 29 36  1  0
 28 37  1  0
 24 38  1  0
 24 39  1  0
 23 40  1  0
 23 41  1  0
 13  4  1  0
 32 22  1  0
 13  8  1  0
 31 25  1  0
M  END
>  <cnnaffinities>  (23) 
[5.76372]

>  <score>  (23) 
5.76372

>  <index>  (23) 
22

>  <Smiles>  (23) 
O=C(C(c1c(nc(c2c(c(c(c(c12)[H])[H])[H])[H])[H])[H])([H])[H])N1C(C(c2c(Cl)c(c(c(c2C1([H])[H])[H])[H])[H])([H])[H])([H])[H]

>  <h>  (23) 
<NA>

>  <Training>  (23) 
True

>  <Success>  (23) 
True

>  <enamine_searched>  (23) 
False

>  <enamine_id>  (23) 
nan

$$$$

     RDKit          3D

 69 74  0  0  0  0  0  0  0  0999 V2000
    4.0083    7.0524   20.5002 C   0  0  0  0  0  0  0  0  0  0  0  0
    4.8376    6.4739   21.6289 C   0  0  1  0  0  0  0  0  0  0  0  0
    5.7454    5.3520   21.1295 C   0  0  0  0  0  0  0  0  0  0  0  0
    6.4726    4.7439   22.2850 N   0  0  1  0  0  4  0  0  0  0  0  0
    7.3333    3.5809   21.9340 C   0  0  0  0  0  0  0  0  0  0  0  0
    7.6886    2.8087   23.2006 C   0  0  0  0  0  0  0  0  0  0  0  0
    8.5300    1.6612   22.9669 N   0  0  0  0  0  0  0  0  0  0  0  0
    8.0425    0.3384   23.2886 C   0  0  0  0  0  0  0  0  0  0  0  0
    8.4355   -0.6141   22.1449 C   0  0  2  0  0  0  0  0  0  0  0  0
    7.8378   -0.0347   20.8510 C   0  0  0  0  0  0  0  0  0  0  0  0
    8.2647    0.8965   20.1990 O   0  0  0  0  0  0  0  0  0  0  0  0
    6.6737   -0.7080   20.5610 N   0  0  0  0  0  0  0  0  0  0  0  0
    5.8753   -0.1277   19.5454 C   0  0  0  0  0  0  0  0  0  0  0  0
    6.2517   -0.3005   18.2369 C   0  0  0  0  0  0  0  0  0  0  0  0
    5.6150    0.2614   17.1820 N   0  0  0  0  0  0  0  0  0  0  0  0
    4.6176    1.0753   17.4452 C   0  0  0  0  0  0  0  0  0  0  0  0
    4.1829    1.4115   18.7595 C   0  0  0  0  0  0  0  0  0  0  0  0
    3.1408    2.3438   19.0068 C   0  0  0  0  0  0  0  0  0  0  0  0
    2.8076    2.6954   20.2871 C   0  0  0  0  0  0  0  0  0  0  0  0
    3.5143    2.1555   21.3814 C   0  0  0  0  0  0  0  0  0  0  0  0
    4.5261    1.2483   21.1709 C   0  0  0  0  0  0  0  0  0  0  0  0
    4.8554    0.8236   19.8539 C   0  0  0  0  0  0  0  0  0  0  0  0
    5.1074    0.8933   22.0143 H   0  0  0  0  0  0  0  0  0  0  0  0
    3.2732    2.4671   22.3909 H   0  0  0  0  0  0  0  0  0  0  0  0
    2.0143    3.4161   20.4625 H   0  0  0  0  0  0  0  0  0  0  0  0
    2.6364    2.7824   18.1553 H   0  0  0  0  0  0  0  0  0  0  0  0
    4.1174    1.5328   16.5922 H   0  0  0  0  0  0  0  0  0  0  0  0
    7.1304   -0.8980   18.0022 H   0  0  0  0  0  0  0  0  0  0  0  0
    6.3364   -1.7001   21.5810 C   0  0  0  0  0  0  0  0  0  0  0  0
    7.7114   -1.9871   22.2355 C   0  0  2  0  0  0  0  0  0  0  0  0
    7.6225   -2.6490   23.6141 C   0  0  0  0  0  0  0  0  0  0  0  0
    7.0933   -3.6094   23.5608 H   0  0  0  0  0  0  0  0  0  0  0  0
    7.0792   -2.0253   24.3336 H   0  0  0  0  0  0  0  0  0  0  0  0
    8.6179   -2.8374   24.0330 H   0  0  0  0  0  0  0  0  0  0  0  0
    8.2328   -2.6719   21.5589 H   0  0  0  0  0  0  0  0  0  0  0  0
    5.8745   -2.5856   21.1361 H   0  0  0  0  0  0  0  0  0  0  0  0
    5.6363   -1.3029   22.3357 H   0  0  0  0  0  0  0  0  0  0  0  0
    9.9311   -0.5613   21.9856 C   0  0  0  0  0  0  0  0  0  0  0  0
   10.6205   -1.5663   21.3092 C   0  0  0  0  0  0  0  0  0  0  0  0
   11.9595   -1.3892   21.0065 C   0  0  0  0  0  0  0  0  0  0  0  0
   12.7168   -2.5257   19.9261 Cl  0  0  0  0  0  0  0  0  0  0  0  0
   12.6606   -0.2535   21.4281 C   0  0  0  0  0  0  0  0  0  0  0  0
   11.9644    0.7519   22.0576 C   0  0  0  0  0  0  0  0  0  0  0  0
   10.5979    0.6340   22.2828 C   0  0  0  0  0  0  0  0  0  0  0  0
    9.8506    1.8669   22.6845 C   0  0  0  0  0  0  0  0  0  0  0  0
   10.3876    2.9702   22.7010 O   0  0  0  0  0  0  0  0  0  0  0  0
   12.4552    1.6696   22.3404 H   0  0  0  0  0  0  0  0  0  0  0  0
   13.6913   -0.0982   21.1154 H   0  0  0  0  0  0  0  0  0  0  0  0
   10.1008   -2.4587   20.9763 H   0  0  0  0  0  0  0  0  0  0  0  0
    8.4444   -0.0342   24.2425 H   0  0  0  0  0  0  0  0  0  0  0  0
    6.9519    0.3863   23.3797 H   0  0  0  0  0  0  0  0  0  0  0  0
    6.7787    2.4525   23.6898 H   0  0  0  0  0  0  0  0  0  0  0  0
    8.1995    3.4765   23.8961 H   0  0  0  0  0  0  0  0  0  0  0  0
    8.2531    3.9420   21.4701 H   0  0  0  0  0  0  0  0  0  0  0  0
    6.8151    2.9477   21.2057 H   0  0  0  0  0  0  0  0  0  0  0  0
    7.2429    5.8401   22.9904 C   0  0  0  0  0  0  0  0  0  0  0  0
    6.3327    7.0147   23.3312 C   0  0  0  0  0  0  0  0  0  0  0  0
    5.6212    7.5056   22.2140 O   0  0  0  0  0  0  0  0  0  0  0  0
    5.6331    6.7070   24.1279 H   0  0  0  0  0  0  0  0  0  0  0  0
    6.9344    7.8414   23.7160 H   0  0  0  0  0  0  0  0  0  0  0  0
    7.6691    5.4430   23.9137 H   0  0  0  0  0  0  0  0  0  0  0  0
    8.0594    6.1642   22.3329 H   0  0  0  0  0  0  0  0  0  0  0  0
    5.7433    4.3685   22.9254 H   0  0  0  0  0  0  0  0  0  0  0  0
    5.1555    4.5830   20.6197 H   0  0  0  0  0  0  0  0  0  0  0  0
    6.4708    5.7647   20.4170 H   0  0  0  0  0  0  0  0  0  0  0  0
    4.1739    6.0573   22.4091 H   0  0  0  0  0  0  0  0  0  0  0  0
    3.3402    6.2760   20.1038 H   0  0  0  0  0  0  0  0  0  0  0  0
    3.3983    7.8987   20.8277 H   0  0  0  0  0  0  0  0  0  0  0  0
    4.6629    7.3898   19.6886 H   0  0  0  0  0  0  0  0  0  0  0  0
  1  2  1  0
  2  3  1  0
  3  4  1  0
  4  5  1  0
  5  6  1  0
  6  7  1  0
  7  8  1  0
  9  8  1  1
  9 10  1  0
 10 11  2  0
 10 12  1  0
 12 13  1  0
 13 14  2  0
 14 15  1  0
 15 16  2  0
 16 17  1  0
 17 18  2  0
 18 19  1  0
 19 20  2  0
 20 21  1  0
 21 22  2  0
 21 23  1  0
 20 24  1  0
 19 25  1  0
 18 26  1  0
 16 27  1  0
 14 28  1  0
 12 29  1  0
 29 30  1  0
 30 31  1  0
 31 32  1  0
 31 33  1  0
 31 34  1  0
 30 35  1  6
 29 36  1  0
 29 37  1  0
  9 38  1  0
 38 39  2  0
 39 40  1  0
 40 41  1  0
 40 42  2  0
 42 43  1  0
 43 44  2  0
 44 45  1  0
 45 46  2  0
 43 47  1  0
 42 48  1  0
 39 49  1  0
  8 50  1  0
  8 51  1  0
  6 52  1  0
  6 53  1  0
  5 54  1  0
  5 55  1  0
  4 56  1  0
 56 57  1  0
 57 58  1  0
 57 59  1  0
 57 60  1  0
 56 61  1  0
 56 62  1  0
  4 63  1  1
  3 64  1  0
  3 65  1  0
  2 66  1  1
  1 67  1  0
  1 68  1  0
  1 69  1  0
 58  2  1  0
 45  7  1  0
 30  9  1  0
 44 38  1  0
 22 13  1  0
 22 17  1  0
M  CHG  1   4   1
M  END
>  <cnnaffinities>  (24) 
[6.49366]

>  <score>  (24) 
6.49366

>  <index>  (24) 
23

>  <Smiles>  (24) 
C([C@]1(C([N@@+](C(C(N2C([C@@]3(C(=O)N(c4c(nc(c5c(c(c(c(c45)[H])[H])[H])[H])[H])[H])C([C@@]3(C([H])([H])[H])[H])([H])[H])c3c(c(Cl)c(c(c3C2=O)[H])[H])[H])([H])[H])([H])[H])([H])[H])(C(C(O1)([H])[H])([H])[H])[H])([H])[H])[H])([H])([H])[H]

>  <h>  (24) 
<NA>

>  <Training>  (24) 
True

>  <Success>  (24) 
True

>  <enamine_searched>  (24) 
False

>  <enamine_id>  (24) 
nan

$$$$

     RDKit          3D

 70 75  0  0  0  0  0  0  0  0999 V2000
    4.6185   -7.7557   24.1191 C   0  0  0  0  0  0  0  0  0  0  0  0
    5.9674   -7.4260   23.6092 N   0  0  0  0  0  4  0  0  0  0  0  0
    6.4493   -6.0827   24.0523 C   0  0  0  0  0  0  0  0  0  0  0  0
    5.7406   -4.9336   23.3199 C   0  0  0  0  0  0  0  0  0  0  0  0
    6.2389   -3.6372   23.7329 N   0  0  0  0  0  0  0  0  0  0  0  0
    7.4590   -3.1099   23.1369 C   0  0  0  0  0  0  0  0  0  0  0  0
    7.3278   -1.6036   22.8113 C   0  0  2  0  0  0  0  0  0  0  0  0
    6.3783   -1.4411   21.6039 C   0  0  0  0  0  0  0  0  0  0  0  0
    5.3658   -2.0679   21.3690 O   0  0  0  0  0  0  0  0  0  0  0  0
    6.8759   -0.4511   20.7941 N   0  0  0  0  0  0  0  0  0  0  0  0
    6.1154    0.0875   19.7304 C   0  0  0  0  0  0  0  0  0  0  0  0
    6.4709   -0.1856   18.4362 C   0  0  0  0  0  0  0  0  0  0  0  0
    5.8065    0.2732   17.3470 N   0  0  0  0  0  0  0  0  0  0  0  0
    4.7693    1.0471   17.5622 C   0  0  0  0  0  0  0  0  0  0  0  0
    4.3086    1.4275   18.8569 C   0  0  0  0  0  0  0  0  0  0  0  0
    3.1919    2.2872   19.0302 C   0  0  0  0  0  0  0  0  0  0  0  0
    2.7943    2.6574   20.2843 C   0  0  0  0  0  0  0  0  0  0  0  0
    3.4886    2.1852   21.4230 C   0  0  0  0  0  0  0  0  0  0  0  0
    4.5653    1.3443   21.2879 C   0  0  0  0  0  0  0  0  0  0  0  0
    4.9980    0.9411   19.9884 C   0  0  0  0  0  0  0  0  0  0  0  0
    5.0950    0.9895   22.1743 H   0  0  0  0  0  0  0  0  0  0  0  0
    3.1667    2.4980   22.4118 H   0  0  0  0  0  0  0  0  0  0  0  0
    1.9470    3.3245   20.4155 H   0  0  0  0  0  0  0  0  0  0  0  0
    2.6795    2.6526   18.1434 H   0  0  0  0  0  0  0  0  0  0  0  0
    4.2371    1.4182   16.6858 H   0  0  0  0  0  0  0  0  0  0  0  0
    7.3286   -0.8286   18.2405 H   0  0  0  0  0  0  0  0  0  0  0  0
    8.1411    0.0974   21.2217 C   0  0  0  0  0  0  0  0  0  0  0  0
    8.6329   -0.9001   22.2860 C   0  0  2  0  0  0  0  0  0  0  0  0
    9.7154   -1.7875   21.6360 C   0  0  0  0  0  0  0  0  0  0  0  0
   10.3886   -2.6218   22.5296 O   0  0  0  0  0  0  0  0  0  0  0  0
   11.3248   -1.9256   23.3878 C   0  0  0  0  0  0  0  0  0  0  0  0
   11.8718   -2.6238   24.5549 C   0  0  0  0  0  0  0  0  0  0  0  0
   11.8543   -3.0367   24.4976 C   0  0  0  0  0  0  0  0  0  0  0  0
   14.2534   -3.0671   25.1407 O   0  0  0  0  0  0  0  0  0  0  0  0
   13.2965   -2.2497   24.9392 C   0  0  0  0  0  0  0  0  0  0  0  0
   13.1288   -1.6533   25.9024 H   0  0  0  0  0  0  0  0  0  0  0  0
   13.5899   -1.4213   24.1991 H   0  0  0  0  0  0  0  0  0  0  0  0
   11.7418   -4.1574   25.4431 H   0  0  0  0  0  0  0  0  0  0  0  0
   12.0615   -3.9726   23.7817 H   0  0  0  0  0  0  0  0  0  0  0  0
   11.1671   -2.5148   25.4210 H   0  0  0  0  0  0  0  0  0  0  0  0
   12.1151   -1.5025   22.7219 H   0  0  0  0  0  0  0  0  0  0  0  0
   10.7734   -1.0417   23.7568 H   0  0  0  0  0  0  0  0  0  0  0  0
   10.4486   -1.1472   21.1121 H   0  0  0  0  0  0  0  0  0  0  0  0
    9.2558   -2.4291   20.8735 H   0  0  0  0  0  0  0  0  0  0  0  0
    9.1052   -0.3779   23.1237 H   0  0  0  0  0  0  0  0  0  0  0  0
    8.8226    0.1667   20.3726 H   0  0  0  0  0  0  0  0  0  0  0  0
    8.0352    1.1211   21.6049 H   0  0  0  0  0  0  0  0  0  0  0  0
    6.7654   -0.8983   24.0559 C   0  0  0  0  0  0  0  0  0  0  0  0
    6.9601    0.4732   24.2829 C   0  0  0  0  0  0  0  0  0  0  0  0
    6.4611    1.0766   25.4271 C   0  0  0  0  0  0  0  0  0  0  0  0
    6.7496    2.7758   25.6911 Cl  0  0  0  0  0  0  0  0  0  0  0  0
    5.7373    0.3630   26.3791 C   0  0  0  0  0  0  0  0  0  0  0  0
    5.5038   -0.9763   26.1448 C   0  0  0  0  0  0  0  0  0  0  0  0
    6.0012   -1.5977   24.9999 C   0  0  0  0  0  0  0  0  0  0  0  0
    5.6457   -3.0369   24.8001 C   0  0  0  0  0  0  0  0  0  0  0  0
    4.8433   -3.6187   25.5227 O   0  0  0  0  0  0  0  0  0  0  0  0
    4.9244   -1.5786   26.8374 H   0  0  0  0  0  0  0  0  0  0  0  0
    5.3642    0.8600   27.2680 H   0  0  0  0  0  0  0  0  0  0  0  0
    7.5092    1.0999   23.5898 H   0  0  0  0  0  0  0  0  0  0  0  0
    7.6366   -3.6642   22.2154 H   0  0  0  0  0  0  0  0  0  0  0  0
    8.3119   -3.2666   23.8100 H   0  0  0  0  0  0  0  0  0  0  0  0
    5.8726   -5.0053   22.2306 H   0  0  0  0  0  0  0  0  0  0  0  0
    4.6667   -4.9425   23.5321 H   0  0  0  0  0  0  0  0  0  0  0  0
    7.5232   -6.0412   23.8878 H   0  0  0  0  0  0  0  0  0  0  0  0
    6.2669   -5.9841   25.1235 H   0  0  0  0  0  0  0  0  0  0  0  0
    5.9174   -7.4087   22.5634 H   0  0  0  0  0  0  0  0  0  0  0  0
    6.6251   -8.1716   23.9080 H   0  0  0  0  0  0  0  0  0  0  0  0
    4.5147   -7.4041   25.1453 H   0  0  0  0  0  0  0  0  0  0  0  0
    3.8406   -7.2754   23.5263 H   0  0  0  0  0  0  0  0  0  0  0  0
    4.4564   -8.8291   24.0910 H   0  0  0  0  0  0  0  0  0  0  0  0
  1  2  1  0
  2  3  1  0
  3  4  1  0
  4  5  1  0
  5  6  1  0
  7  6  1  1
  7  8  1  0
  8  9  2  0
  8 10  1  0
 10 11  1  0
 11 12  2  0
 12 13  1  0
 13 14  2  0
 14 15  1  0
 15 16  2  0
 16 17  1  0
 17 18  2  0
 18 19  1  0
 19 20  2  0
 19 21  1  0
 18 22  1  0
 17 23  1  0
 16 24  1  0
 14 25  1  0
 12 26  1  0
 10 27  1  0
 27 28  1  0
 28 29  1  0
 29 30  1  0
 30 31  1  0
 31 32  1  0
 32 33  1  0
 33 34  1  0
 34 35  1  0
 35 36  1  0
 35 37  1  0
 33 38  1  0
 33 39  1  0
 32 40  1  0
 31 41  1  0
 31 42  1  0
 29 43  1  0
 29 44  1  0
 28 45  1  1
 27 46  1  0
 27 47  1  0
  7 48  1  0
 48 49  2  0
 49 50  1  0
 50 51  1  0
 50 52  2  0
 52 53  1  0
 53 54  2  0
 54 55  1  0
 55 56  2  0
 53 57  1  0
 52 58  1  0
 49 59  1  0
  6 60  1  0
  6 61  1  0
  4 62  1  0
  4 63  1  0
  3 64  1  0
  3 65  1  0
  2 66  1  0
  2 67  1  0
  1 68  1  0
  1 69  1  0
  1 70  1  0
 55  5  1  0
 28  7  1  0
 35 32  1  0
 54 48  1  0
 20 11  1  0
 20 15  1  0
M  CHG  1   2   1
M  END
>  <cnnaffinities>  (25) 
[6.83245]

>  <score>  (25) 
6.83245

>  <index>  (25) 
24

>  <Smiles>  (25) 
C([N+](C(C(N1C([C@@]2(C(=O)N(c3c(nc(c4c(c(c(c(c34)[H])[H])[H])[H])[H])[H])C([C@@]2(C(OC(C2(C(OC2([H])[H])([H])[H])[H])([H])[H])([H])[H])[H])([H])[H])c2c(c(Cl)c(c(c2C1=O)[H])[H])[H])([H])[H])([H])[H])([H])[H])([H])[H])([H])([H])[H]

>  <h>  (25) 
<NA>

>  <Training>  (25) 
True

>  <Success>  (25) 
True

>  <enamine_searched>  (25) 
False

>  <enamine_id>  (25) 
nan

$$$$

     RDKit          3D

 68 73  0  0  0  0  0  0  0  0999 V2000
    7.5420   -8.4644   23.0664 C   0  0  0  0  0  0  0  0  0  0  0  0
    6.6930   -7.3149   22.8349 N   0  0  0  0  0  0  0  0  0  0  0  0
    6.8871   -6.5145   21.7562 C   0  0  0  0  0  0  0  0  0  0  0  0
    7.6678   -6.7594   20.8552 O   0  0  0  0  0  0  0  0  0  0  0  0
    6.0732   -5.2232   21.7991 C   0  0  0  0  0  0  0  0  0  0  0  0
    6.6439   -4.2680   22.7262 N   0  0  0  0  0  0  0  0  0  0  0  0
    7.7342   -3.3995   22.3177 C   0  0  0  0  0  0  0  0  0  0  0  0
    7.4101   -1.9253   22.6615 C   0  0  2  0  0  0  0  0  0  0  0  0
    6.3131   -1.4505   21.6832 C   0  0  0  0  0  0  0  0  0  0  0  0
    5.1826   -1.8822   21.5895 O   0  0  0  0  0  0  0  0  0  0  0  0
    6.8358   -0.4709   20.8631 N   0  0  0  0  0  0  0  0  0  0  0  0
    6.1073    0.0702   19.7876 C   0  0  0  0  0  0  0  0  0  0  0  0
    6.4687   -0.2141   18.4950 C   0  0  0  0  0  0  0  0  0  0  0  0
    5.8160    0.2345   17.3963 N   0  0  0  0  0  0  0  0  0  0  0  0
    4.7803    1.0139   17.5968 C   0  0  0  0  0  0  0  0  0  0  0  0
    4.3187    1.4097   18.8838 C   0  0  0  0  0  0  0  0  0  0  0  0
    3.1993    2.2678   19.0351 C   0  0  0  0  0  0  0  0  0  0  0  0
    2.7896    2.6571   20.2805 C   0  0  0  0  0  0  0  0  0  0  0  0
    3.4805    2.2134   21.4310 C   0  0  0  0  0  0  0  0  0  0  0  0
    4.5651    1.3794   21.3113 C   0  0  0  0  0  0  0  0  0  0  0  0
    4.9996    0.9414   20.0264 C   0  0  0  0  0  0  0  0  0  0  0  0
    5.0974    1.0449   22.1972 H   0  0  0  0  0  0  0  0  0  0  0  0
    3.1512    2.5401   22.4144 H   0  0  0  0  0  0  0  0  0  0  0  0
    1.9356    3.3195   20.3939 H   0  0  0  0  0  0  0  0  0  0  0  0
    2.6954    2.6171   18.1378 H   0  0  0  0  0  0  0  0  0  0  0  0
    4.2486    1.3729   16.7162 H   0  0  0  0  0  0  0  0  0  0  0  0
    7.3191   -0.8679   18.3056 H   0  0  0  0  0  0  0  0  0  0  0  0
    8.2767   -0.3889   20.9350 C   0  0  0  0  0  0  0  0  0  0  0  0
    8.5824   -0.9611   22.3176 C   0  0  2  0  0  0  0  0  0  0  0  0
    9.9889   -1.5455   22.3602 C   0  0  0  0  0  0  0  0  0  0  0  0
   10.2338   -2.1614   23.6437 N   0  0  0  0  0  0  0  0  0  0  0  0
   11.4962   -2.5889   24.0175 C   0  0  0  0  0  0  0  0  0  0  0  0
   12.7022   -2.5900   23.2936 C   0  0  0  0  0  0  0  0  0  0  0  0
   13.7218   -3.0524   24.0125 N   0  0  0  0  0  0  0  0  0  0  0  0
   13.1827   -3.3629   25.2019 N   0  0  0  0  0  0  0  0  0  0  0  0
   13.9910   -4.0383   26.1946 C   0  0  0  0  0  0  0  0  0  0  0  0
   15.0289   -3.7971   25.9961 H   0  0  0  0  0  0  0  0  0  0  0  0
   13.8635   -5.1246   26.1862 H   0  0  0  0  0  0  0  0  0  0  0  0
   13.7813   -3.6922   27.1980 H   0  0  0  0  0  0  0  0  0  0  0  0
   11.8355   -3.1797   25.2096 C   0  0  0  0  0  0  0  0  0  0  0  0
   11.1577   -3.6043   25.9231 H   0  0  0  0  0  0  0  0  0  0  0  0
   12.7657   -2.3813   22.2398 H   0  0  0  0  0  0  0  0  0  0  0  0
    9.6598   -1.8484   24.4149 H   0  0  0  0  0  0  0  0  0  0  0  0
   10.7283   -0.7573   22.1298 H   0  0  0  0  0  0  0  0  0  0  0  0
   10.0929   -2.3119   21.5766 H   0  0  0  0  0  0  0  0  0  0  0  0
    8.5438   -0.1345   23.0332 H   0  0  0  0  0  0  0  0  0  0  0  0
    8.6123    0.6473   20.8304 H   0  0  0  0  0  0  0  0  0  0  0  0
    8.7650   -0.9818   20.1464 H   0  0  0  0  0  0  0  0  0  0  0  0
    6.9404   -1.8699   24.1109 C   0  0  0  0  0  0  0  0  0  0  0  0
    6.9129   -0.6581   24.8196 C   0  0  0  0  0  0  0  0  0  0  0  0
    6.4319   -0.6167   26.1177 C   0  0  0  0  0  0  0  0  0  0  0  0
    6.3791    0.9165   26.9515 Cl  0  0  0  0  0  0  0  0  0  0  0  0
    5.9826   -1.7636   26.7724 C   0  0  0  0  0  0  0  0  0  0  0  0
    5.9779   -2.9555   26.0753 C   0  0  0  0  0  0  0  0  0  0  0  0
    6.4171   -3.0055   24.7541 C   0  0  0  0  0  0  0  0  0  0  0  0
    6.2052   -4.2756   24.0097 C   0  0  0  0  0  0  0  0  0  0  0  0
    5.6145   -5.2467   24.4919 O   0  0  0  0  0  0  0  0  0  0  0  0
    5.6114   -3.8676   26.5333 H   0  0  0  0  0  0  0  0  0  0  0  0
    5.6251   -1.7047   27.7955 H   0  0  0  0  0  0  0  0  0  0  0  0
    7.2328    0.2751   24.3675 H   0  0  0  0  0  0  0  0  0  0  0  0
    7.8714   -3.5001   21.2444 H   0  0  0  0  0  0  0  0  0  0  0  0
    8.6733   -3.6960   22.7979 H   0  0  0  0  0  0  0  0  0  0  0  0
    6.0481   -4.7712   20.8061 H   0  0  0  0  0  0  0  0  0  0  0  0
    5.0503   -5.4375   22.1203 H   0  0  0  0  0  0  0  0  0  0  0  0
    6.2191   -6.8922   23.6222 H   0  0  0  0  0  0  0  0  0  0  0  0
    8.5740   -8.1661   23.2920 H   0  0  0  0  0  0  0  0  0  0  0  0
    7.5432   -9.1273   22.1967 H   0  0  0  0  0  0  0  0  0  0  0  0
    7.1455   -9.0202   23.9203 H   0  0  0  0  0  0  0  0  0  0  0  0
  1  2  1  0
  2  3  1  0
  3  4  2  0
  3  5  1  0
  5  6  1  0
  6  7  1  0
  8  7  1  6
  8  9  1  0
  9 10  2  0
  9 11  1  0
 11 12  1  0
 12 13  2  0
 13 14  1  0
 14 15  2  0
 15 16  1  0
 16 17  2  0
 17 18  1  0
 18 19  2  0
 19 20  1  0
 20 21  2  0
 20 22  1  0
 19 23  1  0
 18 24  1  0
 17 25  1  0
 15 26  1  0
 13 27  1  0
 11 28  1  0
 28 29  1  0
 29 30  1  0
 30 31  1  0
 31 32  1  0
 32 33  1  0
 33 34  2  0
 34 35  1  0
 35 36  1  0
 36 37  1  0
 36 38  1  0
 36 39  1  0
 35 40  1  0
 40 41  1  0
 33 42  1  0
 31 43  1  0
 30 44  1  0
 30 45  1  0
 29 46  1  1
 28 47  1  0
 28 48  1  0
  8 49  1  0
 49 50  2  0
 50 51  1  0
 51 52  1  0
 51 53  2  0
 53 54  1  0
 54 55  2  0
 55 56  1  0
 56 57  2  0
 54 58  1  0
 53 59  1  0
 50 60  1  0
  7 61  1  0
  7 62  1  0
  5 63  1  0
  5 64  1  0
  2 65  1  0
  1 66  1  0
  1 67  1  0
  1 68  1  0
 56  6  1  0
 29  8  1  0
 40 32  2  0
 55 49  1  0
 21 12  1  0
 21 16  1  0
M  END
>  <cnnaffinities>  (26) 
[7.54157]

>  <score>  (26) 
7.54157

>  <index>  (26) 
25

>  <Smiles>  (26) 
C(N(C(=O)C(N1C([C@@]2(C(=O)N(c3c(nc(c4c(c(c(c(c34)[H])[H])[H])[H])[H])[H])C([C@@]2(C(N(c2c(nn(C([H])([H])[H])c2[H])[H])[H])([H])[H])[H])([H])[H])c2c(c(Cl)c(c(c2C1=O)[H])[H])[H])([H])[H])([H])[H])[H])([H])([H])[H]

>  <h>  (26) 
<NA>

>  <Training>  (26) 
True

>  <Success>  (26) 
True

>  <enamine_searched>  (26) 
False

>  <enamine_id>  (26) 
nan

$$$$

     RDKit          3D

 43 47  0  0  0  0  0  0  0  0999 V2000
    8.8652    0.5765   20.6038 O   0  0  0  0  0  0  0  0  0  0  0  0
    8.2154   -0.3423   21.0321 C   0  0  0  0  0  0  0  0  0  0  0  0
    8.6514   -1.4252   21.7598 N   0  0  0  0  0  0  0  0  0  0  0  0
    7.5487   -2.1037   22.4226 C   0  0  1  0  0  0  0  0  0  0  0  0
    7.5764   -3.6431   22.5008 C   0  0  0  0  0  0  0  0  0  0  0  0
    7.6435   -3.5799   24.0572 C   0  0  2  0  0  0  0  0  0  0  0  0
    6.5398   -4.2874   24.7990 C   0  0  0  0  0  0  0  0  0  0  0  0
    5.2165   -4.1204   24.3792 C   0  0  0  0  0  0  0  0  0  0  0  0
    4.1503   -4.7154   25.0465 C   0  0  0  0  0  0  0  0  0  0  0  0
    4.3826   -5.4321   26.2167 C   0  0  0  0  0  0  0  0  0  0  0  0
    5.6785   -5.5693   26.6880 C   0  0  0  0  0  0  0  0  0  0  0  0
    6.7438   -5.0455   25.9550 C   0  0  0  0  0  0  0  0  0  0  0  0
    8.3659   -5.3639   26.5133 Cl  0  0  0  0  0  0  0  0  0  0  0  0
    5.8486   -6.0822   27.6293 H   0  0  0  0  0  0  0  0  0  0  0  0
    3.5690   -5.8397   26.8098 H   0  0  0  0  0  0  0  0  0  0  0  0
    3.1400   -4.5924   24.6741 H   0  0  0  0  0  0  0  0  0  0  0  0
    5.0205   -3.4639   23.5336 H   0  0  0  0  0  0  0  0  0  0  0  0
    7.5041   -2.0225   23.9661 C   0  0  0  0  0  0  0  0  0  0  0  0
    8.2933   -1.4119   24.4210 H   0  0  0  0  0  0  0  0  0  0  0  0
    6.5375   -1.6624   24.3242 H   0  0  0  0  0  0  0  0  0  0  0  0
    8.6264   -3.8843   24.4170 H   0  0  0  0  0  0  0  0  0  0  0  0
    8.4352   -4.0943   22.0053 H   0  0  0  0  0  0  0  0  0  0  0  0
    6.6688   -4.1104   22.1076 H   0  0  0  0  0  0  0  0  0  0  0  0
    6.3451   -1.5315   21.6986 C   0  0  0  0  0  0  0  0  0  0  0  0
    5.1893   -1.8740   21.7967 O   0  0  0  0  0  0  0  0  0  0  0  0
    6.8316   -0.5196   20.8721 N   0  0  0  0  0  0  0  0  0  0  0  0
    6.1089    0.0621   19.7987 C   0  0  0  0  0  0  0  0  0  0  0  0
    6.4746   -0.2255   18.5084 C   0  0  0  0  0  0  0  0  0  0  0  0
    5.8190    0.2257   17.4115 N   0  0  0  0  0  0  0  0  0  0  0  0
    4.7859    1.0089   17.6076 C   0  0  0  0  0  0  0  0  0  0  0  0
    4.3192    1.4043   18.8945 C   0  0  0  0  0  0  0  0  0  0  0  0
    3.2024    2.2681   19.0518 C   0  0  0  0  0  0  0  0  0  0  0  0
    2.7956    2.6486   20.3022 C   0  0  0  0  0  0  0  0  0  0  0  0
    3.4857    2.1915   21.4497 C   0  0  0  0  0  0  0  0  0  0  0  0
    4.5665    1.3532   21.3240 C   0  0  0  0  0  0  0  0  0  0  0  0
    5.0004    0.9298   20.0354 C   0  0  0  0  0  0  0  0  0  0  0  0
    5.1041    1.0043   22.2020 H   0  0  0  0  0  0  0  0  0  0  0  0
    3.1619    2.5125   22.4373 H   0  0  0  0  0  0  0  0  0  0  0  0
    1.9440    3.3145   20.4236 H   0  0  0  0  0  0  0  0  0  0  0  0
    2.6997    2.6267   18.1569 H   0  0  0  0  0  0  0  0  0  0  0  0
    4.2624    1.3742   16.7223 H   0  0  0  0  0  0  0  0  0  0  0  0
    7.3317   -0.8690   18.3197 H   0  0  0  0  0  0  0  0  0  0  0  0
    9.5481   -1.3115   22.2058 H   0  0  0  0  0  0  0  0  0  0  0  0
  1  2  2  0
  2  3  1  0
  4  3  1  6
  4  5  1  0
  5  6  1  0
  6  7  1  0
  7  8  2  0
  8  9  1  0
  9 10  2  0
 10 11  1  0
 11 12  2  0
 12 13  1  0
 11 14  1  0
 10 15  1  0
  9 16  1  0
  8 17  1  0
  6 18  1  0
 18 19  1  0
 18 20  1  0
  6 21  1  1
  5 22  1  0
  5 23  1  0
  4 24  1  0
 24 25  2  0
 24 26  1  0
 26 27  1  0
 27 28  2  0
 28 29  1  0
 29 30  2  0
 30 31  1  0
 31 32  2  0
 32 33  1  0
 33 34  2  0
 34 35  1  0
 35 36  2  0
 35 37  1  0
 34 38  1  0
 33 39  1  0
 32 40  1  0
 30 41  1  0
 28 42  1  0
  3 43  1  0
 26  2  1  0
 36 27  1  0
 18  4  1  0
 36 31  1  0
 12  7  1  0
M  END
>  <cnnaffinities>  (27) 
[6.00563]

>  <score>  (27) 
6.00563

>  <index>  (27) 
26

>  <Smiles>  (27) 
O=C1N([C@]2(C([C@](c3c(c(c(c(c3Cl)[H])[H])[H])[H])(C2([H])[H])[H])([H])[H])C(=O)N1c1c(nc(c2c(c(c(c(c12)[H])[H])[H])[H])[H])[H])[H]

>  <h>  (27) 
<NA>

>  <Training>  (27) 
True

>  <Success>  (27) 
True

>  <enamine_searched>  (27) 
False

>  <enamine_id>  (27) 
nan

$$$$

     RDKit          3D

 46 48  0  0  0  0  0  0  0  0999 V2000
    7.6372    0.6537   24.4147 C   0  0  0  0  0  0  0  0  0  0  0  0
    7.8402   -0.8024   24.8003 C   0  0  0  0  0  0  0  0  0  0  0  0
    7.7532   -1.7566   23.6056 C   0  0  1  0  0  0  0  0  0  0  0  0
    8.2456   -3.1879   23.9092 C   0  0  0  0  0  0  0  0  0  0  0  0
    7.2356   -4.1508   24.5485 C   0  0  1  0  0  0  0  0  0  0  0  0
    7.2222   -4.1395   26.0746 C   0  0  0  0  0  0  0  0  0  0  0  0
    6.5784   -3.0770   26.6026 F   0  0  0  0  0  0  0  0  0  0  0  0
    8.4577   -4.1498   26.6068 F   0  0  0  0  0  0  0  0  0  0  0  0
    6.5903   -5.2325   26.5546 F   0  0  0  0  0  0  0  0  0  0  0  0
    5.8331   -3.9985   23.9562 C   0  0  0  0  0  0  0  0  0  0  0  0
    5.4202   -2.5414   23.7732 C   0  0  0  0  0  0  0  0  0  0  0  0
    6.4113   -1.7877   23.0040 N   0  0  0  0  0  0  0  0  0  0  0  0
    6.1773   -1.6254   21.6392 C   0  0  0  0  0  0  0  0  0  0  0  0
    5.3632   -2.3057   21.0429 O   0  0  0  0  0  0  0  0  0  0  0  0
    6.9248   -0.4882   20.9087 C   0  0  0  0  0  0  0  0  0  0  0  0
    6.1179    0.0906   19.7669 C   0  0  0  0  0  0  0  0  0  0  0  0
    6.4219   -0.2141   18.4631 C   0  0  0  0  0  0  0  0  0  0  0  0
    5.7584    0.2370   17.3641 N   0  0  0  0  0  0  0  0  0  0  0  0
    4.7355    1.0321   17.5747 C   0  0  0  0  0  0  0  0  0  0  0  0
    4.2872    1.4226   18.8675 C   0  0  0  0  0  0  0  0  0  0  0  0
    3.1659    2.2749   19.0430 C   0  0  0  0  0  0  0  0  0  0  0  0
    2.7501    2.6281   20.3004 C   0  0  0  0  0  0  0  0  0  0  0  0
    3.4400    2.1402   21.4320 C   0  0  0  0  0  0  0  0  0  0  0  0
    4.5309    1.3151   21.2874 C   0  0  0  0  0  0  0  0  0  0  0  0
    4.9899    0.9363   19.9974 C   0  0  0  0  0  0  0  0  0  0  0  0
    5.0439    0.9496   22.1718 H   0  0  0  0  0  0  0  0  0  0  0  0
    3.1049    2.4247   22.4239 H   0  0  0  0  0  0  0  0  0  0  0  0
    1.8933    3.2826   20.4363 H   0  0  0  0  0  0  0  0  0  0  0  0
    2.6454    2.6462   18.1629 H   0  0  0  0  0  0  0  0  0  0  0  0
    4.1990    1.4003   16.6986 H   0  0  0  0  0  0  0  0  0  0  0  0
    7.2652   -0.8673   18.2459 H   0  0  0  0  0  0  0  0  0  0  0  0
    7.2162    0.3040   21.6132 H   0  0  0  0  0  0  0  0  0  0  0  0
    7.8574   -0.9066   20.5086 H   0  0  0  0  0  0  0  0  0  0  0  0
    4.4595   -2.4849   23.2573 H   0  0  0  0  0  0  0  0  0  0  0  0
    5.2883   -2.0708   24.7509 H   0  0  0  0  0  0  0  0  0  0  0  0
    5.8235   -4.4629   22.9684 H   0  0  0  0  0  0  0  0  0  0  0  0
    5.0978   -4.5399   24.5646 H   0  0  0  0  0  0  0  0  0  0  0  0
    7.5822   -5.1699   24.3415 H   0  0  0  0  0  0  0  0  0  0  0  0
    8.5468   -3.6359   22.9569 H   0  0  0  0  0  0  0  0  0  0  0  0
    9.1577   -3.1452   24.5133 H   0  0  0  0  0  0  0  0  0  0  0  0
    8.4342   -1.3648   22.8434 H   0  0  0  0  0  0  0  0  0  0  0  0
    8.8334   -0.9079   25.2571 H   0  0  0  0  0  0  0  0  0  0  0  0
    7.1243   -1.0891   25.5702 H   0  0  0  0  0  0  0  0  0  0  0  0
    7.7393    1.3054   25.2860 H   0  0  0  0  0  0  0  0  0  0  0  0
    8.3743    0.9761   23.6701 H   0  0  0  0  0  0  0  0  0  0  0  0
    6.6412    0.8180   23.9947 H   0  0  0  0  0  0  0  0  0  0  0  0
  1  2  1  0
  2  3  1  0
  3  4  1  0
  4  5  1  0
  5  6  1  0
  6  7  1  0
  6  8  1  0
  6  9  1  0
  5 10  1  0
 10 11  1  0
 11 12  1  0
 12 13  1  0
 13 14  2  0
 13 15  1  0
 15 16  1  0
 16 17  2  0
 17 18  1  0
 18 19  2  0
 19 20  1  0
 20 21  2  0
 21 22  1  0
 22 23  2  0
 23 24  1  0
 24 25  2  0
 24 26  1  0
 23 27  1  0
 22 28  1  0
 21 29  1  0
 19 30  1  0
 17 31  1  0
 15 32  1  0
 15 33  1  0
 11 34  1  0
 11 35  1  0
 10 36  1  0
 10 37  1  0
  5 38  1  1
  4 39  1  0
  4 40  1  0
  3 41  1  6
  2 42  1  0
  2 43  1  0
  1 44  1  0
  1 45  1  0
  1 46  1  0
 12  3  1  0
 25 16  1  0
 25 20  1  0
M  END
>  <cnnaffinities>  (28) 
[5.4681]

>  <score>  (28) 
5.4681

>  <index>  (28) 
27

>  <Smiles>  (28) 
C(C([C@]1(C([C@@](C(F)(F)F)(C(C(N1C(=O)C(c1c(nc(c2c(c(c(c(c12)[H])[H])[H])[H])[H])[H])([H])[H])([H])[H])([H])[H])[H])([H])[H])[H])([H])[H])([H])([H])[H]

>  <h>  (28) 
<NA>

>  <Training>  (28) 
True

>  <Success>  (28) 
True

>  <enamine_searched>  (28) 
False

>  <enamine_id>  (28) 
nan

$$$$

     RDKit          3D

 70 75  0  0  0  0  0  0  0  0999 V2000
    7.8621   -5.5900   25.8169 C   0  0  0  0  0  0  0  0  0  0  0  0
    6.6421   -6.1209   25.1441 N   0  0  0  0  0  4  0  0  0  0  0  0
    6.6670   -6.0811   23.6445 C   0  0  0  0  0  0  0  0  0  0  0  0
    5.8261   -4.9053   23.1295 C   0  0  0  0  0  0  0  0  0  0  0  0
    6.2952   -3.6357   23.6643 N   0  0  0  0  0  0  0  0  0  0  0  0
    7.5374   -3.0658   23.1582 C   0  0  0  0  0  0  0  0  0  0  0  0
    7.3200   -1.5808   22.8236 C   0  0  2  0  0  0  0  0  0  0  0  0
    6.3584   -1.4536   21.6210 C   0  0  0  0  0  0  0  0  0  0  0  0
    5.3503   -2.0906   21.4019 O   0  0  0  0  0  0  0  0  0  0  0  0
    6.8420   -0.4675   20.7926 N   0  0  0  0  0  0  0  0  0  0  0  0
    6.0857    0.0645   19.7264 C   0  0  0  0  0  0  0  0  0  0  0  0
    6.4520   -0.2001   18.4351 C   0  0  0  0  0  0  0  0  0  0  0  0
    5.7954    0.2649   17.3456 N   0  0  0  0  0  0  0  0  0  0  0  0
    4.7569    1.0400   17.5646 C   0  0  0  0  0  0  0  0  0  0  0  0
    4.2894    1.4111   18.8593 C   0  0  0  0  0  0  0  0  0  0  0  0
    3.1818    2.2784   19.0371 C   0  0  0  0  0  0  0  0  0  0  0  0
    2.7873    2.6465   20.2954 C   0  0  0  0  0  0  0  0  0  0  0  0
    3.4829    2.1716   21.4316 C   0  0  0  0  0  0  0  0  0  0  0  0
    4.5525    1.3267   21.2905 C   0  0  0  0  0  0  0  0  0  0  0  0
    4.9740    0.9196   19.9887 C   0  0  0  0  0  0  0  0  0  0  0  0
    5.0918    0.9768   22.1727 H   0  0  0  0  0  0  0  0  0  0  0  0
    3.1652    2.4898   22.4210 H   0  0  0  0  0  0  0  0  0  0  0  0
    1.9416    3.3129   20.4287 H   0  0  0  0  0  0  0  0  0  0  0  0
    2.6663    2.6453   18.1543 H   0  0  0  0  0  0  0  0  0  0  0  0
    4.2317    1.4179   16.6899 H   0  0  0  0  0  0  0  0  0  0  0  0
    7.3174   -0.8375   18.2506 H   0  0  0  0  0  0  0  0  0  0  0  0
    8.0833    0.1320   21.2129 C   0  0  0  0  0  0  0  0  0  0  0  0
    8.5955   -0.8324   22.2942 C   0  0  2  0  0  0  0  0  0  0  0  0
    9.6898   -1.7167   21.6649 C   0  0  0  0  0  0  0  0  0  0  0  0
   10.5101   -2.3123   22.6386 O   0  0  0  0  0  0  0  0  0  0  0  0
   11.4056   -1.4165   23.2739 C   0  0  0  0  0  0  0  0  0  0  0  0
   11.4803   -1.8518   24.7195 C   0  0  0  0  0  0  0  0  0  0  0  0
   10.3188   -1.4185   25.3493 F   0  0  0  0  0  0  0  0  0  0  0  0
   12.7902   -1.6482   25.4938 C   0  0  0  0  0  0  0  0  0  0  0  0
   13.0272   -3.0664   25.4888 O   0  0  0  0  0  0  0  0  0  0  0  0
   11.7300   -3.3328   24.9247 C   0  0  0  0  0  0  0  0  0  0  0  0
   11.7544   -3.9185   24.0057 H   0  0  0  0  0  0  0  0  0  0  0  0
   11.0272   -3.7846   25.6334 H   0  0  0  0  0  0  0  0  0  0  0  0
   13.5845   -1.0936   24.9788 H   0  0  0  0  0  0  0  0  0  0  0  0
   12.6756   -1.2272   26.5054 H   0  0  0  0  0  0  0  0  0  0  0  0
   12.3970   -1.4550   22.8024 H   0  0  0  0  0  0  0  0  0  0  0  0
   11.0471   -0.3812   23.1954 H   0  0  0  0  0  0  0  0  0  0  0  0
    9.2470   -2.5246   21.0742 H   0  0  0  0  0  0  0  0  0  0  0  0
   10.3013   -1.1278   20.9591 H   0  0  0  0  0  0  0  0  0  0  0  0
    9.0623   -0.3013   23.1291 H   0  0  0  0  0  0  0  0  0  0  0  0
    8.7588    0.1980   20.3552 H   0  0  0  0  0  0  0  0  0  0  0  0
    7.9358    1.1584   21.5820 H   0  0  0  0  0  0  0  0  0  0  0  0
    6.7107   -0.9376   24.0800 C   0  0  0  0  0  0  0  0  0  0  0  0
    6.8647    0.4355   24.3116 C   0  0  0  0  0  0  0  0  0  0  0  0
    6.3180    1.0254   25.4378 C   0  0  0  0  0  0  0  0  0  0  0  0
    6.5836    2.7243   25.7211 Cl  0  0  0  0  0  0  0  0  0  0  0  0
    5.5695    0.2981   26.3567 C   0  0  0  0  0  0  0  0  0  0  0  0
    5.3892   -1.0559   26.1342 C   0  0  0  0  0  0  0  0  0  0  0  0
    5.9631   -1.6778   25.0193 C   0  0  0  0  0  0  0  0  0  0  0  0
    5.7617   -3.1496   24.8172 C   0  0  0  0  0  0  0  0  0  0  0  0
    5.1601   -3.8802   25.6149 O   0  0  0  0  0  0  0  0  0  0  0  0
    4.7972   -1.6462   26.8258 H   0  0  0  0  0  0  0  0  0  0  0  0
    5.1515    0.7937   27.2258 H   0  0  0  0  0  0  0  0  0  0  0  0
    7.4277    1.0707   23.6380 H   0  0  0  0  0  0  0  0  0  0  0  0
    7.8474   -3.6262   22.2758 H   0  0  0  0  0  0  0  0  0  0  0  0
    8.3353   -3.1496   23.9130 H   0  0  0  0  0  0  0  0  0  0  0  0
    5.8321   -4.8468   22.0339 H   0  0  0  0  0  0  0  0  0  0  0  0
    4.7834   -5.0157   23.4504 H   0  0  0  0  0  0  0  0  0  0  0  0
    6.2747   -7.0200   23.2475 H   0  0  0  0  0  0  0  0  0  0  0  0
    7.7059   -5.9828   23.3024 H   0  0  0  0  0  0  0  0  0  0  0  0
    5.8322   -5.5433   25.4679 H   0  0  0  0  0  0  0  0  0  0  0  0
    6.5067   -7.1015   25.4617 H   0  0  0  0  0  0  0  0  0  0  0  0
    8.7762   -5.9570   25.3361 H   0  0  0  0  0  0  0  0  0  0  0  0
    7.8641   -5.8925   26.8669 H   0  0  0  0  0  0  0  0  0  0  0  0
    7.8733   -4.4944   25.7861 H   0  0  0  0  0  0  0  0  0  0  0  0
  1  2  1  0
  2  3  1  0
  3  4  1  0
  4  5  1  0
  5  6  1  0
  7  6  1  1
  7  8  1  0
  8  9  2  0
  8 10  1  0
 10 11  1  0
 11 12  2  0
 12 13  1  0
 13 14  2  0
 14 15  1  0
 15 16  2  0
 16 17  1  0
 17 18  2  0
 18 19  1  0
 19 20  2  0
 19 21  1  0
 18 22  1  0
 17 23  1  0
 16 24  1  0
 14 25  1  0
 12 26  1  0
 10 27  1  0
 27 28  1  0
 28 29  1  0
 29 30  1  0
 30 31  1  0
 31 32  1  0
 32 33  1  0
 32 34  1  0
 34 35  1  0
 35 36  1  0
 36 37  1  0
 36 38  1  0
 34 39  1  0
 34 40  1  0
 31 41  1  0
 31 42  1  0
 29 43  1  0
 29 44  1  0
 28 45  1  1
 27 46  1  0
 27 47  1  0
  7 48  1  0
 48 49  2  0
 49 50  1  0
 50 51  1  0
 50 52  2  0
 52 53  1  0
 53 54  2  0
 54 55  1  0
 55 56  2  0
 53 57  1  0
 52 58  1  0
 49 59  1  0
  6 60  1  0
  6 61  1  0
  4 62  1  0
  4 63  1  0
  3 64  1  0
  3 65  1  0
  2 66  1  0
  2 67  1  0
  1 68  1  0
  1 69  1  0
  1 70  1  0
 55  5  1  0
 28  7  1  0
 36 32  1  0
 54 48  1  0
 20 11  1  0
 20 15  1  0
M  CHG  1   2   1
M  END
>  <cnnaffinities>  (29) 
[6.62571]

>  <score>  (29) 
6.62571

>  <index>  (29) 
28

>  <Smiles>  (29) 
C([N+](C(C(N1C([C@@]2(C(=O)N(c3c(nc(c4c(c(c(c(c34)[H])[H])[H])[H])[H])[H])C([C@@]2(C(OC(C2(F)C(OC2([H])[H])([H])[H])([H])[H])([H])[H])[H])([H])[H])c2c(c(Cl)c(c(c2C1=O)[H])[H])[H])([H])[H])([H])[H])([H])[H])([H])[H])([H])([H])[H]

>  <h>  (29) 
<NA>

>  <Training>  (29) 
True

>  <Success>  (29) 
True

>  <enamine_searched>  (29) 
False

>  <enamine_id>  (29) 
nan

$$$$

     RDKit          3D

 67 72  0  0  0  0  0  0  0  0999 V2000
    5.4105   -6.8928   25.4963 C   0  0  0  0  0  0  0  0  0  0  0  0
    6.6856   -6.3409   24.9967 N   0  0  0  0  0  4  0  0  0  0  0  0
    6.6165   -6.1119   23.5252 C   0  0  0  0  0  0  0  0  0  0  0  0
    5.7567   -4.8799   23.2281 C   0  0  0  0  0  0  0  0  0  0  0  0
    6.3234   -3.6802   23.8190 N   0  0  0  0  0  0  0  0  0  0  0  0
    7.4978   -3.1166   23.1854 C   0  0  0  0  0  0  0  0  0  0  0  0
    7.3499   -1.6114   22.8728 C   0  0  2  0  0  0  0  0  0  0  0  0
    6.3406   -1.3886   21.7302 C   0  0  0  0  0  0  0  0  0  0  0  0
    5.2354   -1.8928   21.6161 O   0  0  0  0  0  0  0  0  0  0  0  0
    6.8706   -0.4903   20.8423 N   0  0  0  0  0  0  0  0  0  0  0  0
    6.1110    0.0562   19.7797 C   0  0  0  0  0  0  0  0  0  0  0  0
    6.4554   -0.2227   18.4798 C   0  0  0  0  0  0  0  0  0  0  0  0
    5.7904    0.2346   17.3900 N   0  0  0  0  0  0  0  0  0  0  0  0
    4.7604    1.0181   17.6043 C   0  0  0  0  0  0  0  0  0  0  0  0
    4.3077    1.4046   18.8987 C   0  0  0  0  0  0  0  0  0  0  0  0
    3.1940    2.2706   19.0599 C   0  0  0  0  0  0  0  0  0  0  0  0
    2.7903    2.6547   20.3077 C   0  0  0  0  0  0  0  0  0  0  0  0
    3.4876    2.1984   21.4503 C   0  0  0  0  0  0  0  0  0  0  0  0
    4.5691    1.3611   21.3257 C   0  0  0  0  0  0  0  0  0  0  0  0
    4.9988    0.9257   20.0340 C   0  0  0  0  0  0  0  0  0  0  0  0
    5.1028    1.0355   22.2197 H   0  0  0  0  0  0  0  0  0  0  0  0
    3.1622    2.5175   22.4360 H   0  0  0  0  0  0  0  0  0  0  0  0
    1.9363    3.3158   20.4315 H   0  0  0  0  0  0  0  0  0  0  0  0
    2.6856    2.6279   18.1678 H   0  0  0  0  0  0  0  0  0  0  0  0
    4.2247    1.3894   16.7296 H   0  0  0  0  0  0  0  0  0  0  0  0
    7.3025   -0.8778   18.2766 H   0  0  0  0  0  0  0  0  0  0  0  0
    8.2186   -0.0688   21.1479 C   0  0  0  0  0  0  0  0  0  0  0  0
    8.6598   -0.9561   22.3263 C   0  0  2  0  0  0  0  0  0  0  0  0
    9.7943   -1.9136   21.8787 C   0  0  0  0  0  0  0  0  0  0  0  0
   10.9797   -1.1950   21.4548 N   0  0  0  0  0  0  0  0  0  0  0  0
   11.8497   -0.6164   22.3024 C   0  0  0  0  0  0  0  0  0  0  0  0
   12.8581    0.0728   21.7303 N   0  0  0  0  0  0  0  0  0  0  0  0
   13.7127    0.5840   22.5917 C   0  0  0  0  0  0  0  0  0  0  0  0
   13.6397    0.5236   23.9274 N   0  0  0  0  0  0  0  0  0  0  0  0
   12.5804   -0.1502   24.3677 C   0  0  0  0  0  0  0  0  0  0  0  0
   11.6467   -0.7376   23.6291 N   0  0  0  0  0  0  0  0  0  0  0  0
   12.4539   -0.2198   25.4473 H   0  0  0  0  0  0  0  0  0  0  0  0
   14.5528    1.1181   22.1492 H   0  0  0  0  0  0  0  0  0  0  0  0
   11.2613   -1.1948   20.4864 H   0  0  0  0  0  0  0  0  0  0  0  0
   10.0777   -2.5489   22.7214 H   0  0  0  0  0  0  0  0  0  0  0  0
    9.4670   -2.5445   21.0429 H   0  0  0  0  0  0  0  0  0  0  0  0
    9.0919   -0.3556   23.1344 H   0  0  0  0  0  0  0  0  0  0  0  0
    8.2483    1.0021   21.3895 H   0  0  0  0  0  0  0  0  0  0  0  0
    8.8586   -0.2222   20.2820 H   0  0  0  0  0  0  0  0  0  0  0  0
    6.8140   -0.9182   24.1263 C   0  0  0  0  0  0  0  0  0  0  0  0
    7.0000    0.4584   24.3171 C   0  0  0  0  0  0  0  0  0  0  0  0
    6.4869    1.0787   25.4436 C   0  0  0  0  0  0  0  0  0  0  0  0
    6.7352    2.7917   25.6618 Cl  0  0  0  0  0  0  0  0  0  0  0  0
    5.7685    0.3649   26.4020 C   0  0  0  0  0  0  0  0  0  0  0  0
    5.5451   -0.9852   26.2020 C   0  0  0  0  0  0  0  0  0  0  0  0
    6.0492   -1.6209   25.0673 C   0  0  0  0  0  0  0  0  0  0  0  0
    5.6993   -3.0646   24.8595 C   0  0  0  0  0  0  0  0  0  0  0  0
    4.8915   -3.6470   25.5825 O   0  0  0  0  0  0  0  0  0  0  0  0
    4.9685   -1.5829   26.9029 H   0  0  0  0  0  0  0  0  0  0  0  0
    5.3813    0.8806   27.2726 H   0  0  0  0  0  0  0  0  0  0  0  0
    7.5487    1.0667   23.6022 H   0  0  0  0  0  0  0  0  0  0  0  0
    8.3599   -3.2572   23.8518 H   0  0  0  0  0  0  0  0  0  0  0  0
    7.6642   -3.6636   22.2530 H   0  0  0  0  0  0  0  0  0  0  0  0
    4.7586   -4.9848   23.6553 H   0  0  0  0  0  0  0  0  0  0  0  0
    5.6485   -4.7284   22.1501 H   0  0  0  0  0  0  0  0  0  0  0  0
    6.1863   -6.9902   23.0435 H   0  0  0  0  0  0  0  0  0  0  0  0
    7.6352   -5.9954   23.1685 H   0  0  0  0  0  0  0  0  0  0  0  0
    7.4476   -7.0050   25.2481 H   0  0  0  0  0  0  0  0  0  0  0  0
    6.8717   -5.4264   25.4750 H   0  0  0  0  0  0  0  0  0  0  0  0
    5.4143   -6.9390   26.5794 H   0  0  0  0  0  0  0  0  0  0  0  0
    4.5805   -6.2605   25.2073 H   0  0  0  0  0  0  0  0  0  0  0  0
    5.2134   -7.8883   25.0935 H   0  0  0  0  0  0  0  0  0  0  0  0
  1  2  1  0
  2  3  1  0
  3  4  1  0
  4  5  1  0
  5  6  1  0
  7  6  1  1
  7  8  1  0
  8  9  2  0
  8 10  1  0
 10 11  1  0
 11 12  2  0
 12 13  1  0
 13 14  2  0
 14 15  1  0
 15 16  2  0
 16 17  1  0
 17 18  2  0
 18 19  1  0
 19 20  2  0
 19 21  1  0
 18 22  1  0
 17 23  1  0
 16 24  1  0
 14 25  1  0
 12 26  1  0
 10 27  1  0
 27 28  1  0
 28 29  1  0
 29 30  1  0
 30 31  1  0
 31 32  2  0
 32 33  1  0
 33 34  2  0
 34 35  1  0
 35 36  2  0
 35 37  1  0
 33 38  1  0
 30 39  1  0
 29 40  1  0
 29 41  1  0
 28 42  1  1
 27 43  1  0
 27 44  1  0
  7 45  1  0
 45 46  2  0
 46 47  1  0
 47 48  1  0
 47 49  2  0
 49 50  1  0
 50 51  2  0
 51 52  1  0
 52 53  2  0
 50 54  1  0
 49 55  1  0
 46 56  1  0
  6 57  1  0
  6 58  1  0
  4 59  1  0
  4 60  1  0
  3 61  1  0
  3 62  1  0
  2 63  1  0
  2 64  1  0
  1 65  1  0
  1 66  1  0
  1 67  1  0
 52  5  1  0
 28  7  1  0
 36 31  1  0
 51 45  1  0
 20 11  1  0
 20 15  1  0
M  CHG  1   2   1
M  END
>  <cnnaffinities>  (30) 
[7.05331]

>  <score>  (30) 
7.05331

>  <index>  (30) 
29

>  <Smiles>  (30) 
C([N+](C(C(N1C([C@@]2(C(=O)N(c3c(nc(c4c(c(c(c(c34)[H])[H])[H])[H])[H])[H])C([C@@]2(C(N(c2nc(nc(n2)[H])[H])[H])([H])[H])[H])([H])[H])c2c(c(Cl)c(c(c2C1=O)[H])[H])[H])([H])[H])([H])[H])([H])[H])([H])[H])([H])([H])[H]

>  <h>  (30) 
<NA>

>  <Training>  (30) 
True

>  <Success>  (30) 
True

>  <enamine_searched>  (30) 
False

>  <enamine_id>  (30) 
nan

$$$$

     RDKit          3D

 66 71  0  0  0  0  0  0  0  0999 V2000
    7.3924   -8.4849   23.0763 C   0  0  0  0  0  0  0  0  0  0  0  0
    6.5552   -7.3759   22.6619 N   0  0  0  0  0  0  0  0  0  0  0  0
    6.8976   -6.5612   21.6283 C   0  0  0  0  0  0  0  0  0  0  0  0
    7.7545   -6.8043   20.7976 O   0  0  0  0  0  0  0  0  0  0  0  0
    6.0987   -5.2497   21.6029 C   0  0  0  0  0  0  0  0  0  0  0  0
    6.5843   -4.2983   22.5880 N   0  0  0  0  0  0  0  0  0  0  0  0
    7.6866   -3.4010   22.2813 C   0  0  0  0  0  0  0  0  0  0  0  0
    7.3525   -1.9358   22.6852 C   0  0  2  0  0  0  0  0  0  0  0  0
    6.2973   -1.4388   21.6736 C   0  0  0  0  0  0  0  0  0  0  0  0
    5.1649   -1.8580   21.5486 O   0  0  0  0  0  0  0  0  0  0  0  0
    6.8724   -0.4881   20.8560 N   0  0  0  0  0  0  0  0  0  0  0  0
    6.1426    0.0803   19.7854 C   0  0  0  0  0  0  0  0  0  0  0  0
    6.4890   -0.2062   18.4890 C   0  0  0  0  0  0  0  0  0  0  0  0
    5.8268    0.2417   17.3945 N   0  0  0  0  0  0  0  0  0  0  0  0
    4.7884    1.0176   17.5953 C   0  0  0  0  0  0  0  0  0  0  0  0
    4.3297    1.4121   18.8835 C   0  0  0  0  0  0  0  0  0  0  0  0
    3.2056    2.2671   19.0346 C   0  0  0  0  0  0  0  0  0  0  0  0
    2.7912    2.6549   20.2793 C   0  0  0  0  0  0  0  0  0  0  0  0
    3.4857    2.2081   21.4260 C   0  0  0  0  0  0  0  0  0  0  0  0
    4.5750    1.3794   21.3056 C   0  0  0  0  0  0  0  0  0  0  0  0
    5.0204    0.9446   20.0232 C   0  0  0  0  0  0  0  0  0  0  0  0
    5.1056    1.0447   22.1912 H   0  0  0  0  0  0  0  0  0  0  0  0
    3.1545    2.5295   22.4098 H   0  0  0  0  0  0  0  0  0  0  0  0
    1.9333    3.3133   20.3933 H   0  0  0  0  0  0  0  0  0  0  0  0
    2.6981    2.6128   18.1375 H   0  0  0  0  0  0  0  0  0  0  0  0
    4.2538    1.3764   16.7142 H   0  0  0  0  0  0  0  0  0  0  0  0
    7.3325   -0.8646   18.2864 H   0  0  0  0  0  0  0  0  0  0  0  0
    8.3262   -0.4377   20.9934 C   0  0  0  0  0  0  0  0  0  0  0  0
    8.5426   -0.9480   22.4360 C   0  0  2  0  0  0  0  0  0  0  0  0
    9.9131   -1.5763   22.7769 C   0  0  0  0  0  0  0  0  0  0  0  0
   11.1473   -0.7018   22.7034 C   0  0  0  0  0  0  0  0  0  0  0  0
   11.9298   -0.6946   21.5469 C   0  0  0  0  0  0  0  0  0  0  0  0
   13.0494    0.1225   21.4213 C   0  0  0  0  0  0  0  0  0  0  0  0
   13.4991    0.8728   22.4961 C   0  0  0  0  0  0  0  0  0  0  0  0
   12.8168    0.7557   23.7028 C   0  0  0  0  0  0  0  0  0  0  0  0
   11.6518    0.0021   23.7979 C   0  0  0  0  0  0  0  0  0  0  0  0
   11.1435   -0.0611   24.7569 H   0  0  0  0  0  0  0  0  0  0  0  0
   13.2014    1.2691   24.5722 H   0  0  0  0  0  0  0  0  0  0  0  0
   14.3954    1.4817   22.3975 H   0  0  0  0  0  0  0  0  0  0  0  0
   13.5962    0.1408   20.4818 H   0  0  0  0  0  0  0  0  0  0  0  0
   11.6905   -1.3885   20.7456 H   0  0  0  0  0  0  0  0  0  0  0  0
    9.8185   -1.9896   23.7957 H   0  0  0  0  0  0  0  0  0  0  0  0
   10.0722   -2.4260   22.0975 H   0  0  0  0  0  0  0  0  0  0  0  0
    8.4020   -0.0785   23.0857 H   0  0  0  0  0  0  0  0  0  0  0  0
    8.6680    0.5906   20.8412 H   0  0  0  0  0  0  0  0  0  0  0  0
    8.8265   -1.0778   20.2490 H   0  0  0  0  0  0  0  0  0  0  0  0
    6.8438   -1.9699   24.1179 C   0  0  0  0  0  0  0  0  0  0  0  0
    6.8369   -0.8115   24.9044 C   0  0  0  0  0  0  0  0  0  0  0  0
    6.4012   -0.8666   26.2144 C   0  0  0  0  0  0  0  0  0  0  0  0
    6.3979    0.5999   27.1516 Cl  0  0  0  0  0  0  0  0  0  0  0  0
    5.9744   -2.0571   26.7996 C   0  0  0  0  0  0  0  0  0  0  0  0
    5.9410   -3.1973   26.0228 C   0  0  0  0  0  0  0  0  0  0  0  0
    6.3354   -3.1493   24.6875 C   0  0  0  0  0  0  0  0  0  0  0  0
    6.1116   -4.3677   23.8586 C   0  0  0  0  0  0  0  0  0  0  0  0
    5.4904   -5.3479   24.2841 O   0  0  0  0  0  0  0  0  0  0  0  0
    5.6047   -4.1471   26.4247 H   0  0  0  0  0  0  0  0  0  0  0  0
    5.6543   -2.0731   27.8342 H   0  0  0  0  0  0  0  0  0  0  0  0
    7.1625    0.1446   24.5113 H   0  0  0  0  0  0  0  0  0  0  0  0
    7.8813   -3.4467   21.2124 H   0  0  0  0  0  0  0  0  0  0  0  0
    8.5820   -3.7450   22.8161 H   0  0  0  0  0  0  0  0  0  0  0  0
    6.1835   -4.7972   20.6114 H   0  0  0  0  0  0  0  0  0  0  0  0
    5.0403   -5.4375   21.8187 H   0  0  0  0  0  0  0  0  0  0  0  0
    5.9710   -6.9457   23.3750 H   0  0  0  0  0  0  0  0  0  0  0  0
    8.3905   -8.1493   23.3837 H   0  0  0  0  0  0  0  0  0  0  0  0
    6.9144   -8.9773   23.9298 H   0  0  0  0  0  0  0  0  0  0  0  0
    7.5117   -9.2119   22.2682 H   0  0  0  0  0  0  0  0  0  0  0  0
  1  2  1  0
  2  3  1  0
  3  4  2  0
  3  5  1  0
  5  6  1  0
  6  7  1  0
  8  7  1  6
  8  9  1  0
  9 10  2  0
  9 11  1  0
 11 12  1  0
 12 13  2  0
 13 14  1  0
 14 15  2  0
 15 16  1  0
 16 17  2  0
 17 18  1  0
 18 19  2  0
 19 20  1  0
 20 21  2  0
 20 22  1  0
 19 23  1  0
 18 24  1  0
 17 25  1  0
 15 26  1  0
 13 27  1  0
 11 28  1  0
 28 29  1  0
 29 30  1  0
 30 31  1  0
 31 32  2  0
 32 33  1  0
 33 34  2  0
 34 35  1  0
 35 36  2  0
 36 37  1  0
 35 38  1  0
 34 39  1  0
 33 40  1  0
 32 41  1  0
 30 42  1  0
 30 43  1  0
 29 44  1  1
 28 45  1  0
 28 46  1  0
  8 47  1  0
 47 48  2  0
 48 49  1  0
 49 50  1  0
 49 51  2  0
 51 52  1  0
 52 53  2  0
 53 54  1  0
 54 55  2  0
 52 56  1  0
 51 57  1  0
 48 58  1  0
  7 59  1  0
  7 60  1  0
  5 61  1  0
  5 62  1  0
  2 63  1  0
  1 64  1  0
  1 65  1  0
  1 66  1  0
 54  6  1  0
 29  8  1  0
 36 31  1  0
 53 47  1  0
 21 12  1  0
 21 16  1  0
M  END
>  <cnnaffinities>  (31) 
[7.21721, 7.21615]

>  <score>  (31) 
7.21721

>  <index>  (31) 
30

>  <Smiles>  (31) 
C(N(C(=O)C(N1C([C@@]2(C(=O)N(c3c(nc(c4c(c(c(c(c34)[H])[H])[H])[H])[H])[H])C([C@@]2(C(c2c(c(c(c(c2[H])[H])[H])[H])[H])([H])[H])[H])([H])[H])c2c(c(Cl)c(c(c2C1=O)[H])[H])[H])([H])[H])([H])[H])[H])([H])([H])[H]

>  <h>  (31) 
<NA>

>  <Training>  (31) 
True

>  <Success>  (31) 
True

>  <enamine_searched>  (31) 
False

>  <enamine_id>  (31) 
nan

$$$$

     RDKit          3D

 64 70  0  0  0  0  0  0  0  0999 V2000
    4.8933   -3.6354   25.5633 O   0  0  0  0  0  0  0  0  0  0  0  0
    5.7011   -3.0476   24.8550 C   0  0  0  0  0  0  0  0  0  0  0  0
    6.0682   -1.6151   25.0680 C   0  0  0  0  0  0  0  0  0  0  0  0
    5.5766   -0.9972   26.2148 C   0  0  0  0  0  0  0  0  0  0  0  0
    5.7828    0.3517   26.4236 C   0  0  0  0  0  0  0  0  0  0  0  0
    6.4798    1.0722   25.4543 C   0  0  0  0  0  0  0  0  0  0  0  0
    6.7083    2.7873   25.6702 Cl  0  0  0  0  0  0  0  0  0  0  0  0
    6.9895    0.4655   24.3173 C   0  0  0  0  0  0  0  0  0  0  0  0
    6.8170   -0.9102   24.1202 C   0  0  0  0  0  0  0  0  0  0  0  0
    7.3493   -1.5984   22.8633 C   0  0  1  0  0  0  0  0  0  0  0  0
    7.4927   -3.1004   23.1717 C   0  0  0  0  0  0  0  0  0  0  0  0
    6.2896   -3.6365   23.7736 N   0  0  0  0  0  0  0  0  0  0  0  0
    5.7591   -4.8834   23.2914 C   0  0  0  0  0  0  0  0  0  0  0  0
    6.4497   -6.1022   23.8364 C   0  0  0  0  0  0  0  0  0  0  0  0
    5.9390   -7.0917   24.4865 N   0  0  0  0  0  0  0  0  0  0  0  0
    6.9628   -8.0215   24.6649 N   0  0  0  0  0  0  0  0  0  0  0  0
    7.9936   -7.5122   24.0992 C   0  0  0  0  0  0  0  0  0  0  0  0
    7.7655   -6.2906   23.5641 O   0  0  0  0  0  0  0  0  0  0  0  0
    8.9623   -7.9564   23.9426 H   0  0  0  0  0  0  0  0  0  0  0  0
    5.8207   -4.8604   22.1940 H   0  0  0  0  0  0  0  0  0  0  0  0
    4.7117   -4.9425   23.5909 H   0  0  0  0  0  0  0  0  0  0  0  0
    7.6915   -3.6529   22.2518 H   0  0  0  0  0  0  0  0  0  0  0  0
    8.3308   -3.2473   23.8640 H   0  0  0  0  0  0  0  0  0  0  0  0
    6.3458   -1.3965   21.7135 C   0  0  0  0  0  0  0  0  0  0  0  0
    5.2577   -1.9272   21.5853 O   0  0  0  0  0  0  0  0  0  0  0  0
    6.8692   -0.4854   20.8351 N   0  0  0  0  0  0  0  0  0  0  0  0
    6.1109    0.0599   19.7769 C   0  0  0  0  0  0  0  0  0  0  0  0
    6.4575   -0.2211   18.4795 C   0  0  0  0  0  0  0  0  0  0  0  0
    5.7949    0.2343   17.3894 N   0  0  0  0  0  0  0  0  0  0  0  0
    4.7626    1.0150   17.6049 C   0  0  0  0  0  0  0  0  0  0  0  0
    4.3106    1.4021   18.8995 C   0  0  0  0  0  0  0  0  0  0  0  0
    3.1970    2.2669   19.0595 C   0  0  0  0  0  0  0  0  0  0  0  0
    2.7915    2.6509   20.3068 C   0  0  0  0  0  0  0  0  0  0  0  0
    3.4862    2.1963   21.4514 C   0  0  0  0  0  0  0  0  0  0  0  0
    4.5693    1.3600   21.3297 C   0  0  0  0  0  0  0  0  0  0  0  0
    4.9990    0.9250   20.0359 C   0  0  0  0  0  0  0  0  0  0  0  0
    5.1002    1.0380   22.2282 H   0  0  0  0  0  0  0  0  0  0  0  0
    3.1589    2.5213   22.4356 H   0  0  0  0  0  0  0  0  0  0  0  0
    1.9389    3.3138   20.4265 H   0  0  0  0  0  0  0  0  0  0  0  0
    2.6919    2.6225   18.1659 H   0  0  0  0  0  0  0  0  0  0  0  0
    4.2268    1.3904   16.7328 H   0  0  0  0  0  0  0  0  0  0  0  0
    7.3066   -0.8757   18.2841 H   0  0  0  0  0  0  0  0  0  0  0  0
    8.2127   -0.0564   21.1373 C   0  0  0  0  0  0  0  0  0  0  0  0
    8.6519   -0.9384   22.3180 C   0  0  2  0  0  0  0  0  0  0  0  0
    9.7883   -1.8946   21.8793 C   0  0  0  0  0  0  0  0  0  0  0  0
   10.9744   -1.1883   21.4308 N   0  0  0  0  0  0  0  0  0  0  0  0
   11.8703   -0.6151   22.2785 C   0  0  0  0  0  0  0  0  0  0  0  0
   12.9810    0.1037   21.7927 C   0  0  0  0  0  0  0  0  0  0  0  0
   13.7903    0.6911   22.7310 C   0  0  0  0  0  0  0  0  0  0  0  0
   13.5926    0.5831   24.0540 N   0  0  0  0  0  0  0  0  0  0  0  0
   12.5364   -0.1326   24.3970 C   0  0  0  0  0  0  0  0  0  0  0  0
   11.6496   -0.7231   23.5952 N   0  0  0  0  0  0  0  0  0  0  0  0
   12.3614   -0.2495   25.4675 H   0  0  0  0  0  0  0  0  0  0  0  0
   14.6481    1.2804   22.4107 H   0  0  0  0  0  0  0  0  0  0  0  0
   13.2151    0.1477   20.7362 H   0  0  0  0  0  0  0  0  0  0  0  0
   11.2268   -1.2565   20.4585 H   0  0  0  0  0  0  0  0  0  0  0  0
    9.4513   -2.5423   21.0642 H   0  0  0  0  0  0  0  0  0  0  0  0
   10.0784   -2.5279   22.7205 H   0  0  0  0  0  0  0  0  0  0  0  0
    9.0923   -0.3428   23.1215 H   0  0  0  0  0  0  0  0  0  0  0  0
    8.2374    1.0137   21.3796 H   0  0  0  0  0  0  0  0  0  0  0  0
    8.8521   -0.2085   20.2705 H   0  0  0  0  0  0  0  0  0  0  0  0
    7.5230    1.0796   23.5960 H   0  0  0  0  0  0  0  0  0  0  0  0
    5.3910    0.8573   27.2991 H   0  0  0  0  0  0  0  0  0  0  0  0
    5.0204   -1.6134   26.9133 H   0  0  0  0  0  0  0  0  0  0  0  0
  1  2  2  0
  2  3  1  0
  3  4  2  0
  4  5  1  0
  5  6  2  0
  6  7  1  0
  6  8  1  0
  8  9  2  0
  9 10  1  0
 10 11  1  1
 11 12  1  0
 12 13  1  0
 13 14  1  0
 14 15  2  0
 15 16  1  0
 16 17  2  0
 17 18  1  0
 17 19  1  0
 13 20  1  0
 13 21  1  0
 11 22  1  0
 11 23  1  0
 10 24  1  0
 24 25  2  0
 24 26  1  0
 26 27  1  0
 27 28  2  0
 28 29  1  0
 29 30  2  0
 30 31  1  0
 31 32  2  0
 32 33  1  0
 33 34  2  0
 34 35  1  0
 35 36  2  0
 35 37  1  0
 34 38  1  0
 33 39  1  0
 32 40  1  0
 30 41  1  0
 28 42  1  0
 26 43  1  0
 43 44  1  0
 44 45  1  0
 45 46  1  0
 46 47  1  0
 47 48  2  0
 48 49  1  0
 49 50  2  0
 50 51  1  0
 51 52  2  0
 51 53  1  0
 49 54  1  0
 48 55  1  0
 46 56  1  0
 45 57  1  0
 45 58  1  0
 44 59  1  1
 43 60  1  0
 43 61  1  0
  8 62  1  0
  5 63  1  0
  4 64  1  0
 12  2  1  0
 18 14  1  0
 36 27  1  0
 52 47  1  0
  9  3  1  0
 44 10  1  0
 36 31  1  0
M  END
>  <cnnaffinities>  (32) 
[7.18594, 7.35357]

>  <score>  (32) 
7.18594

>  <index>  (32) 
31

>  <Smiles>  (32) 
O=C1c2c(c(c(Cl)c(c2[C@@]2(C(N1C(c1nnc(o1)[H])([H])[H])([H])[H])C(=O)N(c1c(nc(c3c(c(c(c(c13)[H])[H])[H])[H])[H])[H])C([C@@]2(C(N(c1c(c(nc(n1)[H])[H])[H])[H])([H])[H])[H])([H])[H])[H])[H])[H]

>  <h>  (32) 
<NA>

>  <Training>  (32) 
True

>  <Success>  (32) 
True

>  <enamine_searched>  (32) 
False

>  <enamine_id>  (32) 
nan

$$$$

     RDKit          3D

 72 77  0  0  0  0  0  0  0  0999 V2000
    9.7245   -1.9300   21.8440 C   0  0  0  0  0  0  0  0  0  0  0  0
    8.6337   -0.9661   22.3330 C   0  0  1  0  0  0  0  0  0  0  0  0
    8.1906   -0.0314   21.1865 C   0  0  0  0  0  0  0  0  0  0  0  0
    6.8815   -0.5121   20.8091 N   0  0  0  0  0  0  0  0  0  0  0  0
    6.1235    0.0521   19.7534 C   0  0  0  0  0  0  0  0  0  0  0  0
    6.4731   -0.2100   18.4536 C   0  0  0  0  0  0  0  0  0  0  0  0
    5.8104    0.2553   17.3671 N   0  0  0  0  0  0  0  0  0  0  0  0
    4.7734    1.0300   17.5833 C   0  0  0  0  0  0  0  0  0  0  0  0
    4.3192    1.4065   18.8802 C   0  0  0  0  0  0  0  0  0  0  0  0
    3.2050    2.2702   19.0493 C   0  0  0  0  0  0  0  0  0  0  0  0
    2.8058    2.6456   20.3028 C   0  0  0  0  0  0  0  0  0  0  0  0
    3.5029    2.1757   21.4400 C   0  0  0  0  0  0  0  0  0  0  0  0
    4.5794    1.3337   21.3077 C   0  0  0  0  0  0  0  0  0  0  0  0
    5.0097    0.9158   20.0111 C   0  0  0  0  0  0  0  0  0  0  0  0
    5.1078    0.9855   22.1966 H   0  0  0  0  0  0  0  0  0  0  0  0
    3.1798    2.4920   22.4281 H   0  0  0  0  0  0  0  0  0  0  0  0
    1.9586    3.3141   20.4317 H   0  0  0  0  0  0  0  0  0  0  0  0
    2.6936    2.6345   18.1619 H   0  0  0  0  0  0  0  0  0  0  0  0
    4.2379    1.4057   16.7102 H   0  0  0  0  0  0  0  0  0  0  0  0
    7.3270   -0.8543   18.2495 H   0  0  0  0  0  0  0  0  0  0  0  0
    6.3449   -1.4320   21.6719 C   0  0  0  0  0  0  0  0  0  0  0  0
    5.2619   -1.9653   21.5133 O   0  0  0  0  0  0  0  0  0  0  0  0
    7.3166   -1.6346   22.8527 C   0  0  1  0  0  0  0  0  0  0  0  0
    7.4769   -3.1453   23.1630 C   0  0  0  0  0  0  0  0  0  0  0  0
    6.3113   -3.7237   23.8081 N   0  0  0  0  0  0  0  0  0  0  0  0
    5.7808   -5.0144   23.3870 C   0  0  0  0  0  0  0  0  0  0  0  0
    4.5414   -4.8032   22.5099 C   0  0  0  0  0  0  0  0  0  0  0  0
    3.7255   -6.0289   22.2193 N   0  0  1  0  0  4  0  0  0  0  0  0
    4.4204   -7.1602   21.4914 C   0  0  0  0  0  0  0  0  0  0  0  0
    3.3504   -8.1751   21.1051 C   0  0  0  0  0  0  0  0  0  0  0  0
    2.7953   -8.7443   22.2719 O   0  0  0  0  0  0  0  0  0  0  0  0
    2.1284   -7.8032   23.1008 C   0  0  0  0  0  0  0  0  0  0  0  0
    0.8129   -7.3923   22.4524 C   0  0  0  0  0  0  0  0  0  0  0  0
    0.9410   -6.8323   21.5189 H   0  0  0  0  0  0  0  0  0  0  0  0
    0.2747   -6.7654   23.1668 H   0  0  0  0  0  0  0  0  0  0  0  0
    0.2251   -8.2911   22.2294 H   0  0  0  0  0  0  0  0  0  0  0  0
    1.8571   -8.5308   24.4099 C   0  0  0  0  0  0  0  0  0  0  0  0
    2.7911   -8.8183   24.9025 H   0  0  0  0  0  0  0  0  0  0  0  0
    1.2649   -9.4310   24.2328 H   0  0  0  0  0  0  0  0  0  0  0  0
    1.3062   -7.8855   25.0970 H   0  0  0  0  0  0  0  0  0  0  0  0
    3.0410   -6.6089   23.4198 C   0  0  0  0  0  0  0  0  0  0  0  0
    3.8289   -6.9619   24.0831 H   0  0  0  0  0  0  0  0  0  0  0  0
    2.4704   -5.8372   23.9447 H   0  0  0  0  0  0  0  0  0  0  0  0
    3.7337   -9.0012   20.5025 H   0  0  0  0  0  0  0  0  0  0  0  0
    2.5638   -7.6842   20.5315 H   0  0  0  0  0  0  0  0  0  0  0  0
    5.1101   -7.6453   22.1797 H   0  0  0  0  0  0  0  0  0  0  0  0
    4.9844   -6.7382   20.6561 H   0  0  0  0  0  0  0  0  0  0  0  0
    2.9789   -5.6669   21.6010 H   0  0  0  0  0  0  0  0  0  0  0  0
    4.8622   -4.3573   21.5634 H   0  0  0  0  0  0  0  0  0  0  0  0
    3.8736   -4.0857   22.9996 H   0  0  0  0  0  0  0  0  0  0  0  0
    6.5592   -5.5586   22.8359 H   0  0  0  0  0  0  0  0  0  0  0  0
    5.5419   -5.5806   24.2928 H   0  0  0  0  0  0  0  0  0  0  0  0
    5.6616   -3.0931   24.8288 C   0  0  0  0  0  0  0  0  0  0  0  0
    4.8191   -3.6610   25.5158 O   0  0  0  0  0  0  0  0  0  0  0  0
    5.9989   -1.6476   25.0347 C   0  0  0  0  0  0  0  0  0  0  0  0
    5.4841   -1.0226   26.1691 C   0  0  0  0  0  0  0  0  0  0  0  0
    5.6974    0.3224   26.3875 C   0  0  0  0  0  0  0  0  0  0  0  0
    6.4220    1.0393   25.4400 C   0  0  0  0  0  0  0  0  0  0  0  0
    6.6851    2.7406   25.6945 Cl  0  0  0  0  0  0  0  0  0  0  0  0
    6.9421    0.4318   24.3094 C   0  0  0  0  0  0  0  0  0  0  0  0
    6.7622   -0.9419   24.0992 C   0  0  0  0  0  0  0  0  0  0  0  0
    7.5015    1.0480   23.6136 H   0  0  0  0  0  0  0  0  0  0  0  0
    5.3088    0.8193   27.2678 H   0  0  0  0  0  0  0  0  0  0  0  0
    4.9075   -1.6253   26.8621 H   0  0  0  0  0  0  0  0  0  0  0  0
    7.6572   -3.6906   22.2340 H   0  0  0  0  0  0  0  0  0  0  0  0
    8.3559   -3.2716   23.8106 H   0  0  0  0  0  0  0  0  0  0  0  0
    8.8725   -0.0929   20.3392 H   0  0  0  0  0  0  0  0  0  0  0  0
    8.1586    1.0252   21.4860 H   0  0  0  0  0  0  0  0  0  0  0  0
    9.0780   -0.3874   23.1496 H   0  0  0  0  0  0  0  0  0  0  0  0
    9.3681   -2.5635   21.0249 H   0  0  0  0  0  0  0  0  0  0  0  0
   10.0860   -2.5760   22.6492 H   0  0  0  0  0  0  0  0  0  0  0  0
   10.5872   -1.3640   21.4745 H   0  0  0  0  0  0  0  0  0  0  0  0
  1  2  1  0
  2  3  1  0
  3  4  1  0
  4  5  1  0
  5  6  2  0
  6  7  1  0
  7  8  2  0
  8  9  1  0
  9 10  2  0
 10 11  1  0
 11 12  2  0
 12 13  1  0
 13 14  2  0
 13 15  1  0
 12 16  1  0
 11 17  1  0
 10 18  1  0
  8 19  1  0
  6 20  1  0
  4 21  1  0
 21 22  2  0
 21 23  1  0
 23 24  1  1
 24 25  1  0
 25 26  1  0
 26 27  1  0
 27 28  1  0
 28 29  1  0
 29 30  1  0
 30 31  1  0
 31 32  1  0
 32 33  1  0
 33 34  1  0
 33 35  1  0
 33 36  1  0
 32 37  1  0
 37 38  1  0
 37 39  1  0
 37 40  1  0
 32 41  1  0
 41 42  1  0
 41 43  1  0
 30 44  1  0
 30 45  1  0
 29 46  1  0
 29 47  1  0
 28 48  1  6
 27 49  1  0
 27 50  1  0
 26 51  1  0
 26 52  1  0
 25 53  1  0
 53 54  2  0
 53 55  1  0
 55 56  2  0
 56 57  1  0
 57 58  2  0
 58 59  1  0
 58 60  1  0
 60 61  2  0
 60 62  1  0
 57 63  1  0
 56 64  1  0
 24 65  1  0
 24 66  1  0
  3 67  1  0
  3 68  1  0
  2 69  1  1
  1 70  1  0
  1 71  1  0
  1 72  1  0
 23  2  1  0
 41 28  1  0
 61 55  1  0
 14  5  1  0
 61 23  1  0
 14  9  1  0
M  CHG  1  28   1
M  END
>  <cnnaffinities>  (33) 
[6.52138, 6.4097, 6.16199]

>  <score>  (33) 
6.52138

>  <index>  (33) 
32

>  <Smiles>  (33) 
C([C@]1(C(N(c2c(nc(c3c(c(c(c(c23)[H])[H])[H])[H])[H])[H])C(=O)[C@]21C(N(C(C([N@+]1(C(C(OC(C([H])([H])[H])(C([H])([H])[H])C1([H])[H])([H])[H])([H])[H])[H])([H])[H])([H])[H])C(=O)c1c(c(c(Cl)c(c21)[H])[H])[H])([H])[H])([H])[H])[H])([H])([H])[H]

>  <h>  (33) 
<NA>

>  <Training>  (33) 
True

>  <Success>  (33) 
True

>  <enamine_searched>  (33) 
False

>  <enamine_id>  (33) 
nan

$$$$

     RDKit          3D

 44 47  0  0  0  0  0  0  0  0999 V2000
    5.4459   -2.3968   20.9411 O   0  0  0  0  0  0  0  0  0  0  0  0
    6.2321   -1.7166   21.5850 C   0  0  0  0  0  0  0  0  0  0  0  0
    6.9131   -0.4901   20.9237 C   0  0  0  0  0  0  0  0  0  0  0  0
    6.1133    0.0838   19.7721 C   0  0  0  0  0  0  0  0  0  0  0  0
    6.4204   -0.2152   18.4675 C   0  0  0  0  0  0  0  0  0  0  0  0
    5.7580    0.2381   17.3660 N   0  0  0  0  0  0  0  0  0  0  0  0
    4.7360    1.0320   17.5755 C   0  0  0  0  0  0  0  0  0  0  0  0
    4.2862    1.4232   18.8689 C   0  0  0  0  0  0  0  0  0  0  0  0
    3.1662    2.2759   19.0441 C   0  0  0  0  0  0  0  0  0  0  0  0
    2.7518    2.6295   20.2982 C   0  0  0  0  0  0  0  0  0  0  0  0
    3.4458    2.1376   21.4287 C   0  0  0  0  0  0  0  0  0  0  0  0
    4.5334    1.3114   21.2932 C   0  0  0  0  0  0  0  0  0  0  0  0
    4.9883    0.9359   20.0003 C   0  0  0  0  0  0  0  0  0  0  0  0
    5.0500    0.9475   22.1809 H   0  0  0  0  0  0  0  0  0  0  0  0
    3.1100    2.4298   22.4172 H   0  0  0  0  0  0  0  0  0  0  0  0
    1.8959    3.2862   20.4373 H   0  0  0  0  0  0  0  0  0  0  0  0
    2.6475    2.6470   18.1622 H   0  0  0  0  0  0  0  0  0  0  0  0
    4.2000    1.4002   16.6977 H   0  0  0  0  0  0  0  0  0  0  0  0
    7.2651   -0.8663   18.2450 H   0  0  0  0  0  0  0  0  0  0  0  0
    7.8740   -0.8393   20.5200 H   0  0  0  0  0  0  0  0  0  0  0  0
    7.1576    0.2950   21.6505 H   0  0  0  0  0  0  0  0  0  0  0  0
    6.5548   -2.0577   22.8720 N   0  0  0  0  0  0  0  0  0  0  0  0
    6.0864   -3.3290   23.4234 C   0  0  0  0  0  0  0  0  0  0  0  0
    6.6001   -3.3632   24.8650 C   0  0  0  0  0  0  0  0  0  0  0  0
    7.6639   -2.2668   24.9551 C   0  0  0  0  0  0  0  0  0  0  0  0
    7.3534   -1.2861   23.8132 C   0  0  2  0  0  0  0  0  0  0  0  0
    6.6379   -0.0387   24.2996 C   0  0  0  0  0  0  0  0  0  0  0  0
    7.3134    1.1753   24.3461 C   0  0  0  0  0  0  0  0  0  0  0  0
    6.6898    2.3307   24.8044 C   0  0  0  0  0  0  0  0  0  0  0  0
    5.3684    2.2930   25.2272 C   0  0  0  0  0  0  0  0  0  0  0  0
    4.7218    1.0676   25.1933 C   0  0  0  0  0  0  0  0  0  0  0  0
    3.4421    1.0111   25.5959 F   0  0  0  0  0  0  0  0  0  0  0  0
    5.3254   -0.0956   24.7487 C   0  0  0  0  0  0  0  0  0  0  0  0
    4.7598   -1.0209   24.7472 H   0  0  0  0  0  0  0  0  0  0  0  0
    4.8446    3.1801   25.5665 H   0  0  0  0  0  0  0  0  0  0  0  0
    7.2303    3.2686   24.8141 H   0  0  0  0  0  0  0  0  0  0  0  0
    8.3342    1.1908   23.9844 H   0  0  0  0  0  0  0  0  0  0  0  0
    8.2872   -0.9860   23.3327 H   0  0  0  0  0  0  0  0  0  0  0  0
    7.6547   -1.7676   25.9258 H   0  0  0  0  0  0  0  0  0  0  0  0
    8.6669   -2.6866   24.8399 H   0  0  0  0  0  0  0  0  0  0  0  0
    7.0166   -4.3382   25.1235 H   0  0  0  0  0  0  0  0  0  0  0  0
    5.7940   -3.1834   25.5809 H   0  0  0  0  0  0  0  0  0  0  0  0
    6.4906   -4.1491   22.8261 H   0  0  0  0  0  0  0  0  0  0  0  0
    4.9960   -3.4127   23.3752 H   0  0  0  0  0  0  0  0  0  0  0  0
  1  2  2  0
  2  3  1  0
  3  4  1  0
  4  5  2  0
  5  6  1  0
  6  7  2  0
  7  8  1  0
  8  9  2  0
  9 10  1  0
 10 11  2  0
 11 12  1  0
 12 13  2  0
 12 14  1  0
 11 15  1  0
 10 16  1  0
  9 17  1  0
  7 18  1  0
  5 19  1  0
  3 20  1  0
  3 21  1  0
  2 22  1  0
 22 23  1  0
 23 24  1  0
 24 25  1  0
 25 26  1  0
 26 27  1  0
 27 28  2  0
 28 29  1  0
 29 30  2  0
 30 31  1  0
 31 32  1  0
 31 33  2  0
 33 34  1  0
 30 35  1  0
 29 36  1  0
 28 37  1  0
 26 38  1  6
 25 39  1  0
 25 40  1  0
 24 41  1  0
 24 42  1  0
 23 43  1  0
 23 44  1  0
 13  4  1  0
 26 22  1  0
 33 27  1  0
 13  8  1  0
M  END
>  <cnnaffinities>  (34) 
[5.59832, 5.60948]

>  <score>  (34) 
5.59832

>  <index>  (34) 
33

>  <Smiles>  (34) 
O=C(C(c1c(nc(c2c(c(c(c(c12)[H])[H])[H])[H])[H])[H])([H])[H])N1C(C(C([C@@]1(c1c(c(c(c(F)c1[H])[H])[H])[H])[H])([H])[H])([H])[H])([H])[H]

>  <h>  (34) 
<NA>

>  <Training>  (34) 
True

>  <Success>  (34) 
True

>  <enamine_searched>  (34) 
False

>  <enamine_id>  (34) 
nan

$$$$

     RDKit          3D

 58 63  0  0  0  0  0  0  0  0999 V2000
    9.6886   -1.9576   21.8163 C   0  0  0  0  0  0  0  0  0  0  0  0
    8.6441   -0.9418   22.3040 C   0  0  1  0  0  0  0  0  0  0  0  0
    8.2103   -0.0205   21.1467 C   0  0  0  0  0  0  0  0  0  0  0  0
    6.8892   -0.4834   20.8031 N   0  0  0  0  0  0  0  0  0  0  0  0
    6.1252    0.0643   19.7531 C   0  0  0  0  0  0  0  0  0  0  0  0
    6.4759   -0.2084   18.4573 C   0  0  0  0  0  0  0  0  0  0  0  0
    5.8110    0.2493   17.3706 N   0  0  0  0  0  0  0  0  0  0  0  0
    4.7758    1.0227   17.5951 C   0  0  0  0  0  0  0  0  0  0  0  0
    4.3242    1.3999   18.8904 C   0  0  0  0  0  0  0  0  0  0  0  0
    3.2078    2.2563   19.0503 C   0  0  0  0  0  0  0  0  0  0  0  0
    2.8041    2.6434   20.2960 C   0  0  0  0  0  0  0  0  0  0  0  0
    3.4994    2.1867   21.4418 C   0  0  0  0  0  0  0  0  0  0  0  0
    4.5789    1.3448   21.3217 C   0  0  0  0  0  0  0  0  0  0  0  0
    5.0131    0.9207   20.0261 C   0  0  0  0  0  0  0  0  0  0  0  0
    5.1025    1.0046   22.2195 H   0  0  0  0  0  0  0  0  0  0  0  0
    3.1732    2.5171   22.4246 H   0  0  0  0  0  0  0  0  0  0  0  0
    1.9574    3.3147   20.4137 H   0  0  0  0  0  0  0  0  0  0  0  0
    2.7087    2.6129   18.1534 H   0  0  0  0  0  0  0  0  0  0  0  0
    4.2337    1.3960   16.7263 H   0  0  0  0  0  0  0  0  0  0  0  0
    7.3322   -0.8536   18.2611 H   0  0  0  0  0  0  0  0  0  0  0  0
    6.3656   -1.4283   21.6480 C   0  0  0  0  0  0  0  0  0  0  0  0
    5.3234   -2.0143   21.4441 O   0  0  0  0  0  0  0  0  0  0  0  0
    7.3266   -1.5810   22.8464 C   0  0  1  0  0  0  0  0  0  0  0  0
    7.4814   -3.0819   23.1788 C   0  0  0  0  0  0  0  0  0  0  0  0
    6.2705   -3.6270   23.7594 N   0  0  0  0  0  0  0  0  0  0  0  0
    5.6770   -4.8398   23.2072 C   0  0  0  0  0  0  0  0  0  0  0  0
    6.2781   -6.1306   23.6850 C   0  0  0  0  0  0  0  0  0  0  0  0
    5.7768   -7.0092   24.6505 C   0  0  0  0  0  0  0  0  0  0  0  0
    6.6240   -8.0184   24.8059 N   0  0  0  0  0  0  0  0  0  0  0  0
    7.6067   -7.7199   23.9818 N   0  0  0  0  0  0  0  0  0  0  0  0
    8.8108   -8.5191   23.9605 C   0  0  0  0  0  0  0  0  0  0  0  0
    9.2898   -8.4992   24.9432 H   0  0  0  0  0  0  0  0  0  0  0  0
    9.4880   -8.0979   23.2253 H   0  0  0  0  0  0  0  0  0  0  0  0
    8.5731   -9.5540   23.7071 H   0  0  0  0  0  0  0  0  0  0  0  0
    7.4455   -6.6200   23.2643 N   0  0  0  0  0  0  0  0  0  0  0  0
    4.8703   -6.9089   25.2292 H   0  0  0  0  0  0  0  0  0  0  0  0
    4.6249   -4.8182   23.5023 H   0  0  0  0  0  0  0  0  0  0  0  0
    5.7207   -4.7780   22.1113 H   0  0  0  0  0  0  0  0  0  0  0  0
    5.6868   -3.0298   24.8465 C   0  0  0  0  0  0  0  0  0  0  0  0
    4.8890   -3.6089   25.5715 O   0  0  0  0  0  0  0  0  0  0  0  0
    6.0620   -1.5922   25.0563 C   0  0  0  0  0  0  0  0  0  0  0  0
    5.6160   -0.9787   26.2274 C   0  0  0  0  0  0  0  0  0  0  0  0
    5.8466    0.3631   26.4642 C   0  0  0  0  0  0  0  0  0  0  0  0
    6.5376    1.0821   25.4948 C   0  0  0  0  0  0  0  0  0  0  0  0
    6.7744    2.3904   25.7145 F   0  0  0  0  0  0  0  0  0  0  0  0
    7.0082    0.4970   24.3308 C   0  0  0  0  0  0  0  0  0  0  0  0
    6.7912   -0.8736   24.0963 C   0  0  0  0  0  0  0  0  0  0  0  0
    7.5814    1.1240   23.6526 H   0  0  0  0  0  0  0  0  0  0  0  0
    5.5086    0.8581   27.3697 H   0  0  0  0  0  0  0  0  0  0  0  0
    5.0844   -1.5849   26.9541 H   0  0  0  0  0  0  0  0  0  0  0  0
    8.3304   -3.1976   23.8708 H   0  0  0  0  0  0  0  0  0  0  0  0
    7.6908   -3.6528   22.2740 H   0  0  0  0  0  0  0  0  0  0  0  0
    8.8828   -0.1216   20.2955 H   0  0  0  0  0  0  0  0  0  0  0  0
    8.2073    1.0433   21.4197 H   0  0  0  0  0  0  0  0  0  0  0  0
    9.1268   -0.3575   23.0944 H   0  0  0  0  0  0  0  0  0  0  0  0
    9.2999   -2.5916   21.0104 H   0  0  0  0  0  0  0  0  0  0  0  0
   10.0125   -2.6119   22.6307 H   0  0  0  0  0  0  0  0  0  0  0  0
   10.5785   -1.4437   21.4360 H   0  0  0  0  0  0  0  0  0  0  0  0
  1  2  1  0
  2  3  1  0
  3  4  1  0
  4  5  1  0
  5  6  2  0
  6  7  1  0
  7  8  2  0
  8  9  1  0
  9 10  2  0
 10 11  1  0
 11 12  2  0
 12 13  1  0
 13 14  2  0
 13 15  1  0
 12 16  1  0
 11 17  1  0
 10 18  1  0
  8 19  1  0
  6 20  1  0
  4 21  1  0
 21 22  2  0
 21 23  1  0
 23 24  1  1
 24 25  1  0
 25 26  1  0
 26 27  1  0
 27 28  1  0
 28 29  2  0
 29 30  1  0
 30 31  1  0
 31 32  1  0
 31 33  1  0
 31 34  1  0
 30 35  1  0
 28 36  1  0
 26 37  1  0
 26 38  1  0
 25 39  1  0
 39 40  2  0
 39 41  1  0
 41 42  2  0
 42 43  1  0
 43 44  2  0
 44 45  1  0
 44 46  1  0
 46 47  2  0
 46 48  1  0
 43 49  1  0
 42 50  1  0
 24 51  1  0
 24 52  1  0
  3 53  1  0
  3 54  1  0
  2 55  1  1
  1 56  1  0
  1 57  1  0
  1 58  1  0
 23  2  1  0
 35 27  2  0
 47 41  1  0
 14  5  1  0
 47 23  1  0
 14  9  1  0
M  END
>  <cnnaffinities>  (35) 
[6.39711]

>  <score>  (35) 
6.39711

>  <index>  (35) 
34

>  <Smiles>  (35) 
C([C@]1(C(N(c2c(nc(c3c(c(c(c(c23)[H])[H])[H])[H])[H])[H])C(=O)[C@]21C(N(C(c1c(nn(C([H])([H])[H])n1)[H])([H])[H])C(=O)c1c(c(c(F)c(c21)[H])[H])[H])([H])[H])([H])[H])[H])([H])([H])[H]

>  <h>  (35) 
<NA>

>  <Training>  (35) 
True

>  <Success>  (35) 
True

>  <enamine_searched>  (35) 
False

>  <enamine_id>  (35) 
nan

$$$$

     RDKit          3D

 51 54  0  0  0  0  0  0  0  0999 V2000
   13.5508    0.4187   22.5164 N   0  0  0  0  0  0  0  0  0  0  0  0
   13.0782   -0.4425   23.1223 C   0  0  0  0  0  0  0  0  0  0  0  0
   12.4218   -1.5441   23.8476 C   0  0  0  0  0  0  0  0  0  0  0  0
   10.9921   -1.7497   23.3854 C   0  0  0  0  0  0  0  0  0  0  0  0
    9.8804   -1.1766   23.9979 C   0  0  0  0  0  0  0  0  0  0  0  0
    8.5971   -1.4377   23.5229 C   0  0  0  0  0  0  0  0  0  0  0  0
    8.3936   -2.3415   22.4738 C   0  0  0  0  0  0  0  0  0  0  0  0
    7.0827   -2.6917   22.0169 N   0  0  0  0  0  0  0  0  0  0  0  0
    6.5641   -4.0313   22.2927 C   0  0  0  0  0  0  0  0  0  0  0  0
    6.0466   -4.1493   23.7087 C   0  0  0  0  0  0  0  0  0  0  0  0
    4.7037   -3.9164   23.9945 C   0  0  0  0  0  0  0  0  0  0  0  0
    4.2555   -3.9379   25.3087 C   0  0  0  0  0  0  0  0  0  0  0  0
    5.1356   -4.1797   26.3550 C   0  0  0  0  0  0  0  0  0  0  0  0
    6.4728   -4.4148   26.0615 C   0  0  0  0  0  0  0  0  0  0  0  0
    7.5898   -4.7310   27.3577 Cl  0  0  0  0  0  0  0  0  0  0  0  0
    6.9352   -4.4043   24.7527 C   0  0  0  0  0  0  0  0  0  0  0  0
    7.9942   -4.5581   24.5567 H   0  0  0  0  0  0  0  0  0  0  0  0
    4.7898   -4.2016   27.3840 H   0  0  0  0  0  0  0  0  0  0  0  0
    3.2055   -3.7656   25.5222 H   0  0  0  0  0  0  0  0  0  0  0  0
    4.0127   -3.6890   23.1864 H   0  0  0  0  0  0  0  0  0  0  0  0
    5.7678   -4.2211   21.5663 H   0  0  0  0  0  0  0  0  0  0  0  0
    7.3734   -4.7505   22.1311 H   0  0  0  0  0  0  0  0  0  0  0  0
    6.2314   -1.7952   21.4120 C   0  0  0  0  0  0  0  0  0  0  0  0
    5.0416   -2.0236   21.2751 O   0  0  0  0  0  0  0  0  0  0  0  0
    6.8945   -0.5214   20.8774 C   0  0  0  0  0  0  0  0  0  0  0  0
    6.1140    0.0777   19.7497 C   0  0  0  0  0  0  0  0  0  0  0  0
    6.4341   -0.2207   18.4551 C   0  0  0  0  0  0  0  0  0  0  0  0
    5.7771    0.2326   17.3552 N   0  0  0  0  0  0  0  0  0  0  0  0
    4.7516    1.0221   17.5695 C   0  0  0  0  0  0  0  0  0  0  0  0
    4.2963    1.4051   18.8573 C   0  0  0  0  0  0  0  0  0  0  0  0
    3.1827    2.2634   19.0351 C   0  0  0  0  0  0  0  0  0  0  0  0
    2.7667    2.6097   20.2902 C   0  0  0  0  0  0  0  0  0  0  0  0
    3.4445    2.1123   21.4237 C   0  0  0  0  0  0  0  0  0  0  0  0
    4.5239    1.2790   21.2816 C   0  0  0  0  0  0  0  0  0  0  0  0
    4.9856    0.9111   19.9900 C   0  0  0  0  0  0  0  0  0  0  0  0
    5.0236    0.8894   22.1641 H   0  0  0  0  0  0  0  0  0  0  0  0
    3.1091    2.4007   22.4166 H   0  0  0  0  0  0  0  0  0  0  0  0
    1.9145    3.2709   20.4234 H   0  0  0  0  0  0  0  0  0  0  0  0
    2.6797    2.6462   18.1507 H   0  0  0  0  0  0  0  0  0  0  0  0
    4.2195    1.3977   16.6930 H   0  0  0  0  0  0  0  0  0  0  0  0
    7.2823   -0.8718   18.2388 H   0  0  0  0  0  0  0  0  0  0  0  0
    7.0203    0.1953   21.7026 H   0  0  0  0  0  0  0  0  0  0  0  0
    7.9074   -0.7854   20.5442 H   0  0  0  0  0  0  0  0  0  0  0  0
    9.5027   -2.9005   21.8451 C   0  0  0  0  0  0  0  0  0  0  0  0
   10.7751   -2.5586   22.2744 C   0  0  0  0  0  0  0  0  0  0  0  0
   11.6313   -2.9101   21.7184 H   0  0  0  0  0  0  0  0  0  0  0  0
    9.3930   -3.5824   21.0057 H   0  0  0  0  0  0  0  0  0  0  0  0
    7.7401   -0.9707   24.0092 H   0  0  0  0  0  0  0  0  0  0  0  0
   10.0002   -0.5126   24.8491 H   0  0  0  0  0  0  0  0  0  0  0  0
   13.0006   -2.4568   23.6587 H   0  0  0  0  0  0  0  0  0  0  0  0
   12.4752   -1.3545   24.9245 H   0  0  0  0  0  0  0  0  0  0  0  0
  1  2  3  0
  2  3  1  0
  3  4  1  0
  4  5  2  0
  5  6  1  0
  6  7  2  0
  7  8  1  0
  8  9  1  0
  9 10  1  0
 10 11  2  0
 11 12  1  0
 12 13  2  0
 13 14  1  0
 14 15  1  0
 14 16  2  0
 16 17  1  0
 13 18  1  0
 12 19  1  0
 11 20  1  0
  9 21  1  0
  9 22  1  0
  8 23  1  0
 23 24  2  0
 23 25  1  0
 25 26  1  0
 26 27  2  0
 27 28  1  0
 28 29  2  0
 29 30  1  0
 30 31  2  0
 31 32  1  0
 32 33  2  0
 33 34  1  0
 34 35  2  0
 34 36  1  0
 33 37  1  0
 32 38  1  0
 31 39  1  0
 29 40  1  0
 27 41  1  0
 25 42  1  0
 25 43  1  0
  7 44  1  0
 44 45  2  0
 45 46  1  0
 44 47  1  0
  6 48  1  0
  5 49  1  0
  3 50  1  0
  3 51  1  0
 45  4  1  0
 16 10  1  0
 35 26  1  0
 35 30  1  0
M  END
>  <cnnaffinities>  (36) 
[6.85179, 6.51517]

>  <score>  (36) 
6.85179

>  <index>  (36) 
35

>  <Smiles>  (36) 
N#CC(c1c(c(c(N(C(c2c(c(c(c(Cl)c2[H])[H])[H])[H])([H])[H])C(=O)C(c2c(nc(c3c(c(c(c(c23)[H])[H])[H])[H])[H])[H])([H])[H])c(c1[H])[H])[H])[H])([H])[H]

>  <h>  (36) 
<NA>

>  <Training>  (36) 
True

>  <Success>  (36) 
True

>  <enamine_searched>  (36) 
False

>  <enamine_id>  (36) 
nan

$$$$

     RDKit          3D

 59 64  0  0  0  0  0  0  0  0999 V2000
    7.7299   -3.0067   23.3139 C   0  0  0  0  0  0  0  0  0  0  0  0
    8.0069   -1.9252   22.2740 C   0  0  1  0  0  0  0  0  0  0  0  0
    6.8885   -1.7987   21.2299 C   0  0  0  0  0  0  0  0  0  0  0  0
    6.9258   -0.4050   20.8320 N   0  0  0  0  0  0  0  0  0  0  0  0
    6.1461    0.1158   19.7707 C   0  0  0  0  0  0  0  0  0  0  0  0
    6.4464   -0.2232   18.4755 C   0  0  0  0  0  0  0  0  0  0  0  0
    5.7722    0.2219   17.3861 N   0  0  0  0  0  0  0  0  0  0  0  0
    4.7525    1.0194   17.5979 C   0  0  0  0  0  0  0  0  0  0  0  0
    4.3033    1.4181   18.8901 C   0  0  0  0  0  0  0  0  0  0  0  0
    3.1733    2.2655   19.0574 C   0  0  0  0  0  0  0  0  0  0  0  0
    2.7412    2.6074   20.3085 C   0  0  0  0  0  0  0  0  0  0  0  0
    3.4147    2.1114   21.4484 C   0  0  0  0  0  0  0  0  0  0  0  0
    4.5097    1.2982   21.3112 C   0  0  0  0  0  0  0  0  0  0  0  0
    5.0024    0.9449   20.0216 C   0  0  0  0  0  0  0  0  0  0  0  0
    5.0176    0.9260   22.1944 H   0  0  0  0  0  0  0  0  0  0  0  0
    3.0707    2.3894   22.4389 H   0  0  0  0  0  0  0  0  0  0  0  0
    1.8858    3.2655   20.4334 H   0  0  0  0  0  0  0  0  0  0  0  0
    2.6733    2.6359   18.1655 H   0  0  0  0  0  0  0  0  0  0  0  0
    4.2229    1.3852   16.7178 H   0  0  0  0  0  0  0  0  0  0  0  0
    7.2883   -0.8820   18.2679 H   0  0  0  0  0  0  0  0  0  0  0  0
    7.6483    0.4007   21.6774 C   0  0  0  0  0  0  0  0  0  0  0  0
    7.7545    1.6084   21.5481 O   0  0  0  0  0  0  0  0  0  0  0  0
    8.2397   -0.4622   22.8044 C   0  0  1  0  0  0  0  0  0  0  0  0
    7.4517   -0.0949   24.0899 C   0  0  0  0  0  0  0  0  0  0  0  0
    8.0649   -0.5895   25.3117 N   0  0  0  0  0  0  0  0  0  0  0  0
    7.2020   -0.9412   26.4369 C   0  0  0  0  0  0  0  0  0  0  0  0
    6.9516   -2.4225   26.5687 C   0  0  0  0  0  0  0  0  0  0  0  0
    7.9108   -3.3978   26.9150 C   0  0  0  0  0  0  0  0  0  0  0  0
    7.2078   -4.5761   26.9780 C   0  0  0  0  0  0  0  0  0  0  0  0
    5.9364   -4.2942   26.6156 N   0  0  0  0  0  0  0  0  0  0  0  0
    4.9498   -5.2874   26.2232 C   0  0  0  0  0  0  0  0  0  0  0  0
    5.1549   -5.6865   25.2162 H   0  0  0  0  0  0  0  0  0  0  0  0
    4.9984   -6.1145   26.9401 H   0  0  0  0  0  0  0  0  0  0  0  0
    3.9632   -4.8206   26.2340 H   0  0  0  0  0  0  0  0  0  0  0  0
    5.7629   -2.9788   26.3591 N   0  0  0  0  0  0  0  0  0  0  0  0
    7.4821   -5.5836   27.2697 H   0  0  0  0  0  0  0  0  0  0  0  0
    8.9741   -3.2526   27.0357 H   0  0  0  0  0  0  0  0  0  0  0  0
    7.6825   -0.5622   27.3444 H   0  0  0  0  0  0  0  0  0  0  0  0
    6.2547   -0.4076   26.3144 H   0  0  0  0  0  0  0  0  0  0  0  0
    9.4176   -0.6627   25.4599 C   0  0  0  0  0  0  0  0  0  0  0  0
    9.9622   -1.0433   26.4822 O   0  0  0  0  0  0  0  0  0  0  0  0
   10.2621   -0.2771   24.3069 C   0  0  0  0  0  0  0  0  0  0  0  0
   11.6285   -0.1139   24.5448 C   0  0  0  0  0  0  0  0  0  0  0  0
   12.4634    0.1662   23.4882 C   0  0  0  0  0  0  0  0  0  0  0  0
   11.9226    0.2439   22.2129 C   0  0  0  0  0  0  0  0  0  0  0  0
   12.7987    0.5111   21.2366 F   0  0  0  0  0  0  0  0  0  0  0  0
   10.5758    0.0611   21.9539 C   0  0  0  0  0  0  0  0  0  0  0  0
    9.7142   -0.1706   23.0324 C   0  0  0  0  0  0  0  0  0  0  0  0
   10.1778    0.0861   20.9476 H   0  0  0  0  0  0  0  0  0  0  0  0
   13.5318    0.2996   23.5888 H   0  0  0  0  0  0  0  0  0  0  0  0
   11.9895   -0.2243   25.5644 H   0  0  0  0  0  0  0  0  0  0  0  0
    7.3673    1.0039   24.1069 H   0  0  0  0  0  0  0  0  0  0  0  0
    6.4456   -0.5331   24.0494 H   0  0  0  0  0  0  0  0  0  0  0  0
    7.0485   -2.4355   20.3599 H   0  0  0  0  0  0  0  0  0  0  0  0
    5.9107   -2.0634   21.6569 H   0  0  0  0  0  0  0  0  0  0  0  0
    8.9392   -2.1725   21.7488 H   0  0  0  0  0  0  0  0  0  0  0  0
    7.6918   -3.9933   22.8443 H   0  0  0  0  0  0  0  0  0  0  0  0
    6.7697   -2.8395   23.8104 H   0  0  0  0  0  0  0  0  0  0  0  0
    8.5098   -3.0292   24.0809 H   0  0  0  0  0  0  0  0  0  0  0  0
  1  2  1  0
  2  3  1  0
  3  4  1  0
  4  5  1  0
  5  6  2  0
  6  7  1  0
  7  8  2  0
  8  9  1  0
  9 10  2  0
 10 11  1  0
 11 12  2  0
 12 13  1  0
 13 14  2  0
 13 15  1  0
 12 16  1  0
 11 17  1  0
 10 18  1  0
  8 19  1  0
  6 20  1  0
  4 21  1  0
 21 22  2  0
 21 23  1  0
 23 24  1  1
 24 25  1  0
 25 26  1  0
 26 27  1  0
 27 28  1  0
 28 29  2  0
 29 30  1  0
 30 31  1  0
 31 32  1  0
 31 33  1  0
 31 34  1  0
 30 35  1  0
 29 36  1  0
 28 37  1  0
 26 38  1  0
 26 39  1  0
 25 40  1  0
 40 41  2  0
 40 42  1  0
 42 43  2  0
 43 44  1  0
 44 45  2  0
 45 46  1  0
 45 47  1  0
 47 48  2  0
 47 49  1  0
 44 50  1  0
 43 51  1  0
 24 52  1  0
 24 53  1  0
  3 54  1  0
  3 55  1  0
  2 56  1  6
  1 57  1  0
  1 58  1  0
  1 59  1  0
 23  2  1  0
 35 27  2  0
 48 42  1  0
 14  5  1  0
 48 23  1  0
 14  9  1  0
M  END
>  <cnnaffinities>  (37) 
[6.59984, 6.60993]

>  <score>  (37) 
6.59984

>  <index>  (37) 
36

>  <Smiles>  (37) 
C([C@]1(C(N(c2c(nc(c3c(c(c(c(c23)[H])[H])[H])[H])[H])[H])C(=O)[C@]21C(N(C(c1c(c(n(C([H])([H])[H])n1)[H])[H])([H])[H])C(=O)c1c(c(c(F)c(c21)[H])[H])[H])([H])[H])([H])[H])[H])([H])([H])[H]

>  <h>  (37) 
<NA>

>  <Training>  (37) 
True

>  <Success>  (37) 
True

>  <enamine_searched>  (37) 
False

>  <enamine_id>  (37) 
nan

$$$$

     RDKit          3D

 48 51  0  0  0  0  0  0  0  0999 V2000
   13.3885   -1.3610   24.3332 N   0  0  0  0  0  0  0  0  0  0  0  0
   12.2783   -1.4820   24.0245 C   0  0  0  0  0  0  0  0  0  0  0  0
   10.9449   -1.7174   23.5398 C   0  0  0  0  0  0  0  0  0  0  0  0
    9.8322   -1.0540   24.0611 C   0  0  0  0  0  0  0  0  0  0  0  0
    8.5664   -1.3477   23.5741 C   0  0  0  0  0  0  0  0  0  0  0  0
    8.4114   -2.3043   22.5727 C   0  0  0  0  0  0  0  0  0  0  0  0
    7.1191   -2.6629   22.0898 N   0  0  0  0  0  0  0  0  0  0  0  0
    6.5665   -3.9707   22.4408 C   0  0  0  0  0  0  0  0  0  0  0  0
    5.9822   -3.9987   23.8424 C   0  0  0  0  0  0  0  0  0  0  0  0
    6.8209   -4.2125   24.9347 C   0  0  0  0  0  0  0  0  0  0  0  0
    6.3140   -4.1683   26.2277 C   0  0  0  0  0  0  0  0  0  0  0  0
    4.9636   -3.9157   26.4455 C   0  0  0  0  0  0  0  0  0  0  0  0
    4.1322   -3.7085   25.3525 C   0  0  0  0  0  0  0  0  0  0  0  0
    2.4396   -3.3819   25.6148 Cl  0  0  0  0  0  0  0  0  0  0  0  0
    4.6238   -3.7451   24.0541 C   0  0  0  0  0  0  0  0  0  0  0  0
    3.9441   -3.5766   23.2212 H   0  0  0  0  0  0  0  0  0  0  0  0
    4.5603   -3.8484   27.4507 H   0  0  0  0  0  0  0  0  0  0  0  0
    6.9832   -4.3312   27.0683 H   0  0  0  0  0  0  0  0  0  0  0  0
    7.8766   -4.4255   24.7694 H   0  0  0  0  0  0  0  0  0  0  0  0
    7.3578   -4.7212   22.3265 H   0  0  0  0  0  0  0  0  0  0  0  0
    5.7905   -4.1652   21.7001 H   0  0  0  0  0  0  0  0  0  0  0  0
    6.2626   -1.7825   21.4662 C   0  0  0  0  0  0  0  0  0  0  0  0
    5.0817   -2.0250   21.3110 O   0  0  0  0  0  0  0  0  0  0  0  0
    6.9051   -0.5281   20.8834 C   0  0  0  0  0  0  0  0  0  0  0  0
    6.1177    0.0726   19.7557 C   0  0  0  0  0  0  0  0  0  0  0  0
    6.4343   -0.2224   18.4539 C   0  0  0  0  0  0  0  0  0  0  0  0
    5.7715    0.2306   17.3558 N   0  0  0  0  0  0  0  0  0  0  0  0
    4.7486    1.0221   17.5749 C   0  0  0  0  0  0  0  0  0  0  0  0
    4.2959    1.4015   18.8678 C   0  0  0  0  0  0  0  0  0  0  0  0
    3.1817    2.2620   19.0401 C   0  0  0  0  0  0  0  0  0  0  0  0
    2.7612    2.6102   20.2950 C   0  0  0  0  0  0  0  0  0  0  0  0
    3.4411    2.1151   21.4324 C   0  0  0  0  0  0  0  0  0  0  0  0
    4.5245    1.2824   21.2908 C   0  0  0  0  0  0  0  0  0  0  0  0
    4.9867    0.9095   19.9971 C   0  0  0  0  0  0  0  0  0  0  0  0
    5.0314    0.8985   22.1715 H   0  0  0  0  0  0  0  0  0  0  0  0
    3.1069    2.4103   22.4245 H   0  0  0  0  0  0  0  0  0  0  0  0
    1.9063    3.2700   20.4244 H   0  0  0  0  0  0  0  0  0  0  0  0
    2.6838    2.6393   18.1494 H   0  0  0  0  0  0  0  0  0  0  0  0
    4.2108    1.4003   16.7053 H   0  0  0  0  0  0  0  0  0  0  0  0
    7.2852   -0.8704   18.2337 H   0  0  0  0  0  0  0  0  0  0  0  0
    7.9058   -0.8172   20.5510 H   0  0  0  0  0  0  0  0  0  0  0  0
    7.0494    0.1817   21.7055 H   0  0  0  0  0  0  0  0  0  0  0  0
    9.5231   -2.9523   22.0455 C   0  0  0  0  0  0  0  0  0  0  0  0
   10.7911   -2.6459   22.5095 C   0  0  0  0  0  0  0  0  0  0  0  0
   11.6828   -3.0898   22.0944 H   0  0  0  0  0  0  0  0  0  0  0  0
    9.3640   -3.6997   21.2768 H   0  0  0  0  0  0  0  0  0  0  0  0
    7.6849   -0.8439   23.9577 H   0  0  0  0  0  0  0  0  0  0  0  0
    9.9545   -0.2966   24.8242 H   0  0  0  0  0  0  0  0  0  0  0  0
  1  2  3  0
  2  3  1  0
  3  4  2  0
  4  5  1  0
  5  6  2  0
  6  7  1  0
  7  8  1  0
  8  9  1  0
  9 10  2  0
 10 11  1  0
 11 12  2  0
 12 13  1  0
 13 14  1  0
 13 15  2  0
 15 16  1  0
 12 17  1  0
 11 18  1  0
 10 19  1  0
  8 20  1  0
  8 21  1  0
  7 22  1  0
 22 23  2  0
 22 24  1  0
 24 25  1  0
 25 26  2  0
 26 27  1  0
 27 28  2  0
 28 29  1  0
 29 30  2  0
 30 31  1  0
 31 32  2  0
 32 33  1  0
 33 34  2  0
 33 35  1  0
 32 36  1  0
 31 37  1  0
 30 38  1  0
 28 39  1  0
 26 40  1  0
 24 41  1  0
 24 42  1  0
  6 43  1  0
 43 44  2  0
 44 45  1  0
 43 46  1  0
  5 47  1  0
  4 48  1  0
 44  3  1  0
 15  9  1  0
 34 25  1  0
 34 29  1  0
M  END
>  <cnnaffinities>  (38) 
[6.40853]

>  <score>  (38) 
6.40853

>  <index>  (38) 
37

>  <Smiles>  (38) 
N#Cc1c(c(c(N(C(c2c(c(c(c(Cl)c2[H])[H])[H])[H])([H])[H])C(=O)C(c2c(nc(c3c(c(c(c(c23)[H])[H])[H])[H])[H])[H])([H])[H])c(c1[H])[H])[H])[H]

>  <h>  (38) 
<NA>

>  <Training>  (38) 
True

>  <Success>  (38) 
True

>  <enamine_searched>  (38) 
False

>  <enamine_id>  (38) 
nan

$$$$

     RDKit          3D

 72 77  0  0  0  0  0  0  0  0999 V2000
    5.0840   -7.1976   21.0663 C   0  0  0  0  0  0  0  0  0  0  0  0
    4.2289   -6.4640   22.0308 N   0  0  0  0  0  4  0  0  0  0  0  0
    4.7292   -5.0856   22.3674 C   0  0  0  0  0  0  0  0  0  0  0  0
    5.9644   -5.0922   23.2827 C   0  0  0  0  0  0  0  0  0  0  0  0
    6.3211   -3.7434   23.6997 N   0  0  0  0  0  0  0  0  0  0  0  0
    7.5149   -3.1163   23.1602 C   0  0  0  0  0  0  0  0  0  0  0  0
    7.3307   -1.6027   22.8761 C   0  0  2  0  0  0  0  0  0  0  0  0
    6.3391   -1.3946   21.7135 C   0  0  0  0  0  0  0  0  0  0  0  0
    5.2431   -1.9139   21.5951 O   0  0  0  0  0  0  0  0  0  0  0  0
    6.8639   -0.4839   20.8302 N   0  0  0  0  0  0  0  0  0  0  0  0
    6.0977    0.0578   19.7668 C   0  0  0  0  0  0  0  0  0  0  0  0
    6.4417   -0.2195   18.4684 C   0  0  0  0  0  0  0  0  0  0  0  0
    5.7786    0.2429   17.3794 N   0  0  0  0  0  0  0  0  0  0  0  0
    4.7475    1.0265   17.5918 C   0  0  0  0  0  0  0  0  0  0  0  0
    4.2947    1.4141   18.8860 C   0  0  0  0  0  0  0  0  0  0  0  0
    3.1799    2.2777   19.0568 C   0  0  0  0  0  0  0  0  0  0  0  0
    2.7811    2.6505   20.3106 C   0  0  0  0  0  0  0  0  0  0  0  0
    3.4821    2.1863   21.4478 C   0  0  0  0  0  0  0  0  0  0  0  0
    4.5635    1.3517   21.3132 C   0  0  0  0  0  0  0  0  0  0  0  0
    4.9881    0.9289   20.0177 C   0  0  0  0  0  0  0  0  0  0  0  0
    5.0993    1.0074   22.1989 H   0  0  0  0  0  0  0  0  0  0  0  0
    3.1590    2.4952   22.4371 H   0  0  0  0  0  0  0  0  0  0  0  0
    1.9284    3.3116   20.4418 H   0  0  0  0  0  0  0  0  0  0  0  0
    2.6651    2.6404   18.1709 H   0  0  0  0  0  0  0  0  0  0  0  0
    4.2144    1.3932   16.7147 H   0  0  0  0  0  0  0  0  0  0  0  0
    7.2907   -0.8711   18.2641 H   0  0  0  0  0  0  0  0  0  0  0  0
    8.1565    0.0417   21.2070 C   0  0  0  0  0  0  0  0  0  0  0  0
    8.6187   -0.8619   22.3613 C   0  0  2  0  0  0  0  0  0  0  0  0
    9.7744   -1.7364   21.8475 C   0  0  0  0  0  0  0  0  0  0  0  0
   10.3796   -2.4289   22.8952 O   0  0  0  0  0  0  0  0  0  0  0  0
   11.5085   -1.8587   23.5166 C   0  0  0  0  0  0  0  0  0  0  0  0
   11.8708   -2.6160   24.7459 C   0  0  0  0  0  0  0  0  0  0  0  0
   13.1440   -2.1095   25.3588 C   0  0  0  0  0  0  0  0  0  0  0  0
   14.7084   -3.0215   25.4547 S   0  0  0  0  0  0  0  0  0  0  0  0
   14.6820   -4.1423   26.4088 O   0  0  0  0  0  0  0  0  0  0  0  0
   15.0391   -3.2086   24.0304 O   0  0  0  0  0  0  0  0  0  0  0  0
   11.9231   -3.0115   24.6524 C   0  0  0  0  0  0  0  0  0  0  0  0
   11.6776   -4.2716   25.3362 H   0  0  0  0  0  0  0  0  0  0  0  0
   12.3739   -3.7507   23.8531 H   0  0  0  0  0  0  0  0  0  0  0  0
   13.4834   -1.2561   24.7683 H   0  0  0  0  0  0  0  0  0  0  0  0
   12.9468   -1.8028   26.3718 H   0  0  0  0  0  0  0  0  0  0  0  0
   10.9632   -2.6339   25.4333 H   0  0  0  0  0  0  0  0  0  0  0  0
   12.3586   -1.8147   22.8052 H   0  0  0  0  0  0  0  0  0  0  0  0
   11.2835   -0.8084   23.7841 H   0  0  0  0  0  0  0  0  0  0  0  0
    9.4105   -2.4791   21.1200 H   0  0  0  0  0  0  0  0  0  0  0  0
   10.5295   -1.1272   21.3257 H   0  0  0  0  0  0  0  0  0  0  0  0
    9.0495   -0.2912   23.1912 H   0  0  0  0  0  0  0  0  0  0  0  0
    8.0999    1.0997   21.4971 H   0  0  0  0  0  0  0  0  0  0  0  0
    8.8451   -0.0156   20.3612 H   0  0  0  0  0  0  0  0  0  0  0  0
    6.7260   -0.9666   24.1306 C   0  0  0  0  0  0  0  0  0  0  0  0
    6.8483    0.4090   24.3710 C   0  0  0  0  0  0  0  0  0  0  0  0
    6.2349    0.9811   25.4747 C   0  0  0  0  0  0  0  0  0  0  0  0
    6.4002    2.6938   25.7556 Cl  0  0  0  0  0  0  0  0  0  0  0  0
    5.4753    0.2209   26.3607 C   0  0  0  0  0  0  0  0  0  0  0  0
    5.3167   -1.1283   26.1067 C   0  0  0  0  0  0  0  0  0  0  0  0
    5.9190   -1.7227   24.9953 C   0  0  0  0  0  0  0  0  0  0  0  0
    5.6199   -3.1730   24.7198 C   0  0  0  0  0  0  0  0  0  0  0  0
    4.7678   -3.7935   25.3515 O   0  0  0  0  0  0  0  0  0  0  0  0
    4.7063   -1.7487   26.7544 H   0  0  0  0  0  0  0  0  0  0  0  0
    5.0078    0.6972   27.2159 H   0  0  0  0  0  0  0  0  0  0  0  0
    7.4058    1.0623   23.7059 H   0  0  0  0  0  0  0  0  0  0  0  0
    7.7614   -3.6284   22.2304 H   0  0  0  0  0  0  0  0  0  0  0  0
    8.3418   -3.2405   23.8689 H   0  0  0  0  0  0  0  0  0  0  0  0
    6.8341   -5.5198   22.7652 H   0  0  0  0  0  0  0  0  0  0  0  0
    5.7779   -5.6855   24.1856 H   0  0  0  0  0  0  0  0  0  0  0  0
    3.9175   -4.5530   22.8523 H   0  0  0  0  0  0  0  0  0  0  0  0
    4.9727   -4.5651   21.4413 H   0  0  0  0  0  0  0  0  0  0  0  0
    3.2670   -6.4099   21.6376 H   0  0  0  0  0  0  0  0  0  0  0  0
    4.1892   -7.0187   22.9194 H   0  0  0  0  0  0  0  0  0  0  0  0
    4.5972   -8.1220   20.7618 H   0  0  0  0  0  0  0  0  0  0  0  0
    5.2685   -6.5889   20.1793 H   0  0  0  0  0  0  0  0  0  0  0  0
    6.0494   -7.4434   21.5076 H   0  0  0  0  0  0  0  0  0  0  0  0
  1  2  1  0
  2  3  1  0
  3  4  1  0
  4  5  1  0
  5  6  1  0
  7  6  1  1
  7  8  1  0
  8  9  2  0
  8 10  1  0
 10 11  1  0
 11 12  2  0
 12 13  1  0
 13 14  2  0
 14 15  1  0
 15 16  2  0
 16 17  1  0
 17 18  2  0
 18 19  1  0
 19 20  2  0
 19 21  1  0
 18 22  1  0
 17 23  1  0
 16 24  1  0
 14 25  1  0
 12 26  1  0
 10 27  1  0
 27 28  1  0
 28 29  1  0
 29 30  1  0
 30 31  1  0
 31 32  1  0
 32 33  1  0
 33 34  1  0
 34 35  2  0
 34 36  2  0
 34 37  1  0
 37 38  1  0
 37 39  1  0
 33 40  1  0
 33 41  1  0
 32 42  1  0
 31 43  1  0
 31 44  1  0
 29 45  1  0
 29 46  1  0
 28 47  1  1
 27 48  1  0
 27 49  1  0
  7 50  1  0
 50 51  2  0
 51 52  1  0
 52 53  1  0
 52 54  2  0
 54 55  1  0
 55 56  2  0
 56 57  1  0
 57 58  2  0
 55 59  1  0
 54 60  1  0
 51 61  1  0
  6 62  1  0
  6 63  1  0
  4 64  1  0
  4 65  1  0
  3 66  1  0
  3 67  1  0
  2 68  1  0
  2 69  1  0
  1 70  1  0
  1 71  1  0
  1 72  1  0
 57  5  1  0
 28  7  1  0
 37 32  1  0
 56 50  1  0
 20 11  1  0
 20 15  1  0
M  CHG  1   2   1
M  END
>  <cnnaffinities>  (39) 
[6.84629]

>  <score>  (39) 
6.84629

>  <index>  (39) 
38

>  <Smiles>  (39) 
C([N+](C(C(N1C([C@@]2(C(=O)N(c3c(nc(c4c(c(c(c(c34)[H])[H])[H])[H])[H])[H])C([C@@]2(C(OC(C2(C(S(=O)(=O)C2([H])[H])([H])[H])[H])([H])[H])([H])[H])[H])([H])[H])c2c(c(Cl)c(c(c2C1=O)[H])[H])[H])([H])[H])([H])[H])([H])[H])([H])[H])([H])([H])[H]

>  <h>  (39) 
<NA>

>  <Training>  (39) 
True

>  <Success>  (39) 
True

>  <enamine_searched>  (39) 
False

>  <enamine_id>  (39) 
nan

$$$$

     RDKit          3D

 60 64  0  0  0  0  0  0  0  0999 V2000
   11.4737   -0.5191   23.7585 C   0  0  0  0  0  0  0  0  0  0  0  0
   10.4853   -1.6622   23.5646 C   0  0  0  0  0  0  0  0  0  0  0  0
    9.8249   -1.5548   22.3143 O   0  0  0  0  0  0  0  0  0  0  0  0
    8.5513   -0.9563   22.3431 C   0  0  1  0  0  0  0  0  0  0  0  0
    8.2785   -0.4039   20.9511 C   0  0  0  0  0  0  0  0  0  0  0  0
    6.8394   -0.4870   20.8409 N   0  0  0  0  0  0  0  0  0  0  0  0
    6.1078    0.0713   19.7742 C   0  0  0  0  0  0  0  0  0  0  0  0
    6.4624   -0.2141   18.4803 C   0  0  0  0  0  0  0  0  0  0  0  0
    5.8021    0.2357   17.3860 N   0  0  0  0  0  0  0  0  0  0  0  0
    4.7669    1.0136   17.5976 C   0  0  0  0  0  0  0  0  0  0  0  0
    4.3114    1.4063   18.8881 C   0  0  0  0  0  0  0  0  0  0  0  0
    3.1952    2.2666   19.0464 C   0  0  0  0  0  0  0  0  0  0  0  0
    2.7848    2.6527   20.2913 C   0  0  0  0  0  0  0  0  0  0  0  0
    3.4774    2.2051   21.4385 C   0  0  0  0  0  0  0  0  0  0  0  0
    4.5626    1.3743   21.3141 C   0  0  0  0  0  0  0  0  0  0  0  0
    4.9979    0.9374   20.0276 C   0  0  0  0  0  0  0  0  0  0  0  0
    5.0900    1.0476   22.2064 H   0  0  0  0  0  0  0  0  0  0  0  0
    3.1523    2.5340   22.4218 H   0  0  0  0  0  0  0  0  0  0  0  0
    1.9324    3.3163   20.4068 H   0  0  0  0  0  0  0  0  0  0  0  0
    2.6910    2.6203   18.1516 H   0  0  0  0  0  0  0  0  0  0  0  0
    4.2307    1.3863   16.7243 H   0  0  0  0  0  0  0  0  0  0  0  0
    7.3086   -0.8743   18.2909 H   0  0  0  0  0  0  0  0  0  0  0  0
    6.2837   -1.4358   21.6723 C   0  0  0  0  0  0  0  0  0  0  0  0
    5.1436   -1.8314   21.5908 O   0  0  0  0  0  0  0  0  0  0  0  0
    7.3649   -1.9135   22.6720 C   0  0  1  0  0  0  0  0  0  0  0  0
    7.7362   -3.3909   22.3770 C   0  0  0  0  0  0  0  0  0  0  0  0
    6.6936   -4.3118   22.7985 N   0  0  0  0  0  0  0  0  0  0  0  0
    6.1062   -5.2544   21.8581 C   0  0  0  0  0  0  0  0  0  0  0  0
    6.9386   -6.5380   21.7429 C   0  0  0  0  0  0  0  0  0  0  0  0
    7.6778   -6.7822   20.8047 O   0  0  0  0  0  0  0  0  0  0  0  0
    6.7743   -7.3641   22.8107 N   0  0  0  0  0  0  0  0  0  0  0  0
    7.6108   -8.5334   22.9830 C   0  0  0  0  0  0  0  0  0  0  0  0
    8.6493   -8.2756   23.2263 H   0  0  0  0  0  0  0  0  0  0  0  0
    7.6125   -9.1449   22.0816 H   0  0  0  0  0  0  0  0  0  0  0  0
    7.2070   -9.1406   23.7930 H   0  0  0  0  0  0  0  0  0  0  0  0
    6.2167   -7.0525   23.5942 H   0  0  0  0  0  0  0  0  0  0  0  0
    5.1084   -5.5172   22.2347 H   0  0  0  0  0  0  0  0  0  0  0  0
    6.0184   -4.7569   20.8866 H   0  0  0  0  0  0  0  0  0  0  0  0
    6.2078   -4.2700   24.0686 C   0  0  0  0  0  0  0  0  0  0  0  0
    5.6044   -5.2204   24.5623 O   0  0  0  0  0  0  0  0  0  0  0  0
    6.3800   -2.9626   24.7747 C   0  0  0  0  0  0  0  0  0  0  0  0
    5.9419   -2.8818   26.0947 C   0  0  0  0  0  0  0  0  0  0  0  0
    5.9415   -1.6724   26.7608 C   0  0  0  0  0  0  0  0  0  0  0  0
    6.3762   -0.5406   26.0740 C   0  0  0  0  0  0  0  0  0  0  0  0
    6.3265    1.0035   26.8699 Cl  0  0  0  0  0  0  0  0  0  0  0  0
    6.8387   -0.6056   24.7739 C   0  0  0  0  0  0  0  0  0  0  0  0
    6.8698   -1.8329   24.1032 C   0  0  0  0  0  0  0  0  0  0  0  0
    7.1637    0.3086   24.2903 H   0  0  0  0  0  0  0  0  0  0  0  0
    5.5933   -1.5860   27.7847 H   0  0  0  0  0  0  0  0  0  0  0  0
    5.5927   -3.7931   26.5662 H   0  0  0  0  0  0  0  0  0  0  0  0
    8.6920   -3.6155   22.8719 H   0  0  0  0  0  0  0  0  0  0  0  0
    7.8839   -3.5233   21.3121 H   0  0  0  0  0  0  0  0  0  0  0  0
    8.6136    0.6317   20.8451 H   0  0  0  0  0  0  0  0  0  0  0  0
    8.8152   -1.0299   20.2286 H   0  0  0  0  0  0  0  0  0  0  0  0
    8.5421   -0.1276   23.0593 H   0  0  0  0  0  0  0  0  0  0  0  0
    9.7522   -1.7080   24.3900 H   0  0  0  0  0  0  0  0  0  0  0  0
   11.0194   -2.6202   23.5395 H   0  0  0  0  0  0  0  0  0  0  0  0
   12.2164   -0.5236   22.9538 H   0  0  0  0  0  0  0  0  0  0  0  0
   11.9994   -0.6251   24.7134 H   0  0  0  0  0  0  0  0  0  0  0  0
   10.9666    0.4525   23.7509 H   0  0  0  0  0  0  0  0  0  0  0  0
  1  2  1  0
  2  3  1  0
  3  4  1  0
  4  5  1  0
  5  6  1  0
  6  7  1  0
  7  8  2  0
  8  9  1  0
  9 10  2  0
 10 11  1  0
 11 12  2  0
 12 13  1  0
 13 14  2  0
 14 15  1  0
 15 16  2  0
 15 17  1  0
 14 18  1  0
 13 19  1  0
 12 20  1  0
 10 21  1  0
  8 22  1  0
  6 23  1  0
 23 24  2  0
 23 25  1  0
 25 26  1  6
 26 27  1  0
 27 28  1  0
 28 29  1  0
 29 30  2  0
 29 31  1  0
 31 32  1  0
 32 33  1  0
 32 34  1  0
 32 35  1  0
 31 36  1  0
 28 37  1  0
 28 38  1  0
 27 39  1  0
 39 40  2  0
 39 41  1  0
 41 42  2  0
 42 43  1  0
 43 44  2  0
 44 45  1  0
 44 46  1  0
 46 47  2  0
 46 48  1  0
 43 49  1  0
 42 50  1  0
 26 51  1  0
 26 52  1  0
  5 53  1  0
  5 54  1  0
  4 55  1  1
  2 56  1  0
  2 57  1  0
  1 58  1  0
  1 59  1  0
  1 60  1  0
 25  4  1  0
 47 41  1  0
 16  7  1  0
 47 25  1  0
 16 11  1  0
M  END
>  <cnnaffinities>  (40) 
[6.52532]

>  <score>  (40) 
6.52532

>  <index>  (40) 
39

>  <Smiles>  (40) 
C(C(O[C@]1(C(N(c2c(nc(c3c(c(c(c(c23)[H])[H])[H])[H])[H])[H])C(=O)[C@]21C(N(C(C(=O)N(C([H])([H])[H])[H])([H])[H])C(=O)c1c(c(c(Cl)c(c21)[H])[H])[H])([H])[H])([H])[H])[H])([H])[H])([H])([H])[H]

>  <h>  (40) 
<NA>

>  <Training>  (40) 
True

>  <Success>  (40) 
True

>  <enamine_searched>  (40) 
False

>  <enamine_id>  (40) 
nan

$$$$

     RDKit          3D

 57 61  0  0  0  0  0  0  0  0999 V2000
    7.4707   -8.5007   23.0495 C   0  0  0  0  0  0  0  0  0  0  0  0
    6.6181   -7.3982   22.6603 N   0  0  0  0  0  0  0  0  0  0  0  0
    6.9337   -6.5471   21.6485 C   0  0  0  0  0  0  0  0  0  0  0  0
    7.7845   -6.7684   20.8057 O   0  0  0  0  0  0  0  0  0  0  0  0
    6.1300   -5.2445   21.6636 C   0  0  0  0  0  0  0  0  0  0  0  0
    6.6773   -4.3192   22.6434 N   0  0  0  0  0  0  0  0  0  0  0  0
    7.7531   -3.4045   22.2916 C   0  0  0  0  0  0  0  0  0  0  0  0
    7.3851   -1.9417   22.6480 C   0  0  2  0  0  0  0  0  0  0  0  0
    6.2938   -1.4460   21.6701 C   0  0  0  0  0  0  0  0  0  0  0  0
    5.1525   -1.8522   21.5825 O   0  0  0  0  0  0  0  0  0  0  0  0
    6.8399   -0.4749   20.8541 N   0  0  0  0  0  0  0  0  0  0  0  0
    6.1139    0.0799   19.7806 C   0  0  0  0  0  0  0  0  0  0  0  0
    6.4639   -0.2141   18.4861 C   0  0  0  0  0  0  0  0  0  0  0  0
    5.8063    0.2328   17.3893 N   0  0  0  0  0  0  0  0  0  0  0  0
    4.7733    1.0156   17.5986 C   0  0  0  0  0  0  0  0  0  0  0  0
    4.3143    1.4081   18.8880 C   0  0  0  0  0  0  0  0  0  0  0  0
    3.1970    2.2680   19.0425 C   0  0  0  0  0  0  0  0  0  0  0  0
    2.7877    2.6512   20.2902 C   0  0  0  0  0  0  0  0  0  0  0  0
    3.4795    2.2051   21.4373 C   0  0  0  0  0  0  0  0  0  0  0  0
    4.5648    1.3741   21.3145 C   0  0  0  0  0  0  0  0  0  0  0  0
    5.0003    0.9422   20.0274 C   0  0  0  0  0  0  0  0  0  0  0  0
    5.0904    1.0446   22.2044 H   0  0  0  0  0  0  0  0  0  0  0  0
    3.1509    2.5343   22.4191 H   0  0  0  0  0  0  0  0  0  0  0  0
    1.9358    3.3153   20.4031 H   0  0  0  0  0  0  0  0  0  0  0  0
    2.6921    2.6203   18.1473 H   0  0  0  0  0  0  0  0  0  0  0  0
    4.2373    1.3825   16.7243 H   0  0  0  0  0  0  0  0  0  0  0  0
    7.3105   -0.8750   18.3027 H   0  0  0  0  0  0  0  0  0  0  0  0
    8.2825   -0.3877   20.9612 C   0  0  0  0  0  0  0  0  0  0  0  0
    8.5586   -0.9598   22.3551 C   0  0  2  0  0  0  0  0  0  0  0  0
    9.9825   -1.5328   22.4731 C   0  0  0  0  0  0  0  0  0  0  0  0
   10.9935   -0.4763   22.3161 C   0  0  0  0  0  0  0  0  0  0  0  0
   11.7818    0.3599   22.1916 N   0  0  0  0  0  0  0  0  0  0  0  0
   10.1586   -2.2854   21.6952 H   0  0  0  0  0  0  0  0  0  0  0  0
   10.1357   -2.0093   23.4477 H   0  0  0  0  0  0  0  0  0  0  0  0
    8.4863   -0.1344   23.0654 H   0  0  0  0  0  0  0  0  0  0  0  0
    8.7944   -0.9782   20.1860 H   0  0  0  0  0  0  0  0  0  0  0  0
    8.6154    0.6508   20.8726 H   0  0  0  0  0  0  0  0  0  0  0  0
    6.8845   -1.9367   24.0842 C   0  0  0  0  0  0  0  0  0  0  0  0
    6.8485   -0.7491   24.8207 C   0  0  0  0  0  0  0  0  0  0  0  0
    6.3752   -0.7502   26.1185 C   0  0  0  0  0  0  0  0  0  0  0  0
    6.3237    0.7468   26.9955 Cl  0  0  0  0  0  0  0  0  0  0  0  0
    5.9392   -1.9156   26.7451 C   0  0  0  0  0  0  0  0  0  0  0  0
    5.9425   -3.0866   26.0174 C   0  0  0  0  0  0  0  0  0  0  0  0
    6.3758   -3.0933   24.6944 C   0  0  0  0  0  0  0  0  0  0  0  0
    6.1897   -4.3495   23.9124 C   0  0  0  0  0  0  0  0  0  0  0  0
    5.5709   -5.3215   24.3613 O   0  0  0  0  0  0  0  0  0  0  0  0
    5.5944   -4.0240   26.4354 H   0  0  0  0  0  0  0  0  0  0  0  0
    5.5931   -1.8991   27.7714 H   0  0  0  0  0  0  0  0  0  0  0  0
    7.1916    0.1885   24.4009 H   0  0  0  0  0  0  0  0  0  0  0  0
    8.6827   -3.6767   22.8171 H   0  0  0  0  0  0  0  0  0  0  0  0
    7.9326   -3.4990   21.2246 H   0  0  0  0  0  0  0  0  0  0  0  0
    5.1002   -5.4683   21.9545 H   0  0  0  0  0  0  0  0  0  0  0  0
    6.1142   -4.7496   20.6821 H   0  0  0  0  0  0  0  0  0  0  0  0
    5.9695   -7.0548   23.3571 H   0  0  0  0  0  0  0  0  0  0  0  0
    6.9468   -9.0474   23.8352 H   0  0  0  0  0  0  0  0  0  0  0  0
    7.6256   -9.1865   22.2117 H   0  0  0  0  0  0  0  0  0  0  0  0
    8.4375   -8.1369   23.4243 H   0  0  0  0  0  0  0  0  0  0  0  0
  1  2  1  0
  2  3  1  0
  3  4  2  0
  3  5  1  0
  5  6  1  0
  6  7  1  0
  8  7  1  6
  8  9  1  0
  9 10  2  0
  9 11  1  0
 11 12  1  0
 12 13  2  0
 13 14  1  0
 14 15  2  0
 15 16  1  0
 16 17  2  0
 17 18  1  0
 18 19  2  0
 19 20  1  0
 20 21  2  0
 20 22  1  0
 19 23  1  0
 18 24  1  0
 17 25  1  0
 15 26  1  0
 13 27  1  0
 11 28  1  0
 28 29  1  0
 29 30  1  0
 30 31  1  0
 31 32  3  0
 30 33  1  0
 30 34  1  0
 29 35  1  1
 28 36  1  0
 28 37  1  0
  8 38  1  0
 38 39  2  0
 39 40  1  0
 40 41  1  0
 40 42  2  0
 42 43  1  0
 43 44  2  0
 44 45  1  0
 45 46  2  0
 43 47  1  0
 42 48  1  0
 39 49  1  0
  7 50  1  0
  7 51  1  0
  5 52  1  0
  5 53  1  0
  2 54  1  0
  1 55  1  0
  1 56  1  0
  1 57  1  0
 45  6  1  0
 29  8  1  0
 44 38  1  0
 21 12  1  0
 21 16  1  0
M  END
>  <cnnaffinities>  (41) 
[7.03396]

>  <score>  (41) 
7.03396

>  <index>  (41) 
40

>  <Smiles>  (41) 
C(N(C(=O)C(N1C([C@@]2(C(=O)N(c3c(nc(c4c(c(c(c(c34)[H])[H])[H])[H])[H])[H])C([C@@]2(C(C#N)([H])[H])[H])([H])[H])c2c(c(Cl)c(c(c2C1=O)[H])[H])[H])([H])[H])([H])[H])[H])([H])([H])[H]

>  <h>  (41) 
<NA>

>  <Training>  (41) 
True

>  <Success>  (41) 
True

>  <enamine_searched>  (41) 
False

>  <enamine_id>  (41) 
nan

$$$$

     RDKit          3D

 68 73  0  0  0  0  0  0  0  0999 V2000
    7.6537   -2.8942   23.4508 C   0  0  0  0  0  0  0  0  0  0  0  0
    7.9701   -1.8733   22.3528 C   0  0  1  0  0  0  0  0  0  0  0  0
    6.8516   -1.7613   21.3024 C   0  0  0  0  0  0  0  0  0  0  0  0
    6.9441   -0.3918   20.8337 N   0  0  0  0  0  0  0  0  0  0  0  0
    6.1508    0.1187   19.7721 C   0  0  0  0  0  0  0  0  0  0  0  0
    6.4479   -0.2221   18.4764 C   0  0  0  0  0  0  0  0  0  0  0  0
    5.7692    0.2184   17.3890 N   0  0  0  0  0  0  0  0  0  0  0  0
    4.7515    1.0195   17.5986 C   0  0  0  0  0  0  0  0  0  0  0  0
    4.3065    1.4222   18.8897 C   0  0  0  0  0  0  0  0  0  0  0  0
    3.1800    2.2725   19.0575 C   0  0  0  0  0  0  0  0  0  0  0  0
    2.7540    2.6219   20.3101 C   0  0  0  0  0  0  0  0  0  0  0  0
    3.4311    2.1290   21.4489 C   0  0  0  0  0  0  0  0  0  0  0  0
    4.5233    1.3099   21.3109 C   0  0  0  0  0  0  0  0  0  0  0  0
    5.0093    0.9515   20.0204 C   0  0  0  0  0  0  0  0  0  0  0  0
    5.0317    0.9376   22.1947 H   0  0  0  0  0  0  0  0  0  0  0  0
    3.0919    2.4144   22.4401 H   0  0  0  0  0  0  0  0  0  0  0  0
    1.9009    3.2843   20.4366 H   0  0  0  0  0  0  0  0  0  0  0  0
    2.6764    2.6413   18.1679 H   0  0  0  0  0  0  0  0  0  0  0  0
    4.2219    1.3844   16.7190 H   0  0  0  0  0  0  0  0  0  0  0  0
    7.2890   -0.8823   18.2687 H   0  0  0  0  0  0  0  0  0  0  0  0
    7.7019    0.4302   21.6381 C   0  0  0  0  0  0  0  0  0  0  0  0
    7.8361    1.6232   21.4414 O   0  0  0  0  0  0  0  0  0  0  0  0
    8.2663   -0.3948   22.8064 C   0  0  1  0  0  0  0  0  0  0  0  0
    7.5067    0.0625   24.0804 C   0  0  0  0  0  0  0  0  0  0  0  0
    8.0858   -0.4161   25.3231 N   0  0  0  0  0  0  0  0  0  0  0  0
    7.1760   -0.7886   26.3981 C   0  0  0  0  0  0  0  0  0  0  0  0
    6.4238    0.3942   27.0044 C   0  0  0  0  0  0  0  0  0  0  0  0
    7.3620    1.4340   27.5731 N   0  0  0  0  0  4  0  0  0  0  0  0
    6.7081    2.7859   27.6939 C   0  0  0  0  0  0  0  0  0  0  0  0
    5.5277    2.7942   28.6658 C   0  0  0  0  0  0  0  0  0  0  0  0
    6.0369    2.2877   30.2993 S   0  0  0  0  0  0  0  0  0  0  0  0
    6.9203    3.3431   30.8031 O   0  0  0  0  0  0  0  0  0  0  0  0
    4.8507    1.8834   31.0423 O   0  0  0  0  0  0  0  0  0  0  0  0
    7.0591    0.8443   30.0386 C   0  0  0  0  0  0  0  0  0  0  0  0
    8.0332    1.0467   28.8764 C   0  0  0  0  0  0  0  0  0  0  0  0
    8.7371    1.8444   29.1307 H   0  0  0  0  0  0  0  0  0  0  0  0
    8.6028    0.1318   28.7043 H   0  0  0  0  0  0  0  0  0  0  0  0
    7.5907    0.7243   30.9878 H   0  0  0  0  0  0  0  0  0  0  0  0
    6.3934   -0.0113   29.8975 H   0  0  0  0  0  0  0  0  0  0  0  0
    4.7124    2.1344   28.3549 H   0  0  0  0  0  0  0  0  0  0  0  0
    5.1292    3.8029   28.8082 H   0  0  0  0  0  0  0  0  0  0  0  0
    6.3497    3.0871   26.7063 H   0  0  0  0  0  0  0  0  0  0  0  0
    7.4656    3.5010   28.0226 H   0  0  0  0  0  0  0  0  0  0  0  0
    8.1031    1.5016   26.8489 H   0  0  0  0  0  0  0  0  0  0  0  0
    5.8103    0.8885   26.2400 H   0  0  0  0  0  0  0  0  0  0  0  0
    5.7539    0.0297   27.7848 H   0  0  0  0  0  0  0  0  0  0  0  0
    6.4301   -1.5078   26.0332 H   0  0  0  0  0  0  0  0  0  0  0  0
    7.7574   -1.2819   27.1678 H   0  0  0  0  0  0  0  0  0  0  0  0
    9.4292   -0.6079   25.4548 C   0  0  0  0  0  0  0  0  0  0  0  0
    9.9497   -1.0348   26.4701 O   0  0  0  0  0  0  0  0  0  0  0  0
   10.2892   -0.2399   24.3027 C   0  0  0  0  0  0  0  0  0  0  0  0
   11.6470   -0.0728   24.5525 C   0  0  0  0  0  0  0  0  0  0  0  0
   12.5049    0.1375   23.5058 C   0  0  0  0  0  0  0  0  0  0  0  0
   12.0070    0.1103   22.2083 C   0  0  0  0  0  0  0  0  0  0  0  0
   13.2765    0.1298   21.0152 Cl  0  0  0  0  0  0  0  0  0  0  0  0
   10.6449   -0.0073   21.9406 C   0  0  0  0  0  0  0  0  0  0  0  0
    9.7553   -0.1589   23.0190 C   0  0  0  0  0  0  0  0  0  0  0  0
   10.2645   -0.0137   20.9224 H   0  0  0  0  0  0  0  0  0  0  0  0
   13.5706    0.2435   23.6483 H   0  0  0  0  0  0  0  0  0  0  0  0
   11.9920   -0.1341   25.5739 H   0  0  0  0  0  0  0  0  0  0  0  0
    7.4945    1.1619   24.0697 H   0  0  0  0  0  0  0  0  0  0  0  0
    6.4720   -0.2992   24.0378 H   0  0  0  0  0  0  0  0  0  0  0  0
    6.9850   -2.4546   20.4679 H   0  0  0  0  0  0  0  0  0  0  0  0
    5.8641   -1.9694   21.7439 H   0  0  0  0  0  0  0  0  0  0  0  0
    8.8870   -2.1972   21.8384 H   0  0  0  0  0  0  0  0  0  0  0  0
    8.4474   -2.9350   24.2040 H   0  0  0  0  0  0  0  0  0  0  0  0
    7.5401   -3.8983   23.0270 H   0  0  0  0  0  0  0  0  0  0  0  0
    6.7157   -2.6539   23.9674 H   0  0  0  0  0  0  0  0  0  0  0  0
  1  2  1  0
  2  3  1  0
  3  4  1  0
  4  5  1  0
  5  6  2  0
  6  7  1  0
  7  8  2  0
  8  9  1  0
  9 10  2  0
 10 11  1  0
 11 12  2  0
 12 13  1  0
 13 14  2  0
 13 15  1  0
 12 16  1  0
 11 17  1  0
 10 18  1  0
  8 19  1  0
  6 20  1  0
  4 21  1  0
 21 22  2  0
 21 23  1  0
 23 24  1  1
 24 25  1  0
 25 26  1  0
 26 27  1  0
 27 28  1  0
 28 29  1  0
 29 30  1  0
 30 31  1  0
 31 32  2  0
 31 33  2  0
 31 34  1  0
 34 35  1  0
 35 36  1  0
 35 37  1  0
 34 38  1  0
 34 39  1  0
 30 40  1  0
 30 41  1  0
 29 42  1  0
 29 43  1  0
 28 44  1  0
 27 45  1  0
 27 46  1  0
 26 47  1  0
 26 48  1  0
 25 49  1  0
 49 50  2  0
 49 51  1  0
 51 52  2  0
 52 53  1  0
 53 54  2  0
 54 55  1  0
 54 56  1  0
 56 57  2  0
 56 58  1  0
 53 59  1  0
 52 60  1  0
 24 61  1  0
 24 62  1  0
  3 63  1  0
  3 64  1  0
  2 65  1  6
  1 66  1  0
  1 67  1  0
  1 68  1  0
 23  2  1  0
 35 28  1  0
 57 51  1  0
 14  5  1  0
 57 23  1  0
 14  9  1  0
M  CHG  1  28   1
M  END
>  <cnnaffinities>  (42) 
[6.46067, 6.32863, 6.33525, 6.46241]

>  <score>  (42) 
6.46067

>  <index>  (42) 
41

>  <Smiles>  (42) 
C([C@]1(C(N(c2c(nc(c3c(c(c(c(c23)[H])[H])[H])[H])[H])[H])C(=O)[C@]21C(N(C(C([N+]1(C(C(S(=O)(=O)C(C1([H])[H])([H])[H])([H])[H])([H])[H])[H])([H])[H])([H])[H])C(=O)c1c(c(c(Cl)c(c21)[H])[H])[H])([H])[H])([H])[H])[H])([H])([H])[H]

>  <h>  (42) 
<NA>

>  <Training>  (42) 
True

>  <Success>  (42) 
True

>  <enamine_searched>  (42) 
False

>  <enamine_id>  (42) 
nan

$$$$

     RDKit          3D

 60 65  0  0  0  0  0  0  0  0999 V2000
    7.4808   -8.4924   23.0388 C   0  0  0  0  0  0  0  0  0  0  0  0
    6.6184   -7.4018   22.6351 N   0  0  0  0  0  0  0  0  0  0  0  0
    6.9446   -6.5453   21.6248 C   0  0  0  0  0  0  0  0  0  0  0  0
    7.8029   -6.7574   20.7886 O   0  0  0  0  0  0  0  0  0  0  0  0
    6.1285   -5.2430   21.6550 C   0  0  0  0  0  0  0  0  0  0  0  0
    6.6590   -4.3173   22.6418 N   0  0  0  0  0  0  0  0  0  0  0  0
    7.7273   -3.3997   22.2940 C   0  0  0  0  0  0  0  0  0  0  0  0
    7.3622   -1.9410   22.6627 C   0  0  2  0  0  0  0  0  0  0  0  0
    6.3035   -1.4240   21.6659 C   0  0  0  0  0  0  0  0  0  0  0  0
    5.1567   -1.8046   21.5552 O   0  0  0  0  0  0  0  0  0  0  0  0
    6.8879   -0.4699   20.8563 N   0  0  0  0  0  0  0  0  0  0  0  0
    6.1546    0.0925   19.7879 C   0  0  0  0  0  0  0  0  0  0  0  0
    6.4851   -0.2141   18.4909 C   0  0  0  0  0  0  0  0  0  0  0  0
    5.8155    0.2264   17.3981 N   0  0  0  0  0  0  0  0  0  0  0  0
    4.7814    1.0069   17.6077 C   0  0  0  0  0  0  0  0  0  0  0  0
    4.3305    1.4044   18.8977 C   0  0  0  0  0  0  0  0  0  0  0  0
    3.2070    2.2584   19.0495 C   0  0  0  0  0  0  0  0  0  0  0  0
    2.7925    2.6448   20.2942 C   0  0  0  0  0  0  0  0  0  0  0  0
    3.4867    2.1998   21.4395 C   0  0  0  0  0  0  0  0  0  0  0  0
    4.5786    1.3760   21.3195 C   0  0  0  0  0  0  0  0  0  0  0  0
    5.0275    0.9451   20.0349 C   0  0  0  0  0  0  0  0  0  0  0  0
    5.0967    1.0459   22.2139 H   0  0  0  0  0  0  0  0  0  0  0  0
    3.1559    2.5272   22.4215 H   0  0  0  0  0  0  0  0  0  0  0  0
    1.9390    3.3076   20.4057 H   0  0  0  0  0  0  0  0  0  0  0  0
    2.7003    2.6064   18.1539 H   0  0  0  0  0  0  0  0  0  0  0  0
    4.2394    1.3719   16.7349 H   0  0  0  0  0  0  0  0  0  0  0  0
    7.3220   -0.8832   18.2950 H   0  0  0  0  0  0  0  0  0  0  0  0
    8.3341   -0.3854   21.0187 C   0  0  0  0  0  0  0  0  0  0  0  0
    8.5423   -0.9690   22.4166 C   0  0  2  0  0  0  0  0  0  0  0  0
    9.9374   -1.5588   22.6413 C   0  0  0  0  0  0  0  0  0  0  0  0
   10.9902   -0.5046   22.6236 C   0  0  0  0  0  0  0  0  0  0  0  0
   11.2026    0.3963   23.5723 N   0  0  0  0  0  0  0  0  0  0  0  0
   12.2007    1.1409   23.1093 N   0  0  0  0  0  0  0  0  0  0  0  0
   12.5680    0.7023   21.9363 N   0  0  0  0  0  2  0  0  0  0  0  0
   11.8195   -0.3455   21.6072 N   0  0  0  0  0  0  0  0  0  0  0  0
    9.9670   -2.0781   23.6022 H   0  0  0  0  0  0  0  0  0  0  0  0
   10.1952   -2.2771   21.8578 H   0  0  0  0  0  0  0  0  0  0  0  0
    8.4351   -0.1412   23.1176 H   0  0  0  0  0  0  0  0  0  0  0  0
    8.8917   -0.9744   20.2754 H   0  0  0  0  0  0  0  0  0  0  0  0
    8.6794    0.6506   20.9561 H   0  0  0  0  0  0  0  0  0  0  0  0
    6.8567   -1.9441   24.0898 C   0  0  0  0  0  0  0  0  0  0  0  0
    6.8288   -0.7619   24.8351 C   0  0  0  0  0  0  0  0  0  0  0  0
    6.3695   -0.7746   26.1357 C   0  0  0  0  0  0  0  0  0  0  0  0
    6.3309    0.7211   27.0158 Cl  0  0  0  0  0  0  0  0  0  0  0  0
    5.9411   -1.9436   26.7581 C   0  0  0  0  0  0  0  0  0  0  0  0
    5.9425   -3.1077   26.0202 C   0  0  0  0  0  0  0  0  0  0  0  0
    6.3635   -3.1076   24.6954 C   0  0  0  0  0  0  0  0  0  0  0  0
    6.1768   -4.3624   23.9112 C   0  0  0  0  0  0  0  0  0  0  0  0
    5.5712   -5.3447   24.3481 O   0  0  0  0  0  0  0  0  0  0  0  0
    5.6021   -4.0469   26.4351 H   0  0  0  0  0  0  0  0  0  0  0  0
    5.6041   -1.9263   27.7871 H   0  0  0  0  0  0  0  0  0  0  0  0
    7.1709    0.1779   24.4192 H   0  0  0  0  0  0  0  0  0  0  0  0
    7.9026   -3.4788   21.2269 H   0  0  0  0  0  0  0  0  0  0  0  0
    8.6603   -3.6841   22.8015 H   0  0  0  0  0  0  0  0  0  0  0  0
    6.1204   -4.7504   20.6742 H   0  0  0  0  0  0  0  0  0  0  0  0
    5.0956   -5.4695   21.9366 H   0  0  0  0  0  0  0  0  0  0  0  0
    5.9439   -7.0797   23.3183 H   0  0  0  0  0  0  0  0  0  0  0  0
    8.4442   -8.1201   23.4284 H   0  0  0  0  0  0  0  0  0  0  0  0
    7.6510   -9.1760   22.2073 H   0  0  0  0  0  0  0  0  0  0  0  0
    6.9458   -9.0419   23.8227 H   0  0  0  0  0  0  0  0  0  0  0  0
  1  2  1  0
  2  3  1  0
  3  4  2  0
  3  5  1  0
  5  6  1  0
  6  7  1  0
  8  7  1  6
  8  9  1  0
  9 10  2  0
  9 11  1  0
 11 12  1  0
 12 13  2  0
 13 14  1  0
 14 15  2  0
 15 16  1  0
 16 17  2  0
 17 18  1  0
 18 19  2  0
 19 20  1  0
 20 21  2  0
 20 22  1  0
 19 23  1  0
 18 24  1  0
 17 25  1  0
 15 26  1  0
 13 27  1  0
 11 28  1  0
 28 29  1  0
 29 30  1  0
 30 31  1  0
 31 32  1  0
 32 33  2  0
 33 34  1  0
 34 35  1  0
 30 36  1  0
 30 37  1  0
 29 38  1  1
 28 39  1  0
 28 40  1  0
  8 41  1  0
 41 42  2  0
 42 43  1  0
 43 44  1  0
 43 45  2  0
 45 46  1  0
 46 47  2  0
 47 48  1  0
 48 49  2  0
 46 50  1  0
 45 51  1  0
 42 52  1  0
  7 53  1  0
  7 54  1  0
  5 55  1  0
  5 56  1  0
  2 57  1  0
  1 58  1  0
  1 59  1  0
  1 60  1  0
 48  6  1  0
 29  8  1  0
 35 31  2  0
 47 41  1  0
 21 12  1  0
 21 16  1  0
M  CHG  1  34  -1
M  END
>  <cnnaffinities>  (43) 
[7.12637, 7.12772]

>  <score>  (43) 
7.12637

>  <index>  (43) 
42

>  <Smiles>  (43) 
C(N(C(=O)C(N1C([C@@]2(C(=O)N(c3c(nc(c4c(c(c(c(c34)[H])[H])[H])[H])[H])[H])C([C@@]2(C(c2nn[n-]n2)([H])[H])[H])([H])[H])c2c(c(Cl)c(c(c2C1=O)[H])[H])[H])([H])[H])([H])[H])[H])([H])([H])[H]

>  <h>  (43) 
<NA>

>  <Training>  (43) 
True

>  <Success>  (43) 
True

>  <enamine_searched>  (43) 
False

>  <enamine_id>  (43) 
nan

$$$$

     RDKit          3D

 62 67  0  0  0  0  0  0  0  0999 V2000
    3.1729   -7.5880   23.7098 C   0  0  0  0  0  0  0  0  0  0  0  0
    3.9344   -6.9022   24.8317 C   0  0  0  0  0  0  0  0  0  0  0  0
    5.3603   -6.9617   24.5669 N   0  0  0  0  0  0  0  0  0  0  0  0
    6.0348   -8.0498   24.9553 N   0  0  0  0  0  0  0  0  0  0  0  0
    7.3057   -7.7542   24.7143 C   0  0  0  0  0  0  0  0  0  0  0  0
    7.4470   -6.4931   24.1174 C   0  0  0  0  0  0  0  0  0  0  0  0
    6.1551   -6.0368   23.9709 C   0  0  0  0  0  0  0  0  0  0  0  0
    5.6386   -4.8133   23.2697 C   0  0  0  0  0  0  0  0  0  0  0  0
    6.2363   -3.6029   23.7741 N   0  0  0  0  0  0  0  0  0  0  0  0
    7.4454   -3.1024   23.1717 C   0  0  0  0  0  0  0  0  0  0  0  0
    7.3315   -1.6043   22.8605 C   0  0  2  0  0  0  0  0  0  0  0  0
    6.3290   -1.3955   21.7114 C   0  0  0  0  0  0  0  0  0  0  0  0
    5.2392   -1.9139   21.5840 O   0  0  0  0  0  0  0  0  0  0  0  0
    6.8683   -0.5011   20.8244 N   0  0  0  0  0  0  0  0  0  0  0  0
    6.1093    0.0568   19.7739 C   0  0  0  0  0  0  0  0  0  0  0  0
    6.4587   -0.2203   18.4769 C   0  0  0  0  0  0  0  0  0  0  0  0
    5.7968    0.2355   17.3886 N   0  0  0  0  0  0  0  0  0  0  0  0
    4.7624    1.0137   17.6030 C   0  0  0  0  0  0  0  0  0  0  0  0
    4.3122    1.4013   18.8981 C   0  0  0  0  0  0  0  0  0  0  0  0
    3.1988    2.2657   19.0579 C   0  0  0  0  0  0  0  0  0  0  0  0
    2.7932    2.6517   20.3050 C   0  0  0  0  0  0  0  0  0  0  0  0
    3.4874    2.1974   21.4502 C   0  0  0  0  0  0  0  0  0  0  0  0
    4.5690    1.3593   21.3280 C   0  0  0  0  0  0  0  0  0  0  0  0
    4.9997    0.9234   20.0348 C   0  0  0  0  0  0  0  0  0  0  0  0
    5.0975    1.0313   22.2259 H   0  0  0  0  0  0  0  0  0  0  0  0
    3.1640    2.5262   22.4360 H   0  0  0  0  0  0  0  0  0  0  0  0
    1.9397    3.3158   20.4247 H   0  0  0  0  0  0  0  0  0  0  0  0
    2.6932    2.6215   18.1649 H   0  0  0  0  0  0  0  0  0  0  0  0
    4.2275    1.3914   16.7313 H   0  0  0  0  0  0  0  0  0  0  0  0
    7.3086   -0.8759   18.2840 H   0  0  0  0  0  0  0  0  0  0  0  0
    8.2123   -0.0817   21.1358 C   0  0  0  0  0  0  0  0  0  0  0  0
    8.6493   -0.9911   22.3013 C   0  0  2  0  0  0  0  0  0  0  0  0
    9.7127   -1.9923   21.8214 C   0  0  0  0  0  0  0  0  0  0  0  0
   10.5860   -1.4594   21.4247 H   0  0  0  0  0  0  0  0  0  0  0  0
    9.3300   -2.6355   21.0214 H   0  0  0  0  0  0  0  0  0  0  0  0
   10.0694   -2.6326   22.6344 H   0  0  0  0  0  0  0  0  0  0  0  0
    9.1286   -0.4048   23.0905 H   0  0  0  0  0  0  0  0  0  0  0  0
    8.2435    0.9854   21.3923 H   0  0  0  0  0  0  0  0  0  0  0  0
    8.8598   -0.2212   20.2715 H   0  0  0  0  0  0  0  0  0  0  0  0
    6.8374   -0.9098   24.1229 C   0  0  0  0  0  0  0  0  0  0  0  0
    7.0545    0.4570   24.3242 C   0  0  0  0  0  0  0  0  0  0  0  0
    6.5683    1.0523   25.4732 C   0  0  0  0  0  0  0  0  0  0  0  0
    6.7806    2.3669   25.6539 F   0  0  0  0  0  0  0  0  0  0  0  0
    5.8659    0.3609   26.4539 C   0  0  0  0  0  0  0  0  0  0  0  0
    5.6279   -0.9805   26.2394 C   0  0  0  0  0  0  0  0  0  0  0  0
    6.0889   -1.6013   25.0842 C   0  0  0  0  0  0  0  0  0  0  0  0
    5.6762   -3.0177   24.8661 C   0  0  0  0  0  0  0  0  0  0  0  0
    4.8553   -3.5922   25.5723 O   0  0  0  0  0  0  0  0  0  0  0  0
    5.0723   -1.5899   26.9419 H   0  0  0  0  0  0  0  0  0  0  0  0
    5.5038    0.8904   27.3289 H   0  0  0  0  0  0  0  0  0  0  0  0
    7.6091    1.0647   23.6138 H   0  0  0  0  0  0  0  0  0  0  0  0
    7.6307   -3.6546   22.2508 H   0  0  0  0  0  0  0  0  0  0  0  0
    8.2945   -3.2556   23.8502 H   0  0  0  0  0  0  0  0  0  0  0  0
    5.8705   -4.8471   22.1957 H   0  0  0  0  0  0  0  0  0  0  0  0
    4.5522   -4.6996   23.3660 H   0  0  0  0  0  0  0  0  0  0  0  0
    8.3485   -5.9597   23.8417 H   0  0  0  0  0  0  0  0  0  0  0  0
    8.0648   -8.4691   24.9802 H   0  0  0  0  0  0  0  0  0  0  0  0
    3.8000   -7.4316   25.7785 H   0  0  0  0  0  0  0  0  0  0  0  0
    3.6445   -5.8582   24.9860 H   0  0  0  0  0  0  0  0  0  0  0  0
    2.0921   -7.6122   23.8792 H   0  0  0  0  0  0  0  0  0  0  0  0
    3.5440   -8.6099   23.6371 H   0  0  0  0  0  0  0  0  0  0  0  0
    3.3711   -7.0968   22.7514 H   0  0  0  0  0  0  0  0  0  0  0  0
  1  2  1  0
  2  3  1  0
  3  4  1  0
  4  5  2  0
  5  6  1  0
  6  7  2  0
  7  8  1  0
  8  9  1  0
  9 10  1  0
 11 10  1  1
 11 12  1  0
 12 13  2  0
 12 14  1  0
 14 15  1  0
 15 16  2  0
 16 17  1  0
 17 18  2  0
 18 19  1  0
 19 20  2  0
 20 21  1  0
 21 22  2  0
 22 23  1  0
 23 24  2  0
 23 25  1  0
 22 26  1  0
 21 27  1  0
 20 28  1  0
 18 29  1  0
 16 30  1  0
 14 31  1  0
 31 32  1  0
 32 33  1  0
 33 34  1  0
 33 35  1  0
 33 36  1  0
 32 37  1  1
 31 38  1  0
 31 39  1  0
 11 40  1  0
 40 41  2  0
 41 42  1  0
 42 43  1  0
 42 44  2  0
 44 45  1  0
 45 46  2  0
 46 47  1  0
 47 48  2  0
 45 49  1  0
 44 50  1  0
 41 51  1  0
 10 52  1  0
 10 53  1  0
  8 54  1  0
  8 55  1  0
  6 56  1  0
  5 57  1  0
  2 58  1  0
  2 59  1  0
  1 60  1  0
  1 61  1  0
  1 62  1  0
  7  3  1  0
 47  9  1  0
 32 11  1  0
 46 40  1  0
 24 15  1  0
 24 19  1  0
M  END
>  <cnnaffinities>  (44) 
[6.68783, 6.61023]

>  <score>  (44) 
6.68783

>  <index>  (44) 
43

>  <Smiles>  (44) 
C(C(n1nc(c(c1C(N1C([C@@]2(C(=O)N(c3c(nc(c4c(c(c(c(c34)[H])[H])[H])[H])[H])[H])C([C@@]2(C([H])([H])[H])[H])([H])[H])c2c(c(F)c(c(c2C1=O)[H])[H])[H])([H])[H])([H])[H])[H])[H])([H])[H])([H])([H])[H]

>  <h>  (44) 
<NA>

>  <Training>  (44) 
True

>  <Success>  (44) 
True

>  <enamine_searched>  (44) 
False

>  <enamine_id>  (44) 
nan

$$$$

     RDKit          3D

 56 60  0  0  0  0  0  0  0  0999 V2000
    7.6117   -8.5049   23.0094 C   0  0  0  0  0  0  0  0  0  0  0  0
    6.7470   -7.3674   22.7829 N   0  0  0  0  0  0  0  0  0  0  0  0
    6.9401   -6.5245   21.7311 C   0  0  0  0  0  0  0  0  0  0  0  0
    7.7137   -6.7327   20.8166 O   0  0  0  0  0  0  0  0  0  0  0  0
    6.0911   -5.2492   21.8183 C   0  0  0  0  0  0  0  0  0  0  0  0
    6.6623   -4.3051   22.7647 N   0  0  0  0  0  0  0  0  0  0  0  0
    7.7226   -3.4000   22.3561 C   0  0  0  0  0  0  0  0  0  0  0  0
    7.3717   -1.9233   22.6704 C   0  0  2  0  0  0  0  0  0  0  0  0
    6.2937   -1.4346   21.6768 C   0  0  0  0  0  0  0  0  0  0  0  0
    5.1515   -1.8368   21.5856 O   0  0  0  0  0  0  0  0  0  0  0  0
    6.8452   -0.4710   20.8559 N   0  0  0  0  0  0  0  0  0  0  0  0
    6.1141    0.0790   19.7811 C   0  0  0  0  0  0  0  0  0  0  0  0
    6.4611   -0.2169   18.4872 C   0  0  0  0  0  0  0  0  0  0  0  0
    5.8019    0.2300   17.3904 N   0  0  0  0  0  0  0  0  0  0  0  0
    4.7684    1.0127   17.5985 C   0  0  0  0  0  0  0  0  0  0  0  0
    4.3109    1.4071   18.8886 C   0  0  0  0  0  0  0  0  0  0  0  0
    3.1940    2.2680   19.0470 C   0  0  0  0  0  0  0  0  0  0  0  0
    2.7858    2.6503   20.2949 C   0  0  0  0  0  0  0  0  0  0  0  0
    3.4788    2.2025   21.4403 C   0  0  0  0  0  0  0  0  0  0  0  0
    4.5642    1.3730   21.3147 C   0  0  0  0  0  0  0  0  0  0  0  0
    4.9992    0.9403   20.0275 C   0  0  0  0  0  0  0  0  0  0  0  0
    5.0933    1.0433   22.2037 H   0  0  0  0  0  0  0  0  0  0  0  0
    3.1534    2.5307   22.4234 H   0  0  0  0  0  0  0  0  0  0  0  0
    1.9350    3.3145   20.4098 H   0  0  0  0  0  0  0  0  0  0  0  0
    2.6878    2.6220   18.1531 H   0  0  0  0  0  0  0  0  0  0  0  0
    4.2330    1.3837   16.7240 H   0  0  0  0  0  0  0  0  0  0  0  0
    7.3054   -0.8798   18.3007 H   0  0  0  0  0  0  0  0  0  0  0  0
    8.2894   -0.3759   20.9676 C   0  0  0  0  0  0  0  0  0  0  0  0
    8.5552   -0.9529   22.3632 C   0  0  2  0  0  0  0  0  0  0  0  0
    9.9895   -1.4254   22.5932 C   0  0  0  0  0  0  0  0  0  0  0  0
   10.6546   -2.5259   21.3357 Cl  0  0  0  0  0  0  0  0  0  0  0  0
   10.0884   -1.9465   23.5495 H   0  0  0  0  0  0  0  0  0  0  0  0
   10.6591   -0.5641   22.6008 H   0  0  0  0  0  0  0  0  0  0  0  0
    8.4479   -0.1239   23.0647 H   0  0  0  0  0  0  0  0  0  0  0  0
    8.8062   -0.9496   20.1881 H   0  0  0  0  0  0  0  0  0  0  0  0
    8.6069    0.6693   20.8958 H   0  0  0  0  0  0  0  0  0  0  0  0
    6.8570   -1.8601   24.1019 C   0  0  0  0  0  0  0  0  0  0  0  0
    6.7776   -0.6378   24.7795 C   0  0  0  0  0  0  0  0  0  0  0  0
    6.3088   -0.5887   26.0779 C   0  0  0  0  0  0  0  0  0  0  0  0
    6.2174    0.9464   26.8815 Cl  0  0  0  0  0  0  0  0  0  0  0  0
    5.9068   -1.7335   26.7617 C   0  0  0  0  0  0  0  0  0  0  0  0
    5.9406   -2.9359   26.0881 C   0  0  0  0  0  0  0  0  0  0  0  0
    6.3768   -2.9980   24.7671 C   0  0  0  0  0  0  0  0  0  0  0  0
    6.2075   -4.2948   24.0457 C   0  0  0  0  0  0  0  0  0  0  0  0
    5.6298   -5.2631   24.5419 O   0  0  0  0  0  0  0  0  0  0  0  0
    5.6109   -3.8573   26.5530 H   0  0  0  0  0  0  0  0  0  0  0  0
    5.5578   -1.6711   27.7862 H   0  0  0  0  0  0  0  0  0  0  0  0
    7.0745    0.2922   24.3080 H   0  0  0  0  0  0  0  0  0  0  0  0
    8.6658   -3.6509   22.8647 H   0  0  0  0  0  0  0  0  0  0  0  0
    7.8825   -3.5279   21.2890 H   0  0  0  0  0  0  0  0  0  0  0  0
    5.0865   -5.5092   22.1686 H   0  0  0  0  0  0  0  0  0  0  0  0
    6.0026   -4.7552   20.8413 H   0  0  0  0  0  0  0  0  0  0  0  0
    6.1768   -7.0537   23.5633 H   0  0  0  0  0  0  0  0  0  0  0  0
    8.6369   -8.1969   23.2589 H   0  0  0  0  0  0  0  0  0  0  0  0
    7.6242   -9.1374   22.1216 H   0  0  0  0  0  0  0  0  0  0  0  0
    7.2096   -9.0915   23.8384 H   0  0  0  0  0  0  0  0  0  0  0  0
  1  2  1  0
  2  3  1  0
  3  4  2  0
  3  5  1  0
  5  6  1  0
  6  7  1  0
  8  7  1  6
  8  9  1  0
  9 10  2  0
  9 11  1  0
 11 12  1  0
 12 13  2  0
 13 14  1  0
 14 15  2  0
 15 16  1  0
 16 17  2  0
 17 18  1  0
 18 19  2  0
 19 20  1  0
 20 21  2  0
 20 22  1  0
 19 23  1  0
 18 24  1  0
 17 25  1  0
 15 26  1  0
 13 27  1  0
 11 28  1  0
 28 29  1  0
 29 30  1  0
 30 31  1  0
 30 32  1  0
 30 33  1  0
 29 34  1  1
 28 35  1  0
 28 36  1  0
  8 37  1  0
 37 38  2  0
 38 39  1  0
 39 40  1  0
 39 41  2  0
 41 42  1  0
 42 43  2  0
 43 44  1  0
 44 45  2  0
 42 46  1  0
 41 47  1  0
 38 48  1  0
  7 49  1  0
  7 50  1  0
  5 51  1  0
  5 52  1  0
  2 53  1  0
  1 54  1  0
  1 55  1  0
  1 56  1  0
 44  6  1  0
 29  8  1  0
 43 37  1  0
 21 12  1  0
 21 16  1  0
M  END
>  <cnnaffinities>  (45) 
[6.54596, 6.71555]

>  <score>  (45) 
6.54596

>  <index>  (45) 
44

>  <Smiles>  (45) 
C(N(C(=O)C(N1C([C@@]2(C(=O)N(c3c(nc(c4c(c(c(c(c34)[H])[H])[H])[H])[H])[H])C([C@@]2(C(Cl)([H])[H])[H])([H])[H])c2c(c(Cl)c(c(c2C1=O)[H])[H])[H])([H])[H])([H])[H])[H])([H])([H])[H]

>  <h>  (45) 
<NA>

>  <Training>  (45) 
True

>  <Success>  (45) 
True

>  <enamine_searched>  (45) 
False

>  <enamine_id>  (45) 
nan

$$$$

     RDKit          3D

 60 64  0  0  0  0  0  0  0  0999 V2000
    7.5153   -8.5231   23.0228 C   0  0  0  0  0  0  0  0  0  0  0  0
    6.6494   -7.4039   22.6911 N   0  0  0  0  0  0  0  0  0  0  0  0
    6.9395   -6.5426   21.6724 C   0  0  0  0  0  0  0  0  0  0  0  0
    7.7744   -6.7456   20.8076 O   0  0  0  0  0  0  0  0  0  0  0  0
    6.1102   -5.2506   21.7246 C   0  0  0  0  0  0  0  0  0  0  0  0
    6.6689   -4.3214   22.6957 N   0  0  0  0  0  0  0  0  0  0  0  0
    7.7288   -3.4038   22.3186 C   0  0  0  0  0  0  0  0  0  0  0  0
    7.3616   -1.9343   22.6573 C   0  0  2  0  0  0  0  0  0  0  0  0
    6.2830   -1.4447   21.6638 C   0  0  0  0  0  0  0  0  0  0  0  0
    5.1406   -1.8466   21.5702 O   0  0  0  0  0  0  0  0  0  0  0  0
    6.8404   -0.4822   20.8481 N   0  0  0  0  0  0  0  0  0  0  0  0
    6.1157    0.0779   19.7773 C   0  0  0  0  0  0  0  0  0  0  0  0
    6.4658   -0.2146   18.4852 C   0  0  0  0  0  0  0  0  0  0  0  0
    5.8068    0.2332   17.3880 N   0  0  0  0  0  0  0  0  0  0  0  0
    4.7733    1.0133   17.5991 C   0  0  0  0  0  0  0  0  0  0  0  0
    4.3153    1.4071   18.8877 C   0  0  0  0  0  0  0  0  0  0  0  0
    3.1985    2.2664   19.0461 C   0  0  0  0  0  0  0  0  0  0  0  0
    2.7883    2.6495   20.2911 C   0  0  0  0  0  0  0  0  0  0  0  0
    3.4808    2.2029   21.4391 C   0  0  0  0  0  0  0  0  0  0  0  0
    4.5657    1.3736   21.3147 C   0  0  0  0  0  0  0  0  0  0  0  0
    5.0032    0.9397   20.0290 C   0  0  0  0  0  0  0  0  0  0  0  0
    5.0911    1.0444   22.2070 H   0  0  0  0  0  0  0  0  0  0  0  0
    3.1526    2.5329   22.4206 H   0  0  0  0  0  0  0  0  0  0  0  0
    1.9371    3.3135   20.4049 H   0  0  0  0  0  0  0  0  0  0  0  0
    2.6938    2.6185   18.1493 H   0  0  0  0  0  0  0  0  0  0  0  0
    4.2355    1.3837   16.7253 H   0  0  0  0  0  0  0  0  0  0  0  0
    7.3113   -0.8760   18.2995 H   0  0  0  0  0  0  0  0  0  0  0  0
    8.2823   -0.3884   20.9671 C   0  0  0  0  0  0  0  0  0  0  0  0
    8.5387   -0.9651   22.3653 C   0  0  2  0  0  0  0  0  0  0  0  0
    9.9299   -1.5554   22.4854 C   0  0  0  0  0  0  0  0  0  0  0  0
   10.8599   -0.5150   22.3397 O   0  0  0  0  0  0  0  0  0  0  0  0
   12.1704   -1.0131   22.3144 C   0  0  0  0  0  0  0  0  0  0  0  0
   12.8507   -0.1802   22.1232 H   0  0  0  0  0  0  0  0  0  0  0  0
   12.4430   -1.4887   23.2702 H   0  0  0  0  0  0  0  0  0  0  0  0
   12.2865   -1.7583   21.5125 H   0  0  0  0  0  0  0  0  0  0  0  0
   10.0619   -2.0646   23.4555 H   0  0  0  0  0  0  0  0  0  0  0  0
   10.0855   -2.3088   21.6921 H   0  0  0  0  0  0  0  0  0  0  0  0
    8.4918   -0.1347   23.0680 H   0  0  0  0  0  0  0  0  0  0  0  0
    8.8037   -0.9731   20.1940 H   0  0  0  0  0  0  0  0  0  0  0  0
    8.6070    0.6516   20.8821 H   0  0  0  0  0  0  0  0  0  0  0  0
    6.8593   -1.9041   24.0889 C   0  0  0  0  0  0  0  0  0  0  0  0
    6.8264   -0.7044   24.8063 C   0  0  0  0  0  0  0  0  0  0  0  0
    6.3563   -0.6853   26.1040 C   0  0  0  0  0  0  0  0  0  0  0  0
    6.3060    0.8272   26.9547 Cl  0  0  0  0  0  0  0  0  0  0  0  0
    5.9202   -1.8400   26.7484 C   0  0  0  0  0  0  0  0  0  0  0  0
    5.9238   -3.0209   26.0387 C   0  0  0  0  0  0  0  0  0  0  0  0
    6.3577   -3.0521   24.7181 C   0  0  0  0  0  0  0  0  0  0  0  0
    6.1785   -4.3277   23.9644 C   0  0  0  0  0  0  0  0  0  0  0  0
    5.5688   -5.2957   24.4214 O   0  0  0  0  0  0  0  0  0  0  0  0
    5.5757   -3.9492   26.4725 H   0  0  0  0  0  0  0  0  0  0  0  0
    5.5729   -1.8016   27.7732 H   0  0  0  0  0  0  0  0  0  0  0  0
    7.1691    0.2263   24.3700 H   0  0  0  0  0  0  0  0  0  0  0  0
    7.9032   -3.5112   21.2511 H   0  0  0  0  0  0  0  0  0  0  0  0
    8.6606   -3.6693   22.8383 H   0  0  0  0  0  0  0  0  0  0  0  0
    6.0652   -4.7584   20.7421 H   0  0  0  0  0  0  0  0  0  0  0  0
    5.0911   -5.5039   22.0411 H   0  0  0  0  0  0  0  0  0  0  0  0
    6.0240   -7.0786   23.4202 H   0  0  0  0  0  0  0  0  0  0  0  0
    8.4975   -8.1698   23.3746 H   0  0  0  0  0  0  0  0  0  0  0  0
    7.6463   -9.1799   22.1571 H   0  0  0  0  0  0  0  0  0  0  0  0
    7.0278   -9.1000   23.8153 H   0  0  0  0  0  0  0  0  0  0  0  0
  1  2  1  0
  2  3  1  0
  3  4  2  0
  3  5  1  0
  5  6  1  0
  6  7  1  0
  8  7  1  6
  8  9  1  0
  9 10  2  0
  9 11  1  0
 11 12  1  0
 12 13  2  0
 13 14  1  0
 14 15  2  0
 15 16  1  0
 16 17  2  0
 17 18  1  0
 18 19  2  0
 19 20  1  0
 20 21  2  0
 20 22  1  0
 19 23  1  0
 18 24  1  0
 17 25  1  0
 15 26  1  0
 13 27  1  0
 11 28  1  0
 28 29  1  0
 29 30  1  0
 30 31  1  0
 31 32  1  0
 32 33  1  0
 32 34  1  0
 32 35  1  0
 30 36  1  0
 30 37  1  0
 29 38  1  1
 28 39  1  0
 28 40  1  0
  8 41  1  0
 41 42  2  0
 42 43  1  0
 43 44  1  0
 43 45  2  0
 45 46  1  0
 46 47  2  0
 47 48  1  0
 48 49  2  0
 46 50  1  0
 45 51  1  0
 42 52  1  0
  7 53  1  0
  7 54  1  0
  5 55  1  0
  5 56  1  0
  2 57  1  0
  1 58  1  0
  1 59  1  0
  1 60  1  0
 48  6  1  0
 29  8  1  0
 47 41  1  0
 21 12  1  0
 21 16  1  0
M  END
>  <cnnaffinities>  (46) 
[6.7917]

>  <score>  (46) 
6.7917

>  <index>  (46) 
45

>  <Smiles>  (46) 
C(N(C(=O)C(N1C([C@@]2(C(=O)N(c3c(nc(c4c(c(c(c(c34)[H])[H])[H])[H])[H])[H])C([C@@]2(C(OC([H])([H])[H])([H])[H])[H])([H])[H])c2c(c(Cl)c(c(c2C1=O)[H])[H])[H])([H])[H])([H])[H])[H])([H])([H])[H]

>  <h>  (46) 
<NA>

>  <Training>  (46) 
True

>  <Success>  (46) 
True

>  <enamine_searched>  (46) 
False

>  <enamine_id>  (46) 
nan

$$$$

     RDKit          3D

 64 68  0  0  0  0  0  0  0  0999 V2000
   12.8937   -1.7676   24.2809 C   0  0  0  0  0  0  0  0  0  0  0  0
   12.4719   -1.3514   22.8857 C   0  0  0  0  0  0  0  0  0  0  0  0
   10.9730   -0.4063   22.8245 S   0  0  0  0  0  0  0  0  0  0  0  0
   10.9547    0.2141   21.5187 O   0  0  0  0  0  0  0  0  0  0  0  0
   10.8766    0.3855   24.0437 O   0  0  0  0  0  0  0  0  0  0  0  0
    9.7200   -1.5338   22.8535 N   0  0  0  0  0  0  0  0  0  0  0  0
    8.4153   -0.9611   22.4573 C   0  0  1  0  0  0  0  0  0  0  0  0
    8.2632   -0.4835   21.0120 C   0  0  0  0  0  0  0  0  0  0  0  0
    6.8205   -0.5558   20.8408 N   0  0  0  0  0  0  0  0  0  0  0  0
    6.1182    0.0496   19.7778 C   0  0  0  0  0  0  0  0  0  0  0  0
    6.4825   -0.2150   18.4815 C   0  0  0  0  0  0  0  0  0  0  0  0
    5.8324    0.2467   17.3858 N   0  0  0  0  0  0  0  0  0  0  0  0
    4.7921    1.0186   17.5949 C   0  0  0  0  0  0  0  0  0  0  0  0
    4.3329    1.4084   18.8854 C   0  0  0  0  0  0  0  0  0  0  0  0
    3.2112    2.2641   19.0389 C   0  0  0  0  0  0  0  0  0  0  0  0
    2.7991    2.6511   20.2843 C   0  0  0  0  0  0  0  0  0  0  0  0
    3.4937    2.2062   21.4315 C   0  0  0  0  0  0  0  0  0  0  0  0
    4.5805    1.3747   21.3102 C   0  0  0  0  0  0  0  0  0  0  0  0
    5.0149    0.9325   20.0251 C   0  0  0  0  0  0  0  0  0  0  0  0
    5.1112    1.0433   22.1975 H   0  0  0  0  0  0  0  0  0  0  0  0
    3.1602    2.5281   22.4144 H   0  0  0  0  0  0  0  0  0  0  0  0
    1.9409    3.3082   20.3961 H   0  0  0  0  0  0  0  0  0  0  0  0
    2.7058    2.6071   18.1400 H   0  0  0  0  0  0  0  0  0  0  0  0
    4.2538    1.3791   16.7182 H   0  0  0  0  0  0  0  0  0  0  0  0
    7.3326   -0.8680   18.2899 H   0  0  0  0  0  0  0  0  0  0  0  0
    6.2140   -1.4798   21.6699 C   0  0  0  0  0  0  0  0  0  0  0  0
    5.0721   -1.8676   21.5445 O   0  0  0  0  0  0  0  0  0  0  0  0
    7.2660   -1.9586   22.6894 C   0  0  1  0  0  0  0  0  0  0  0  0
    7.6824   -3.3924   22.2839 C   0  0  0  0  0  0  0  0  0  0  0  0
    6.6114   -4.3334   22.5876 N   0  0  0  0  0  0  0  0  0  0  0  0
    6.1259   -5.2668   21.5760 C   0  0  0  0  0  0  0  0  0  0  0  0
    6.9059   -6.5885   21.6004 C   0  0  0  0  0  0  0  0  0  0  0  0
    7.7798   -6.8314   20.7858 O   0  0  0  0  0  0  0  0  0  0  0  0
    6.5344   -7.3997   22.6220 N   0  0  0  0  0  0  0  0  0  0  0  0
    7.3600   -8.4999   23.0636 C   0  0  0  0  0  0  0  0  0  0  0  0
    8.3512   -8.1714   23.3810 H   0  0  0  0  0  0  0  0  0  0  0  0
    7.5072   -9.2363   22.2739 H   0  0  0  0  0  0  0  0  0  0  0  0
    6.8782   -8.9742   23.9188 H   0  0  0  0  0  0  0  0  0  0  0  0
    5.9741   -6.9321   23.3367 H   0  0  0  0  0  0  0  0  0  0  0  0
    6.2398   -4.7952   20.5974 H   0  0  0  0  0  0  0  0  0  0  0  0
    5.0580   -5.4460   21.7546 H   0  0  0  0  0  0  0  0  0  0  0  0
    6.1154   -4.4067   23.8518 C   0  0  0  0  0  0  0  0  0  0  0  0
    5.4829   -5.3898   24.2528 O   0  0  0  0  0  0  0  0  0  0  0  0
    6.3137   -3.1894   24.6949 C   0  0  0  0  0  0  0  0  0  0  0  0
    5.9500   -3.2513   26.0395 C   0  0  0  0  0  0  0  0  0  0  0  0
    5.9846   -2.1174   26.8272 C   0  0  0  0  0  0  0  0  0  0  0  0
    6.3922   -0.9195   26.2484 C   0  0  0  0  0  0  0  0  0  0  0  0
    6.4002    0.5413   27.1943 Cl  0  0  0  0  0  0  0  0  0  0  0  0
    6.7937   -0.8488   24.9296 C   0  0  0  0  0  0  0  0  0  0  0  0
    6.7799   -1.9955   24.1245 C   0  0  0  0  0  0  0  0  0  0  0  0
    7.1103    0.1134   24.5503 H   0  0  0  0  0  0  0  0  0  0  0  0
    5.6839   -2.1443   27.8668 H   0  0  0  0  0  0  0  0  0  0  0  0
    5.6361   -4.2041   26.4510 H   0  0  0  0  0  0  0  0  0  0  0  0
    7.8803   -3.4203   21.2162 H   0  0  0  0  0  0  0  0  0  0  0  0
    8.6109   -3.6683   22.7957 H   0  0  0  0  0  0  0  0  0  0  0  0
    8.6056    0.5408   20.8691 H   0  0  0  0  0  0  0  0  0  0  0  0
    8.8103   -1.1336   20.3216 H   0  0  0  0  0  0  0  0  0  0  0  0
    8.2277   -0.0857   23.0791 H   0  0  0  0  0  0  0  0  0  0  0  0
    9.6234   -1.8478   23.8222 H   0  0  0  0  0  0  0  0  0  0  0  0
   12.3309   -2.1870   22.1910 H   0  0  0  0  0  0  0  0  0  0  0  0
   13.2103   -0.6561   22.4716 H   0  0  0  0  0  0  0  0  0  0  0  0
   12.2566   -2.5595   24.6839 H   0  0  0  0  0  0  0  0  0  0  0  0
   12.8676   -0.9079   24.9554 H   0  0  0  0  0  0  0  0  0  0  0  0
   13.9191   -2.1429   24.2351 H   0  0  0  0  0  0  0  0  0  0  0  0
  1  2  1  0
  2  3  1  0
  3  4  2  0
  3  5  2  0
  3  6  1  0
  6  7  1  0
  7  8  1  0
  8  9  1  0
  9 10  1  0
 10 11  2  0
 11 12  1  0
 12 13  2  0
 13 14  1  0
 14 15  2  0
 15 16  1  0
 16 17  2  0
 17 18  1  0
 18 19  2  0
 18 20  1  0
 17 21  1  0
 16 22  1  0
 15 23  1  0
 13 24  1  0
 11 25  1  0
  9 26  1  0
 26 27  2  0
 26 28  1  0
 28 29  1  6
 29 30  1  0
 30 31  1  0
 31 32  1  0
 32 33  2  0
 32 34  1  0
 34 35  1  0
 35 36  1  0
 35 37  1  0
 35 38  1  0
 34 39  1  0
 31 40  1  0
 31 41  1  0
 30 42  1  0
 42 43  2  0
 42 44  1  0
 44 45  2  0
 45 46  1  0
 46 47  2  0
 47 48  1  0
 47 49  1  0
 49 50  2  0
 49 51  1  0
 46 52  1  0
 45 53  1  0
 29 54  1  0
 29 55  1  0
  8 56  1  0
  8 57  1  0
  7 58  1  1
  6 59  1  0
  2 60  1  0
  2 61  1  0
  1 62  1  0
  1 63  1  0
  1 64  1  0
 28  7  1  0
 50 44  1  0
 19 10  1  0
 50 28  1  0
 19 14  1  0
M  END
>  <cnnaffinities>  (47) 
[6.89611]

>  <score>  (47) 
6.89611

>  <index>  (47) 
46

>  <Smiles>  (47) 
C(C(S(=O)(=O)N([C@]1(C(N(c2c(nc(c3c(c(c(c(c23)[H])[H])[H])[H])[H])[H])C(=O)[C@]21C(N(C(C(=O)N(C([H])([H])[H])[H])([H])[H])C(=O)c1c(c(c(Cl)c(c21)[H])[H])[H])([H])[H])([H])[H])[H])[H])([H])[H])([H])([H])[H]

>  <h>  (47) 
<NA>

>  <Training>  (47) 
True

>  <Success>  (47) 
True

>  <enamine_searched>  (47) 
False

>  <enamine_id>  (47) 
nan

$$$$

     RDKit          3D

 56 60  0  0  0  0  0  0  0  0999 V2000
    7.5261   -8.5357   23.0111 C   0  0  0  0  0  0  0  0  0  0  0  0
    6.6651   -7.4003   22.7282 N   0  0  0  0  0  0  0  0  0  0  0  0
    6.9332   -6.5393   21.7009 C   0  0  0  0  0  0  0  0  0  0  0  0
    7.7496   -6.7426   20.8179 O   0  0  0  0  0  0  0  0  0  0  0  0
    6.1005   -5.2552   21.7632 C   0  0  0  0  0  0  0  0  0  0  0  0
    6.6693   -4.3189   22.7206 N   0  0  0  0  0  0  0  0  0  0  0  0
    7.7375   -3.4113   22.3334 C   0  0  0  0  0  0  0  0  0  0  0  0
    7.3790   -1.9366   22.6551 C   0  0  2  0  0  0  0  0  0  0  0  0
    6.2895   -1.4537   21.6649 C   0  0  0  0  0  0  0  0  0  0  0  0
    5.1541   -1.8678   21.5681 O   0  0  0  0  0  0  0  0  0  0  0  0
    6.8353   -0.4805   20.8511 N   0  0  0  0  0  0  0  0  0  0  0  0
    6.1099    0.0759   19.7792 C   0  0  0  0  0  0  0  0  0  0  0  0
    6.4628   -0.2149   18.4871 C   0  0  0  0  0  0  0  0  0  0  0  0
    5.8067    0.2336   17.3892 N   0  0  0  0  0  0  0  0  0  0  0  0
    4.7732    1.0144   17.5986 C   0  0  0  0  0  0  0  0  0  0  0  0
    4.3128    1.4080   18.8865 C   0  0  0  0  0  0  0  0  0  0  0  0
    3.1967    2.2676   19.0443 C   0  0  0  0  0  0  0  0  0  0  0  0
    2.7870    2.6506   20.2889 C   0  0  0  0  0  0  0  0  0  0  0  0
    3.4786    2.2049   21.4373 C   0  0  0  0  0  0  0  0  0  0  0  0
    4.5630    1.3744   21.3140 C   0  0  0  0  0  0  0  0  0  0  0  0
    4.9993    0.9402   20.0289 C   0  0  0  0  0  0  0  0  0  0  0  0
    5.0889    1.0446   22.2057 H   0  0  0  0  0  0  0  0  0  0  0  0
    3.1503    2.5356   22.4186 H   0  0  0  0  0  0  0  0  0  0  0  0
    1.9360    3.3155   20.4025 H   0  0  0  0  0  0  0  0  0  0  0  0
    2.6918    2.6200   18.1468 H   0  0  0  0  0  0  0  0  0  0  0  0
    4.2366    1.3833   16.7236 H   0  0  0  0  0  0  0  0  0  0  0  0
    7.3102   -0.8746   18.3027 H   0  0  0  0  0  0  0  0  0  0  0  0
    8.2772   -0.3927   20.9547 C   0  0  0  0  0  0  0  0  0  0  0  0
    8.5667   -0.9707   22.3455 C   0  0  2  0  0  0  0  0  0  0  0  0
    9.9740   -1.5497   22.4315 C   0  0  0  0  0  0  0  0  0  0  0  0
   10.1208   -2.3303   21.6750 H   0  0  0  0  0  0  0  0  0  0  0  0
   10.1806   -1.9822   23.4163 H   0  0  0  0  0  0  0  0  0  0  0  0
   10.7117   -0.7627   22.2453 H   0  0  0  0  0  0  0  0  0  0  0  0
    8.5023   -0.1391   23.0502 H   0  0  0  0  0  0  0  0  0  0  0  0
    8.7901   -0.9753   20.1732 H   0  0  0  0  0  0  0  0  0  0  0  0
    8.6023    0.6490   20.8684 H   0  0  0  0  0  0  0  0  0  0  0  0
    6.8738   -1.8876   24.0886 C   0  0  0  0  0  0  0  0  0  0  0  0
    6.8440   -0.6803   24.7940 C   0  0  0  0  0  0  0  0  0  0  0  0
    6.3717   -0.6576   26.0886 C   0  0  0  0  0  0  0  0  0  0  0  0
    6.3507    0.5118   26.7476 F   0  0  0  0  0  0  0  0  0  0  0  0
    5.9227   -1.7910   26.7522 C   0  0  0  0  0  0  0  0  0  0  0  0
    5.9228   -2.9770   26.0518 C   0  0  0  0  0  0  0  0  0  0  0  0
    6.3611   -3.0267   24.7310 C   0  0  0  0  0  0  0  0  0  0  0  0
    6.1782   -4.3077   23.9885 C   0  0  0  0  0  0  0  0  0  0  0  0
    5.5654   -5.2706   24.4535 O   0  0  0  0  0  0  0  0  0  0  0  0
    5.5691   -3.8968   26.4977 H   0  0  0  0  0  0  0  0  0  0  0  0
    5.5778   -1.7259   27.7772 H   0  0  0  0  0  0  0  0  0  0  0  0
    7.1960    0.2500   24.3643 H   0  0  0  0  0  0  0  0  0  0  0  0
    8.6770   -3.6667   22.8486 H   0  0  0  0  0  0  0  0  0  0  0  0
    7.9044   -3.5336   21.2667 H   0  0  0  0  0  0  0  0  0  0  0  0
    5.0857   -5.5139   22.0903 H   0  0  0  0  0  0  0  0  0  0  0  0
    6.0421   -4.7631   20.7832 H   0  0  0  0  0  0  0  0  0  0  0  0
    6.0760   -7.0629   23.4786 H   0  0  0  0  0  0  0  0  0  0  0  0
    8.5219   -8.2064   23.3421 H   0  0  0  0  0  0  0  0  0  0  0  0
    7.0605   -9.1270   23.8018 H   0  0  0  0  0  0  0  0  0  0  0  0
    7.6227   -9.1697   22.1245 H   0  0  0  0  0  0  0  0  0  0  0  0
  1  2  1  0
  2  3  1  0
  3  4  2  0
  3  5  1  0
  5  6  1  0
  6  7  1  0
  8  7  1  6
  8  9  1  0
  9 10  2  0
  9 11  1  0
 11 12  1  0
 12 13  2  0
 13 14  1  0
 14 15  2  0
 15 16  1  0
 16 17  2  0
 17 18  1  0
 18 19  2  0
 19 20  1  0
 20 21  2  0
 20 22  1  0
 19 23  1  0
 18 24  1  0
 17 25  1  0
 15 26  1  0
 13 27  1  0
 11 28  1  0
 28 29  1  0
 29 30  1  0
 30 31  1  0
 30 32  1  0
 30 33  1  0
 29 34  1  1
 28 35  1  0
 28 36  1  0
  8 37  1  0
 37 38  2  0
 38 39  1  0
 39 40  1  0
 39 41  2  0
 41 42  1  0
 42 43  2  0
 43 44  1  0
 44 45  2  0
 42 46  1  0
 41 47  1  0
 38 48  1  0
  7 49  1  0
  7 50  1  0
  5 51  1  0
  5 52  1  0
  2 53  1  0
  1 54  1  0
  1 55  1  0
  1 56  1  0
 44  6  1  0
 29  8  1  0
 43 37  1  0
 21 12  1  0
 21 16  1  0
M  END
>  <cnnaffinities>  (48) 
[6.42934]

>  <score>  (48) 
6.42934

>  <index>  (48) 
47

>  <Smiles>  (48) 
C(N(C(=O)C(N1C([C@@]2(C(=O)N(c3c(nc(c4c(c(c(c(c34)[H])[H])[H])[H])[H])[H])C([C@@]2(C([H])([H])[H])[H])([H])[H])c2c(c(F)c(c(c2C1=O)[H])[H])[H])([H])[H])([H])[H])[H])([H])([H])[H]

>  <h>  (48) 
<NA>

>  <Training>  (48) 
True

>  <Success>  (48) 
True

>  <enamine_searched>  (48) 
False

>  <enamine_id>  (48) 
nan

$$$$

     RDKit          3D

 41 43  0  0  0  0  0  0  0  0999 V2000
    4.9797    0.1139   26.0413 C   0  0  0  0  0  0  0  0  0  0  0  0
    5.4918   -0.7745   24.9266 C   0  0  1  0  0  0  0  0  0  0  0  0
    6.9248   -0.4151   24.5222 C   0  0  0  0  0  0  0  0  0  0  0  0
    7.6193   -1.4744   23.6455 C   0  0  0  0  0  0  0  0  0  0  0  0
    6.7428   -2.2260   22.7517 N   0  0  0  0  0  0  0  0  0  0  0  0
    6.2158   -1.7083   21.5864 C   0  0  0  0  0  0  0  0  0  0  0  0
    5.2406   -2.2180   21.0599 O   0  0  0  0  0  0  0  0  0  0  0  0
    6.9139   -0.4996   20.9139 C   0  0  0  0  0  0  0  0  0  0  0  0
    6.1142    0.0837   19.7707 C   0  0  0  0  0  0  0  0  0  0  0  0
    6.4210   -0.2149   18.4666 C   0  0  0  0  0  0  0  0  0  0  0  0
    5.7595    0.2377   17.3656 N   0  0  0  0  0  0  0  0  0  0  0  0
    4.7363    1.0316   17.5749 C   0  0  0  0  0  0  0  0  0  0  0  0
    4.2869    1.4207   18.8677 C   0  0  0  0  0  0  0  0  0  0  0  0
    3.1650    2.2727   19.0447 C   0  0  0  0  0  0  0  0  0  0  0  0
    2.7483    2.6247   20.3010 C   0  0  0  0  0  0  0  0  0  0  0  0
    3.4383    2.1382   21.4335 C   0  0  0  0  0  0  0  0  0  0  0  0
    4.5293    1.3154   21.2869 C   0  0  0  0  0  0  0  0  0  0  0  0
    4.9886    0.9337   19.9976 C   0  0  0  0  0  0  0  0  0  0  0  0
    5.0491    0.9535   22.1699 H   0  0  0  0  0  0  0  0  0  0  0  0
    3.1025    2.4230   22.4255 H   0  0  0  0  0  0  0  0  0  0  0  0
    1.8902    3.2780   20.4367 H   0  0  0  0  0  0  0  0  0  0  0  0
    2.6444    2.6438   18.1641 H   0  0  0  0  0  0  0  0  0  0  0  0
    4.1992    1.4002   16.6985 H   0  0  0  0  0  0  0  0  0  0  0  0
    7.2644   -0.8679   18.2467 H   0  0  0  0  0  0  0  0  0  0  0  0
    7.8784   -0.8550   20.5238 H   0  0  0  0  0  0  0  0  0  0  0  0
    7.1543    0.2851   21.6444 H   0  0  0  0  0  0  0  0  0  0  0  0
    6.0652   -3.3758   23.3548 C   0  0  0  0  0  0  0  0  0  0  0  0
    4.9574   -3.0261   24.3527 C   0  0  0  0  0  0  0  0  0  0  0  0
    5.3705   -2.1238   25.3557 O   0  0  0  0  0  0  0  0  0  0  0  0
    4.0884   -2.6162   23.8184 H   0  0  0  0  0  0  0  0  0  0  0  0
    4.6201   -3.9344   24.8760 H   0  0  0  0  0  0  0  0  0  0  0  0
    6.8214   -3.9584   23.8883 H   0  0  0  0  0  0  0  0  0  0  0  0
    5.6563   -4.0052   22.5614 H   0  0  0  0  0  0  0  0  0  0  0  0
    8.0987   -2.2065   24.2968 H   0  0  0  0  0  0  0  0  0  0  0  0
    8.4236   -1.0222   23.0603 H   0  0  0  0  0  0  0  0  0  0  0  0
    7.5256   -0.2429   25.4260 H   0  0  0  0  0  0  0  0  0  0  0  0
    6.8954    0.5490   23.9969 H   0  0  0  0  0  0  0  0  0  0  0  0
    4.8422   -0.6408   24.0537 H   0  0  0  0  0  0  0  0  0  0  0  0
    5.5842   -0.0160   26.9429 H   0  0  0  0  0  0  0  0  0  0  0  0
    5.0172    1.1642   25.7361 H   0  0  0  0  0  0  0  0  0  0  0  0
    3.9435   -0.1394   26.2807 H   0  0  0  0  0  0  0  0  0  0  0  0
  1  2  1  0
  2  3  1  0
  3  4  1  0
  4  5  1  0
  5  6  1  0
  6  7  2  0
  6  8  1  0
  8  9  1  0
  9 10  2  0
 10 11  1  0
 11 12  2  0
 12 13  1  0
 13 14  2  0
 14 15  1  0
 15 16  2  0
 16 17  1  0
 17 18  2  0
 17 19  1  0
 16 20  1  0
 15 21  1  0
 14 22  1  0
 12 23  1  0
 10 24  1  0
  8 25  1  0
  8 26  1  0
  5 27  1  0
 27 28  1  0
 28 29  1  0
 28 30  1  0
 28 31  1  0
 27 32  1  0
 27 33  1  0
  4 34  1  0
  4 35  1  0
  3 36  1  0
  3 37  1  0
  2 38  1  6
  1 39  1  0
  1 40  1  0
  1 41  1  0
 29  2  1  0
 18  9  1  0
 18 13  1  0
M  END
>  <cnnaffinities>  (49) 
[4.95682, 4.66372, 5.05513]

>  <score>  (49) 
4.95682

>  <index>  (49) 
48

>  <Smiles>  (49) 
C([C@]1(C(C(N(C(=O)C(c2c(nc(c3c(c(c(c(c23)[H])[H])[H])[H])[H])[H])([H])[H])C(C(O1)([H])[H])([H])[H])([H])[H])([H])[H])[H])([H])([H])[H]

>  <h>  (49) 
<NA>

>  <Training>  (49) 
True

>  <Success>  (49) 
True

>  <enamine_searched>  (49) 
False

>  <enamine_id>  (49) 
nan

$$$$

     RDKit          3D

 42 45  0  0  0  0  0  0  0  0999 V2000
   10.2615   -3.6913   23.7925 C   0  0  0  0  0  0  0  0  0  0  0  0
    9.3719   -2.5506   23.6950 N   0  0  0  0  0  0  0  0  0  0  0  0
    8.7538   -2.1326   22.4514 C   0  0  0  0  0  0  0  0  0  0  0  0
    8.7715   -0.5969   22.3800 C   0  0  1  0  0  0  0  0  0  0  0  0
    8.0915   -0.0563   21.1405 C   0  0  0  0  0  0  0  0  0  0  0  0
    8.5857    0.8338   20.4650 O   0  0  0  0  0  0  0  0  0  0  0  0
    6.8598   -0.5701   20.8297 N   0  0  0  0  0  0  0  0  0  0  0  0
    6.1095   -0.0100   19.7712 C   0  0  0  0  0  0  0  0  0  0  0  0
    6.4828   -0.2465   18.4740 C   0  0  0  0  0  0  0  0  0  0  0  0
    5.8240    0.2264   17.3909 N   0  0  0  0  0  0  0  0  0  0  0  0
    4.7820    0.9891   17.6164 C   0  0  0  0  0  0  0  0  0  0  0  0
    4.3151    1.3518   18.9096 C   0  0  0  0  0  0  0  0  0  0  0  0
    3.2164    2.2307   19.0826 C   0  0  0  0  0  0  0  0  0  0  0  0
    2.8354    2.6128   20.3388 C   0  0  0  0  0  0  0  0  0  0  0  0
    3.5477    2.1565   21.4703 C   0  0  0  0  0  0  0  0  0  0  0  0
    4.6149    1.3025   21.3312 C   0  0  0  0  0  0  0  0  0  0  0  0
    5.0038    0.8587   20.0357 C   0  0  0  0  0  0  0  0  0  0  0  0
    5.1758    0.9879   22.2073 H   0  0  0  0  0  0  0  0  0  0  0  0
    3.2494    2.4966   22.4577 H   0  0  0  0  0  0  0  0  0  0  0  0
    1.9982    3.2918   20.4684 H   0  0  0  0  0  0  0  0  0  0  0  0
    2.7203    2.6104   18.1955 H   0  0  0  0  0  0  0  0  0  0  0  0
    4.2621    1.3708   16.7418 H   0  0  0  0  0  0  0  0  0  0  0  0
    7.3761   -0.8318   18.2739 H   0  0  0  0  0  0  0  0  0  0  0  0
    6.4051   -1.2030   21.4727 H   0  0  0  0  0  0  0  0  0  0  0  0
    8.1663    0.0017   23.6411 C   0  0  0  0  0  0  0  0  0  0  0  0
    7.5500    1.2571   23.6666 C   0  0  0  0  0  0  0  0  0  0  0  0
    7.0387    1.7532   24.8586 C   0  0  0  0  0  0  0  0  0  0  0  0
    6.2610    3.3137   24.8627 Cl  0  0  0  0  0  0  0  0  0  0  0  0
    7.1226    1.0288   26.0447 C   0  0  0  0  0  0  0  0  0  0  0  0
    7.7198   -0.2161   26.0137 C   0  0  0  0  0  0  0  0  0  0  0  0
    8.2494   -0.7201   24.8289 C   0  0  0  0  0  0  0  0  0  0  0  0
    8.9743   -2.0239   24.8883 C   0  0  0  0  0  0  0  0  0  0  0  0
    9.2273   -2.5857   25.9417 O   0  0  0  0  0  0  0  0  0  0  0  0
    7.7983   -0.8171   26.9146 H   0  0  0  0  0  0  0  0  0  0  0  0
    6.7461    1.4406   26.9738 H   0  0  0  0  0  0  0  0  0  0  0  0
    7.4835    1.8677   22.7741 H   0  0  0  0  0  0  0  0  0  0  0  0
    9.8124   -0.2662   22.2848 H   0  0  0  0  0  0  0  0  0  0  0  0
    7.7202   -2.5012   22.3682 H   0  0  0  0  0  0  0  0  0  0  0  0
    9.3008   -2.5603   21.6052 H   0  0  0  0  0  0  0  0  0  0  0  0
   11.1402   -3.4286   24.3894 H   0  0  0  0  0  0  0  0  0  0  0  0
    9.7816   -4.5334   24.3017 H   0  0  0  0  0  0  0  0  0  0  0  0
   10.5695   -3.9719   22.7928 H   0  0  0  0  0  0  0  0  0  0  0  0
  1  2  1  0
  2  3  1  0
  3  4  1  0
  4  5  1  0
  5  6  2  0
  5  7  1  0
  7  8  1  0
  8  9  2  0
  9 10  1  0
 10 11  2  0
 11 12  1  0
 12 13  2  0
 13 14  1  0
 14 15  2  0
 15 16  1  0
 16 17  2  0
 16 18  1  0
 15 19  1  0
 14 20  1  0
 13 21  1  0
 11 22  1  0
  9 23  1  0
  7 24  1  0
  4 25  1  0
 25 26  2  0
 26 27  1  0
 27 28  1  0
 27 29  2  0
 29 30  1  0
 30 31  2  0
 31 32  1  0
 32 33  2  0
 30 34  1  0
 29 35  1  0
 26 36  1  0
  4 37  1  6
  3 38  1  0
  3 39  1  0
  1 40  1  0
  1 41  1  0
  1 42  1  0
 32  2  1  0
 17  8  1  0
 31 25  1  0
 17 12  1  0
M  END
>  <cnnaffinities>  (50) 
[5.49677]

>  <score>  (50) 
5.49677

>  <index>  (50) 
49

>  <Smiles>  (50) 
C(N1C([C@@](C(=O)N(c2c(nc(c3c(c(c(c(c23)[H])[H])[H])[H])[H])[H])[H])(c2c(c(Cl)c(c(c2C1=O)[H])[H])[H])[H])([H])[H])([H])([H])[H]

>  <h>  (50) 
<NA>

>  <Training>  (50) 
True

>  <Success>  (50) 
True

>  <enamine_searched>  (50) 
False

>  <enamine_id>  (50) 
nan

$$$$

     RDKit          3D

 38 41  0  0  0  0  0  0  0  0999 V2000
    5.1012   -1.9811   21.3444 O   0  0  0  0  0  0  0  0  0  0  0  0
    6.2908   -1.7686   21.5066 C   0  0  0  0  0  0  0  0  0  0  0  0
    6.9405   -0.5050   20.8950 C   0  0  0  0  0  0  0  0  0  0  0  0
    6.1178    0.0878   19.7711 C   0  0  0  0  0  0  0  0  0  0  0  0
    6.4218   -0.2113   18.4672 C   0  0  0  0  0  0  0  0  0  0  0  0
    5.7581    0.2364   17.3676 N   0  0  0  0  0  0  0  0  0  0  0  0
    4.7356    1.0318   17.5762 C   0  0  0  0  0  0  0  0  0  0  0  0
    4.2867    1.4215   18.8686 C   0  0  0  0  0  0  0  0  0  0  0  0
    3.1642    2.2745   19.0420 C   0  0  0  0  0  0  0  0  0  0  0  0
    2.7458    2.6239   20.2982 C   0  0  0  0  0  0  0  0  0  0  0  0
    3.4323    2.1329   21.4307 C   0  0  0  0  0  0  0  0  0  0  0  0
    4.5236    1.3096   21.2880 C   0  0  0  0  0  0  0  0  0  0  0  0
    4.9867    0.9331   19.9992 C   0  0  0  0  0  0  0  0  0  0  0  0
    5.0282    0.9272   22.1686 H   0  0  0  0  0  0  0  0  0  0  0  0
    3.0920    2.4126   22.4227 H   0  0  0  0  0  0  0  0  0  0  0  0
    1.8880    3.2774   20.4331 H   0  0  0  0  0  0  0  0  0  0  0  0
    2.6455    2.6464   18.1605 H   0  0  0  0  0  0  0  0  0  0  0  0
    4.1992    1.4000   16.6995 H   0  0  0  0  0  0  0  0  0  0  0  0
    7.2635   -0.8654   18.2461 H   0  0  0  0  0  0  0  0  0  0  0  0
    7.0906    0.2427   21.6853 H   0  0  0  0  0  0  0  0  0  0  0  0
    7.9396   -0.7545   20.5094 H   0  0  0  0  0  0  0  0  0  0  0  0
    7.0806   -2.6641   22.2009 N   0  0  0  0  0  0  0  0  0  0  0  0
    8.4405   -2.3755   22.6499 C   0  0  0  0  0  0  0  0  0  0  0  0
    8.7623   -3.0429   23.9890 C   0  0  0  0  0  0  0  0  0  0  0  0
    8.3918   -4.4905   23.9424 C   0  0  0  0  0  0  0  0  0  0  0  0
    9.0896   -5.7451   24.9109 S   0  0  0  0  0  0  0  0  0  0  0  0
    8.0200   -6.9156   24.2258 C   0  0  0  0  0  0  0  0  0  0  0  0
    7.1772   -6.3630   23.3073 C   0  0  0  0  0  0  0  0  0  0  0  0
    7.3984   -4.9575   23.1435 C   0  0  0  0  0  0  0  0  0  0  0  0
    6.5955   -4.0493   22.2515 C   0  0  0  0  0  0  0  0  0  0  0  0
    5.5516   -4.0569   22.5843 H   0  0  0  0  0  0  0  0  0  0  0  0
    6.5698   -4.4938   21.2466 H   0  0  0  0  0  0  0  0  0  0  0  0
    6.4167   -6.9311   22.7774 H   0  0  0  0  0  0  0  0  0  0  0  0
    8.0712   -7.9464   24.5505 H   0  0  0  0  0  0  0  0  0  0  0  0
    9.8202   -2.9130   24.2326 H   0  0  0  0  0  0  0  0  0  0  0  0
    8.1976   -2.5541   24.7924 H   0  0  0  0  0  0  0  0  0  0  0  0
    9.1759   -2.7092   21.9062 H   0  0  0  0  0  0  0  0  0  0  0  0
    8.5555   -1.2950   22.7633 H   0  0  0  0  0  0  0  0  0  0  0  0
  1  2  2  0
  2  3  1  0
  3  4  1  0
  4  5  2  0
  5  6  1  0
  6  7  2  0
  7  8  1  0
  8  9  2  0
  9 10  1  0
 10 11  2  0
 11 12  1  0
 12 13  2  0
 12 14  1  0
 11 15  1  0
 10 16  1  0
  9 17  1  0
  7 18  1  0
  5 19  1  0
  3 20  1  0
  3 21  1  0
  2 22  1  0
 22 23  1  0
 23 24  1  0
 24 25  1  0
 25 26  1  0
 26 27  1  0
 27 28  2  0
 28 29  1  0
 29 30  1  0
 30 31  1  0
 30 32  1  0
 28 33  1  0
 27 34  1  0
 24 35  1  0
 24 36  1  0
 23 37  1  0
 23 38  1  0
 13  4  1  0
 30 22  1  0
 13  8  1  0
 29 25  2  0
M  END
>  <cnnaffinities>  (51) 
[5.39628, 5.30356]

>  <score>  (51) 
5.39628

>  <index>  (51) 
50

>  <Smiles>  (51) 
O=C(C(c1c(nc(c2c(c(c(c(c12)[H])[H])[H])[H])[H])[H])([H])[H])N1C(C(c2sc(c(c2C1([H])[H])[H])[H])([H])[H])([H])[H]

>  <h>  (51) 
<NA>

>  <Training>  (51) 
True

>  <Success>  (51) 
True

>  <enamine_searched>  (51) 
False

>  <enamine_id>  (51) 
nan

$$$$

     RDKit          3D

 67 73  0  0  0  0  0  0  0  0999 V2000
    8.9729   -8.3430   24.3263 C   0  0  0  0  0  0  0  0  0  0  0  0
    7.6873   -7.6123   24.2384 C   0  0  0  0  0  0  0  0  0  0  0  0
    6.5259   -8.1093   24.4892 N   0  0  0  0  0  0  0  0  0  0  0  0
    5.6016   -7.1207   24.1912 N   0  0  0  0  0  0  0  0  0  0  0  0
    6.2764   -6.1087   23.7591 C   0  0  0  0  0  0  0  0  0  0  0  0
    5.6990   -4.8274   23.2510 C   0  0  0  0  0  0  0  0  0  0  0  0
    6.3132   -3.6337   23.7813 N   0  0  0  0  0  0  0  0  0  0  0  0
    7.5163   -3.0845   23.1818 C   0  0  0  0  0  0  0  0  0  0  0  0
    7.3509   -1.5847   22.8560 C   0  0  2  0  0  0  0  0  0  0  0  0
    6.3606   -1.4165   21.6864 C   0  0  0  0  0  0  0  0  0  0  0  0
    5.3018   -1.9891   21.5187 O   0  0  0  0  0  0  0  0  0  0  0  0
    6.8747   -0.4773   20.8294 N   0  0  0  0  0  0  0  0  0  0  0  0
    6.1151    0.0642   19.7730 C   0  0  0  0  0  0  0  0  0  0  0  0
    6.4665   -0.2165   18.4778 C   0  0  0  0  0  0  0  0  0  0  0  0
    5.8043    0.2363   17.3872 N   0  0  0  0  0  0  0  0  0  0  0  0
    4.7727    1.0161   17.6071 C   0  0  0  0  0  0  0  0  0  0  0  0
    4.3189    1.3998   18.9009 C   0  0  0  0  0  0  0  0  0  0  0  0
    3.2045    2.2603   19.0567 C   0  0  0  0  0  0  0  0  0  0  0  0
    2.7985    2.6443   20.3026 C   0  0  0  0  0  0  0  0  0  0  0  0
    3.4917    2.1922   21.4499 C   0  0  0  0  0  0  0  0  0  0  0  0
    4.5752    1.3559   21.3332 C   0  0  0  0  0  0  0  0  0  0  0  0
    5.0064    0.9270   20.0388 C   0  0  0  0  0  0  0  0  0  0  0  0
    5.1037    1.0290   22.2319 H   0  0  0  0  0  0  0  0  0  0  0  0
    3.1626    2.5222   22.4308 H   0  0  0  0  0  0  0  0  0  0  0  0
    1.9503    3.3129   20.4183 H   0  0  0  0  0  0  0  0  0  0  0  0
    2.7051    2.6161   18.1598 H   0  0  0  0  0  0  0  0  0  0  0  0
    4.2356    1.3892   16.7357 H   0  0  0  0  0  0  0  0  0  0  0  0
    7.3200   -0.8678   18.2899 H   0  0  0  0  0  0  0  0  0  0  0  0
    8.2155   -0.0379   21.1328 C   0  0  0  0  0  0  0  0  0  0  0  0
    8.6516   -0.9268   22.3127 C   0  0  2  0  0  0  0  0  0  0  0  0
    9.7456   -1.9162   21.8584 C   0  0  0  0  0  0  0  0  0  0  0  0
   10.9387   -1.2342   21.4242 N   0  0  0  0  0  0  0  0  0  0  0  0
   11.8224   -0.6195   22.2522 C   0  0  0  0  0  0  0  0  0  0  0  0
   11.7680   -0.7388   23.6587 C   0  0  0  0  0  0  0  0  0  0  0  0
   12.7480   -0.0787   24.3672 C   0  0  0  0  0  0  0  0  0  0  0  0
   13.7029    0.6504   23.7845 N   0  0  0  0  0  0  0  0  0  0  0  0
   13.6483    0.6930   22.4601 C   0  0  0  0  0  0  0  0  0  0  0  0
   12.7660    0.1230   21.6526 N   0  0  0  0  0  0  0  0  0  0  0  0
   14.4273    1.2791   21.9820 H   0  0  0  0  0  0  0  0  0  0  0  0
   12.7736   -0.1272   25.4567 H   0  0  0  0  0  0  0  0  0  0  0  0
   11.0105   -1.3224   24.1726 H   0  0  0  0  0  0  0  0  0  0  0  0
   11.1548   -1.1809   20.4407 H   0  0  0  0  0  0  0  0  0  0  0  0
    9.3707   -2.5330   21.0314 H   0  0  0  0  0  0  0  0  0  0  0  0
   10.0109   -2.5964   22.6767 H   0  0  0  0  0  0  0  0  0  0  0  0
    9.1087   -0.3163   23.0987 H   0  0  0  0  0  0  0  0  0  0  0  0
    8.2467    1.0365   21.3637 H   0  0  0  0  0  0  0  0  0  0  0  0
    8.8559   -0.1796   20.2651 H   0  0  0  0  0  0  0  0  0  0  0  0
    6.8122   -0.8836   24.1042 C   0  0  0  0  0  0  0  0  0  0  0  0
    6.9889    0.4930   24.3114 C   0  0  0  0  0  0  0  0  0  0  0  0
    6.4901    1.1017   25.4531 C   0  0  0  0  0  0  0  0  0  0  0  0
    6.7354    2.8104   25.6905 Cl  0  0  0  0  0  0  0  0  0  0  0  0
    5.7971    0.3810   26.4229 C   0  0  0  0  0  0  0  0  0  0  0  0
    5.5914   -0.9657   26.2070 C   0  0  0  0  0  0  0  0  0  0  0  0
    6.0756   -1.5910   25.0600 C   0  0  0  0  0  0  0  0  0  0  0  0
    5.7050   -3.0244   24.8457 C   0  0  0  0  0  0  0  0  0  0  0  0
    4.8717   -3.5974   25.5344 O   0  0  0  0  0  0  0  0  0  0  0  0
    5.0395   -1.5701   26.9167 H   0  0  0  0  0  0  0  0  0  0  0  0
    5.4207    0.8708   27.3150 H   0  0  0  0  0  0  0  0  0  0  0  0
    7.5204    1.1185   23.6010 H   0  0  0  0  0  0  0  0  0  0  0  0
    8.3733   -3.2038   23.8618 H   0  0  0  0  0  0  0  0  0  0  0  0
    7.7284   -3.6445   22.2719 H   0  0  0  0  0  0  0  0  0  0  0  0
    5.7363   -4.7862   22.1547 H   0  0  0  0  0  0  0  0  0  0  0  0
    4.6407   -4.8237   23.5273 H   0  0  0  0  0  0  0  0  0  0  0  0
    7.6146   -6.3409   23.7555 O   0  0  0  0  0  0  0  0  0  0  0  0
    9.3275   -8.4538   25.3569 H   0  0  0  0  0  0  0  0  0  0  0  0
    8.7946   -9.3540   23.9535 H   0  0  0  0  0  0  0  0  0  0  0  0
    9.7736   -7.9082   23.7359 H   0  0  0  0  0  0  0  0  0  0  0  0
  1  2  1  0
  2  3  2  0
  3  4  1  0
  4  5  2  0
  5  6  1  0
  6  7  1  0
  7  8  1  0
  9  8  1  1
  9 10  1  0
 10 11  2  0
 10 12  1  0
 12 13  1  0
 13 14  2  0
 14 15  1  0
 15 16  2  0
 16 17  1  0
 17 18  2  0
 18 19  1  0
 19 20  2  0
 20 21  1  0
 21 22  2  0
 21 23  1  0
 20 24  1  0
 19 25  1  0
 18 26  1  0
 16 27  1  0
 14 28  1  0
 12 29  1  0
 29 30  1  0
 30 31  1  0
 31 32  1  0
 32 33  1  0
 33 34  2  0
 34 35  1  0
 35 36  2  0
 36 37  1  0
 37 38  2  0
 37 39  1  0
 35 40  1  0
 34 41  1  0
 32 42  1  0
 31 43  1  0
 31 44  1  0
 30 45  1  1
 29 46  1  0
 29 47  1  0
  9 48  1  0
 48 49  2  0
 49 50  1  0
 50 51  1  0
 50 52  2  0
 52 53  1  0
 53 54  2  0
 54 55  1  0
 55 56  2  0
 53 57  1  0
 52 58  1  0
 49 59  1  0
  8 60  1  0
  8 61  1  0
  6 62  1  0
  6 63  1  0
  5 64  1  0
  1 65  1  0
  1 66  1  0
  1 67  1  0
 64  2  1  0
 55  7  1  0
 30  9  1  0
 38 33  1  0
 54 48  1  0
 22 13  1  0
 22 17  1  0
M  END
>  <cnnaffinities>  (52) 
[7.44821, 7.41842]

>  <score>  (52) 
7.44821

>  <index>  (52) 
51

>  <Smiles>  (52) 
C(c1nnc(C(N2C([C@@]3(C(=O)N(c4c(nc(c5c(c(c(c(c45)[H])[H])[H])[H])[H])[H])C([C@@]3(C(N(c3c(c(nc(n3)[H])[H])[H])[H])([H])[H])[H])([H])[H])c3c(c(Cl)c(c(c3C2=O)[H])[H])[H])([H])[H])([H])[H])o1)([H])([H])[H]

>  <h>  (52) 
<NA>

>  <Training>  (52) 
True

>  <Success>  (52) 
True

>  <enamine_searched>  (52) 
False

>  <enamine_id>  (52) 
nan

$$$$

     RDKit          3D

 66 71  0  0  0  0  0  0  0  0999 V2000
    7.5690   -8.5045   23.0044 C   0  0  0  0  0  0  0  0  0  0  0  0
    6.6985   -7.3843   22.7203 N   0  0  0  0  0  0  0  0  0  0  0  0
    6.9418   -6.5315   21.6898 C   0  0  0  0  0  0  0  0  0  0  0  0
    7.7523   -6.7377   20.8044 O   0  0  0  0  0  0  0  0  0  0  0  0
    6.1011   -5.2500   21.7441 C   0  0  0  0  0  0  0  0  0  0  0  0
    6.6545   -4.3056   22.6999 N   0  0  0  0  0  0  0  0  0  0  0  0
    7.7413   -3.4182   22.3207 C   0  0  0  0  0  0  0  0  0  0  0  0
    7.4092   -1.9456   22.6710 C   0  0  2  0  0  0  0  0  0  0  0  0
    6.3203   -1.4431   21.6920 C   0  0  0  0  0  0  0  0  0  0  0  0
    5.1767   -1.8443   21.6048 O   0  0  0  0  0  0  0  0  0  0  0  0
    6.8663   -0.4763   20.8727 N   0  0  0  0  0  0  0  0  0  0  0  0
    6.1339    0.0735   19.7978 C   0  0  0  0  0  0  0  0  0  0  0  0
    6.4792   -0.2216   18.5024 C   0  0  0  0  0  0  0  0  0  0  0  0
    5.8196    0.2247   17.4048 N   0  0  0  0  0  0  0  0  0  0  0  0
    4.7864    1.0072   17.6097 C   0  0  0  0  0  0  0  0  0  0  0  0
    4.3294    1.4015   18.8990 C   0  0  0  0  0  0  0  0  0  0  0  0
    3.2094    2.2599   19.0496 C   0  0  0  0  0  0  0  0  0  0  0  0
    2.7955    2.6459   20.2943 C   0  0  0  0  0  0  0  0  0  0  0  0
    3.4863    2.2016   21.4435 C   0  0  0  0  0  0  0  0  0  0  0  0
    4.5738    1.3726   21.3239 C   0  0  0  0  0  0  0  0  0  0  0  0
    5.0175    0.9372   20.0404 C   0  0  0  0  0  0  0  0  0  0  0  0
    5.0957    1.0416   22.2158 H   0  0  0  0  0  0  0  0  0  0  0  0
    3.1550    2.5298   22.4252 H   0  0  0  0  0  0  0  0  0  0  0  0
    1.9424    3.3092   20.4056 H   0  0  0  0  0  0  0  0  0  0  0  0
    2.7049    2.6090   18.1517 H   0  0  0  0  0  0  0  0  0  0  0  0
    4.2472    1.3721   16.7342 H   0  0  0  0  0  0  0  0  0  0  0  0
    7.3230   -0.8829   18.3103 H   0  0  0  0  0  0  0  0  0  0  0  0
    8.3103   -0.3988   20.9815 C   0  0  0  0  0  0  0  0  0  0  0  0
    8.5943   -0.9831   22.3660 C   0  0  2  0  0  0  0  0  0  0  0  0
    9.9996   -1.5703   22.4137 C   0  0  0  0  0  0  0  0  0  0  0  0
   10.3132   -2.1085   23.7101 N   0  0  0  0  0  0  0  0  0  0  0  0
   11.5407   -2.5907   24.0323 C   0  0  0  0  0  0  0  0  0  0  0  0
   12.6208   -2.6497   23.1309 C   0  0  0  0  0  0  0  0  0  0  0  0
   13.8569   -2.9644   23.6654 C   0  0  0  0  0  0  0  0  0  0  0  0
   14.0406   -3.3278   24.9353 N   0  0  0  0  0  0  0  0  0  0  0  0
   12.9267   -3.3620   25.6490 C   0  0  0  0  0  0  0  0  0  0  0  0
   11.7004   -3.0098   25.2902 N   0  0  0  0  0  0  0  0  0  0  0  0
   13.0757   -3.7498   26.6447 H   0  0  0  0  0  0  0  0  0  0  0  0
   14.7817   -2.9062   23.1047 H   0  0  0  0  0  0  0  0  0  0  0  0
   12.4944   -2.4355   22.0757 H   0  0  0  0  0  0  0  0  0  0  0  0
    9.6603   -2.0351   24.4779 H   0  0  0  0  0  0  0  0  0  0  0  0
   10.7306   -0.7901   22.1596 H   0  0  0  0  0  0  0  0  0  0  0  0
   10.0945   -2.3658   21.6585 H   0  0  0  0  0  0  0  0  0  0  0  0
    8.5484   -0.1673   23.0921 H   0  0  0  0  0  0  0  0  0  0  0  0
    8.6512    0.6361   20.8938 H   0  0  0  0  0  0  0  0  0  0  0  0
    8.8223   -0.9858   20.2041 H   0  0  0  0  0  0  0  0  0  0  0  0
    6.9118   -1.9094   24.1070 C   0  0  0  0  0  0  0  0  0  0  0  0
    6.8719   -0.7033   24.8162 C   0  0  0  0  0  0  0  0  0  0  0  0
    6.3900   -0.6729   26.1108 C   0  0  0  0  0  0  0  0  0  0  0  0
    6.3267    0.8453   26.9501 Cl  0  0  0  0  0  0  0  0  0  0  0  0
    5.9446   -1.8219   26.7592 C   0  0  0  0  0  0  0  0  0  0  0  0
    5.9461   -3.0076   26.0542 C   0  0  0  0  0  0  0  0  0  0  0  0
    6.3896   -3.0511   24.7357 C   0  0  0  0  0  0  0  0  0  0  0  0
    6.1900   -4.3205   23.9764 C   0  0  0  0  0  0  0  0  0  0  0  0
    5.5819   -5.2910   24.4363 O   0  0  0  0  0  0  0  0  0  0  0  0
    5.5796   -3.9277   26.4912 H   0  0  0  0  0  0  0  0  0  0  0  0
    5.5861   -1.7762   27.7812 H   0  0  0  0  0  0  0  0  0  0  0  0
    7.1922    0.2298   24.3680 H   0  0  0  0  0  0  0  0  0  0  0  0
    7.8912   -3.5159   21.2506 H   0  0  0  0  0  0  0  0  0  0  0  0
    8.6816   -3.7079   22.8115 H   0  0  0  0  0  0  0  0  0  0  0  0
    6.0630   -4.7620   20.7620 H   0  0  0  0  0  0  0  0  0  0  0  0
    5.0805   -5.4956   22.0625 H   0  0  0  0  0  0  0  0  0  0  0  0
    6.0977   -7.0555   23.4653 H   0  0  0  0  0  0  0  0  0  0  0  0
    7.6297   -9.1661   22.1400 H   0  0  0  0  0  0  0  0  0  0  0  0
    8.5729   -8.1716   23.3001 H   0  0  0  0  0  0  0  0  0  0  0  0
    7.1331   -9.0739   23.8255 H   0  0  0  0  0  0  0  0  0  0  0  0
  1  2  1  0
  2  3  1  0
  3  4  2  0
  3  5  1  0
  5  6  1  0
  6  7  1  0
  8  7  1  6
  8  9  1  0
  9 10  2  0
  9 11  1  0
 11 12  1  0
 12 13  2  0
 13 14  1  0
 14 15  2  0
 15 16  1  0
 16 17  2  0
 17 18  1  0
 18 19  2  0
 19 20  1  0
 20 21  2  0
 20 22  1  0
 19 23  1  0
 18 24  1  0
 17 25  1  0
 15 26  1  0
 13 27  1  0
 11 28  1  0
 28 29  1  0
 29 30  1  0
 30 31  1  0
 31 32  1  0
 32 33  2  0
 33 34  1  0
 34 35  2  0
 35 36  1  0
 36 37  2  0
 36 38  1  0
 34 39  1  0
 33 40  1  0
 31 41  1  0
 30 42  1  0
 30 43  1  0
 29 44  1  1
 28 45  1  0
 28 46  1  0
  8 47  1  0
 47 48  2  0
 48 49  1  0
 49 50  1  0
 49 51  2  0
 51 52  1  0
 52 53  2  0
 53 54  1  0
 54 55  2  0
 52 56  1  0
 51 57  1  0
 48 58  1  0
  7 59  1  0
  7 60  1  0
  5 61  1  0
  5 62  1  0
  2 63  1  0
  1 64  1  0
  1 65  1  0
  1 66  1  0
 54  6  1  0
 29  8  1  0
 37 32  1  0
 53 47  1  0
 21 12  1  0
 21 16  1  0
M  END
>  <cnnaffinities>  (53) 
[7.43653]

>  <score>  (53) 
7.43653

>  <index>  (53) 
52

>  <Smiles>  (53) 
C(N(C(=O)C(N1C([C@@]2(C(=O)N(c3c(nc(c4c(c(c(c(c34)[H])[H])[H])[H])[H])[H])C([C@@]2(C(N(c2c(c(nc(n2)[H])[H])[H])[H])([H])[H])[H])([H])[H])c2c(c(Cl)c(c(c2C1=O)[H])[H])[H])([H])[H])([H])[H])[H])([H])([H])[H]

>  <h>  (53) 
<NA>

>  <Training>  (53) 
True

>  <Success>  (53) 
True

>  <enamine_searched>  (53) 
False

>  <enamine_id>  (53) 
nan

$$$$

     RDKit          3D

 77 84  0  0  0  0  0  0  0  0999 V2000
    4.3970   -2.6536   26.1442 O   0  0  0  0  0  0  0  0  0  0  0  0
    5.1898   -2.0858   25.3982 C   0  0  0  0  0  0  0  0  0  0  0  0
    5.4896   -0.6187   25.4966 C   0  0  0  0  0  0  0  0  0  0  0  0
    4.9981    0.0862   26.5935 C   0  0  0  0  0  0  0  0  0  0  0  0
    5.1549    1.4564   26.6786 C   0  0  0  0  0  0  0  0  0  0  0  0
    5.7619    2.1255   25.6159 C   0  0  0  0  0  0  0  0  0  0  0  0
    5.9135    3.8603   25.6798 Cl  0  0  0  0  0  0  0  0  0  0  0  0
    6.2622    1.4376   24.5224 C   0  0  0  0  0  0  0  0  0  0  0  0
    6.2141    0.0375   24.4920 C   0  0  0  0  0  0  0  0  0  0  0  0
    6.8981   -0.7369   23.3730 C   0  0  1  0  0  0  0  0  0  0  0  0
    7.0588   -2.2054   23.8394 C   0  0  0  0  0  0  0  0  0  0  0  0
    5.8395   -2.7400   24.3964 N   0  0  0  0  0  0  0  0  0  0  0  0
    5.5052   -4.1272   24.1680 C   0  0  0  0  0  0  0  0  0  0  0  0
    6.1510   -5.0716   25.1889 C   0  0  0  0  0  0  0  0  0  0  0  0
    5.4375   -6.4058   25.2854 N   0  0  0  0  0  4  0  0  0  0  0  0
    3.9349   -6.3623   25.6307 C   0  0  0  0  0  0  0  0  0  0  0  0
    3.5746   -6.8315   24.2033 C   0  0  0  0  0  0  0  0  0  0  0  0
    2.4737   -7.8233   23.8333 C   0  0  0  0  0  0  0  0  0  0  0  0
    1.8500   -6.8674   22.9646 O   0  0  0  0  0  0  0  0  0  0  0  0
    2.8383   -5.8851   23.2662 C   0  0  0  0  0  0  0  0  0  0  0  0
    2.3986   -5.0042   23.7470 H   0  0  0  0  0  0  0  0  0  0  0  0
    3.4141   -5.5726   22.3843 H   0  0  0  0  0  0  0  0  0  0  0  0
    1.8101   -8.1389   24.6489 H   0  0  0  0  0  0  0  0  0  0  0  0
    2.8261   -8.6980   23.2730 H   0  0  0  0  0  0  0  0  0  0  0  0
    5.0676   -7.1377   23.9880 C   0  0  0  0  0  0  0  0  0  0  0  0
    5.3376   -8.1877   24.0749 H   0  0  0  0  0  0  0  0  0  0  0  0
    5.5478   -6.6990   23.1209 H   0  0  0  0  0  0  0  0  0  0  0  0
    3.6293   -5.3590   25.9193 H   0  0  0  0  0  0  0  0  0  0  0  0
    3.7310   -7.0741   26.4271 H   0  0  0  0  0  0  0  0  0  0  0  0
    5.9911   -6.9756   25.9366 H   0  0  0  0  0  0  0  0  0  0  0  0
    6.1046   -4.6353   26.1851 H   0  0  0  0  0  0  0  0  0  0  0  0
    7.1957   -5.2749   24.9397 H   0  0  0  0  0  0  0  0  0  0  0  0
    5.8086   -4.3855   23.1460 H   0  0  0  0  0  0  0  0  0  0  0  0
    4.4152   -4.1837   24.2140 H   0  0  0  0  0  0  0  0  0  0  0  0
    7.3475   -2.8266   22.9875 H   0  0  0  0  0  0  0  0  0  0  0  0
    7.8500   -2.2564   24.6029 H   0  0  0  0  0  0  0  0  0  0  0  0
    6.0393   -0.6880   22.0932 C   0  0  0  0  0  0  0  0  0  0  0  0
    4.9413   -1.1810   21.9344 O   0  0  0  0  0  0  0  0  0  0  0  0
    6.7201    0.0275   21.1296 N   0  0  0  0  0  0  0  0  0  0  0  0
    6.0946    0.4655   19.9497 C   0  0  0  0  0  0  0  0  0  0  0  0
    6.5944    0.1237   18.7168 C   0  0  0  0  0  0  0  0  0  0  0  0
    6.0146    0.4503   17.5375 N   0  0  0  0  0  0  0  0  0  0  0  0
    4.9143    1.1623   17.5861 C   0  0  0  0  0  0  0  0  0  0  0  0
    4.3140    1.6168   18.7921 C   0  0  0  0  0  0  0  0  0  0  0  0
    3.1314    2.4005   18.7781 C   0  0  0  0  0  0  0  0  0  0  0  0
    2.6006    2.8714   19.9456 C   0  0  0  0  0  0  0  0  0  0  0  0
    3.2343    2.5892   21.1782 C   0  0  0  0  0  0  0  0  0  0  0  0
    4.3735    1.8270   21.2247 C   0  0  0  0  0  0  0  0  0  0  0  0
    4.9260    1.2932   20.0197 C   0  0  0  0  0  0  0  0  0  0  0  0
    4.8496    1.6324   22.1861 H   0  0  0  0  0  0  0  0  0  0  0  0
    2.8090    2.9798   22.0979 H   0  0  0  0  0  0  0  0  0  0  0  0
    1.6984    3.4763   19.9356 H   0  0  0  0  0  0  0  0  0  0  0  0
    2.6750    2.6286   17.8190 H   0  0  0  0  0  0  0  0  0  0  0  0
    4.4436    1.4188   16.6375 H   0  0  0  0  0  0  0  0  0  0  0  0
    7.5006   -0.4761   18.6442 H   0  0  0  0  0  0  0  0  0  0  0  0
    8.1493    0.0648   21.3819 C   0  0  0  0  0  0  0  0  0  0  0  0
    8.2499   -0.1006   22.9091 C   0  0  2  0  0  0  0  0  0  0  0  0
    9.4911   -0.8810   23.3914 C   0  0  0  0  0  0  0  0  0  0  0  0
   10.7395   -0.5813   22.7123 N   0  0  0  0  0  0  0  0  0  0  0  0
   12.1376   -1.2178   21.0244 C   0  0  0  0  0  0  0  0  0  0  0  0
   12.9723   -0.0574   21.3053 N   0  0  0  0  0  0  0  0  0  0  0  0
   13.8641   -0.1095   20.4182 C   0  0  0  0  0  0  0  0  0  0  0  0
   12.6647   -1.8390   19.7978 C   0  0  0  0  0  0  0  0  0  0  0  0
   12.8699   -2.1845   19.8617 C   0  0  0  0  0  0  0  0  0  0  0  0
   11.0731   -1.4385   21.6817 N   0  0  0  0  0  0  0  0  0  0  0  0
   13.2558   -3.1422   20.2091 H   0  0  0  0  0  0  0  0  0  0  0  0
   13.6892   -1.4320   19.4986 H   0  0  0  0  0  0  0  0  0  0  0  0
   14.7049    0.5480   20.2957 H   0  0  0  0  0  0  0  0  0  0  0  0
   10.8577    0.3914   22.4415 H   0  0  0  0  0  0  0  0  0  0  0  0
    9.6039   -0.7070   24.4700 H   0  0  0  0  0  0  0  0  0  0  0  0
    9.3212   -1.9565   23.2940 H   0  0  0  0  0  0  0  0  0  0  0  0
    8.3287    0.9000   23.3442 H   0  0  0  0  0  0  0  0  0  0  0  0
    8.6758   -0.7557   20.8800 H   0  0  0  0  0  0  0  0  0  0  0  0
    8.5678    1.0132   21.0308 H   0  0  0  0  0  0  0  0  0  0  0  0
    6.6890    2.0079   23.7026 H   0  0  0  0  0  0  0  0  0  0  0  0
    4.7925    2.0155   27.5342 H   0  0  0  0  0  0  0  0  0  0  0  0
    4.4803   -0.4765   27.3622 H   0  0  0  0  0  0  0  0  0  0  0  0
  1  2  2  0
  2  3  1  0
  3  4  2  0
  4  5  1  0
  5  6  2  0
  6  7  1  0
  6  8  1  0
  8  9  2  0
  9 10  1  0
 10 11  1  1
 11 12  1  0
 12 13  1  0
 13 14  1  0
 14 15  1  0
 15 16  1  0
 16 17  1  0
 17 18  1  0
 18 19  1  0
 19 20  1  0
 20 21  1  0
 20 22  1  0
 18 23  1  0
 18 24  1  0
 17 25  1  0
 25 26  1  0
 25 27  1  0
 16 28  1  0
 16 29  1  0
 15 30  1  0
 14 31  1  0
 14 32  1  0
 13 33  1  0
 13 34  1  0
 11 35  1  0
 11 36  1  0
 10 37  1  0
 37 38  2  0
 37 39  1  0
 39 40  1  0
 40 41  2  0
 41 42  1  0
 42 43  2  0
 43 44  1  0
 44 45  2  0
 45 46  1  0
 46 47  2  0
 47 48  1  0
 48 49  2  0
 48 50  1  0
 47 51  1  0
 46 52  1  0
 45 53  1  0
 43 54  1  0
 41 55  1  0
 39 56  1  0
 56 57  1  0
 57 58  1  0
 58 59  1  0
 59 60  1  0
 60 61  2  0
 61 62  1  0
 62 63  2  0
 63 64  1  0
 64 65  2  0
 64 66  1  0
 63 67  1  0
 62 68  1  0
 59 69  1  0
 58 70  1  0
 58 71  1  0
 57 72  1  1
 56 73  1  0
 56 74  1  0
  8 75  1  0
  5 76  1  0
  4 77  1  0
 12  2  1  0
 25 15  1  0
 49 40  1  0
 65 60  1  0
  9  3  1  0
 57 10  1  0
 20 17  1  0
 49 44  1  0
M  CHG  1  15   1
M  END
>  <cnnaffinities>  (54) 
[6.74932]

>  <score>  (54) 
6.74932

>  <index>  (54) 
53

>  <Smiles>  (54) 
O=C1c2c(c(c(Cl)c(c2[C@@]2(C(N1C(C([N+]1(C(C3(C(OC3([H])[H])([H])[H])C1([H])[H])([H])[H])[H])([H])[H])([H])[H])([H])[H])C(=O)N(c1c(nc(c3c(c(c(c(c13)[H])[H])[H])[H])[H])[H])C([C@@]2(C(N(c1nc(c(c(n1)[H])[H])[H])[H])([H])[H])[H])([H])[H])[H])[H])[H]

>  <h>  (54) 
<NA>

>  <Training>  (54) 
True

>  <Success>  (54) 
True

>  <enamine_searched>  (54) 
False

>  <enamine_id>  (54) 
nan

$$$$

     RDKit          3D

 66 71  0  0  0  0  0  0  0  0999 V2000
    7.5271   -8.4749   23.0550 C   0  0  0  0  0  0  0  0  0  0  0  0
    6.6718   -7.3381   22.7894 N   0  0  0  0  0  0  0  0  0  0  0  0
    6.9002   -6.5174   21.7317 C   0  0  0  0  0  0  0  0  0  0  0  0
    7.6924   -6.7422   20.8316 O   0  0  0  0  0  0  0  0  0  0  0  0
    6.0761   -5.2333   21.7585 C   0  0  0  0  0  0  0  0  0  0  0  0
    6.6239   -4.2638   22.6881 N   0  0  0  0  0  0  0  0  0  0  0  0
    7.7191   -3.3911   22.3003 C   0  0  0  0  0  0  0  0  0  0  0  0
    7.3844   -1.9169   22.6394 C   0  0  2  0  0  0  0  0  0  0  0  0
    6.2768   -1.4587   21.6629 C   0  0  0  0  0  0  0  0  0  0  0  0
    5.1510   -1.9052   21.5818 O   0  0  0  0  0  0  0  0  0  0  0  0
    6.7847   -0.4752   20.8375 N   0  0  0  0  0  0  0  0  0  0  0  0
    6.0648    0.0633   19.7595 C   0  0  0  0  0  0  0  0  0  0  0  0
    6.4425   -0.2070   18.4693 C   0  0  0  0  0  0  0  0  0  0  0  0
    5.7963    0.2503   17.3718 N   0  0  0  0  0  0  0  0  0  0  0  0
    4.7585    1.0279   17.5729 C   0  0  0  0  0  0  0  0  0  0  0  0
    4.2941    1.4216   18.8616 C   0  0  0  0  0  0  0  0  0  0  0  0
    3.1784    2.2830   19.0252 C   0  0  0  0  0  0  0  0  0  0  0  0
    2.7785    2.6652   20.2768 C   0  0  0  0  0  0  0  0  0  0  0  0
    3.4740    2.2161   21.4225 C   0  0  0  0  0  0  0  0  0  0  0  0
    4.5547    1.3802   21.2913 C   0  0  0  0  0  0  0  0  0  0  0  0
    4.9711    0.9452   20.0010 C   0  0  0  0  0  0  0  0  0  0  0  0
    5.1014    1.0399   22.1658 H   0  0  0  0  0  0  0  0  0  0  0  0
    3.1517    2.5371   22.4095 H   0  0  0  0  0  0  0  0  0  0  0  0
    1.9251    3.3266   20.3988 H   0  0  0  0  0  0  0  0  0  0  0  0
    2.6682    2.6369   18.1334 H   0  0  0  0  0  0  0  0  0  0  0  0
    4.2327    1.3905   16.6902 H   0  0  0  0  0  0  0  0  0  0  0  0
    7.2976   -0.8551   18.2811 H   0  0  0  0  0  0  0  0  0  0  0  0
    8.2208   -0.3689   20.8984 C   0  0  0  0  0  0  0  0  0  0  0  0
    8.5388   -0.9312   22.2795 C   0  0  2  0  0  0  0  0  0  0  0  0
    9.9572   -1.4715   22.3303 C   0  0  0  0  0  0  0  0  0  0  0  0
   10.2238   -1.9719   23.6455 N   0  0  0  0  0  0  0  0  0  0  0  0
   11.3920   -2.5665   23.9854 C   0  0  0  0  0  0  0  0  0  0  0  0
   11.5293   -3.1181   25.2701 C   0  0  0  0  0  0  0  0  0  0  0  0
   12.7015   -3.4306   25.7790 N   0  0  0  0  0  0  0  0  0  0  0  0
   13.7544   -3.2995   24.9632 C   0  0  0  0  0  0  0  0  0  0  0  0
   13.5746   -2.9779   23.6329 C   0  0  0  0  0  0  0  0  0  0  0  0
   12.3982   -2.5995   23.1185 N   0  0  0  0  0  0  0  0  0  0  0  0
   14.4414   -3.0536   22.9927 H   0  0  0  0  0  0  0  0  0  0  0  0
   14.7391   -3.5106   25.3702 H   0  0  0  0  0  0  0  0  0  0  0  0
   10.6349   -3.2396   25.8826 H   0  0  0  0  0  0  0  0  0  0  0  0
    9.5314   -1.8717   24.3673 H   0  0  0  0  0  0  0  0  0  0  0  0
   10.6821   -0.6979   22.0455 H   0  0  0  0  0  0  0  0  0  0  0  0
   10.0941   -2.2814   21.6058 H   0  0  0  0  0  0  0  0  0  0  0  0
    8.4713   -0.0951   22.9798 H   0  0  0  0  0  0  0  0  0  0  0  0
    8.7083   -0.9507   20.1017 H   0  0  0  0  0  0  0  0  0  0  0  0
    8.5329    0.6758   20.7932 H   0  0  0  0  0  0  0  0  0  0  0  0
    6.9226   -1.8740   24.0972 C   0  0  0  0  0  0  0  0  0  0  0  0
    6.8921   -0.6718   24.8222 C   0  0  0  0  0  0  0  0  0  0  0  0
    6.4255   -0.6487   26.1268 C   0  0  0  0  0  0  0  0  0  0  0  0
    6.3769    0.8705   26.9828 Cl  0  0  0  0  0  0  0  0  0  0  0  0
    5.9834   -1.8031   26.7716 C   0  0  0  0  0  0  0  0  0  0  0  0
    5.9757   -2.9867   26.0603 C   0  0  0  0  0  0  0  0  0  0  0  0
    6.4085   -3.0202   24.7346 C   0  0  0  0  0  0  0  0  0  0  0  0
    6.1942   -4.2854   23.9754 C   0  0  0  0  0  0  0  0  0  0  0  0
    5.6097   -5.2619   24.4524 O   0  0  0  0  0  0  0  0  0  0  0  0
    5.6102   -3.9023   26.5144 H   0  0  0  0  0  0  0  0  0  0  0  0
    5.6278   -1.7577   27.7957 H   0  0  0  0  0  0  0  0  0  0  0  0
    7.1974    0.2692   24.3780 H   0  0  0  0  0  0  0  0  0  0  0  0
    7.8809   -3.4926   21.2323 H   0  0  0  0  0  0  0  0  0  0  0  0
    8.6484   -3.6920   22.8010 H   0  0  0  0  0  0  0  0  0  0  0  0
    5.0407   -5.4439   22.0537 H   0  0  0  0  0  0  0  0  0  0  0  0
    6.0887   -4.8093   20.7531 H   0  0  0  0  0  0  0  0  0  0  0  0
    6.1560   -6.9362   23.5669 H   0  0  0  0  0  0  0  0  0  0  0  0
    8.5499   -8.1766   23.3116 H   0  0  0  0  0  0  0  0  0  0  0  0
    7.5737   -9.1403   22.1927 H   0  0  0  0  0  0  0  0  0  0  0  0
    7.1195   -9.0450   23.8919 H   0  0  0  0  0  0  0  0  0  0  0  0
  1  2  1  0
  2  3  1  0
  3  4  2  0
  3  5  1  0
  5  6  1  0
  6  7  1  0
  8  7  1  6
  8  9  1  0
  9 10  2  0
  9 11  1  0
 11 12  1  0
 12 13  2  0
 13 14  1  0
 14 15  2  0
 15 16  1  0
 16 17  2  0
 17 18  1  0
 18 19  2  0
 19 20  1  0
 20 21  2  0
 20 22  1  0
 19 23  1  0
 18 24  1  0
 17 25  1  0
 15 26  1  0
 13 27  1  0
 11 28  1  0
 28 29  1  0
 29 30  1  0
 30 31  1  0
 31 32  1  0
 32 33  2  0
 33 34  1  0
 34 35  2  0
 35 36  1  0
 36 37  2  0
 36 38  1  0
 35 39  1  0
 33 40  1  0
 31 41  1  0
 30 42  1  0
 30 43  1  0
 29 44  1  1
 28 45  1  0
 28 46  1  0
  8 47  1  0
 47 48  2  0
 48 49  1  0
 49 50  1  0
 49 51  2  0
 51 52  1  0
 52 53  2  0
 53 54  1  0
 54 55  2  0
 52 56  1  0
 51 57  1  0
 48 58  1  0
  7 59  1  0
  7 60  1  0
  5 61  1  0
  5 62  1  0
  2 63  1  0
  1 64  1  0
  1 65  1  0
  1 66  1  0
 54  6  1  0
 29  8  1  0
 37 32  1  0
 53 47  1  0
 21 12  1  0
 21 16  1  0
M  END
>  <cnnaffinities>  (55) 
[7.48324]

>  <score>  (55) 
7.48324

>  <index>  (55) 
54

>  <Smiles>  (55) 
C(N(C(=O)C(N1C([C@@]2(C(=O)N(c3c(nc(c4c(c(c(c(c34)[H])[H])[H])[H])[H])[H])C([C@@]2(C(N(c2c(nc(c(n2)[H])[H])[H])[H])([H])[H])[H])([H])[H])c2c(c(Cl)c(c(c2C1=O)[H])[H])[H])([H])[H])([H])[H])[H])([H])([H])[H]

>  <h>  (55) 
<NA>

>  <Training>  (55) 
True

>  <Success>  (55) 
True

>  <enamine_searched>  (55) 
False

>  <enamine_id>  (55) 
nan

$$$$

     RDKit          3D

 56 61  0  0  0  0  0  0  0  0999 V2000
   12.5427    2.4200   22.2281 C   0  0  0  0  0  0  0  0  0  0  0  0
   12.5409    1.0218   22.6515 N   0  0  0  0  0  0  0  0  0  0  0  0
   12.9774    0.5014   23.8206 C   0  0  0  0  0  0  0  0  0  0  0  0
   12.7831   -0.8562   23.7824 C   0  0  0  0  0  0  0  0  0  0  0  0
   12.2383   -1.0774   22.5024 C   0  0  0  0  0  0  0  0  0  0  0  0
   11.8578   -2.4133   21.9451 C   0  0  0  0  0  0  0  0  0  0  0  0
   10.4953   -2.7962   22.2883 N   0  0  0  0  0  0  0  0  0  0  0  0
    9.3997   -2.5593   21.3679 C   0  0  0  0  0  0  0  0  0  0  0  0
    8.2005   -1.9205   22.1076 C   0  0  1  0  0  0  0  0  0  0  0  0
    8.5027   -0.4627   22.5550 C   0  0  0  0  0  0  0  0  0  0  0  0
    7.8833    0.4441   21.4907 C   0  0  0  0  0  0  0  0  0  0  0  0
    6.8897   -0.4106   20.8559 N   0  0  0  0  0  0  0  0  0  0  0  0
    6.1055    0.0422   19.7692 C   0  0  0  0  0  0  0  0  0  0  0  0
    6.4340   -0.2784   18.4765 C   0  0  0  0  0  0  0  0  0  0  0  0
    5.7898    0.2034   17.3816 N   0  0  0  0  0  0  0  0  0  0  0  0
    4.7808    1.0151   17.5909 C   0  0  0  0  0  0  0  0  0  0  0  0
    4.3196    1.4046   18.8816 C   0  0  0  0  0  0  0  0  0  0  0  0
    3.2031    2.2608   19.0543 C   0  0  0  0  0  0  0  0  0  0  0  0
    2.7837    2.5978   20.3119 C   0  0  0  0  0  0  0  0  0  0  0  0
    3.4627    2.1076   21.4499 C   0  0  0  0  0  0  0  0  0  0  0  0
    4.5515    1.2846   21.3092 C   0  0  0  0  0  0  0  0  0  0  0  0
    5.0025    0.9144   20.0149 C   0  0  0  0  0  0  0  0  0  0  0  0
    5.0666    0.9011   22.1839 H   0  0  0  0  0  0  0  0  0  0  0  0
    3.1214    2.3919   22.4396 H   0  0  0  0  0  0  0  0  0  0  0  0
    1.9314    3.2551   20.4410 H   0  0  0  0  0  0  0  0  0  0  0  0
    2.7027    2.6401   18.1665 H   0  0  0  0  0  0  0  0  0  0  0  0
    4.2628    1.4022   16.7117 H   0  0  0  0  0  0  0  0  0  0  0  0
    7.2712   -0.9449   18.2806 H   0  0  0  0  0  0  0  0  0  0  0  0
    7.0519   -1.7544   21.1108 C   0  0  0  0  0  0  0  0  0  0  0  0
    6.3849   -2.6381   20.6130 O   0  0  0  0  0  0  0  0  0  0  0  0
    8.6266    0.7845   20.7559 H   0  0  0  0  0  0  0  0  0  0  0  0
    7.4098    1.3324   21.9184 H   0  0  0  0  0  0  0  0  0  0  0  0
    9.5768   -0.2888   22.6372 H   0  0  0  0  0  0  0  0  0  0  0  0
    8.0489   -0.2880   23.5348 H   0  0  0  0  0  0  0  0  0  0  0  0
    7.8640   -2.8379   23.2639 C   0  0  0  0  0  0  0  0  0  0  0  0
    6.5650   -2.9248   23.7626 C   0  0  0  0  0  0  0  0  0  0  0  0
    6.2978   -3.7245   24.8617 C   0  0  0  0  0  0  0  0  0  0  0  0
    4.6942   -3.7429   25.5273 Cl  0  0  0  0  0  0  0  0  0  0  0  0
    7.2910   -4.4892   25.4719 C   0  0  0  0  0  0  0  0  0  0  0  0
    8.5804   -4.3980   24.9811 C   0  0  0  0  0  0  0  0  0  0  0  0
    8.8754   -3.5506   23.9155 C   0  0  0  0  0  0  0  0  0  0  0  0
   10.3034   -3.3676   23.5210 C   0  0  0  0  0  0  0  0  0  0  0  0
   11.2308   -3.6769   24.2589 O   0  0  0  0  0  0  0  0  0  0  0  0
    9.3913   -4.9774   25.4087 H   0  0  0  0  0  0  0  0  0  0  0  0
    7.0647   -5.1276   26.3217 H   0  0  0  0  0  0  0  0  0  0  0  0
    5.7572   -2.3817   23.2874 H   0  0  0  0  0  0  0  0  0  0  0  0
    9.7469   -1.8814   20.5818 H   0  0  0  0  0  0  0  0  0  0  0  0
    9.0848   -3.5162   20.9374 H   0  0  0  0  0  0  0  0  0  0  0  0
   11.9667   -2.4310   20.8570 H   0  0  0  0  0  0  0  0  0  0  0  0
   12.5126   -3.1738   22.3854 H   0  0  0  0  0  0  0  0  0  0  0  0
   12.0840    0.0582   21.8269 N   0  0  0  0  0  0  0  0  0  0  0  0
   12.9536   -1.6067   24.5526 H   0  0  0  0  0  0  0  0  0  0  0  0
   13.3773    1.1242   24.6001 H   0  0  0  0  0  0  0  0  0  0  0  0
   13.5674    2.8129   22.2275 H   0  0  0  0  0  0  0  0  0  0  0  0
   12.1081    2.4612   21.2273 H   0  0  0  0  0  0  0  0  0  0  0  0
   11.9344    3.0665   22.8711 H   0  0  0  0  0  0  0  0  0  0  0  0
  1  2  1  0
  2  3  1  0
  3  4  2  0
  4  5  1  0
  5  6  1  0
  6  7  1  0
  7  8  1  0
  9  8  1  6
  9 10  1  0
 10 11  1  0
 11 12  1  0
 12 13  1  0
 13 14  2  0
 14 15  1  0
 15 16  2  0
 16 17  1  0
 17 18  2  0
 18 19  1  0
 19 20  2  0
 20 21  1  0
 21 22  2  0
 21 23  1  0
 20 24  1  0
 19 25  1  0
 18 26  1  0
 16 27  1  0
 14 28  1  0
 12 29  1  0
 29 30  2  0
 11 31  1  0
 11 32  1  0
 10 33  1  0
 10 34  1  0
  9 35  1  0
 35 36  2  0
 36 37  1  0
 37 38  1  0
 37 39  2  0
 39 40  1  0
 40 41  2  0
 41 42  1  0
 42 43  2  0
 40 44  1  0
 39 45  1  0
 36 46  1  0
  8 47  1  0
  8 48  1  0
  6 49  1  0
  6 50  1  0
  5 51  2  0
  4 52  1  0
  3 53  1  0
  1 54  1  0
  1 55  1  0
  1 56  1  0
 51  2  1  0
 42  7  1  0
 29  9  1  0
 41 35  1  0
 22 13  1  0
 22 17  1  0
M  END
>  <cnnaffinities>  (56) 
[6.94094]

>  <score>  (56) 
6.94094

>  <index>  (56) 
55

>  <Smiles>  (56) 
C(n1c(c(c(C(N2C([C@]3(C(C(N(c4c(nc(c5c(c(c(c(c45)[H])[H])[H])[H])[H])[H])C3=O)([H])[H])([H])[H])c3c(c(Cl)c(c(c3C2=O)[H])[H])[H])([H])[H])([H])[H])n1)[H])[H])([H])([H])[H]

>  <h>  (56) 
<NA>

>  <Training>  (56) 
True

>  <Success>  (56) 
True

>  <enamine_searched>  (56) 
False

>  <enamine_id>  (56) 
nan

$$$$

     RDKit          3D

 41 43  0  0  0  0  0  0  0  0999 V2000
    5.1159   -2.1306   21.1189 O   0  0  0  0  0  0  0  0  0  0  0  0
    6.1129   -1.6354   21.6152 C   0  0  0  0  0  0  0  0  0  0  0  0
    6.8751   -0.5246   20.9046 C   0  0  0  0  0  0  0  0  0  0  0  0
    6.1038    0.0602   19.7674 C   0  0  0  0  0  0  0  0  0  0  0  0
    6.4300   -0.2353   18.4714 C   0  0  0  0  0  0  0  0  0  0  0  0
    5.7769    0.2221   17.3697 N   0  0  0  0  0  0  0  0  0  0  0  0
    4.7542    1.0140   17.5851 C   0  0  0  0  0  0  0  0  0  0  0  0
    4.2954    1.3951   18.8765 C   0  0  0  0  0  0  0  0  0  0  0  0
    3.1810    2.2575   19.0489 C   0  0  0  0  0  0  0  0  0  0  0  0
    2.7614    2.6108   20.3011 C   0  0  0  0  0  0  0  0  0  0  0  0
    3.4389    2.1216   21.4428 C   0  0  0  0  0  0  0  0  0  0  0  0
    4.5247    1.2858   21.3023 C   0  0  0  0  0  0  0  0  0  0  0  0
    4.9818    0.9036   20.0099 C   0  0  0  0  0  0  0  0  0  0  0  0
    5.0375    0.9239   22.1930 H   0  0  0  0  0  0  0  0  0  0  0  0
    3.1054    2.4162   22.4338 H   0  0  0  0  0  0  0  0  0  0  0  0
    1.9070    3.2730   20.4290 H   0  0  0  0  0  0  0  0  0  0  0  0
    2.6811    2.6368   18.1589 H   0  0  0  0  0  0  0  0  0  0  0  0
    4.2234    1.3969   16.7120 H   0  0  0  0  0  0  0  0  0  0  0  0
    7.2780   -0.8883   18.2694 H   0  0  0  0  0  0  0  0  0  0  0  0
    7.8209   -0.9543   20.5515 H   0  0  0  0  0  0  0  0  0  0  0  0
    7.1053    0.2554   21.6402 H   0  0  0  0  0  0  0  0  0  0  0  0
    6.5889   -2.0121   22.8546 N   0  0  0  0  0  0  0  0  0  0  0  0
    7.9676   -1.7838   23.2704 C   0  0  0  0  0  0  0  0  0  0  0  0
    8.9161   -2.8320   22.6946 C   0  0  0  0  0  0  0  0  0  0  0  0
    8.8486   -4.1472   23.4604 C   0  0  0  0  0  0  0  0  0  0  0  0
    7.3184   -5.0999   23.2265 S   0  0  0  0  0  0  0  0  0  0  0  0
    6.2964   -4.0651   24.3021 C   0  0  0  0  0  0  0  0  0  0  0  0
    5.7033   -2.8086   23.6662 C   0  0  1  0  0  0  0  0  0  0  0  0
    5.1263   -1.9204   24.7618 C   0  0  0  0  0  0  0  0  0  0  0  0
    6.0856   -1.5071   25.6195 F   0  0  0  0  0  0  0  0  0  0  0  0
    4.5438   -0.8300   24.2473 F   0  0  0  0  0  0  0  0  0  0  0  0
    4.2099   -2.5865   25.4870 F   0  0  0  0  0  0  0  0  0  0  0  0
    4.8796   -3.0828   23.0008 H   0  0  0  0  0  0  0  0  0  0  0  0
    5.4751   -4.6684   24.6932 H   0  0  0  0  0  0  0  0  0  0  0  0
    6.9167   -3.8008   25.1610 H   0  0  0  0  0  0  0  0  0  0  0  0
    9.7113   -4.7797   23.2786 H   0  0  0  0  0  0  0  0  0  0  0  0
    8.9100   -3.9323   24.5301 H   0  0  0  0  0  0  0  0  0  0  0  0
    8.6743   -3.0031   21.6409 H   0  0  0  0  0  0  0  0  0  0  0  0
    9.9461   -2.4660   22.7508 H   0  0  0  0  0  0  0  0  0  0  0  0
    8.0266   -1.7513   24.3613 H   0  0  0  0  0  0  0  0  0  0  0  0
    8.2834   -0.7888   22.9602 H   0  0  0  0  0  0  0  0  0  0  0  0
  1  2  2  0
  2  3  1  0
  3  4  1  0
  4  5  2  0
  5  6  1  0
  6  7  2  0
  7  8  1  0
  8  9  2  0
  9 10  1  0
 10 11  2  0
 11 12  1  0
 12 13  2  0
 12 14  1  0
 11 15  1  0
 10 16  1  0
  9 17  1  0
  7 18  1  0
  5 19  1  0
  3 20  1  0
  3 21  1  0
  2 22  1  0
 22 23  1  0
 23 24  1  0
 24 25  1  0
 25 26  1  0
 26 27  1  0
 27 28  1  0
 28 29  1  0
 29 30  1  0
 29 31  1  0
 29 32  1  0
 28 33  1  6
 27 34  1  0
 27 35  1  0
 25 36  1  0
 25 37  1  0
 24 38  1  0
 24 39  1  0
 23 40  1  0
 23 41  1  0
 13  4  1  0
 28 22  1  0
 13  8  1  0
M  END
>  <cnnaffinities>  (57) 
[5.64378, 5.64377, 5.64386, 5.49986, 5.42585, 5.42583]

>  <score>  (57) 
5.64378

>  <index>  (57) 
56

>  <Smiles>  (57) 
O=C(C(c1c(nc(c2c(c(c(c(c12)[H])[H])[H])[H])[H])[H])([H])[H])N1C(C(C(SC([C@]1(C(F)(F)F)[H])([H])[H])([H])[H])([H])[H])([H])[H]

>  <h>  (57) 
<NA>

>  <Training>  (57) 
True

>  <Success>  (57) 
True

>  <enamine_searched>  (57) 
False

>  <enamine_id>  (57) 
nan

$$$$

     RDKit          3D

 67 72  0  0  0  0  0  0  0  0999 V2000
    7.8082    1.9062   29.3189 C   0  0  0  0  0  0  0  0  0  0  0  0
    7.7075    0.7028   28.5201 N   0  0  0  0  0  0  0  0  0  0  0  0
    7.0712    0.7381   27.3184 C   0  0  0  0  0  0  0  0  0  0  0  0
    6.4857    1.7291   26.9127 O   0  0  0  0  0  0  0  0  0  0  0  0
    7.0961   -0.5787   26.5278 C   0  0  0  0  0  0  0  0  0  0  0  0
    7.9285   -0.5457   25.3334 N   0  0  0  0  0  0  0  0  0  0  0  0
    7.3738   -0.0361   24.0884 C   0  0  0  0  0  0  0  0  0  0  0  0
    8.1730   -0.4580   22.8200 C   0  0  2  0  0  0  0  0  0  0  0  0
    7.6428    0.3765   21.6535 C   0  0  0  0  0  0  0  0  0  0  0  0
    7.7998    1.5661   21.4609 O   0  0  0  0  0  0  0  0  0  0  0  0
    6.8976   -0.4337   20.8289 N   0  0  0  0  0  0  0  0  0  0  0  0
    6.1272    0.0958   19.7699 C   0  0  0  0  0  0  0  0  0  0  0  0
    6.4426   -0.2342   18.4766 C   0  0  0  0  0  0  0  0  0  0  0  0
    5.7819    0.2218   17.3844 N   0  0  0  0  0  0  0  0  0  0  0  0
    4.7629    1.0209   17.5960 C   0  0  0  0  0  0  0  0  0  0  0  0
    4.3122    1.4164   18.8879 C   0  0  0  0  0  0  0  0  0  0  0  0
    3.1866    2.2649   19.0538 C   0  0  0  0  0  0  0  0  0  0  0  0
    2.7497    2.6071   20.3030 C   0  0  0  0  0  0  0  0  0  0  0  0
    3.4180    2.1182   21.4498 C   0  0  0  0  0  0  0  0  0  0  0  0
    4.5139    1.3040   21.3176 C   0  0  0  0  0  0  0  0  0  0  0  0
    5.0009    0.9407   20.0253 C   0  0  0  0  0  0  0  0  0  0  0  0
    5.0163    0.9384   22.2108 H   0  0  0  0  0  0  0  0  0  0  0  0
    3.0621    2.3944   22.4390 H   0  0  0  0  0  0  0  0  0  0  0  0
    1.8894    3.2605   20.4256 H   0  0  0  0  0  0  0  0  0  0  0  0
    2.6873    2.6328   18.1609 H   0  0  0  0  0  0  0  0  0  0  0  0
    4.2217    1.3864   16.7221 H   0  0  0  0  0  0  0  0  0  0  0  0
    7.2945   -0.8869   18.2837 H   0  0  0  0  0  0  0  0  0  0  0  0
    6.7592   -1.7963   21.2938 C   0  0  0  0  0  0  0  0  0  0  0  0
    7.8889   -1.9204   22.3178 C   0  0  2  0  0  0  0  0  0  0  0  0
    7.6802   -3.0249   23.3676 C   0  0  0  0  0  0  0  0  0  0  0  0
    6.3521   -3.1473   23.9378 N   0  0  0  0  0  0  0  0  0  0  0  0
    5.3642   -3.9344   23.4023 C   0  0  0  0  0  0  0  0  0  0  0  0
    5.4172   -4.7014   22.2756 C   0  0  0  0  0  0  0  0  0  0  0  0
    4.2848   -5.3897   21.9366 N   0  0  0  0  0  0  0  0  0  0  0  0
    3.3392   -5.1789   22.7985 C   0  0  0  0  0  0  0  0  0  0  0  0
    2.0008   -5.8431   22.7277 C   0  0  0  0  0  0  0  0  0  0  0  0
    1.5473   -5.9667   23.7133 H   0  0  0  0  0  0  0  0  0  0  0  0
    1.3004   -5.2830   22.0980 H   0  0  0  0  0  0  0  0  0  0  0  0
    2.1296   -6.8218   22.2630 H   0  0  0  0  0  0  0  0  0  0  0  0
    3.7710   -4.0881   24.0924 S   0  0  0  0  0  0  0  0  0  0  0  0
    6.2843   -4.7881   21.6366 H   0  0  0  0  0  0  0  0  0  0  0  0
    6.1980   -2.7501   24.8503 H   0  0  0  0  0  0  0  0  0  0  0  0
    8.3962   -2.8701   24.1798 H   0  0  0  0  0  0  0  0  0  0  0  0
    7.9413   -3.9850   22.9134 H   0  0  0  0  0  0  0  0  0  0  0  0
    8.8045   -2.1951   21.7756 H   0  0  0  0  0  0  0  0  0  0  0  0
    5.7717   -1.9618   21.7489 H   0  0  0  0  0  0  0  0  0  0  0  0
    6.8517   -2.4957   20.4578 H   0  0  0  0  0  0  0  0  0  0  0  0
    9.6528   -0.2188   23.0594 C   0  0  0  0  0  0  0  0  0  0  0  0
   10.5961   -0.0444   22.0337 C   0  0  0  0  0  0  0  0  0  0  0  0
   11.9455    0.0686   22.3574 C   0  0  0  0  0  0  0  0  0  0  0  0
   13.1880    0.2020   21.1560 Cl  0  0  0  0  0  0  0  0  0  0  0  0
   12.4118    0.0338   23.6709 C   0  0  0  0  0  0  0  0  0  0  0  0
   11.4908   -0.1709   24.6625 C   0  0  0  0  0  0  0  0  0  0  0  0
   10.1439   -0.2967   24.3507 C   0  0  0  0  0  0  0  0  0  0  0  0
    9.2781   -0.6257   25.4955 C   0  0  0  0  0  0  0  0  0  0  0  0
    9.8220   -0.9737   26.5273 O   0  0  0  0  0  0  0  0  0  0  0  0
   11.7536   -0.2626   25.7076 H   0  0  0  0  0  0  0  0  0  0  0  0
   13.4705    0.1204   23.8924 H   0  0  0  0  0  0  0  0  0  0  0  0
   10.2762   -0.0239   20.9990 H   0  0  0  0  0  0  0  0  0  0  0  0
    6.3471   -0.4041   24.0039 H   0  0  0  0  0  0  0  0  0  0  0  0
    7.3237    1.0592   24.1180 H   0  0  0  0  0  0  0  0  0  0  0  0
    6.0607   -0.7477   26.2159 H   0  0  0  0  0  0  0  0  0  0  0  0
    7.4358   -1.3974   27.1673 H   0  0  0  0  0  0  0  0  0  0  0  0
    8.2474   -0.1099   28.7685 H   0  0  0  0  0  0  0  0  0  0  0  0
    6.8148    2.2690   29.5944 H   0  0  0  0  0  0  0  0  0  0  0  0
    8.3027    2.6996   28.7525 H   0  0  0  0  0  0  0  0  0  0  0  0
    8.3765    1.7025   30.2296 H   0  0  0  0  0  0  0  0  0  0  0  0
  1  2  1  0
  2  3  1  0
  3  4  2  0
  3  5  1  0
  5  6  1  0
  6  7  1  0
  8  7  1  1
  8  9  1  0
  9 10  2  0
  9 11  1  0
 11 12  1  0
 12 13  2  0
 13 14  1  0
 14 15  2  0
 15 16  1  0
 16 17  2  0
 17 18  1  0
 18 19  2  0
 19 20  1  0
 20 21  2  0
 20 22  1  0
 19 23  1  0
 18 24  1  0
 17 25  1  0
 15 26  1  0
 13 27  1  0
 11 28  1  0
 28 29  1  0
 29 30  1  0
 30 31  1  0
 31 32  1  0
 32 33  2  0
 33 34  1  0
 34 35  2  0
 35 36  1  0
 36 37  1  0
 36 38  1  0
 36 39  1  0
 35 40  1  0
 33 41  1  0
 31 42  1  0
 30 43  1  0
 30 44  1  0
 29 45  1  6
 28 46  1  0
 28 47  1  0
  8 48  1  0
 48 49  2  0
 49 50  1  0
 50 51  1  0
 50 52  2  0
 52 53  1  0
 53 54  2  0
 54 55  1  0
 55 56  2  0
 53 57  1  0
 52 58  1  0
 49 59  1  0
  7 60  1  0
  7 61  1  0
  5 62  1  0
  5 63  1  0
  2 64  1  0
  1 65  1  0
  1 66  1  0
  1 67  1  0
 55  6  1  0
 29  8  1  0
 40 32  1  0
 54 48  1  0
 21 12  1  0
 21 16  1  0
M  END
>  <cnnaffinities>  (58) 
[6.82955, 6.93921, 7.1013]

>  <score>  (58) 
6.82955

>  <index>  (58) 
57

>  <Smiles>  (58) 
C(N(C(=O)C(N1C([C@@]2(C(=O)N(c3c(nc(c4c(c(c(c(c34)[H])[H])[H])[H])[H])[H])C([C@@]2(C(N(c2c(nc(C([H])([H])[H])s2)[H])[H])([H])[H])[H])([H])[H])c2c(c(Cl)c(c(c2C1=O)[H])[H])[H])([H])[H])([H])[H])[H])([H])([H])[H]

>  <h>  (58) 
<NA>

>  <Training>  (58) 
True

>  <Success>  (58) 
True

>  <enamine_searched>  (58) 
False

>  <enamine_id>  (58) 
nan

$$$$

     RDKit          3D

 57 62  0  0  0  0  0  0  0  0999 V2000
    7.7379   -3.0018   23.3096 C   0  0  0  0  0  0  0  0  0  0  0  0
    8.0109   -1.9200   22.2720 C   0  0  1  0  0  0  0  0  0  0  0  0
    6.8882   -1.7964   21.2306 C   0  0  0  0  0  0  0  0  0  0  0  0
    6.9293   -0.4035   20.8318 N   0  0  0  0  0  0  0  0  0  0  0  0
    6.1491    0.1185   19.7719 C   0  0  0  0  0  0  0  0  0  0  0  0
    6.4480   -0.2212   18.4770 C   0  0  0  0  0  0  0  0  0  0  0  0
    5.7710    0.2207   17.3895 N   0  0  0  0  0  0  0  0  0  0  0  0
    4.7522    1.0193   17.6001 C   0  0  0  0  0  0  0  0  0  0  0  0
    4.3022    1.4178   18.8902 C   0  0  0  0  0  0  0  0  0  0  0  0
    3.1727    2.2651   19.0583 C   0  0  0  0  0  0  0  0  0  0  0  0
    2.7404    2.6080   20.3096 C   0  0  0  0  0  0  0  0  0  0  0  0
    3.4137    2.1107   21.4480 C   0  0  0  0  0  0  0  0  0  0  0  0
    4.5085    1.2967   21.3099 C   0  0  0  0  0  0  0  0  0  0  0  0
    5.0037    0.9451   20.0215 C   0  0  0  0  0  0  0  0  0  0  0  0
    5.0177    0.9256   22.1936 H   0  0  0  0  0  0  0  0  0  0  0  0
    3.0712    2.3904   22.4401 H   0  0  0  0  0  0  0  0  0  0  0  0
    1.8846    3.2673   20.4339 H   0  0  0  0  0  0  0  0  0  0  0  0
    2.6745    2.6359   18.1661 H   0  0  0  0  0  0  0  0  0  0  0  0
    4.2260    1.3839   16.7184 H   0  0  0  0  0  0  0  0  0  0  0  0
    7.2871   -0.8827   18.2650 H   0  0  0  0  0  0  0  0  0  0  0  0
    7.6445    0.4060   21.6835 C   0  0  0  0  0  0  0  0  0  0  0  0
    7.7506    1.6081   21.5503 O   0  0  0  0  0  0  0  0  0  0  0  0
    8.2283   -0.4611   22.8123 C   0  0  1  0  0  0  0  0  0  0  0  0
    7.4381   -0.1119   24.1004 C   0  0  0  0  0  0  0  0  0  0  0  0
    8.0571   -0.6018   25.3207 N   0  0  0  0  0  0  0  0  0  0  0  0
    7.1840   -0.8697   26.4603 C   0  0  0  0  0  0  0  0  0  0  0  0
    6.7045   -2.3115   26.5112 C   0  0  0  0  0  0  0  0  0  0  0  0
    7.5613   -3.3376   26.8981 C   0  0  0  0  0  0  0  0  0  0  0  0
    7.0246   -4.6123   27.0031 C   0  0  0  0  0  0  0  0  0  0  0  0
    5.7540   -4.8803   26.6925 N   0  0  0  0  0  0  0  0  0  0  0  0
    5.0439   -3.8417   26.2478 C   0  0  0  0  0  0  0  0  0  0  0  0
    5.4386   -2.5732   26.1448 N   0  0  0  0  0  0  0  0  0  0  0  0
    4.0272   -4.0754   25.9124 H   0  0  0  0  0  0  0  0  0  0  0  0
    7.6433   -5.4568   27.3175 H   0  0  0  0  0  0  0  0  0  0  0  0
    8.6151   -3.1430   27.0678 H   0  0  0  0  0  0  0  0  0  0  0  0
    7.7408   -0.6111   27.3680 H   0  0  0  0  0  0  0  0  0  0  0  0
    6.3044   -0.2186   26.3825 H   0  0  0  0  0  0  0  0  0  0  0  0
    9.4080   -0.6709   25.4705 C   0  0  0  0  0  0  0  0  0  0  0  0
    9.9546   -1.0457   26.4896 O   0  0  0  0  0  0  0  0  0  0  0  0
   10.2465   -0.2798   24.3176 C   0  0  0  0  0  0  0  0  0  0  0  0
   11.6127   -0.1276   24.5580 C   0  0  0  0  0  0  0  0  0  0  0  0
   12.4529    0.1521   23.5070 C   0  0  0  0  0  0  0  0  0  0  0  0
   11.9135    0.2444   22.2334 C   0  0  0  0  0  0  0  0  0  0  0  0
   12.7930    0.5193   21.2628 F   0  0  0  0  0  0  0  0  0  0  0  0
   10.5672    0.0650   21.9689 C   0  0  0  0  0  0  0  0  0  0  0  0
    9.7015   -0.1704   23.0435 C   0  0  0  0  0  0  0  0  0  0  0  0
   10.1692    0.1036   20.9631 H   0  0  0  0  0  0  0  0  0  0  0  0
   13.5224    0.2851   23.6009 H   0  0  0  0  0  0  0  0  0  0  0  0
   11.9770   -0.2499   25.5739 H   0  0  0  0  0  0  0  0  0  0  0  0
    6.4355   -0.5636   24.0866 H   0  0  0  0  0  0  0  0  0  0  0  0
    7.3541    0.9876   24.1202 H   0  0  0  0  0  0  0  0  0  0  0  0
    5.9099   -2.0649   21.6601 H   0  0  0  0  0  0  0  0  0  0  0  0
    7.0450   -2.4362   20.3622 H   0  0  0  0  0  0  0  0  0  0  0  0
    8.9463   -2.1573   21.7454 H   0  0  0  0  0  0  0  0  0  0  0  0
    6.7772   -2.8134   23.7969 H   0  0  0  0  0  0  0  0  0  0  0  0
    8.5136   -3.0170   24.0827 H   0  0  0  0  0  0  0  0  0  0  0  0
    7.6959   -3.9933   22.8465 H   0  0  0  0  0  0  0  0  0  0  0  0
  1  2  1  0
  2  3  1  0
  3  4  1  0
  4  5  1  0
  5  6  2  0
  6  7  1  0
  7  8  2  0
  8  9  1  0
  9 10  2  0
 10 11  1  0
 11 12  2  0
 12 13  1  0
 13 14  2  0
 13 15  1  0
 12 16  1  0
 11 17  1  0
 10 18  1  0
  8 19  1  0
  6 20  1  0
  4 21  1  0
 21 22  2  0
 21 23  1  0
 23 24  1  1
 24 25  1  0
 25 26  1  0
 26 27  1  0
 27 28  2  0
 28 29  1  0
 29 30  2  0
 30 31  1  0
 31 32  2  0
 31 33  1  0
 29 34  1  0
 28 35  1  0
 26 36  1  0
 26 37  1  0
 25 38  1  0
 38 39  2  0
 38 40  1  0
 40 41  2  0
 41 42  1  0
 42 43  2  0
 43 44  1  0
 43 45  1  0
 45 46  2  0
 45 47  1  0
 42 48  1  0
 41 49  1  0
 24 50  1  0
 24 51  1  0
  3 52  1  0
  3 53  1  0
  2 54  1  6
  1 55  1  0
  1 56  1  0
  1 57  1  0
 23  2  1  0
 32 27  1  0
 46 40  1  0
 14  5  1  0
 46 23  1  0
 14  9  1  0
M  END
>  <cnnaffinities>  (59) 
[6.59585]

>  <score>  (59) 
6.59585

>  <index>  (59) 
58

>  <Smiles>  (59) 
C([C@]1(C(N(c2c(nc(c3c(c(c(c(c23)[H])[H])[H])[H])[H])[H])C(=O)[C@]21C(N(C(c1c(c(nc(n1)[H])[H])[H])([H])[H])C(=O)c1c(c(c(F)c(c21)[H])[H])[H])([H])[H])([H])[H])[H])([H])([H])[H]

>  <h>  (59) 
<NA>

>  <Training>  (59) 
True

>  <Success>  (59) 
True

>  <enamine_searched>  (59) 
False

>  <enamine_id>  (59) 
nan

$$$$

     RDKit          3D

 60 65  0  0  0  0  0  0  0  0999 V2000
    7.5002   -5.2894   23.5800 C   0  0  0  0  0  0  0  0  0  0  0  0
    7.7720   -4.2476   22.6765 O   0  0  0  0  0  0  0  0  0  0  0  0
    7.7683   -2.9936   23.3234 C   0  0  0  0  0  0  0  0  0  0  0  0
    8.0146   -1.9179   22.2695 C   0  0  1  0  0  0  0  0  0  0  0  0
    6.8818   -1.8076   21.2350 C   0  0  0  0  0  0  0  0  0  0  0  0
    6.9228   -0.4151   20.8346 N   0  0  0  0  0  0  0  0  0  0  0  0
    6.1412    0.1058   19.7740 C   0  0  0  0  0  0  0  0  0  0  0  0
    6.4459   -0.2294   18.4768 C   0  0  0  0  0  0  0  0  0  0  0  0
    5.7785    0.2221   17.3867 N   0  0  0  0  0  0  0  0  0  0  0  0
    4.7584    1.0202   17.5979 C   0  0  0  0  0  0  0  0  0  0  0  0
    4.3102    1.4152   18.8910 C   0  0  0  0  0  0  0  0  0  0  0  0
    3.1817    2.2631   19.0544 C   0  0  0  0  0  0  0  0  0  0  0  0
    2.7441    2.6050   20.3052 C   0  0  0  0  0  0  0  0  0  0  0  0
    3.4140    2.1125   21.4484 C   0  0  0  0  0  0  0  0  0  0  0  0
    4.5114    1.2989   21.3162 C   0  0  0  0  0  0  0  0  0  0  0  0
    5.0039    0.9419   20.0252 C   0  0  0  0  0  0  0  0  0  0  0  0
    5.0146    0.9298   22.2050 H   0  0  0  0  0  0  0  0  0  0  0  0
    3.0631    2.3883   22.4393 H   0  0  0  0  0  0  0  0  0  0  0  0
    1.8861    3.2619   20.4284 H   0  0  0  0  0  0  0  0  0  0  0  0
    2.6822    2.6330   18.1631 H   0  0  0  0  0  0  0  0  0  0  0  0
    4.2221    1.3855   16.7218 H   0  0  0  0  0  0  0  0  0  0  0  0
    7.2938   -0.8843   18.2749 H   0  0  0  0  0  0  0  0  0  0  0  0
    7.6577    0.3935   21.6712 C   0  0  0  0  0  0  0  0  0  0  0  0
    7.7497    1.5965   21.5357 O   0  0  0  0  0  0  0  0  0  0  0  0
    8.2458   -0.4632   22.7987 C   0  0  1  0  0  0  0  0  0  0  0  0
    7.4339   -0.1104   24.0698 C   0  0  0  0  0  0  0  0  0  0  0  0
    8.0348   -0.5986   25.2960 N   0  0  0  0  0  0  0  0  0  0  0  0
    7.1811   -0.8940   26.4368 C   0  0  0  0  0  0  0  0  0  0  0  0
    6.8529   -2.3538   26.5819 C   0  0  0  0  0  0  0  0  0  0  0  0
    5.6879   -2.9110   26.3288 N   0  0  0  0  0  0  0  0  0  0  0  0
    5.8435   -4.2360   26.6646 C   0  0  0  0  0  0  0  0  0  0  0  0
    7.1180   -4.4857   27.1053 C   0  0  0  0  0  0  0  0  0  0  0  0
    7.7609   -3.2693   27.0181 N   0  0  0  0  0  0  0  0  0  0  0  0
    8.6970   -3.0410   27.3349 H   0  0  0  0  0  0  0  0  0  0  0  0
    7.6133   -5.3914   27.4361 H   0  0  0  0  0  0  0  0  0  0  0  0
    5.0182   -4.9278   26.5438 H   0  0  0  0  0  0  0  0  0  0  0  0
    7.7002   -0.5561   27.3402 H   0  0  0  0  0  0  0  0  0  0  0  0
    6.2445   -0.3387   26.3295 H   0  0  0  0  0  0  0  0  0  0  0  0
    9.3778   -0.6746   25.4627 C   0  0  0  0  0  0  0  0  0  0  0  0
    9.8933   -1.0895   26.4846 O   0  0  0  0  0  0  0  0  0  0  0  0
   10.2280   -0.2631   24.3348 C   0  0  0  0  0  0  0  0  0  0  0  0
   11.5751   -0.0929   24.6236 C   0  0  0  0  0  0  0  0  0  0  0  0
   12.4619    0.1653   23.6118 C   0  0  0  0  0  0  0  0  0  0  0  0
   11.9749    0.1708   22.3054 C   0  0  0  0  0  0  0  0  0  0  0  0
   13.2232    0.2182   21.1047 Cl  0  0  0  0  0  0  0  0  0  0  0  0
   10.6198    0.0499   22.0063 C   0  0  0  0  0  0  0  0  0  0  0  0
    9.7111   -0.1652   23.0515 C   0  0  0  0  0  0  0  0  0  0  0  0
   10.2493    0.0973   20.9875 H   0  0  0  0  0  0  0  0  0  0  0  0
   13.5204    0.3028   23.8110 H   0  0  0  0  0  0  0  0  0  0  0  0
   11.8693   -0.2170   25.6564 H   0  0  0  0  0  0  0  0  0  0  0  0
    6.4296   -0.5445   24.0200 H   0  0  0  0  0  0  0  0  0  0  0  0
    7.3263    0.9810   24.0954 H   0  0  0  0  0  0  0  0  0  0  0  0
    7.0328   -2.4468   20.3653 H   0  0  0  0  0  0  0  0  0  0  0  0
    5.9012   -2.0642   21.6601 H   0  0  0  0  0  0  0  0  0  0  0  0
    8.9295   -2.2075   21.7393 H   0  0  0  0  0  0  0  0  0  0  0  0
    6.8104   -2.8445   23.8472 H   0  0  0  0  0  0  0  0  0  0  0  0
    8.5675   -2.9602   24.0775 H   0  0  0  0  0  0  0  0  0  0  0  0
    8.2182   -5.3044   24.4155 H   0  0  0  0  0  0  0  0  0  0  0  0
    6.4862   -5.2046   23.9969 H   0  0  0  0  0  0  0  0  0  0  0  0
    7.5759   -6.2330   23.0343 H   0  0  0  0  0  0  0  0  0  0  0  0
  1  2  1  0
  2  3  1  0
  3  4  1  0
  4  5  1  0
  5  6  1  0
  6  7  1  0
  7  8  2  0
  8  9  1  0
  9 10  2  0
 10 11  1  0
 11 12  2  0
 12 13  1  0
 13 14  2  0
 14 15  1  0
 15 16  2  0
 15 17  1  0
 14 18  1  0
 13 19  1  0
 12 20  1  0
 10 21  1  0
  8 22  1  0
  6 23  1  0
 23 24  2  0
 23 25  1  0
 25 26  1  1
 26 27  1  0
 27 28  1  0
 28 29  1  0
 29 30  2  0
 30 31  1  0
 31 32  2  0
 32 33  1  0
 33 34  1  0
 32 35  1  0
 31 36  1  0
 28 37  1  0
 28 38  1  0
 27 39  1  0
 39 40  2  0
 39 41  1  0
 41 42  2  0
 42 43  1  0
 43 44  2  0
 44 45  1  0
 44 46  1  0
 46 47  2  0
 46 48  1  0
 43 49  1  0
 42 50  1  0
 26 51  1  0
 26 52  1  0
  5 53  1  0
  5 54  1  0
  4 55  1  6
  3 56  1  0
  3 57  1  0
  1 58  1  0
  1 59  1  0
  1 60  1  0
 25  4  1  0
 33 29  1  0
 47 41  1  0
 16  7  1  0
 47 25  1  0
 16 11  1  0
M  END
>  <cnnaffinities>  (60) 
[6.57744]

>  <score>  (60) 
6.57744

>  <index>  (60) 
59

>  <Smiles>  (60) 
C(OC([C@]1(C(N(c2c(nc(c3c(c(c(c(c23)[H])[H])[H])[H])[H])[H])C(=O)[C@]21C(N(C(c1nc(c(n1[H])[H])[H])([H])[H])C(=O)c1c(c(c(Cl)c(c21)[H])[H])[H])([H])[H])([H])[H])[H])([H])[H])([H])([H])[H]

>  <h>  (60) 
<NA>

>  <Training>  (60) 
True

>  <Success>  (60) 
True

>  <enamine_searched>  (60) 
False

>  <enamine_id>  (60) 
nan

$$$$

     RDKit          3D

 38 41  0  0  0  0  0  0  0  0999 V2000
    5.1012   -1.9811   21.3444 O   0  0  0  0  0  0  0  0  0  0  0  0
    6.2908   -1.7686   21.5066 C   0  0  0  0  0  0  0  0  0  0  0  0
    6.9405   -0.5050   20.8950 C   0  0  0  0  0  0  0  0  0  0  0  0
    6.1178    0.0878   19.7711 C   0  0  0  0  0  0  0  0  0  0  0  0
    6.4218   -0.2113   18.4672 C   0  0  0  0  0  0  0  0  0  0  0  0
    5.7581    0.2364   17.3676 N   0  0  0  0  0  0  0  0  0  0  0  0
    4.7356    1.0318   17.5762 C   0  0  0  0  0  0  0  0  0  0  0  0
    4.2867    1.4215   18.8686 C   0  0  0  0  0  0  0  0  0  0  0  0
    3.1642    2.2745   19.0420 C   0  0  0  0  0  0  0  0  0  0  0  0
    2.7458    2.6239   20.2982 C   0  0  0  0  0  0  0  0  0  0  0  0
    3.4323    2.1329   21.4307 C   0  0  0  0  0  0  0  0  0  0  0  0
    4.5236    1.3096   21.2880 C   0  0  0  0  0  0  0  0  0  0  0  0
    4.9867    0.9331   19.9992 C   0  0  0  0  0  0  0  0  0  0  0  0
    5.0282    0.9272   22.1686 H   0  0  0  0  0  0  0  0  0  0  0  0
    3.0920    2.4126   22.4227 H   0  0  0  0  0  0  0  0  0  0  0  0
    1.8880    3.2774   20.4331 H   0  0  0  0  0  0  0  0  0  0  0  0
    2.6455    2.6464   18.1605 H   0  0  0  0  0  0  0  0  0  0  0  0
    4.1992    1.4000   16.6995 H   0  0  0  0  0  0  0  0  0  0  0  0
    7.2635   -0.8654   18.2461 H   0  0  0  0  0  0  0  0  0  0  0  0
    7.0906    0.2427   21.6853 H   0  0  0  0  0  0  0  0  0  0  0  0
    7.9396   -0.7545   20.5094 H   0  0  0  0  0  0  0  0  0  0  0  0
    7.0806   -2.6641   22.2009 N   0  0  0  0  0  0  0  0  0  0  0  0
    8.4405   -2.3755   22.6499 C   0  0  0  0  0  0  0  0  0  0  0  0
    8.7623   -3.0429   23.9890 C   0  0  0  0  0  0  0  0  0  0  0  0
    8.3918   -4.4905   23.9424 C   0  0  0  0  0  0  0  0  0  0  0  0
    9.0896   -5.7451   24.9109 S   0  0  0  0  0  0  0  0  0  0  0  0
    8.0200   -6.9156   24.2258 C   0  0  0  0  0  0  0  0  0  0  0  0
    7.1772   -6.3630   23.3073 C   0  0  0  0  0  0  0  0  0  0  0  0
    7.3984   -4.9575   23.1435 C   0  0  0  0  0  0  0  0  0  0  0  0
    6.5955   -4.0493   22.2515 C   0  0  0  0  0  0  0  0  0  0  0  0
    5.5516   -4.0569   22.5843 H   0  0  0  0  0  0  0  0  0  0  0  0
    6.5698   -4.4938   21.2466 H   0  0  0  0  0  0  0  0  0  0  0  0
    6.4167   -6.9311   22.7774 H   0  0  0  0  0  0  0  0  0  0  0  0
    8.0712   -7.9464   24.5505 H   0  0  0  0  0  0  0  0  0  0  0  0
    9.8202   -2.9130   24.2326 H   0  0  0  0  0  0  0  0  0  0  0  0
    8.1976   -2.5541   24.7924 H   0  0  0  0  0  0  0  0  0  0  0  0
    9.1759   -2.7092   21.9062 H   0  0  0  0  0  0  0  0  0  0  0  0
    8.5555   -1.2950   22.7633 H   0  0  0  0  0  0  0  0  0  0  0  0
  1  2  2  0
  2  3  1  0
  3  4  1  0
  4  5  2  0
  5  6  1  0
  6  7  2  0
  7  8  1  0
  8  9  2  0
  9 10  1  0
 10 11  2  0
 11 12  1  0
 12 13  2  0
 12 14  1  0
 11 15  1  0
 10 16  1  0
  9 17  1  0
  7 18  1  0
  5 19  1  0
  3 20  1  0
  3 21  1  0
  2 22  1  0
 22 23  1  0
 23 24  1  0
 24 25  1  0
 25 26  1  0
 26 27  1  0
 27 28  2  0
 28 29  1  0
 29 30  1  0
 30 31  1  0
 30 32  1  0
 28 33  1  0
 27 34  1  0
 24 35  1  0
 24 36  1  0
 23 37  1  0
 23 38  1  0
 13  4  1  0
 30 22  1  0
 13  8  1  0
 29 25  2  0
M  END
>  <cnnaffinities>  (61) 
[5.39628, 5.30356]

>  <score>  (61) 
5.39628

>  <index>  (61) 
60

>  <Smiles>  (61) 
O=C(C(c1c(nc(c2c(c(c(c(c12)[H])[H])[H])[H])[H])[H])([H])[H])N1C(C(c2sc(c(c2C1([H])[H])[H])[H])([H])[H])([H])[H]

>  <h>  (61) 
<NA>

>  <Training>  (61) 
True

>  <Success>  (61) 
True

>  <enamine_searched>  (61) 
False

>  <enamine_id>  (61) 
nan

$$$$

     RDKit          3D

 64 70  0  0  0  0  0  0  0  0999 V2000
    9.7892   -0.9502   26.5450 O   0  0  0  0  0  0  0  0  0  0  0  0
    9.2345   -0.6089   25.5168 C   0  0  0  0  0  0  0  0  0  0  0  0
   10.1231   -0.2766   24.3882 C   0  0  0  0  0  0  0  0  0  0  0  0
   11.4799   -0.1683   24.6930 C   0  0  0  0  0  0  0  0  0  0  0  0
   12.3824    0.0173   23.6768 C   0  0  0  0  0  0  0  0  0  0  0  0
   11.9230    0.0557   22.3617 C   0  0  0  0  0  0  0  0  0  0  0  0
   13.1888    0.2329   21.1868 Cl  0  0  0  0  0  0  0  0  0  0  0  0
   10.5732   -0.0604   22.0500 C   0  0  0  0  0  0  0  0  0  0  0  0
    9.6397   -0.2082   23.0923 C   0  0  0  0  0  0  0  0  0  0  0  0
    8.1568   -0.4518   22.8411 C   0  0  1  0  0  0  0  0  0  0  0  0
    7.3368   -0.0240   24.0938 C   0  0  0  0  0  0  0  0  0  0  0  0
    7.8795   -0.5530   25.3379 N   0  0  0  0  0  0  0  0  0  0  0  0
    7.0145   -0.5404   26.5181 C   0  0  0  0  0  0  0  0  0  0  0  0
    6.9672    0.7872   27.2562 C   0  0  0  0  0  0  0  0  0  0  0  0
    7.7237    1.0345   28.3809 C   0  0  0  0  0  0  0  0  0  0  0  0
    7.6364    2.3068   28.9506 C   0  0  0  0  0  0  0  0  0  0  0  0
    6.8639    3.2769   28.4785 N   0  0  0  0  0  0  0  0  0  0  0  0
    6.1070    3.0405   27.4145 N   0  0  0  0  0  0  0  0  0  0  0  0
    6.1531    1.8491   26.8304 C   0  0  0  0  0  0  0  0  0  0  0  0
    5.4823    1.7508   25.9761 H   0  0  0  0  0  0  0  0  0  0  0  0
    8.2219    2.5824   29.8258 H   0  0  0  0  0  0  0  0  0  0  0  0
    8.3729    0.2665   28.8024 H   0  0  0  0  0  0  0  0  0  0  0  0
    6.0032   -0.7912   26.1759 H   0  0  0  0  0  0  0  0  0  0  0  0
    7.3555   -1.3247   27.1983 H   0  0  0  0  0  0  0  0  0  0  0  0
    6.3040   -0.3911   23.9901 H   0  0  0  0  0  0  0  0  0  0  0  0
    7.3105    1.0771   24.1170 H   0  0  0  0  0  0  0  0  0  0  0  0
    7.6471    0.3831   21.6638 C   0  0  0  0  0  0  0  0  0  0  0  0
    7.8150    1.5760   21.4860 O   0  0  0  0  0  0  0  0  0  0  0  0
    6.9139   -0.4279   20.8253 N   0  0  0  0  0  0  0  0  0  0  0  0
    6.1401    0.1085   19.7670 C   0  0  0  0  0  0  0  0  0  0  0  0
    6.4457   -0.2241   18.4731 C   0  0  0  0  0  0  0  0  0  0  0  0
    5.7709    0.2226   17.3856 N   0  0  0  0  0  0  0  0  0  0  0  0
    4.7517    1.0204   17.5978 C   0  0  0  0  0  0  0  0  0  0  0  0
    4.3024    1.4192   18.8887 C   0  0  0  0  0  0  0  0  0  0  0  0
    3.1733    2.2660   19.0582 C   0  0  0  0  0  0  0  0  0  0  0  0
    2.7436    2.6087   20.3098 C   0  0  0  0  0  0  0  0  0  0  0  0
    3.4199    2.1139   21.4488 C   0  0  0  0  0  0  0  0  0  0  0  0
    4.5147    1.2996   21.3110 C   0  0  0  0  0  0  0  0  0  0  0  0
    5.0026    0.9447   20.0195 C   0  0  0  0  0  0  0  0  0  0  0  0
    5.0236    0.9258   22.1952 H   0  0  0  0  0  0  0  0  0  0  0  0
    3.0749    2.3934   22.4386 H   0  0  0  0  0  0  0  0  0  0  0  0
    1.8872    3.2657   20.4367 H   0  0  0  0  0  0  0  0  0  0  0  0
    2.6709    2.6360   18.1678 H   0  0  0  0  0  0  0  0  0  0  0  0
    4.2228    1.3854   16.7175 H   0  0  0  0  0  0  0  0  0  0  0  0
    7.2874   -0.8837   18.2679 H   0  0  0  0  0  0  0  0  0  0  0  0
    6.7531   -1.7883   21.3109 C   0  0  0  0  0  0  0  0  0  0  0  0
    7.8706   -1.9208   22.3478 C   0  0  2  0  0  0  0  0  0  0  0  0
    7.6537   -3.0333   23.3900 C   0  0  0  0  0  0  0  0  0  0  0  0
    6.3210   -3.1181   23.9589 N   0  0  0  0  0  0  0  0  0  0  0  0
    5.3571   -3.9065   23.4224 C   0  0  0  0  0  0  0  0  0  0  0  0
    5.5076   -4.5990   22.3244 N   0  0  0  0  0  0  0  0  0  0  0  0
    4.3737   -5.2797   21.9742 N   0  0  0  0  0  0  0  0  0  0  0  0
    3.4007   -5.0884   22.7975 C   0  0  0  0  0  0  0  0  0  0  0  0
    3.7650   -4.0262   24.1260 S   0  0  0  0  0  0  0  0  0  0  0  0
    2.4305   -5.5514   22.6721 H   0  0  0  0  0  0  0  0  0  0  0  0
    6.1732   -2.7283   24.8768 H   0  0  0  0  0  0  0  0  0  0  0  0
    7.8967   -4.0016   22.9387 H   0  0  0  0  0  0  0  0  0  0  0  0
    8.3380   -2.8626   24.2212 H   0  0  0  0  0  0  0  0  0  0  0  0
    8.7983   -2.1904   21.8294 H   0  0  0  0  0  0  0  0  0  0  0  0
    6.8520   -2.5099   20.4974 H   0  0  0  0  0  0  0  0  0  0  0  0
    5.7631   -1.9393   21.7618 H   0  0  0  0  0  0  0  0  0  0  0  0
   10.2152   -0.0390   21.0269 H   0  0  0  0  0  0  0  0  0  0  0  0
   13.4465    0.1030   23.8569 H   0  0  0  0  0  0  0  0  0  0  0  0
   11.7896   -0.2672   25.7292 H   0  0  0  0  0  0  0  0  0  0  0  0
  1  2  2  0
  2  3  1  0
  3  4  2  0
  4  5  1  0
  5  6  2  0
  6  7  1  0
  6  8  1  0
  8  9  2  0
  9 10  1  0
 10 11  1  1
 11 12  1  0
 12 13  1  0
 13 14  1  0
 14 15  2  0
 15 16  1  0
 16 17  2  0
 17 18  1  0
 18 19  2  0
 19 20  1  0
 16 21  1  0
 15 22  1  0
 13 23  1  0
 13 24  1  0
 11 25  1  0
 11 26  1  0
 10 27  1  0
 27 28  2  0
 27 29  1  0
 29 30  1  0
 30 31  2  0
 31 32  1  0
 32 33  2  0
 33 34  1  0
 34 35  2  0
 35 36  1  0
 36 37  2  0
 37 38  1  0
 38 39  2  0
 38 40  1  0
 37 41  1  0
 36 42  1  0
 35 43  1  0
 33 44  1  0
 31 45  1  0
 29 46  1  0
 46 47  1  0
 47 48  1  0
 48 49  1  0
 49 50  1  0
 50 51  2  0
 51 52  1  0
 52 53  2  0
 53 54  1  0
 53 55  1  0
 49 56  1  0
 48 57  1  0
 48 58  1  0
 47 59  1  6
 46 60  1  0
 46 61  1  0
  8 62  1  0
  5 63  1  0
  4 64  1  0
 12  2  1  0
 19 14  1  0
 39 30  1  0
 54 50  1  0
  9  3  1  0
 47 10  1  0
 39 34  1  0
M  END
>  <cnnaffinities>  (62) 
[6.83098, 6.9142, 7.05439, 7.09279]

>  <score>  (62) 
6.83098

>  <index>  (62) 
61

>  <Smiles>  (62) 
O=C1c2c(c(c(Cl)c(c2[C@@]2(C(N1C(c1c(c(nnc1[H])[H])[H])([H])[H])([H])[H])C(=O)N(c1c(nc(c3c(c(c(c(c13)[H])[H])[H])[H])[H])[H])C([C@@]2(C(N(c1nnc(s1)[H])[H])([H])[H])[H])([H])[H])[H])[H])[H]

>  <h>  (62) 
<NA>

>  <Training>  (62) 
True

>  <Success>  (62) 
True

>  <enamine_searched>  (62) 
False

>  <enamine_id>  (62) 
nan

$$$$

     RDKit          3D

 70 76  0  0  0  0  0  0  0  0999 V2000
    8.0223   -3.2194   22.9193 C   0  0  0  0  0  0  0  0  0  0  0  0
    8.0169   -2.0714   21.9234 C   0  0  1  0  0  0  0  0  0  0  0  0
    6.6718   -1.8046   21.2403 C   0  0  0  0  0  0  0  0  0  0  0  0
    6.9051   -0.5002   20.6481 N   0  0  0  0  0  0  0  0  0  0  0  0
    6.1561    0.0530   19.5818 C   0  0  0  0  0  0  0  0  0  0  0  0
    6.4939   -0.2406   18.2865 C   0  0  0  0  0  0  0  0  0  0  0  0
    5.8448    0.2413   17.1954 N   0  0  0  0  0  0  0  0  0  0  0  0
    4.8315    1.0449   17.4117 C   0  0  0  0  0  0  0  0  0  0  0  0
    4.3648    1.4199   18.7052 C   0  0  0  0  0  0  0  0  0  0  0  0
    3.2515    2.2818   18.8832 C   0  0  0  0  0  0  0  0  0  0  0  0
    2.8349    2.6278   20.1375 C   0  0  0  0  0  0  0  0  0  0  0  0
    3.5094    2.1317   21.2749 C   0  0  0  0  0  0  0  0  0  0  0  0
    4.5884    1.2947   21.1307 C   0  0  0  0  0  0  0  0  0  0  0  0
    5.0439    0.9173   19.8369 C   0  0  0  0  0  0  0  0  0  0  0  0
    5.1051    0.9160   22.0073 H   0  0  0  0  0  0  0  0  0  0  0  0
    3.1802    2.4235   22.2668 H   0  0  0  0  0  0  0  0  0  0  0  0
    1.9901    3.2986   20.2712 H   0  0  0  0  0  0  0  0  0  0  0  0
    2.7538    2.6677   17.9978 H   0  0  0  0  0  0  0  0  0  0  0  0
    4.3191    1.4418   16.5352 H   0  0  0  0  0  0  0  0  0  0  0  0
    7.3414   -0.8979   18.0962 H   0  0  0  0  0  0  0  0  0  0  0  0
    7.9785    0.1742   21.2035 C   0  0  0  0  0  0  0  0  0  0  0  0
    8.4111    1.2214   20.7717 O   0  0  0  0  0  0  0  0  0  0  0  0
    8.4285   -0.6488   22.4310 C   0  0  1  0  0  0  0  0  0  0  0  0
    7.6059   -0.1419   23.6351 C   0  0  0  0  0  0  0  0  0  0  0  0
    7.9860   -0.8152   24.8668 N   0  0  0  0  0  0  0  0  0  0  0  0
    6.9619   -0.7691   25.9062 C   0  0  0  0  0  0  0  0  0  0  0  0
    7.0046   -1.8454   26.9976 C   0  0  0  0  0  0  0  0  0  0  0  0
    7.2405   -3.2378   26.4788 N   0  0  2  0  0  4  0  0  0  0  0  0
    6.3341   -4.3014   27.0634 C   0  0  0  0  0  0  0  0  0  0  0  0
    7.1921   -5.0655   28.0597 C   0  0  0  0  0  0  0  0  0  0  0  0
    8.5922   -5.1001   27.4466 C   0  0  0  0  0  0  0  0  0  0  0  0
    9.7761   -5.4012   28.3732 C   0  0  0  0  0  0  0  0  0  0  0  0
   10.5292   -5.9216   27.2684 O   0  0  0  0  0  0  0  0  0  0  0  0
    9.2749   -6.2414   26.6517 C   0  0  0  0  0  0  0  0  0  0  0  0
    8.9675   -7.2381   26.9693 H   0  0  0  0  0  0  0  0  0  0  0  0
    9.2896   -6.1563   25.5642 H   0  0  0  0  0  0  0  0  0  0  0  0
    9.5248   -6.2163   29.0717 H   0  0  0  0  0  0  0  0  0  0  0  0
   10.2808   -4.6063   28.9184 H   0  0  0  0  0  0  0  0  0  0  0  0
    8.6591   -3.8067   26.6006 C   0  0  0  0  0  0  0  0  0  0  0  0
    8.9712   -4.0531   25.5823 H   0  0  0  0  0  0  0  0  0  0  0  0
    9.3336   -3.0354   26.9640 H   0  0  0  0  0  0  0  0  0  0  0  0
    7.2270   -4.4859   28.9899 H   0  0  0  0  0  0  0  0  0  0  0  0
    6.7645   -6.0350   28.3039 H   0  0  0  0  0  0  0  0  0  0  0  0
    5.9907   -4.9356   26.2442 H   0  0  0  0  0  0  0  0  0  0  0  0
    5.4724   -3.8268   27.5394 H   0  0  0  0  0  0  0  0  0  0  0  0
    7.0358   -3.1595   25.4777 H   0  0  0  0  0  0  0  0  0  0  0  0
    6.0204   -1.8265   27.4713 H   0  0  0  0  0  0  0  0  0  0  0  0
    7.7260   -1.5963   27.7643 H   0  0  0  0  0  0  0  0  0  0  0  0
    6.0144   -0.8820   25.3698 H   0  0  0  0  0  0  0  0  0  0  0  0
    6.9430    0.2174   26.3882 H   0  0  0  0  0  0  0  0  0  0  0  0
    9.3126   -0.7728   25.2175 C   0  0  0  0  0  0  0  0  0  0  0  0
    9.7083   -0.9044   26.3644 O   0  0  0  0  0  0  0  0  0  0  0  0
   10.3001   -0.5641   24.1174 C   0  0  0  0  0  0  0  0  0  0  0  0
   11.6464   -0.4326   24.4620 C   0  0  0  0  0  0  0  0  0  0  0  0
   12.5926   -0.2232   23.4853 C   0  0  0  0  0  0  0  0  0  0  0  0
   12.1798   -0.1771   22.1548 C   0  0  0  0  0  0  0  0  0  0  0  0
   13.4341    0.1203   20.9937 Cl  0  0  0  0  0  0  0  0  0  0  0  0
   10.8573   -0.3610   21.7855 C   0  0  0  0  0  0  0  0  0  0  0  0
    9.8878   -0.5155   22.7820 C   0  0  0  0  0  0  0  0  0  0  0  0
   10.5601   -0.3557   20.7421 H   0  0  0  0  0  0  0  0  0  0  0  0
   13.6456   -0.0928   23.7187 H   0  0  0  0  0  0  0  0  0  0  0  0
   11.9243   -0.4967   25.5083 H   0  0  0  0  0  0  0  0  0  0  0  0
    6.5350   -0.3021   23.4669 H   0  0  0  0  0  0  0  0  0  0  0  0
    7.7679    0.9450   23.7050 H   0  0  0  0  0  0  0  0  0  0  0  0
    6.4053   -2.5414   20.4769 H   0  0  0  0  0  0  0  0  0  0  0  0
    5.8529   -1.7786   21.9826 H   0  0  0  0  0  0  0  0  0  0  0  0
    8.7470   -2.3012   21.1338 H   0  0  0  0  0  0  0  0  0  0  0  0
    7.8401   -4.1720   22.4090 H   0  0  0  0  0  0  0  0  0  0  0  0
    8.9872   -3.2795   23.4379 H   0  0  0  0  0  0  0  0  0  0  0  0
    7.2428   -3.0868   23.6771 H   0  0  0  0  0  0  0  0  0  0  0  0
  1  2  1  0
  2  3  1  0
  3  4  1  0
  4  5  1  0
  5  6  2  0
  6  7  1  0
  7  8  2  0
  8  9  1  0
  9 10  2  0
 10 11  1  0
 11 12  2  0
 12 13  1  0
 13 14  2  0
 13 15  1  0
 12 16  1  0
 11 17  1  0
 10 18  1  0
  8 19  1  0
  6 20  1  0
  4 21  1  0
 21 22  2  0
 21 23  1  0
 23 24  1  1
 24 25  1  0
 25 26  1  0
 26 27  1  0
 27 28  1  0
 28 29  1  0
 29 30  1  0
 30 31  1  0
 31 32  1  0
 32 33  1  0
 33 34  1  0
 34 35  1  0
 34 36  1  0
 32 37  1  0
 32 38  1  0
 31 39  1  0
 39 40  1  0
 39 41  1  0
 30 42  1  0
 30 43  1  0
 29 44  1  0
 29 45  1  0
 28 46  1  6
 27 47  1  0
 27 48  1  0
 26 49  1  0
 26 50  1  0
 25 51  1  0
 51 52  2  0
 51 53  1  0
 53 54  2  0
 54 55  1  0
 55 56  2  0
 56 57  1  0
 56 58  1  0
 58 59  2  0
 58 60  1  0
 55 61  1  0
 54 62  1  0
 24 63  1  0
 24 64  1  0
  3 65  1  0
  3 66  1  0
  2 67  1  6
  1 68  1  0
  1 69  1  0
  1 70  1  0
 23  2  1  0
 39 28  1  0
 59 53  1  0
 14  5  1  0
 59 23  1  0
 14  9  1  0
 34 31  1  0
M  CHG  1  28   1
M  END
>  <cnnaffinities>  (63) 
[6.49357]

>  <score>  (63) 
6.49357

>  <index>  (63) 
62

>  <Smiles>  (63) 
C([C@]1(C(N(c2c(nc(c3c(c(c(c(c23)[H])[H])[H])[H])[H])[H])C(=O)[C@]21C(N(C(C([N@@+]1(C(C(C3(C(OC3([H])[H])([H])[H])C1([H])[H])([H])[H])([H])[H])[H])([H])[H])([H])[H])C(=O)c1c(c(c(Cl)c(c21)[H])[H])[H])([H])[H])([H])[H])[H])([H])([H])[H]

>  <h>  (63) 
<NA>

>  <Training>  (63) 
True

>  <Success>  (63) 
True

>  <enamine_searched>  (63) 
False

>  <enamine_id>  (63) 
nan

$$$$

     RDKit          3D

 56 61  0  0  0  0  0  0  0  0999 V2000
   12.5427    2.4199   22.2281 C   0  0  0  0  0  0  0  0  0  0  0  0
   12.5409    1.0217   22.6514 N   0  0  0  0  0  0  0  0  0  0  0  0
   12.9774    0.5014   23.8205 C   0  0  0  0  0  0  0  0  0  0  0  0
   12.7830   -0.8563   23.7824 C   0  0  0  0  0  0  0  0  0  0  0  0
   12.2382   -1.0774   22.5023 C   0  0  0  0  0  0  0  0  0  0  0  0
   11.8578   -2.4134   21.9451 C   0  0  0  0  0  0  0  0  0  0  0  0
   10.4953   -2.7962   22.2883 N   0  0  0  0  0  0  0  0  0  0  0  0
    9.3997   -2.5593   21.3679 C   0  0  0  0  0  0  0  0  0  0  0  0
    8.2005   -1.9205   22.1075 C   0  0  1  0  0  0  0  0  0  0  0  0
    8.5027   -0.4628   22.5550 C   0  0  0  0  0  0  0  0  0  0  0  0
    7.8833    0.4441   21.4907 C   0  0  0  0  0  0  0  0  0  0  0  0
    6.8897   -0.4106   20.8559 N   0  0  0  0  0  0  0  0  0  0  0  0
    6.1055    0.0422   19.7692 C   0  0  0  0  0  0  0  0  0  0  0  0
    6.4340   -0.2784   18.4765 C   0  0  0  0  0  0  0  0  0  0  0  0
    5.7898    0.2034   17.3816 N   0  0  0  0  0  0  0  0  0  0  0  0
    4.7808    1.0151   17.5909 C   0  0  0  0  0  0  0  0  0  0  0  0
    4.3196    1.4046   18.8816 C   0  0  0  0  0  0  0  0  0  0  0  0
    3.2031    2.2607   19.0543 C   0  0  0  0  0  0  0  0  0  0  0  0
    2.7837    2.5978   20.3119 C   0  0  0  0  0  0  0  0  0  0  0  0
    3.4627    2.1076   21.4499 C   0  0  0  0  0  0  0  0  0  0  0  0
    4.5515    1.2846   21.3093 C   0  0  0  0  0  0  0  0  0  0  0  0
    5.0025    0.9144   20.0149 C   0  0  0  0  0  0  0  0  0  0  0  0
    5.0666    0.9012   22.1839 H   0  0  0  0  0  0  0  0  0  0  0  0
    3.1214    2.3919   22.4396 H   0  0  0  0  0  0  0  0  0  0  0  0
    1.9314    3.2551   20.4410 H   0  0  0  0  0  0  0  0  0  0  0  0
    2.7027    2.6401   18.1665 H   0  0  0  0  0  0  0  0  0  0  0  0
    4.2628    1.4022   16.7117 H   0  0  0  0  0  0  0  0  0  0  0  0
    7.2712   -0.9449   18.2806 H   0  0  0  0  0  0  0  0  0  0  0  0
    7.0519   -1.7544   21.1108 C   0  0  0  0  0  0  0  0  0  0  0  0
    6.3849   -2.6381   20.6130 O   0  0  0  0  0  0  0  0  0  0  0  0
    8.6266    0.7845   20.7559 H   0  0  0  0  0  0  0  0  0  0  0  0
    7.4097    1.3324   21.9184 H   0  0  0  0  0  0  0  0  0  0  0  0
    9.5768   -0.2888   22.6371 H   0  0  0  0  0  0  0  0  0  0  0  0
    8.0489   -0.2880   23.5348 H   0  0  0  0  0  0  0  0  0  0  0  0
    7.8641   -2.8379   23.2639 C   0  0  0  0  0  0  0  0  0  0  0  0
    6.5651   -2.9248   23.7625 C   0  0  0  0  0  0  0  0  0  0  0  0
    6.2978   -3.7245   24.8617 C   0  0  0  0  0  0  0  0  0  0  0  0
    4.6943   -3.7428   25.5273 Cl  0  0  0  0  0  0  0  0  0  0  0  0
    7.2910   -4.4892   25.4719 C   0  0  0  0  0  0  0  0  0  0  0  0
    8.5804   -4.3981   24.9811 C   0  0  0  0  0  0  0  0  0  0  0  0
    8.8754   -3.5506   23.9155 C   0  0  0  0  0  0  0  0  0  0  0  0
   10.3034   -3.3677   23.5210 C   0  0  0  0  0  0  0  0  0  0  0  0
   11.2308   -3.6770   24.2589 O   0  0  0  0  0  0  0  0  0  0  0  0
    9.3913   -4.9774   25.4087 H   0  0  0  0  0  0  0  0  0  0  0  0
    7.0647   -5.1276   26.3217 H   0  0  0  0  0  0  0  0  0  0  0  0
    5.7573   -2.3816   23.2874 H   0  0  0  0  0  0  0  0  0  0  0  0
    9.7470   -1.8814   20.5817 H   0  0  0  0  0  0  0  0  0  0  0  0
    9.0849   -3.5162   20.9373 H   0  0  0  0  0  0  0  0  0  0  0  0
   11.9667   -2.4311   20.8570 H   0  0  0  0  0  0  0  0  0  0  0  0
   12.5125   -3.1739   22.3854 H   0  0  0  0  0  0  0  0  0  0  0  0
   12.0840    0.0581   21.8268 N   0  0  0  0  0  0  0  0  0  0  0  0
   12.9536   -1.6068   24.5525 H   0  0  0  0  0  0  0  0  0  0  0  0
   13.3773    1.1242   24.6000 H   0  0  0  0  0  0  0  0  0  0  0  0
   13.5675    2.8129   22.2274 H   0  0  0  0  0  0  0  0  0  0  0  0
   12.1081    2.4612   21.2272 H   0  0  0  0  0  0  0  0  0  0  0  0
   11.9344    3.0664   22.8711 H   0  0  0  0  0  0  0  0  0  0  0  0
  1  2  1  0
  2  3  1  0
  3  4  2  0
  4  5  1  0
  5  6  1  0
  6  7  1  0
  7  8  1  0
  9  8  1  6
  9 10  1  0
 10 11  1  0
 11 12  1  0
 12 13  1  0
 13 14  2  0
 14 15  1  0
 15 16  2  0
 16 17  1  0
 17 18  2  0
 18 19  1  0
 19 20  2  0
 20 21  1  0
 21 22  2  0
 21 23  1  0
 20 24  1  0
 19 25  1  0
 18 26  1  0
 16 27  1  0
 14 28  1  0
 12 29  1  0
 29 30  2  0
 11 31  1  0
 11 32  1  0
 10 33  1  0
 10 34  1  0
  9 35  1  0
 35 36  2  0
 36 37  1  0
 37 38  1  0
 37 39  2  0
 39 40  1  0
 40 41  2  0
 41 42  1  0
 42 43  2  0
 40 44  1  0
 39 45  1  0
 36 46  1  0
  8 47  1  0
  8 48  1  0
  6 49  1  0
  6 50  1  0
  5 51  2  0
  4 52  1  0
  3 53  1  0
  1 54  1  0
  1 55  1  0
  1 56  1  0
 51  2  1  0
 42  7  1  0
 29  9  1  0
 41 35  1  0
 22 13  1  0
 22 17  1  0
M  END
>  <cnnaffinities>  (64) 
[6.94092]

>  <score>  (64) 
6.94092

>  <index>  (64) 
63

>  <Smiles>  (64) 
C(n1c(c(c(C(N2C([C@]3(C(C(N(c4c(nc(c5c(c(c(c(c45)[H])[H])[H])[H])[H])[H])C3=O)([H])[H])([H])[H])c3c(c(Cl)c(c(c3C2=O)[H])[H])[H])([H])[H])([H])[H])n1)[H])[H])([H])([H])[H]

>  <h>  (64) 
<NA>

>  <Training>  (64) 
True

>  <Success>  (64) 
True

>  <enamine_searched>  (64) 
False

>  <enamine_id>  (64) 
nan

$$$$

     RDKit          3D

 66 71  0  0  0  0  0  0  0  0999 V2000
    7.7510   -3.0146   23.3132 C   0  0  0  0  0  0  0  0  0  0  0  0
    8.0175   -1.9205   22.2793 C   0  0  1  0  0  0  0  0  0  0  0  0
    6.8990   -1.7989   21.2322 C   0  0  0  0  0  0  0  0  0  0  0  0
    6.9301   -0.4047   20.8376 N   0  0  0  0  0  0  0  0  0  0  0  0
    6.1469    0.1153   19.7740 C   0  0  0  0  0  0  0  0  0  0  0  0
    6.4449   -0.2235   18.4764 C   0  0  0  0  0  0  0  0  0  0  0  0
    5.7722    0.2228   17.3884 N   0  0  0  0  0  0  0  0  0  0  0  0
    4.7521    1.0215   17.5968 C   0  0  0  0  0  0  0  0  0  0  0  0
    4.3032    1.4179   18.8899 C   0  0  0  0  0  0  0  0  0  0  0  0
    3.1746    2.2665   19.0558 C   0  0  0  0  0  0  0  0  0  0  0  0
    2.7426    2.6082   20.3089 C   0  0  0  0  0  0  0  0  0  0  0  0
    3.4147    2.1124   21.4467 C   0  0  0  0  0  0  0  0  0  0  0  0
    4.5091    1.2964   21.3107 C   0  0  0  0  0  0  0  0  0  0  0  0
    5.0019    0.9437   20.0214 C   0  0  0  0  0  0  0  0  0  0  0  0
    5.0166    0.9234   22.1933 H   0  0  0  0  0  0  0  0  0  0  0  0
    3.0715    2.3895   22.4393 H   0  0  0  0  0  0  0  0  0  0  0  0
    1.8862    3.2667   20.4346 H   0  0  0  0  0  0  0  0  0  0  0  0
    2.6731    2.6380   18.1658 H   0  0  0  0  0  0  0  0  0  0  0  0
    4.2211    1.3878   16.7171 H   0  0  0  0  0  0  0  0  0  0  0  0
    7.2880   -0.8811   18.2671 H   0  0  0  0  0  0  0  0  0  0  0  0
    7.6518    0.4054   21.6892 C   0  0  0  0  0  0  0  0  0  0  0  0
    7.7462    1.6061   21.5590 O   0  0  0  0  0  0  0  0  0  0  0  0
    8.2450   -0.4603   22.8189 C   0  0  1  0  0  0  0  0  0  0  0  0
    7.4463   -0.1134   24.1084 C   0  0  0  0  0  0  0  0  0  0  0  0
    8.0345   -0.6392   25.3263 N   0  0  0  0  0  0  0  0  0  0  0  0
    7.1370   -1.1096   26.3689 C   0  0  0  0  0  0  0  0  0  0  0  0
    6.3581    0.0136   27.0455 C   0  0  0  0  0  0  0  0  0  0  0  0
    7.2470    1.0276   27.6915 N   0  0  0  0  0  4  0  0  0  0  0  0
    7.8510    0.5385   28.9905 C   0  0  0  0  0  0  0  0  0  0  0  0
    8.6409    1.6405   29.6812 C   0  0  0  0  0  0  0  0  0  0  0  0
    7.8709    2.8045   29.8881 O   0  0  0  0  0  0  0  0  0  0  0  0
    7.3896    3.3182   28.6641 C   0  0  0  0  0  0  0  0  0  0  0  0
    6.5103    2.3177   27.9343 C   0  0  0  0  0  0  0  0  0  0  0  0
    5.6264    2.0992   28.5449 H   0  0  0  0  0  0  0  0  0  0  0  0
    6.1775    2.7226   26.9739 H   0  0  0  0  0  0  0  0  0  0  0  0
    6.8169    4.2166   28.9088 H   0  0  0  0  0  0  0  0  0  0  0  0
    8.2282    3.6033   28.0109 H   0  0  0  0  0  0  0  0  0  0  0  0
    8.9786    1.3105   30.6670 H   0  0  0  0  0  0  0  0  0  0  0  0
    9.5354    1.8794   29.0931 H   0  0  0  0  0  0  0  0  0  0  0  0
    8.4999   -0.3071   28.7680 H   0  0  0  0  0  0  0  0  0  0  0  0
    7.0388    0.2110   29.6502 H   0  0  0  0  0  0  0  0  0  0  0  0
    8.0129    1.1830   27.0013 H   0  0  0  0  0  0  0  0  0  0  0  0
    5.7345    0.5328   26.3068 H   0  0  0  0  0  0  0  0  0  0  0  0
    5.6869   -0.4069   27.8031 H   0  0  0  0  0  0  0  0  0  0  0  0
    6.4176   -1.8158   25.9413 H   0  0  0  0  0  0  0  0  0  0  0  0
    7.7295   -1.6509   27.0962 H   0  0  0  0  0  0  0  0  0  0  0  0
    9.3838   -0.6805   25.4865 C   0  0  0  0  0  0  0  0  0  0  0  0
    9.9376   -1.0253   26.5173 O   0  0  0  0  0  0  0  0  0  0  0  0
   10.2348   -0.2580   24.3495 C   0  0  0  0  0  0  0  0  0  0  0  0
   11.5835   -0.0575   24.6259 C   0  0  0  0  0  0  0  0  0  0  0  0
   12.4371    0.2217   23.5909 C   0  0  0  0  0  0  0  0  0  0  0  0
   11.9570    0.2213   22.2856 C   0  0  0  0  0  0  0  0  0  0  0  0
   13.2343    0.2748   21.1111 Cl  0  0  0  0  0  0  0  0  0  0  0  0
   10.6044    0.0714   22.0014 C   0  0  0  0  0  0  0  0  0  0  0  0
    9.7156   -0.1547   23.0633 C   0  0  0  0  0  0  0  0  0  0  0  0
   10.2094    0.1032   20.9942 H   0  0  0  0  0  0  0  0  0  0  0  0
   13.4940    0.3767   23.7458 H   0  0  0  0  0  0  0  0  0  0  0  0
   11.9275   -0.1655   25.6475 H   0  0  0  0  0  0  0  0  0  0  0  0
    6.4249   -0.5077   24.0352 H   0  0  0  0  0  0  0  0  0  0  0  0
    7.3892    0.9856   24.1571 H   0  0  0  0  0  0  0  0  0  0  0  0
    7.0636   -2.4313   20.3601 H   0  0  0  0  0  0  0  0  0  0  0  0
    5.9198   -2.0728   21.6506 H   0  0  0  0  0  0  0  0  0  0  0  0
    8.9482   -2.1648   21.7517 H   0  0  0  0  0  0  0  0  0  0  0  0
    6.8028   -2.8506   23.8369 H   0  0  0  0  0  0  0  0  0  0  0  0
    8.5419   -3.0556   24.0671 H   0  0  0  0  0  0  0  0  0  0  0  0
    7.6900   -3.9981   22.8371 H   0  0  0  0  0  0  0  0  0  0  0  0
  1  2  1  0
  2  3  1  0
  3  4  1  0
  4  5  1  0
  5  6  2  0
  6  7  1  0
  7  8  2  0
  8  9  1  0
  9 10  2  0
 10 11  1  0
 11 12  2  0
 12 13  1  0
 13 14  2  0
 13 15  1  0
 12 16  1  0
 11 17  1  0
 10 18  1  0
  8 19  1  0
  6 20  1  0
  4 21  1  0
 21 22  2  0
 21 23  1  0
 23 24  1  1
 24 25  1  0
 25 26  1  0
 26 27  1  0
 27 28  1  0
 28 29  1  0
 29 30  1  0
 30 31  1  0
 31 32  1  0
 32 33  1  0
 33 34  1  0
 33 35  1  0
 32 36  1  0
 32 37  1  0
 30 38  1  0
 30 39  1  0
 29 40  1  0
 29 41  1  0
 28 42  1  0
 27 43  1  0
 27 44  1  0
 26 45  1  0
 26 46  1  0
 25 47  1  0
 47 48  2  0
 47 49  1  0
 49 50  2  0
 50 51  1  0
 51 52  2  0
 52 53  1  0
 52 54  1  0
 54 55  2  0
 54 56  1  0
 51 57  1  0
 50 58  1  0
 24 59  1  0
 24 60  1  0
  3 61  1  0
  3 62  1  0
  2 63  1  6
  1 64  1  0
  1 65  1  0
  1 66  1  0
 23  2  1  0
 33 28  1  0
 55 49  1  0
 14  5  1  0
 55 23  1  0
 14  9  1  0
M  CHG  1  28   1
M  END
>  <cnnaffinities>  (65) 
[6.43957, 6.1329]

>  <score>  (65) 
6.43957

>  <index>  (65) 
64

>  <Smiles>  (65) 
C([C@]1(C(N(c2c(nc(c3c(c(c(c(c23)[H])[H])[H])[H])[H])[H])C(=O)[C@]21C(N(C(C([N+]1(C(C(OC(C1([H])[H])([H])[H])([H])[H])([H])[H])[H])([H])[H])([H])[H])C(=O)c1c(c(c(Cl)c(c21)[H])[H])[H])([H])[H])([H])[H])[H])([H])([H])[H]

>  <h>  (65) 
<NA>

>  <Training>  (65) 
True

>  <Success>  (65) 
True

>  <enamine_searched>  (65) 
False

>  <enamine_id>  (65) 
nan

$$$$

     RDKit          3D

 54 59  0  0  0  0  0  0  0  0999 V2000
    7.5580    3.3608   22.4785 C   0  0  0  0  0  0  0  0  0  0  0  0
    7.8216    2.2505   23.3872 N   0  0  0  0  0  0  0  0  0  0  0  0
    6.9476    2.0181   24.4136 C   0  0  0  0  0  0  0  0  0  0  0  0
    5.8219    2.4810   24.4250 O   0  0  0  0  0  0  0  0  0  0  0  0
    7.4351    1.0970   25.5541 C   0  0  0  0  0  0  0  0  0  0  0  0
    7.6506   -0.2641   25.1046 N   0  0  0  0  0  0  0  0  0  0  0  0
    8.6861   -1.0994   25.4971 C   0  0  0  0  0  0  0  0  0  0  0  0
    9.7376   -0.7620   26.0115 O   0  0  0  0  0  0  0  0  0  0  0  0
    8.2721   -2.4764   25.0795 C   0  0  0  0  0  0  0  0  0  0  0  0
    8.7210   -3.6491   25.6134 C   0  0  0  0  0  0  0  0  0  0  0  0
    8.0336   -4.8516   25.3095 C   0  0  0  0  0  0  0  0  0  0  0  0
    6.8905   -4.8138   24.5644 C   0  0  0  0  0  0  0  0  0  0  0  0
    6.0357   -6.2792   24.2161 Cl  0  0  0  0  0  0  0  0  0  0  0  0
    6.2108   -3.5692   24.1160 C   0  0  0  0  0  0  0  0  0  0  0  0
    7.1593   -2.3793   24.1473 C   0  0  1  0  0  0  0  0  0  0  0  0
    6.7265   -0.9505   24.2518 C   0  0  2  0  0  0  0  0  0  0  0  0
    7.2833   -1.4539   22.9292 C   0  0  2  0  0  0  0  0  0  0  0  0
    6.2752   -1.3590   21.8048 C   0  0  0  0  0  0  0  0  0  0  0  0
    5.1411   -1.7976   21.7605 O   0  0  0  0  0  0  0  0  0  0  0  0
    6.8432   -0.5662   20.8204 N   0  0  0  0  0  0  0  0  0  0  0  0
    6.1010    0.0191   19.7710 C   0  0  0  0  0  0  0  0  0  0  0  0
    6.4575   -0.2394   18.4713 C   0  0  0  0  0  0  0  0  0  0  0  0
    5.8022    0.2306   17.3852 N   0  0  0  0  0  0  0  0  0  0  0  0
    4.7719    1.0106   17.6075 C   0  0  0  0  0  0  0  0  0  0  0  0
    4.3268    1.3974   18.9028 C   0  0  0  0  0  0  0  0  0  0  0  0
    3.2139    2.2628   19.0652 C   0  0  0  0  0  0  0  0  0  0  0  0
    2.8156    2.6515   20.3114 C   0  0  0  0  0  0  0  0  0  0  0  0
    3.5307    2.2189   21.4520 C   0  0  0  0  0  0  0  0  0  0  0  0
    4.6200    1.3928   21.3226 C   0  0  0  0  0  0  0  0  0  0  0  0
    5.0226    0.9228   20.0355 C   0  0  0  0  0  0  0  0  0  0  0  0
    5.1779    1.1158   22.2153 H   0  0  0  0  0  0  0  0  0  0  0  0
    3.2161    2.5502   22.4369 H   0  0  0  0  0  0  0  0  0  0  0  0
    1.9619    3.3125   20.4286 H   0  0  0  0  0  0  0  0  0  0  0  0
    2.7033    2.6133   18.1711 H   0  0  0  0  0  0  0  0  0  0  0  0
    4.2315    1.3839   16.7378 H   0  0  0  0  0  0  0  0  0  0  0  0
    7.3117   -0.8865   18.2795 H   0  0  0  0  0  0  0  0  0  0  0  0
    8.2405   -0.2414   21.0491 C   0  0  0  0  0  0  0  0  0  0  0  0
    8.5545   -0.9755   22.3288 C   0  0  0  0  0  0  0  0  0  0  0  0
    9.8163   -1.1194   22.7277 C   0  0  0  0  0  0  0  0  0  0  0  0
   10.8116   -0.5015   22.0562 F   0  0  0  0  0  0  0  0  0  0  0  0
   10.1803   -1.7208   23.5550 H   0  0  0  0  0  0  0  0  0  0  0  0
    8.8944   -0.5739   20.2388 H   0  0  0  0  0  0  0  0  0  0  0  0
    8.3571    0.8424   21.1754 H   0  0  0  0  0  0  0  0  0  0  0  0
    5.6793   -0.6653   24.2718 H   0  0  0  0  0  0  0  0  0  0  0  0
    5.7753   -3.7044   23.1181 H   0  0  0  0  0  0  0  0  0  0  0  0
    5.3409   -3.3823   24.7741 H   0  0  0  0  0  0  0  0  0  0  0  0
    8.3853   -5.7978   25.7190 H   0  0  0  0  0  0  0  0  0  0  0  0
    9.5766   -3.6340   26.2747 H   0  0  0  0  0  0  0  0  0  0  0  0
    8.3523    1.4510   26.0279 H   0  0  0  0  0  0  0  0  0  0  0  0
    6.6719    1.1297   26.3367 H   0  0  0  0  0  0  0  0  0  0  0  0
    8.7838    2.0107   23.5770 H   0  0  0  0  0  0  0  0  0  0  0  0
    8.4601    3.5823   21.9029 H   0  0  0  0  0  0  0  0  0  0  0  0
    7.2657    4.2571   23.0351 H   0  0  0  0  0  0  0  0  0  0  0  0
    6.7479    3.0933   21.7922 H   0  0  0  0  0  0  0  0  0  0  0  0
  1  2  1  0
  2  3  1  0
  3  4  2  0
  3  5  1  0
  5  6  1  0
  6  7  1  0
  7  8  2  0
  7  9  1  0
  9 10  2  0
 10 11  1  0
 11 12  2  0
 12 13  1  0
 12 14  1  0
 15 14  1  6
 15 16  1  0
 16 17  1  0
 17 18  1  6
 18 19  2  0
 18 20  1  0
 20 21  1  0
 21 22  2  0
 22 23  1  0
 23 24  2  0
 24 25  1  0
 25 26  2  0
 26 27  1  0
 27 28  2  0
 28 29  1  0
 29 30  2  0
 29 31  1  0
 28 32  1  0
 27 33  1  0
 26 34  1  0
 24 35  1  0
 22 36  1  0
 20 37  1  0
 37 38  1  0
 38 39  2  0
 39 40  1  0
 39 41  1  0
 37 42  1  0
 37 43  1  0
 16 44  1  6
 14 45  1  0
 14 46  1  0
 11 47  1  0
 10 48  1  0
  5 49  1  0
  5 50  1  0
  2 51  1  0
  1 52  1  0
  1 53  1  0
  1 54  1  0
 16  6  1  0
 38 17  1  0
 15  9  1  0
 30 21  1  0
 17 15  1  0
 30 25  1  0
M  END
>  <cnnaffinities>  (66) 
[6.56379]

>  <score>  (66) 
6.56379

>  <index>  (66) 
65

>  <Smiles>  (66) 
C(N(C(=O)C(N1C(=O)C2=C(C(=C(Cl)C([C@]32[C@@]1([C@@]13C(=O)N(c2c(nc(c3c(c(c(c(c23)[H])[H])[H])[H])[H])[H])C(/C/1=C(\F)/[H])([H])[H])[H])([H])[H])[H])[H])([H])[H])[H])([H])([H])[H]

>  <h>  (66) 
<NA>

>  <Training>  (66) 
True

>  <Success>  (66) 
True

>  <enamine_searched>  (66) 
False

>  <enamine_id>  (66) 
nan

$$$$

     RDKit          3D

 47 50  0  0  0  0  0  0  0  0999 V2000
    5.4705   -2.4297   20.9118 O   0  0  0  0  0  0  0  0  0  0  0  0
    6.1384   -1.6668   21.5838 C   0  0  0  0  0  0  0  0  0  0  0  0
    6.9056   -0.5046   20.9142 C   0  0  0  0  0  0  0  0  0  0  0  0
    6.1172    0.0893   19.7657 C   0  0  0  0  0  0  0  0  0  0  0  0
    6.4224   -0.2141   18.4636 C   0  0  0  0  0  0  0  0  0  0  0  0
    5.7590    0.2389   17.3649 N   0  0  0  0  0  0  0  0  0  0  0  0
    4.7363    1.0315   17.5751 C   0  0  0  0  0  0  0  0  0  0  0  0
    4.2869    1.4215   18.8671 C   0  0  0  0  0  0  0  0  0  0  0  0
    3.1635    2.2707   19.0455 C   0  0  0  0  0  0  0  0  0  0  0  0
    2.7479    2.6217   20.3019 C   0  0  0  0  0  0  0  0  0  0  0  0
    3.4415    2.1375   21.4349 C   0  0  0  0  0  0  0  0  0  0  0  0
    4.5345    1.3183   21.2852 C   0  0  0  0  0  0  0  0  0  0  0  0
    4.9913    0.9373   19.9965 C   0  0  0  0  0  0  0  0  0  0  0  0
    5.0633    0.9627   22.1644 H   0  0  0  0  0  0  0  0  0  0  0  0
    3.1071    2.4230   22.4292 H   0  0  0  0  0  0  0  0  0  0  0  0
    1.8881    3.2741   20.4384 H   0  0  0  0  0  0  0  0  0  0  0  0
    2.6425    2.6415   18.1645 H   0  0  0  0  0  0  0  0  0  0  0  0
    4.1994    1.3997   16.6984 H   0  0  0  0  0  0  0  0  0  0  0  0
    7.2656   -0.8686   18.2438 H   0  0  0  0  0  0  0  0  0  0  0  0
    7.8528   -0.9031   20.5241 H   0  0  0  0  0  0  0  0  0  0  0  0
    7.1654    0.2748   21.6460 H   0  0  0  0  0  0  0  0  0  0  0  0
    6.1913   -1.7438   22.9679 N   0  0  0  0  0  0  0  0  0  0  0  0
    7.4454   -1.6668   23.7168 C   0  0  0  0  0  0  0  0  0  0  0  0
    7.2223   -1.0295   25.0782 C   0  0  0  0  0  0  0  0  0  0  0  0
    6.1364   -1.7602   25.8674 C   0  0  1  0  0  0  0  0  0  0  0  0
    5.8684   -1.1107   27.2364 C   0  0  0  0  0  0  0  0  0  0  0  0
    5.1173    0.2178   27.1448 C   0  0  0  0  0  0  0  0  0  0  0  0
    3.8566    0.0731   26.3194 C   0  0  0  0  0  0  0  0  0  0  0  0
    2.9662   -0.7129   27.0067 F   0  0  0  0  0  0  0  0  0  0  0  0
    3.2387    1.2901   26.1838 F   0  0  0  0  0  0  0  0  0  0  0  0
    4.0959   -0.5391   24.9536 C   0  0  0  0  0  0  0  0  0  0  0  0
    4.8402   -1.8781   25.0474 C   0  0  1  0  0  0  0  0  0  0  0  0
    5.1288   -2.4705   23.6629 C   0  0  0  0  0  0  0  0  0  0  0  0
    4.2323   -2.4203   23.0424 H   0  0  0  0  0  0  0  0  0  0  0  0
    5.3643   -3.5419   23.7620 H   0  0  0  0  0  0  0  0  0  0  0  0
    4.1696   -2.5633   25.5774 H   0  0  0  0  0  0  0  0  0  0  0  0
    3.1280   -0.6564   24.4537 H   0  0  0  0  0  0  0  0  0  0  0  0
    4.6735    0.1795   24.3681 H   0  0  0  0  0  0  0  0  0  0  0  0
    4.8528    0.5974   28.1372 H   0  0  0  0  0  0  0  0  0  0  0  0
    5.7347    0.9791   26.6622 H   0  0  0  0  0  0  0  0  0  0  0  0
    6.8164   -0.9553   27.7628 H   0  0  0  0  0  0  0  0  0  0  0  0
    5.2839   -1.7994   27.8559 H   0  0  0  0  0  0  0  0  0  0  0  0
    6.5059   -2.7793   26.0505 H   0  0  0  0  0  0  0  0  0  0  0  0
    8.1595   -1.0335   25.6456 H   0  0  0  0  0  0  0  0  0  0  0  0
    6.9600    0.0220   24.9422 H   0  0  0  0  0  0  0  0  0  0  0  0
    7.8832   -2.6686   23.8607 H   0  0  0  0  0  0  0  0  0  0  0  0
    8.1742   -1.0984   23.1374 H   0  0  0  0  0  0  0  0  0  0  0  0
  1  2  2  0
  2  3  1  0
  3  4  1  0
  4  5  2  0
  5  6  1  0
  6  7  2  0
  7  8  1  0
  8  9  2  0
  9 10  1  0
 10 11  2  0
 11 12  1  0
 12 13  2  0
 12 14  1  0
 11 15  1  0
 10 16  1  0
  9 17  1  0
  7 18  1  0
  5 19  1  0
  3 20  1  0
  3 21  1  0
  2 22  1  0
 22 23  1  0
 23 24  1  0
 24 25  1  0
 25 26  1  0
 26 27  1  0
 27 28  1  0
 28 29  1  0
 28 30  1  0
 28 31  1  0
 31 32  1  0
 32 33  1  0
 33 34  1  0
 33 35  1  0
 32 36  1  1
 31 37  1  0
 31 38  1  0
 27 39  1  0
 27 40  1  0
 26 41  1  0
 26 42  1  0
 25 43  1  1
 24 44  1  0
 24 45  1  0
 23 46  1  0
 23 47  1  0
 13  4  1  0
 33 22  1  0
 13  8  1  0
 32 25  1  0
M  END
>  <cnnaffinities>  (67) 
[5.57609, 5.57612]

>  <score>  (67) 
5.57609

>  <index>  (67) 
66

>  <Smiles>  (67) 
O=C(C(c1c(nc(c2c(c(c(c(c12)[H])[H])[H])[H])[H])[H])([H])[H])N1C(C([C@]2(C(C(C(F)(F)C([C@]2(C1([H])[H])[H])([H])[H])([H])[H])([H])[H])[H])([H])[H])([H])[H]

>  <h>  (67) 
<NA>

>  <Training>  (67) 
True

>  <Success>  (67) 
True

>  <enamine_searched>  (67) 
False

>  <enamine_id>  (67) 
nan

$$$$

     RDKit          3D

 69 74  0  0  0  0  0  0  0  0999 V2000
    6.3483   -8.1134   22.7391 C   0  0  0  0  0  0  0  0  0  0  0  0
    7.2748   -7.0142   22.5215 N   0  0  0  0  0  4  0  0  0  0  0  0
    7.0177   -6.3093   21.2343 C   0  0  0  0  0  0  0  0  0  0  0  0
    6.0867   -5.1305   21.5024 C   0  0  0  0  0  0  0  0  0  0  0  0
    6.6472   -4.3098   22.5593 N   0  0  0  0  0  0  0  0  0  0  0  0
    7.7166   -3.4038   22.2670 C   0  0  0  0  0  0  0  0  0  0  0  0
    7.3156   -1.9663   22.6370 C   0  0  2  0  0  0  0  0  0  0  0  0
    6.2498   -1.4959   21.6183 C   0  0  0  0  0  0  0  0  0  0  0  0
    5.1262   -1.9268   21.4678 O   0  0  0  0  0  0  0  0  0  0  0  0
    6.8020   -0.5055   20.8306 N   0  0  0  0  0  0  0  0  0  0  0  0
    6.0941    0.0640   19.7570 C   0  0  0  0  0  0  0  0  0  0  0  0
    6.4695   -0.2027   18.4660 C   0  0  0  0  0  0  0  0  0  0  0  0
    5.8197    0.2573   17.3691 N   0  0  0  0  0  0  0  0  0  0  0  0
    4.7786    1.0293   17.5730 C   0  0  0  0  0  0  0  0  0  0  0  0
    4.3137    1.4201   18.8621 C   0  0  0  0  0  0  0  0  0  0  0  0
    3.1958    2.2781   19.0240 C   0  0  0  0  0  0  0  0  0  0  0  0
    2.7876    2.6608   20.2714 C   0  0  0  0  0  0  0  0  0  0  0  0
    3.4806    2.2072   21.4188 C   0  0  0  0  0  0  0  0  0  0  0  0
    4.5628    1.3713   21.2913 C   0  0  0  0  0  0  0  0  0  0  0  0
    4.9928    0.9407   20.0032 C   0  0  0  0  0  0  0  0  0  0  0  0
    5.1029    1.0285   22.1705 H   0  0  0  0  0  0  0  0  0  0  0  0
    3.1514    2.5263   22.4033 H   0  0  0  0  0  0  0  0  0  0  0  0
    1.9310    3.3193   20.3893 H   0  0  0  0  0  0  0  0  0  0  0  0
    2.6893    2.6265   18.1268 H   0  0  0  0  0  0  0  0  0  0  0  0
    4.2475    1.3941   16.6922 H   0  0  0  0  0  0  0  0  0  0  0  0
    7.3208   -0.8538   18.2700 H   0  0  0  0  0  0  0  0  0  0  0  0
    8.2398   -0.4143   20.9526 C   0  0  0  0  0  0  0  0  0  0  0  0
    8.4770   -0.9929   22.3496 C   0  0  2  0  0  0  0  0  0  0  0  0
    9.8434   -1.6116   22.4576 C   0  0  0  0  0  0  0  0  0  0  0  0
   10.7684   -0.6034   22.1285 O   0  0  0  0  0  0  0  0  0  0  0  0
   12.0712   -1.0406   22.3771 C   0  0  0  0  0  0  0  0  0  0  0  0
   12.4706   -0.8504   23.8095 C   0  0  0  0  0  0  0  0  0  0  0  0
   11.7146   -1.5596   24.7200 F   0  0  0  0  0  0  0  0  0  0  0  0
   12.9928    0.4539   24.2780 C   0  0  0  0  0  0  0  0  0  0  0  0
   13.9169   -0.7354   24.0912 C   0  0  0  0  0  0  0  0  0  0  0  0
   14.5440   -0.7434   23.2057 H   0  0  0  0  0  0  0  0  0  0  0  0
   14.3134   -1.2208   24.9768 H   0  0  0  0  0  0  0  0  0  0  0  0
   12.7485    0.6960   25.3069 H   0  0  0  0  0  0  0  0  0  0  0  0
   13.0531    1.2855   23.5811 H   0  0  0  0  0  0  0  0  0  0  0  0
   12.7553   -0.4425   21.7647 H   0  0  0  0  0  0  0  0  0  0  0  0
   12.2106   -2.1043   22.1087 H   0  0  0  0  0  0  0  0  0  0  0  0
   10.0060   -2.0135   23.4660 H   0  0  0  0  0  0  0  0  0  0  0  0
    9.9653   -2.4420   21.7412 H   0  0  0  0  0  0  0  0  0  0  0  0
    8.4334   -0.1612   23.0528 H   0  0  0  0  0  0  0  0  0  0  0  0
    8.5723    0.6218   20.8659 H   0  0  0  0  0  0  0  0  0  0  0  0
    8.7527   -0.9952   20.1723 H   0  0  0  0  0  0  0  0  0  0  0  0
    6.8262   -1.9979   24.0769 C   0  0  0  0  0  0  0  0  0  0  0  0
    6.8292   -0.8411   24.8675 C   0  0  0  0  0  0  0  0  0  0  0  0
    6.3667   -0.8904   26.1691 C   0  0  0  0  0  0  0  0  0  0  0  0
    6.3741    0.5779   27.1069 Cl  0  0  0  0  0  0  0  0  0  0  0  0
    5.9004   -2.0709   26.7444 C   0  0  0  0  0  0  0  0  0  0  0  0
    5.8863   -3.2195   25.9743 C   0  0  0  0  0  0  0  0  0  0  0  0
    6.3308   -3.1835   24.6512 C   0  0  0  0  0  0  0  0  0  0  0  0
    6.2434   -4.4368   23.8486 C   0  0  0  0  0  0  0  0  0  0  0  0
    5.8338   -5.5117   24.2911 O   0  0  0  0  0  0  0  0  0  0  0  0
    5.5249   -4.1586   26.3822 H   0  0  0  0  0  0  0  0  0  0  0  0
    5.5519   -2.0711   27.7711 H   0  0  0  0  0  0  0  0  0  0  0  0
    7.1913    0.1034   24.4782 H   0  0  0  0  0  0  0  0  0  0  0  0
    7.9560   -3.4520   21.2092 H   0  0  0  0  0  0  0  0  0  0  0  0
    8.6045   -3.7088   22.8365 H   0  0  0  0  0  0  0  0  0  0  0  0
    5.1002   -5.4536   21.8493 H   0  0  0  0  0  0  0  0  0  0  0  0
    5.9470   -4.5075   20.6137 H   0  0  0  0  0  0  0  0  0  0  0  0
    7.9596   -5.9505   20.8064 H   0  0  0  0  0  0  0  0  0  0  0  0
    6.5744   -7.0216   20.5370 H   0  0  0  0  0  0  0  0  0  0  0  0
    8.2217   -7.3980   22.6156 H   0  0  0  0  0  0  0  0  0  0  0  0
    7.1518   -6.3473   23.2894 H   0  0  0  0  0  0  0  0  0  0  0  0
    6.2376   -8.6510   21.7963 H   0  0  0  0  0  0  0  0  0  0  0  0
    5.3721   -7.7415   23.0472 H   0  0  0  0  0  0  0  0  0  0  0  0
    6.7260   -8.8065   23.4894 H   0  0  0  0  0  0  0  0  0  0  0  0
  1  2  1  0
  2  3  1  0
  3  4  1  0
  4  5  1  0
  5  6  1  0
  7  6  1  6
  7  8  1  0
  8  9  2  0
  8 10  1  0
 10 11  1  0
 11 12  2  0
 12 13  1  0
 13 14  2  0
 14 15  1  0
 15 16  2  0
 16 17  1  0
 17 18  2  0
 18 19  1  0
 19 20  2  0
 19 21  1  0
 18 22  1  0
 17 23  1  0
 16 24  1  0
 14 25  1  0
 12 26  1  0
 10 27  1  0
 27 28  1  0
 28 29  1  0
 29 30  1  0
 30 31  1  0
 31 32  1  0
 32 33  1  0
 32 34  1  0
 34 35  1  0
 35 36  1  0
 35 37  1  0
 34 38  1  0
 34 39  1  0
 31 40  1  0
 31 41  1  0
 29 42  1  0
 29 43  1  0
 28 44  1  1
 27 45  1  0
 27 46  1  0
  7 47  1  0
 47 48  2  0
 48 49  1  0
 49 50  1  0
 49 51  2  0
 51 52  1  0
 52 53  2  0
 53 54  1  0
 54 55  2  0
 52 56  1  0
 51 57  1  0
 48 58  1  0
  6 59  1  0
  6 60  1  0
  4 61  1  0
  4 62  1  0
  3 63  1  0
  3 64  1  0
  2 65  1  0
  2 66  1  0
  1 67  1  0
  1 68  1  0
  1 69  1  0
 54  5  1  0
 28  7  1  0
 35 32  1  0
 53 47  1  0
 20 11  1  0
 20 15  1  0
M  CHG  1   2   1
M  END
>  <cnnaffinities>  (68) 
[6.86893]

>  <score>  (68) 
6.86893

>  <index>  (68) 
67

>  <Smiles>  (68) 
C([N+](C(C(N1C([C@@]2(C(=O)N(c3c(nc(c4c(c(c(c(c34)[H])[H])[H])[H])[H])[H])C([C@@]2(C(OC(C2(F)C(C2([H])[H])([H])[H])([H])[H])([H])[H])[H])([H])[H])c2c(c(Cl)c(c(c2C1=O)[H])[H])[H])([H])[H])([H])[H])([H])[H])([H])[H])([H])([H])[H]

>  <h>  (68) 
<NA>

>  <Training>  (68) 
True

>  <Success>  (68) 
True

>  <enamine_searched>  (68) 
False

>  <enamine_id>  (68) 
nan

$$$$

     RDKit          3D

 57 62  0  0  0  0  0  0  0  0999 V2000
    9.2903   -7.9705   24.3074 C   0  0  0  0  0  0  0  0  0  0  0  0
    7.9781   -7.2947   24.1099 C   0  0  0  0  0  0  0  0  0  0  0  0
    7.6964   -6.1780   23.5051 N   0  0  0  0  0  0  0  0  0  0  0  0
    6.3482   -6.0499   23.7449 C   0  0  0  0  0  0  0  0  0  0  0  0
    5.6099   -4.8471   23.2469 C   0  0  0  0  0  0  0  0  0  0  0  0
    6.2240   -3.6296   23.7479 N   0  0  0  0  0  0  0  0  0  0  0  0
    7.4506   -3.1220   23.1506 C   0  0  0  0  0  0  0  0  0  0  0  0
    7.3314   -1.6144   22.8507 C   0  0  2  0  0  0  0  0  0  0  0  0
    6.3348   -1.4142   21.6898 C   0  0  0  0  0  0  0  0  0  0  0  0
    5.2587   -1.9546   21.5409 O   0  0  0  0  0  0  0  0  0  0  0  0
    6.8745   -0.5016   20.8181 N   0  0  0  0  0  0  0  0  0  0  0  0
    6.1153    0.0597   19.7692 C   0  0  0  0  0  0  0  0  0  0  0  0
    6.4628   -0.2166   18.4724 C   0  0  0  0  0  0  0  0  0  0  0  0
    5.8007    0.2377   17.3822 N   0  0  0  0  0  0  0  0  0  0  0  0
    4.7668    1.0158   17.6026 C   0  0  0  0  0  0  0  0  0  0  0  0
    4.3149    1.3987   18.8988 C   0  0  0  0  0  0  0  0  0  0  0  0
    3.2016    2.2628   19.0570 C   0  0  0  0  0  0  0  0  0  0  0  0
    2.7960    2.6445   20.3048 C   0  0  0  0  0  0  0  0  0  0  0  0
    3.4898    2.1896   21.4493 C   0  0  0  0  0  0  0  0  0  0  0  0
    4.5713    1.3516   21.3289 C   0  0  0  0  0  0  0  0  0  0  0  0
    5.0045    0.9222   20.0350 C   0  0  0  0  0  0  0  0  0  0  0  0
    5.0957    1.0225   22.2276 H   0  0  0  0  0  0  0  0  0  0  0  0
    3.1652    2.5231   22.4306 H   0  0  0  0  0  0  0  0  0  0  0  0
    1.9486    3.3132   20.4203 H   0  0  0  0  0  0  0  0  0  0  0  0
    2.6989    2.6194   18.1617 H   0  0  0  0  0  0  0  0  0  0  0  0
    4.2290    1.3949   16.7330 H   0  0  0  0  0  0  0  0  0  0  0  0
    7.3148   -0.8694   18.2877 H   0  0  0  0  0  0  0  0  0  0  0  0
    8.2115   -0.0636   21.1455 C   0  0  0  0  0  0  0  0  0  0  0  0
    8.6511   -0.9830   22.3015 C   0  0  2  0  0  0  0  0  0  0  0  0
    9.7134   -1.9779   21.8206 C   0  0  0  0  0  0  0  0  0  0  0  0
    9.3331   -2.6181   21.0184 H   0  0  0  0  0  0  0  0  0  0  0  0
   10.0626   -2.6145   22.6372 H   0  0  0  0  0  0  0  0  0  0  0  0
   10.5806   -1.4348   21.4339 H   0  0  0  0  0  0  0  0  0  0  0  0
    9.1178   -0.3985   23.1001 H   0  0  0  0  0  0  0  0  0  0  0  0
    8.8634   -0.1796   20.2810 H   0  0  0  0  0  0  0  0  0  0  0  0
    8.2276    1.0005   21.4177 H   0  0  0  0  0  0  0  0  0  0  0  0
    6.8165   -0.9203   24.1130 C   0  0  0  0  0  0  0  0  0  0  0  0
    7.0258    0.4477   24.3302 C   0  0  0  0  0  0  0  0  0  0  0  0
    6.5414    1.0377   25.4837 C   0  0  0  0  0  0  0  0  0  0  0  0
    6.7475    2.3495   25.6832 F   0  0  0  0  0  0  0  0  0  0  0  0
    5.8484    0.3360   26.4594 C   0  0  0  0  0  0  0  0  0  0  0  0
    5.6245   -1.0036   26.2345 C   0  0  0  0  0  0  0  0  0  0  0  0
    6.0798   -1.6220   25.0739 C   0  0  0  0  0  0  0  0  0  0  0  0
    5.6880   -3.0485   24.8621 C   0  0  0  0  0  0  0  0  0  0  0  0
    4.8942   -3.6308   25.5856 O   0  0  0  0  0  0  0  0  0  0  0  0
    5.0837   -1.6172   26.9414 H   0  0  0  0  0  0  0  0  0  0  0  0
    5.4838    0.8372   27.3486 H   0  0  0  0  0  0  0  0  0  0  0  0
    7.5834    1.0650   23.6345 H   0  0  0  0  0  0  0  0  0  0  0  0
    8.3070   -3.2931   23.8184 H   0  0  0  0  0  0  0  0  0  0  0  0
    7.6456   -3.6764   22.2328 H   0  0  0  0  0  0  0  0  0  0  0  0
    5.6386   -4.8051   22.1497 H   0  0  0  0  0  0  0  0  0  0  0  0
    4.5635   -4.8758   23.5664 H   0  0  0  0  0  0  0  0  0  0  0  0
    5.8232   -7.0197   24.4325 N   0  0  0  0  0  0  0  0  0  0  0  0
    6.9109   -7.8467   24.6870 O   0  0  0  0  0  0  0  0  0  0  0  0
    9.6893   -8.3751   23.3732 H   0  0  0  0  0  0  0  0  0  0  0  0
    9.1709   -8.7821   25.0233 H   0  0  0  0  0  0  0  0  0  0  0  0
   10.0062   -7.2416   24.6979 H   0  0  0  0  0  0  0  0  0  0  0  0
  1  2  1  0
  2  3  2  0
  3  4  1  0
  4  5  1  0
  5  6  1  0
  6  7  1  0
  8  7  1  1
  8  9  1  0
  9 10  2  0
  9 11  1  0
 11 12  1  0
 12 13  2  0
 13 14  1  0
 14 15  2  0
 15 16  1  0
 16 17  2  0
 17 18  1  0
 18 19  2  0
 19 20  1  0
 20 21  2  0
 20 22  1  0
 19 23  1  0
 18 24  1  0
 17 25  1  0
 15 26  1  0
 13 27  1  0
 11 28  1  0
 28 29  1  0
 29 30  1  0
 30 31  1  0
 30 32  1  0
 30 33  1  0
 29 34  1  1
 28 35  1  0
 28 36  1  0
  8 37  1  0
 37 38  2  0
 38 39  1  0
 39 40  1  0
 39 41  2  0
 41 42  1  0
 42 43  2  0
 43 44  1  0
 44 45  2  0
 42 46  1  0
 41 47  1  0
 38 48  1  0
  7 49  1  0
  7 50  1  0
  5 51  1  0
  5 52  1  0
  4 53  2  0
 53 54  1  0
  1 55  1  0
  1 56  1  0
  1 57  1  0
 54  2  1  0
 44  6  1  0
 29  8  1  0
 43 37  1  0
 21 12  1  0
 21 16  1  0
M  END
>  <cnnaffinities>  (69) 
[6.50147]

>  <score>  (69) 
6.50147

>  <index>  (69) 
68

>  <Smiles>  (69) 
C(c1nc(C(N2C([C@@]3(C(=O)N(c4c(nc(c5c(c(c(c(c45)[H])[H])[H])[H])[H])[H])C([C@@]3(C([H])([H])[H])[H])([H])[H])c3c(c(F)c(c(c3C2=O)[H])[H])[H])([H])[H])([H])[H])no1)([H])([H])[H]

>  <h>  (69) 
<NA>

>  <Training>  (69) 
True

>  <Success>  (69) 
True

>  <enamine_searched>  (69) 
False

>  <enamine_id>  (69) 
nan

$$$$

     RDKit          3D

 64 68  0  0  0  0  0  0  0  0999 V2000
    1.1595   -1.2611   28.5114 C   0  0  0  0  0  0  0  0  0  0  0  0
    2.5946   -1.5804   28.0685 C   0  0  0  0  0  0  0  0  0  0  0  0
    2.6922   -2.0505   26.6189 C   0  0  0  0  0  0  0  0  0  0  0  0
    2.4447   -1.2803   25.7102 O   0  0  0  0  0  0  0  0  0  0  0  0
    3.1205   -3.3634   26.3869 N   0  0  0  0  0  0  0  0  0  0  0  0
    2.6409   -4.4664   27.2302 C   0  0  0  0  0  0  0  0  0  0  0  0
    2.2023   -5.6442   26.3629 C   0  0  0  0  0  0  0  0  0  0  0  0
    3.3947   -6.1280   25.5406 C   0  0  0  0  0  0  0  0  0  0  0  0
    4.1088   -4.9800   24.8560 C   0  0  0  0  0  0  0  0  0  0  0  0
    4.9604   -5.2376   23.7849 C   0  0  0  0  0  0  0  0  0  0  0  0
    5.6827   -4.2413   23.1443 C   0  0  0  0  0  0  0  0  0  0  0  0
    5.5632   -2.9265   23.5940 C   0  0  0  0  0  0  0  0  0  0  0  0
    6.3136   -1.8699   22.9753 N   0  0  0  0  0  0  0  0  0  0  0  0
    7.3290   -1.1905   23.7810 C   0  0  0  0  0  0  0  0  0  0  0  0
    8.7507   -1.5071   23.3574 C   0  0  0  0  0  0  0  0  0  0  0  0
    9.1936   -2.8270   23.3951 C   0  0  0  0  0  0  0  0  0  0  0  0
   10.4932   -3.1459   23.0312 C   0  0  0  0  0  0  0  0  0  0  0  0
   11.3715   -2.1699   22.5651 C   0  0  0  0  0  0  0  0  0  0  0  0
   10.9325   -0.8504   22.5472 C   0  0  0  0  0  0  0  0  0  0  0  0
   12.0253    0.4125   22.0280 Cl  0  0  0  0  0  0  0  0  0  0  0  0
    9.6435   -0.5109   22.9542 C   0  0  0  0  0  0  0  0  0  0  0  0
    9.3540    0.5368   22.9512 H   0  0  0  0  0  0  0  0  0  0  0  0
   12.3794   -2.4106   22.2389 H   0  0  0  0  0  0  0  0  0  0  0  0
   10.7968   -4.1746   23.1646 H   0  0  0  0  0  0  0  0  0  0  0  0
    8.5248   -3.6180   23.7266 H   0  0  0  0  0  0  0  0  0  0  0  0
    7.1589   -1.5495   24.8043 H   0  0  0  0  0  0  0  0  0  0  0  0
    7.1867   -0.1026   23.7619 H   0  0  0  0  0  0  0  0  0  0  0  0
    6.1229   -1.6605   21.6225 C   0  0  0  0  0  0  0  0  0  0  0  0
    5.3749   -2.3739   20.9767 O   0  0  0  0  0  0  0  0  0  0  0  0
    6.8798   -0.5054   20.9279 C   0  0  0  0  0  0  0  0  0  0  0  0
    6.1018    0.0790   19.7766 C   0  0  0  0  0  0  0  0  0  0  0  0
    6.4146   -0.2161   18.4749 C   0  0  0  0  0  0  0  0  0  0  0  0
    5.7579    0.2415   17.3749 N   0  0  0  0  0  0  0  0  0  0  0  0
    4.7323    1.0367   17.5748 C   0  0  0  0  0  0  0  0  0  0  0  0
    4.2920    1.4194   18.8689 C   0  0  0  0  0  0  0  0  0  0  0  0
    3.1779    2.2602   19.0766 C   0  0  0  0  0  0  0  0  0  0  0  0
    2.5275    2.6942   17.9830 F   0  0  0  0  0  0  0  0  0  0  0  0
    2.7444    2.6272   20.3159 C   0  0  0  0  0  0  0  0  0  0  0  0
    3.4392    2.1373   21.4442 C   0  0  0  0  0  0  0  0  0  0  0  0
    4.5257    1.3141   21.2934 C   0  0  0  0  0  0  0  0  0  0  0  0
    4.9830    0.9336   20.0062 C   0  0  0  0  0  0  0  0  0  0  0  0
    5.0473    0.9431   22.1703 H   0  0  0  0  0  0  0  0  0  0  0  0
    3.1073    2.4199   22.4398 H   0  0  0  0  0  0  0  0  0  0  0  0
    1.8866    3.2811   20.4112 H   0  0  0  0  0  0  0  0  0  0  0  0
    4.2021    1.4048   16.6980 H   0  0  0  0  0  0  0  0  0  0  0  0
    7.2588   -0.8659   18.2467 H   0  0  0  0  0  0  0  0  0  0  0  0
    7.8198   -0.9219   20.5440 H   0  0  0  0  0  0  0  0  0  0  0  0
    7.1636    0.2709   21.6480 H   0  0  0  0  0  0  0  0  0  0  0  0
    4.7286   -2.6402   24.6695 C   0  0  0  0  0  0  0  0  0  0  0  0
    3.9686   -3.6494   25.2899 C   0  0  0  0  0  0  0  0  0  0  0  0
    4.6978   -1.6167   25.0288 H   0  0  0  0  0  0  0  0  0  0  0  0
    6.3253   -4.4894   22.3069 H   0  0  0  0  0  0  0  0  0  0  0  0
    5.0409   -6.2643   23.4384 H   0  0  0  0  0  0  0  0  0  0  0  0
    4.1057   -6.6571   26.1981 H   0  0  0  0  0  0  0  0  0  0  0  0
    3.0788   -6.8678   24.7919 H   0  0  0  0  0  0  0  0  0  0  0  0
    1.3837   -5.3298   25.7017 H   0  0  0  0  0  0  0  0  0  0  0  0
    1.8194   -6.4507   26.9995 H   0  0  0  0  0  0  0  0  0  0  0  0
    3.4257   -4.7898   27.9354 H   0  0  0  0  0  0  0  0  0  0  0  0
    1.7978   -4.0795   27.8102 H   0  0  0  0  0  0  0  0  0  0  0  0
    3.1828   -0.6532   28.0856 H   0  0  0  0  0  0  0  0  0  0  0  0
    3.0926   -2.2858   28.7464 H   0  0  0  0  0  0  0  0  0  0  0  0
    0.5095   -2.1453   28.4902 H   0  0  0  0  0  0  0  0  0  0  0  0
    1.1589   -0.8651   29.5338 H   0  0  0  0  0  0  0  0  0  0  0  0
    0.7229   -0.4989   27.8567 H   0  0  0  0  0  0  0  0  0  0  0  0
  1  2  1  0
  2  3  1  0
  3  4  2  0
  3  5  1  0
  5  6  1  0
  6  7  1  0
  7  8  1  0
  8  9  1  0
  9 10  2  0
 10 11  1  0
 11 12  2  0
 12 13  1  0
 13 14  1  0
 14 15  1  0
 15 16  2  0
 16 17  1  0
 17 18  2  0
 18 19  1  0
 19 20  1  0
 19 21  2  0
 21 22  1  0
 18 23  1  0
 17 24  1  0
 16 25  1  0
 14 26  1  0
 14 27  1  0
 13 28  1  0
 28 29  2  0
 28 30  1  0
 30 31  1  0
 31 32  2  0
 32 33  1  0
 33 34  2  0
 34 35  1  0
 35 36  2  0
 36 37  1  0
 36 38  1  0
 38 39  2  0
 39 40  1  0
 40 41  2  0
 40 42  1  0
 39 43  1  0
 38 44  1  0
 34 45  1  0
 32 46  1  0
 30 47  1  0
 30 48  1  0
 12 49  1  0
 49 50  2  0
 49 51  1  0
 11 52  1  0
 10 53  1  0
  8 54  1  0
  8 55  1  0
  7 56  1  0
  7 57  1  0
  6 58  1  0
  6 59  1  0
  2 60  1  0
  2 61  1  0
  1 62  1  0
  1 63  1  0
  1 64  1  0
 50  5  1  0
 50  9  1  0
 21 15  1  0
 41 31  1  0
 41 35  1  0
M  END
>  <cnnaffinities>  (70) 
[6.63539]

>  <score>  (70) 
6.63539

>  <index>  (70) 
69

>  <Smiles>  (70) 
C(C(C(=O)N1C(C(C(c2c(c(c(N(C(c3c(c(c(c(Cl)c3[H])[H])[H])[H])([H])[H])C(=O)C(c3c(nc(c4c(F)c(c(c(c34)[H])[H])[H])[H])[H])([H])[H])c(c12)[H])[H])[H])([H])[H])([H])[H])([H])[H])([H])[H])([H])([H])[H]

>  <h>  (70) 
<NA>

>  <Training>  (70) 
True

>  <Success>  (70) 
True

>  <enamine_searched>  (70) 
False

>  <enamine_id>  (70) 
nan

$$$$

     RDKit          3D

 57 62  0  0  0  0  0  0  0  0999 V2000
    9.7073   -1.9744   21.8180 C   0  0  0  0  0  0  0  0  0  0  0  0
    8.6542   -0.9662   22.2999 C   0  0  1  0  0  0  0  0  0  0  0  0
    8.2118   -0.0516   21.1416 C   0  0  0  0  0  0  0  0  0  0  0  0
    6.8757   -0.4996   20.8140 N   0  0  0  0  0  0  0  0  0  0  0  0
    6.1149    0.0580   19.7641 C   0  0  0  0  0  0  0  0  0  0  0  0
    6.4641   -0.2176   18.4681 C   0  0  0  0  0  0  0  0  0  0  0  0
    5.8031    0.2406   17.3787 N   0  0  0  0  0  0  0  0  0  0  0  0
    4.7714    1.0192   17.6046 C   0  0  0  0  0  0  0  0  0  0  0  0
    4.3160    1.3977   18.8992 C   0  0  0  0  0  0  0  0  0  0  0  0
    3.2033    2.2605   19.0570 C   0  0  0  0  0  0  0  0  0  0  0  0
    2.7977    2.6441   20.3032 C   0  0  0  0  0  0  0  0  0  0  0  0
    3.4934    2.1897   21.4482 C   0  0  0  0  0  0  0  0  0  0  0  0
    4.5727    1.3496   21.3284 C   0  0  0  0  0  0  0  0  0  0  0  0
    5.0052    0.9199   20.0354 C   0  0  0  0  0  0  0  0  0  0  0  0
    5.0958    1.0183   22.2277 H   0  0  0  0  0  0  0  0  0  0  0  0
    3.1664    2.5224   22.4287 H   0  0  0  0  0  0  0  0  0  0  0  0
    1.9512    3.3139   20.4174 H   0  0  0  0  0  0  0  0  0  0  0  0
    2.7041    2.6168   18.1593 H   0  0  0  0  0  0  0  0  0  0  0  0
    4.2338    1.3923   16.7339 H   0  0  0  0  0  0  0  0  0  0  0  0
    7.3195   -0.8661   18.2819 H   0  0  0  0  0  0  0  0  0  0  0  0
    6.3430   -1.4191   21.6803 C   0  0  0  0  0  0  0  0  0  0  0  0
    5.2708   -1.9760   21.5173 O   0  0  0  0  0  0  0  0  0  0  0  0
    7.3343   -1.6012   22.8470 C   0  0  1  0  0  0  0  0  0  0  0  0
    7.4827   -3.1018   23.1627 C   0  0  0  0  0  0  0  0  0  0  0  0
    6.2720   -3.6342   23.7616 N   0  0  0  0  0  0  0  0  0  0  0  0
    5.6825   -4.8560   23.2514 C   0  0  0  0  0  0  0  0  0  0  0  0
    6.3728   -6.1134   23.6971 C   0  0  0  0  0  0  0  0  0  0  0  0
    5.7040   -7.1248   24.3007 N   0  0  0  0  0  0  0  0  0  0  0  0
    6.5797   -8.0546   24.5523 N   0  0  0  0  0  0  0  0  0  0  0  0
    7.7367   -7.5941   24.1285 N   0  0  0  0  0  0  0  0  0  0  0  0
    8.9458   -8.3906   24.2069 C   0  0  0  0  0  0  0  0  0  0  0  0
    9.2403   -8.5432   25.2498 H   0  0  0  0  0  0  0  0  0  0  0  0
    9.7420   -7.8723   23.6822 H   0  0  0  0  0  0  0  0  0  0  0  0
    8.7714   -9.3606   23.7326 H   0  0  0  0  0  0  0  0  0  0  0  0
    7.6644   -6.3924   23.5718 N   0  0  0  0  0  0  0  0  0  0  0  0
    5.6536   -4.7747   22.1579 H   0  0  0  0  0  0  0  0  0  0  0  0
    4.6456   -4.8863   23.6014 H   0  0  0  0  0  0  0  0  0  0  0  0
    5.6875   -3.0351   24.8445 C   0  0  0  0  0  0  0  0  0  0  0  0
    4.8733   -3.6102   25.5522 O   0  0  0  0  0  0  0  0  0  0  0  0
    6.0737   -1.6084   25.0639 C   0  0  0  0  0  0  0  0  0  0  0  0
    5.6191   -0.9957   26.2294 C   0  0  0  0  0  0  0  0  0  0  0  0
    5.8458    0.3456   26.4528 C   0  0  0  0  0  0  0  0  0  0  0  0
    6.5408    1.0545   25.4808 C   0  0  0  0  0  0  0  0  0  0  0  0
    6.7580    2.3651   25.6911 F   0  0  0  0  0  0  0  0  0  0  0  0
    7.0239    0.4639   24.3275 C   0  0  0  0  0  0  0  0  0  0  0  0
    6.8124   -0.9039   24.1051 C   0  0  0  0  0  0  0  0  0  0  0  0
    7.5879    1.0843   23.6395 H   0  0  0  0  0  0  0  0  0  0  0  0
    5.4922    0.8425   27.3473 H   0  0  0  0  0  0  0  0  0  0  0  0
    5.0754   -1.6114   26.9378 H   0  0  0  0  0  0  0  0  0  0  0  0
    8.3444   -3.2359   23.8350 H   0  0  0  0  0  0  0  0  0  0  0  0
    7.6763   -3.6590   22.2455 H   0  0  0  0  0  0  0  0  0  0  0  0
    8.2211    1.0139   21.4122 H   0  0  0  0  0  0  0  0  0  0  0  0
    8.8698   -0.1702   20.2806 H   0  0  0  0  0  0  0  0  0  0  0  0
    9.1241   -0.3801   23.0989 H   0  0  0  0  0  0  0  0  0  0  0  0
    9.3208   -2.6136   21.0154 H   0  0  0  0  0  0  0  0  0  0  0  0
   10.0460   -2.6157   22.6366 H   0  0  0  0  0  0  0  0  0  0  0  0
   10.5814   -1.4405   21.4338 H   0  0  0  0  0  0  0  0  0  0  0  0
  1  2  1  0
  2  3  1  0
  3  4  1  0
  4  5  1  0
  5  6  2  0
  6  7  1  0
  7  8  2  0
  8  9  1  0
  9 10  2  0
 10 11  1  0
 11 12  2  0
 12 13  1  0
 13 14  2  0
 13 15  1  0
 12 16  1  0
 11 17  1  0
 10 18  1  0
  8 19  1  0
  6 20  1  0
  4 21  1  0
 21 22  2  0
 21 23  1  0
 23 24  1  1
 24 25  1  0
 25 26  1  0
 26 27  1  0
 27 28  1  0
 28 29  2  0
 29 30  1  0
 30 31  1  0
 31 32  1  0
 31 33  1  0
 31 34  1  0
 30 35  1  0
 26 36  1  0
 26 37  1  0
 25 38  1  0
 38 39  2  0
 38 40  1  0
 40 41  2  0
 41 42  1  0
 42 43  2  0
 43 44  1  0
 43 45  1  0
 45 46  2  0
 45 47  1  0
 42 48  1  0
 41 49  1  0
 24 50  1  0
 24 51  1  0
  3 52  1  0
  3 53  1  0
  2 54  1  1
  1 55  1  0
  1 56  1  0
  1 57  1  0
 23  2  1  0
 35 27  2  0
 46 40  1  0
 14  5  1  0
 46 23  1  0
 14  9  1  0
M  END
>  <cnnaffinities>  (71) 
[6.35126]

>  <score>  (71) 
6.35126

>  <index>  (71) 
70

>  <Smiles>  (71) 
C([C@]1(C(N(c2c(nc(c3c(c(c(c(c23)[H])[H])[H])[H])[H])[H])C(=O)[C@]21C(N(C(c1nnn(C([H])([H])[H])n1)([H])[H])C(=O)c1c(c(c(F)c(c21)[H])[H])[H])([H])[H])([H])[H])[H])([H])([H])[H]

>  <h>  (71) 
<NA>

>  <Training>  (71) 
True

>  <Success>  (71) 
True

>  <enamine_searched>  (71) 
False

>  <enamine_id>  (71) 
nan

$$$$

     RDKit          3D

 59 64  0  0  0  0  0  0  0  0999 V2000
    9.7412   -1.9692   21.8255 C   0  0  0  0  0  0  0  0  0  0  0  0
    8.6685   -0.9780   22.3082 C   0  0  1  0  0  0  0  0  0  0  0  0
    8.2176   -0.0685   21.1420 C   0  0  0  0  0  0  0  0  0  0  0  0
    6.8664   -0.4890   20.8345 N   0  0  0  0  0  0  0  0  0  0  0  0
    6.1053    0.0573   19.7722 C   0  0  0  0  0  0  0  0  0  0  0  0
    6.4489   -0.2237   18.4727 C   0  0  0  0  0  0  0  0  0  0  0  0
    5.7870    0.2375   17.3846 N   0  0  0  0  0  0  0  0  0  0  0  0
    4.7581    1.0216   17.6013 C   0  0  0  0  0  0  0  0  0  0  0  0
    4.3016    1.4080   18.8953 C   0  0  0  0  0  0  0  0  0  0  0  0
    3.1875    2.2738   19.0597 C   0  0  0  0  0  0  0  0  0  0  0  0
    2.7868    2.6549   20.3100 C   0  0  0  0  0  0  0  0  0  0  0  0
    3.4875    2.1992   21.4490 C   0  0  0  0  0  0  0  0  0  0  0  0
    4.5673    1.3616   21.3193 C   0  0  0  0  0  0  0  0  0  0  0  0
    4.9937    0.9267   20.0274 C   0  0  0  0  0  0  0  0  0  0  0  0
    5.1002    1.0270   22.2092 H   0  0  0  0  0  0  0  0  0  0  0  0
    3.1624    2.5140   22.4368 H   0  0  0  0  0  0  0  0  0  0  0  0
    1.9313    3.3145   20.4322 H   0  0  0  0  0  0  0  0  0  0  0  0
    2.6787    2.6292   18.1676 H   0  0  0  0  0  0  0  0  0  0  0  0
    4.2240    1.3854   16.7247 H   0  0  0  0  0  0  0  0  0  0  0  0
    7.2987   -0.8752   18.2704 H   0  0  0  0  0  0  0  0  0  0  0  0
    6.3279   -1.3799   21.7302 C   0  0  0  0  0  0  0  0  0  0  0  0
    5.2212   -1.8748   21.6302 O   0  0  0  0  0  0  0  0  0  0  0  0
    7.3523   -1.6126   22.8654 C   0  0  1  0  0  0  0  0  0  0  0  0
    7.4689   -3.1228   23.1505 C   0  0  0  0  0  0  0  0  0  0  0  0
    6.2432   -3.6203   23.7381 N   0  0  0  0  0  0  0  0  0  0  0  0
    5.6943   -4.8712   23.2986 C   0  0  0  0  0  0  0  0  0  0  0  0
    6.2396   -6.0470   24.0500 C   0  0  0  0  0  0  0  0  0  0  0  0
    7.5263   -6.2807   24.1842 N   0  0  0  0  0  0  0  0  0  0  0  0
    7.6043   -7.5327   24.7411 C   0  0  0  0  0  0  0  0  0  0  0  0
    6.3503   -8.0588   24.9177 C   0  0  0  0  0  0  0  0  0  0  0  0
    5.4714   -7.0832   24.5047 N   0  0  0  0  0  0  0  0  0  0  0  0
    4.0388   -7.0666   24.7388 C   0  0  0  0  0  0  0  0  0  0  0  0
    3.4716   -7.1714   23.8068 H   0  0  0  0  0  0  0  0  0  0  0  0
    3.7490   -6.1380   25.2386 H   0  0  0  0  0  0  0  0  0  0  0  0
    3.7990   -7.9013   25.4008 H   0  0  0  0  0  0  0  0  0  0  0  0
    6.0127   -9.0074   25.3220 H   0  0  0  0  0  0  0  0  0  0  0  0
    8.5600   -7.9346   25.0569 H   0  0  0  0  0  0  0  0  0  0  0  0
    4.6028   -4.8090   23.3520 H   0  0  0  0  0  0  0  0  0  0  0  0
    5.9903   -4.9623   22.2493 H   0  0  0  0  0  0  0  0  0  0  0  0
    5.7032   -3.0635   24.8556 C   0  0  0  0  0  0  0  0  0  0  0  0
    4.9231   -3.6767   25.5754 O   0  0  0  0  0  0  0  0  0  0  0  0
    6.0842   -1.6402   25.0902 C   0  0  0  0  0  0  0  0  0  0  0  0
    5.6019   -1.0209   26.2421 C   0  0  0  0  0  0  0  0  0  0  0  0
    5.8288    0.3287   26.4387 C   0  0  0  0  0  0  0  0  0  0  0  0
    6.5318    1.0381   25.4723 C   0  0  0  0  0  0  0  0  0  0  0  0
    6.7249    2.3572   25.6574 F   0  0  0  0  0  0  0  0  0  0  0  0
    7.0345    0.4396   24.3339 C   0  0  0  0  0  0  0  0  0  0  0  0
    6.8389   -0.9347   24.1397 C   0  0  0  0  0  0  0  0  0  0  0  0
    7.5667    1.0643   23.6234 H   0  0  0  0  0  0  0  0  0  0  0  0
    5.4566    0.8515   27.3080 H   0  0  0  0  0  0  0  0  0  0  0  0
    5.0333   -1.6372   26.9358 H   0  0  0  0  0  0  0  0  0  0  0  0
    7.6454   -3.6713   22.2205 H   0  0  0  0  0  0  0  0  0  0  0  0
    8.3080   -3.3019   23.8421 H   0  0  0  0  0  0  0  0  0  0  0  0
    8.8665   -0.2098   20.2766 H   0  0  0  0  0  0  0  0  0  0  0  0
    8.2344    0.9983   21.4063 H   0  0  0  0  0  0  0  0  0  0  0  0
    9.1286   -0.3856   23.1094 H   0  0  0  0  0  0  0  0  0  0  0  0
    9.3638   -2.6150   21.0243 H   0  0  0  0  0  0  0  0  0  0  0  0
   10.1035   -2.6029   22.6398 H   0  0  0  0  0  0  0  0  0  0  0  0
   10.6038   -1.4200   21.4331 H   0  0  0  0  0  0  0  0  0  0  0  0
  1  2  1  0
  2  3  1  0
  3  4  1  0
  4  5  1  0
  5  6  2  0
  6  7  1  0
  7  8  2  0
  8  9  1  0
  9 10  2  0
 10 11  1  0
 11 12  2  0
 12 13  1  0
 13 14  2  0
 13 15  1  0
 12 16  1  0
 11 17  1  0
 10 18  1  0
  8 19  1  0
  6 20  1  0
  4 21  1  0
 21 22  2  0
 21 23  1  0
 23 24  1  1
 24 25  1  0
 25 26  1  0
 26 27  1  0
 27 28  2  0
 28 29  1  0
 29 30  2  0
 30 31  1  0
 31 32  1  0
 32 33  1  0
 32 34  1  0
 32 35  1  0
 30 36  1  0
 29 37  1  0
 26 38  1  0
 26 39  1  0
 25 40  1  0
 40 41  2  0
 40 42  1  0
 42 43  2  0
 43 44  1  0
 44 45  2  0
 45 46  1  0
 45 47  1  0
 47 48  2  0
 47 49  1  0
 44 50  1  0
 43 51  1  0
 24 52  1  0
 24 53  1  0
  3 54  1  0
  3 55  1  0
  2 56  1  1
  1 57  1  0
  1 58  1  0
  1 59  1  0
 23  2  1  0
 31 27  1  0
 48 42  1  0
 14  5  1  0
 48 23  1  0
 14  9  1  0
M  END
>  <cnnaffinities>  (72) 
[6.25785]

>  <score>  (72) 
6.25785

>  <index>  (72) 
71

>  <Smiles>  (72) 
C([C@]1(C(N(c2c(nc(c3c(c(c(c(c23)[H])[H])[H])[H])[H])[H])C(=O)[C@]21C(N(C(c1nc(c(n1C([H])([H])[H])[H])[H])([H])[H])C(=O)c1c(c(c(F)c(c21)[H])[H])[H])([H])[H])([H])[H])[H])([H])([H])[H]

>  <h>  (72) 
<NA>

>  <Training>  (72) 
True

>  <Success>  (72) 
True

>  <enamine_searched>  (72) 
False

>  <enamine_id>  (72) 
nan

$$$$

     RDKit          3D

 60 64  0  0  0  0  0  0  0  0999 V2000
    7.5446   -8.5002   23.0285 C   0  0  0  0  0  0  0  0  0  0  0  0
    6.6815   -7.3799   22.7254 N   0  0  0  0  0  0  0  0  0  0  0  0
    6.9349   -6.5449   21.6825 C   0  0  0  0  0  0  0  0  0  0  0  0
    7.7505   -6.7723   20.8023 O   0  0  0  0  0  0  0  0  0  0  0  0
    6.0987   -5.2563   21.7277 C   0  0  0  0  0  0  0  0  0  0  0  0
    6.6524   -4.3191   22.6939 N   0  0  0  0  0  0  0  0  0  0  0  0
    7.7371   -3.4227   22.3245 C   0  0  0  0  0  0  0  0  0  0  0  0
    7.3907   -1.9517   22.6584 C   0  0  2  0  0  0  0  0  0  0  0  0
    6.3199   -1.4339   21.6770 C   0  0  0  0  0  0  0  0  0  0  0  0
    5.1749   -1.8239   21.5777 O   0  0  0  0  0  0  0  0  0  0  0  0
    6.8762   -0.4525   20.8814 N   0  0  0  0  0  0  0  0  0  0  0  0
    6.1461    0.0902   19.8009 C   0  0  0  0  0  0  0  0  0  0  0  0
    6.4864   -0.2173   18.5063 C   0  0  0  0  0  0  0  0  0  0  0  0
    5.8239    0.2223   17.4087 N   0  0  0  0  0  0  0  0  0  0  0  0
    4.7887    1.0045   17.6114 C   0  0  0  0  0  0  0  0  0  0  0  0
    4.3333    1.4030   18.9009 C   0  0  0  0  0  0  0  0  0  0  0  0
    3.2113    2.2593   19.0493 C   0  0  0  0  0  0  0  0  0  0  0  0
    2.7946    2.6459   20.2945 C   0  0  0  0  0  0  0  0  0  0  0  0
    3.4840    2.2026   21.4434 C   0  0  0  0  0  0  0  0  0  0  0  0
    4.5744    1.3764   21.3259 C   0  0  0  0  0  0  0  0  0  0  0  0
    5.0226    0.9444   20.0416 C   0  0  0  0  0  0  0  0  0  0  0  0
    5.0917    1.0458   22.2203 H   0  0  0  0  0  0  0  0  0  0  0  0
    3.1511    2.5307   22.4251 H   0  0  0  0  0  0  0  0  0  0  0  0
    1.9406    3.3082   20.4032 H   0  0  0  0  0  0  0  0  0  0  0  0
    2.7067    2.6061   18.1518 H   0  0  0  0  0  0  0  0  0  0  0  0
    4.2473    1.3676   16.7364 H   0  0  0  0  0  0  0  0  0  0  0  0
    7.3284   -0.8820   18.3161 H   0  0  0  0  0  0  0  0  0  0  0  0
    8.3210   -0.4021   20.9845 C   0  0  0  0  0  0  0  0  0  0  0  0
    8.5883   -0.9921   22.3721 C   0  0  2  0  0  0  0  0  0  0  0  0
    9.9147   -1.5523   22.4642 N   0  0  0  0  0  0  0  0  0  0  0  0
   10.5465   -1.7550   23.6650 C   0  0  0  0  0  0  0  0  0  0  0  0
   10.0620   -1.3983   24.7235 O   0  0  0  0  0  0  0  0  0  0  0  0
   11.8710   -2.4803   23.5620 C   0  0  0  0  0  0  0  0  0  0  0  0
   11.7107   -3.4932   23.1792 H   0  0  0  0  0  0  0  0  0  0  0  0
   12.3077   -2.5514   24.5574 H   0  0  0  0  0  0  0  0  0  0  0  0
   12.5681   -1.9616   22.8952 H   0  0  0  0  0  0  0  0  0  0  0  0
   10.3775   -1.8070   21.6045 H   0  0  0  0  0  0  0  0  0  0  0  0
    8.5413   -0.1937   23.1072 H   0  0  0  0  0  0  0  0  0  0  0  0
    8.6773    0.6267   20.8998 H   0  0  0  0  0  0  0  0  0  0  0  0
    8.8217   -1.0116   20.2169 H   0  0  0  0  0  0  0  0  0  0  0  0
    6.8734   -1.9199   24.0858 C   0  0  0  0  0  0  0  0  0  0  0  0
    6.8270   -0.7150   24.7920 C   0  0  0  0  0  0  0  0  0  0  0  0
    6.3667   -0.6908   26.0936 C   0  0  0  0  0  0  0  0  0  0  0  0
    6.3244    0.8227   26.9396 Cl  0  0  0  0  0  0  0  0  0  0  0  0
    5.9379   -1.8420   26.7497 C   0  0  0  0  0  0  0  0  0  0  0  0
    5.9399   -3.0274   26.0460 C   0  0  0  0  0  0  0  0  0  0  0  0
    6.3718   -3.0639   24.7239 C   0  0  0  0  0  0  0  0  0  0  0  0
    6.1872   -4.3369   23.9702 C   0  0  0  0  0  0  0  0  0  0  0  0
    5.5903   -5.3111   24.4363 O   0  0  0  0  0  0  0  0  0  0  0  0
    5.5982   -3.9546   26.4870 H   0  0  0  0  0  0  0  0  0  0  0  0
    5.6008   -1.7975   27.7786 H   0  0  0  0  0  0  0  0  0  0  0  0
    7.1633    0.2122   24.3450 H   0  0  0  0  0  0  0  0  0  0  0  0
    7.9066   -3.5336   21.2597 H   0  0  0  0  0  0  0  0  0  0  0  0
    8.6660   -3.6941   22.8404 H   0  0  0  0  0  0  0  0  0  0  0  0
    6.0623   -4.7595   20.7491 H   0  0  0  0  0  0  0  0  0  0  0  0
    5.0751   -5.4976   22.0445 H   0  0  0  0  0  0  0  0  0  0  0  0
    6.0945   -7.0357   23.4792 H   0  0  0  0  0  0  0  0  0  0  0  0
    8.5526   -8.1775   23.3245 H   0  0  0  0  0  0  0  0  0  0  0  0
    7.6102   -9.1650   22.1670 H   0  0  0  0  0  0  0  0  0  0  0  0
    7.0977   -9.0542   23.8551 H   0  0  0  0  0  0  0  0  0  0  0  0
  1  2  1  0
  2  3  1  0
  3  4  2  0
  3  5  1  0
  5  6  1  0
  6  7  1  0
  8  7  1  6
  8  9  1  0
  9 10  2  0
  9 11  1  0
 11 12  1  0
 12 13  2  0
 13 14  1  0
 14 15  2  0
 15 16  1  0
 16 17  2  0
 17 18  1  0
 18 19  2  0
 19 20  1  0
 20 21  2  0
 20 22  1  0
 19 23  1  0
 18 24  1  0
 17 25  1  0
 15 26  1  0
 13 27  1  0
 11 28  1  0
 28 29  1  0
 29 30  1  0
 30 31  1  0
 31 32  2  0
 31 33  1  0
 33 34  1  0
 33 35  1  0
 33 36  1  0
 30 37  1  0
 29 38  1  1
 28 39  1  0
 28 40  1  0
  8 41  1  0
 41 42  2  0
 42 43  1  0
 43 44  1  0
 43 45  2  0
 45 46  1  0
 46 47  2  0
 47 48  1  0
 48 49  2  0
 46 50  1  0
 45 51  1  0
 42 52  1  0
  7 53  1  0
  7 54  1  0
  5 55  1  0
  5 56  1  0
  2 57  1  0
  1 58  1  0
  1 59  1  0
  1 60  1  0
 48  6  1  0
 29  8  1  0
 47 41  1  0
 21 12  1  0
 21 16  1  0
M  END
>  <cnnaffinities>  (73) 
[6.79301]

>  <score>  (73) 
6.79301

>  <index>  (73) 
72

>  <Smiles>  (73) 
C(N(C(=O)C(N1C([C@@]2(C(=O)N(c3c(nc(c4c(c(c(c(c34)[H])[H])[H])[H])[H])[H])C([C@@]2(N(C(=O)C([H])([H])[H])[H])[H])([H])[H])c2c(c(Cl)c(c(c2C1=O)[H])[H])[H])([H])[H])([H])[H])[H])([H])([H])[H]

>  <h>  (73) 
<NA>

>  <Training>  (73) 
True

>  <Success>  (73) 
True

>  <enamine_searched>  (73) 
False

>  <enamine_id>  (73) 
nan

$$$$

     RDKit          3D

 56 61  0  0  0  0  0  0  0  0999 V2000
    9.7566   -1.9549   21.8518 C   0  0  0  0  0  0  0  0  0  0  0  0
    8.6663   -0.9734   22.3197 C   0  0  1  0  0  0  0  0  0  0  0  0
    8.2185   -0.0747   21.1422 C   0  0  0  0  0  0  0  0  0  0  0  0
    6.8634   -0.4891   20.8398 N   0  0  0  0  0  0  0  0  0  0  0  0
    6.1036    0.0581   19.7719 C   0  0  0  0  0  0  0  0  0  0  0  0
    6.4432   -0.2224   18.4731 C   0  0  0  0  0  0  0  0  0  0  0  0
    5.7800    0.2404   17.3833 N   0  0  0  0  0  0  0  0  0  0  0  0
    4.7512    1.0254   17.5971 C   0  0  0  0  0  0  0  0  0  0  0  0
    4.2969    1.4145   18.8887 C   0  0  0  0  0  0  0  0  0  0  0  0
    3.1822    2.2791   19.0580 C   0  0  0  0  0  0  0  0  0  0  0  0
    2.7831    2.6574   20.3084 C   0  0  0  0  0  0  0  0  0  0  0  0
    3.4885    2.1996   21.4461 C   0  0  0  0  0  0  0  0  0  0  0  0
    4.5700    1.3669   21.3125 C   0  0  0  0  0  0  0  0  0  0  0  0
    4.9935    0.9320   20.0221 C   0  0  0  0  0  0  0  0  0  0  0  0
    5.1069    1.0310   22.2006 H   0  0  0  0  0  0  0  0  0  0  0  0
    3.1644    2.5107   22.4340 H   0  0  0  0  0  0  0  0  0  0  0  0
    1.9303    3.3177   20.4365 H   0  0  0  0  0  0  0  0  0  0  0  0
    2.6684    2.6371   18.1678 H   0  0  0  0  0  0  0  0  0  0  0  0
    4.2177    1.3890   16.7178 H   0  0  0  0  0  0  0  0  0  0  0  0
    7.2905   -0.8738   18.2646 H   0  0  0  0  0  0  0  0  0  0  0  0
    6.3223   -1.3738   21.7443 C   0  0  0  0  0  0  0  0  0  0  0  0
    5.2062   -1.8481   21.6582 O   0  0  0  0  0  0  0  0  0  0  0  0
    7.3495   -1.6206   22.8736 C   0  0  1  0  0  0  0  0  0  0  0  0
    7.4849   -3.1347   23.1497 C   0  0  0  0  0  0  0  0  0  0  0  0
    6.2851   -3.6819   23.7484 N   0  0  0  0  0  0  0  0  0  0  0  0
    5.6536   -4.8402   23.1462 C   0  0  0  0  0  0  0  0  0  0  0  0
    4.0968   -4.8374   23.0419 C   0  0  0  0  0  0  0  0  0  0  0  0
    3.9981   -6.0504   23.9653 N   0  0  0  0  0  4  0  0  0  0  0  0
    5.5227   -6.1243   24.0199 C   0  0  0  0  0  0  0  0  0  0  0  0
    5.8925   -7.0490   23.5842 H   0  0  0  0  0  0  0  0  0  0  0  0
    5.8923   -6.0317   25.0368 H   0  0  0  0  0  0  0  0  0  0  0  0
    3.5157   -6.8823   23.5764 H   0  0  0  0  0  0  0  0  0  0  0  0
    3.6134   -5.7815   24.8934 H   0  0  0  0  0  0  0  0  0  0  0  0
    3.6030   -3.9633   23.4586 H   0  0  0  0  0  0  0  0  0  0  0  0
    3.6744   -5.0446   22.0621 H   0  0  0  0  0  0  0  0  0  0  0  0
    6.1673   -4.9698   22.1863 H   0  0  0  0  0  0  0  0  0  0  0  0
    5.7563   -3.1253   24.8808 C   0  0  0  0  0  0  0  0  0  0  0  0
    4.9866   -3.7494   25.6139 O   0  0  0  0  0  0  0  0  0  0  0  0
    6.1121   -1.6810   25.1105 C   0  0  0  0  0  0  0  0  0  0  0  0
    5.6304   -1.0424   26.2559 C   0  0  0  0  0  0  0  0  0  0  0  0
    5.8248    0.3138   26.4446 C   0  0  0  0  0  0  0  0  0  0  0  0
    6.4977    1.0436   25.4666 C   0  0  0  0  0  0  0  0  0  0  0  0
    6.7070    2.7595   25.6813 Cl  0  0  0  0  0  0  0  0  0  0  0  0
    6.9957    0.4289   24.3308 C   0  0  0  0  0  0  0  0  0  0  0  0
    6.8372   -0.9537   24.1516 C   0  0  0  0  0  0  0  0  0  0  0  0
    7.4955    1.0524   23.5930 H   0  0  0  0  0  0  0  0  0  0  0  0
    5.4498    0.8196   27.3267 H   0  0  0  0  0  0  0  0  0  0  0  0
    5.0812   -1.6385   26.9780 H   0  0  0  0  0  0  0  0  0  0  0  0
    7.6714   -3.6565   22.2095 H   0  0  0  0  0  0  0  0  0  0  0  0
    8.3408   -3.2901   23.8240 H   0  0  0  0  0  0  0  0  0  0  0  0
    8.2562    0.9967   21.3892 H   0  0  0  0  0  0  0  0  0  0  0  0
    8.8639   -0.2322   20.2764 H   0  0  0  0  0  0  0  0  0  0  0  0
    9.1193   -0.3677   23.1152 H   0  0  0  0  0  0  0  0  0  0  0  0
   10.6192   -1.3998   21.4658 H   0  0  0  0  0  0  0  0  0  0  0  0
    9.3982   -2.6093   21.0488 H   0  0  0  0  0  0  0  0  0  0  0  0
   10.1191   -2.5822   22.6710 H   0  0  0  0  0  0  0  0  0  0  0  0
  1  2  1  0
  2  3  1  0
  3  4  1  0
  4  5  1  0
  5  6  2  0
  6  7  1  0
  7  8  2  0
  8  9  1  0
  9 10  2  0
 10 11  1  0
 11 12  2  0
 12 13  1  0
 13 14  2  0
 13 15  1  0
 12 16  1  0
 11 17  1  0
 10 18  1  0
  8 19  1  0
  6 20  1  0
  4 21  1  0
 21 22  2  0
 21 23  1  0
 23 24  1  1
 24 25  1  0
 25 26  1  0
 26 27  1  0
 27 28  1  0
 28 29  1  0
 29 30  1  0
 29 31  1  0
 28 32  1  0
 28 33  1  0
 27 34  1  0
 27 35  1  0
 26 36  1  0
 25 37  1  0
 37 38  2  0
 37 39  1  0
 39 40  2  0
 40 41  1  0
 41 42  2  0
 42 43  1  0
 42 44  1  0
 44 45  2  0
 44 46  1  0
 41 47  1  0
 40 48  1  0
 24 49  1  0
 24 50  1  0
  3 51  1  0
  3 52  1  0
  2 53  1  1
  1 54  1  0
  1 55  1  0
  1 56  1  0
 23  2  1  0
 29 26  1  0
 45 39  1  0
 14  5  1  0
 45 23  1  0
 14  9  1  0
M  CHG  1  28   1
M  END
>  <cnnaffinities>  (74) 
[5.89658, 5.89305, 6.11587, 6.11983]

>  <score>  (74) 
5.89658

>  <index>  (74) 
73

>  <Smiles>  (74) 
C([C@]1(C(N(c2c(nc(c3c(c(c(c(c23)[H])[H])[H])[H])[H])[H])C(=O)[C@]21C(N(C1(C([N+](C1([H])[H])([H])[H])([H])[H])[H])C(=O)c1c(c(c(Cl)c(c21)[H])[H])[H])([H])[H])([H])[H])[H])([H])([H])[H]

>  <h>  (74) 
<NA>

>  <Training>  (74) 
True

>  <Success>  (74) 
True

>  <enamine_searched>  (74) 
False

>  <enamine_id>  (74) 
nan

$$$$

     RDKit          3D

 55 60  0  0  0  0  0  0  0  0999 V2000
    9.8959   -1.5807   22.5207 C   0  0  0  0  0  0  0  0  0  0  0  0
    8.5138   -0.9474   22.3718 C   0  0  1  0  0  0  0  0  0  0  0  0
    8.2548   -0.4482   20.9454 C   0  0  0  0  0  0  0  0  0  0  0  0
    6.8086   -0.4082   20.8594 N   0  0  0  0  0  0  0  0  0  0  0  0
    6.1148    0.1279   19.7582 C   0  0  0  0  0  0  0  0  0  0  0  0
    6.4964   -0.1571   18.4688 C   0  0  0  0  0  0  0  0  0  0  0  0
    5.8394    0.2734   17.3643 N   0  0  0  0  0  0  0  0  0  0  0  0
    4.7883    1.0381   17.5453 C   0  0  0  0  0  0  0  0  0  0  0  0
    4.3133    1.4450   18.8266 C   0  0  0  0  0  0  0  0  0  0  0  0
    3.1808    2.2923   18.9761 C   0  0  0  0  0  0  0  0  0  0  0  0
    2.7654    2.6824   20.2205 C   0  0  0  0  0  0  0  0  0  0  0  0
    3.4556    2.2470   21.3736 C   0  0  0  0  0  0  0  0  0  0  0  0
    4.5512    1.4284   21.2553 C   0  0  0  0  0  0  0  0  0  0  0  0
    4.9943    0.9911   19.9734 C   0  0  0  0  0  0  0  0  0  0  0  0
    5.0863    1.1030   22.1403 H   0  0  0  0  0  0  0  0  0  0  0  0
    3.1210    2.5605   22.3592 H   0  0  0  0  0  0  0  0  0  0  0  0
    1.9017    3.3334   20.3360 H   0  0  0  0  0  0  0  0  0  0  0  0
    2.6664    2.6385   18.0828 H   0  0  0  0  0  0  0  0  0  0  0  0
    4.2607    1.3784   16.6528 H   0  0  0  0  0  0  0  0  0  0  0  0
    7.3545   -0.8002   18.2790 H   0  0  0  0  0  0  0  0  0  0  0  0
    6.2095   -1.3085   21.7206 C   0  0  0  0  0  0  0  0  0  0  0  0
    5.0642   -1.6951   21.6188 O   0  0  0  0  0  0  0  0  0  0  0  0
    7.2642   -1.7965   22.7526 C   0  0  1  0  0  0  0  0  0  0  0  0
    7.4153   -3.3116   22.4693 C   0  0  0  0  0  0  0  0  0  0  0  0
    6.2028   -4.0175   22.8617 N   0  0  0  0  0  0  0  0  0  0  0  0
    5.6192   -5.0550   22.0282 C   0  0  0  0  0  0  0  0  0  0  0  0
    6.1268   -6.4251   22.3917 C   0  0  0  0  0  0  0  0  0  0  0  0
    5.6680   -7.2435   23.4657 C   0  0  0  0  0  0  0  0  0  0  0  0
    6.5395   -8.2777   23.4544 C   0  0  0  0  0  0  0  0  0  0  0  0
    7.4116   -8.1302   22.4488 O   0  0  0  0  0  0  0  0  0  0  0  0
    7.1392   -6.9617   21.7717 N   0  0  0  0  0  0  0  0  0  0  0  0
    6.7265   -9.1401   24.0809 H   0  0  0  0  0  0  0  0  0  0  0  0
    4.8050   -7.0319   24.0731 H   0  0  0  0  0  0  0  0  0  0  0  0
    5.8436   -4.8268   20.9832 H   0  0  0  0  0  0  0  0  0  0  0  0
    4.5350   -5.0202   22.1805 H   0  0  0  0  0  0  0  0  0  0  0  0
    5.6883   -3.8828   24.1153 C   0  0  0  0  0  0  0  0  0  0  0  0
    4.8402   -4.6453   24.5786 O   0  0  0  0  0  0  0  0  0  0  0  0
    6.1835   -2.7080   24.8686 C   0  0  0  0  0  0  0  0  0  0  0  0
    5.9029   -2.6827   26.2322 C   0  0  0  0  0  0  0  0  0  0  0  0
    6.0695   -1.5148   26.9420 C   0  0  0  0  0  0  0  0  0  0  0  0
    6.5402   -0.4100   26.2446 C   0  0  0  0  0  0  0  0  0  0  0  0
    6.6410    0.7588   26.8987 F   0  0  0  0  0  0  0  0  0  0  0  0
    6.9475   -0.4562   24.9272 C   0  0  0  0  0  0  0  0  0  0  0  0
    6.8153   -1.6471   24.2045 C   0  0  0  0  0  0  0  0  0  0  0  0
    7.3594    0.4467   24.4970 H   0  0  0  0  0  0  0  0  0  0  0  0
    5.8143   -1.4158   27.9884 H   0  0  0  0  0  0  0  0  0  0  0  0
    5.5247   -3.5966   26.6807 H   0  0  0  0  0  0  0  0  0  0  0  0
    8.2885   -3.7149   23.0015 H   0  0  0  0  0  0  0  0  0  0  0  0
    7.5665   -3.4496   21.3972 H   0  0  0  0  0  0  0  0  0  0  0  0
    8.6926   -1.1314   20.2053 H   0  0  0  0  0  0  0  0  0  0  0  0
    8.6774    0.5426   20.7695 H   0  0  0  0  0  0  0  0  0  0  0  0
    8.4584   -0.0748   23.0207 H   0  0  0  0  0  0  0  0  0  0  0  0
   10.0939   -1.9535   23.5308 H   0  0  0  0  0  0  0  0  0  0  0  0
   10.0202   -2.4171   21.8252 H   0  0  0  0  0  0  0  0  0  0  0  0
   10.6831   -0.8549   22.2879 H   0  0  0  0  0  0  0  0  0  0  0  0
  1  2  1  0
  2  3  1  0
  3  4  1  0
  4  5  1  0
  5  6  2  0
  6  7  1  0
  7  8  2  0
  8  9  1  0
  9 10  2  0
 10 11  1  0
 11 12  2  0
 12 13  1  0
 13 14  2  0
 13 15  1  0
 12 16  1  0
 11 17  1  0
 10 18  1  0
  8 19  1  0
  6 20  1  0
  4 21  1  0
 21 22  2  0
 21 23  1  0
 23 24  1  6
 24 25  1  0
 25 26  1  0
 26 27  1  0
 27 28  1  0
 28 29  2  0
 29 30  1  0
 30 31  1  0
 29 32  1  0
 28 33  1  0
 26 34  1  0
 26 35  1  0
 25 36  1  0
 36 37  2  0
 36 38  1  0
 38 39  2  0
 39 40  1  0
 40 41  2  0
 41 42  1  0
 41 43  1  0
 43 44  2  0
 43 45  1  0
 40 46  1  0
 39 47  1  0
 24 48  1  0
 24 49  1  0
  3 50  1  0
  3 51  1  0
  2 52  1  1
  1 53  1  0
  1 54  1  0
  1 55  1  0
 23  2  1  0
 31 27  2  0
 44 38  1  0
 14  5  1  0
 44 23  1  0
 14  9  1  0
M  END
>  <cnnaffinities>  (75) 
[6.57618, 6.30349]

>  <score>  (75) 
6.57618

>  <index>  (75) 
74

>  <Smiles>  (75) 
C([C@]1(C(N(c2c(nc(c3c(c(c(c(c23)[H])[H])[H])[H])[H])[H])C(=O)[C@]21C(N(C(c1c(c(on1)[H])[H])([H])[H])C(=O)c1c(c(c(F)c(c21)[H])[H])[H])([H])[H])([H])[H])[H])([H])([H])[H]

>  <h>  (75) 
<NA>

>  <Training>  (75) 
True

>  <Success>  (75) 
True

>  <enamine_searched>  (75) 
False

>  <enamine_id>  (75) 
nan

$$$$

     RDKit          3D

 70 75  0  0  0  0  0  0  0  0999 V2000
    4.8786   -2.0929   33.7191 C   0  0  0  0  0  0  0  0  0  0  0  0
    5.9502   -1.6695   32.9064 O   0  0  0  0  0  0  0  0  0  0  0  0
    5.6830   -0.6995   31.9914 C   0  0  0  0  0  0  0  0  0  0  0  0
    4.4454   -0.0687   31.8614 C   0  0  0  0  0  0  0  0  0  0  0  0
    4.2927    0.9299   30.9026 C   0  0  0  0  0  0  0  0  0  0  0  0
    5.3453    1.2916   30.0778 C   0  0  0  0  0  0  0  0  0  0  0  0
    6.5845    0.6585   30.2052 C   0  0  0  0  0  0  0  0  0  0  0  0
    7.7319    1.0206   29.2774 C   0  0  0  0  0  0  0  0  0  0  0  0
    7.9773   -0.0110   28.2844 N   0  0  0  0  0  0  0  0  0  0  0  0
    7.1156   -0.1145   27.2382 C   0  0  0  0  0  0  0  0  0  0  0  0
    6.1621    0.6359   27.1013 O   0  0  0  0  0  0  0  0  0  0  0  0
    7.3941   -1.2327   26.2309 C   0  0  0  0  0  0  0  0  0  0  0  0
    8.2253   -0.7645   25.1344 N   0  0  0  0  0  0  0  0  0  0  0  0
    7.6460   -0.1467   23.9525 C   0  0  0  0  0  0  0  0  0  0  0  0
    8.4534   -0.4795   22.6643 C   0  0  2  0  0  0  0  0  0  0  0  0
    7.8443    0.4201   21.5777 C   0  0  0  0  0  0  0  0  0  0  0  0
    8.0036    1.6134   21.4198 O   0  0  0  0  0  0  0  0  0  0  0  0
    6.9913   -0.3568   20.8202 N   0  0  0  0  0  0  0  0  0  0  0  0
    6.1841    0.1512   19.7791 C   0  0  0  0  0  0  0  0  0  0  0  0
    6.4702   -0.2120   18.4869 C   0  0  0  0  0  0  0  0  0  0  0  0
    5.7938    0.2135   17.3947 N   0  0  0  0  0  0  0  0  0  0  0  0
    4.7747    1.0128   17.5998 C   0  0  0  0  0  0  0  0  0  0  0  0
    4.3283    1.4152   18.8903 C   0  0  0  0  0  0  0  0  0  0  0  0
    3.1957    2.2583   19.0406 C   0  0  0  0  0  0  0  0  0  0  0  0
    2.7455    2.5960   20.2867 C   0  0  0  0  0  0  0  0  0  0  0  0
    3.4085    2.1104   21.4361 C   0  0  0  0  0  0  0  0  0  0  0  0
    4.5226    1.3120   21.3168 C   0  0  0  0  0  0  0  0  0  0  0  0
    5.0255    0.9575   20.0304 C   0  0  0  0  0  0  0  0  0  0  0  0
    5.0231    0.9521   22.2105 H   0  0  0  0  0  0  0  0  0  0  0  0
    3.0371    2.3800   22.4209 H   0  0  0  0  0  0  0  0  0  0  0  0
    1.8769    3.2407   20.3988 H   0  0  0  0  0  0  0  0  0  0  0  0
    2.7066    2.6228   18.1414 H   0  0  0  0  0  0  0  0  0  0  0  0
    4.2367    1.3743   16.7229 H   0  0  0  0  0  0  0  0  0  0  0  0
    7.3109   -0.8770   18.2944 H   0  0  0  0  0  0  0  0  0  0  0  0
    6.9472   -1.7485   21.2102 C   0  0  0  0  0  0  0  0  0  0  0  0
    8.1914   -1.9040   22.0783 C   0  0  2  0  0  0  0  0  0  0  0  0
    8.0894   -3.0493   23.0733 C   0  0  0  0  0  0  0  0  0  0  0  0
    8.9756   -3.0932   23.7129 H   0  0  0  0  0  0  0  0  0  0  0  0
    7.9879   -4.0031   22.5470 H   0  0  0  0  0  0  0  0  0  0  0  0
    7.2121   -2.9229   23.7181 H   0  0  0  0  0  0  0  0  0  0  0  0
    9.0434   -2.0908   21.4089 H   0  0  0  0  0  0  0  0  0  0  0  0
    6.0285   -1.9967   21.7648 H   0  0  0  0  0  0  0  0  0  0  0  0
    6.9607   -2.3885   20.3280 H   0  0  0  0  0  0  0  0  0  0  0  0
    9.9339   -0.2767   22.9282 C   0  0  0  0  0  0  0  0  0  0  0  0
   10.8738   -0.2032   21.8859 C   0  0  0  0  0  0  0  0  0  0  0  0
   12.2105    0.0285   22.1894 C   0  0  0  0  0  0  0  0  0  0  0  0
   13.4249    0.1342   20.9609 Cl  0  0  0  0  0  0  0  0  0  0  0  0
   12.6659    0.1784   23.4994 C   0  0  0  0  0  0  0  0  0  0  0  0
   11.7515    0.0287   24.5162 C   0  0  0  0  0  0  0  0  0  0  0  0
   10.4182   -0.2660   24.2385 C   0  0  0  0  0  0  0  0  0  0  0  0
    9.5564   -0.6839   25.3763 C   0  0  0  0  0  0  0  0  0  0  0  0
   10.0382   -0.9751   26.4666 O   0  0  0  0  0  0  0  0  0  0  0  0
   12.0626    0.1531   25.5460 H   0  0  0  0  0  0  0  0  0  0  0  0
   13.7242    0.3414   23.7072 H   0  0  0  0  0  0  0  0  0  0  0  0
   10.5681   -0.3484   20.8540 H   0  0  0  0  0  0  0  0  0  0  0  0
    6.6091   -0.4919   23.8455 H   0  0  0  0  0  0  0  0  0  0  0  0
    7.6097    0.9507   24.0540 H   0  0  0  0  0  0  0  0  0  0  0  0
    7.9067   -2.0780   26.6977 H   0  0  0  0  0  0  0  0  0  0  0  0
    6.4373   -1.5835   25.8374 H   0  0  0  0  0  0  0  0  0  0  0  0
    8.9060   -0.3971   28.1691 H   0  0  0  0  0  0  0  0  0  0  0  0
    7.4945    1.9591   28.7627 H   0  0  0  0  0  0  0  0  0  0  0  0
    8.6502    1.1619   29.8567 H   0  0  0  0  0  0  0  0  0  0  0  0
    6.7458   -0.3385   31.1581 C   0  0  0  0  0  0  0  0  0  0  0  0
    7.6946   -0.8578   31.2791 H   0  0  0  0  0  0  0  0  0  0  0  0
    5.2092    2.0488   29.3101 H   0  0  0  0  0  0  0  0  0  0  0  0
    3.3321    1.4302   30.8043 H   0  0  0  0  0  0  0  0  0  0  0  0
    3.6040   -0.3412   32.4902 H   0  0  0  0  0  0  0  0  0  0  0  0
    4.5046   -1.2710   34.3442 H   0  0  0  0  0  0  0  0  0  0  0  0
    4.0537   -2.4852   33.1099 H   0  0  0  0  0  0  0  0  0  0  0  0
    5.2723   -2.8863   34.3563 H   0  0  0  0  0  0  0  0  0  0  0  0
  1  2  1  0
  2  3  1  0
  3  4  2  0
  4  5  1  0
  5  6  2  0
  6  7  1  0
  7  8  1  0
  8  9  1  0
  9 10  1  0
 10 11  2  0
 10 12  1  0
 12 13  1  0
 13 14  1  0
 15 14  1  1
 15 16  1  0
 16 17  2  0
 16 18  1  0
 18 19  1  0
 19 20  2  0
 20 21  1  0
 21 22  2  0
 22 23  1  0
 23 24  2  0
 24 25  1  0
 25 26  2  0
 26 27  1  0
 27 28  2  0
 27 29  1  0
 26 30  1  0
 25 31  1  0
 24 32  1  0
 22 33  1  0
 20 34  1  0
 18 35  1  0
 35 36  1  0
 36 37  1  0
 37 38  1  0
 37 39  1  0
 37 40  1  0
 36 41  1  6
 35 42  1  0
 35 43  1  0
 15 44  1  0
 44 45  2  0
 45 46  1  0
 46 47  1  0
 46 48  2  0
 48 49  1  0
 49 50  2  0
 50 51  1  0
 51 52  2  0
 49 53  1  0
 48 54  1  0
 45 55  1  0
 14 56  1  0
 14 57  1  0
 12 58  1  0
 12 59  1  0
  9 60  1  0
  8 61  1  0
  8 62  1  0
  7 63  2  0
 63 64  1  0
  6 65  1  0
  5 66  1  0
  4 67  1  0
  1 68  1  0
  1 69  1  0
  1 70  1  0
 63  3  1  0
 51 13  1  0
 36 15  1  0
 50 44  1  0
 28 19  1  0
 28 23  1  0
M  END
>  <cnnaffinities>  (76) 
[6.44638, 6.44991]

>  <score>  (76) 
6.44638

>  <index>  (76) 
75

>  <Smiles>  (76) 
C(Oc1c(c(c(c(C(N(C(=O)C(N2C([C@@]3(C(=O)N(c4c(nc(c5c(c(c(c(c45)[H])[H])[H])[H])[H])[H])C([C@@]3(C([H])([H])[H])[H])([H])[H])c3c(c(Cl)c(c(c3C2=O)[H])[H])[H])([H])[H])([H])[H])[H])([H])[H])c1[H])[H])[H])[H])([H])([H])[H]

>  <h>  (76) 
<NA>

>  <Training>  (76) 
True

>  <Success>  (76) 
True

>  <enamine_searched>  (76) 
False

>  <enamine_id>  (76) 
nan

$$$$

     RDKit          3D

 61 65  0  0  0  0  0  0  0  0999 V2000
    9.7418   -1.9296   21.8611 C   0  0  0  0  0  0  0  0  0  0  0  0
    8.6561   -0.9462   22.3347 C   0  0  1  0  0  0  0  0  0  0  0  0
    8.2045   -0.0457   21.1623 C   0  0  0  0  0  0  0  0  0  0  0  0
    6.8650   -0.4923   20.8390 N   0  0  0  0  0  0  0  0  0  0  0  0
    6.1019    0.0523   19.7746 C   0  0  0  0  0  0  0  0  0  0  0  0
    6.4459   -0.2251   18.4770 C   0  0  0  0  0  0  0  0  0  0  0  0
    5.7852    0.2406   17.3880 N   0  0  0  0  0  0  0  0  0  0  0  0
    4.7552    1.0234   17.6023 C   0  0  0  0  0  0  0  0  0  0  0  0
    4.2996    1.4115   18.8935 C   0  0  0  0  0  0  0  0  0  0  0  0
    3.1851    2.2767   19.0602 C   0  0  0  0  0  0  0  0  0  0  0  0
    2.7837    2.6569   20.3090 C   0  0  0  0  0  0  0  0  0  0  0  0
    3.4880    2.2001   21.4480 C   0  0  0  0  0  0  0  0  0  0  0  0
    4.5696    1.3661   21.3176 C   0  0  0  0  0  0  0  0  0  0  0  0
    4.9942    0.9283   20.0278 C   0  0  0  0  0  0  0  0  0  0  0  0
    5.1038    1.0301   22.2079 H   0  0  0  0  0  0  0  0  0  0  0  0
    3.1617    2.5121   22.4354 H   0  0  0  0  0  0  0  0  0  0  0  0
    1.9300    3.3180   20.4344 H   0  0  0  0  0  0  0  0  0  0  0  0
    2.6754    2.6334   18.1671 H   0  0  0  0  0  0  0  0  0  0  0  0
    4.2234    1.3849   16.7211 H   0  0  0  0  0  0  0  0  0  0  0  0
    7.2950   -0.8733   18.2652 H   0  0  0  0  0  0  0  0  0  0  0  0
    6.3243   -1.3796   21.7386 C   0  0  0  0  0  0  0  0  0  0  0  0
    5.2201   -1.8774   21.6308 O   0  0  0  0  0  0  0  0  0  0  0  0
    7.3398   -1.5901   22.8857 C   0  0  1  0  0  0  0  0  0  0  0  0
    7.4779   -3.0975   23.2024 C   0  0  0  0  0  0  0  0  0  0  0  0
    6.2702   -3.6430   23.7883 N   0  0  0  0  0  0  0  0  0  0  0  0
    5.6737   -4.8549   23.2588 C   0  0  0  0  0  0  0  0  0  0  0  0
    5.9264   -6.1244   24.0777 C   0  0  0  0  0  0  0  0  0  0  0  0
    7.3912   -6.4638   24.1852 N   0  0  0  0  0  4  0  0  0  0  0  0
    7.9901   -5.9343   25.4457 C   0  0  0  0  0  0  0  0  0  0  0  0
    7.8227   -4.8595   25.5106 H   0  0  0  0  0  0  0  0  0  0  0  0
    7.5039   -6.3900   26.3056 H   0  0  0  0  0  0  0  0  0  0  0  0
    9.0592   -6.1551   25.4730 H   0  0  0  0  0  0  0  0  0  0  0  0
    7.6312   -7.9287   24.0712 C   0  0  0  0  0  0  0  0  0  0  0  0
    7.0815   -8.4646   24.8553 H   0  0  0  0  0  0  0  0  0  0  0  0
    8.6957   -8.1393   24.1877 H   0  0  0  0  0  0  0  0  0  0  0  0
    7.2887   -8.3015   23.1006 H   0  0  0  0  0  0  0  0  0  0  0  0
    7.8628   -5.9803   23.4011 H   0  0  0  0  0  0  0  0  0  0  0  0
    5.4451   -6.9715   23.5824 H   0  0  0  0  0  0  0  0  0  0  0  0
    5.5071   -6.0269   25.0819 H   0  0  0  0  0  0  0  0  0  0  0  0
    4.5968   -4.6890   23.1730 H   0  0  0  0  0  0  0  0  0  0  0  0
    6.0931   -4.9789   22.2549 H   0  0  0  0  0  0  0  0  0  0  0  0
    5.6558   -3.0321   24.8394 C   0  0  0  0  0  0  0  0  0  0  0  0
    4.8184   -3.6074   25.5263 O   0  0  0  0  0  0  0  0  0  0  0  0
    6.0395   -1.6001   25.0724 C   0  0  0  0  0  0  0  0  0  0  0  0
    5.5285   -0.9637   26.2011 C   0  0  0  0  0  0  0  0  0  0  0  0
    5.7464    0.3842   26.4036 C   0  0  0  0  0  0  0  0  0  0  0  0
    6.4737    1.0962   25.4515 C   0  0  0  0  0  0  0  0  0  0  0  0
    6.7101    2.8052   25.6791 Cl  0  0  0  0  0  0  0  0  0  0  0  0
    7.0047    0.4778   24.3332 C   0  0  0  0  0  0  0  0  0  0  0  0
    6.8169   -0.8973   24.1413 C   0  0  0  0  0  0  0  0  0  0  0  0
    7.5489    1.0928   23.6214 H   0  0  0  0  0  0  0  0  0  0  0  0
    5.3474    0.8981   27.2694 H   0  0  0  0  0  0  0  0  0  0  0  0
    4.9405   -1.5651   26.8864 H   0  0  0  0  0  0  0  0  0  0  0  0
    7.6710   -3.6452   22.2786 H   0  0  0  0  0  0  0  0  0  0  0  0
    8.3310   -3.2277   23.8906 H   0  0  0  0  0  0  0  0  0  0  0  0
    8.2149    1.0256   21.4130 H   0  0  0  0  0  0  0  0  0  0  0  0
    8.8649   -0.1805   20.3055 H   0  0  0  0  0  0  0  0  0  0  0  0
    9.1097   -0.3439   23.1320 H   0  0  0  0  0  0  0  0  0  0  0  0
   10.6040   -1.3754   21.4728 H   0  0  0  0  0  0  0  0  0  0  0  0
    9.3806   -2.5827   21.0588 H   0  0  0  0  0  0  0  0  0  0  0  0
   10.1055   -2.5620   22.6757 H   0  0  0  0  0  0  0  0  0  0  0  0
  1  2  1  0
  2  3  1  0
  3  4  1  0
  4  5  1  0
  5  6  2  0
  6  7  1  0
  7  8  2  0
  8  9  1  0
  9 10  2  0
 10 11  1  0
 11 12  2  0
 12 13  1  0
 13 14  2  0
 13 15  1  0
 12 16  1  0
 11 17  1  0
 10 18  1  0
  8 19  1  0
  6 20  1  0
  4 21  1  0
 21 22  2  0
 21 23  1  0
 23 24  1  1
 24 25  1  0
 25 26  1  0
 26 27  1  0
 27 28  1  0
 28 29  1  0
 29 30  1  0
 29 31  1  0
 29 32  1  0
 28 33  1  0
 33 34  1  0
 33 35  1  0
 33 36  1  0
 28 37  1  0
 27 38  1  0
 27 39  1  0
 26 40  1  0
 26 41  1  0
 25 42  1  0
 42 43  2  0
 42 44  1  0
 44 45  2  0
 45 46  1  0
 46 47  2  0
 47 48  1  0
 47 49  1  0
 49 50  2  0
 49 51  1  0
 46 52  1  0
 45 53  1  0
 24 54  1  0
 24 55  1  0
  3 56  1  0
  3 57  1  0
  2 58  1  1
  1 59  1  0
  1 60  1  0
  1 61  1  0
 23  2  1  0
 50 44  1  0
 14  5  1  0
 50 23  1  0
 14  9  1  0
M  CHG  1  28   1
M  END
>  <cnnaffinities>  (77) 
[6.05227, 6.13329, 6.11351, 6.10652]

>  <score>  (77) 
6.05227

>  <index>  (77) 
76

>  <Smiles>  (77) 
C([C@]1(C(N(c2c(nc(c3c(c(c(c(c23)[H])[H])[H])[H])[H])[H])C(=O)[C@]21C(N(C(C([N+](C([H])([H])[H])(C([H])([H])[H])[H])([H])[H])([H])[H])C(=O)c1c(c(c(Cl)c(c21)[H])[H])[H])([H])[H])([H])[H])[H])([H])([H])[H]

>  <h>  (77) 
<NA>

>  <Training>  (77) 
True

>  <Success>  (77) 
True

>  <enamine_searched>  (77) 
False

>  <enamine_id>  (77) 
nan

$$$$

     RDKit          3D

 57 60  0  0  0  0  0  0  0  0999 V2000
    2.1148   -6.1865   25.1412 C   0  0  0  0  0  0  0  0  0  0  0  0
    3.6266   -6.3459   25.4323 C   0  0  0  0  0  0  0  0  0  0  0  0
    4.0785   -7.7491   24.9848 C   0  0  0  0  0  0  0  0  0  0  0  0
    3.5387   -8.5034   25.5674 H   0  0  0  0  0  0  0  0  0  0  0  0
    3.8431   -7.9108   23.9274 H   0  0  0  0  0  0  0  0  0  0  0  0
    5.1549   -7.8900   25.1340 H   0  0  0  0  0  0  0  0  0  0  0  0
    3.8055   -6.2732   26.9049 C   0  0  0  0  0  0  0  0  0  0  0  0
    3.9030   -6.2274   28.0569 N   0  0  0  0  0  0  0  0  0  0  0  0
    4.4218   -5.2002   24.7846 C   0  0  0  0  0  0  0  0  0  0  0  0
    4.2980   -3.9071   25.2948 C   0  0  0  0  0  0  0  0  0  0  0  0
    4.9619   -2.8382   24.7047 C   0  0  0  0  0  0  0  0  0  0  0  0
    5.7450   -3.0253   23.5650 C   0  0  0  0  0  0  0  0  0  0  0  0
    6.4146   -1.9073   22.9632 N   0  0  0  0  0  0  0  0  0  0  0  0
    7.4084   -1.1878   23.7567 C   0  0  0  0  0  0  0  0  0  0  0  0
    8.8283   -1.4446   23.3022 C   0  0  0  0  0  0  0  0  0  0  0  0
    9.3071   -2.7498   23.3143 C   0  0  0  0  0  0  0  0  0  0  0  0
   10.6105   -3.0207   22.9372 C   0  0  0  0  0  0  0  0  0  0  0  0
   11.4438   -2.0151   22.4570 C   0  0  0  0  0  0  0  0  0  0  0  0
   10.9715   -0.7077   22.4671 C   0  0  0  0  0  0  0  0  0  0  0  0
   12.0270    0.5962   21.9721 Cl  0  0  0  0  0  0  0  0  0  0  0  0
    9.6820   -0.4135   22.9061 C   0  0  0  0  0  0  0  0  0  0  0  0
    9.3583    0.6249   22.9309 H   0  0  0  0  0  0  0  0  0  0  0  0
   12.4478   -2.2293   22.1077 H   0  0  0  0  0  0  0  0  0  0  0  0
   10.9574   -4.0311   23.0954 H   0  0  0  0  0  0  0  0  0  0  0  0
    8.6695   -3.5708   23.6375 H   0  0  0  0  0  0  0  0  0  0  0  0
    7.2852   -1.5644   24.7773 H   0  0  0  0  0  0  0  0  0  0  0  0
    7.2263   -0.1048   23.7557 H   0  0  0  0  0  0  0  0  0  0  0  0
    6.1516   -1.6491   21.6291 C   0  0  0  0  0  0  0  0  0  0  0  0
    5.3532   -2.3287   21.0102 O   0  0  0  0  0  0  0  0  0  0  0  0
    6.8945   -0.4909   20.9265 C   0  0  0  0  0  0  0  0  0  0  0  0
    6.1065    0.0830   19.7780 C   0  0  0  0  0  0  0  0  0  0  0  0
    6.4220   -0.2194   18.4776 C   0  0  0  0  0  0  0  0  0  0  0  0
    5.7637    0.2349   17.3774 N   0  0  0  0  0  0  0  0  0  0  0  0
    4.7403    1.0278   17.5797 C   0  0  0  0  0  0  0  0  0  0  0  0
    4.2873    1.4199   18.8695 C   0  0  0  0  0  0  0  0  0  0  0  0
    3.1677    2.2718   19.0429 C   0  0  0  0  0  0  0  0  0  0  0  0
    2.7500    2.6247   20.2978 C   0  0  0  0  0  0  0  0  0  0  0  0
    3.4385    2.1407   21.4326 C   0  0  0  0  0  0  0  0  0  0  0  0
    4.5276    1.3180   21.2885 C   0  0  0  0  0  0  0  0  0  0  0  0
    4.9832    0.9345   19.9995 C   0  0  0  0  0  0  0  0  0  0  0  0
    5.0477    0.9539   22.1685 H   0  0  0  0  0  0  0  0  0  0  0  0
    3.1087    2.4271   22.4263 H   0  0  0  0  0  0  0  0  0  0  0  0
    1.8954    3.2816   20.4290 H   0  0  0  0  0  0  0  0  0  0  0  0
    2.6618    2.6402   18.1554 H   0  0  0  0  0  0  0  0  0  0  0  0
    4.2110    1.3953   16.6991 H   0  0  0  0  0  0  0  0  0  0  0  0
    7.2657   -0.8699   18.2485 H   0  0  0  0  0  0  0  0  0  0  0  0
    7.1770    0.2911   21.6416 H   0  0  0  0  0  0  0  0  0  0  0  0
    7.8371   -0.9018   20.5402 H   0  0  0  0  0  0  0  0  0  0  0  0
    5.8739   -4.3137   23.0487 C   0  0  0  0  0  0  0  0  0  0  0  0
    5.2199   -5.3801   23.6573 C   0  0  0  0  0  0  0  0  0  0  0  0
    5.3195   -6.3719   23.2289 H   0  0  0  0  0  0  0  0  0  0  0  0
    6.4780   -4.4937   22.1647 H   0  0  0  0  0  0  0  0  0  0  0  0
    4.8769   -1.8424   25.1283 H   0  0  0  0  0  0  0  0  0  0  0  0
    3.6961   -3.7363   26.1840 H   0  0  0  0  0  0  0  0  0  0  0  0
    1.7378   -5.2274   25.5134 H   0  0  0  0  0  0  0  0  0  0  0  0
    1.5434   -6.9972   25.6078 H   0  0  0  0  0  0  0  0  0  0  0  0
    1.9502   -6.2229   24.0599 H   0  0  0  0  0  0  0  0  0  0  0  0
  1  2  1  0
  2  3  1  0
  3  4  1  0
  3  5  1  0
  3  6  1  0
  2  7  1  0
  7  8  3  0
  2  9  1  0
  9 10  2  0
 10 11  1  0
 11 12  2  0
 12 13  1  0
 13 14  1  0
 14 15  1  0
 15 16  2  0
 16 17  1  0
 17 18  2  0
 18 19  1  0
 19 20  1  0
 19 21  2  0
 21 22  1  0
 18 23  1  0
 17 24  1  0
 16 25  1  0
 14 26  1  0
 14 27  1  0
 13 28  1  0
 28 29  2  0
 28 30  1  0
 30 31  1  0
 31 32  2  0
 32 33  1  0
 33 34  2  0
 34 35  1  0
 35 36  2  0
 36 37  1  0
 37 38  2  0
 38 39  1  0
 39 40  2  0
 39 41  1  0
 38 42  1  0
 37 43  1  0
 36 44  1  0
 34 45  1  0
 32 46  1  0
 30 47  1  0
 30 48  1  0
 12 49  1  0
 49 50  2  0
 50 51  1  0
 49 52  1  0
 11 53  1  0
 10 54  1  0
  1 55  1  0
  1 56  1  0
  1 57  1  0
 50  9  1  0
 21 15  1  0
 40 31  1  0
 40 35  1  0
M  END
>  <cnnaffinities>  (78) 
[6.71037, 6.70833, 6.93494, 6.70595, 6.92374]

>  <score>  (78) 
6.71037

>  <index>  (78) 
77

>  <Smiles>  (78) 
C(C(C([H])([H])[H])(C#N)c1c(c(c(N(C(c2c(c(c(c(Cl)c2[H])[H])[H])[H])([H])[H])C(=O)C(c2c(nc(c3c(c(c(c(c23)[H])[H])[H])[H])[H])[H])([H])[H])c(c1[H])[H])[H])[H])([H])([H])[H]

>  <h>  (78) 
<NA>

>  <Training>  (78) 
True

>  <Success>  (78) 
True

>  <enamine_searched>  (78) 
False

>  <enamine_id>  (78) 
nan

$$$$

     RDKit          3D

 40 42  0  0  0  0  0  0  0  0999 V2000
    8.7140   -5.4251   25.0767 C   0  0  0  0  0  0  0  0  0  0  0  0
    8.4063   -4.6433   23.7961 C   0  0  0  0  0  0  0  0  0  0  0  0
    6.9786   -4.8622   23.3129 C   0  0  0  0  0  0  0  0  0  0  0  0
    6.7290   -4.1246   22.0053 C   0  0  0  0  0  0  0  0  0  0  0  0
    7.1010   -2.7170   22.0865 N   0  0  0  0  0  0  0  0  0  0  0  0
    6.2835   -1.8024   21.4681 C   0  0  0  0  0  0  0  0  0  0  0  0
    5.0874   -2.0079   21.3428 O   0  0  0  0  0  0  0  0  0  0  0  0
    6.9303   -0.5170   20.8978 C   0  0  0  0  0  0  0  0  0  0  0  0
    6.1186    0.0843   19.7735 C   0  0  0  0  0  0  0  0  0  0  0  0
    6.4261   -0.2141   18.4696 C   0  0  0  0  0  0  0  0  0  0  0  0
    5.7601    0.2357   17.3738 N   0  0  0  0  0  0  0  0  0  0  0  0
    4.7375    1.0284   17.5809 C   0  0  0  0  0  0  0  0  0  0  0  0
    4.2887    1.4167   18.8720 C   0  0  0  0  0  0  0  0  0  0  0  0
    3.1690    2.2690   19.0448 C   0  0  0  0  0  0  0  0  0  0  0  0
    2.7464    2.6213   20.2963 C   0  0  0  0  0  0  0  0  0  0  0  0
    3.4335    2.1296   21.4343 C   0  0  0  0  0  0  0  0  0  0  0  0
    4.5238    1.3028   21.2886 C   0  0  0  0  0  0  0  0  0  0  0  0
    4.9875    0.9287   20.0024 C   0  0  0  0  0  0  0  0  0  0  0  0
    5.0314    0.9163   22.1668 H   0  0  0  0  0  0  0  0  0  0  0  0
    3.0964    2.4140   22.4239 H   0  0  0  0  0  0  0  0  0  0  0  0
    1.8913    3.2774   20.4273 H   0  0  0  0  0  0  0  0  0  0  0  0
    2.6646    2.6406   18.1545 H   0  0  0  0  0  0  0  0  0  0  0  0
    4.2098    1.3954   16.6998 H   0  0  0  0  0  0  0  0  0  0  0  0
    7.2660   -0.8649   18.2372 H   0  0  0  0  0  0  0  0  0  0  0  0
    7.0719    0.2123   21.7085 H   0  0  0  0  0  0  0  0  0  0  0  0
    7.9370   -0.7597   20.5263 H   0  0  0  0  0  0  0  0  0  0  0  0
    8.4434   -2.4462   22.5780 C   0  0  0  0  0  0  0  0  0  0  0  0
    8.6997   -3.1559   23.9103 C   0  0  0  0  0  0  0  0  0  0  0  0
    9.7580   -3.0365   24.1637 H   0  0  0  0  0  0  0  0  0  0  0  0
    8.1019   -2.7103   24.7189 H   0  0  0  0  0  0  0  0  0  0  0  0
    9.1997   -2.7656   21.8353 H   0  0  0  0  0  0  0  0  0  0  0  0
    8.5470   -1.3706   22.7136 H   0  0  0  0  0  0  0  0  0  0  0  0
    5.6787   -4.1459   21.7216 H   0  0  0  0  0  0  0  0  0  0  0  0
    7.3034   -4.6184   21.2020 H   0  0  0  0  0  0  0  0  0  0  0  0
    6.8082   -5.9334   23.1525 H   0  0  0  0  0  0  0  0  0  0  0  0
    6.2704   -4.5304   24.0870 H   0  0  0  0  0  0  0  0  0  0  0  0
    9.0719   -4.9483   22.9913 H   0  0  0  0  0  0  0  0  0  0  0  0
    8.5326   -6.5003   24.9543 H   0  0  0  0  0  0  0  0  0  0  0  0
    8.0818   -5.0790   25.9085 H   0  0  0  0  0  0  0  0  0  0  0  0
    9.7596   -5.3024   25.3815 H   0  0  0  0  0  0  0  0  0  0  0  0
  1  2  1  0
  2  3  1  0
  3  4  1  0
  4  5  1  0
  5  6  1  0
  6  7  2  0
  6  8  1  0
  8  9  1  0
  9 10  2  0
 10 11  1  0
 11 12  2  0
 12 13  1  0
 13 14  2  0
 14 15  1  0
 15 16  2  0
 16 17  1  0
 17 18  2  0
 17 19  1  0
 16 20  1  0
 15 21  1  0
 14 22  1  0
 12 23  1  0
 10 24  1  0
  8 25  1  0
  8 26  1  0
  5 27  1  0
 27 28  1  0
 28 29  1  0
 28 30  1  0
 27 31  1  0
 27 32  1  0
  4 33  1  0
  4 34  1  0
  3 35  1  0
  3 36  1  0
  2 37  1  0
  1 38  1  0
  1 39  1  0
  1 40  1  0
 28  2  1  0
 18  9  1  0
 18 13  1  0
M  END
>  <cnnaffinities>  (79) 
[5.00705, 5.007, 5.08626]

>  <score>  (79) 
5.00705

>  <index>  (79) 
79

>  <Smiles>  (79) 
C(C1(C(C(N(C(=O)C(c2c(nc(c3c(c(c(c(c23)[H])[H])[H])[H])[H])[H])([H])[H])C(C1([H])[H])([H])[H])([H])[H])([H])[H])[H])([H])([H])[H]

>  <h>  (79) 
<NA>

>  <Training>  (79) 
True

>  <Success>  (79) 
True

>  <enamine_searched>  (79) 
False

>  <enamine_id>  (79) 
nan

$$$$

     RDKit          3D

 59 64  0  0  0  0  0  0  0  0999 V2000
    9.7552   -1.8531   21.9311 C   0  0  0  0  0  0  0  0  0  0  0  0
    8.5662   -0.9931   22.3976 C   0  0  1  0  0  0  0  0  0  0  0  0
    8.1277   -0.0244   21.2694 C   0  0  0  0  0  0  0  0  0  0  0  0
    6.8415   -0.5233   20.8326 N   0  0  0  0  0  0  0  0  0  0  0  0
    6.0952    0.0445   19.7686 C   0  0  0  0  0  0  0  0  0  0  0  0
    6.4422   -0.2280   18.4708 C   0  0  0  0  0  0  0  0  0  0  0  0
    5.7869    0.2464   17.3829 N   0  0  0  0  0  0  0  0  0  0  0  0
    4.7557    1.0283   17.5976 C   0  0  0  0  0  0  0  0  0  0  0  0
    4.2956    1.4092   18.8913 C   0  0  0  0  0  0  0  0  0  0  0  0
    3.1806    2.2740   19.0612 C   0  0  0  0  0  0  0  0  0  0  0  0
    2.7752    2.6415   20.3140 C   0  0  0  0  0  0  0  0  0  0  0  0
    3.4730    2.1723   21.4508 C   0  0  0  0  0  0  0  0  0  0  0  0
    4.5542    1.3365   21.3163 C   0  0  0  0  0  0  0  0  0  0  0  0
    4.9851    0.9159   20.0217 C   0  0  0  0  0  0  0  0  0  0  0  0
    5.0869    0.9903   22.2023 H   0  0  0  0  0  0  0  0  0  0  0  0
    3.1427    2.4760   22.4395 H   0  0  0  0  0  0  0  0  0  0  0  0
    1.9205    3.3001   20.4415 H   0  0  0  0  0  0  0  0  0  0  0  0
    2.6719    2.6380   18.1718 H   0  0  0  0  0  0  0  0  0  0  0  0
    4.2248    1.3904   16.7180 H   0  0  0  0  0  0  0  0  0  0  0  0
    7.2911   -0.8764   18.2608 H   0  0  0  0  0  0  0  0  0  0  0  0
    6.2963   -1.4939   21.6363 C   0  0  0  0  0  0  0  0  0  0  0  0
    5.2163   -2.0176   21.4424 O   0  0  0  0  0  0  0  0  0  0  0  0
    7.2669   -1.7714   22.8069 C   0  0  1  0  0  0  0  0  0  0  0  0
    7.4740   -3.2961   22.9569 C   0  0  0  0  0  0  0  0  0  0  0  0
    6.2617   -3.9462   23.4080 N   0  0  0  0  0  0  0  0  0  0  0  0
    5.8095   -5.1718   22.7930 C   0  0  0  0  0  0  0  0  0  0  0  0
    6.3767   -6.3944   23.4632 C   0  0  0  0  0  0  0  0  0  0  0  0
    7.6979   -6.6871   23.6993 C   0  0  0  0  0  0  0  0  0  0  0  0
    7.6933   -7.9800   24.2588 C   0  0  0  0  0  0  0  0  0  0  0  0
    6.4542   -8.4404   24.3959 N   0  0  0  0  0  0  0  0  0  0  0  0
    5.6682   -7.4607   23.9183 N   0  0  0  0  0  0  0  0  0  0  0  0
    4.2263   -7.5714   24.0216 C   0  0  0  0  0  0  0  0  0  0  0  0
    3.7901   -7.6022   23.0155 H   0  0  0  0  0  0  0  0  0  0  0  0
    4.0211   -8.5062   24.5513 H   0  0  0  0  0  0  0  0  0  0  0  0
    3.8381   -6.7068   24.5738 H   0  0  0  0  0  0  0  0  0  0  0  0
    8.5299   -8.6008   24.5592 H   0  0  0  0  0  0  0  0  0  0  0  0
    8.5042   -5.9843   23.5302 H   0  0  0  0  0  0  0  0  0  0  0  0
    4.7137   -5.1814   22.7961 H   0  0  0  0  0  0  0  0  0  0  0  0
    6.1360   -5.1090   21.7485 H   0  0  0  0  0  0  0  0  0  0  0  0
    5.6248   -3.5367   24.5351 C   0  0  0  0  0  0  0  0  0  0  0  0
    4.8497   -4.2708   25.1428 O   0  0  0  0  0  0  0  0  0  0  0  0
    5.8839   -2.1150   24.9291 C   0  0  0  0  0  0  0  0  0  0  0  0
    5.2799   -1.6360   26.0912 C   0  0  0  0  0  0  0  0  0  0  0  0
    5.3754   -0.2999   26.4295 C   0  0  0  0  0  0  0  0  0  0  0  0
    6.0756    0.5463   25.5804 C   0  0  0  0  0  0  0  0  0  0  0  0
    6.1457    1.8513   25.8972 F   0  0  0  0  0  0  0  0  0  0  0  0
    6.6966    0.0997   24.4314 C   0  0  0  0  0  0  0  0  0  0  0  0
    6.6359   -1.2625   24.1038 C   0  0  0  0  0  0  0  0  0  0  0  0
    7.2077    0.8342   23.8153 H   0  0  0  0  0  0  0  0  0  0  0  0
    4.9098    0.1098   27.3163 H   0  0  0  0  0  0  0  0  0  0  0  0
    4.7172   -2.3440   26.6917 H   0  0  0  0  0  0  0  0  0  0  0  0
    7.7532   -3.7204   21.9891 H   0  0  0  0  0  0  0  0  0  0  0  0
    8.2909   -3.4543   23.6804 H   0  0  0  0  0  0  0  0  0  0  0  0
    8.0543    1.0171   21.6186 H   0  0  0  0  0  0  0  0  0  0  0  0
    8.8387   -0.0293   20.4377 H   0  0  0  0  0  0  0  0  0  0  0  0
    8.9192   -0.4279   23.2698 H   0  0  0  0  0  0  0  0  0  0  0  0
   10.5968   -1.2070   21.6543 H   0  0  0  0  0  0  0  0  0  0  0  0
   10.1077   -2.5237   22.7204 H   0  0  0  0  0  0  0  0  0  0  0  0
    9.5005   -2.4597   21.0544 H   0  0  0  0  0  0  0  0  0  0  0  0
  1  2  1  0
  2  3  1  0
  3  4  1  0
  4  5  1  0
  5  6  2  0
  6  7  1  0
  7  8  2  0
  8  9  1  0
  9 10  2  0
 10 11  1  0
 11 12  2  0
 12 13  1  0
 13 14  2  0
 13 15  1  0
 12 16  1  0
 11 17  1  0
 10 18  1  0
  8 19  1  0
  6 20  1  0
  4 21  1  0
 21 22  2  0
 21 23  1  0
 23 24  1  1
 24 25  1  0
 25 26  1  0
 26 27  1  0
 27 28  2  0
 28 29  1  0
 29 30  2  0
 30 31  1  0
 31 32  1  0
 32 33  1  0
 32 34  1  0
 32 35  1  0
 29 36  1  0
 28 37  1  0
 26 38  1  0
 26 39  1  0
 25 40  1  0
 40 41  2  0
 40 42  1  0
 42 43  2  0
 43 44  1  0
 44 45  2  0
 45 46  1  0
 45 47  1  0
 47 48  2  0
 47 49  1  0
 44 50  1  0
 43 51  1  0
 24 52  1  0
 24 53  1  0
  3 54  1  0
  3 55  1  0
  2 56  1  1
  1 57  1  0
  1 58  1  0
  1 59  1  0
 23  2  1  0
 31 27  1  0
 48 42  1  0
 14  5  1  0
 48 23  1  0
 14  9  1  0
M  END
>  <cnnaffinities>  (80) 
[6.63407]

>  <score>  (80) 
6.63407

>  <index>  (80) 
80

>  <Smiles>  (80) 
C([C@]1(C(N(c2c(nc(c3c(c(c(c(c23)[H])[H])[H])[H])[H])[H])C(=O)[C@]21C(N(C(c1c(c(nn1C([H])([H])[H])[H])[H])([H])[H])C(=O)c1c(c(c(F)c(c21)[H])[H])[H])([H])[H])([H])[H])[H])([H])([H])[H]

>  <h>  (80) 
<NA>

>  <Training>  (80) 
True

>  <Success>  (80) 
True

>  <enamine_searched>  (80) 
False

>  <enamine_id>  (80) 
nan

$$$$

     RDKit          3D

 58 63  0  0  0  0  0  0  0  0999 V2000
    5.0404   -5.3919   26.4372 C   0  0  0  0  0  0  0  0  0  0  0  0
    5.9813   -4.2386   26.5973 C   0  0  0  0  0  0  0  0  0  0  0  0
    5.7722   -2.9738   26.4169 N   0  0  0  0  0  0  0  0  0  0  0  0
    7.0207   -2.3818   26.5770 C   0  0  0  0  0  0  0  0  0  0  0  0
    7.2485   -0.9058   26.4289 C   0  0  0  0  0  0  0  0  0  0  0  0
    8.0785   -0.5401   25.2887 N   0  0  0  0  0  0  0  0  0  0  0  0
    7.4575   -0.0759   24.0629 C   0  0  0  0  0  0  0  0  0  0  0  0
    8.2463   -0.4541   22.7882 C   0  0  2  0  0  0  0  0  0  0  0  0
    7.6572    0.4028   21.6611 C   0  0  0  0  0  0  0  0  0  0  0  0
    7.7626    1.6025   21.5211 O   0  0  0  0  0  0  0  0  0  0  0  0
    6.9242   -0.4056   20.8273 N   0  0  0  0  0  0  0  0  0  0  0  0
    6.1391    0.1091   19.7705 C   0  0  0  0  0  0  0  0  0  0  0  0
    6.4441   -0.2306   18.4768 C   0  0  0  0  0  0  0  0  0  0  0  0
    5.7790    0.2213   17.3844 N   0  0  0  0  0  0  0  0  0  0  0  0
    4.7603    1.0207   17.5960 C   0  0  0  0  0  0  0  0  0  0  0  0
    4.3117    1.4163   18.8881 C   0  0  0  0  0  0  0  0  0  0  0  0
    3.1842    2.2642   19.0528 C   0  0  0  0  0  0  0  0  0  0  0  0
    2.7466    2.6053   20.3021 C   0  0  0  0  0  0  0  0  0  0  0  0
    3.4154    2.1142   21.4482 C   0  0  0  0  0  0  0  0  0  0  0  0
    4.5122    1.3017   21.3166 C   0  0  0  0  0  0  0  0  0  0  0  0
    5.0036    0.9444   20.0246 C   0  0  0  0  0  0  0  0  0  0  0  0
    5.0141    0.9329   22.2076 H   0  0  0  0  0  0  0  0  0  0  0  0
    3.0602    2.3886   22.4378 H   0  0  0  0  0  0  0  0  0  0  0  0
    1.8875    3.2599   20.4258 H   0  0  0  0  0  0  0  0  0  0  0  0
    2.6841    2.6333   18.1613 H   0  0  0  0  0  0  0  0  0  0  0  0
    4.2194    1.3858   16.7218 H   0  0  0  0  0  0  0  0  0  0  0  0
    7.2943   -0.8855   18.2822 H   0  0  0  0  0  0  0  0  0  0  0  0
    6.8790   -1.7920   21.2339 C   0  0  0  0  0  0  0  0  0  0  0  0
    8.0059   -1.9146   22.2683 C   0  0  2  0  0  0  0  0  0  0  0  0
    7.7370   -2.9929   23.3139 C   0  0  0  0  0  0  0  0  0  0  0  0
    6.7850   -2.8360   23.8322 H   0  0  0  0  0  0  0  0  0  0  0  0
    8.5257   -3.0218   24.0720 H   0  0  0  0  0  0  0  0  0  0  0  0
    7.6928   -3.9813   22.8471 H   0  0  0  0  0  0  0  0  0  0  0  0
    8.9282   -2.1816   21.7354 H   0  0  0  0  0  0  0  0  0  0  0  0
    7.0246   -2.4378   20.3673 H   0  0  0  0  0  0  0  0  0  0  0  0
    5.9013   -2.0408   21.6706 H   0  0  0  0  0  0  0  0  0  0  0  0
    9.7173   -0.1696   23.0149 C   0  0  0  0  0  0  0  0  0  0  0  0
   10.5884    0.0747   21.9494 C   0  0  0  0  0  0  0  0  0  0  0  0
   11.9360    0.2565   22.2205 C   0  0  0  0  0  0  0  0  0  0  0  0
   12.8005    0.5107   21.2316 F   0  0  0  0  0  0  0  0  0  0  0  0
   12.4814    0.1776   23.4977 C   0  0  0  0  0  0  0  0  0  0  0  0
   11.6274   -0.1148   24.5346 C   0  0  0  0  0  0  0  0  0  0  0  0
   10.2669   -0.2749   24.2873 C   0  0  0  0  0  0  0  0  0  0  0  0
    9.4247   -0.6456   25.4386 C   0  0  0  0  0  0  0  0  0  0  0  0
    9.9358   -1.0411   26.4707 O   0  0  0  0  0  0  0  0  0  0  0  0
   11.9578   -0.2252   25.5619 H   0  0  0  0  0  0  0  0  0  0  0  0
   13.5495    0.3095   23.6364 H   0  0  0  0  0  0  0  0  0  0  0  0
   10.2119    0.0862   20.9324 H   0  0  0  0  0  0  0  0  0  0  0  0
    6.4479   -0.4988   24.0161 H   0  0  0  0  0  0  0  0  0  0  0  0
    7.3538    1.0147   24.0777 H   0  0  0  0  0  0  0  0  0  0  0  0
    7.7307   -0.5088   27.3284 H   0  0  0  0  0  0  0  0  0  0  0  0
    6.2826   -0.4107   26.3153 H   0  0  0  0  0  0  0  0  0  0  0  0
    7.9264   -3.3484   26.8469 C   0  0  0  0  0  0  0  0  0  0  0  0
    7.2724   -4.5479   26.8816 O   0  0  0  0  0  0  0  0  0  0  0  0
    8.9845   -3.3565   27.0464 H   0  0  0  0  0  0  0  0  0  0  0  0
    5.6204   -6.3056   26.4462 H   0  0  0  0  0  0  0  0  0  0  0  0
    4.2839   -5.4542   27.2211 H   0  0  0  0  0  0  0  0  0  0  0  0
    4.5226   -5.3377   25.4791 H   0  0  0  0  0  0  0  0  0  0  0  0
  1  2  1  0
  2  3  2  0
  3  4  1  0
  4  5  1  0
  5  6  1  0
  6  7  1  0
  8  7  1  1
  8  9  1  0
  9 10  2  0
  9 11  1  0
 11 12  1  0
 12 13  2  0
 13 14  1  0
 14 15  2  0
 15 16  1  0
 16 17  2  0
 17 18  1  0
 18 19  2  0
 19 20  1  0
 20 21  2  0
 20 22  1  0
 19 23  1  0
 18 24  1  0
 17 25  1  0
 15 26  1  0
 13 27  1  0
 11 28  1  0
 28 29  1  0
 29 30  1  0
 30 31  1  0
 30 32  1  0
 30 33  1  0
 29 34  1  6
 28 35  1  0
 28 36  1  0
  8 37  1  0
 37 38  2  0
 38 39  1  0
 39 40  1  0
 39 41  2  0
 41 42  1  0
 42 43  2  0
 43 44  1  0
 44 45  2  0
 42 46  1  0
 41 47  1  0
 38 48  1  0
  7 49  1  0
  7 50  1  0
  5 51  1  0
  5 52  1  0
  4 53  2  0
 53 54  1  0
 53 55  1  0
  1 56  1  0
  1 57  1  0
  1 58  1  0
 54  2  1  0
 44  6  1  0
 29  8  1  0
 43 37  1  0
 21 12  1  0
 21 16  1  0
M  END
>  <cnnaffinities>  (81) 
[6.54946, 6.50994]

>  <score>  (81) 
6.54946

>  <index>  (81) 
81

>  <Smiles>  (81) 
C(c1nc(C(N2C([C@@]3(C(=O)N(c4c(nc(c5c(c(c(c(c45)[H])[H])[H])[H])[H])[H])C([C@@]3(C([H])([H])[H])[H])([H])[H])c3c(c(F)c(c(c3C2=O)[H])[H])[H])([H])[H])([H])[H])c(o1)[H])([H])([H])[H]

>  <h>  (81) 
<NA>

>  <Training>  (81) 
True

>  <Success>  (81) 
True

>  <enamine_searched>  (81) 
False

>  <enamine_id>  (81) 
nan

$$$$

     RDKit          3D

 55 60  0  0  0  0  0  0  0  0999 V2000
    7.7530   -3.0155   23.3119 C   0  0  0  0  0  0  0  0  0  0  0  0
    8.0188   -1.9211   22.2748 C   0  0  1  0  0  0  0  0  0  0  0  0
    6.8974   -1.8000   21.2292 C   0  0  0  0  0  0  0  0  0  0  0  0
    6.9287   -0.4041   20.8346 N   0  0  0  0  0  0  0  0  0  0  0  0
    6.1452    0.1158   19.7709 C   0  0  0  0  0  0  0  0  0  0  0  0
    6.4451   -0.2193   18.4743 C   0  0  0  0  0  0  0  0  0  0  0  0
    5.7680    0.2233   17.3874 N   0  0  0  0  0  0  0  0  0  0  0  0
    4.7482    1.0217   17.5964 C   0  0  0  0  0  0  0  0  0  0  0  0
    4.2988    1.4192   18.8862 C   0  0  0  0  0  0  0  0  0  0  0  0
    3.1704    2.2665   19.0564 C   0  0  0  0  0  0  0  0  0  0  0  0
    2.7415    2.6095   20.3102 C   0  0  0  0  0  0  0  0  0  0  0  0
    3.4169    2.1112   21.4471 C   0  0  0  0  0  0  0  0  0  0  0  0
    4.5108    1.2953   21.3058 C   0  0  0  0  0  0  0  0  0  0  0  0
    5.0008    0.9446   20.0164 C   0  0  0  0  0  0  0  0  0  0  0  0
    5.0201    0.9218   22.1884 H   0  0  0  0  0  0  0  0  0  0  0  0
    3.0748    2.3899   22.4396 H   0  0  0  0  0  0  0  0  0  0  0  0
    1.8854    3.2673   20.4373 H   0  0  0  0  0  0  0  0  0  0  0  0
    2.6671    2.6384   18.1679 H   0  0  0  0  0  0  0  0  0  0  0  0
    4.2215    1.3865   16.7160 H   0  0  0  0  0  0  0  0  0  0  0  0
    7.2856   -0.8790   18.2633 H   0  0  0  0  0  0  0  0  0  0  0  0
    7.6504    0.4029   21.6875 C   0  0  0  0  0  0  0  0  0  0  0  0
    7.7532    1.6079   21.5615 O   0  0  0  0  0  0  0  0  0  0  0  0
    8.2440   -0.4612   22.8121 C   0  0  1  0  0  0  0  0  0  0  0  0
    7.4576   -0.1180   24.1052 C   0  0  0  0  0  0  0  0  0  0  0  0
    8.0799   -0.6497   25.3102 N   0  0  0  0  0  0  0  0  0  0  0  0
    7.2437   -1.0389   26.4359 C   0  0  0  0  0  0  0  0  0  0  0  0
    7.1324   -2.5297   26.6119 C   0  0  0  0  0  0  0  0  0  0  0  0
    6.0691   -3.2608   26.5110 N   0  0  0  0  0  0  0  0  0  0  0  0
    6.5070   -4.5480   26.8065 C   0  0  0  0  0  0  0  0  0  0  0  0
    7.8278   -4.5048   27.0851 C   0  0  0  0  0  0  0  0  0  0  0  0
    8.2385   -3.2166   26.9458 O   0  0  0  0  0  0  0  0  0  0  0  0
    8.5749   -5.1912   27.4361 H   0  0  0  0  0  0  0  0  0  0  0  0
    5.8431   -5.3998   26.7602 H   0  0  0  0  0  0  0  0  0  0  0  0
    7.6269   -0.5737   27.3529 H   0  0  0  0  0  0  0  0  0  0  0  0
    6.2325   -0.6633   26.2634 H   0  0  0  0  0  0  0  0  0  0  0  0
    9.4407   -0.6712   25.4649 C   0  0  0  0  0  0  0  0  0  0  0  0
    9.9938   -1.0058   26.4916 O   0  0  0  0  0  0  0  0  0  0  0  0
   10.2697   -0.2668   24.3067 C   0  0  0  0  0  0  0  0  0  0  0  0
   11.6344   -0.0797   24.5418 C   0  0  0  0  0  0  0  0  0  0  0  0
   12.4647    0.2040   23.4829 C   0  0  0  0  0  0  0  0  0  0  0  0
   11.9229    0.2732   22.2086 C   0  0  0  0  0  0  0  0  0  0  0  0
   12.7952    0.5439   21.2290 F   0  0  0  0  0  0  0  0  0  0  0  0
   10.5774    0.0733   21.9540 C   0  0  0  0  0  0  0  0  0  0  0  0
    9.7188   -0.1665   23.0333 C   0  0  0  0  0  0  0  0  0  0  0  0
   10.1717    0.0967   20.9509 H   0  0  0  0  0  0  0  0  0  0  0  0
   13.5316    0.3567   23.5709 H   0  0  0  0  0  0  0  0  0  0  0  0
   12.0211   -0.1776   25.5526 H   0  0  0  0  0  0  0  0  0  0  0  0
    7.3882    0.9818   24.1463 H   0  0  0  0  0  0  0  0  0  0  0  0
    6.4449   -0.5427   24.0414 H   0  0  0  0  0  0  0  0  0  0  0  0
    7.0661   -2.4357   20.3577 H   0  0  0  0  0  0  0  0  0  0  0  0
    5.9206   -2.0779   21.6569 H   0  0  0  0  0  0  0  0  0  0  0  0
    8.9512   -2.1697   21.7449 H   0  0  0  0  0  0  0  0  0  0  0  0
    8.5596   -3.0454   24.0513 H   0  0  0  0  0  0  0  0  0  0  0  0
    6.8100   -2.8512   23.8477 H   0  0  0  0  0  0  0  0  0  0  0  0
    7.6954   -4.0008   22.8310 H   0  0  0  0  0  0  0  0  0  0  0  0
  1  2  1  0
  2  3  1  0
  3  4  1  0
  4  5  1  0
  5  6  2  0
  6  7  1  0
  7  8  2  0
  8  9  1  0
  9 10  2  0
 10 11  1  0
 11 12  2  0
 12 13  1  0
 13 14  2  0
 13 15  1  0
 12 16  1  0
 11 17  1  0
 10 18  1  0
  8 19  1  0
  6 20  1  0
  4 21  1  0
 21 22  2  0
 21 23  1  0
 23 24  1  1
 24 25  1  0
 25 26  1  0
 26 27  1  0
 27 28  2  0
 28 29  1  0
 29 30  2  0
 30 31  1  0
 30 32  1  0
 29 33  1  0
 26 34  1  0
 26 35  1  0
 25 36  1  0
 36 37  2  0
 36 38  1  0
 38 39  2  0
 39 40  1  0
 40 41  2  0
 41 42  1  0
 41 43  1  0
 43 44  2  0
 43 45  1  0
 40 46  1  0
 39 47  1  0
 24 48  1  0
 24 49  1  0
  3 50  1  0
  3 51  1  0
  2 52  1  6
  1 53  1  0
  1 54  1  0
  1 55  1  0
 23  2  1  0
 31 27  1  0
 44 38  1  0
 14  5  1  0
 44 23  1  0
 14  9  1  0
M  END
>  <cnnaffinities>  (82) 
[6.52665, 6.57607, 6.57495, 6.51382]

>  <score>  (82) 
6.52665

>  <index>  (82) 
82

>  <Smiles>  (82) 
C([C@]1(C(N(c2c(nc(c3c(c(c(c(c23)[H])[H])[H])[H])[H])[H])C(=O)[C@]21C(N(C(c1nc(c(o1)[H])[H])([H])[H])C(=O)c1c(c(c(F)c(c21)[H])[H])[H])([H])[H])([H])[H])[H])([H])([H])[H]

>  <h>  (82) 
<NA>

>  <Training>  (82) 
True

>  <Success>  (82) 
True

>  <enamine_searched>  (82) 
False

>  <enamine_id>  (82) 
nan

$$$$

     RDKit          3D

 72 77  0  0  0  0  0  0  0  0999 V2000
    6.9677    1.5861   29.8232 C   0  0  0  0  0  0  0  0  0  0  0  0
    5.7193    0.8169   29.4189 C   0  0  2  0  0  0  0  0  0  0  0  0
    4.9603    0.3566   30.6548 C   0  0  0  0  0  0  0  0  0  0  0  0
    3.8203   -0.4073   30.3408 O   0  0  0  0  0  0  0  0  0  0  0  0
    4.1984   -1.5793   29.6558 C   0  0  0  0  0  0  0  0  0  0  0  0
    4.8339   -1.2735   28.3048 C   0  0  1  0  0  0  0  0  0  0  0  0
    3.8194   -0.6479   27.3551 C   0  0  0  0  0  0  0  0  0  0  0  0
    2.9456   -1.2995   27.2659 H   0  0  0  0  0  0  0  0  0  0  0  0
    3.4710    0.3156   27.7347 H   0  0  0  0  0  0  0  0  0  0  0  0
    4.2266   -0.5061   26.3509 H   0  0  0  0  0  0  0  0  0  0  0  0
    6.0489   -0.3757   28.5342 N   0  0  0  0  0  4  0  0  0  0  0  0
    6.7727    0.0279   27.2823 C   0  0  0  0  0  0  0  0  0  0  0  0
    7.1915   -1.1440   26.3871 C   0  0  0  0  0  0  0  0  0  0  0  0
    8.0541   -0.7337   25.2856 N   0  0  0  0  0  0  0  0  0  0  0  0
    7.4683   -0.1406   24.0981 C   0  0  0  0  0  0  0  0  0  0  0  0
    8.2537   -0.4790   22.8007 C   0  0  2  0  0  0  0  0  0  0  0  0
    7.6638    0.3891   21.6774 C   0  0  0  0  0  0  0  0  0  0  0  0
    7.7691    1.5931   21.5415 O   0  0  0  0  0  0  0  0  0  0  0  0
    6.9261   -0.4105   20.8349 N   0  0  0  0  0  0  0  0  0  0  0  0
    6.1432    0.1106   19.7717 C   0  0  0  0  0  0  0  0  0  0  0  0
    6.4446   -0.2256   18.4768 C   0  0  0  0  0  0  0  0  0  0  0  0
    5.7755    0.2246   17.3844 N   0  0  0  0  0  0  0  0  0  0  0  0
    4.7548    1.0217   17.5974 C   0  0  0  0  0  0  0  0  0  0  0  0
    4.3050    1.4156   18.8885 C   0  0  0  0  0  0  0  0  0  0  0  0
    3.1754    2.2612   19.0563 C   0  0  0  0  0  0  0  0  0  0  0  0
    2.7390    2.5997   20.3067 C   0  0  0  0  0  0  0  0  0  0  0  0
    3.4115    2.1060   21.4485 C   0  0  0  0  0  0  0  0  0  0  0  0
    4.5082    1.2954   21.3138 C   0  0  0  0  0  0  0  0  0  0  0  0
    5.0015    0.9413   20.0246 C   0  0  0  0  0  0  0  0  0  0  0  0
    5.0156    0.9246   22.2000 H   0  0  0  0  0  0  0  0  0  0  0  0
    3.0617    2.3807   22.4396 H   0  0  0  0  0  0  0  0  0  0  0  0
    1.8804    3.2545   20.4326 H   0  0  0  0  0  0  0  0  0  0  0  0
    2.6748    2.6324   18.1647 H   0  0  0  0  0  0  0  0  0  0  0  0
    4.2199    1.3886   16.7197 H   0  0  0  0  0  0  0  0  0  0  0  0
    7.2912   -0.8822   18.2717 H   0  0  0  0  0  0  0  0  0  0  0  0
    6.8829   -1.8023   21.2287 C   0  0  0  0  0  0  0  0  0  0  0  0
    8.0161   -1.9359   22.2575 C   0  0  2  0  0  0  0  0  0  0  0  0
    7.7525   -3.0312   23.2910 C   0  0  0  0  0  0  0  0  0  0  0  0
    6.8164   -2.8585   23.8328 H   0  0  0  0  0  0  0  0  0  0  0  0
    8.5560   -3.0872   24.0295 H   0  0  0  0  0  0  0  0  0  0  0  0
    7.6688   -4.0104   22.8119 H   0  0  0  0  0  0  0  0  0  0  0  0
    8.9363   -2.1897   21.7143 H   0  0  0  0  0  0  0  0  0  0  0  0
    5.9061   -2.0572   21.6654 H   0  0  0  0  0  0  0  0  0  0  0  0
    7.0222   -2.4402   20.3545 H   0  0  0  0  0  0  0  0  0  0  0  0
    9.7270   -0.1883   23.0395 C   0  0  0  0  0  0  0  0  0  0  0  0
   10.6267    0.0269   21.9831 C   0  0  0  0  0  0  0  0  0  0  0  0
   11.9821    0.1595   22.2691 C   0  0  0  0  0  0  0  0  0  0  0  0
   13.2354    0.2080   21.0667 Cl  0  0  0  0  0  0  0  0  0  0  0  0
   12.4718    0.1625   23.5737 C   0  0  0  0  0  0  0  0  0  0  0  0
   11.5971   -0.0987   24.5957 C   0  0  0  0  0  0  0  0  0  0  0  0
   10.2494   -0.2881   24.3249 C   0  0  0  0  0  0  0  0  0  0  0  0
    9.4042   -0.7089   25.4700 C   0  0  0  0  0  0  0  0  0  0  0  0
    9.9440   -1.0359   26.5061 O   0  0  0  0  0  0  0  0  0  0  0  0
   11.9158   -0.2085   25.6231 H   0  0  0  0  0  0  0  0  0  0  0  0
   13.5321    0.3034   23.7560 H   0  0  0  0  0  0  0  0  0  0  0  0
   10.2502    0.0635   20.9641 H   0  0  0  0  0  0  0  0  0  0  0  0
    7.4435    0.9565   24.1813 H   0  0  0  0  0  0  0  0  0  0  0  0
    6.4348   -0.4981   24.0191 H   0  0  0  0  0  0  0  0  0  0  0  0
    6.3066   -1.6317   25.9583 H   0  0  0  0  0  0  0  0  0  0  0  0
    7.7359   -1.8930   26.9628 H   0  0  0  0  0  0  0  0  0  0  0  0
    6.1462    0.7183   26.7047 H   0  0  0  0  0  0  0  0  0  0  0  0
    7.6724    0.5785   27.5652 H   0  0  0  0  0  0  0  0  0  0  0  0
    6.7362   -0.9407   29.0761 H   0  0  0  0  0  0  0  0  0  0  0  0
    5.1994   -2.2188   27.8914 H   0  0  0  0  0  0  0  0  0  0  0  0
    3.2859   -2.1695   29.5281 H   0  0  0  0  0  0  0  0  0  0  0  0
    4.9048   -2.1579   30.2701 H   0  0  0  0  0  0  0  0  0  0  0  0
    5.6370   -0.2264   31.3008 H   0  0  0  0  0  0  0  0  0  0  0  0
    4.6081    1.2235   31.2213 H   0  0  0  0  0  0  0  0  0  0  0  0
    5.0604    1.4728   28.8445 H   0  0  0  0  0  0  0  0  0  0  0  0
    7.3903    2.1561   28.9933 H   0  0  0  0  0  0  0  0  0  0  0  0
    6.7283    2.2960   30.6185 H   0  0  0  0  0  0  0  0  0  0  0  0
    7.7331    0.9001   30.2032 H   0  0  0  0  0  0  0  0  0  0  0  0
  1  2  1  0
  2  3  1  0
  3  4  1  0
  4  5  1  0
  5  6  1  0
  6  7  1  0
  7  8  1  0
  7  9  1  0
  7 10  1  0
  6 11  1  0
 11 12  1  0
 12 13  1  0
 13 14  1  0
 14 15  1  0
 16 15  1  1
 16 17  1  0
 17 18  2  0
 17 19  1  0
 19 20  1  0
 20 21  2  0
 21 22  1  0
 22 23  2  0
 23 24  1  0
 24 25  2  0
 25 26  1  0
 26 27  2  0
 27 28  1  0
 28 29  2  0
 28 30  1  0
 27 31  1  0
 26 32  1  0
 25 33  1  0
 23 34  1  0
 21 35  1  0
 19 36  1  0
 36 37  1  0
 37 38  1  0
 38 39  1  0
 38 40  1  0
 38 41  1  0
 37 42  1  6
 36 43  1  0
 36 44  1  0
 16 45  1  0
 45 46  2  0
 46 47  1  0
 47 48  1  0
 47 49  2  0
 49 50  1  0
 50 51  2  0
 51 52  1  0
 52 53  2  0
 50 54  1  0
 49 55  1  0
 46 56  1  0
 15 57  1  0
 15 58  1  0
 13 59  1  0
 13 60  1  0
 12 61  1  0
 12 62  1  0
 11 63  1  0
  6 64  1  6
  5 65  1  0
  5 66  1  0
  3 67  1  0
  3 68  1  0
  2 69  1  6
  1 70  1  0
  1 71  1  0
  1 72  1  0
 11  2  1  0
 52 14  1  0
 37 16  1  0
 51 45  1  0
 29 20  1  0
 29 24  1  0
M  CHG  1  11   1
M  END
>  <cnnaffinities>  (83) 
[6.4539, 6.48884, 6.47886]

>  <score>  (83) 
6.4539

>  <index>  (83) 
83

>  <Smiles>  (83) 
C([C@@]1(C(OC([C@@](C([H])([H])[H])([N+]1(C(C(N1C([C@@]2(C(=O)N(c3c(nc(c4c(c(c(c(c34)[H])[H])[H])[H])[H])[H])C([C@@]2(C([H])([H])[H])[H])([H])[H])c2c(c(Cl)c(c(c2C1=O)[H])[H])[H])([H])[H])([H])[H])([H])[H])[H])[H])([H])[H])([H])[H])[H])([H])([H])[H]

>  <h>  (83) 
<NA>

>  <Training>  (83) 
True

>  <Success>  (83) 
True

>  <enamine_searched>  (83) 
False

>  <enamine_id>  (83) 
nan

$$$$

     RDKit          3D

 60 65  0  0  0  0  0  0  0  0999 V2000
    7.3563   -8.7209   22.9158 C   0  0  0  0  0  0  0  0  0  0  0  0
    6.6597   -7.5541   22.4499 N   0  0  0  0  0  0  0  0  0  0  0  0
    7.1380   -6.6993   21.5147 C   0  0  0  0  0  0  0  0  0  0  0  0
    8.0168   -6.9666   20.7144 O   0  0  0  0  0  0  0  0  0  0  0  0
    6.3908   -5.3848   21.5117 C   0  0  0  0  0  0  0  0  0  0  0  0
    6.7519   -4.3917   22.4826 N   0  0  0  0  0  0  0  0  0  0  0  0
    7.8090   -3.4396   22.2015 C   0  0  0  0  0  0  0  0  0  0  0  0
    7.4094   -2.0057   22.6101 C   0  0  2  0  0  0  0  0  0  0  0  0
    6.3118   -1.4860   21.6485 C   0  0  0  0  0  0  0  0  0  0  0  0
    5.1661   -1.8875   21.5607 O   0  0  0  0  0  0  0  0  0  0  0  0
    6.8376   -0.4872   20.8565 N   0  0  0  0  0  0  0  0  0  0  0  0
    6.1089    0.0678   19.7794 C   0  0  0  0  0  0  0  0  0  0  0  0
    6.4623   -0.2125   18.4834 C   0  0  0  0  0  0  0  0  0  0  0  0
    5.8019    0.2388   17.3881 N   0  0  0  0  0  0  0  0  0  0  0  0
    4.7673    1.0189   17.5931 C   0  0  0  0  0  0  0  0  0  0  0  0
    4.3091    1.4101   18.8836 C   0  0  0  0  0  0  0  0  0  0  0  0
    3.1907    2.2697   19.0444 C   0  0  0  0  0  0  0  0  0  0  0  0
    2.7847    2.6503   20.2935 C   0  0  0  0  0  0  0  0  0  0  0  0
    3.4779    2.1949   21.4381 C   0  0  0  0  0  0  0  0  0  0  0  0
    4.5610    1.3608   21.3096 C   0  0  0  0  0  0  0  0  0  0  0  0
    4.9966    0.9350   20.0220 C   0  0  0  0  0  0  0  0  0  0  0  0
    5.0952    1.0169   22.1904 H   0  0  0  0  0  0  0  0  0  0  0  0
    3.1520    2.5155   22.4238 H   0  0  0  0  0  0  0  0  0  0  0  0
    1.9317    3.3130   20.4149 H   0  0  0  0  0  0  0  0  0  0  0  0
    2.6813    2.6270   18.1522 H   0  0  0  0  0  0  0  0  0  0  0  0
    4.2327    1.3843   16.7148 H   0  0  0  0  0  0  0  0  0  0  0  0
    7.3083   -0.8693   18.2842 H   0  0  0  0  0  0  0  0  0  0  0  0
    8.2774   -0.3789   20.9736 C   0  0  0  0  0  0  0  0  0  0  0  0
    8.5685   -0.9934   22.3499 C   0  0  2  0  0  0  0  0  0  0  0  0
    9.9934   -1.5292   22.4404 C   0  0  0  0  0  0  0  0  0  0  0  0
   10.7159   -0.7177   22.3067 H   0  0  0  0  0  0  0  0  0  0  0  0
   10.1928   -2.0045   23.4061 H   0  0  0  0  0  0  0  0  0  0  0  0
   10.1857   -2.2680   21.6541 H   0  0  0  0  0  0  0  0  0  0  0  0
    8.4609   -0.1913   23.0802 H   0  0  0  0  0  0  0  0  0  0  0  0
    8.7993   -0.9324   20.1786 H   0  0  0  0  0  0  0  0  0  0  0  0
    8.5891    0.6686   20.9151 H   0  0  0  0  0  0  0  0  0  0  0  0
    6.8954   -2.0747   24.0389 C   0  0  0  0  0  0  0  0  0  0  0  0
    6.8506   -0.9265   24.8374 C   0  0  0  0  0  0  0  0  0  0  0  0
    6.3749   -0.9980   26.1331 C   0  0  0  0  0  0  0  0  0  0  0  0
    6.3346    0.4529   27.0956 Cl  0  0  0  0  0  0  0  0  0  0  0  0
    5.9299   -2.1968   26.6876 C   0  0  0  0  0  0  0  0  0  0  0  0
    5.9302   -3.3261   25.8962 C   0  0  0  0  0  0  0  0  0  0  0  0
    6.3810   -3.2671   24.5791 C   0  0  0  0  0  0  0  0  0  0  0  0
    6.2394   -4.4952   23.7482 C   0  0  0  0  0  0  0  0  0  0  0  0
    5.6367   -5.5012   24.1228 O   0  0  0  0  0  0  0  0  0  0  0  0
    5.5724   -4.2780   26.2718 H   0  0  0  0  0  0  0  0  0  0  0  0
    5.5798   -2.2270   27.7119 H   0  0  0  0  0  0  0  0  0  0  0  0
    7.1806    0.0362   24.4634 H   0  0  0  0  0  0  0  0  0  0  0  0
    8.0143   -3.4614   21.1439 H   0  0  0  0  0  0  0  0  0  0  0  0
    8.7234   -3.7370   22.7310 H   0  0  0  0  0  0  0  0  0  0  0  0
    4.9422   -5.5522   21.1791 C   0  0  0  0  0  0  0  0  0  0  0  0
    5.8634   -4.9289   20.1863 C   0  0  0  0  0  0  0  0  0  0  0  0
    6.1576   -5.4881   19.3049 H   0  0  0  0  0  0  0  0  0  0  0  0
    5.7900   -3.8516   20.0925 H   0  0  0  0  0  0  0  0  0  0  0  0
    4.6186   -6.5795   21.0257 H   0  0  0  0  0  0  0  0  0  0  0  0
    4.2710   -4.9041   21.7245 H   0  0  0  0  0  0  0  0  0  0  0  0
    5.8309   -7.2487   22.9433 H   0  0  0  0  0  0  0  0  0  0  0  0
    7.7698   -9.2847   22.0836 H   0  0  0  0  0  0  0  0  0  0  0  0
    8.1708   -8.5028   23.6132 H   0  0  0  0  0  0  0  0  0  0  0  0
    6.6546   -9.3718   23.4379 H   0  0  0  0  0  0  0  0  0  0  0  0
  1  2  1  0
  2  3  1  0
  3  4  2  0
  3  5  1  0
  5  6  1  0
  6  7  1  0
  8  7  1  6
  8  9  1  0
  9 10  2  0
  9 11  1  0
 11 12  1  0
 12 13  2  0
 13 14  1  0
 14 15  2  0
 15 16  1  0
 16 17  2  0
 17 18  1  0
 18 19  2  0
 19 20  1  0
 20 21  2  0
 20 22  1  0
 19 23  1  0
 18 24  1  0
 17 25  1  0
 15 26  1  0
 13 27  1  0
 11 28  1  0
 28 29  1  0
 29 30  1  0
 30 31  1  0
 30 32  1  0
 30 33  1  0
 29 34  1  1
 28 35  1  0
 28 36  1  0
  8 37  1  0
 37 38  2  0
 38 39  1  0
 39 40  1  0
 39 41  2  0
 41 42  1  0
 42 43  2  0
 43 44  1  0
 44 45  2  0
 42 46  1  0
 41 47  1  0
 38 48  1  0
  7 49  1  0
  7 50  1  0
  5 51  1  0
 51 52  1  0
 52 53  1  0
 52 54  1  0
 51 55  1  0
 51 56  1  0
  2 57  1  0
  1 58  1  0
  1 59  1  0
  1 60  1  0
 52  5  1  0
 44  6  1  0
 29  8  1  0
 43 37  1  0
 21 12  1  0
 21 16  1  0
M  END
>  <cnnaffinities>  (84) 
[6.66395]

>  <score>  (84) 
6.66395

>  <index>  (84) 
84

>  <Smiles>  (84) 
C(N(C(=O)C1(N2C([C@@]3(C(=O)N(c4c(nc(c5c(c(c(c(c45)[H])[H])[H])[H])[H])[H])C([C@@]3(C([H])([H])[H])[H])([H])[H])c3c(c(Cl)c(c(c3C2=O)[H])[H])[H])([H])[H])C(C1([H])[H])([H])[H])[H])([H])([H])[H]

>  <h>  (84) 
<NA>

>  <Training>  (84) 
True

>  <Success>  (84) 
True

>  <enamine_searched>  (84) 
False

>  <enamine_id>  (84) 
nan

$$$$

     RDKit          3D

 55 60  0  0  0  0  0  0  0  0999 V2000
    9.7290   -1.8769   21.9044 C   0  0  0  0  0  0  0  0  0  0  0  0
    8.6144   -0.9180   22.3572 C   0  0  1  0  0  0  0  0  0  0  0  0
    8.1805   -0.0130   21.1857 C   0  0  0  0  0  0  0  0  0  0  0  0
    6.8730   -0.4955   20.8172 N   0  0  0  0  0  0  0  0  0  0  0  0
    6.1098    0.0606   19.7695 C   0  0  0  0  0  0  0  0  0  0  0  0
    6.4587   -0.2182   18.4734 C   0  0  0  0  0  0  0  0  0  0  0  0
    5.7954    0.2385   17.3854 N   0  0  0  0  0  0  0  0  0  0  0  0
    4.7599    1.0153   17.6006 C   0  0  0  0  0  0  0  0  0  0  0  0
    4.3095    1.4013   18.8954 C   0  0  0  0  0  0  0  0  0  0  0  0
    3.1957    2.2640   19.0576 C   0  0  0  0  0  0  0  0  0  0  0  0
    2.7884    2.6478   20.3056 C   0  0  0  0  0  0  0  0  0  0  0  0
    3.4825    2.1895   21.4517 C   0  0  0  0  0  0  0  0  0  0  0  0
    4.5657    1.3522   21.3272 C   0  0  0  0  0  0  0  0  0  0  0  0
    4.9975    0.9222   20.0320 C   0  0  0  0  0  0  0  0  0  0  0  0
    5.0923    1.0222   22.2258 H   0  0  0  0  0  0  0  0  0  0  0  0
    3.1572    2.5153   22.4362 H   0  0  0  0  0  0  0  0  0  0  0  0
    1.9366    3.3118   20.4277 H   0  0  0  0  0  0  0  0  0  0  0  0
    2.6902    2.6236   18.1664 H   0  0  0  0  0  0  0  0  0  0  0  0
    4.2260    1.3946   16.7287 H   0  0  0  0  0  0  0  0  0  0  0  0
    7.3080   -0.8733   18.2809 H   0  0  0  0  0  0  0  0  0  0  0  0
    6.3300   -1.3991   21.6928 C   0  0  0  0  0  0  0  0  0  0  0  0
    5.2533   -1.9366   21.5367 O   0  0  0  0  0  0  0  0  0  0  0  0
    7.3057   -1.5870   22.8666 C   0  0  1  0  0  0  0  0  0  0  0  0
    7.4701   -3.0801   23.1586 C   0  0  0  0  0  0  0  0  0  0  0  0
    6.2558   -3.6363   23.7038 N   0  0  0  0  0  0  0  0  0  0  0  0
    5.7885   -4.9126   23.2215 C   0  0  0  0  0  0  0  0  0  0  0  0
    6.5027   -6.0843   23.8331 C   0  0  0  0  0  0  0  0  0  0  0  0
    6.0914   -6.9671   24.7735 C   0  0  0  0  0  0  0  0  0  0  0  0
    7.0783   -7.9036   24.9151 O   0  0  0  0  0  0  0  0  0  0  0  0
    8.0700   -7.4885   24.1100 C   0  0  0  0  0  0  0  0  0  0  0  0
    7.7956   -6.4140   23.4486 N   0  0  0  0  0  0  0  0  0  0  0  0
    8.9758   -8.0852   24.0958 H   0  0  0  0  0  0  0  0  0  0  0  0
    5.2611   -6.9832   25.4729 H   0  0  0  0  0  0  0  0  0  0  0  0
    4.7178   -4.9608   23.4327 H   0  0  0  0  0  0  0  0  0  0  0  0
    5.9207   -4.8965   22.1291 H   0  0  0  0  0  0  0  0  0  0  0  0
    5.6626   -3.1065   24.8133 C   0  0  0  0  0  0  0  0  0  0  0  0
    4.8996   -3.7551   25.5167 O   0  0  0  0  0  0  0  0  0  0  0  0
    5.9864   -1.6712   25.0439 C   0  0  0  0  0  0  0  0  0  0  0  0
    5.4516   -1.0813   26.1859 C   0  0  0  0  0  0  0  0  0  0  0  0
    5.6300    0.2648   26.4293 C   0  0  0  0  0  0  0  0  0  0  0  0
    6.3476    0.9949   25.4890 C   0  0  0  0  0  0  0  0  0  0  0  0
    6.5088    2.3131   25.6987 F   0  0  0  0  0  0  0  0  0  0  0  0
    6.8981    0.4351   24.3499 C   0  0  0  0  0  0  0  0  0  0  0  0
    6.7410   -0.9355   24.1216 C   0  0  0  0  0  0  0  0  0  0  0  0
    7.4582    1.0745   23.6713 H   0  0  0  0  0  0  0  0  0  0  0  0
    5.2165    0.7674   27.2981 H   0  0  0  0  0  0  0  0  0  0  0  0
    4.8914   -1.7162   26.8597 H   0  0  0  0  0  0  0  0  0  0  0  0
    8.2934   -3.2254   23.8669 H   0  0  0  0  0  0  0  0  0  0  0  0
    7.7145   -3.6228   22.2457 H   0  0  0  0  0  0  0  0  0  0  0  0
    8.8662   -0.0970   20.3414 H   0  0  0  0  0  0  0  0  0  0  0  0
    8.1466    1.0480   21.4659 H   0  0  0  0  0  0  0  0  0  0  0  0
    9.0465   -0.3255   23.1687 H   0  0  0  0  0  0  0  0  0  0  0  0
   10.0791   -2.5124   22.7247 H   0  0  0  0  0  0  0  0  0  0  0  0
    9.3976   -2.5277   21.0868 H   0  0  0  0  0  0  0  0  0  0  0  0
   10.5981   -1.3120   21.5424 H   0  0  0  0  0  0  0  0  0  0  0  0
  1  2  1  0
  2  3  1  0
  3  4  1  0
  4  5  1  0
  5  6  2  0
  6  7  1  0
  7  8  2  0
  8  9  1  0
  9 10  2  0
 10 11  1  0
 11 12  2  0
 12 13  1  0
 13 14  2  0
 13 15  1  0
 12 16  1  0
 11 17  1  0
 10 18  1  0
  8 19  1  0
  6 20  1  0
  4 21  1  0
 21 22  2  0
 21 23  1  0
 23 24  1  1
 24 25  1  0
 25 26  1  0
 26 27  1  0
 27 28  2  0
 28 29  1  0
 29 30  1  0
 30 31  2  0
 30 32  1  0
 28 33  1  0
 26 34  1  0
 26 35  1  0
 25 36  1  0
 36 37  2  0
 36 38  1  0
 38 39  2  0
 39 40  1  0
 40 41  2  0
 41 42  1  0
 41 43  1  0
 43 44  2  0
 43 45  1  0
 40 46  1  0
 39 47  1  0
 24 48  1  0
 24 49  1  0
  3 50  1  0
  3 51  1  0
  2 52  1  1
  1 53  1  0
  1 54  1  0
  1 55  1  0
 23  2  1  0
 31 27  1  0
 44 38  1  0
 14  5  1  0
 44 23  1  0
 14  9  1  0
M  END
>  <cnnaffinities>  (85) 
[6.22677, 6.4677]

>  <score>  (85) 
6.22677

>  <index>  (85) 
85

>  <Smiles>  (85) 
C([C@]1(C(N(c2c(nc(c3c(c(c(c(c23)[H])[H])[H])[H])[H])[H])C(=O)[C@]21C(N(C(c1c(oc(n1)[H])[H])([H])[H])C(=O)c1c(c(c(F)c(c21)[H])[H])[H])([H])[H])([H])[H])[H])([H])([H])[H]

>  <h>  (85) 
<NA>

>  <Training>  (85) 
True

>  <Success>  (85) 
True

>  <enamine_searched>  (85) 
False

>  <enamine_id>  (85) 
nan

$$$$

     RDKit          3D

 65 70  0  0  0  0  0  0  0  0999 V2000
    2.6072   -5.4723   22.6304 C   0  0  0  0  0  0  0  0  0  0  0  0
    3.8302   -5.4043   23.4074 N   0  0  0  0  0  0  0  0  0  0  0  0
    5.0389   -5.3584   22.7895 C   0  0  0  0  0  0  0  0  0  0  0  0
    5.1817   -5.4553   21.5780 O   0  0  0  0  0  0  0  0  0  0  0  0
    6.2334   -5.1274   23.7205 C   0  0  0  0  0  0  0  0  0  0  0  0
    6.4760   -3.7094   23.9441 N   0  0  0  0  0  0  0  0  0  0  0  0
    7.5691   -3.0958   23.2058 C   0  0  0  0  0  0  0  0  0  0  0  0
    7.3583   -1.5927   22.8919 C   0  0  2  0  0  0  0  0  0  0  0  0
    6.3548   -1.4242   21.7279 C   0  0  0  0  0  0  0  0  0  0  0  0
    5.2844   -1.9784   21.5947 O   0  0  0  0  0  0  0  0  0  0  0  0
    6.8693   -0.5051   20.8433 N   0  0  0  0  0  0  0  0  0  0  0  0
    6.1102    0.0431   19.7789 C   0  0  0  0  0  0  0  0  0  0  0  0
    6.4673   -0.2236   18.4801 C   0  0  0  0  0  0  0  0  0  0  0  0
    5.8123    0.2399   17.3876 N   0  0  0  0  0  0  0  0  0  0  0  0
    4.7786    1.0187   17.5985 C   0  0  0  0  0  0  0  0  0  0  0  0
    4.3169    1.4016   18.8907 C   0  0  0  0  0  0  0  0  0  0  0  0
    3.2009    2.2647   19.0492 C   0  0  0  0  0  0  0  0  0  0  0  0
    2.7993    2.6499   20.2969 C   0  0  0  0  0  0  0  0  0  0  0  0
    3.4971    2.1975   21.4401 C   0  0  0  0  0  0  0  0  0  0  0  0
    4.5775    1.3575   21.3186 C   0  0  0  0  0  0  0  0  0  0  0  0
    5.0030    0.9198   20.0277 C   0  0  0  0  0  0  0  0  0  0  0  0
    5.1135    1.0317   22.2118 H   0  0  0  0  0  0  0  0  0  0  0  0
    3.1739    2.5228   22.4240 H   0  0  0  0  0  0  0  0  0  0  0  0
    1.9476    3.3138   20.4184 H   0  0  0  0  0  0  0  0  0  0  0  0
    2.6934    2.6211   18.1565 H   0  0  0  0  0  0  0  0  0  0  0  0
    4.2506    1.3906   16.7209 H   0  0  0  0  0  0  0  0  0  0  0  0
    7.3231   -0.8685   18.2852 H   0  0  0  0  0  0  0  0  0  0  0  0
    8.1947   -0.0285   21.1700 C   0  0  0  0  0  0  0  0  0  0  0  0
    8.6502   -0.9150   22.3426 C   0  0  2  0  0  0  0  0  0  0  0  0
    9.7721   -1.8749   21.8797 C   0  0  0  0  0  0  0  0  0  0  0  0
   10.9346   -1.1458   21.4104 N   0  0  0  0  0  0  0  0  0  0  0  0
   11.8129   -0.5733   22.2594 C   0  0  0  0  0  0  0  0  0  0  0  0
   11.5966   -0.7258   23.5828 N   0  0  0  0  0  0  0  0  0  0  0  0
   12.5263   -0.1812   24.3509 C   0  0  0  0  0  0  0  0  0  0  0  0
   13.5920    0.5048   23.9407 N   0  0  0  0  0  0  0  0  0  0  0  0
   13.6756    0.6123   22.6084 C   0  0  0  0  0  0  0  0  0  0  0  0
   12.8345    0.1263   21.7176 N   0  0  0  0  0  0  0  0  0  0  0  0
   14.5312    1.1710   22.2190 H   0  0  0  0  0  0  0  0  0  0  0  0
   12.4055   -0.3003   25.4302 H   0  0  0  0  0  0  0  0  0  0  0  0
   11.2108   -1.1969   20.4422 H   0  0  0  0  0  0  0  0  0  0  0  0
   10.1009   -2.4882   22.7229 H   0  0  0  0  0  0  0  0  0  0  0  0
    9.4190   -2.5258   21.0717 H   0  0  0  0  0  0  0  0  0  0  0  0
    9.0995   -0.3107   23.1369 H   0  0  0  0  0  0  0  0  0  0  0  0
    8.1824    1.0401   21.4272 H   0  0  0  0  0  0  0  0  0  0  0  0
    8.8485   -0.1315   20.3058 H   0  0  0  0  0  0  0  0  0  0  0  0
    6.8034   -0.8939   24.1343 C   0  0  0  0  0  0  0  0  0  0  0  0
    6.9769    0.4837   24.3552 C   0  0  0  0  0  0  0  0  0  0  0  0
    6.4362    1.0865   25.4822 C   0  0  0  0  0  0  0  0  0  0  0  0
    6.6928    2.7943   25.7593 Cl  0  0  0  0  0  0  0  0  0  0  0  0
    5.6968    0.3581   26.4132 C   0  0  0  0  0  0  0  0  0  0  0  0
    5.4832   -0.9844   26.1759 C   0  0  0  0  0  0  0  0  0  0  0  0
    6.0236   -1.6079   25.0531 C   0  0  0  0  0  0  0  0  0  0  0  0
    5.7184   -3.0594   24.8642 C   0  0  0  0  0  0  0  0  0  0  0  0
    4.8190   -3.6274   25.4917 O   0  0  0  0  0  0  0  0  0  0  0  0
    4.8882   -1.5839   26.8555 H   0  0  0  0  0  0  0  0  0  0  0  0
    5.3002    0.8539   27.2936 H   0  0  0  0  0  0  0  0  0  0  0  0
    7.5306    1.1173   23.6653 H   0  0  0  0  0  0  0  0  0  0  0  0
    7.6551   -3.6481   22.2662 H   0  0  0  0  0  0  0  0  0  0  0  0
    8.5022   -3.2180   23.7713 H   0  0  0  0  0  0  0  0  0  0  0  0
    7.1254   -5.5672   23.2654 H   0  0  0  0  0  0  0  0  0  0  0  0
    6.0733   -5.6143   24.6834 H   0  0  0  0  0  0  0  0  0  0  0  0
    3.7876   -5.0885   24.3718 H   0  0  0  0  0  0  0  0  0  0  0  0
    2.5659   -6.3921   22.0351 H   0  0  0  0  0  0  0  0  0  0  0  0
    2.5131   -4.6101   21.9584 H   0  0  0  0  0  0  0  0  0  0  0  0
    1.7538   -5.4777   23.3134 H   0  0  0  0  0  0  0  0  0  0  0  0
  1  2  1  0
  2  3  1  0
  3  4  2  0
  3  5  1  0
  5  6  1  0
  6  7  1  0
  8  7  1  1
  8  9  1  0
  9 10  2  0
  9 11  1  0
 11 12  1  0
 12 13  2  0
 13 14  1  0
 14 15  2  0
 15 16  1  0
 16 17  2  0
 17 18  1  0
 18 19  2  0
 19 20  1  0
 20 21  2  0
 20 22  1  0
 19 23  1  0
 18 24  1  0
 17 25  1  0
 15 26  1  0
 13 27  1  0
 11 28  1  0
 28 29  1  0
 29 30  1  0
 30 31  1  0
 31 32  1  0
 32 33  2  0
 33 34  1  0
 34 35  2  0
 35 36  1  0
 36 37  2  0
 36 38  1  0
 34 39  1  0
 31 40  1  0
 30 41  1  0
 30 42  1  0
 29 43  1  1
 28 44  1  0
 28 45  1  0
  8 46  1  0
 46 47  2  0
 47 48  1  0
 48 49  1  0
 48 50  2  0
 50 51  1  0
 51 52  2  0
 52 53  1  0
 53 54  2  0
 51 55  1  0
 50 56  1  0
 47 57  1  0
  7 58  1  0
  7 59  1  0
  5 60  1  0
  5 61  1  0
  2 62  1  0
  1 63  1  0
  1 64  1  0
  1 65  1  0
 53  6  1  0
 29  8  1  0
 37 32  1  0
 52 46  1  0
 21 12  1  0
 21 16  1  0
M  END
>  <cnnaffinities>  (86) 
[7.12637, 7.12643]

>  <score>  (86) 
7.12637

>  <index>  (86) 
86

>  <Smiles>  (86) 
C(N(C(=O)C(N1C([C@@]2(C(=O)N(c3c(nc(c4c(c(c(c(c34)[H])[H])[H])[H])[H])[H])C([C@@]2(C(N(c2nc(nc(n2)[H])[H])[H])([H])[H])[H])([H])[H])c2c(c(Cl)c(c(c2C1=O)[H])[H])[H])([H])[H])([H])[H])[H])([H])([H])[H]

>  <h>  (86) 
<NA>

>  <Training>  (86) 
True

>  <Success>  (86) 
True

>  <enamine_searched>  (86) 
False

>  <enamine_id>  (86) 
nan

$$$$

     RDKit          3D

 63 68  0  0  0  0  0  0  0  0999 V2000
    7.4414   -8.4805   23.0816 C   0  0  0  0  0  0  0  0  0  0  0  0
    6.5858   -7.3656   22.7340 N   0  0  0  0  0  0  0  0  0  0  0  0
    6.8760   -6.5531   21.6843 C   0  0  0  0  0  0  0  0  0  0  0  0
    7.7089   -6.7996   20.8303 O   0  0  0  0  0  0  0  0  0  0  0  0
    6.0679   -5.2525   21.6916 C   0  0  0  0  0  0  0  0  0  0  0  0
    6.5821   -4.3036   22.6610 N   0  0  0  0  0  0  0  0  0  0  0  0
    7.6730   -3.4114   22.3165 C   0  0  0  0  0  0  0  0  0  0  0  0
    7.3105   -1.9480   22.6835 C   0  0  2  0  0  0  0  0  0  0  0  0
    6.2711   -1.4654   21.6513 C   0  0  0  0  0  0  0  0  0  0  0  0
    5.1393   -1.8759   21.5075 O   0  0  0  0  0  0  0  0  0  0  0  0
    6.8611   -0.5157   20.8396 N   0  0  0  0  0  0  0  0  0  0  0  0
    6.1401    0.0699   19.7768 C   0  0  0  0  0  0  0  0  0  0  0  0
    6.4887   -0.2096   18.4800 C   0  0  0  0  0  0  0  0  0  0  0  0
    5.8281    0.2437   17.3873 N   0  0  0  0  0  0  0  0  0  0  0  0
    4.7907    1.0187   17.5950 C   0  0  0  0  0  0  0  0  0  0  0  0
    4.3351    1.4098   18.8848 C   0  0  0  0  0  0  0  0  0  0  0  0
    3.2104    2.2628   19.0367 C   0  0  0  0  0  0  0  0  0  0  0  0
    2.7968    2.6505   20.2813 C   0  0  0  0  0  0  0  0  0  0  0  0
    3.4922    2.2045   21.4287 C   0  0  0  0  0  0  0  0  0  0  0  0
    4.5812    1.3752   21.3070 C   0  0  0  0  0  0  0  0  0  0  0  0
    5.0253    0.9391   20.0236 C   0  0  0  0  0  0  0  0  0  0  0  0
    5.1094    1.0396   22.1945 H   0  0  0  0  0  0  0  0  0  0  0  0
    3.1591    2.5253   22.4129 H   0  0  0  0  0  0  0  0  0  0  0  0
    1.9395    3.3097   20.3952 H   0  0  0  0  0  0  0  0  0  0  0  0
    2.7041    2.6086   18.1382 H   0  0  0  0  0  0  0  0  0  0  0  0
    4.2493    1.3768   16.7179 H   0  0  0  0  0  0  0  0  0  0  0  0
    7.3334   -0.8665   18.2788 H   0  0  0  0  0  0  0  0  0  0  0  0
    8.3058   -0.4424   21.0054 C   0  0  0  0  0  0  0  0  0  0  0  0
    8.4802   -0.9638   22.4363 C   0  0  2  0  0  0  0  0  0  0  0  0
    9.8410   -1.5732   22.7727 C   0  0  0  0  0  0  0  0  0  0  0  0
   10.9502   -0.6445   22.7077 N   0  0  0  0  0  0  0  0  0  0  0  0
   11.3431    0.2564   23.6375 C   0  0  0  0  0  0  0  0  0  0  0  0
   12.3878    0.9682   23.0850 C   0  0  0  0  0  0  0  0  0  0  0  0
   12.5522    0.3889   21.8125 C   0  0  0  0  0  0  0  0  0  0  0  0
   11.6702   -0.5730   21.5865 N   0  0  0  0  0  0  0  0  0  0  0  0
   13.2723    0.6365   21.0484 H   0  0  0  0  0  0  0  0  0  0  0  0
   12.9536    1.7834   23.5212 H   0  0  0  0  0  0  0  0  0  0  0  0
   10.8680    0.2872   24.6102 H   0  0  0  0  0  0  0  0  0  0  0  0
    9.7990   -1.9789   23.7891 H   0  0  0  0  0  0  0  0  0  0  0  0
   10.0740   -2.3713   22.0636 H   0  0  0  0  0  0  0  0  0  0  0  0
    8.3397   -0.1045   23.0929 H   0  0  0  0  0  0  0  0  0  0  0  0
    8.6480    0.5889   20.8918 H   0  0  0  0  0  0  0  0  0  0  0  0
    8.8534   -1.0600   20.2773 H   0  0  0  0  0  0  0  0  0  0  0  0
    6.8099   -1.9377   24.1175 C   0  0  0  0  0  0  0  0  0  0  0  0
    6.7984   -0.7514   24.8672 C   0  0  0  0  0  0  0  0  0  0  0  0
    6.3591   -0.7604   26.1759 C   0  0  0  0  0  0  0  0  0  0  0  0
    6.3536    0.7424   27.0596 Cl  0  0  0  0  0  0  0  0  0  0  0  0
    5.9381   -1.9330   26.8012 C   0  0  0  0  0  0  0  0  0  0  0  0
    5.9226   -3.1014   26.0651 C   0  0  0  0  0  0  0  0  0  0  0  0
    6.3194   -3.1015   24.7287 C   0  0  0  0  0  0  0  0  0  0  0  0
    6.1231   -4.3514   23.9389 C   0  0  0  0  0  0  0  0  0  0  0  0
    5.5373   -5.3382   24.3901 O   0  0  0  0  0  0  0  0  0  0  0  0
    5.5917   -4.0339   26.5086 H   0  0  0  0  0  0  0  0  0  0  0  0
    5.6162   -1.9108   27.8363 H   0  0  0  0  0  0  0  0  0  0  0  0
    7.1290    0.1940   24.4504 H   0  0  0  0  0  0  0  0  0  0  0  0
    7.8599   -3.4864   21.2470 H   0  0  0  0  0  0  0  0  0  0  0  0
    8.5868   -3.7225   22.8443 H   0  0  0  0  0  0  0  0  0  0  0  0
    6.1208   -4.7950   20.7015 H   0  0  0  0  0  0  0  0  0  0  0  0
    5.0203   -5.4566   21.9408 H   0  0  0  0  0  0  0  0  0  0  0  0
    6.0522   -6.9266   23.4763 H   0  0  0  0  0  0  0  0  0  0  0  0
    7.5485   -9.1693   22.2407 H   0  0  0  0  0  0  0  0  0  0  0  0
    6.9759   -9.0087   23.9175 H   0  0  0  0  0  0  0  0  0  0  0  0
    8.4470   -8.1698   23.3966 H   0  0  0  0  0  0  0  0  0  0  0  0
  1  2  1  0
  2  3  1  0
  3  4  2  0
  3  5  1  0
  5  6  1  0
  6  7  1  0
  8  7  1  6
  8  9  1  0
  9 10  2  0
  9 11  1  0
 11 12  1  0
 12 13  2  0
 13 14  1  0
 14 15  2  0
 15 16  1  0
 16 17  2  0
 17 18  1  0
 18 19  2  0
 19 20  1  0
 20 21  2  0
 20 22  1  0
 19 23  1  0
 18 24  1  0
 17 25  1  0
 15 26  1  0
 13 27  1  0
 11 28  1  0
 28 29  1  0
 29 30  1  0
 30 31  1  0
 31 32  1  0
 32 33  2  0
 33 34  1  0
 34 35  2  0
 34 36  1  0
 33 37  1  0
 32 38  1  0
 30 39  1  0
 30 40  1  0
 29 41  1  1
 28 42  1  0
 28 43  1  0
  8 44  1  0
 44 45  2  0
 45 46  1  0
 46 47  1  0
 46 48  2  0
 48 49  1  0
 49 50  2  0
 50 51  1  0
 51 52  2  0
 49 53  1  0
 48 54  1  0
 45 55  1  0
  7 56  1  0
  7 57  1  0
  5 58  1  0
  5 59  1  0
  2 60  1  0
  1 61  1  0
  1 62  1  0
  1 63  1  0
 51  6  1  0
 29  8  1  0
 35 31  1  0
 50 44  1  0
 21 12  1  0
 21 16  1  0
M  END
>  <cnnaffinities>  (87) 
[7.15811]

>  <score>  (87) 
7.15811

>  <index>  (87) 
87

>  <Smiles>  (87) 
C(N(C(=O)C(N1C([C@@]2(C(=O)N(c3c(nc(c4c(c(c(c(c34)[H])[H])[H])[H])[H])[H])C([C@@]2(C(n2c(c(c(n2)[H])[H])[H])([H])[H])[H])([H])[H])c2c(c(Cl)c(c(c2C1=O)[H])[H])[H])([H])[H])([H])[H])[H])([H])([H])[H]

>  <h>  (87) 
<NA>

>  <Training>  (87) 
True

>  <Success>  (87) 
True

>  <enamine_searched>  (87) 
False

>  <enamine_id>  (87) 
nan

$$$$

     RDKit          3D

 64 68  0  0  0  0  0  0  0  0999 V2000
    2.5295   -3.1969   27.2124 C   0  0  0  0  0  0  0  0  0  0  0  0
    3.6629   -4.0206   27.8394 C   0  0  0  0  0  0  0  0  0  0  0  0
    4.7967   -4.1962   26.8396 C   0  0  0  0  0  0  0  0  0  0  0  0
    5.7152   -3.3860   26.8743 O   0  0  0  0  0  0  0  0  0  0  0  0
    4.6597   -5.1154   25.8075 N   0  0  0  0  0  0  0  0  0  0  0  0
    3.7002   -6.2155   25.9259 C   0  0  0  0  0  0  0  0  0  0  0  0
    4.3296   -7.4405   25.2759 C   0  0  0  0  0  0  0  0  0  0  0  0
    4.4714   -7.1884   23.7861 C   0  0  0  0  0  0  0  0  0  0  0  0
    5.1914   -5.8907   23.5490 C   0  0  0  0  0  0  0  0  0  0  0  0
    5.7346   -5.6482   22.2838 C   0  0  0  0  0  0  0  0  0  0  0  0
    6.2729   -4.3980   21.9977 C   0  0  0  0  0  0  0  0  0  0  0  0
    6.2700   -3.3870   22.9641 C   0  0  0  0  0  0  0  0  0  0  0  0
    6.6115   -2.0822   22.6081 N   0  0  0  0  0  0  0  0  0  0  0  0
    7.2625   -1.1930   23.5772 C   0  0  0  0  0  0  0  0  0  0  0  0
    8.7558   -1.2518   23.3697 C   0  0  0  0  0  0  0  0  0  0  0  0
    9.4215   -2.4639   23.5727 C   0  0  0  0  0  0  0  0  0  0  0  0
   10.7976   -2.5689   23.3166 C   0  0  0  0  0  0  0  0  0  0  0  0
   11.5198   -1.4369   22.9128 C   0  0  0  0  0  0  0  0  0  0  0  0
   10.8709   -0.2089   22.7553 C   0  0  0  0  0  0  0  0  0  0  0  0
   11.8334    1.3529   22.2259 Br  0  0  0  0  0  0  0  0  0  0  0  0
    9.4915   -0.1277   22.9517 C   0  0  0  0  0  0  0  0  0  0  0  0
    8.9973    0.8197   22.7815 H   0  0  0  0  0  0  0  0  0  0  0  0
   12.5835   -1.5144   22.7155 H   0  0  0  0  0  0  0  0  0  0  0  0
   11.3254   -3.5069   23.4500 H   0  0  0  0  0  0  0  0  0  0  0  0
    8.8370   -3.3153   23.9214 H   0  0  0  0  0  0  0  0  0  0  0  0
    6.8962   -0.1668   23.4655 H   0  0  0  0  0  0  0  0  0  0  0  0
    7.0233   -1.5117   24.6022 H   0  0  0  0  0  0  0  0  0  0  0  0
    6.3529   -1.6579   21.3052 C   0  0  0  0  0  0  0  0  0  0  0  0
    5.6822   -2.3584   20.5430 O   0  0  0  0  0  0  0  0  0  0  0  0
    6.9599   -0.3550   20.7735 C   0  0  0  0  0  0  0  0  0  0  0  0
    6.1637    0.2133   19.6042 C   0  0  0  0  0  0  0  0  0  0  0  0
    6.5033   -0.0910   18.2705 C   0  0  0  0  0  0  0  0  0  0  0  0
    5.8166    0.3643   17.2067 N   0  0  0  0  0  0  0  0  0  0  0  0
    4.7528    1.1547   17.4465 C   0  0  0  0  0  0  0  0  0  0  0  0
    4.3176    1.4901   18.7354 C   0  0  0  0  0  0  0  0  0  0  0  0
    3.1927    2.3048   18.9391 C   0  0  0  0  0  0  0  0  0  0  0  0
    2.7714    2.6088   20.2376 C   0  0  0  0  0  0  0  0  0  0  0  0
    3.4532    2.0856   21.3395 C   0  0  0  0  0  0  0  0  0  0  0  0
    4.5767    1.2793   21.1382 C   0  0  0  0  0  0  0  0  0  0  0  0
    5.0268    0.9946   19.8406 C   0  0  0  0  0  0  0  0  0  0  0  0
    5.1044    0.8735   21.9949 H   0  0  0  0  0  0  0  0  0  0  0  0
    3.1163    2.3081   22.3479 H   0  0  0  0  0  0  0  0  0  0  0  0
    1.9092    3.2491   20.3895 H   0  0  0  0  0  0  0  0  0  0  0  0
    2.6508    2.7128   18.0904 H   0  0  0  0  0  0  0  0  0  0  0  0
    4.1961    1.5381   16.5976 H   0  0  0  0  0  0  0  0  0  0  0  0
    7.3543   -0.7446   18.0965 H   0  0  0  0  0  0  0  0  0  0  0  0
    6.9891    0.3804   21.5856 H   0  0  0  0  0  0  0  0  0  0  0  0
    7.9942   -0.5517   20.4716 H   0  0  0  0  0  0  0  0  0  0  0  0
    5.8345   -3.6685   24.2510 C   0  0  0  0  0  0  0  0  0  0  0  0
    5.2646   -4.9047   24.5563 C   0  0  0  0  0  0  0  0  0  0  0  0
    5.8651   -2.8835   24.9933 H   0  0  0  0  0  0  0  0  0  0  0  0
    6.6610   -4.1758   21.0096 H   0  0  0  0  0  0  0  0  0  0  0  0
    5.6866   -6.4040   21.5053 H   0  0  0  0  0  0  0  0  0  0  0  0
    5.0352   -8.0050   23.3367 H   0  0  0  0  0  0  0  0  0  0  0  0
    3.4795   -7.1411   23.3240 H   0  0  0  0  0  0  0  0  0  0  0  0
    3.7311   -8.3385   25.4576 H   0  0  0  0  0  0  0  0  0  0  0  0
    5.3276   -7.5867   25.6915 H   0  0  0  0  0  0  0  0  0  0  0  0
    3.4640   -6.4454   26.9704 H   0  0  0  0  0  0  0  0  0  0  0  0
    2.7671   -5.9546   25.4172 H   0  0  0  0  0  0  0  0  0  0  0  0
    3.2882   -5.0006   28.1366 H   0  0  0  0  0  0  0  0  0  0  0  0
    4.0477   -3.5201   28.7313 H   0  0  0  0  0  0  0  0  0  0  0  0
    2.0925   -3.7203   26.3551 H   0  0  0  0  0  0  0  0  0  0  0  0
    1.7409   -3.0218   27.9486 H   0  0  0  0  0  0  0  0  0  0  0  0
    2.9022   -2.2283   26.8642 H   0  0  0  0  0  0  0  0  0  0  0  0
  1  2  1  0
  2  3  1  0
  3  4  2  0
  3  5  1  0
  5  6  1  0
  6  7  1  0
  7  8  1  0
  8  9  1  0
  9 10  2  0
 10 11  1  0
 11 12  2  0
 12 13  1  0
 13 14  1  0
 14 15  1  0
 15 16  2  0
 16 17  1  0
 17 18  2  0
 18 19  1  0
 19 20  1  0
 19 21  2  0
 21 22  1  0
 18 23  1  0
 17 24  1  0
 16 25  1  0
 14 26  1  0
 14 27  1  0
 13 28  1  0
 28 29  2  0
 28 30  1  0
 30 31  1  0
 31 32  2  0
 32 33  1  0
 33 34  2  0
 34 35  1  0
 35 36  2  0
 36 37  1  0
 37 38  2  0
 38 39  1  0
 39 40  2  0
 39 41  1  0
 38 42  1  0
 37 43  1  0
 36 44  1  0
 34 45  1  0
 32 46  1  0
 30 47  1  0
 30 48  1  0
 12 49  1  0
 49 50  2  0
 49 51  1  0
 11 52  1  0
 10 53  1  0
  8 54  1  0
  8 55  1  0
  7 56  1  0
  7 57  1  0
  6 58  1  0
  6 59  1  0
  2 60  1  0
  2 61  1  0
  1 62  1  0
  1 63  1  0
  1 64  1  0
 50  5  1  0
 50  9  1  0
 21 15  1  0
 40 31  1  0
 40 35  1  0
M  END
>  <cnnaffinities>  (88) 
[6.87411]

>  <score>  (88) 
6.87411

>  <index>  (88) 
88

>  <Smiles>  (88) 
C(C(C(=O)N1C(C(C(c2c(c(c(N(C(c3c(c(c(c(Br)c3[H])[H])[H])[H])([H])[H])C(=O)C(c3c(nc(c4c(c(c(c(c34)[H])[H])[H])[H])[H])[H])([H])[H])c(c12)[H])[H])[H])([H])[H])([H])[H])([H])[H])([H])[H])([H])([H])[H]

>  <h>  (88) 
<NA>

>  <Training>  (88) 
True

>  <Success>  (88) 
True

>  <enamine_searched>  (88) 
False

>  <enamine_id>  (88) 
nan

$$$$

     RDKit          3D

 38 40  0  0  0  0  0  0  0  0999 V2000
    7.8326    1.5227   20.7527 O   0  0  0  0  0  0  0  0  0  0  0  0
    7.7977    0.3977   21.2289 C   0  0  0  0  0  0  0  0  0  0  0  0
    6.7918   -0.6493   20.7487 C   0  0  0  0  0  0  0  0  0  0  0  0
    5.9868   -0.0523   19.6502 C   0  0  0  0  0  0  0  0  0  0  0  0
    6.3603   -0.2590   18.3489 C   0  0  0  0  0  0  0  0  0  0  0  0
    5.7404    0.2706   17.2659 N   0  0  0  0  0  0  0  0  0  0  0  0
    4.7206    1.0652   17.5032 C   0  0  0  0  0  0  0  0  0  0  0  0
    4.2622    1.4075   18.8066 C   0  0  0  0  0  0  0  0  0  0  0  0
    3.1701    2.2903   19.0040 C   0  0  0  0  0  0  0  0  0  0  0  0
    2.7763    2.6421   20.2691 C   0  0  0  0  0  0  0  0  0  0  0  0
    3.4786    2.1489   21.3913 C   0  0  0  0  0  0  0  0  0  0  0  0
    4.5396    1.2896   21.2281 C   0  0  0  0  0  0  0  0  0  0  0  0
    4.9355    0.8684   19.9234 C   0  0  0  0  0  0  0  0  0  0  0  0
    5.0953    0.9568   22.1004 H   0  0  0  0  0  0  0  0  0  0  0  0
    3.1679    2.4494   22.3910 H   0  0  0  0  0  0  0  0  0  0  0  0
    1.9316    3.3116   20.4160 H   0  0  0  0  0  0  0  0  0  0  0  0
    2.6610    2.6826   18.1279 H   0  0  0  0  0  0  0  0  0  0  0  0
    4.1862    1.4695   16.6414 H   0  0  0  0  0  0  0  0  0  0  0  0
    7.2393   -0.8700   18.1384 H   0  0  0  0  0  0  0  0  0  0  0  0
    7.3391   -1.5317   20.3889 H   0  0  0  0  0  0  0  0  0  0  0  0
    6.1651   -0.9645   21.5936 H   0  0  0  0  0  0  0  0  0  0  0  0
    8.6426    0.0331   22.2358 N   0  0  0  0  0  0  0  0  0  0  0  0
    9.4514    1.0862   22.8264 C   0  0  0  0  0  0  0  0  0  0  0  0
   10.8357    1.2223   22.2438 C   0  0  0  0  0  0  0  0  0  0  0  0
   11.7350    0.2460   22.3055 C   0  0  0  0  0  0  0  0  0  0  0  0
   11.4572   -1.0912   22.9573 C   0  0  0  0  0  0  0  0  0  0  0  0
   10.2348   -1.8860   22.4399 C   0  0  0  0  0  0  0  0  0  0  0  0
    8.8641   -1.2933   22.7808 C   0  0  0  0  0  0  0  0  0  0  0  0
    8.7754   -1.2119   23.8740 H   0  0  0  0  0  0  0  0  0  0  0  0
    8.0667   -1.9639   22.4557 H   0  0  0  0  0  0  0  0  0  0  0  0
   10.3029   -2.0429   21.3521 H   0  0  0  0  0  0  0  0  0  0  0  0
   10.2825   -2.8761   22.9117 H   0  0  0  0  0  0  0  0  0  0  0  0
   12.3432   -1.7208   22.8303 H   0  0  0  0  0  0  0  0  0  0  0  0
   11.3474   -0.9345   24.0477 H   0  0  0  0  0  0  0  0  0  0  0  0
   12.7419    0.4409   21.9275 H   0  0  0  0  0  0  0  0  0  0  0  0
   11.0824    2.1631   21.7525 H   0  0  0  0  0  0  0  0  0  0  0  0
    9.5514    0.7738   23.8727 H   0  0  0  0  0  0  0  0  0  0  0  0
    8.9143    2.0394   22.7533 H   0  0  0  0  0  0  0  0  0  0  0  0
  1  2  2  0
  2  3  1  0
  3  4  1  0
  4  5  2  0
  5  6  1  0
  6  7  2  0
  7  8  1  0
  8  9  2  0
  9 10  1  0
 10 11  2  0
 11 12  1  0
 12 13  2  0
 12 14  1  0
 11 15  1  0
 10 16  1  0
  9 17  1  0
  7 18  1  0
  5 19  1  0
  3 20  1  0
  3 21  1  0
  2 22  1  0
 22 23  1  0
 23 24  1  0
 24 25  2  0
 25 26  1  0
 26 27  1  0
 27 28  1  0
 28 29  1  0
 28 30  1  0
 27 31  1  0
 27 32  1  0
 26 33  1  0
 26 34  1  0
 25 35  1  0
 24 36  1  0
 23 37  1  0
 23 38  1  0
 13  4  1  0
 28 22  1  0
 13  8  1  0
M  END
>  <cnnaffinities>  (89) 
[5.03719, 5.1531, 5.08419, 5.06344, 5.19218]

>  <score>  (89) 
5.03719

>  <index>  (89) 
89

>  <Smiles>  (89) 
O=C(C(c1c(nc(c2c(c(c(c(c12)[H])[H])[H])[H])[H])[H])([H])[H])N1C(C(=C(C(C(C1([H])[H])([H])[H])([H])[H])[H])[H])([H])[H]

>  <h>  (89) 
<NA>

>  <Training>  (89) 
True

>  <Success>  (89) 
True

>  <enamine_searched>  (89) 
False

>  <enamine_id>  (89) 
nan

$$$$

     RDKit          3D

 62 67  0  0  0  0  0  0  0  0999 V2000
    9.9861   -1.5315   22.4430 C   0  0  0  0  0  0  0  0  0  0  0  0
    8.5740   -0.9431   22.3655 C   0  0  1  0  0  0  0  0  0  0  0  0
    8.2840   -0.3623   20.9705 C   0  0  0  0  0  0  0  0  0  0  0  0
    6.8453   -0.4712   20.8465 N   0  0  0  0  0  0  0  0  0  0  0  0
    6.1096    0.0737   19.7750 C   0  0  0  0  0  0  0  0  0  0  0  0
    6.4580   -0.2177   18.4813 C   0  0  0  0  0  0  0  0  0  0  0  0
    5.7951    0.2343   17.3883 N   0  0  0  0  0  0  0  0  0  0  0  0
    4.7627    1.0159   17.5981 C   0  0  0  0  0  0  0  0  0  0  0  0
    4.3069    1.4086   18.8881 C   0  0  0  0  0  0  0  0  0  0  0  0
    3.1912    2.2707   19.0510 C   0  0  0  0  0  0  0  0  0  0  0  0
    2.7834    2.6547   20.2984 C   0  0  0  0  0  0  0  0  0  0  0  0
    3.4786    2.2014   21.4434 C   0  0  0  0  0  0  0  0  0  0  0  0
    4.5622    1.3696   21.3134 C   0  0  0  0  0  0  0  0  0  0  0  0
    4.9955    0.9361   20.0253 C   0  0  0  0  0  0  0  0  0  0  0  0
    5.0955    1.0354   22.1995 H   0  0  0  0  0  0  0  0  0  0  0  0
    3.1549    2.5243   22.4300 H   0  0  0  0  0  0  0  0  0  0  0  0
    1.9293    3.3163   20.4191 H   0  0  0  0  0  0  0  0  0  0  0  0
    2.6849    2.6277   18.1585 H   0  0  0  0  0  0  0  0  0  0  0  0
    4.2309    1.3879   16.7216 H   0  0  0  0  0  0  0  0  0  0  0  0
    7.3003   -0.8814   18.2853 H   0  0  0  0  0  0  0  0  0  0  0  0
    6.2970   -1.4120   21.6842 C   0  0  0  0  0  0  0  0  0  0  0  0
    5.1463   -1.7983   21.6129 O   0  0  0  0  0  0  0  0  0  0  0  0
    7.3831   -1.9015   22.6655 C   0  0  1  0  0  0  0  0  0  0  0  0
    7.7345   -3.3522   22.3117 C   0  0  0  0  0  0  0  0  0  0  0  0
    6.6427   -4.2303   22.6514 N   0  0  0  0  0  0  0  0  0  0  0  0
    6.1287   -5.1420   21.6608 C   0  0  0  0  0  0  0  0  0  0  0  0
    7.0265   -6.3428   21.4770 C   0  0  0  0  0  0  0  0  0  0  0  0
    7.0305   -7.1673   22.7221 N   0  0  0  0  0  4  0  0  0  0  0  0
    7.7110   -8.4962   22.5423 C   0  0  0  0  0  0  0  0  0  0  0  0
    8.6897   -8.2581   23.7228 C   0  0  0  0  0  0  0  0  0  0  0  0
    7.9849   -6.8916   23.9206 C   0  0  0  0  0  0  0  0  0  0  0  0
    7.3978   -6.7977   24.8298 H   0  0  0  0  0  0  0  0  0  0  0  0
    8.5978   -6.0173   23.7374 H   0  0  0  0  0  0  0  0  0  0  0  0
    8.6627   -8.9340   24.5594 H   0  0  0  0  0  0  0  0  0  0  0  0
    9.7283   -8.1615   23.4103 H   0  0  0  0  0  0  0  0  0  0  0  0
    8.2197   -8.4444   21.5874 H   0  0  0  0  0  0  0  0  0  0  0  0
    7.0226   -9.3288   22.5387 H   0  0  0  0  0  0  0  0  0  0  0  0
    6.0764   -7.2256   23.0944 H   0  0  0  0  0  0  0  0  0  0  0  0
    8.0576   -6.0455   21.2504 H   0  0  0  0  0  0  0  0  0  0  0  0
    6.6519   -6.9661   20.6622 H   0  0  0  0  0  0  0  0  0  0  0  0
    5.1498   -5.4717   22.0176 H   0  0  0  0  0  0  0  0  0  0  0  0
    5.9827   -4.5862   20.7260 H   0  0  0  0  0  0  0  0  0  0  0  0
    6.1410   -4.2953   23.9094 C   0  0  0  0  0  0  0  0  0  0  0  0
    5.5609   -5.3032   24.3153 O   0  0  0  0  0  0  0  0  0  0  0  0
    6.3290   -3.0438   24.6960 C   0  0  0  0  0  0  0  0  0  0  0  0
    5.8843   -3.0335   26.0137 C   0  0  0  0  0  0  0  0  0  0  0  0
    5.8997   -1.8579   26.7355 C   0  0  0  0  0  0  0  0  0  0  0  0
    6.3527   -0.6959   26.1106 C   0  0  0  0  0  0  0  0  0  0  0  0
    6.3073    0.8134   26.9783 Cl  0  0  0  0  0  0  0  0  0  0  0  0
    6.8329   -0.6999   24.8152 C   0  0  0  0  0  0  0  0  0  0  0  0
    6.8663   -1.8932   24.0919 C   0  0  0  0  0  0  0  0  0  0  0  0
    7.1769    0.2329   24.3788 H   0  0  0  0  0  0  0  0  0  0  0  0
    5.5514   -1.8166   27.7603 H   0  0  0  0  0  0  0  0  0  0  0  0
    5.5194   -3.9652   26.4314 H   0  0  0  0  0  0  0  0  0  0  0  0
    8.6485   -3.6361   22.8517 H   0  0  0  0  0  0  0  0  0  0  0  0
    7.9265   -3.4294   21.2428 H   0  0  0  0  0  0  0  0  0  0  0  0
    8.5897    0.6848   20.8822 H   0  0  0  0  0  0  0  0  0  0  0  0
    8.8097   -0.9395   20.1950 H   0  0  0  0  0  0  0  0  0  0  0  0
    8.5125   -0.1239   23.0821 H   0  0  0  0  0  0  0  0  0  0  0  0
   10.1308   -2.3004   21.6741 H   0  0  0  0  0  0  0  0  0  0  0  0
   10.7412   -0.7562   22.2669 H   0  0  0  0  0  0  0  0  0  0  0  0
   10.2032   -1.9891   23.4156 H   0  0  0  0  0  0  0  0  0  0  0  0
  1  2  1  0
  2  3  1  0
  3  4  1  0
  4  5  1  0
  5  6  2  0
  6  7  1  0
  7  8  2  0
  8  9  1  0
  9 10  2  0
 10 11  1  0
 11 12  2  0
 12 13  1  0
 13 14  2  0
 13 15  1  0
 12 16  1  0
 11 17  1  0
 10 18  1  0
  8 19  1  0
  6 20  1  0
  4 21  1  0
 21 22  2  0
 21 23  1  0
 23 24  1  6
 24 25  1  0
 25 26  1  0
 26 27  1  0
 27 28  1  0
 28 29  1  0
 29 30  1  0
 30 31  1  0
 31 32  1  0
 31 33  1  0
 30 34  1  0
 30 35  1  0
 29 36  1  0
 29 37  1  0
 28 38  1  0
 27 39  1  0
 27 40  1  0
 26 41  1  0
 26 42  1  0
 25 43  1  0
 43 44  2  0
 43 45  1  0
 45 46  2  0
 46 47  1  0
 47 48  2  0
 48 49  1  0
 48 50  1  0
 50 51  2  0
 50 52  1  0
 47 53  1  0
 46 54  1  0
 24 55  1  0
 24 56  1  0
  3 57  1  0
  3 58  1  0
  2 59  1  1
  1 60  1  0
  1 61  1  0
  1 62  1  0
 23  2  1  0
 31 28  1  0
 51 45  1  0
 14  5  1  0
 51 23  1  0
 14  9  1  0
M  CHG  1  28   1
M  END
>  <cnnaffinities>  (90) 
[6.30272, 6.42803]

>  <score>  (90) 
6.30272

>  <index>  (90) 
90

>  <Smiles>  (90) 
C([C@]1(C(N(c2c(nc(c3c(c(c(c(c23)[H])[H])[H])[H])[H])[H])C(=O)[C@]21C(N(C(C([N+]1(C(C(C1([H])[H])([H])[H])([H])[H])[H])([H])[H])([H])[H])C(=O)c1c(c(c(Cl)c(c21)[H])[H])[H])([H])[H])([H])[H])[H])([H])([H])[H]

>  <h>  (90) 
<NA>

>  <Training>  (90) 
True

>  <Success>  (90) 
True

>  <enamine_searched>  (90) 
False

>  <enamine_id>  (90) 
nan

$$$$

     RDKit          3D

 56 61  0  0  0  0  0  0  0  0999 V2000
    7.7419   -3.0022   23.3207 C   0  0  0  0  0  0  0  0  0  0  0  0
    8.0117   -1.9212   22.2769 C   0  0  1  0  0  0  0  0  0  0  0  0
    6.8901   -1.7967   21.2347 C   0  0  0  0  0  0  0  0  0  0  0  0
    6.9276   -0.4046   20.8320 N   0  0  0  0  0  0  0  0  0  0  0  0
    6.1463    0.1153   19.7715 C   0  0  0  0  0  0  0  0  0  0  0  0
    6.4462   -0.2240   18.4746 C   0  0  0  0  0  0  0  0  0  0  0  0
    5.7730    0.2216   17.3859 N   0  0  0  0  0  0  0  0  0  0  0  0
    4.7527    1.0196   17.5971 C   0  0  0  0  0  0  0  0  0  0  0  0
    4.3042    1.4179   18.8909 C   0  0  0  0  0  0  0  0  0  0  0  0
    3.1742    2.2658   19.0566 C   0  0  0  0  0  0  0  0  0  0  0  0
    2.7419    2.6075   20.3090 C   0  0  0  0  0  0  0  0  0  0  0  0
    3.4147    2.1125   21.4483 C   0  0  0  0  0  0  0  0  0  0  0  0
    4.5112    1.2983   21.3119 C   0  0  0  0  0  0  0  0  0  0  0  0
    5.0027    0.9448   20.0216 C   0  0  0  0  0  0  0  0  0  0  0  0
    5.0181    0.9263   22.1951 H   0  0  0  0  0  0  0  0  0  0  0  0
    3.0710    2.3899   22.4388 H   0  0  0  0  0  0  0  0  0  0  0  0
    1.8866    3.2655   20.4333 H   0  0  0  0  0  0  0  0  0  0  0  0
    2.6740    2.6360   18.1654 H   0  0  0  0  0  0  0  0  0  0  0  0
    4.2222    1.3854   16.7180 H   0  0  0  0  0  0  0  0  0  0  0  0
    7.2890   -0.8821   18.2687 H   0  0  0  0  0  0  0  0  0  0  0  0
    7.6536    0.4044   21.6734 C   0  0  0  0  0  0  0  0  0  0  0  0
    7.7588    1.6094   21.5397 O   0  0  0  0  0  0  0  0  0  0  0  0
    8.2466   -0.4559   22.8031 C   0  0  1  0  0  0  0  0  0  0  0  0
    7.4616   -0.0784   24.0867 C   0  0  0  0  0  0  0  0  0  0  0  0
    8.0840   -0.5487   25.3117 N   0  0  0  0  0  0  0  0  0  0  0  0
    7.2388   -0.8873   26.4522 C   0  0  0  0  0  0  0  0  0  0  0  0
    6.9694   -2.3750   26.6151 C   0  0  0  0  0  0  0  0  0  0  0  0
    5.7532   -3.0980   26.4801 C   0  0  0  0  0  0  0  0  0  0  0  0
    5.8926   -4.3933   26.7546 N   0  0  0  0  0  0  0  0  0  0  0  0
    7.1973   -4.5191   27.0270 N   0  0  0  0  0  0  0  0  0  0  0  0
    7.8877   -3.3540   26.9349 C   0  0  0  0  0  0  0  0  0  0  0  0
    8.9623   -3.3262   27.0788 H   0  0  0  0  0  0  0  0  0  0  0  0
    7.5538   -5.4118   27.3274 H   0  0  0  0  0  0  0  0  0  0  0  0
    4.7798   -2.7660   26.1301 H   0  0  0  0  0  0  0  0  0  0  0  0
    6.2916   -0.3532   26.3206 H   0  0  0  0  0  0  0  0  0  0  0  0
    7.7199   -0.4737   27.3476 H   0  0  0  0  0  0  0  0  0  0  0  0
    9.4336   -0.6551   25.4529 C   0  0  0  0  0  0  0  0  0  0  0  0
    9.9696   -1.0559   26.4721 O   0  0  0  0  0  0  0  0  0  0  0  0
   10.2742   -0.2746   24.3007 C   0  0  0  0  0  0  0  0  0  0  0  0
   11.6401   -0.1115   24.5395 C   0  0  0  0  0  0  0  0  0  0  0  0
   12.4733    0.1712   23.4818 C   0  0  0  0  0  0  0  0  0  0  0  0
   11.9302    0.2482   22.2077 C   0  0  0  0  0  0  0  0  0  0  0  0
   12.8050    0.5145   21.2301 F   0  0  0  0  0  0  0  0  0  0  0  0
   10.5825    0.0659   21.9486 C   0  0  0  0  0  0  0  0  0  0  0  0
    9.7226   -0.1659   23.0283 C   0  0  0  0  0  0  0  0  0  0  0  0
   10.1832    0.0889   20.9427 H   0  0  0  0  0  0  0  0  0  0  0  0
   13.5421    0.3046   23.5848 H   0  0  0  0  0  0  0  0  0  0  0  0
   11.9969   -0.2209   25.5605 H   0  0  0  0  0  0  0  0  0  0  0  0
    7.3667    1.0195   24.0893 H   0  0  0  0  0  0  0  0  0  0  0  0
    6.4580   -0.5202   24.0487 H   0  0  0  0  0  0  0  0  0  0  0  0
    5.9130   -2.0574   21.6640 H   0  0  0  0  0  0  0  0  0  0  0  0
    7.0460   -2.4355   20.3655 H   0  0  0  0  0  0  0  0  0  0  0  0
    8.9411   -2.1688   21.7468 H   0  0  0  0  0  0  0  0  0  0  0  0
    7.6939   -3.9880   22.8518 H   0  0  0  0  0  0  0  0  0  0  0  0
    6.7892   -2.8330   23.8283 H   0  0  0  0  0  0  0  0  0  0  0  0
    8.5260   -3.0298   24.0821 H   0  0  0  0  0  0  0  0  0  0  0  0
  1  2  1  0
  2  3  1  0
  3  4  1  0
  4  5  1  0
  5  6  2  0
  6  7  1  0
  7  8  2  0
  8  9  1  0
  9 10  2  0
 10 11  1  0
 11 12  2  0
 12 13  1  0
 13 14  2  0
 13 15  1  0
 12 16  1  0
 11 17  1  0
 10 18  1  0
  8 19  1  0
  6 20  1  0
  4 21  1  0
 21 22  2  0
 21 23  1  0
 23 24  1  1
 24 25  1  0
 25 26  1  0
 26 27  1  0
 27 28  1  0
 28 29  2  0
 29 30  1  0
 30 31  1  0
 31 32  1  0
 30 33  1  0
 28 34  1  0
 26 35  1  0
 26 36  1  0
 25 37  1  0
 37 38  2  0
 37 39  1  0
 39 40  2  0
 40 41  1  0
 41 42  2  0
 42 43  1  0
 42 44  1  0
 44 45  2  0
 44 46  1  0
 41 47  1  0
 40 48  1  0
 24 49  1  0
 24 50  1  0
  3 51  1  0
  3 52  1  0
  2 53  1  6
  1 54  1  0
  1 55  1  0
  1 56  1  0
 23  2  1  0
 31 27  2  0
 45 39  1  0
 14  5  1  0
 45 23  1  0
 14  9  1  0
M  END
>  <cnnaffinities>  (91) 
[6.49849]

>  <score>  (91) 
6.49849

>  <index>  (91) 
91

>  <Smiles>  (91) 
C([C@]1(C(N(c2c(nc(c3c(c(c(c(c23)[H])[H])[H])[H])[H])[H])C(=O)[C@]21C(N(C(c1c(nn(c1[H])[H])[H])([H])[H])C(=O)c1c(c(c(F)c(c21)[H])[H])[H])([H])[H])([H])[H])[H])([H])([H])[H]

>  <h>  (91) 
<NA>

>  <Training>  (91) 
True

>  <Success>  (91) 
True

>  <enamine_searched>  (91) 
False

>  <enamine_id>  (91) 
nan

$$$$

     RDKit          3D

 47 50  0  0  0  0  0  0  0  0999 V2000
    8.1147    1.5288   20.6531 O   0  0  0  0  0  0  0  0  0  0  0  0
    7.8282    0.5658   21.3474 C   0  0  0  0  0  0  0  0  0  0  0  0
    6.8676   -0.5169   20.8640 C   0  0  0  0  0  0  0  0  0  0  0  0
    6.0598    0.0217   19.7431 C   0  0  0  0  0  0  0  0  0  0  0  0
    6.4195   -0.2319   18.4488 C   0  0  0  0  0  0  0  0  0  0  0  0
    5.7811    0.2493   17.3539 N   0  0  0  0  0  0  0  0  0  0  0  0
    4.7514    1.0343   17.5788 C   0  0  0  0  0  0  0  0  0  0  0  0
    4.3003    1.4126   18.8747 C   0  0  0  0  0  0  0  0  0  0  0  0
    3.1920    2.2758   19.0480 C   0  0  0  0  0  0  0  0  0  0  0  0
    2.7755    2.6416   20.2975 C   0  0  0  0  0  0  0  0  0  0  0  0
    3.4693    2.1642   21.4349 C   0  0  0  0  0  0  0  0  0  0  0  0
    4.5511    1.3246   21.3052 C   0  0  0  0  0  0  0  0  0  0  0  0
    4.9786    0.9117   20.0061 C   0  0  0  0  0  0  0  0  0  0  0  0
    5.0795    0.9944   22.2025 H   0  0  0  0  0  0  0  0  0  0  0  0
    3.1330    2.4720   22.4218 H   0  0  0  0  0  0  0  0  0  0  0  0
    1.9155    3.2971   20.4288 H   0  0  0  0  0  0  0  0  0  0  0  0
    2.6836    2.6387   18.1601 H   0  0  0  0  0  0  0  0  0  0  0  0
    4.2076    1.4145   16.7127 H   0  0  0  0  0  0  0  0  0  0  0  0
    7.2951   -0.8550   18.2610 H   0  0  0  0  0  0  0  0  0  0  0  0
    7.4731   -1.3849   20.5511 H   0  0  0  0  0  0  0  0  0  0  0  0
    6.2257   -0.8340   21.6853 H   0  0  0  0  0  0  0  0  0  0  0  0
    8.4467    0.3711   22.5684 N   0  0  0  0  0  0  0  0  0  0  0  0
    9.5861    1.2020   22.7400 C   0  0  0  0  0  0  0  0  0  0  0  0
   10.8607    0.8090   22.7646 C   0  0  0  0  0  0  0  0  0  0  0  0
   11.3421   -0.5677   22.6922 C   0  0  0  0  0  0  0  0  0  0  0  0
   10.9369   -1.5746   23.4760 C   0  0  0  0  0  0  0  0  0  0  0  0
   10.0817   -1.4226   24.6555 C   0  0  0  0  0  0  0  0  0  0  0  0
    8.9118   -0.7818   24.7302 C   0  0  0  0  0  0  0  0  0  0  0  0
    7.9360   -0.5809   23.5980 C   0  0  1  0  0  0  0  0  0  0  0  0
    6.5728   -0.1558   24.1680 C   0  0  0  0  0  0  0  0  0  0  0  0
    5.5124   -1.0617   24.2831 C   0  0  0  0  0  0  0  0  0  0  0  0
    4.2864   -0.6704   24.8145 C   0  0  0  0  0  0  0  0  0  0  0  0
    4.1081    0.6308   25.2689 C   0  0  0  0  0  0  0  0  0  0  0  0
    5.1687    1.5277   25.1994 C   0  0  0  0  0  0  0  0  0  0  0  0
    6.3892    1.1381   24.6570 C   0  0  0  0  0  0  0  0  0  0  0  0
    7.2094    1.8524   24.6349 H   0  0  0  0  0  0  0  0  0  0  0  0
    5.0359    2.5335   25.5840 H   0  0  0  0  0  0  0  0  0  0  0  0
    3.1511    0.9395   25.6766 H   0  0  0  0  0  0  0  0  0  0  0  0
    3.4681   -1.3805   24.8742 H   0  0  0  0  0  0  0  0  0  0  0  0
    5.6340   -2.0958   23.9673 H   0  0  0  0  0  0  0  0  0  0  0  0
    7.8220   -1.5604   23.1050 H   0  0  0  0  0  0  0  0  0  0  0  0
    8.5602   -0.4890   25.7148 H   0  0  0  0  0  0  0  0  0  0  0  0
   10.4634   -1.9114   25.5464 H   0  0  0  0  0  0  0  0  0  0  0  0
   11.3800   -2.5565   23.3366 H   0  0  0  0  0  0  0  0  0  0  0  0
   12.1453   -0.7470   21.9805 H   0  0  0  0  0  0  0  0  0  0  0  0
   11.6080    1.6005   22.7513 H   0  0  0  0  0  0  0  0  0  0  0  0
    9.3730    2.2671   22.7133 H   0  0  0  0  0  0  0  0  0  0  0  0
  1  2  2  0
  2  3  1  0
  3  4  1  0
  4  5  2  0
  5  6  1  0
  6  7  2  0
  7  8  1  0
  8  9  2  0
  9 10  1  0
 10 11  2  0
 11 12  1  0
 12 13  2  0
 12 14  1  0
 11 15  1  0
 10 16  1  0
  9 17  1  0
  7 18  1  0
  5 19  1  0
  3 20  1  0
  3 21  1  0
  2 22  1  0
 22 23  1  0
 23 24  2  3
 24 25  1  0
 25 26  2  3
 26 27  1  0
 27 28  2  3
 28 29  1  0
 29 30  1  0
 30 31  2  0
 31 32  1  0
 32 33  2  0
 33 34  1  0
 34 35  2  0
 35 36  1  0
 34 37  1  0
 33 38  1  0
 32 39  1  0
 31 40  1  0
 29 41  1  6
 28 42  1  0
 27 43  1  0
 26 44  1  0
 25 45  1  0
 24 46  1  0
 23 47  1  0
 13  4  1  0
 29 22  1  0
 35 30  1  0
 13  8  1  0
M  END
>  <cnnaffinities>  (92) 
[6.08834, 6.08826, 5.73639, 5.73514]

>  <score>  (92) 
6.08834

>  <index>  (92) 
92

>  <Smiles>  (92) 
O=C(C(c1c(nc(c2c(c(c(c(c12)[H])[H])[H])[H])[H])[H])([H])[H])N1C(=C(C(=C(C(=C([C@]1(c1c(c(c(c(c1[H])[H])[H])[H])[H])[H])[H])[H])[H])[H])[H])[H]

>  <h>  (92) 
<NA>

>  <Training>  (92) 
True

>  <Success>  (92) 
True

>  <enamine_searched>  (92) 
False

>  <enamine_id>  (92) 
nan

$$$$

     RDKit          3D

 58 62  0  0  0  0  0  0  0  0999 V2000
    6.3658   -8.1350   22.9369 C   0  0  0  0  0  0  0  0  0  0  0  0
    7.2774   -7.0120   22.7369 N   0  0  0  0  0  4  0  0  0  0  0  0
    7.0340   -6.3408   21.4258 C   0  0  0  0  0  0  0  0  0  0  0  0
    6.1139   -5.1445   21.6403 C   0  0  0  0  0  0  0  0  0  0  0  0
    6.7042   -4.2755   22.6505 N   0  0  0  0  0  0  0  0  0  0  0  0
    7.7819   -3.3780   22.3061 C   0  0  0  0  0  0  0  0  0  0  0  0
    7.3939   -1.9279   22.6517 C   0  0  2  0  0  0  0  0  0  0  0  0
    6.3073   -1.4710   21.6445 C   0  0  0  0  0  0  0  0  0  0  0  0
    5.1825   -1.9132   21.5117 O   0  0  0  0  0  0  0  0  0  0  0  0
    6.8328   -0.4759   20.8469 N   0  0  0  0  0  0  0  0  0  0  0  0
    6.1040    0.0709   19.7729 C   0  0  0  0  0  0  0  0  0  0  0  0
    6.4680   -0.2050   18.4791 C   0  0  0  0  0  0  0  0  0  0  0  0
    5.8136    0.2467   17.3832 N   0  0  0  0  0  0  0  0  0  0  0  0
    4.7790    1.0272   17.5864 C   0  0  0  0  0  0  0  0  0  0  0  0
    4.3173    1.4168   18.8752 C   0  0  0  0  0  0  0  0  0  0  0  0
    3.1964    2.2723   19.0253 C   0  0  0  0  0  0  0  0  0  0  0  0
    2.7873    2.6602   20.2722 C   0  0  0  0  0  0  0  0  0  0  0  0
    3.4767    2.2114   21.4214 C   0  0  0  0  0  0  0  0  0  0  0  0
    4.5599    1.3751   21.3023 C   0  0  0  0  0  0  0  0  0  0  0  0
    4.9982    0.9449   20.0159 C   0  0  0  0  0  0  0  0  0  0  0  0
    5.0930    1.0311   22.1838 H   0  0  0  0  0  0  0  0  0  0  0  0
    3.1475    2.5342   22.4059 H   0  0  0  0  0  0  0  0  0  0  0  0
    1.9347    3.3239   20.3879 H   0  0  0  0  0  0  0  0  0  0  0  0
    2.6944    2.6259   18.1290 H   0  0  0  0  0  0  0  0  0  0  0  0
    4.2473    1.3863   16.7057 H   0  0  0  0  0  0  0  0  0  0  0  0
    7.3170   -0.8593   18.2837 H   0  0  0  0  0  0  0  0  0  0  0  0
    8.2738   -0.3925   20.9379 C   0  0  0  0  0  0  0  0  0  0  0  0
    8.5606   -0.9445   22.3380 C   0  0  2  0  0  0  0  0  0  0  0  0
    9.9672   -1.5165   22.4491 C   0  0  0  0  0  0  0  0  0  0  0  0
   10.7141   -0.7371   22.2692 H   0  0  0  0  0  0  0  0  0  0  0  0
   10.1308   -2.3063   21.7060 H   0  0  0  0  0  0  0  0  0  0  0  0
   10.1420   -1.9481   23.4400 H   0  0  0  0  0  0  0  0  0  0  0  0
    8.4806   -0.0997   23.0247 H   0  0  0  0  0  0  0  0  0  0  0  0
    8.6127    0.6407   20.8252 H   0  0  0  0  0  0  0  0  0  0  0  0
    8.7767   -0.9917   20.1637 H   0  0  0  0  0  0  0  0  0  0  0  0
    6.8854   -1.9138   24.0899 C   0  0  0  0  0  0  0  0  0  0  0  0
    6.8620   -0.7278   24.8345 C   0  0  0  0  0  0  0  0  0  0  0  0
    6.3886   -0.7316   26.1312 C   0  0  0  0  0  0  0  0  0  0  0  0
    6.4002    0.4260   26.8209 F   0  0  0  0  0  0  0  0  0  0  0  0
    5.9120   -1.8831   26.7498 C   0  0  0  0  0  0  0  0  0  0  0  0
    5.9025   -3.0569   26.0193 C   0  0  0  0  0  0  0  0  0  0  0  0
    6.3719   -3.0740   24.7016 C   0  0  0  0  0  0  0  0  0  0  0  0
    6.2779   -4.3438   23.9352 C   0  0  0  0  0  0  0  0  0  0  0  0
    5.8462   -5.3986   24.4136 O   0  0  0  0  0  0  0  0  0  0  0  0
    5.5273   -3.9759   26.4633 H   0  0  0  0  0  0  0  0  0  0  0  0
    5.5657   -1.8406   27.7774 H   0  0  0  0  0  0  0  0  0  0  0  0
    7.2195    0.2098   24.4271 H   0  0  0  0  0  0  0  0  0  0  0  0
    7.9746   -3.4510   21.2392 H   0  0  0  0  0  0  0  0  0  0  0  0
    8.7051   -3.6538   22.8421 H   0  0  0  0  0  0  0  0  0  0  0  0
    5.9517   -4.5620   20.7253 H   0  0  0  0  0  0  0  0  0  0  0  0
    5.1367   -5.4574   22.0270 H   0  0  0  0  0  0  0  0  0  0  0  0
    7.9775   -5.9787   21.0224 H   0  0  0  0  0  0  0  0  0  0  0  0
    6.6120   -7.0620   20.7214 H   0  0  0  0  0  0  0  0  0  0  0  0
    8.2416   -7.3581   22.8595 H   0  0  0  0  0  0  0  0  0  0  0  0
    7.0933   -6.3454   23.4986 H   0  0  0  0  0  0  0  0  0  0  0  0
    5.3662   -7.7660   23.1818 H   0  0  0  0  0  0  0  0  0  0  0  0
    6.7039   -8.8045   23.7277 H   0  0  0  0  0  0  0  0  0  0  0  0
    6.3129   -8.7098   22.0088 H   0  0  0  0  0  0  0  0  0  0  0  0
  1  2  1  0
  2  3  1  0
  3  4  1  0
  4  5  1  0
  5  6  1  0
  7  6  1  6
  7  8  1  0
  8  9  2  0
  8 10  1  0
 10 11  1  0
 11 12  2  0
 12 13  1  0
 13 14  2  0
 14 15  1  0
 15 16  2  0
 16 17  1  0
 17 18  2  0
 18 19  1  0
 19 20  2  0
 19 21  1  0
 18 22  1  0
 17 23  1  0
 16 24  1  0
 14 25  1  0
 12 26  1  0
 10 27  1  0
 27 28  1  0
 28 29  1  0
 29 30  1  0
 29 31  1  0
 29 32  1  0
 28 33  1  1
 27 34  1  0
 27 35  1  0
  7 36  1  0
 36 37  2  0
 37 38  1  0
 38 39  1  0
 38 40  2  0
 40 41  1  0
 41 42  2  0
 42 43  1  0
 43 44  2  0
 41 45  1  0
 40 46  1  0
 37 47  1  0
  6 48  1  0
  6 49  1  0
  4 50  1  0
  4 51  1  0
  3 52  1  0
  3 53  1  0
  2 54  1  0
  2 55  1  0
  1 56  1  0
  1 57  1  0
  1 58  1  0
 43  5  1  0
 28  7  1  0
 42 36  1  0
 20 11  1  0
 20 15  1  0
M  CHG  1   2   1
M  END
>  <cnnaffinities>  (93) 
[6.154]

>  <score>  (93) 
6.154

>  <index>  (93) 
93

>  <Smiles>  (93) 
C([N+](C(C(N1C([C@@]2(C(=O)N(c3c(nc(c4c(c(c(c(c34)[H])[H])[H])[H])[H])[H])C([C@@]2(C([H])([H])[H])[H])([H])[H])c2c(c(F)c(c(c2C1=O)[H])[H])[H])([H])[H])([H])[H])([H])[H])([H])[H])([H])([H])[H]

>  <h>  (93) 
<NA>

>  <Training>  (93) 
True

>  <Success>  (93) 
True

>  <enamine_searched>  (93) 
False

>  <enamine_id>  (93) 
nan

$$$$

     RDKit          3D

 65 69  0  0  0  0  0  0  0  0999 V2000
   13.6134   -0.0240   22.6028 C   0  0  0  0  0  0  0  0  0  0  0  0
   12.6355    0.6772   23.5642 C   0  0  0  0  0  0  0  0  0  0  0  0
   11.1939    0.2712   23.2789 C   0  0  0  0  0  0  0  0  0  0  0  0
   10.6044    0.5346   22.2666 O   0  0  0  0  0  0  0  0  0  0  0  0
   10.5449   -0.6474   24.3287 N   0  0  2  0  0  4  0  0  0  0  0  0
   10.9916   -2.1244   24.1414 C   0  0  0  0  0  0  0  0  0  0  0  0
   10.3329   -2.6982   22.8926 C   0  0  0  0  0  0  0  0  0  0  0  0
    8.8191   -2.7755   23.0801 C   0  0  0  0  0  0  0  0  0  0  0  0
    8.2218   -1.4870   23.6213 C   0  0  0  0  0  0  0  0  0  0  0  0
    6.8321   -1.2342   23.5790 C   0  0  0  0  0  0  0  0  0  0  0  0
    5.9602   -1.9978   22.7472 N   0  0  0  0  0  0  0  0  0  0  0  0
    5.0161   -2.8729   23.4469 C   0  0  0  0  0  0  0  0  0  0  0  0
    5.7386   -4.0723   24.0165 C   0  0  0  0  0  0  0  0  0  0  0  0
    6.2441   -4.0914   25.3192 C   0  0  0  0  0  0  0  0  0  0  0  0
    7.0145   -5.1651   25.7583 C   0  0  0  0  0  0  0  0  0  0  0  0
    7.2652   -6.2446   24.9147 C   0  0  0  0  0  0  0  0  0  0  0  0
    6.7578   -6.2161   23.6207 C   0  0  0  0  0  0  0  0  0  0  0  0
    7.0854   -7.5450   22.5432 Cl  0  0  0  0  0  0  0  0  0  0  0  0
    6.0268   -5.1301   23.1586 C   0  0  0  0  0  0  0  0  0  0  0  0
    5.7198   -5.0756   22.1178 H   0  0  0  0  0  0  0  0  0  0  0  0
    7.8797   -7.0808   25.2356 H   0  0  0  0  0  0  0  0  0  0  0  0
    7.4617   -5.1531   26.7515 H   0  0  0  0  0  0  0  0  0  0  0  0
    6.0783   -3.2399   25.9779 H   0  0  0  0  0  0  0  0  0  0  0  0
    4.5458   -2.3088   24.2606 H   0  0  0  0  0  0  0  0  0  0  0  0
    4.2518   -3.1741   22.7256 H   0  0  0  0  0  0  0  0  0  0  0  0
    5.8926   -1.8666   21.3758 C   0  0  0  0  0  0  0  0  0  0  0  0
    5.1879   -2.5889   20.6938 O   0  0  0  0  0  0  0  0  0  0  0  0
    6.7393   -0.7442   20.7538 C   0  0  0  0  0  0  0  0  0  0  0  0
    6.0416   -0.0276   19.6356 C   0  0  0  0  0  0  0  0  0  0  0  0
    6.3800   -0.2581   18.3304 C   0  0  0  0  0  0  0  0  0  0  0  0
    5.7503    0.2748   17.2486 N   0  0  0  0  0  0  0  0  0  0  0  0
    4.7426    1.0768   17.4913 C   0  0  0  0  0  0  0  0  0  0  0  0
    4.2881    1.4182   18.7946 C   0  0  0  0  0  0  0  0  0  0  0  0
    3.1854    2.2844   18.9973 C   0  0  0  0  0  0  0  0  0  0  0  0
    2.7863    2.6171   20.2617 C   0  0  0  0  0  0  0  0  0  0  0  0
    3.4904    2.1146   21.3816 C   0  0  0  0  0  0  0  0  0  0  0  0
    4.5649    1.2745   21.2140 C   0  0  0  0  0  0  0  0  0  0  0  0
    4.9747    0.8805   19.9078 C   0  0  0  0  0  0  0  0  0  0  0  0
    5.1139    0.9292   22.0895 H   0  0  0  0  0  0  0  0  0  0  0  0
    3.1764    2.4021   22.3820 H   0  0  0  0  0  0  0  0  0  0  0  0
    1.9360    3.2769   20.4144 H   0  0  0  0  0  0  0  0  0  0  0  0
    2.6779    2.6786   18.1202 H   0  0  0  0  0  0  0  0  0  0  0  0
    4.2245    1.4976   16.6281 H   0  0  0  0  0  0  0  0  0  0  0  0
    7.2209   -0.9128   18.0979 H   0  0  0  0  0  0  0  0  0  0  0  0
    7.0410   -0.0257   21.5206 H   0  0  0  0  0  0  0  0  0  0  0  0
    7.6555   -1.2185   20.3826 H   0  0  0  0  0  0  0  0  0  0  0  0
    6.2429   -0.2556   24.3749 C   0  0  0  0  0  0  0  0  0  0  0  0
    7.0284    0.4741   25.2592 C   0  0  0  0  0  0  0  0  0  0  0  0
    8.4004    0.2570   25.2819 C   0  0  0  0  0  0  0  0  0  0  0  0
    9.0071   -0.6217   24.3916 C   0  0  0  0  0  0  0  0  0  0  0  0
    8.9897    0.8102   25.9915 H   0  0  0  0  0  0  0  0  0  0  0  0
    6.6007    1.2317   25.9114 H   0  0  0  0  0  0  0  0  0  0  0  0
    5.1722   -0.0690   24.2645 H   0  0  0  0  0  0  0  0  0  0  0  0
    8.3079   -3.0740   22.1604 H   0  0  0  0  0  0  0  0  0  0  0  0
    8.6118   -3.5486   23.8299 H   0  0  0  0  0  0  0  0  0  0  0  0
   10.5804   -2.0909   22.0129 H   0  0  0  0  0  0  0  0  0  0  0  0
   10.7466   -3.6929   22.7490 H   0  0  0  0  0  0  0  0  0  0  0  0
   10.6497   -2.6646   25.0274 H   0  0  0  0  0  0  0  0  0  0  0  0
   12.0817   -2.1587   24.1119 H   0  0  0  0  0  0  0  0  0  0  0  0
   10.8705   -0.3235   25.2595 H   0  0  0  0  0  0  0  0  0  0  0  0
   12.9002    0.4701   24.6085 H   0  0  0  0  0  0  0  0  0  0  0  0
   12.7036    1.7540   23.3895 H   0  0  0  0  0  0  0  0  0  0  0  0
   13.0803   -0.3601   21.7101 H   0  0  0  0  0  0  0  0  0  0  0  0
   14.4128    0.6438   22.2748 H   0  0  0  0  0  0  0  0  0  0  0  0
   14.0666   -0.9056   23.0634 H   0  0  0  0  0  0  0  0  0  0  0  0
  1  2  1  0
  2  3  1  0
  3  4  2  0
  3  5  1  0
  5  6  1  0
  6  7  1  0
  7  8  1  0
  8  9  1  0
  9 10  2  0
 10 11  1  0
 11 12  1  0
 12 13  1  0
 13 14  2  0
 14 15  1  0
 15 16  2  0
 16 17  1  0
 17 18  1  0
 17 19  2  0
 19 20  1  0
 16 21  1  0
 15 22  1  0
 14 23  1  0
 12 24  1  0
 12 25  1  0
 11 26  1  0
 26 27  2  0
 26 28  1  0
 28 29  1  0
 29 30  2  0
 30 31  1  0
 31 32  2  0
 32 33  1  0
 33 34  2  0
 34 35  1  0
 35 36  2  0
 36 37  1  0
 37 38  2  0
 37 39  1  0
 36 40  1  0
 35 41  1  0
 34 42  1  0
 32 43  1  0
 30 44  1  0
 28 45  1  0
 28 46  1  0
 10 47  1  0
 47 48  2  0
 48 49  1  0
 49 50  2  0
 49 51  1  0
 48 52  1  0
 47 53  1  0
  8 54  1  0
  8 55  1  0
  7 56  1  0
  7 57  1  0
  6 58  1  0
  6 59  1  0
  5 60  1  1
  2 61  1  0
  2 62  1  0
  1 63  1  0
  1 64  1  0
  1 65  1  0
 50  5  1  0
 50  9  1  0
 19 13  1  0
 38 29  1  0
 38 33  1  0
M  CHG  1   5   1
M  END
>  <cnnaffinities>  (94) 
[7.06601]

>  <score>  (94) 
7.06601

>  <index>  (94) 
94

>  <Smiles>  (94) 
C(C(C(=O)[N@@+]1(C(C(C(c2c(N(C(c3c(c(c(c(Cl)c3[H])[H])[H])[H])([H])[H])C(=O)C(c3c(nc(c4c(c(c(c(c34)[H])[H])[H])[H])[H])[H])([H])[H])c(c(c(c12)[H])[H])[H])([H])[H])([H])[H])([H])[H])[H])([H])[H])([H])([H])[H]

>  <h>  (94) 
<NA>

>  <Training>  (94) 
True

>  <Success>  (94) 
True

>  <enamine_searched>  (94) 
False

>  <enamine_id>  (94) 
nan

$$$$

     RDKit          3D

 67 71  0  0  0  0  0  0  0  0999 V2000
    7.3262   -8.4941   23.0144 C   0  0  0  0  0  0  0  0  0  0  0  0
    6.5258   -7.3602   22.5704 N   0  0  0  0  0  0  0  0  0  0  0  0
    6.9172   -6.5325   21.5590 C   0  0  0  0  0  0  0  0  0  0  0  0
    7.8101   -6.7787   20.7681 O   0  0  0  0  0  0  0  0  0  0  0  0
    6.1354   -5.2105   21.4886 C   0  0  0  0  0  0  0  0  0  0  0  0
    6.6076   -4.2731   22.4955 N   0  0  0  0  0  0  0  0  0  0  0  0
    7.7404   -3.3872   22.2474 C   0  0  0  0  0  0  0  0  0  0  0  0
    7.3885   -1.9319   22.6473 C   0  0  2  0  0  0  0  0  0  0  0  0
    6.2974   -1.4279   21.6684 C   0  0  0  0  0  0  0  0  0  0  0  0
    5.1547   -1.8265   21.5757 O   0  0  0  0  0  0  0  0  0  0  0  0
    6.8490   -0.4609   20.8499 N   0  0  0  0  0  0  0  0  0  0  0  0
    6.1214    0.0880   19.7753 C   0  0  0  0  0  0  0  0  0  0  0  0
    6.4715   -0.2052   18.4813 C   0  0  0  0  0  0  0  0  0  0  0  0
    5.8092    0.2387   17.3859 N   0  0  0  0  0  0  0  0  0  0  0  0
    4.7750    1.0192   17.5931 C   0  0  0  0  0  0  0  0  0  0  0  0
    4.3193    1.4152   18.8819 C   0  0  0  0  0  0  0  0  0  0  0  0
    3.1975    2.2681   19.0388 C   0  0  0  0  0  0  0  0  0  0  0  0
    2.7892    2.6516   20.2860 C   0  0  0  0  0  0  0  0  0  0  0  0
    3.4830    2.2059   21.4334 C   0  0  0  0  0  0  0  0  0  0  0  0
    4.5720    1.3792   21.3098 C   0  0  0  0  0  0  0  0  0  0  0  0
    5.0080    0.9513   20.0210 C   0  0  0  0  0  0  0  0  0  0  0  0
    5.1024    1.0415   22.1957 H   0  0  0  0  0  0  0  0  0  0  0  0
    3.1534    2.5277   22.4177 H   0  0  0  0  0  0  0  0  0  0  0  0
    1.9347    3.3118   20.4030 H   0  0  0  0  0  0  0  0  0  0  0  0
    2.6900    2.6182   18.1446 H   0  0  0  0  0  0  0  0  0  0  0  0
    4.2372    1.3796   16.7170 H   0  0  0  0  0  0  0  0  0  0  0  0
    7.3167   -0.8660   18.2914 H   0  0  0  0  0  0  0  0  0  0  0  0
    8.2917   -0.3963   20.9552 C   0  0  0  0  0  0  0  0  0  0  0  0
    8.5384   -0.9161   22.3763 C   0  0  2  0  0  0  0  0  0  0  0  0
    9.9811   -1.3819   22.5308 C   0  0  0  0  0  0  0  0  0  0  0  0
   10.4914   -1.5434   24.2480 S   0  0  0  0  0  0  0  0  0  0  0  0
   10.3589   -0.2460   24.8844 O   0  0  0  0  0  0  0  0  0  0  0  0
    9.8494   -2.7209   24.8182 O   0  0  0  0  0  0  0  0  0  0  0  0
   12.1223   -1.9058   24.1421 N   0  0  0  0  0  0  0  0  0  0  0  0
   13.0476   -0.8754   23.6837 C   0  0  0  0  0  0  0  0  0  0  0  0
   14.0732   -1.2374   23.8249 H   0  0  0  0  0  0  0  0  0  0  0  0
   12.9144    0.0222   24.2852 H   0  0  0  0  0  0  0  0  0  0  0  0
   12.9441   -0.6359   22.6140 H   0  0  0  0  0  0  0  0  0  0  0  0
   12.4021   -3.2099   23.5765 C   0  0  0  0  0  0  0  0  0  0  0  0
   11.7233   -3.9389   24.0204 H   0  0  0  0  0  0  0  0  0  0  0  0
   12.3039   -3.2201   22.4840 H   0  0  0  0  0  0  0  0  0  0  0  0
   13.4332   -3.4534   23.8298 H   0  0  0  0  0  0  0  0  0  0  0  0
   10.1433   -2.3425   22.0282 H   0  0  0  0  0  0  0  0  0  0  0  0
   10.6511   -0.6422   22.0822 H   0  0  0  0  0  0  0  0  0  0  0  0
    8.3864   -0.0591   23.0339 H   0  0  0  0  0  0  0  0  0  0  0  0
    8.6374    0.6344   20.8279 H   0  0  0  0  0  0  0  0  0  0  0  0
    8.7954   -1.0209   20.1993 H   0  0  0  0  0  0  0  0  0  0  0  0
    6.8949   -1.9978   24.0835 C   0  0  0  0  0  0  0  0  0  0  0  0
    6.8991   -0.8729   24.9125 C   0  0  0  0  0  0  0  0  0  0  0  0
    6.4396   -0.9744   26.2126 C   0  0  0  0  0  0  0  0  0  0  0  0
    6.4302    0.1315   26.9768 F   0  0  0  0  0  0  0  0  0  0  0  0
    5.9926   -2.1688   26.7668 C   0  0  0  0  0  0  0  0  0  0  0  0
    5.9640   -3.2788   25.9502 C   0  0  0  0  0  0  0  0  0  0  0  0
    6.3631   -3.1837   24.6192 C   0  0  0  0  0  0  0  0  0  0  0  0
    6.1009   -4.3614   23.7504 C   0  0  0  0  0  0  0  0  0  0  0  0
    5.4291   -5.3231   24.1354 O   0  0  0  0  0  0  0  0  0  0  0  0
    5.6075   -4.2358   26.3134 H   0  0  0  0  0  0  0  0  0  0  0  0
    5.6505   -2.2047   27.7949 H   0  0  0  0  0  0  0  0  0  0  0  0
    7.2512    0.0903   24.5642 H   0  0  0  0  0  0  0  0  0  0  0  0
    8.6094   -3.7258   22.8310 H   0  0  0  0  0  0  0  0  0  0  0  0
    7.9866   -3.4369   21.1926 H   0  0  0  0  0  0  0  0  0  0  0  0
    6.2393   -4.7446   20.5012 H   0  0  0  0  0  0  0  0  0  0  0  0
    5.0723   -5.4071   21.6660 H   0  0  0  0  0  0  0  0  0  0  0  0
    5.9089   -6.9508   23.2656 H   0  0  0  0  0  0  0  0  0  0  0  0
    8.3200   -8.2110   23.3934 H   0  0  0  0  0  0  0  0  0  0  0  0
    7.4899   -9.2225   22.2127 H   0  0  0  0  0  0  0  0  0  0  0  0
    6.7718   -8.9748   23.8304 H   0  0  0  0  0  0  0  0  0  0  0  0
  1  2  1  0
  2  3  1  0
  3  4  2  0
  3  5  1  0
  5  6  1  0
  6  7  1  0
  8  7  1  6
  8  9  1  0
  9 10  2  0
  9 11  1  0
 11 12  1  0
 12 13  2  0
 13 14  1  0
 14 15  2  0
 15 16  1  0
 16 17  2  0
 17 18  1  0
 18 19  2  0
 19 20  1  0
 20 21  2  0
 20 22  1  0
 19 23  1  0
 18 24  1  0
 17 25  1  0
 15 26  1  0
 13 27  1  0
 11 28  1  0
 28 29  1  0
 29 30  1  0
 30 31  1  0
 31 32  2  0
 31 33  2  0
 31 34  1  0
 34 35  1  0
 35 36  1  0
 35 37  1  0
 35 38  1  0
 34 39  1  0
 39 40  1  0
 39 41  1  0
 39 42  1  0
 30 43  1  0
 30 44  1  0
 29 45  1  1
 28 46  1  0
 28 47  1  0
  8 48  1  0
 48 49  2  0
 49 50  1  0
 50 51  1  0
 50 52  2  0
 52 53  1  0
 53 54  2  0
 54 55  1  0
 55 56  2  0
 53 57  1  0
 52 58  1  0
 49 59  1  0
  7 60  1  0
  7 61  1  0
  5 62  1  0
  5 63  1  0
  2 64  1  0
  1 65  1  0
  1 66  1  0
  1 67  1  0
 55  6  1  0
 29  8  1  0
 54 48  1  0
 21 12  1  0
 21 16  1  0
M  END
>  <cnnaffinities>  (95) 
[7.08434]

>  <score>  (95) 
7.08434

>  <index>  (95) 
95

>  <Smiles>  (95) 
C(N(C(=O)C(N1C([C@@]2(C(=O)N(c3c(nc(c4c(c(c(c(c34)[H])[H])[H])[H])[H])[H])C([C@@]2(C(S(=O)(=O)N(C([H])([H])[H])C([H])([H])[H])([H])[H])[H])([H])[H])c2c(c(F)c(c(c2C1=O)[H])[H])[H])([H])[H])([H])[H])[H])([H])([H])[H]

>  <h>  (95) 
<NA>

>  <Training>  (95) 
True

>  <Success>  (95) 
True

>  <enamine_searched>  (95) 
False

>  <enamine_id>  (95) 
nan

$$$$

     RDKit          3D

 37 39  0  0  0  0  0  0  0  0999 V2000
    5.8662   -2.6593   20.8445 O   0  0  0  0  0  0  0  0  0  0  0  0
    6.1781   -1.7009   21.5293 C   0  0  0  0  0  0  0  0  0  0  0  0
    6.9020   -0.4902   20.9140 C   0  0  0  0  0  0  0  0  0  0  0  0
    6.1110    0.0956   19.7654 C   0  0  0  0  0  0  0  0  0  0  0  0
    6.4221   -0.2115   18.4650 C   0  0  0  0  0  0  0  0  0  0  0  0
    5.7577    0.2386   17.3660 N   0  0  0  0  0  0  0  0  0  0  0  0
    4.7359    1.0323   17.5758 C   0  0  0  0  0  0  0  0  0  0  0  0
    4.2860    1.4258   18.8644 C   0  0  0  0  0  0  0  0  0  0  0  0
    3.1643    2.2752   19.0419 C   0  0  0  0  0  0  0  0  0  0  0  0
    2.7491    2.6272   20.2974 C   0  0  0  0  0  0  0  0  0  0  0  0
    3.4393    2.1419   21.4307 C   0  0  0  0  0  0  0  0  0  0  0  0
    4.5305    1.3202   21.2863 C   0  0  0  0  0  0  0  0  0  0  0  0
    4.9868    0.9423   19.9962 C   0  0  0  0  0  0  0  0  0  0  0  0
    5.0469    0.9562   22.1700 H   0  0  0  0  0  0  0  0  0  0  0  0
    3.1048    2.4307   22.4228 H   0  0  0  0  0  0  0  0  0  0  0  0
    1.8914    3.2825   20.4326 H   0  0  0  0  0  0  0  0  0  0  0  0
    2.6463    2.6444   18.1595 H   0  0  0  0  0  0  0  0  0  0  0  0
    4.2002    1.3998   16.6978 H   0  0  0  0  0  0  0  0  0  0  0  0
    7.2658   -0.8657   18.2448 H   0  0  0  0  0  0  0  0  0  0  0  0
    7.8573   -0.8591   20.5179 H   0  0  0  0  0  0  0  0  0  0  0  0
    7.1499    0.2712   21.6669 H   0  0  0  0  0  0  0  0  0  0  0  0
    5.8643   -1.6479   22.8585 N   0  0  0  0  0  0  0  0  0  0  0  0
    5.2093   -2.7749   23.5124 C   0  0  0  0  0  0  0  0  0  0  0  0
    6.1038   -3.9833   23.6818 C   0  0  0  0  0  0  0  0  0  0  0  0
    5.9207   -5.1264   22.9072 C   0  0  0  0  0  0  0  0  0  0  0  0
    6.7885   -6.2054   23.0296 C   0  0  0  0  0  0  0  0  0  0  0  0
    7.8422   -6.1627   23.9338 C   0  0  0  0  0  0  0  0  0  0  0  0
    8.0144   -5.0189   24.7025 C   0  0  0  0  0  0  0  0  0  0  0  0
    9.3342   -4.9507   25.8327 Cl  0  0  0  0  0  0  0  0  0  0  0  0
    7.1604   -3.9317   24.5876 C   0  0  0  0  0  0  0  0  0  0  0  0
    7.3287   -3.0492   25.1999 H   0  0  0  0  0  0  0  0  0  0  0  0
    8.5278   -6.9978   24.0457 H   0  0  0  0  0  0  0  0  0  0  0  0
    6.6426   -7.0896   22.4179 H   0  0  0  0  0  0  0  0  0  0  0  0
    5.1120   -5.1530   22.1812 H   0  0  0  0  0  0  0  0  0  0  0  0
    4.8680   -2.4266   24.4899 H   0  0  0  0  0  0  0  0  0  0  0  0
    4.3178   -3.0429   22.9427 H   0  0  0  0  0  0  0  0  0  0  0  0
    6.1707   -0.8725   23.4204 H   0  0  0  0  0  0  0  0  0  0  0  0
  1  2  2  0
  2  3  1  0
  3  4  1  0
  4  5  2  0
  5  6  1  0
  6  7  2  0
  7  8  1  0
  8  9  2  0
  9 10  1  0
 10 11  2  0
 11 12  1  0
 12 13  2  0
 12 14  1  0
 11 15  1  0
 10 16  1  0
  9 17  1  0
  7 18  1  0
  5 19  1  0
  3 20  1  0
  3 21  1  0
  2 22  1  0
 22 23  1  0
 23 24  1  0
 24 25  2  0
 25 26  1  0
 26 27  2  0
 27 28  1  0
 28 29  1  0
 28 30  2  0
 30 31  1  0
 27 32  1  0
 26 33  1  0
 25 34  1  0
 23 35  1  0
 23 36  1  0
 22 37  1  0
 13  4  1  0
 30 24  1  0
 13  8  1  0
M  END
>  <cnnaffinities>  (96) 
[5.36145, 5.17796, 4.91441]

>  <score>  (96) 
5.36145

>  <index>  (96) 
96

>  <Smiles>  (96) 
O=C(C(c1c(nc(c2c(c(c(c(c12)[H])[H])[H])[H])[H])[H])([H])[H])N(C(c1c(c(c(c(Cl)c1[H])[H])[H])[H])([H])[H])[H]

>  <h>  (96) 
<NA>

>  <Training>  (96) 
True

>  <Success>  (96) 
True

>  <enamine_searched>  (96) 
False

>  <enamine_id>  (96) 
nan

$$$$
