
     RDKit          3D

 63 69  0  0  0  0  0  0  0  0999 V2000
   10.6718    2.6202   24.4464 O   0  0  0  0  0  0  0  0  0  0  0  0
   10.0272    1.6927   23.9791 C   0  0  0  0  0  0  0  0  0  0  0  0
   10.6622    0.5189   23.2858 C   0  0  0  0  0  0  0  0  0  0  0  0
   12.0503    0.4668   23.1763 C   0  0  0  0  0  0  0  0  0  0  0  0
   12.6746   -0.4341   22.3360 C   0  0  0  0  0  0  0  0  0  0  0  0
   11.8722   -1.2887   21.5733 C   0  0  0  0  0  0  0  0  0  0  0  0
   12.4828   -2.3057   20.2950 Cl  0  0  0  0  0  0  0  0  0  0  0  0
   10.5072   -1.3151   21.7507 C   0  0  0  0  0  0  0  0  0  0  0  0
    9.8837   -0.4408   22.6367 C   0  0  0  0  0  0  0  0  0  0  0  0
    8.3774   -0.4048   22.6568 C   0  0  1  0  0  0  0  0  0  0  0  0
    7.9239    0.3979   23.8958 C   0  0  0  0  0  0  0  0  0  0  0  0
    8.6524    1.6540   24.0068 N   0  0  0  0  0  0  0  0  0  0  0  0
    7.9521    2.8756   24.3221 C   0  0  0  0  0  0  0  0  0  0  0  0
    7.6117    3.7050   23.1200 C   0  0  0  0  0  0  0  0  0  0  0  0
    8.0264    4.8813   22.8007 N   0  0  0  0  0  0  0  0  0  0  0  0
    7.2788    5.2811   21.6999 N   0  0  0  0  0  0  0  0  0  0  0  0
    6.4764    4.3104   21.4452 C   0  0  0  0  0  0  0  0  0  0  0  0
    6.6310    3.2640   22.2986 O   0  0  0  0  0  0  0  0  0  0  0  0
    5.6783    4.2900   20.7161 H   0  0  0  0  0  0  0  0  0  0  0  0
    8.5755    3.4634   25.0002 H   0  0  0  0  0  0  0  0  0  0  0  0
    7.0221    2.6114   24.8300 H   0  0  0  0  0  0  0  0  0  0  0  0
    8.0959   -0.2226   24.7858 H   0  0  0  0  0  0  0  0  0  0  0  0
    6.8476    0.6091   23.8328 H   0  0  0  0  0  0  0  0  0  0  0  0
    7.8880    0.2935   21.3711 C   0  0  0  0  0  0  0  0  0  0  0  0
    8.3097    1.3155   20.8789 O   0  0  0  0  0  0  0  0  0  0  0  0
    6.8615   -0.4583   20.8446 N   0  0  0  0  0  0  0  0  0  0  0  0
    6.0948    0.0562   19.7712 C   0  0  0  0  0  0  0  0  0  0  0  0
    6.4562   -0.2191   18.4795 C   0  0  0  0  0  0  0  0  0  0  0  0
    5.7916    0.2394   17.3930 N   0  0  0  0  0  0  0  0  0  0  0  0
    4.7561    1.0133   17.6003 C   0  0  0  0  0  0  0  0  0  0  0  0
    4.2981    1.4059   18.8912 C   0  0  0  0  0  0  0  0  0  0  0  0
    3.1924    2.2794   19.0653 C   0  0  0  0  0  0  0  0  0  0  0  0
    2.7846    2.6356   20.3201 C   0  0  0  0  0  0  0  0  0  0  0  0
    3.4528    2.1347   21.4585 C   0  0  0  0  0  0  0  0  0  0  0  0
    4.5315    1.2936   21.3175 C   0  0  0  0  0  0  0  0  0  0  0  0
    4.9772    0.9058   20.0220 C   0  0  0  0  0  0  0  0  0  0  0  0
    5.0566    0.9442   22.2020 H   0  0  0  0  0  0  0  0  0  0  0  0
    3.1165    2.4307   22.4482 H   0  0  0  0  0  0  0  0  0  0  0  0
    1.9415    3.3076   20.4479 H   0  0  0  0  0  0  0  0  0  0  0  0
    2.6893    2.6528   18.1782 H   0  0  0  0  0  0  0  0  0  0  0  0
    4.2186    1.3761   16.7234 H   0  0  0  0  0  0  0  0  0  0  0  0
    7.3304   -0.8390   18.2910 H   0  0  0  0  0  0  0  0  0  0  0  0
    6.4904   -1.6108   21.6394 C   0  0  0  0  0  0  0  0  0  0  0  0
    7.6950   -1.7971   22.5719 C   0  0  2  0  0  0  0  0  0  0  0  0
    7.3462   -2.4403   23.9115 C   0  0  0  0  0  0  0  0  0  0  0  0
    6.8566   -3.7879   23.7292 N   0  0  0  0  0  0  0  0  0  0  0  0
    6.4631   -4.5496   24.7644 C   0  0  0  0  0  0  0  0  0  0  0  0
    6.0164   -5.7855   24.4611 N   0  0  0  0  0  0  0  0  0  0  0  0
    5.6306   -6.4896   25.5086 C   0  0  0  0  0  0  0  0  0  0  0  0
    5.6425   -6.1026   26.7901 N   0  0  0  0  0  0  0  0  0  0  0  0
    6.1122   -4.8676   26.9585 C   0  0  0  0  0  0  0  0  0  0  0  0
    6.5288   -4.0369   26.0082 N   0  0  0  0  0  0  0  0  0  0  0  0
    6.1517   -4.4980   27.9860 H   0  0  0  0  0  0  0  0  0  0  0  0
    5.2588   -7.4933   25.2996 H   0  0  0  0  0  0  0  0  0  0  0  0
    6.8107   -4.2189   22.8201 H   0  0  0  0  0  0  0  0  0  0  0  0
    8.2310   -2.4803   24.5607 H   0  0  0  0  0  0  0  0  0  0  0  0
    6.5721   -1.8687   24.4419 H   0  0  0  0  0  0  0  0  0  0  0  0
    8.3928   -2.4831   22.0832 H   0  0  0  0  0  0  0  0  0  0  0  0
    6.3198   -2.4778   20.9927 H   0  0  0  0  0  0  0  0  0  0  0  0
    5.5667   -1.4337   22.2150 H   0  0  0  0  0  0  0  0  0  0  0  0
    9.9203   -2.0010   21.1570 H   0  0  0  0  0  0  0  0  0  0  0  0
   13.7571   -0.4352   22.2665 H   0  0  0  0  0  0  0  0  0  0  0  0
   12.6279    1.1986   23.7228 H   0  0  0  0  0  0  0  0  0  0  0  0
  1  2  2  0
  2  3  1  0
  3  4  2  0
  4  5  1  0
  5  6  2  0
  6  7  1  0
  6  8  1  0
  8  9  2  0
  9 10  1  0
 10 11  1  1
 11 12  1  0
 12 13  1  0
 13 14  1  0
 14 15  2  0
 15 16  1  0
 16 17  2  0
 17 18  1  0
 17 19  1  0
 13 20  1  0
 13 21  1  0
 11 22  1  0
 11 23  1  0
 10 24  1  0
 24 25  2  0
 24 26  1  0
 26 27  1  0
 27 28  2  0
 28 29  1  0
 29 30  2  0
 30 31  1  0
 31 32  2  0
 32 33  1  0
 33 34  2  0
 34 35  1  0
 35 36  2  0
 35 37  1  0
 34 38  1  0
 33 39  1  0
 32 40  1  0
 30 41  1  0
 28 42  1  0
 26 43  1  0
 43 44  1  0
 44 45  1  0
 45 46  1  0
 46 47  1  0
 47 48  2  0
 48 49  1  0
 49 50  2  0
 50 51  1  0
 51 52  2  0
 51 53  1  0
 49 54  1  0
 46 55  1  0
 45 56  1  0
 45 57  1  0
 44 58  1  6
 43 59  1  0
 43 60  1  0
  8 61  1  0
  5 62  1  0
  4 63  1  0
 12  2  1  0
 18 14  1  0
 36 27  1  0
 52 47  1  0
  9  3  1  0
 44 10  1  0
 36 31  1  0
M  END
>  <cnnaffinities>  (1) 
[6.72624, 6.5883, 6.87872, 6.88005]

>  <score>  (1) 
6.72624

>  <index>  (1) 
0

>  <Smiles>  (1) 
O=C1c2c(c(c(Cl)c(c2[C@@]2(C(N1C(c1nnc(o1)[H])([H])[H])([H])[H])C(=O)N(c1c(nc(c3c(c(c(c(c13)[H])[H])[H])[H])[H])[H])C([C@@]2(C(N(c1nc(nc(n1)[H])[H])[H])([H])[H])[H])([H])[H])[H])[H])[H]

>  <h>  (1) 
<NA>

>  <Training>  (1) 
True

>  <Success>  (1) 
True

>  <enamine_searched>  (1) 
False

>  <enamine_id>  (1) 
nan

$$$$

     RDKit          3D

 51 54  0  0  0  0  0  0  0  0999 V2000
    3.0390   -6.1861   26.4012 C   0  0  0  0  0  0  0  0  0  0  0  0
    3.8570   -6.3278   25.2625 O   0  0  0  0  0  0  0  0  0  0  0  0
    4.4439   -5.2072   24.7631 C   0  0  0  0  0  0  0  0  0  0  0  0
    4.3115   -3.9315   25.3071 C   0  0  0  0  0  0  0  0  0  0  0  0
    4.9632   -2.8576   24.7046 C   0  0  0  0  0  0  0  0  0  0  0  0
    5.7116   -3.0404   23.5475 C   0  0  0  0  0  0  0  0  0  0  0  0
    6.3654   -1.9360   22.9228 N   0  0  0  0  0  0  0  0  0  0  0  0
    7.3079   -1.1511   23.7142 C   0  0  0  0  0  0  0  0  0  0  0  0
    8.7676   -1.3496   23.3527 C   0  0  0  0  0  0  0  0  0  0  0  0
    9.3428   -2.5965   23.5903 C   0  0  0  0  0  0  0  0  0  0  0  0
   10.6937   -2.8038   23.3617 C   0  0  0  0  0  0  0  0  0  0  0  0
   11.4859   -1.8052   22.8071 C   0  0  0  0  0  0  0  0  0  0  0  0
   10.9113   -0.5626   22.5861 C   0  0  0  0  0  0  0  0  0  0  0  0
   11.8990    0.7106   21.9286 Cl  0  0  0  0  0  0  0  0  0  0  0  0
    9.5746   -0.3141   22.8766 C   0  0  0  0  0  0  0  0  0  0  0  0
    9.1776    0.6846   22.6973 H   0  0  0  0  0  0  0  0  0  0  0  0
   12.5299   -1.9735   22.5682 H   0  0  0  0  0  0  0  0  0  0  0  0
   11.1261   -3.7554   23.6475 H   0  0  0  0  0  0  0  0  0  0  0  0
    8.7346   -3.4163   23.9699 H   0  0  0  0  0  0  0  0  0  0  0  0
    7.1680   -1.4831   24.7434 H   0  0  0  0  0  0  0  0  0  0  0  0
    7.0388   -0.0895   23.6988 H   0  0  0  0  0  0  0  0  0  0  0  0
    6.0893   -1.7067   21.5870 C   0  0  0  0  0  0  0  0  0  0  0  0
    5.2939   -2.3927   20.9673 O   0  0  0  0  0  0  0  0  0  0  0  0
    6.8259   -0.5461   20.9138 C   0  0  0  0  0  0  0  0  0  0  0  0
    6.0651    0.0527   19.7705 C   0  0  0  0  0  0  0  0  0  0  0  0
    6.4019   -0.2331   18.4744 C   0  0  0  0  0  0  0  0  0  0  0  0
    5.7613    0.2422   17.3755 N   0  0  0  0  0  0  0  0  0  0  0  0
    4.7364    1.0297   17.5769 C   0  0  0  0  0  0  0  0  0  0  0  0
    4.2714    1.4158   18.8641 C   0  0  0  0  0  0  0  0  0  0  0  0
    3.1578    2.2782   19.0324 C   0  0  0  0  0  0  0  0  0  0  0  0
    2.7411    2.6369   20.2846 C   0  0  0  0  0  0  0  0  0  0  0  0
    3.4200    2.1490   21.4233 C   0  0  0  0  0  0  0  0  0  0  0  0
    4.4981    1.3101   21.2861 C   0  0  0  0  0  0  0  0  0  0  0  0
    4.9542    0.9182   19.9981 C   0  0  0  0  0  0  0  0  0  0  0  0
    5.0039    0.9458   22.1748 H   0  0  0  0  0  0  0  0  0  0  0  0
    3.0888    2.4461   22.4144 H   0  0  0  0  0  0  0  0  0  0  0  0
    1.8918    3.3027   20.4133 H   0  0  0  0  0  0  0  0  0  0  0  0
    2.6510    2.6478   18.1446 H   0  0  0  0  0  0  0  0  0  0  0  0
    4.2167    1.4037   16.6935 H   0  0  0  0  0  0  0  0  0  0  0  0
    7.2520   -0.8825   18.2645 H   0  0  0  0  0  0  0  0  0  0  0  0
    7.0551    0.2270   21.6509 H   0  0  0  0  0  0  0  0  0  0  0  0
    7.7831   -0.9421   20.5491 H   0  0  0  0  0  0  0  0  0  0  0  0
    5.8527   -4.3222   23.0186 C   0  0  0  0  0  0  0  0  0  0  0  0
    5.2351   -5.3990   23.6260 C   0  0  0  0  0  0  0  0  0  0  0  0
    5.3433   -6.4052   23.2324 H   0  0  0  0  0  0  0  0  0  0  0  0
    6.4390   -4.4653   22.1152 H   0  0  0  0  0  0  0  0  0  0  0  0
    4.8643   -1.8583   25.1254 H   0  0  0  0  0  0  0  0  0  0  0  0
    3.7384   -3.7595   26.2115 H   0  0  0  0  0  0  0  0  0  0  0  0
    3.6077   -5.8202   27.2656 H   0  0  0  0  0  0  0  0  0  0  0  0
    2.6553   -7.1832   26.6178 H   0  0  0  0  0  0  0  0  0  0  0  0
    2.1975   -5.5069   26.2141 H   0  0  0  0  0  0  0  0  0  0  0  0
  1  2  1  0
  2  3  1  0
  3  4  2  0
  4  5  1  0
  5  6  2  0
  6  7  1  0
  7  8  1  0
  8  9  1  0
  9 10  2  0
 10 11  1  0
 11 12  2  0
 12 13  1  0
 13 14  1  0
 13 15  2  0
 15 16  1  0
 12 17  1  0
 11 18  1  0
 10 19  1  0
  8 20  1  0
  8 21  1  0
  7 22  1  0
 22 23  2  0
 22 24  1  0
 24 25  1  0
 25 26  2  0
 26 27  1  0
 27 28  2  0
 28 29  1  0
 29 30  2  0
 30 31  1  0
 31 32  2  0
 32 33  1  0
 33 34  2  0
 33 35  1  0
 32 36  1  0
 31 37  1  0
 30 38  1  0
 28 39  1  0
 26 40  1  0
 24 41  1  0
 24 42  1  0
  6 43  1  0
 43 44  2  0
 44 45  1  0
 43 46  1  0
  5 47  1  0
  4 48  1  0
  1 49  1  0
  1 50  1  0
  1 51  1  0
 44  3  1  0
 15  9  1  0
 34 25  1  0
 34 29  1  0
M  END
>  <cnnaffinities>  (2) 
[6.19003]

>  <score>  (2) 
6.19003

>  <index>  (2) 
1

>  <Smiles>  (2) 
C(Oc1c(c(c(N(C(c2c(c(c(c(Cl)c2[H])[H])[H])[H])([H])[H])C(=O)C(c2c(nc(c3c(c(c(c(c23)[H])[H])[H])[H])[H])[H])([H])[H])c(c1[H])[H])[H])[H])([H])([H])[H]

>  <h>  (2) 
<NA>

>  <Training>  (2) 
True

>  <Success>  (2) 
True

>  <enamine_searched>  (2) 
False

>  <enamine_id>  (2) 
nan

$$$$

     RDKit          3D

 56 60  0  0  0  0  0  0  0  0999 V2000
    2.3273   -4.5616   22.5364 C   0  0  0  0  0  0  0  0  0  0  0  0
    3.5150   -4.9386   23.2796 N   0  0  0  0  0  0  0  0  0  0  0  0
    4.7089   -5.0377   22.6238 C   0  0  0  0  0  0  0  0  0  0  0  0
    4.8139   -5.0876   21.4115 O   0  0  0  0  0  0  0  0  0  0  0  0
    5.9495   -5.0696   23.5307 C   0  0  0  0  0  0  0  0  0  0  0  0
    6.3480   -3.7001   23.8490 N   0  0  0  0  0  0  0  0  0  0  0  0
    7.5052   -3.1192   23.1742 C   0  0  0  0  0  0  0  0  0  0  0  0
    7.3258   -1.6152   22.8721 C   0  0  2  0  0  0  0  0  0  0  0  0
    6.3218   -1.4048   21.7151 C   0  0  0  0  0  0  0  0  0  0  0  0
    5.2322   -1.9227   21.5864 O   0  0  0  0  0  0  0  0  0  0  0  0
    6.8524   -0.4815   20.8481 N   0  0  0  0  0  0  0  0  0  0  0  0
    6.1012    0.0703   19.7882 C   0  0  0  0  0  0  0  0  0  0  0  0
    6.4599   -0.2003   18.4930 C   0  0  0  0  0  0  0  0  0  0  0  0
    5.7966    0.2577   17.4068 N   0  0  0  0  0  0  0  0  0  0  0  0
    4.7557    1.0237   17.6149 C   0  0  0  0  0  0  0  0  0  0  0  0
    4.2992    1.4102   18.9061 C   0  0  0  0  0  0  0  0  0  0  0  0
    3.1823    2.2693   19.0623 C   0  0  0  0  0  0  0  0  0  0  0  0
    2.7827    2.6619   20.3078 C   0  0  0  0  0  0  0  0  0  0  0  0
    3.4812    2.2130   21.4529 C   0  0  0  0  0  0  0  0  0  0  0  0
    4.5627    1.3753   21.3346 C   0  0  0  0  0  0  0  0  0  0  0  0
    4.9905    0.9378   20.0433 C   0  0  0  0  0  0  0  0  0  0  0  0
    5.0954    1.0502   22.2312 H   0  0  0  0  0  0  0  0  0  0  0  0
    3.1567    2.5427   22.4353 H   0  0  0  0  0  0  0  0  0  0  0  0
    1.9360    3.3323   20.4268 H   0  0  0  0  0  0  0  0  0  0  0  0
    2.6720    2.6166   18.1684 H   0  0  0  0  0  0  0  0  0  0  0  0
    4.2190    1.3890   16.7385 H   0  0  0  0  0  0  0  0  0  0  0  0
    7.3169   -0.8441   18.2955 H   0  0  0  0  0  0  0  0  0  0  0  0
    8.2005   -0.0563   21.1575 C   0  0  0  0  0  0  0  0  0  0  0  0
    8.6275   -0.9535   22.3331 C   0  0  2  0  0  0  0  0  0  0  0  0
    9.6664   -1.9518   21.8496 N   0  0  0  0  0  4  0  0  0  0  0  0
    9.2959   -2.4983   21.0517 H   0  0  0  0  0  0  0  0  0  0  0  0
   10.5108   -1.4432   21.5367 H   0  0  0  0  0  0  0  0  0  0  0  0
    9.9405   -2.5854   22.6144 H   0  0  0  0  0  0  0  0  0  0  0  0
    9.1046   -0.3814   23.1249 H   0  0  0  0  0  0  0  0  0  0  0  0
    8.8680   -0.2124   20.3119 H   0  0  0  0  0  0  0  0  0  0  0  0
    8.2283    1.0098   21.4096 H   0  0  0  0  0  0  0  0  0  0  0  0
    6.7885   -0.9151   24.1167 C   0  0  0  0  0  0  0  0  0  0  0  0
    6.9759    0.4573   24.3302 C   0  0  0  0  0  0  0  0  0  0  0  0
    6.4461    1.0683   25.4563 C   0  0  0  0  0  0  0  0  0  0  0  0
    6.7016    2.7760   25.7062 Cl  0  0  0  0  0  0  0  0  0  0  0  0
    5.7067    0.3512   26.3951 C   0  0  0  0  0  0  0  0  0  0  0  0
    5.4804   -0.9893   26.1668 C   0  0  0  0  0  0  0  0  0  0  0  0
    5.9940   -1.6122   25.0310 C   0  0  0  0  0  0  0  0  0  0  0  0
    5.6322   -3.0375   24.7921 C   0  0  0  0  0  0  0  0  0  0  0  0
    4.7144   -3.5861   25.4163 O   0  0  0  0  0  0  0  0  0  0  0  0
    4.8966   -1.5836   26.8600 H   0  0  0  0  0  0  0  0  0  0  0  0
    5.3050    0.8436   27.2726 H   0  0  0  0  0  0  0  0  0  0  0  0
    7.5254    1.0719   23.6253 H   0  0  0  0  0  0  0  0  0  0  0  0
    7.6311   -3.6731   22.2384 H   0  0  0  0  0  0  0  0  0  0  0  0
    8.3807   -3.2630   23.8201 H   0  0  0  0  0  0  0  0  0  0  0  0
    6.7592   -5.5525   22.9741 H   0  0  0  0  0  0  0  0  0  0  0  0
    5.7753   -5.6392   24.4559 H   0  0  0  0  0  0  0  0  0  0  0  0
    3.5742   -4.6195   24.2410 H   0  0  0  0  0  0  0  0  0  0  0  0
    1.8941   -5.3825   21.9586 H   0  0  0  0  0  0  0  0  0  0  0  0
    2.5631   -3.7510   21.8483 H   0  0  0  0  0  0  0  0  0  0  0  0
    1.5560   -4.2001   23.2179 H   0  0  0  0  0  0  0  0  0  0  0  0
  1  2  1  0
  2  3  1  0
  3  4  2  0
  3  5  1  0
  5  6  1  0
  6  7  1  0
  8  7  1  1
  8  9  1  0
  9 10  2  0
  9 11  1  0
 11 12  1  0
 12 13  2  0
 13 14  1  0
 14 15  2  0
 15 16  1  0
 16 17  2  0
 17 18  1  0
 18 19  2  0
 19 20  1  0
 20 21  2  0
 20 22  1  0
 19 23  1  0
 18 24  1  0
 17 25  1  0
 15 26  1  0
 13 27  1  0
 11 28  1  0
 28 29  1  0
 29 30  1  0
 30 31  1  0
 30 32  1  0
 30 33  1  0
 29 34  1  1
 28 35  1  0
 28 36  1  0
  8 37  1  0
 37 38  2  0
 38 39  1  0
 39 40  1  0
 39 41  2  0
 41 42  1  0
 42 43  2  0
 43 44  1  0
 44 45  2  0
 42 46  1  0
 41 47  1  0
 38 48  1  0
  7 49  1  0
  7 50  1  0
  5 51  1  0
  5 52  1  0
  2 53  1  0
  1 54  1  0
  1 55  1  0
  1 56  1  0
 44  6  1  0
 29  8  1  0
 43 37  1  0
 21 12  1  0
 21 16  1  0
M  CHG  1  30   1
M  END
>  <cnnaffinities>  (3) 
[6.52087, 6.16591]

>  <score>  (3) 
6.52087

>  <index>  (3) 
2

>  <Smiles>  (3) 
C(N(C(=O)C(N1C([C@@]2(C(=O)N(c3c(nc(c4c(c(c(c(c34)[H])[H])[H])[H])[H])[H])C([C@@]2([N+]([H])([H])[H])[H])([H])[H])c2c(c(Cl)c(c(c2C1=O)[H])[H])[H])([H])[H])([H])[H])[H])([H])([H])[H]

>  <h>  (3) 
<NA>

>  <Training>  (3) 
True

>  <Success>  (3) 
True

>  <enamine_searched>  (3) 
False

>  <enamine_id>  (3) 
nan

$$$$

     RDKit          3D

 67 73  0  0  0  0  0  0  0  0999 V2000
    9.1839    2.4582   25.6820 O   0  0  0  0  0  0  0  0  0  0  0  0
    8.9374    1.5575   24.8865 C   0  0  0  0  0  0  0  0  0  0  0  0
    9.9950    0.8208   24.1184 C   0  0  0  0  0  0  0  0  0  0  0  0
   11.3110    1.1731   24.3736 C   0  0  0  0  0  0  0  0  0  0  0  0
   12.3292    0.7552   23.5486 C   0  0  0  0  0  0  0  0  0  0  0  0
   11.9868    0.0066   22.4231 C   0  0  0  0  0  0  0  0  0  0  0  0
   13.2089   -0.1944   21.2032 Cl  0  0  0  0  0  0  0  0  0  0  0  0
   10.6977   -0.4557   22.2089 C   0  0  0  0  0  0  0  0  0  0  0  0
    9.6768   -0.0759   23.0912 C   0  0  0  0  0  0  0  0  0  0  0  0
    8.2360   -0.4598   22.8250 C   0  0  1  0  0  0  0  0  0  0  0  0
    7.4133   -0.1640   24.1029 C   0  0  0  0  0  0  0  0  0  0  0  0
    7.6636    1.1781   24.5821 N   0  0  0  0  0  0  0  0  0  0  0  0
    6.5407    2.0054   24.9808 C   0  0  0  0  0  0  0  0  0  0  0  0
    5.8226    1.4921   26.2140 C   0  0  0  0  0  0  0  0  0  0  0  0
    4.6865    0.7149   26.1507 C   0  0  0  0  0  0  0  0  0  0  0  0
    4.1514    0.2531   27.3530 C   0  0  0  0  0  0  0  0  0  0  0  0
    4.6748    0.5295   28.5420 N   0  0  0  0  0  0  0  0  0  0  0  0
    5.7639    1.2841   28.6151 N   0  0  0  0  0  0  0  0  0  0  0  0
    6.3196    1.7453   27.4992 C   0  0  0  0  0  0  0  0  0  0  0  0
    7.2071    2.3586   27.6411 H   0  0  0  0  0  0  0  0  0  0  0  0
    3.2641   -0.3748   27.3732 H   0  0  0  0  0  0  0  0  0  0  0  0
    4.2200    0.4648   25.1967 H   0  0  0  0  0  0  0  0  0  0  0  0
    5.8440    2.0433   24.1287 H   0  0  0  0  0  0  0  0  0  0  0  0
    6.9418    3.0081   25.1538 H   0  0  0  0  0  0  0  0  0  0  0  0
    6.3408   -0.2551   23.9017 H   0  0  0  0  0  0  0  0  0  0  0  0
    7.6748   -0.8802   24.8974 H   0  0  0  0  0  0  0  0  0  0  0  0
    7.6733    0.4023   21.6678 C   0  0  0  0  0  0  0  0  0  0  0  0
    7.8119    1.5952   21.5087 O   0  0  0  0  0  0  0  0  0  0  0  0
    6.9294   -0.4049   20.8365 N   0  0  0  0  0  0  0  0  0  0  0  0
    6.1431    0.1093   19.7750 C   0  0  0  0  0  0  0  0  0  0  0  0
    6.4434   -0.2239   18.4770 C   0  0  0  0  0  0  0  0  0  0  0  0
    5.7671    0.2274   17.3941 N   0  0  0  0  0  0  0  0  0  0  0  0
    4.7459    1.0210   17.5995 C   0  0  0  0  0  0  0  0  0  0  0  0
    4.2987    1.4194   18.8903 C   0  0  0  0  0  0  0  0  0  0  0  0
    3.1735    2.2707   19.0609 C   0  0  0  0  0  0  0  0  0  0  0  0
    2.7477    2.6160   20.3146 C   0  0  0  0  0  0  0  0  0  0  0  0
    3.4206    2.1164   21.4528 C   0  0  0  0  0  0  0  0  0  0  0  0
    4.5109    1.2942   21.3109 C   0  0  0  0  0  0  0  0  0  0  0  0
    4.9992    0.9412   20.0198 C   0  0  0  0  0  0  0  0  0  0  0  0
    5.0189    0.9110   22.1904 H   0  0  0  0  0  0  0  0  0  0  0  0
    3.0777    2.3974   22.4434 H   0  0  0  0  0  0  0  0  0  0  0  0
    1.8963    3.2786   20.4432 H   0  0  0  0  0  0  0  0  0  0  0  0
    2.6659    2.6409   18.1745 H   0  0  0  0  0  0  0  0  0  0  0  0
    4.2178    1.3839   16.7185 H   0  0  0  0  0  0  0  0  0  0  0  0
    7.2875   -0.8792   18.2642 H   0  0  0  0  0  0  0  0  0  0  0  0
    6.8457   -1.7787   21.2775 C   0  0  0  0  0  0  0  0  0  0  0  0
    8.0032   -1.9016   22.2870 C   0  0  2  0  0  0  0  0  0  0  0  0
    7.7767   -3.0147   23.3346 C   0  0  0  0  0  0  0  0  0  0  0  0
    7.8207   -4.3507   22.7866 N   0  0  0  0  0  0  0  0  0  0  0  0
    6.8120   -4.9800   22.1426 C   0  0  0  0  0  0  0  0  0  0  0  0
    5.4585   -4.6814   22.3941 C   0  0  0  0  0  0  0  0  0  0  0  0
    4.5420   -5.4592   21.7239 C   0  0  0  0  0  0  0  0  0  0  0  0
    4.9029   -6.4272   20.8722 N   0  0  0  0  0  0  0  0  0  0  0  0
    6.1966   -6.5815   20.6725 C   0  0  0  0  0  0  0  0  0  0  0  0
    7.1871   -5.9299   21.2684 N   0  0  0  0  0  0  0  0  0  0  0  0
    6.4621   -7.3165   19.9153 H   0  0  0  0  0  0  0  0  0  0  0  0
    3.4683   -5.2919   21.8368 H   0  0  0  0  0  0  0  0  0  0  0  0
    5.1599   -3.9023   23.0932 H   0  0  0  0  0  0  0  0  0  0  0  0
    8.7218   -4.7776   22.6473 H   0  0  0  0  0  0  0  0  0  0  0  0
    6.8108   -2.8686   23.8375 H   0  0  0  0  0  0  0  0  0  0  0  0
    8.5616   -2.9833   24.0964 H   0  0  0  0  0  0  0  0  0  0  0  0
    8.9081   -2.1618   21.7328 H   0  0  0  0  0  0  0  0  0  0  0  0
    6.9339   -2.4509   20.4223 H   0  0  0  0  0  0  0  0  0  0  0  0
    5.8693   -1.9826   21.7473 H   0  0  0  0  0  0  0  0  0  0  0  0
   10.4914   -1.0956   21.3541 H   0  0  0  0  0  0  0  0  0  0  0  0
   13.3674    1.0108   23.7291 H   0  0  0  0  0  0  0  0  0  0  0  0
   11.4517    1.8433   25.1983 H   0  0  0  0  0  0  0  0  0  0  0  0
  1  2  2  0
  2  3  1  0
  3  4  2  0
  4  5  1  0
  5  6  2  0
  6  7  1  0
  6  8  1  0
  8  9  2  0
  9 10  1  0
 10 11  1  1
 11 12  1  0
 12 13  1  0
 13 14  1  0
 14 15  2  0
 15 16  1  0
 16 17  2  0
 17 18  1  0
 18 19  2  0
 19 20  1  0
 16 21  1  0
 15 22  1  0
 13 23  1  0
 13 24  1  0
 11 25  1  0
 11 26  1  0
 10 27  1  0
 27 28  2  0
 27 29  1  0
 29 30  1  0
 30 31  2  0
 31 32  1  0
 32 33  2  0
 33 34  1  0
 34 35  2  0
 35 36  1  0
 36 37  2  0
 37 38  1  0
 38 39  2  0
 38 40  1  0
 37 41  1  0
 36 42  1  0
 35 43  1  0
 33 44  1  0
 31 45  1  0
 29 46  1  0
 46 47  1  0
 47 48  1  0
 48 49  1  0
 49 50  1  0
 50 51  2  0
 51 52  1  0
 52 53  2  0
 53 54  1  0
 54 55  2  0
 54 56  1  0
 52 57  1  0
 51 58  1  0
 49 59  1  0
 48 60  1  0
 48 61  1  0
 47 62  1  6
 46 63  1  0
 46 64  1  0
  8 65  1  0
  5 66  1  0
  4 67  1  0
 12  2  1  0
 19 14  1  0
 39 30  1  0
 55 50  1  0
  9  3  1  0
 47 10  1  0
 39 34  1  0
M  END
>  <cnnaffinities>  (4) 
[6.82785]

>  <score>  (4) 
6.82785

>  <index>  (4) 
3

>  <Smiles>  (4) 
O=C1c2c(c(c(Cl)c(c2[C@@]2(C(N1C(c1c(c(nnc1[H])[H])[H])([H])[H])([H])[H])C(=O)N(c1c(nc(c3c(c(c(c(c13)[H])[H])[H])[H])[H])[H])C([C@@]2(C(N(c1c(c(nc(n1)[H])[H])[H])[H])([H])[H])[H])([H])[H])[H])[H])[H]

>  <h>  (4) 
<NA>

>  <Training>  (4) 
True

>  <Success>  (4) 
True

>  <enamine_searched>  (4) 
False

>  <enamine_id>  (4) 
nan

$$$$

     RDKit          3D

 41 44  0  0  0  0  0  0  0  0999 V2000
    9.0632    2.1868   23.9952 C   0  0  0  0  0  0  0  0  0  0  0  0
    9.7167    1.2507   22.9760 C   0  0  1  0  0  0  0  0  0  0  0  0
   10.9788    0.6457   23.5188 C   0  0  0  0  0  0  0  0  0  0  0  0
   12.2918    1.2146   23.5257 C   0  0  0  0  0  0  0  0  0  0  0  0
   13.2289    0.3541   24.0052 C   0  0  0  0  0  0  0  0  0  0  0  0
   12.5309   -1.1310   24.5075 S   0  0  0  0  0  0  0  0  0  0  0  0
   10.9461   -0.5860   24.0814 C   0  0  0  0  0  0  0  0  0  0  0  0
    9.6649   -1.3443   24.2462 C   0  0  0  0  0  0  0  0  0  0  0  0
    8.7980   -1.1839   22.9943 C   0  0  0  0  0  0  0  0  0  0  0  0
    8.7758    0.2062   22.5063 N   0  0  0  0  0  0  0  0  0  0  0  0
    7.9496    0.5912   21.4815 C   0  0  0  0  0  0  0  0  0  0  0  0
    7.9891    1.7190   21.0032 O   0  0  0  0  0  0  0  0  0  0  0  0
    6.9709   -0.4431   20.9204 C   0  0  0  0  0  0  0  0  0  0  0  0
    6.1357    0.0883   19.7878 C   0  0  0  0  0  0  0  0  0  0  0  0
    6.4516   -0.2075   18.4865 C   0  0  0  0  0  0  0  0  0  0  0  0
    5.7864    0.2403   17.3887 N   0  0  0  0  0  0  0  0  0  0  0  0
    4.7551    1.0200   17.5942 C   0  0  0  0  0  0  0  0  0  0  0  0
    4.3107    1.4205   18.8839 C   0  0  0  0  0  0  0  0  0  0  0  0
    3.1885    2.2726   19.0509 C   0  0  0  0  0  0  0  0  0  0  0  0
    2.7818    2.6420   20.3042 C   0  0  0  0  0  0  0  0  0  0  0  0
    3.4782    2.1731   21.4426 C   0  0  0  0  0  0  0  0  0  0  0  0
    4.5684    1.3471   21.3042 C   0  0  0  0  0  0  0  0  0  0  0  0
    5.0182    0.9488   20.0156 C   0  0  0  0  0  0  0  0  0  0  0  0
    5.1045    1.0041   22.1840 H   0  0  0  0  0  0  0  0  0  0  0  0
    3.1449    2.4719   22.4334 H   0  0  0  0  0  0  0  0  0  0  0  0
    1.9288    3.3029   20.4346 H   0  0  0  0  0  0  0  0  0  0  0  0
    2.6677    2.6279   18.1620 H   0  0  0  0  0  0  0  0  0  0  0  0
    4.2119    1.3832   16.7193 H   0  0  0  0  0  0  0  0  0  0  0  0
    7.2969   -0.8615   18.2719 H   0  0  0  0  0  0  0  0  0  0  0  0
    6.3295   -0.8116   21.7293 H   0  0  0  0  0  0  0  0  0  0  0  0
    7.5570   -1.2971   20.5615 H   0  0  0  0  0  0  0  0  0  0  0  0
    9.1968   -1.8556   22.2203 H   0  0  0  0  0  0  0  0  0  0  0  0
    7.7741   -1.5260   23.2133 H   0  0  0  0  0  0  0  0  0  0  0  0
    9.8523   -2.4040   24.4402 H   0  0  0  0  0  0  0  0  0  0  0  0
    9.1141   -0.9465   25.1098 H   0  0  0  0  0  0  0  0  0  0  0  0
   14.2908    0.5049   24.0805 H   0  0  0  0  0  0  0  0  0  0  0  0
   12.5269    2.2198   23.2021 H   0  0  0  0  0  0  0  0  0  0  0  0
    9.9524    1.8354   22.0766 H   0  0  0  0  0  0  0  0  0  0  0  0
    8.7455    1.6228   24.8779 H   0  0  0  0  0  0  0  0  0  0  0  0
    9.8059    2.9314   24.2961 H   0  0  0  0  0  0  0  0  0  0  0  0
    8.1949    2.6955   23.5710 H   0  0  0  0  0  0  0  0  0  0  0  0
  1  2  1  0
  2  3  1  0
  3  4  1  0
  4  5  2  0
  5  6  1  0
  6  7  1  0
  7  8  1  0
  8  9  1  0
  9 10  1  0
 10 11  1  0
 11 12  2  0
 11 13  1  0
 13 14  1  0
 14 15  2  0
 15 16  1  0
 16 17  2  0
 17 18  1  0
 18 19  2  0
 19 20  1  0
 20 21  2  0
 21 22  1  0
 22 23  2  0
 22 24  1  0
 21 25  1  0
 20 26  1  0
 19 27  1  0
 17 28  1  0
 15 29  1  0
 13 30  1  0
 13 31  1  0
  9 32  1  0
  9 33  1  0
  8 34  1  0
  8 35  1  0
  5 36  1  0
  4 37  1  0
  2 38  1  6
  1 39  1  0
  1 40  1  0
  1 41  1  0
 10  2  1  0
 23 14  1  0
  7  3  2  0
 23 18  1  0
M  END
>  <cnnaffinities>  (5) 
[6.18477]

>  <score>  (5) 
6.18477

>  <index>  (5) 
4

>  <Smiles>  (5) 
C([C@]1(c2c(c(sc2C(C(N1C(=O)C(c1c(nc(c2c(c(c(c(c12)[H])[H])[H])[H])[H])[H])([H])[H])([H])[H])([H])[H])[H])[H])[H])([H])([H])[H]

>  <h>  (5) 
<NA>

>  <Training>  (5) 
True

>  <Success>  (5) 
True

>  <enamine_searched>  (5) 
False

>  <enamine_id>  (5) 
nan

$$$$

     RDKit          3D

 50 54  0  0  0  0  0  0  0  0999 V2000
    9.7440   -1.9727   21.8261 C   0  0  0  0  0  0  0  0  0  0  0  0
    8.6639   -0.9848   22.3186 C   0  0  1  0  0  0  0  0  0  0  0  0
    8.2152   -0.0732   21.1509 C   0  0  0  0  0  0  0  0  0  0  0  0
    6.8652   -0.4940   20.8453 N   0  0  0  0  0  0  0  0  0  0  0  0
    6.1009    0.0543   19.7783 C   0  0  0  0  0  0  0  0  0  0  0  0
    6.4390   -0.2215   18.4786 C   0  0  0  0  0  0  0  0  0  0  0  0
    5.7752    0.2498   17.3963 N   0  0  0  0  0  0  0  0  0  0  0  0
    4.7420    1.0254   17.5982 C   0  0  0  0  0  0  0  0  0  0  0  0
    4.2923    1.4197   18.8869 C   0  0  0  0  0  0  0  0  0  0  0  0
    3.1755    2.2813   19.0574 C   0  0  0  0  0  0  0  0  0  0  0  0
    2.7787    2.6583   20.3090 C   0  0  0  0  0  0  0  0  0  0  0  0
    3.4884    2.1984   21.4442 C   0  0  0  0  0  0  0  0  0  0  0  0
    4.5721    1.3701   21.3072 C   0  0  0  0  0  0  0  0  0  0  0  0
    4.9929    0.9357   20.0180 C   0  0  0  0  0  0  0  0  0  0  0  0
    5.1080    1.0197   22.1899 H   0  0  0  0  0  0  0  0  0  0  0  0
    3.1671    2.5069   22.4357 H   0  0  0  0  0  0  0  0  0  0  0  0
    1.9257    3.3230   20.4417 H   0  0  0  0  0  0  0  0  0  0  0  0
    2.6550    2.6381   18.1713 H   0  0  0  0  0  0  0  0  0  0  0  0
    4.2148    1.3838   16.7135 H   0  0  0  0  0  0  0  0  0  0  0  0
    7.2852   -0.8721   18.2564 H   0  0  0  0  0  0  0  0  0  0  0  0
    6.3264   -1.3731   21.7558 C   0  0  0  0  0  0  0  0  0  0  0  0
    5.2100   -1.8370   21.6719 O   0  0  0  0  0  0  0  0  0  0  0  0
    7.3525   -1.6206   22.8847 C   0  0  1  0  0  0  0  0  0  0  0  0
    7.4846   -3.1309   23.1748 C   0  0  0  0  0  0  0  0  0  0  0  0
    6.2900   -3.6755   23.7896 N   0  0  0  0  0  0  0  0  0  0  0  0
    5.7556   -4.9602   23.3668 C   0  0  0  0  0  0  0  0  0  0  0  0
    4.4383   -4.8380   22.7142 C   0  0  0  0  0  0  0  0  0  0  0  0
    3.4007   -4.7601   22.2131 N   0  0  0  0  0  0  0  0  0  0  0  0
    6.4480   -5.4287   22.6601 H   0  0  0  0  0  0  0  0  0  0  0  0
    5.6535   -5.6374   24.2212 H   0  0  0  0  0  0  0  0  0  0  0  0
    5.7114   -3.0731   24.8744 C   0  0  0  0  0  0  0  0  0  0  0  0
    4.9184   -3.6758   25.5848 O   0  0  0  0  0  0  0  0  0  0  0  0
    6.0819   -1.6330   25.0879 C   0  0  0  0  0  0  0  0  0  0  0  0
    5.5810   -0.9884   26.2192 C   0  0  0  0  0  0  0  0  0  0  0  0
    5.8007    0.3564   26.4322 C   0  0  0  0  0  0  0  0  0  0  0  0
    6.5192    1.0490   25.4677 C   0  0  0  0  0  0  0  0  0  0  0  0
    6.7209    2.3664   25.6492 F   0  0  0  0  0  0  0  0  0  0  0  0
    7.0321    0.4428   24.3370 C   0  0  0  0  0  0  0  0  0  0  0  0
    6.8516   -0.9345   24.1491 C   0  0  0  0  0  0  0  0  0  0  0  0
    7.5555    1.0704   23.6212 H   0  0  0  0  0  0  0  0  0  0  0  0
    5.4256    0.8886   27.3008 H   0  0  0  0  0  0  0  0  0  0  0  0
    4.9991   -1.5632   26.9268 H   0  0  0  0  0  0  0  0  0  0  0  0
    8.3601   -3.3001   23.8215 H   0  0  0  0  0  0  0  0  0  0  0  0
    7.6343   -3.6616   22.2371 H   0  0  0  0  0  0  0  0  0  0  0  0
    8.2614    0.9967   21.4069 H   0  0  0  0  0  0  0  0  0  0  0  0
    8.8577   -0.2177   20.2815 H   0  0  0  0  0  0  0  0  0  0  0  0
    9.1457   -0.3857   23.1014 H   0  0  0  0  0  0  0  0  0  0  0  0
   10.6105   -1.4259   21.4241 H   0  0  0  0  0  0  0  0  0  0  0  0
    9.3715   -2.6253   21.0254 H   0  0  0  0  0  0  0  0  0  0  0  0
   10.1160   -2.6113   22.6352 H   0  0  0  0  0  0  0  0  0  0  0  0
  1  2  1  0
  2  3  1  0
  3  4  1  0
  4  5  1  0
  5  6  2  0
  6  7  1  0
  7  8  2  0
  8  9  1  0
  9 10  2  0
 10 11  1  0
 11 12  2  0
 12 13  1  0
 13 14  2  0
 13 15  1  0
 12 16  1  0
 11 17  1  0
 10 18  1  0
  8 19  1  0
  6 20  1  0
  4 21  1  0
 21 22  2  0
 21 23  1  0
 23 24  1  1
 24 25  1  0
 25 26  1  0
 26 27  1  0
 27 28  3  0
 26 29  1  0
 26 30  1  0
 25 31  1  0
 31 32  2  0
 31 33  1  0
 33 34  2  0
 34 35  1  0
 35 36  2  0
 36 37  1  0
 36 38  1  0
 38 39  2  0
 38 40  1  0
 35 41  1  0
 34 42  1  0
 24 43  1  0
 24 44  1  0
  3 45  1  0
  3 46  1  0
  2 47  1  1
  1 48  1  0
  1 49  1  0
  1 50  1  0
 23  2  1  0
 39 33  1  0
 14  5  1  0
 39 23  1  0
 14  9  1  0
M  END
>  <cnnaffinities>  (6) 
[6.156, 6.50057, 6.49381]

>  <score>  (6) 
6.156

>  <index>  (6) 
5

>  <Smiles>  (6) 
C([C@]1(C(N(c2c(nc(c3c(c(c(c(c23)[H])[H])[H])[H])[H])[H])C(=O)[C@]21C(N(C(C#N)([H])[H])C(=O)c1c(c(c(F)c(c21)[H])[H])[H])([H])[H])([H])[H])[H])([H])([H])[H]

>  <h>  (6) 
<NA>

>  <Training>  (6) 
True

>  <Success>  (6) 
True

>  <enamine_searched>  (6) 
False

>  <enamine_id>  (6) 
nan

$$$$

     RDKit          3D

 65 69  0  0  0  0  0  0  0  0999 V2000
    7.9271   -6.1717   26.9154 C   0  0  0  0  0  0  0  0  0  0  0  0
    9.1180   -5.8777   25.9931 C   0  0  0  0  0  0  0  0  0  0  0  0
    8.6877   -4.9161   24.9081 C   0  0  0  0  0  0  0  0  0  0  0  0
    7.8818   -5.1809   24.0571 O   0  0  0  0  0  0  0  0  0  0  0  0
    9.3663   -3.5763   24.8799 N   0  0  1  0  0  4  0  0  0  0  0  0
   10.4621   -3.5570   23.8133 C   0  0  0  0  0  0  0  0  0  0  0  0
   11.0446   -2.1836   23.6267 C   0  0  0  0  0  0  0  0  0  0  0  0
    9.9689   -1.2490   23.0926 C   0  0  0  0  0  0  0  0  0  0  0  0
    8.6813   -1.3331   23.8943 C   0  0  0  0  0  0  0  0  0  0  0  0
    7.6964   -0.3356   23.7806 C   0  0  0  0  0  0  0  0  0  0  0  0
    7.9196    0.7478   22.8760 N   0  0  0  0  0  0  0  0  0  0  0  0
    8.2872    2.0453   23.4479 C   0  0  0  0  0  0  0  0  0  0  0  0
    7.1204    3.0131   23.4070 C   0  0  0  0  0  0  0  0  0  0  0  0
    6.2518    3.1868   24.4863 C   0  0  0  0  0  0  0  0  0  0  0  0
    5.1629    4.0482   24.3668 C   0  0  0  0  0  0  0  0  0  0  0  0
    4.9654    4.7863   23.2016 C   0  0  0  0  0  0  0  0  0  0  0  0
    5.9091    4.6774   22.1838 C   0  0  0  0  0  0  0  0  0  0  0  0
    5.9929    5.8191   20.8808 Cl  0  0  0  0  0  0  0  0  0  0  0  0
    6.9245    3.7435   22.2425 C   0  0  0  0  0  0  0  0  0  0  0  0
    7.5733    3.6033   21.3834 H   0  0  0  0  0  0  0  0  0  0  0  0
    4.1089    5.4374   23.0759 H   0  0  0  0  0  0  0  0  0  0  0  0
    4.4876    4.1692   25.2113 H   0  0  0  0  0  0  0  0  0  0  0  0
    6.4334    2.6505   25.4202 H   0  0  0  0  0  0  0  0  0  0  0  0
    8.6152    1.8637   24.4796 H   0  0  0  0  0  0  0  0  0  0  0  0
    9.1245    2.4432   22.8546 H   0  0  0  0  0  0  0  0  0  0  0  0
    7.8591    0.6404   21.4988 C   0  0  0  0  0  0  0  0  0  0  0  0
    8.5123    1.3716   20.7648 O   0  0  0  0  0  0  0  0  0  0  0  0
    6.9371   -0.4402   20.9091 C   0  0  0  0  0  0  0  0  0  0  0  0
    6.1049    0.0857   19.7685 C   0  0  0  0  0  0  0  0  0  0  0  0
    6.4272   -0.2051   18.4690 C   0  0  0  0  0  0  0  0  0  0  0  0
    5.7630    0.2520   17.3763 N   0  0  0  0  0  0  0  0  0  0  0  0
    4.7350    1.0340   17.5821 C   0  0  0  0  0  0  0  0  0  0  0  0
    4.2845    1.4254   18.8715 C   0  0  0  0  0  0  0  0  0  0  0  0
    3.1703    2.2822   19.0493 C   0  0  0  0  0  0  0  0  0  0  0  0
    2.7609    2.6379   20.3034 C   0  0  0  0  0  0  0  0  0  0  0  0
    3.4518    2.1502   21.4379 C   0  0  0  0  0  0  0  0  0  0  0  0
    4.5415    1.3286   21.2912 C   0  0  0  0  0  0  0  0  0  0  0  0
    4.9872    0.9432   20.0006 C   0  0  0  0  0  0  0  0  0  0  0  0
    5.0712    0.9677   22.1704 H   0  0  0  0  0  0  0  0  0  0  0  0
    3.1066    2.4233   22.4315 H   0  0  0  0  0  0  0  0  0  0  0  0
    1.9056    3.2962   20.4291 H   0  0  0  0  0  0  0  0  0  0  0  0
    2.6567    2.6487   18.1647 H   0  0  0  0  0  0  0  0  0  0  0  0
    4.2023    1.3952   16.7011 H   0  0  0  0  0  0  0  0  0  0  0  0
    7.2719   -0.8540   18.2380 H   0  0  0  0  0  0  0  0  0  0  0  0
    7.5919   -1.2350   20.5310 H   0  0  0  0  0  0  0  0  0  0  0  0
    6.3236   -0.8778   21.7054 H   0  0  0  0  0  0  0  0  0  0  0  0
    6.5515   -0.3446   24.5698 C   0  0  0  0  0  0  0  0  0  0  0  0
    6.3279   -1.3988   25.4538 C   0  0  0  0  0  0  0  0  0  0  0  0
    7.2620   -2.4225   25.5387 C   0  0  0  0  0  0  0  0  0  0  0  0
    8.4140   -2.3912   24.7550 C   0  0  0  0  0  0  0  0  0  0  0  0
    7.1072   -3.2775   26.1866 H   0  0  0  0  0  0  0  0  0  0  0  0
    5.4282   -1.4321   26.0608 H   0  0  0  0  0  0  0  0  0  0  0  0
    5.8415    0.4729   24.4617 H   0  0  0  0  0  0  0  0  0  0  0  0
    9.7453   -1.5175   22.0489 H   0  0  0  0  0  0  0  0  0  0  0  0
   10.3238   -0.2151   23.0651 H   0  0  0  0  0  0  0  0  0  0  0  0
   11.8616   -2.2595   22.9000 H   0  0  0  0  0  0  0  0  0  0  0  0
   11.4718   -1.8040   24.5598 H   0  0  0  0  0  0  0  0  0  0  0  0
   11.2297   -4.2878   24.0759 H   0  0  0  0  0  0  0  0  0  0  0  0
    9.9642   -3.8452   22.8895 H   0  0  0  0  0  0  0  0  0  0  0  0
    9.8624   -3.4787   25.7955 H   0  0  0  0  0  0  0  0  0  0  0  0
    9.4521   -6.7895   25.4851 H   0  0  0  0  0  0  0  0  0  0  0  0
    9.9788   -5.4756   26.5385 H   0  0  0  0  0  0  0  0  0  0  0  0
    7.6224   -5.2680   27.4569 H   0  0  0  0  0  0  0  0  0  0  0  0
    7.0747   -6.5024   26.3153 H   0  0  0  0  0  0  0  0  0  0  0  0
    8.1618   -6.9479   27.6506 H   0  0  0  0  0  0  0  0  0  0  0  0
  1  2  1  0
  2  3  1  0
  3  4  2  0
  3  5  1  0
  5  6  1  0
  6  7  1  0
  7  8  1  0
  8  9  1  0
  9 10  2  0
 10 11  1  0
 11 12  1  0
 12 13  1  0
 13 14  2  0
 14 15  1  0
 15 16  2  0
 16 17  1  0
 17 18  1  0
 17 19  2  0
 19 20  1  0
 16 21  1  0
 15 22  1  0
 14 23  1  0
 12 24  1  0
 12 25  1  0
 11 26  1  0
 26 27  2  0
 26 28  1  0
 28 29  1  0
 29 30  2  0
 30 31  1  0
 31 32  2  0
 32 33  1  0
 33 34  2  0
 34 35  1  0
 35 36  2  0
 36 37  1  0
 37 38  2  0
 37 39  1  0
 36 40  1  0
 35 41  1  0
 34 42  1  0
 32 43  1  0
 30 44  1  0
 28 45  1  0
 28 46  1  0
 10 47  1  0
 47 48  2  0
 48 49  1  0
 49 50  2  0
 49 51  1  0
 48 52  1  0
 47 53  1  0
  8 54  1  0
  8 55  1  0
  7 56  1  0
  7 57  1  0
  6 58  1  0
  6 59  1  0
  5 60  1  1
  2 61  1  0
  2 62  1  0
  1 63  1  0
  1 64  1  0
  1 65  1  0
 50  5  1  0
 50  9  1  0
 19 13  1  0
 38 29  1  0
 38 33  1  0
M  CHG  1   5   1
M  END
>  <cnnaffinities>  (7) 
[6.74699]

>  <score>  (7) 
6.74699

>  <index>  (7) 
6

>  <Smiles>  (7) 
C(C(C(=O)[N@+]1(C(C(C(c2c(N(C(c3c(c(c(c(Cl)c3[H])[H])[H])[H])([H])[H])C(=O)C(c3c(nc(c4c(c(c(c(c34)[H])[H])[H])[H])[H])[H])([H])[H])c(c(c(c12)[H])[H])[H])([H])[H])([H])[H])([H])[H])[H])([H])[H])([H])([H])[H]

>  <h>  (7) 
<NA>

>  <Training>  (7) 
True

>  <Success>  (7) 
True

>  <enamine_searched>  (7) 
False

>  <enamine_id>  (7) 
nan

$$$$

     RDKit          3D

 37 39  0  0  0  0  0  0  0  0999 V2000
    8.5286    1.3414   20.7134 O   0  0  0  0  0  0  0  0  0  0  0  0
    7.8645    0.6708   21.4789 C   0  0  0  0  0  0  0  0  0  0  0  0
    6.9471   -0.4400   20.9162 C   0  0  0  0  0  0  0  0  0  0  0  0
    6.1068    0.0810   19.7685 C   0  0  0  0  0  0  0  0  0  0  0  0
    6.4263   -0.2083   18.4677 C   0  0  0  0  0  0  0  0  0  0  0  0
    5.7604    0.2493   17.3738 N   0  0  0  0  0  0  0  0  0  0  0  0
    4.7314    1.0304   17.5802 C   0  0  0  0  0  0  0  0  0  0  0  0
    4.2842    1.4233   18.8690 C   0  0  0  0  0  0  0  0  0  0  0  0
    3.1704    2.2824   19.0446 C   0  0  0  0  0  0  0  0  0  0  0  0
    2.7646    2.6490   20.2989 C   0  0  0  0  0  0  0  0  0  0  0  0
    3.4625    2.1691   21.4307 C   0  0  0  0  0  0  0  0  0  0  0  0
    4.5453    1.3373   21.2874 C   0  0  0  0  0  0  0  0  0  0  0  0
    4.9886    0.9390   19.9984 C   0  0  0  0  0  0  0  0  0  0  0  0
    5.0681    0.9822   22.1721 H   0  0  0  0  0  0  0  0  0  0  0  0
    3.1365    2.4667   22.4226 H   0  0  0  0  0  0  0  0  0  0  0  0
    1.9135    3.3124   20.4338 H   0  0  0  0  0  0  0  0  0  0  0  0
    2.6507    2.6468   18.1620 H   0  0  0  0  0  0  0  0  0  0  0  0
    4.2004    1.3959   16.6985 H   0  0  0  0  0  0  0  0  0  0  0  0
    7.2728   -0.8556   18.2391 H   0  0  0  0  0  0  0  0  0  0  0  0
    6.3090   -0.8827   21.6925 H   0  0  0  0  0  0  0  0  0  0  0  0
    7.6000   -1.2349   20.5341 H   0  0  0  0  0  0  0  0  0  0  0  0
    7.8810    0.8944   22.8511 N   0  0  0  0  0  0  0  0  0  0  0  0
    7.8410    2.2776   23.3212 C   0  0  0  0  0  0  0  0  0  0  0  0
    8.7030    2.4825   24.5577 C   0  0  0  0  0  0  0  0  0  0  0  0
    8.3483    1.4763   25.6451 C   0  0  0  0  0  0  0  0  0  0  0  0
    8.4591    0.0621   25.0925 C   0  0  0  0  0  0  0  0  0  0  0  0
    7.5935   -0.1257   23.8473 C   0  0  0  0  0  0  0  0  0  0  0  0
    7.8030   -1.0998   23.4061 H   0  0  0  0  0  0  0  0  0  0  0  0
    6.5322   -0.1233   24.1467 H   0  0  0  0  0  0  0  0  0  0  0  0
    9.5010   -0.1541   24.8380 H   0  0  0  0  0  0  0  0  0  0  0  0
    8.1698   -0.6712   25.8508 H   0  0  0  0  0  0  0  0  0  0  0  0
    8.9996    1.6055   26.5167 H   0  0  0  0  0  0  0  0  0  0  0  0
    7.3239    1.6555   25.9974 H   0  0  0  0  0  0  0  0  0  0  0  0
    8.5823    3.5068   24.9267 H   0  0  0  0  0  0  0  0  0  0  0  0
    9.7566    2.3763   24.2828 H   0  0  0  0  0  0  0  0  0  0  0  0
    6.8031    2.5762   23.5516 H   0  0  0  0  0  0  0  0  0  0  0  0
    8.1789    2.9049   22.4973 H   0  0  0  0  0  0  0  0  0  0  0  0
  1  2  2  0
  2  3  1  0
  3  4  1  0
  4  5  2  0
  5  6  1  0
  6  7  2  0
  7  8  1  0
  8  9  2  0
  9 10  1  0
 10 11  2  0
 11 12  1  0
 12 13  2  0
 12 14  1  0
 11 15  1  0
 10 16  1  0
  9 17  1  0
  7 18  1  0
  5 19  1  0
  3 20  1  0
  3 21  1  0
  2 22  1  0
 22 23  1  0
 23 24  1  0
 24 25  1  0
 25 26  1  0
 26 27  1  0
 27 28  1  0
 27 29  1  0
 26 30  1  0
 26 31  1  0
 25 32  1  0
 25 33  1  0
 24 34  1  0
 24 35  1  0
 23 36  1  0
 23 37  1  0
 13  4  1  0
 27 22  1  0
 13  8  1  0
M  END
>  <cnnaffinities>  (8) 
[5.0672, 5.07102, 5.55757, 5.55752, 5.1247]

>  <score>  (8) 
5.0672

>  <index>  (8) 
7

>  <Smiles>  (8) 
O=C(C(c1c(nc(c2c(c(c(c(c12)[H])[H])[H])[H])[H])[H])([H])[H])N1C(C(C(C(C1([H])[H])([H])[H])([H])[H])([H])[H])([H])[H]

>  <h>  (8) 
<NA>

>  <Training>  (8) 
True

>  <Success>  (8) 
True

>  <enamine_searched>  (8) 
False

>  <enamine_id>  (8) 
nan

$$$$

     RDKit          3D

 66 71  0  0  0  0  0  0  0  0999 V2000
    7.7742   -2.8632   23.3662 C   0  0  0  0  0  0  0  0  0  0  0  0
    8.0696   -1.8520   22.2616 C   0  0  1  0  0  0  0  0  0  0  0  0
    6.8969   -1.7370   21.2769 C   0  0  0  0  0  0  0  0  0  0  0  0
    6.9388   -0.3673   20.8308 N   0  0  0  0  0  0  0  0  0  0  0  0
    6.1332    0.1112   19.7740 C   0  0  0  0  0  0  0  0  0  0  0  0
    6.4396   -0.2323   18.4827 C   0  0  0  0  0  0  0  0  0  0  0  0
    5.7743    0.2176   17.3940 N   0  0  0  0  0  0  0  0  0  0  0  0
    4.7521    1.0116   17.5999 C   0  0  0  0  0  0  0  0  0  0  0  0
    4.3035    1.4071   18.8910 C   0  0  0  0  0  0  0  0  0  0  0  0
    3.1791    2.2564   19.0566 C   0  0  0  0  0  0  0  0  0  0  0  0
    2.7541    2.6047   20.3073 C   0  0  0  0  0  0  0  0  0  0  0  0
    3.4273    2.1241   21.4524 C   0  0  0  0  0  0  0  0  0  0  0  0
    4.5191    1.3034   21.3195 C   0  0  0  0  0  0  0  0  0  0  0  0
    4.9970    0.9383   20.0284 C   0  0  0  0  0  0  0  0  0  0  0  0
    5.0247    0.9432   22.2112 H   0  0  0  0  0  0  0  0  0  0  0  0
    3.0861    2.4152   22.4408 H   0  0  0  0  0  0  0  0  0  0  0  0
    1.8919    3.2517   20.4280 H   0  0  0  0  0  0  0  0  0  0  0  0
    2.6740    2.6206   18.1662 H   0  0  0  0  0  0  0  0  0  0  0  0
    4.2089    1.3778   16.7272 H   0  0  0  0  0  0  0  0  0  0  0  0
    7.2942   -0.8818   18.2960 H   0  0  0  0  0  0  0  0  0  0  0  0
    7.7308    0.4560   21.5868 C   0  0  0  0  0  0  0  0  0  0  0  0
    7.8538    1.6515   21.3966 O   0  0  0  0  0  0  0  0  0  0  0  0
    8.3993   -0.3838   22.6989 C   0  0  1  0  0  0  0  0  0  0  0  0
    7.7523   -0.0501   24.0685 C   0  0  0  0  0  0  0  0  0  0  0  0
    8.1956    1.2158   24.6255 N   0  0  0  0  0  0  0  0  0  0  0  0
    7.2305    2.1780   25.1290 C   0  0  0  0  0  0  0  0  0  0  0  0
    6.8907    3.1994   24.0416 C   0  0  0  0  0  0  0  0  0  0  0  0
    5.7861    3.2486   23.5165 O   0  0  0  0  0  0  0  0  0  0  0  0
    7.9154    4.0209   23.7056 N   0  0  0  0  0  0  0  0  0  0  0  0
    7.7868    4.9194   22.5756 C   0  0  0  0  0  0  0  0  0  0  0  0
    9.0376    5.7200   22.3715 C   0  0  0  0  0  0  0  0  0  0  0  0
    9.2846    7.0750   22.4894 C   0  0  0  0  0  0  0  0  0  0  0  0
   10.6339    7.2292   22.1125 C   0  0  0  0  0  0  0  0  0  0  0  0
   11.1880    6.0661   21.8044 N   0  0  0  0  0  0  0  0  0  0  0  0
   10.2130    5.1556   21.9676 N   0  0  0  0  0  0  0  0  0  0  0  0
   10.5239    3.7720   21.6428 C   0  0  0  0  0  0  0  0  0  0  0  0
   11.5666    3.7776   21.3160 H   0  0  0  0  0  0  0  0  0  0  0  0
   10.4141    3.1309   22.5210 H   0  0  0  0  0  0  0  0  0  0  0  0
    9.8793    3.3788   20.8506 H   0  0  0  0  0  0  0  0  0  0  0  0
   11.2380    8.1286   22.0433 H   0  0  0  0  0  0  0  0  0  0  0  0
    8.5983    7.8282   22.8593 H   0  0  0  0  0  0  0  0  0  0  0  0
    7.5400    4.3353   21.6764 H   0  0  0  0  0  0  0  0  0  0  0  0
    6.9349    5.5818   22.7502 H   0  0  0  0  0  0  0  0  0  0  0  0
    8.7910    4.0027   24.2169 H   0  0  0  0  0  0  0  0  0  0  0  0
    7.6718    2.6859   25.9921 H   0  0  0  0  0  0  0  0  0  0  0  0
    6.3246    1.6512   25.4411 H   0  0  0  0  0  0  0  0  0  0  0  0
    9.5038    1.5820   24.6152 C   0  0  0  0  0  0  0  0  0  0  0  0
    9.9058    2.5688   25.2352 O   0  0  0  0  0  0  0  0  0  0  0  0
   10.4153    0.7975   23.7308 C   0  0  0  0  0  0  0  0  0  0  0  0
   11.7816    1.0786   23.7796 C   0  0  0  0  0  0  0  0  0  0  0  0
   12.6409    0.5426   22.8397 C   0  0  0  0  0  0  0  0  0  0  0  0
   12.1124   -0.2828   21.8473 C   0  0  0  0  0  0  0  0  0  0  0  0
   10.7556   -0.5460   21.7909 C   0  0  0  0  0  0  0  0  0  0  0  0
    9.8822   -0.0628   22.7664 C   0  0  0  0  0  0  0  0  0  0  0  0
   10.3717   -1.1227   20.9548 H   0  0  0  0  0  0  0  0  0  0  0  0
   12.7503   -0.7355   21.0978 H   0  0  0  0  0  0  0  0  0  0  0  0
   13.6949    0.8070   22.8481 H   0  0  0  0  0  0  0  0  0  0  0  0
   12.1405    1.7656   24.5322 H   0  0  0  0  0  0  0  0  0  0  0  0
    8.0154   -0.8443   24.7735 H   0  0  0  0  0  0  0  0  0  0  0  0
    6.6610   -0.0304   23.9628 H   0  0  0  0  0  0  0  0  0  0  0  0
    7.0057   -2.4079   20.4249 H   0  0  0  0  0  0  0  0  0  0  0  0
    5.9367   -1.9698   21.7604 H   0  0  0  0  0  0  0  0  0  0  0  0
    8.9346   -2.2321   21.7121 H   0  0  0  0  0  0  0  0  0  0  0  0
    8.5948   -2.9360   24.0867 H   0  0  0  0  0  0  0  0  0  0  0  0
    6.8602   -2.6013   23.9112 H   0  0  0  0  0  0  0  0  0  0  0  0
    7.6240   -3.8553   22.9308 H   0  0  0  0  0  0  0  0  0  0  0  0
  1  2  1  0
  2  3  1  0
  3  4  1  0
  4  5  1  0
  5  6  2  0
  6  7  1  0
  7  8  2  0
  8  9  1  0
  9 10  2  0
 10 11  1  0
 11 12  2  0
 12 13  1  0
 13 14  2  0
 13 15  1  0
 12 16  1  0
 11 17  1  0
 10 18  1  0
  8 19  1  0
  6 20  1  0
  4 21  1  0
 21 22  2  0
 21 23  1  0
 23 24  1  1
 24 25  1  0
 25 26  1  0
 26 27  1  0
 27 28  2  0
 27 29  1  0
 29 30  1  0
 30 31  1  0
 31 32  2  0
 32 33  1  0
 33 34  2  0
 34 35  1  0
 35 36  1  0
 36 37  1  0
 36 38  1  0
 36 39  1  0
 33 40  1  0
 32 41  1  0
 30 42  1  0
 30 43  1  0
 29 44  1  0
 26 45  1  0
 26 46  1  0
 25 47  1  0
 47 48  2  0
 47 49  1  0
 49 50  2  0
 50 51  1  0
 51 52  2  0
 52 53  1  0
 53 54  2  0
 53 55  1  0
 52 56  1  0
 51 57  1  0
 50 58  1  0
 24 59  1  0
 24 60  1  0
  3 61  1  0
  3 62  1  0
  2 63  1  6
  1 64  1  0
  1 65  1  0
  1 66  1  0
 23  2  1  0
 35 31  1  0
 54 49  1  0
 14  5  1  0
 54 23  1  0
 14  9  1  0
M  END
>  <cnnaffinities>  (9) 
[6.90281]

>  <score>  (9) 
6.90281

>  <index>  (9) 
8

>  <Smiles>  (9) 
C([C@]1(C(N(c2c(nc(c3c(c(c(c(c23)[H])[H])[H])[H])[H])[H])C(=O)[C@]21C(N(C(C(=O)N(C(c1c(c(nn1C([H])([H])[H])[H])[H])([H])[H])[H])([H])[H])C(=O)c1c(c(c(c(c21)[H])[H])[H])[H])([H])[H])([H])[H])[H])([H])([H])[H]

>  <h>  (9) 
<NA>

>  <Training>  (9) 
True

>  <Success>  (9) 
True

>  <enamine_searched>  (9) 
False

>  <enamine_id>  (9) 
nan

$$$$

     RDKit          3D

 58 63  0  0  0  0  0  0  0  0999 V2000
    5.8953    1.2895   30.1082 C   0  0  0  0  0  0  0  0  0  0  0  0
    5.8070    1.1945   28.6174 C   0  0  0  0  0  0  0  0  0  0  0  0
    6.5374    1.9866   27.6881 C   0  0  0  0  0  0  0  0  0  0  0  0
    6.1240    1.5301   26.4842 C   0  0  0  0  0  0  0  0  0  0  0  0
    6.5442    1.9110   25.0970 C   0  0  0  0  0  0  0  0  0  0  0  0
    7.6690    1.1552   24.5859 N   0  0  0  0  0  0  0  0  0  0  0  0
    7.4519   -0.1917   24.1099 C   0  0  0  0  0  0  0  0  0  0  0  0
    8.2476   -0.4445   22.8101 C   0  0  2  0  0  0  0  0  0  0  0  0
    7.6441    0.4195   21.6781 C   0  0  0  0  0  0  0  0  0  0  0  0
    7.7441    1.6230   21.5434 O   0  0  0  0  0  0  0  0  0  0  0  0
    6.9340   -0.3969   20.8330 N   0  0  0  0  0  0  0  0  0  0  0  0
    6.1430    0.1121   19.7728 C   0  0  0  0  0  0  0  0  0  0  0  0
    6.4422   -0.2210   18.4758 C   0  0  0  0  0  0  0  0  0  0  0  0
    5.7646    0.2289   17.3949 N   0  0  0  0  0  0  0  0  0  0  0  0
    4.7437    1.0220   17.5985 C   0  0  0  0  0  0  0  0  0  0  0  0
    4.2950    1.4185   18.8886 C   0  0  0  0  0  0  0  0  0  0  0  0
    3.1684    2.2692   19.0590 C   0  0  0  0  0  0  0  0  0  0  0  0
    2.7423    2.6129   20.3121 C   0  0  0  0  0  0  0  0  0  0  0  0
    3.4160    2.1113   21.4489 C   0  0  0  0  0  0  0  0  0  0  0  0
    4.5055    1.2913   21.3075 C   0  0  0  0  0  0  0  0  0  0  0  0
    4.9964    0.9406   20.0170 C   0  0  0  0  0  0  0  0  0  0  0  0
    5.0193    0.9130   22.1864 H   0  0  0  0  0  0  0  0  0  0  0  0
    3.0729    2.3911   22.4412 H   0  0  0  0  0  0  0  0  0  0  0  0
    1.8886    3.2745   20.4417 H   0  0  0  0  0  0  0  0  0  0  0  0
    2.6613    2.6395   18.1718 H   0  0  0  0  0  0  0  0  0  0  0  0
    4.2173    1.3848   16.7150 H   0  0  0  0  0  0  0  0  0  0  0  0
    7.2853   -0.8759   18.2590 H   0  0  0  0  0  0  0  0  0  0  0  0
    6.9241   -1.7891   21.2353 C   0  0  0  0  0  0  0  0  0  0  0  0
    8.0509   -1.8968   22.2806 C   0  0  2  0  0  0  0  0  0  0  0  0
    7.7810   -2.9884   23.3250 C   0  0  0  0  0  0  0  0  0  0  0  0
    7.7345   -3.9776   22.8541 H   0  0  0  0  0  0  0  0  0  0  0  0
    6.8223   -2.8230   23.8336 H   0  0  0  0  0  0  0  0  0  0  0  0
    8.5589   -3.0256   24.0975 H   0  0  0  0  0  0  0  0  0  0  0  0
    8.9774   -2.1545   21.7605 H   0  0  0  0  0  0  0  0  0  0  0  0
    7.0926   -2.4144   20.3616 H   0  0  0  0  0  0  0  0  0  0  0  0
    5.9520   -2.0815   21.6603 H   0  0  0  0  0  0  0  0  0  0  0  0
    9.6830   -0.0234   23.0436 C   0  0  0  0  0  0  0  0  0  0  0  0
   10.6993   -0.4120   22.1632 C   0  0  0  0  0  0  0  0  0  0  0  0
   11.9927    0.0241   22.3843 C   0  0  0  0  0  0  0  0  0  0  0  0
   12.9470   -0.3259   21.5101 F   0  0  0  0  0  0  0  0  0  0  0  0
   12.3395    0.8341   23.4587 C   0  0  0  0  0  0  0  0  0  0  0  0
   11.3210    1.2724   24.2781 C   0  0  0  0  0  0  0  0  0  0  0  0
   10.0018    0.8907   24.0525 C   0  0  0  0  0  0  0  0  0  0  0  0
    8.9409    1.5723   24.8657 C   0  0  0  0  0  0  0  0  0  0  0  0
    9.1881    2.4462   25.6838 O   0  0  0  0  0  0  0  0  0  0  0  0
   11.4634    1.9542   25.0967 H   0  0  0  0  0  0  0  0  0  0  0  0
   13.3771    1.1251   23.5890 H   0  0  0  0  0  0  0  0  0  0  0  0
   10.5105   -1.0143   21.2821 H   0  0  0  0  0  0  0  0  0  0  0  0
    7.7547   -0.9181   24.8821 H   0  0  0  0  0  0  0  0  0  0  0  0
    6.3818   -0.3070   23.9271 H   0  0  0  0  0  0  0  0  0  0  0  0
    5.7046    1.8018   24.4016 H   0  0  0  0  0  0  0  0  0  0  0  0
    6.8510    2.9577   25.1179 H   0  0  0  0  0  0  0  0  0  0  0  0
    5.2118    0.5669   26.6514 O   0  0  0  0  0  0  0  0  0  0  0  0
    5.0134    0.3540   28.0034 N   0  0  0  0  0  0  0  0  0  0  0  0
    7.2774    2.7516   27.8748 H   0  0  0  0  0  0  0  0  0  0  0  0
    6.9204    1.5434   30.3952 H   0  0  0  0  0  0  0  0  0  0  0  0
    5.6057    0.3575   30.6028 H   0  0  0  0  0  0  0  0  0  0  0  0
    5.2496    2.0974   30.4697 H   0  0  0  0  0  0  0  0  0  0  0  0
  1  2  1  0
  2  3  1  0
  3  4  2  0
  4  5  1  0
  5  6  1  0
  6  7  1  0
  8  7  1  1
  8  9  1  0
  9 10  2  0
  9 11  1  0
 11 12  1  0
 12 13  2  0
 13 14  1  0
 14 15  2  0
 15 16  1  0
 16 17  2  0
 17 18  1  0
 18 19  2  0
 19 20  1  0
 20 21  2  0
 20 22  1  0
 19 23  1  0
 18 24  1  0
 17 25  1  0
 15 26  1  0
 13 27  1  0
 11 28  1  0
 28 29  1  0
 29 30  1  0
 30 31  1  0
 30 32  1  0
 30 33  1  0
 29 34  1  6
 28 35  1  0
 28 36  1  0
  8 37  1  0
 37 38  2  0
 38 39  1  0
 39 40  1  0
 39 41  2  0
 41 42  1  0
 42 43  2  0
 43 44  1  0
 44 45  2  0
 42 46  1  0
 41 47  1  0
 38 48  1  0
  7 49  1  0
  7 50  1  0
  5 51  1  0
  5 52  1  0
  4 53  1  0
 53 54  1  0
  3 55  1  0
  1 56  1  0
  1 57  1  0
  1 58  1  0
 54  2  2  0
 44  6  1  0
 29  8  1  0
 43 37  1  0
 21 12  1  0
 21 16  1  0
M  END
>  <cnnaffinities>  (10) 
[6.65747, 6.80883]

>  <score>  (10) 
6.65747

>  <index>  (10) 
9

>  <Smiles>  (10) 
C(c1c(c(C(N2C([C@@]3(C(=O)N(c4c(nc(c5c(c(c(c(c45)[H])[H])[H])[H])[H])[H])C([C@@]3(C([H])([H])[H])[H])([H])[H])c3c(c(F)c(c(c3C2=O)[H])[H])[H])([H])[H])([H])[H])on1)[H])([H])([H])[H]

>  <h>  (10) 
<NA>

>  <Training>  (10) 
True

>  <Success>  (10) 
True

>  <enamine_searched>  (10) 
False

>  <enamine_id>  (10) 
nan

$$$$

     RDKit          3D

 72 77  0  0  0  0  0  0  0  0999 V2000
    5.8830    5.1812   21.5016 C   0  0  0  0  0  0  0  0  0  0  0  0
    5.4075    5.9039   22.7631 C   0  0  1  0  0  0  0  0  0  0  0  0
    5.1168    4.9785   23.9493 C   0  0  0  0  0  0  0  0  0  0  0  0
    6.3505    4.5133   24.6919 N   0  0  0  0  0  4  0  0  0  0  0  0
    7.1130    3.3797   24.0423 C   0  0  0  0  0  0  0  0  0  0  0  0
    7.7619    2.4526   25.0763 C   0  0  0  0  0  0  0  0  0  0  0  0
    8.6011    1.4538   24.4362 N   0  0  0  0  0  0  0  0  0  0  0  0
    8.0609    0.1366   24.1589 C   0  0  0  0  0  0  0  0  0  0  0  0
    8.3908   -0.3619   22.7313 C   0  0  2  0  0  0  0  0  0  0  0  0
    7.6427    0.4777   21.6643 C   0  0  0  0  0  0  0  0  0  0  0  0
    7.6987    1.6839   21.5177 O   0  0  0  0  0  0  0  0  0  0  0  0
    6.8975   -0.3637   20.8714 N   0  0  0  0  0  0  0  0  0  0  0  0
    6.1333    0.1133   19.7812 C   0  0  0  0  0  0  0  0  0  0  0  0
    6.4419   -0.2247   18.4855 C   0  0  0  0  0  0  0  0  0  0  0  0
    5.7693    0.2260   17.4021 N   0  0  0  0  0  0  0  0  0  0  0  0
    4.7488    1.0220   17.6031 C   0  0  0  0  0  0  0  0  0  0  0  0
    4.2984    1.4278   18.8916 C   0  0  0  0  0  0  0  0  0  0  0  0
    3.1677    2.2735   19.0603 C   0  0  0  0  0  0  0  0  0  0  0  0
    2.7357    2.6064   20.3167 C   0  0  0  0  0  0  0  0  0  0  0  0
    3.4095    2.1103   21.4517 C   0  0  0  0  0  0  0  0  0  0  0  0
    4.5116    1.3039   21.3137 C   0  0  0  0  0  0  0  0  0  0  0  0
    4.9985    0.9533   20.0205 C   0  0  0  0  0  0  0  0  0  0  0  0
    5.0219    0.9193   22.1889 H   0  0  0  0  0  0  0  0  0  0  0  0
    3.0520    2.3751   22.4450 H   0  0  0  0  0  0  0  0  0  0  0  0
    1.8772    3.2615   20.4454 H   0  0  0  0  0  0  0  0  0  0  0  0
    2.6608    2.6405   18.1732 H   0  0  0  0  0  0  0  0  0  0  0  0
    4.2220    1.3810   16.7205 H   0  0  0  0  0  0  0  0  0  0  0  0
    7.2889   -0.8734   18.2629 H   0  0  0  0  0  0  0  0  0  0  0  0
    7.2086   -1.7630   21.0698 C   0  0  0  0  0  0  0  0  0  0  0  0
    7.8868   -1.8217   22.4593 C   0  0  2  0  0  0  0  0  0  0  0  0
    6.9382   -2.4265   23.5062 C   0  0  0  0  0  0  0  0  0  0  0  0
    7.4115   -2.5012   24.4903 H   0  0  0  0  0  0  0  0  0  0  0  0
    6.0179   -1.8399   23.6090 H   0  0  0  0  0  0  0  0  0  0  0  0
    6.6548   -3.4426   23.2091 H   0  0  0  0  0  0  0  0  0  0  0  0
    8.7589   -2.4837   22.4194 H   0  0  0  0  0  0  0  0  0  0  0  0
    7.8876   -2.1148   20.2859 H   0  0  0  0  0  0  0  0  0  0  0  0
    6.2906   -2.3605   21.0313 H   0  0  0  0  0  0  0  0  0  0  0  0
    9.8936   -0.1939   22.5429 C   0  0  0  0  0  0  0  0  0  0  0  0
   10.5775   -0.9842   21.6144 C   0  0  0  0  0  0  0  0  0  0  0  0
   11.9312   -0.8012   21.4120 C   0  0  0  0  0  0  0  0  0  0  0  0
   12.6817   -1.6868   20.1002 Cl  0  0  0  0  0  0  0  0  0  0  0  0
   12.6291    0.2179   22.0585 C   0  0  0  0  0  0  0  0  0  0  0  0
   11.9474    1.0370   22.9409 C   0  0  0  0  0  0  0  0  0  0  0  0
   10.5882    0.8421   23.1831 C   0  0  0  0  0  0  0  0  0  0  0  0
    9.8822    1.7902   24.1152 C   0  0  0  0  0  0  0  0  0  0  0  0
   10.4235    2.8016   24.5491 O   0  0  0  0  0  0  0  0  0  0  0  0
   12.4284    1.8818   23.4232 H   0  0  0  0  0  0  0  0  0  0  0  0
   13.6621    0.4086   21.7950 H   0  0  0  0  0  0  0  0  0  0  0  0
   10.0595   -1.6700   20.9526 H   0  0  0  0  0  0  0  0  0  0  0  0
    6.9786    0.1907   24.2841 H   0  0  0  0  0  0  0  0  0  0  0  0
    8.4757   -0.6040   24.8629 H   0  0  0  0  0  0  0  0  0  0  0  0
    6.9914    1.9324   25.6578 H   0  0  0  0  0  0  0  0  0  0  0  0
    8.3973    3.0197   25.7626 H   0  0  0  0  0  0  0  0  0  0  0  0
    7.8957    3.8012   23.4091 H   0  0  0  0  0  0  0  0  0  0  0  0
    6.4212    2.8128   23.4086 H   0  0  0  0  0  0  0  0  0  0  0  0
    7.2244    5.7247   24.9819 C   0  0  0  0  0  0  0  0  0  0  0  0
    7.4911    6.5529   23.7259 C   0  0  2  0  0  0  0  0  0  0  0  0
    8.3120    7.7877   24.0495 C   0  0  0  0  0  0  0  0  0  0  0  0
    9.2723    7.5016   24.4917 H   0  0  0  0  0  0  0  0  0  0  0  0
    8.5079    8.3736   23.1481 H   0  0  0  0  0  0  0  0  0  0  0  0
    7.7756    8.4218   24.7629 H   0  0  0  0  0  0  0  0  0  0  0  0
    6.2609    6.9751   23.1543 O   0  0  0  0  0  0  0  0  0  0  0  0
    8.0356    5.9253   23.0021 H   0  0  0  0  0  0  0  0  0  0  0  0
    6.7102    6.3551   25.7137 H   0  0  0  0  0  0  0  0  0  0  0  0
    8.1732    5.3837   25.4093 H   0  0  0  0  0  0  0  0  0  0  0  0
    6.0247    4.1514   25.6077 H   0  0  0  0  0  0  0  0  0  0  0  0
    4.4952    5.5157   24.6685 H   0  0  0  0  0  0  0  0  0  0  0  0
    4.5707    4.0957   23.6059 H   0  0  0  0  0  0  0  0  0  0  0  0
    4.4631    6.4061   22.5160 H   0  0  0  0  0  0  0  0  0  0  0  0
    6.8286    4.6466   21.6388 H   0  0  0  0  0  0  0  0  0  0  0  0
    6.0167    5.9135   20.7005 H   0  0  0  0  0  0  0  0  0  0  0  0
    5.1433    4.4360   21.1826 H   0  0  0  0  0  0  0  0  0  0  0  0
  1  2  1  0
  2  3  1  0
  3  4  1  0
  4  5  1  0
  5  6  1  0
  6  7  1  0
  7  8  1  0
  9  8  1  1
  9 10  1  0
 10 11  2  0
 10 12  1  0
 12 13  1  0
 13 14  2  0
 14 15  1  0
 15 16  2  0
 16 17  1  0
 17 18  2  0
 18 19  1  0
 19 20  2  0
 20 21  1  0
 21 22  2  0
 21 23  1  0
 20 24  1  0
 19 25  1  0
 18 26  1  0
 16 27  1  0
 14 28  1  0
 12 29  1  0
 29 30  1  0
 30 31  1  0
 31 32  1  0
 31 33  1  0
 31 34  1  0
 30 35  1  6
 29 36  1  0
 29 37  1  0
  9 38  1  0
 38 39  2  0
 39 40  1  0
 40 41  1  0
 40 42  2  0
 42 43  1  0
 43 44  2  0
 44 45  1  0
 45 46  2  0
 43 47  1  0
 42 48  1  0
 39 49  1  0
  8 50  1  0
  8 51  1  0
  6 52  1  0
  6 53  1  0
  5 54  1  0
  5 55  1  0
  4 56  1  0
 56 57  1  0
 57 58  1  0
 58 59  1  0
 58 60  1  0
 58 61  1  0
 57 62  1  0
 57 63  1  6
 56 64  1  0
 56 65  1  0
  4 66  1  0
  3 67  1  0
  3 68  1  0
  2 69  1  6
  1 70  1  0
  1 71  1  0
  1 72  1  0
 62  2  1  0
 45  7  1  0
 30  9  1  0
 44 38  1  0
 22 13  1  0
 22 17  1  0
M  CHG  1   4   1
M  END
>  <cnnaffinities>  (11) 
[6.7369]

>  <score>  (11) 
6.7369

>  <index>  (11) 
10

>  <Smiles>  (11) 
C([C@]1(C([N+](C(C(N2C([C@@]3(C(=O)N(c4c(nc(c5c(c(c(c(c45)[H])[H])[H])[H])[H])[H])C([C@@]3(C([H])([H])[H])[H])([H])[H])c3c(c(Cl)c(c(c3C2=O)[H])[H])[H])([H])[H])([H])[H])([H])[H])(C([C@](C([H])([H])[H])(O1)[H])([H])[H])[H])([H])[H])[H])([H])([H])[H]

>  <h>  (11) 
<NA>

>  <Training>  (11) 
True

>  <Success>  (11) 
True

>  <enamine_searched>  (11) 
False

>  <enamine_id>  (11) 
nan

$$$$

     RDKit          3D

 54 57  0  0  0  0  0  0  0  0999 V2000
    4.8796    1.9201   25.3046 C   0  0  0  0  0  0  0  0  0  0  0  0
    6.1349    1.9659   24.6619 O   0  0  0  0  0  0  0  0  0  0  0  0
    6.4400    2.9883   23.8100 C   0  0  0  0  0  0  0  0  0  0  0  0
    5.5515    4.0275   23.5133 C   0  0  0  0  0  0  0  0  0  0  0  0
    5.9382    5.0315   22.6252 C   0  0  0  0  0  0  0  0  0  0  0  0
    7.1971    5.0150   22.0456 C   0  0  0  0  0  0  0  0  0  0  0  0
    8.0721    3.9818   22.3663 C   0  0  0  0  0  0  0  0  0  0  0  0
    7.7271    2.9600   23.2372 C   0  0  0  0  0  0  0  0  0  0  0  0
    8.6567    1.7833   23.5085 C   0  0  2  0  0  0  0  0  0  0  0  0
   10.1646    2.0528   23.3426 C   0  0  0  0  0  0  0  0  0  0  0  0
   10.9934    0.8547   23.8271 C   0  0  2  0  0  0  0  0  0  0  0  0
   12.4895    1.0790   23.6092 C   0  0  0  0  0  0  0  0  0  0  0  0
   12.8385    1.9806   24.1221 H   0  0  0  0  0  0  0  0  0  0  0  0
   13.0856    0.2308   23.9679 H   0  0  0  0  0  0  0  0  0  0  0  0
   12.7103    1.2057   22.5428 H   0  0  0  0  0  0  0  0  0  0  0  0
   10.5198   -0.4276   23.1385 C   0  0  0  0  0  0  0  0  0  0  0  0
    8.9991   -0.6102   23.2634 C   0  0  0  0  0  0  0  0  0  0  0  0
    8.2619    0.5603   22.7859 N   0  0  0  0  0  0  0  0  0  0  0  0
    7.9299    0.6540   21.4235 C   0  0  0  0  0  0  0  0  0  0  0  0
    8.3442    1.5296   20.6944 O   0  0  0  0  0  0  0  0  0  0  0  0
    6.9758   -0.4305   20.8964 C   0  0  0  0  0  0  0  0  0  0  0  0
    6.1110    0.0832   19.7686 C   0  0  0  0  0  0  0  0  0  0  0  0
    6.4261   -0.2084   18.4677 C   0  0  0  0  0  0  0  0  0  0  0  0
    5.7593    0.2467   17.3741 N   0  0  0  0  0  0  0  0  0  0  0  0
    4.7315    1.0298   17.5802 C   0  0  0  0  0  0  0  0  0  0  0  0
    4.2864    1.4242   18.8686 C   0  0  0  0  0  0  0  0  0  0  0  0
    3.1723    2.2824   19.0442 C   0  0  0  0  0  0  0  0  0  0  0  0
    2.7653    2.6472   20.2983 C   0  0  0  0  0  0  0  0  0  0  0  0
    3.4646    2.1649   21.4309 C   0  0  0  0  0  0  0  0  0  0  0  0
    4.5479    1.3322   21.2901 C   0  0  0  0  0  0  0  0  0  0  0  0
    4.9927    0.9387   20.0009 C   0  0  0  0  0  0  0  0  0  0  0  0
    5.0717    0.9770   22.1738 H   0  0  0  0  0  0  0  0  0  0  0  0
    3.1370    2.4670   22.4230 H   0  0  0  0  0  0  0  0  0  0  0  0
    1.9128    3.3101   20.4278 H   0  0  0  0  0  0  0  0  0  0  0  0
    2.6537    2.6485   18.1609 H   0  0  0  0  0  0  0  0  0  0  0  0
    4.2012    1.3951   16.6976 H   0  0  0  0  0  0  0  0  0  0  0  0
    7.2732   -0.8527   18.2382 H   0  0  0  0  0  0  0  0  0  0  0  0
    6.3693   -0.8304   21.7211 H   0  0  0  0  0  0  0  0  0  0  0  0
    7.5885   -1.2638   20.5238 H   0  0  0  0  0  0  0  0  0  0  0  0
    8.6690   -1.4848   22.6990 H   0  0  0  0  0  0  0  0  0  0  0  0
    8.7404   -0.7783   24.3181 H   0  0  0  0  0  0  0  0  0  0  0  0
   10.7966   -0.3857   22.0779 H   0  0  0  0  0  0  0  0  0  0  0  0
   11.0498   -1.2958   23.5537 H   0  0  0  0  0  0  0  0  0  0  0  0
   10.8250    0.7395   24.9073 H   0  0  0  0  0  0  0  0  0  0  0  0
   10.4539    2.9449   23.9135 H   0  0  0  0  0  0  0  0  0  0  0  0
   10.3983    2.2597   22.2915 H   0  0  0  0  0  0  0  0  0  0  0  0
    8.5164    1.5179   24.5619 H   0  0  0  0  0  0  0  0  0  0  0  0
    9.0402    3.9590   21.8780 H   0  0  0  0  0  0  0  0  0  0  0  0
    7.5009    5.7837   21.3389 H   0  0  0  0  0  0  0  0  0  0  0  0
    5.2498    5.8341   22.3785 H   0  0  0  0  0  0  0  0  0  0  0  0
    4.5619    4.0698   23.9622 H   0  0  0  0  0  0  0  0  0  0  0  0
    4.6964    2.7758   25.9654 H   0  0  0  0  0  0  0  0  0  0  0  0
    4.9062    1.0231   25.9184 H   0  0  0  0  0  0  0  0  0  0  0  0
    4.0301    1.8264   24.6153 H   0  0  0  0  0  0  0  0  0  0  0  0
  1  2  1  0
  2  3  1  0
  3  4  2  0
  4  5  1  0
  5  6  2  0
  6  7  1  0
  7  8  2  0
  8  9  1  0
  9 10  1  0
 10 11  1  0
 11 12  1  0
 12 13  1  0
 12 14  1  0
 12 15  1  0
 11 16  1  0
 16 17  1  0
 17 18  1  0
 18 19  1  0
 19 20  2  0
 19 21  1  0
 21 22  1  0
 22 23  2  0
 23 24  1  0
 24 25  2  0
 25 26  1  0
 26 27  2  0
 27 28  1  0
 28 29  2  0
 29 30  1  0
 30 31  2  0
 30 32  1  0
 29 33  1  0
 28 34  1  0
 27 35  1  0
 25 36  1  0
 23 37  1  0
 21 38  1  0
 21 39  1  0
 17 40  1  0
 17 41  1  0
 16 42  1  0
 16 43  1  0
 11 44  1  1
 10 45  1  0
 10 46  1  0
  9 47  1  1
  7 48  1  0
  6 49  1  0
  5 50  1  0
  4 51  1  0
  1 52  1  0
  1 53  1  0
  1 54  1  0
  8  3  1  0
 18  9  1  0
 31 22  1  0
 31 26  1  0
M  END
>  <cnnaffinities>  (12) 
[6.19336]

>  <score>  (12) 
6.19336

>  <index>  (12) 
11

>  <Smiles>  (12) 
C(Oc1c(c(c(c(c1[C@@]1(C([C@](C([H])([H])[H])(C(C(N1C(=O)C(c1c(nc(c2c(c(c(c(c12)[H])[H])[H])[H])[H])[H])([H])[H])([H])[H])([H])[H])[H])([H])[H])[H])[H])[H])[H])[H])([H])([H])[H]

>  <h>  (12) 
<NA>

>  <Training>  (12) 
True

>  <Success>  (12) 
True

>  <enamine_searched>  (12) 
False

>  <enamine_id>  (12) 
nan

$$$$

     RDKit          3D

 47 50  0  0  0  0  0  0  0  0999 V2000
    8.4683    1.3992   20.8002 O   0  0  0  0  0  0  0  0  0  0  0  0
    7.8375    0.6540   21.5333 C   0  0  0  0  0  0  0  0  0  0  0  0
    6.9386   -0.4426   20.9216 C   0  0  0  0  0  0  0  0  0  0  0  0
    6.1100    0.0833   19.7714 C   0  0  0  0  0  0  0  0  0  0  0  0
    6.4274   -0.2066   18.4668 C   0  0  0  0  0  0  0  0  0  0  0  0
    5.7604    0.2474   17.3726 N   0  0  0  0  0  0  0  0  0  0  0  0
    4.7309    1.0300   17.5775 C   0  0  0  0  0  0  0  0  0  0  0  0
    4.2853    1.4240   18.8706 C   0  0  0  0  0  0  0  0  0  0  0  0
    3.1693    2.2835   19.0432 C   0  0  0  0  0  0  0  0  0  0  0  0
    2.7646    2.6492   20.2997 C   0  0  0  0  0  0  0  0  0  0  0  0
    3.4621    2.1701   21.4305 C   0  0  0  0  0  0  0  0  0  0  0  0
    4.5463    1.3373   21.2881 C   0  0  0  0  0  0  0  0  0  0  0  0
    4.9901    0.9416   19.9969 C   0  0  0  0  0  0  0  0  0  0  0  0
    5.0704    0.9841   22.1712 H   0  0  0  0  0  0  0  0  0  0  0  0
    3.1374    2.4678   22.4215 H   0  0  0  0  0  0  0  0  0  0  0  0
    1.9142    3.3106   20.4351 H   0  0  0  0  0  0  0  0  0  0  0  0
    2.6465    2.6487   18.1633 H   0  0  0  0  0  0  0  0  0  0  0  0
    4.1994    1.3976   16.6986 H   0  0  0  0  0  0  0  0  0  0  0  0
    7.2733   -0.8558   18.2446 H   0  0  0  0  0  0  0  0  0  0  0  0
    6.2946   -0.9286   21.6641 H   0  0  0  0  0  0  0  0  0  0  0  0
    7.6051   -1.2200   20.5308 H   0  0  0  0  0  0  0  0  0  0  0  0
    7.8832    0.7744   22.8911 N   0  0  0  0  0  0  0  0  0  0  0  0
    7.4294   -0.1949   23.8766 C   0  0  0  0  0  0  0  0  0  0  0  0
    7.9886    0.2972   25.2183 C   0  0  2  0  0  0  0  0  0  0  0  0
    7.1132   -0.1409   26.3818 C   0  0  0  0  0  0  0  0  0  0  0  0
    7.5860    0.3379   27.6016 F   0  0  0  0  0  0  0  0  0  0  0  0
    7.0695   -1.2339   26.4612 H   0  0  0  0  0  0  0  0  0  0  0  0
    6.0903    0.2278   26.2791 H   0  0  0  0  0  0  0  0  0  0  0  0
    8.2308    1.8133   25.0270 C   0  0  0  0  0  0  0  0  0  0  0  0
    7.0551    2.7282   25.4301 C   0  0  0  0  0  0  0  0  0  0  0  0
    7.6612    4.1248   25.6591 C   0  0  0  0  0  0  0  0  0  0  0  0
    9.1438    3.8970   26.0057 C   0  0  0  0  0  0  0  0  0  0  0  0
    9.3632    2.3803   25.8926 C   0  0  0  0  0  0  0  0  0  0  0  0
   10.3447    2.1403   25.4719 H   0  0  0  0  0  0  0  0  0  0  0  0
    9.2945    1.9080   26.8739 H   0  0  0  0  0  0  0  0  0  0  0  0
    9.3948    4.2618   27.0064 H   0  0  0  0  0  0  0  0  0  0  0  0
    9.7881    4.4350   25.3034 H   0  0  0  0  0  0  0  0  0  0  0  0
    7.5652    4.7406   24.7615 H   0  0  0  0  0  0  0  0  0  0  0  0
    7.1315    4.6533   26.4552 H   0  0  0  0  0  0  0  0  0  0  0  0
    6.2687    2.7288   24.6711 H   0  0  0  0  0  0  0  0  0  0  0  0
    6.6011    2.3814   26.3629 H   0  0  0  0  0  0  0  0  0  0  0  0
    8.5408    1.9183   23.5146 C   0  0  0  0  0  0  0  0  0  0  0  0
    8.1682    2.8547   23.0954 H   0  0  0  0  0  0  0  0  0  0  0  0
    9.6199    1.9103   23.3219 H   0  0  0  0  0  0  0  0  0  0  0  0
    8.9641   -0.1693   25.3818 H   0  0  0  0  0  0  0  0  0  0  0  0
    6.3349   -0.2406   23.9071 H   0  0  0  0  0  0  0  0  0  0  0  0
    7.7969   -1.1991   23.6535 H   0  0  0  0  0  0  0  0  0  0  0  0
  1  2  2  0
  2  3  1  0
  3  4  1  0
  4  5  2  0
  5  6  1  0
  6  7  2  0
  7  8  1  0
  8  9  2  0
  9 10  1  0
 10 11  2  0
 11 12  1  0
 12 13  2  0
 12 14  1  0
 11 15  1  0
 10 16  1  0
  9 17  1  0
  7 18  1  0
  5 19  1  0
  3 20  1  0
  3 21  1  0
  2 22  1  0
 22 23  1  0
 23 24  1  0
 24 25  1  0
 25 26  1  0
 25 27  1  0
 25 28  1  0
 24 29  1  0
 29 30  1  0
 30 31  1  0
 31 32  1  0
 32 33  1  0
 33 34  1  0
 33 35  1  0
 32 36  1  0
 32 37  1  0
 31 38  1  0
 31 39  1  0
 30 40  1  0
 30 41  1  0
 29 42  1  0
 42 43  1  0
 42 44  1  0
 24 45  1  1
 23 46  1  0
 23 47  1  0
 13  4  1  0
 42 22  1  0
 13  8  1  0
 33 29  1  0
M  END
>  <cnnaffinities>  (13) 
[5.61582, 5.66948]

>  <score>  (13) 
5.61582

>  <index>  (13) 
12

>  <Smiles>  (13) 
O=C(C(c1c(nc(c2c(c(c(c(c12)[H])[H])[H])[H])[H])[H])([H])[H])N1C([C@](C(F)([H])[H])(C2(C(C(C(C2([H])[H])([H])[H])([H])[H])([H])[H])C1([H])[H])[H])([H])[H]

>  <h>  (13) 
<NA>

>  <Training>  (13) 
True

>  <Success>  (13) 
True

>  <enamine_searched>  (13) 
False

>  <enamine_id>  (13) 
nan

$$$$

     RDKit          3D

 67 72  0  0  0  0  0  0  0  0999 V2000
    6.6500    4.2818   21.2194 C   0  0  0  0  0  0  0  0  0  0  0  0
    7.5850    3.8976   22.2617 N   0  0  0  0  0  0  0  0  0  0  0  0
    7.0964    3.3110   23.3901 C   0  0  0  0  0  0  0  0  0  0  0  0
    5.9002    3.1824   23.6092 O   0  0  0  0  0  0  0  0  0  0  0  0
    8.1427    2.8212   24.3951 C   0  0  0  0  0  0  0  0  0  0  0  0
    8.8247    1.6190   23.9524 N   0  0  0  0  0  0  0  0  0  0  0  0
    8.0622    0.3884   23.8268 C   0  0  0  0  0  0  0  0  0  0  0  0
    8.4742   -0.4248   22.5752 C   0  0  2  0  0  0  0  0  0  0  0  0
    7.9806    0.2706   21.2824 C   0  0  0  0  0  0  0  0  0  0  0  0
    8.4685    1.2387   20.7398 O   0  0  0  0  0  0  0  0  0  0  0  0
    6.8783   -0.4106   20.8185 N   0  0  0  0  0  0  0  0  0  0  0  0
    6.1084    0.1041   19.7462 C   0  0  0  0  0  0  0  0  0  0  0  0
    6.4519   -0.1882   18.4515 C   0  0  0  0  0  0  0  0  0  0  0  0
    5.7700    0.2566   17.3707 N   0  0  0  0  0  0  0  0  0  0  0  0
    4.7305    1.0254   17.5809 C   0  0  0  0  0  0  0  0  0  0  0  0
    4.2735    1.4184   18.8714 C   0  0  0  0  0  0  0  0  0  0  0  0
    3.1588    2.2785   19.0565 C   0  0  0  0  0  0  0  0  0  0  0  0
    2.7656    2.6466   20.3150 C   0  0  0  0  0  0  0  0  0  0  0  0
    3.4635    2.1715   21.4475 C   0  0  0  0  0  0  0  0  0  0  0  0
    4.5394    1.3292   21.2942 C   0  0  0  0  0  0  0  0  0  0  0  0
    4.9752    0.9339   19.9993 C   0  0  0  0  0  0  0  0  0  0  0  0
    5.0983    1.0080   22.1678 H   0  0  0  0  0  0  0  0  0  0  0  0
    3.1736    2.4930   22.4428 H   0  0  0  0  0  0  0  0  0  0  0  0
    1.9205    3.3163   20.4485 H   0  0  0  0  0  0  0  0  0  0  0  0
    2.6403    2.6454   18.1754 H   0  0  0  0  0  0  0  0  0  0  0  0
    4.1920    1.3811   16.7025 H   0  0  0  0  0  0  0  0  0  0  0  0
    7.3186   -0.8153   18.2533 H   0  0  0  0  0  0  0  0  0  0  0  0
    6.4847   -1.5422   21.6336 C   0  0  0  0  0  0  0  0  0  0  0  0
    7.7400   -1.7940   22.4882 C   0  0  2  0  0  0  0  0  0  0  0  0
    7.4254   -2.5163   23.7986 C   0  0  0  0  0  0  0  0  0  0  0  0
    6.8857   -3.8004   23.5421 O   0  0  0  0  0  0  0  0  0  0  0  0
    7.7977   -4.8517   23.7911 C   0  0  0  0  0  0  0  0  0  0  0  0
    7.9051   -5.1699   25.2694 C   0  0  0  0  0  0  0  0  0  0  0  0
    8.6905   -6.3650   25.7479 C   0  0  0  0  0  0  0  0  0  0  0  0
    9.2138   -4.9680   25.9813 C   0  0  0  0  0  0  0  0  0  0  0  0
    9.1652   -4.4805   26.9551 H   0  0  0  0  0  0  0  0  0  0  0  0
   10.0978   -4.7092   25.3994 H   0  0  0  0  0  0  0  0  0  0  0  0
    9.1768   -6.9819   24.9876 H   0  0  0  0  0  0  0  0  0  0  0  0
    8.3315   -6.9647   26.5821 H   0  0  0  0  0  0  0  0  0  0  0  0
    7.0211   -4.8915   25.8447 H   0  0  0  0  0  0  0  0  0  0  0  0
    7.4460   -5.6950   23.1786 H   0  0  0  0  0  0  0  0  0  0  0  0
    8.7947   -4.5612   23.4227 H   0  0  0  0  0  0  0  0  0  0  0  0
    6.6716   -1.9557   24.3684 H   0  0  0  0  0  0  0  0  0  0  0  0
    8.3324   -2.5927   24.4181 H   0  0  0  0  0  0  0  0  0  0  0  0
    8.3830   -2.4633   21.9109 H   0  0  0  0  0  0  0  0  0  0  0  0
    6.2252   -2.4011   21.0067 H   0  0  0  0  0  0  0  0  0  0  0  0
    5.6041   -1.3083   22.2535 H   0  0  0  0  0  0  0  0  0  0  0  0
    9.9831   -0.4932   22.5162 C   0  0  0  0  0  0  0  0  0  0  0  0
   10.5909   -1.3810   21.6213 C   0  0  0  0  0  0  0  0  0  0  0  0
   11.9497   -1.3239   21.3934 C   0  0  0  0  0  0  0  0  0  0  0  0
   12.5825   -2.3819   20.1520 Cl  0  0  0  0  0  0  0  0  0  0  0  0
   12.7601   -0.4119   22.0821 C   0  0  0  0  0  0  0  0  0  0  0  0
   12.1704    0.4424   22.9895 C   0  0  0  0  0  0  0  0  0  0  0  0
   10.7884    0.4521   23.1602 C   0  0  0  0  0  0  0  0  0  0  0  0
   10.1933    1.5982   23.9192 C   0  0  0  0  0  0  0  0  0  0  0  0
   10.8865    2.4769   24.4131 O   0  0  0  0  0  0  0  0  0  0  0  0
   12.7656    1.1543   23.5494 H   0  0  0  0  0  0  0  0  0  0  0  0
   13.8233   -0.3342   21.8849 H   0  0  0  0  0  0  0  0  0  0  0  0
   10.0119   -2.0947   21.0445 H   0  0  0  0  0  0  0  0  0  0  0  0
    8.2211   -0.2289   24.7213 H   0  0  0  0  0  0  0  0  0  0  0  0
    7.0025    0.6546   23.7737 H   0  0  0  0  0  0  0  0  0  0  0  0
    7.6115    2.6521   25.3364 H   0  0  0  0  0  0  0  0  0  0  0  0
    8.9236    3.5698   24.5573 H   0  0  0  0  0  0  0  0  0  0  0  0
    8.5340    3.7017   21.9664 H   0  0  0  0  0  0  0  0  0  0  0  0
    6.1239    3.4090   20.8097 H   0  0  0  0  0  0  0  0  0  0  0  0
    7.1769    4.7846   20.4124 H   0  0  0  0  0  0  0  0  0  0  0  0
    5.9213    4.9855   21.6251 H   0  0  0  0  0  0  0  0  0  0  0  0
  1  2  1  0
  2  3  1  0
  3  4  2  0
  3  5  1  0
  5  6  1  0
  6  7  1  0
  8  7  1  1
  8  9  1  0
  9 10  2  0
  9 11  1  0
 11 12  1  0
 12 13  2  0
 13 14  1  0
 14 15  2  0
 15 16  1  0
 16 17  2  0
 17 18  1  0
 18 19  2  0
 19 20  1  0
 20 21  2  0
 20 22  1  0
 19 23  1  0
 18 24  1  0
 17 25  1  0
 15 26  1  0
 13 27  1  0
 11 28  1  0
 28 29  1  0
 29 30  1  0
 30 31  1  0
 31 32  1  0
 32 33  1  0
 33 34  1  0
 34 35  1  0
 35 36  1  0
 35 37  1  0
 34 38  1  0
 34 39  1  0
 33 40  1  0
 32 41  1  0
 32 42  1  0
 30 43  1  0
 30 44  1  0
 29 45  1  6
 28 46  1  0
 28 47  1  0
  8 48  1  0
 48 49  2  0
 49 50  1  0
 50 51  1  0
 50 52  2  0
 52 53  1  0
 53 54  2  0
 54 55  1  0
 55 56  2  0
 53 57  1  0
 52 58  1  0
 49 59  1  0
  7 60  1  0
  7 61  1  0
  5 62  1  0
  5 63  1  0
  2 64  1  0
  1 65  1  0
  1 66  1  0
  1 67  1  0
 55  6  1  0
 29  8  1  0
 35 33  1  0
 54 48  1  0
 21 12  1  0
 21 16  1  0
M  END
>  <cnnaffinities>  (14) 
[6.81103]

>  <score>  (14) 
6.81103

>  <index>  (14) 
13

>  <Smiles>  (14) 
C(N(C(=O)C(N1C([C@@]2(C(=O)N(c3c(nc(c4c(c(c(c(c34)[H])[H])[H])[H])[H])[H])C([C@@]2(C(OC(C2(C(C2([H])[H])([H])[H])[H])([H])[H])([H])[H])[H])([H])[H])c2c(c(Cl)c(c(c2C1=O)[H])[H])[H])([H])[H])([H])[H])[H])([H])([H])[H]

>  <h>  (14) 
<NA>

>  <Training>  (14) 
True

>  <Success>  (14) 
True

>  <enamine_searched>  (14) 
False

>  <enamine_id>  (14) 
nan

$$$$

     RDKit          3D

 67 73  0  0  0  0  0  0  0  0999 V2000
    7.1644   -2.4522   23.4452 C   0  0  0  0  0  0  0  0  0  0  0  0
    8.0279   -1.7590   22.3881 C   0  0  1  0  0  0  0  0  0  0  0  0
    7.3212   -1.6852   21.0205 C   0  0  0  0  0  0  0  0  0  0  0  0
    6.9440   -0.2950   20.8713 N   0  0  0  0  0  0  0  0  0  0  0  0
    6.1523    0.1460   19.7921 C   0  0  0  0  0  0  0  0  0  0  0  0
    6.4468   -0.2227   18.5022 C   0  0  0  0  0  0  0  0  0  0  0  0
    5.7706    0.2146   17.4147 N   0  0  0  0  0  0  0  0  0  0  0  0
    4.7537    1.0155   17.6113 C   0  0  0  0  0  0  0  0  0  0  0  0
    4.3065    1.4245   18.8993 C   0  0  0  0  0  0  0  0  0  0  0  0
    3.1841    2.2782   19.0627 C   0  0  0  0  0  0  0  0  0  0  0  0
    2.7517    2.6251   20.3138 C   0  0  0  0  0  0  0  0  0  0  0  0
    3.4146    2.1259   21.4585 C   0  0  0  0  0  0  0  0  0  0  0  0
    4.5070    1.3067   21.3262 C   0  0  0  0  0  0  0  0  0  0  0  0
    5.0032    0.9603   20.0347 C   0  0  0  0  0  0  0  0  0  0  0  0
    5.0050    0.9220   22.2108 H   0  0  0  0  0  0  0  0  0  0  0  0
    3.0676    2.4129   22.4486 H   0  0  0  0  0  0  0  0  0  0  0  0
    1.9017    3.2892   20.4385 H   0  0  0  0  0  0  0  0  0  0  0  0
    2.6845    2.6469   18.1719 H   0  0  0  0  0  0  0  0  0  0  0  0
    4.2219    1.3734   16.7289 H   0  0  0  0  0  0  0  0  0  0  0  0
    7.2910   -0.8797   18.2932 H   0  0  0  0  0  0  0  0  0  0  0  0
    7.6512    0.5561   21.6894 C   0  0  0  0  0  0  0  0  0  0  0  0
    7.6187    1.7739   21.6391 O   0  0  0  0  0  0  0  0  0  0  0  0
    8.4633   -0.2924   22.6930 C   0  0  1  0  0  0  0  0  0  0  0  0
    8.1625    0.1454   24.1339 C   0  0  0  0  0  0  0  0  0  0  0  0
    8.6477    1.4779   24.4140 N   0  0  0  0  0  0  0  0  0  0  0  0
    7.8220    2.3236   25.2473 C   0  0  0  0  0  0  0  0  0  0  0  0
    6.7275    3.0508   24.4601 C   0  0  0  0  0  0  0  0  0  0  0  0
    7.2792    4.1127   23.5819 N   0  0  2  0  0  4  0  0  0  0  0  0
    7.7510    5.3753   24.3373 C   0  0  0  0  0  0  0  0  0  0  0  0
    6.9380    6.5048   23.6705 C   0  0  2  0  0  0  0  0  0  0  0  0
    5.5888    5.8349   23.3970 C   0  0  0  0  0  0  0  0  0  0  0  0
    6.2601    4.7121   22.6037 C   0  0  1  0  0  0  0  0  0  0  0  0
    7.1051    5.5238   21.6318 C   0  0  0  0  0  0  0  0  0  0  0  0
    7.4502    6.7139   22.3536 O   0  0  0  0  0  0  0  0  0  0  0  0
    6.6067    5.7822   20.6930 H   0  0  0  0  0  0  0  0  0  0  0  0
    8.0018    4.9387   21.4385 H   0  0  0  0  0  0  0  0  0  0  0  0
    5.6520    3.9216   22.1665 H   0  0  0  0  0  0  0  0  0  0  0  0
    4.9482    6.4568   22.7690 H   0  0  0  0  0  0  0  0  0  0  0  0
    5.0244    5.5148   24.2782 H   0  0  0  0  0  0  0  0  0  0  0  0
    6.9630    7.4593   24.1917 H   0  0  0  0  0  0  0  0  0  0  0  0
    8.8282    5.5020   24.2278 H   0  0  0  0  0  0  0  0  0  0  0  0
    7.4891    5.2726   25.3928 H   0  0  0  0  0  0  0  0  0  0  0  0
    8.0308    3.6603   23.0269 H   0  0  0  0  0  0  0  0  0  0  0  0
    5.9901    3.4831   25.1487 H   0  0  0  0  0  0  0  0  0  0  0  0
    6.2058    2.3330   23.8156 H   0  0  0  0  0  0  0  0  0  0  0  0
    7.3463    1.6934   26.0051 H   0  0  0  0  0  0  0  0  0  0  0  0
    8.4946    3.0278   25.7379 H   0  0  0  0  0  0  0  0  0  0  0  0
    9.9099    1.8653   24.0880 C   0  0  0  0  0  0  0  0  0  0  0  0
   10.4156    2.9046   24.5092 O   0  0  0  0  0  0  0  0  0  0  0  0
   10.6240    0.9785   23.1237 C   0  0  0  0  0  0  0  0  0  0  0  0
   11.9637    1.2364   22.8508 C   0  0  0  0  0  0  0  0  0  0  0  0
   12.7038    0.3965   22.0369 C   0  0  0  0  0  0  0  0  0  0  0  0
   12.0284   -0.6717   21.4447 C   0  0  0  0  0  0  0  0  0  0  0  0
   12.7285   -1.5852   20.1154 Cl  0  0  0  0  0  0  0  0  0  0  0  0
   10.6767   -0.8780   21.6295 C   0  0  0  0  0  0  0  0  0  0  0  0
    9.9503   -0.0733   22.4969 C   0  0  0  0  0  0  0  0  0  0  0  0
   10.1885   -1.6205   21.0083 H   0  0  0  0  0  0  0  0  0  0  0  0
   13.7452    0.6153   21.8083 H   0  0  0  0  0  0  0  0  0  0  0  0
   12.3869    2.1355   23.2837 H   0  0  0  0  0  0  0  0  0  0  0  0
    7.0884    0.1266   24.3123 H   0  0  0  0  0  0  0  0  0  0  0  0
    8.6356   -0.5741   24.8139 H   0  0  0  0  0  0  0  0  0  0  0  0
    6.4316   -2.3212   20.9732 H   0  0  0  0  0  0  0  0  0  0  0  0
    7.9958   -1.9862   20.2108 H   0  0  0  0  0  0  0  0  0  0  0  0
    8.9216   -2.3823   22.3057 H   0  0  0  0  0  0  0  0  0  0  0  0
    6.2168   -1.9323   23.6134 H   0  0  0  0  0  0  0  0  0  0  0  0
    7.6889   -2.5290   24.4025 H   0  0  0  0  0  0  0  0  0  0  0  0
    6.9331   -3.4746   23.1291 H   0  0  0  0  0  0  0  0  0  0  0  0
  1  2  1  0
  2  3  1  0
  3  4  1  0
  4  5  1  0
  5  6  2  0
  6  7  1  0
  7  8  2  0
  8  9  1  0
  9 10  2  0
 10 11  1  0
 11 12  2  0
 12 13  1  0
 13 14  2  0
 13 15  1  0
 12 16  1  0
 11 17  1  0
 10 18  1  0
  8 19  1  0
  6 20  1  0
  4 21  1  0
 21 22  2  0
 21 23  1  0
 23 24  1  1
 24 25  1  0
 25 26  1  0
 26 27  1  0
 27 28  1  0
 28 29  1  0
 29 30  1  0
 30 31  1  0
 31 32  1  0
 32 33  1  0
 33 34  1  0
 33 35  1  0
 33 36  1  0
 32 37  1  6
 31 38  1  0
 31 39  1  0
 30 40  1  1
 29 41  1  0
 29 42  1  0
 28 43  1  6
 27 44  1  0
 27 45  1  0
 26 46  1  0
 26 47  1  0
 25 48  1  0
 48 49  2  0
 48 50  1  0
 50 51  2  0
 51 52  1  0
 52 53  2  0
 53 54  1  0
 53 55  1  0
 55 56  2  0
 55 57  1  0
 52 58  1  0
 51 59  1  0
 24 60  1  0
 24 61  1  0
  3 62  1  0
  3 63  1  0
  2 64  1  6
  1 65  1  0
  1 66  1  0
  1 67  1  0
 23  2  1  0
 32 28  1  0
 56 50  1  0
 14  5  1  0
 56 23  1  0
 14  9  1  0
 34 30  1  0
M  CHG  1  28   1
M  END
>  <cnnaffinities>  (15) 
[6.79376, 6.80151]

>  <score>  (15) 
6.79376

>  <index>  (15) 
14

>  <Smiles>  (15) 
C([C@]1(C(N(c2c(nc(c3c(c(c(c(c23)[H])[H])[H])[H])[H])[H])C(=O)[C@]21C(N(C(C([N@@+]1(C([C@@]3(C([C@]1(C(O3)([H])[H])[H])([H])[H])[H])([H])[H])[H])([H])[H])([H])[H])C(=O)c1c(c(c(Cl)c(c21)[H])[H])[H])([H])[H])([H])[H])[H])([H])([H])[H]

>  <h>  (15) 
<NA>

>  <Training>  (15) 
True

>  <Success>  (15) 
True

>  <enamine_searched>  (15) 
False

>  <enamine_id>  (15) 
nan

$$$$

     RDKit          3D

 72 77  0  0  0  0  0  0  0  0999 V2000
    6.9842    7.7706   21.5725 C   0  0  0  0  0  0  0  0  0  0  0  0
    6.0021    6.6212   21.4882 C   0  0  1  0  0  0  0  0  0  0  0  0
    6.7155    5.2673   21.3960 C   0  0  0  0  0  0  0  0  0  0  0  0
    6.9496    4.6718   22.7421 N   0  0  2  0  0  4  0  0  0  0  0  0
    7.6660    3.3786   22.6241 C   0  0  0  0  0  0  0  0  0  0  0  0
    8.1332    2.8428   23.9731 C   0  0  0  0  0  0  0  0  0  0  0  0
    8.8350    1.5909   23.8002 N   0  0  0  0  0  0  0  0  0  0  0  0
    8.1389    0.3261   23.7398 C   0  0  0  0  0  0  0  0  0  0  0  0
    8.5383   -0.5003   22.4865 C   0  0  2  0  0  0  0  0  0  0  0  0
    8.0655    0.1589   21.1738 C   0  0  0  0  0  0  0  0  0  0  0  0
    8.6136    1.0562   20.5616 O   0  0  0  0  0  0  0  0  0  0  0  0
    6.8933   -0.4450   20.7932 N   0  0  0  0  0  0  0  0  0  0  0  0
    6.1212    0.0937   19.7412 C   0  0  0  0  0  0  0  0  0  0  0  0
    6.4569   -0.1963   18.4451 C   0  0  0  0  0  0  0  0  0  0  0  0
    5.7658    0.2451   17.3693 N   0  0  0  0  0  0  0  0  0  0  0  0
    4.7355    1.0211   17.5918 C   0  0  0  0  0  0  0  0  0  0  0  0
    4.3040    1.4276   18.8868 C   0  0  0  0  0  0  0  0  0  0  0  0
    3.2015    2.2983   19.0686 C   0  0  0  0  0  0  0  0  0  0  0  0
    2.8126    2.6690   20.3251 C   0  0  0  0  0  0  0  0  0  0  0  0
    3.5001    2.1823   21.4575 C   0  0  0  0  0  0  0  0  0  0  0  0
    4.5780    1.3413   21.3132 C   0  0  0  0  0  0  0  0  0  0  0  0
    5.0079    0.9447   20.0128 C   0  0  0  0  0  0  0  0  0  0  0  0
    5.1078    1.0005   22.1982 H   0  0  0  0  0  0  0  0  0  0  0  0
    3.1704    2.4818   22.4478 H   0  0  0  0  0  0  0  0  0  0  0  0
    1.9702    3.3402   20.4572 H   0  0  0  0  0  0  0  0  0  0  0  0
    2.6864    2.6574   18.1845 H   0  0  0  0  0  0  0  0  0  0  0  0
    4.1841    1.3741   16.7203 H   0  0  0  0  0  0  0  0  0  0  0  0
    7.3183   -0.8307   18.2469 H   0  0  0  0  0  0  0  0  0  0  0  0
    6.4804   -1.5371   21.6549 C   0  0  0  0  0  0  0  0  0  0  0  0
    7.7811   -1.8552   22.4121 C   0  0  2  0  0  0  0  0  0  0  0  0
    7.5767   -2.5803   23.7345 C   0  0  0  0  0  0  0  0  0  0  0  0
    7.1003   -3.5558   23.5853 H   0  0  0  0  0  0  0  0  0  0  0  0
    8.5377   -2.7400   24.2350 H   0  0  0  0  0  0  0  0  0  0  0  0
    6.9408   -1.9963   24.4110 H   0  0  0  0  0  0  0  0  0  0  0  0
    8.3631   -2.4992   21.7458 H   0  0  0  0  0  0  0  0  0  0  0  0
    5.6656   -1.2567   22.3445 H   0  0  0  0  0  0  0  0  0  0  0  0
    6.1223   -2.3808   21.0561 H   0  0  0  0  0  0  0  0  0  0  0  0
   10.0398   -0.5610   22.4496 C   0  0  0  0  0  0  0  0  0  0  0  0
   10.6732   -1.5076   21.6501 C   0  0  0  0  0  0  0  0  0  0  0  0
   12.0066   -1.3724   21.3430 C   0  0  0  0  0  0  0  0  0  0  0  0
   12.6426   -2.4043   20.0934 Cl  0  0  0  0  0  0  0  0  0  0  0  0
   12.7918   -0.3960   21.9727 C   0  0  0  0  0  0  0  0  0  0  0  0
   12.1852    0.4929   22.8280 C   0  0  0  0  0  0  0  0  0  0  0  0
   10.8081    0.4692   22.9944 C   0  0  0  0  0  0  0  0  0  0  0  0
   10.1768    1.6680   23.6110 C   0  0  0  0  0  0  0  0  0  0  0  0
   10.8196    2.6745   23.8660 O   0  0  0  0  0  0  0  0  0  0  0  0
   12.7471    1.2534   23.3577 H   0  0  0  0  0  0  0  0  0  0  0  0
   13.8511   -0.3050   21.7704 H   0  0  0  0  0  0  0  0  0  0  0  0
   10.1364   -2.3523   21.2409 H   0  0  0  0  0  0  0  0  0  0  0  0
    8.3973   -0.2660   24.6286 H   0  0  0  0  0  0  0  0  0  0  0  0
    7.0621    0.5161   23.7778 H   0  0  0  0  0  0  0  0  0  0  0  0
    8.8413    3.5458   24.4232 H   0  0  0  0  0  0  0  0  0  0  0  0
    7.2932    2.6873   24.6579 H   0  0  0  0  0  0  0  0  0  0  0  0
    8.5346    3.5052   21.9663 H   0  0  0  0  0  0  0  0  0  0  0  0
    7.0037    2.6510   22.1407 H   0  0  0  0  0  0  0  0  0  0  0  0
    5.6896    4.5959   23.6071 C   0  0  1  0  0  0  0  0  0  0  0  0
    5.9952    5.1242   25.0109 C   0  0  0  0  0  0  0  0  0  0  0  0
    5.1296    5.0007   25.6682 H   0  0  0  0  0  0  0  0  0  0  0  0
    6.2419    6.1883   24.9410 H   0  0  0  0  0  0  0  0  0  0  0  0
    6.8468    4.6067   25.4623 H   0  0  0  0  0  0  0  0  0  0  0  0
    4.6043    5.4194   22.9264 C   0  0  0  0  0  0  0  0  0  0  0  0
    5.1337    6.6855   22.6084 O   0  0  0  0  0  0  0  0  0  0  0  0
    3.7668    5.5751   23.6088 H   0  0  0  0  0  0  0  0  0  0  0  0
    4.2124    4.9058   22.0340 H   0  0  0  0  0  0  0  0  0  0  0  0
    5.3794    3.5469   23.6385 H   0  0  0  0  0  0  0  0  0  0  0  0
    7.5992    5.3104   23.2387 H   0  0  0  0  0  0  0  0  0  0  0  0
    7.6846    5.4134   20.9209 H   0  0  0  0  0  0  0  0  0  0  0  0
    6.1582    4.5467   20.7798 H   0  0  0  0  0  0  0  0  0  0  0  0
    5.4164    6.7339   20.5656 H   0  0  0  0  0  0  0  0  0  0  0  0
    6.4767    8.7381   21.5632 H   0  0  0  0  0  0  0  0  0  0  0  0
    7.6113    7.6914   22.4674 H   0  0  0  0  0  0  0  0  0  0  0  0
    7.6308    7.7006   20.6990 H   0  0  0  0  0  0  0  0  0  0  0  0
  1  2  1  0
  2  3  1  0
  3  4  1  0
  4  5  1  0
  5  6  1  0
  6  7  1  0
  7  8  1  0
  9  8  1  1
  9 10  1  0
 10 11  2  0
 10 12  1  0
 12 13  1  0
 13 14  2  0
 14 15  1  0
 15 16  2  0
 16 17  1  0
 17 18  2  0
 18 19  1  0
 19 20  2  0
 20 21  1  0
 21 22  2  0
 21 23  1  0
 20 24  1  0
 19 25  1  0
 18 26  1  0
 16 27  1  0
 14 28  1  0
 12 29  1  0
 29 30  1  0
 30 31  1  0
 31 32  1  0
 31 33  1  0
 31 34  1  0
 30 35  1  6
 29 36  1  0
 29 37  1  0
  9 38  1  0
 38 39  2  0
 39 40  1  0
 40 41  1  0
 40 42  2  0
 42 43  1  0
 43 44  2  0
 44 45  1  0
 45 46  2  0
 43 47  1  0
 42 48  1  0
 39 49  1  0
  8 50  1  0
  8 51  1  0
  6 52  1  0
  6 53  1  0
  5 54  1  0
  5 55  1  0
  4 56  1  0
 56 57  1  0
 57 58  1  0
 57 59  1  0
 57 60  1  0
 56 61  1  0
 61 62  1  0
 61 63  1  0
 61 64  1  0
 56 65  1  1
  4 66  1  1
  3 67  1  0
  3 68  1  0
  2 69  1  6
  1 70  1  0
  1 71  1  0
  1 72  1  0
 62  2  1  0
 45  7  1  0
 30  9  1  0
 44 38  1  0
 22 13  1  0
 22 17  1  0
M  CHG  1   4   1
M  END
>  <cnnaffinities>  (16) 
[6.72265]

>  <score>  (16) 
6.72265

>  <index>  (16) 
15

>  <Smiles>  (16) 
C([C@]1(C([N@+](C(C(N2C([C@@]3(C(=O)N(c4c(nc(c5c(c(c(c(c45)[H])[H])[H])[H])[H])[H])C([C@@]3(C([H])([H])[H])[H])([H])[H])c3c(c(Cl)c(c(c3C2=O)[H])[H])[H])([H])[H])([H])[H])([H])[H])([C@@](C([H])([H])[H])(C(O1)([H])[H])[H])[H])([H])[H])[H])([H])([H])[H]

>  <h>  (16) 
<NA>

>  <Training>  (16) 
True

>  <Success>  (16) 
True

>  <enamine_searched>  (16) 
False

>  <enamine_id>  (16) 
nan

$$$$

     RDKit          3D

 47 50  0  0  0  0  0  0  0  0999 V2000
    7.1252   -4.7467   25.2875 C   0  0  0  0  0  0  0  0  0  0  0  0
    6.6081   -3.3792   24.8579 C   0  0  1  0  0  0  0  0  0  0  0  0
    7.6750   -2.2835   24.9343 C   0  0  0  0  0  0  0  0  0  0  0  0
    7.3651   -1.2922   23.7997 C   0  0  2  0  0  0  0  0  0  0  0  0
    6.6575   -0.0453   24.2973 C   0  0  0  0  0  0  0  0  0  0  0  0
    7.3505    1.1608   24.3881 C   0  0  0  0  0  0  0  0  0  0  0  0
    6.7199    2.3094   24.8539 C   0  0  0  0  0  0  0  0  0  0  0  0
    5.3876    2.2592   25.2531 C   0  0  0  0  0  0  0  0  0  0  0  0
    4.6995    1.0500   25.1987 C   0  0  0  0  0  0  0  0  0  0  0  0
    5.3323   -0.0930   24.7294 C   0  0  0  0  0  0  0  0  0  0  0  0
    4.7794   -1.0274   24.6985 H   0  0  0  0  0  0  0  0  0  0  0  0
    3.6607    0.9980   25.5103 H   0  0  0  0  0  0  0  0  0  0  0  0
    4.8871    3.1563   25.6012 H   0  0  0  0  0  0  0  0  0  0  0  0
    7.2667    3.2457   24.8866 H   0  0  0  0  0  0  0  0  0  0  0  0
    8.3926    1.2013   24.0777 H   0  0  0  0  0  0  0  0  0  0  0  0
    6.5641   -2.0653   22.8603 N   0  0  0  0  0  0  0  0  0  0  0  0
    6.2342   -1.7220   21.5770 C   0  0  0  0  0  0  0  0  0  0  0  0
    5.4461   -2.4022   20.9344 O   0  0  0  0  0  0  0  0  0  0  0  0
    6.9117   -0.4914   20.9241 C   0  0  0  0  0  0  0  0  0  0  0  0
    6.1130    0.0837   19.7742 C   0  0  0  0  0  0  0  0  0  0  0  0
    6.4205   -0.2154   18.4715 C   0  0  0  0  0  0  0  0  0  0  0  0
    5.7559    0.2443   17.3751 N   0  0  0  0  0  0  0  0  0  0  0  0
    4.7328    1.0311   17.5800 C   0  0  0  0  0  0  0  0  0  0  0  0
    4.2840    1.4244   18.8703 C   0  0  0  0  0  0  0  0  0  0  0  0
    3.1653    2.2770   19.0462 C   0  0  0  0  0  0  0  0  0  0  0  0
    2.7515    2.6299   20.2984 C   0  0  0  0  0  0  0  0  0  0  0  0
    3.4466    2.1372   21.4298 C   0  0  0  0  0  0  0  0  0  0  0  0
    4.5337    1.3116   21.2939 C   0  0  0  0  0  0  0  0  0  0  0  0
    4.9890    0.9361   20.0027 C   0  0  0  0  0  0  0  0  0  0  0  0
    5.0484    0.9478   22.1840 H   0  0  0  0  0  0  0  0  0  0  0  0
    3.1119    2.4274   22.4192 H   0  0  0  0  0  0  0  0  0  0  0  0
    1.8968    3.2874   20.4388 H   0  0  0  0  0  0  0  0  0  0  0  0
    2.6447    2.6452   18.1631 H   0  0  0  0  0  0  0  0  0  0  0  0
    4.2003    1.3977   16.6974 H   0  0  0  0  0  0  0  0  0  0  0  0
    7.2640   -0.8660   18.2423 H   0  0  0  0  0  0  0  0  0  0  0  0
    7.8738   -0.8362   20.5204 H   0  0  0  0  0  0  0  0  0  0  0  0
    7.1526    0.2915   21.6544 H   0  0  0  0  0  0  0  0  0  0  0  0
    6.1058   -3.3375   23.4107 C   0  0  0  0  0  0  0  0  0  0  0  0
    6.5187   -4.1593   22.8209 H   0  0  0  0  0  0  0  0  0  0  0  0
    5.0180   -3.4441   23.3467 H   0  0  0  0  0  0  0  0  0  0  0  0
    8.2981   -0.9935   23.3150 H   0  0  0  0  0  0  0  0  0  0  0  0
    8.6696   -2.7188   24.8035 H   0  0  0  0  0  0  0  0  0  0  0  0
    7.6902   -1.7970   25.9106 H   0  0  0  0  0  0  0  0  0  0  0  0
    5.7860   -3.1129   25.5290 H   0  0  0  0  0  0  0  0  0  0  0  0
    7.4982   -4.7435   26.3171 H   0  0  0  0  0  0  0  0  0  0  0  0
    7.9590   -5.0576   24.6519 H   0  0  0  0  0  0  0  0  0  0  0  0
    6.3554   -5.5207   25.2194 H   0  0  0  0  0  0  0  0  0  0  0  0
  1  2  1  0
  2  3  1  0
  3  4  1  0
  4  5  1  0
  5  6  2  0
  6  7  1  0
  7  8  2  0
  8  9  1  0
  9 10  2  0
 10 11  1  0
  9 12  1  0
  8 13  1  0
  7 14  1  0
  6 15  1  0
  4 16  1  0
 16 17  1  0
 17 18  2  0
 17 19  1  0
 19 20  1  0
 20 21  2  0
 21 22  1  0
 22 23  2  0
 23 24  1  0
 24 25  2  0
 25 26  1  0
 26 27  2  0
 27 28  1  0
 28 29  2  0
 28 30  1  0
 27 31  1  0
 26 32  1  0
 25 33  1  0
 23 34  1  0
 21 35  1  0
 19 36  1  0
 19 37  1  0
 16 38  1  0
 38 39  1  0
 38 40  1  0
  4 41  1  6
  3 42  1  0
  3 43  1  0
  2 44  1  1
  1 45  1  0
  1 46  1  0
  1 47  1  0
 38  2  1  0
 10  5  1  0
 29 20  1  0
 29 24  1  0
M  END
>  <cnnaffinities>  (17) 
[5.90011]

>  <score>  (17) 
5.90011

>  <index>  (17) 
16

>  <Smiles>  (17) 
C([C@]1(C([C@](c2c(c(c(c(c2[H])[H])[H])[H])[H])(N(C(=O)C(c2c(nc(c3c(c(c(c(c23)[H])[H])[H])[H])[H])[H])([H])[H])C1([H])[H])[H])([H])[H])[H])([H])([H])[H]

>  <h>  (17) 
<NA>

>  <Training>  (17) 
True

>  <Success>  (17) 
True

>  <enamine_searched>  (17) 
False

>  <enamine_id>  (17) 
nan

$$$$

     RDKit          3D

 58 63  0  0  0  0  0  0  0  0999 V2000
    7.6259   -2.9221   23.4424 C   0  0  0  0  0  0  0  0  0  0  0  0
    7.9517   -1.8848   22.3606 C   0  0  1  0  0  0  0  0  0  0  0  0
    6.8447   -1.7716   21.2946 C   0  0  0  0  0  0  0  0  0  0  0  0
    6.9364   -0.4011   20.8301 N   0  0  0  0  0  0  0  0  0  0  0  0
    6.1445    0.1132   19.7718 C   0  0  0  0  0  0  0  0  0  0  0  0
    6.4434   -0.2206   18.4772 C   0  0  0  0  0  0  0  0  0  0  0  0
    5.7636    0.2279   17.3960 N   0  0  0  0  0  0  0  0  0  0  0  0
    4.7443    1.0210   17.6020 C   0  0  0  0  0  0  0  0  0  0  0  0
    4.2964    1.4203   18.8914 C   0  0  0  0  0  0  0  0  0  0  0  0
    3.1700    2.2697   19.0659 C   0  0  0  0  0  0  0  0  0  0  0  0
    2.7454    2.6140   20.3179 C   0  0  0  0  0  0  0  0  0  0  0  0
    3.4215    2.1133   21.4566 C   0  0  0  0  0  0  0  0  0  0  0  0
    4.5111    1.2940   21.3122 C   0  0  0  0  0  0  0  0  0  0  0  0
    5.0010    0.9425   20.0220 C   0  0  0  0  0  0  0  0  0  0  0  0
    5.0192    0.9126   22.1946 H   0  0  0  0  0  0  0  0  0  0  0  0
    3.0861    2.3901   22.4524 H   0  0  0  0  0  0  0  0  0  0  0  0
    1.8921    3.2757   20.4451 H   0  0  0  0  0  0  0  0  0  0  0  0
    2.6623    2.6397   18.1769 H   0  0  0  0  0  0  0  0  0  0  0  0
    4.2180    1.3836   16.7171 H   0  0  0  0  0  0  0  0  0  0  0  0
    7.2851   -0.8772   18.2625 H   0  0  0  0  0  0  0  0  0  0  0  0
    7.6585    0.4194   21.6605 C   0  0  0  0  0  0  0  0  0  0  0  0
    7.8062    1.6152   21.4809 O   0  0  0  0  0  0  0  0  0  0  0  0
    8.2060   -0.4185   22.8391 C   0  0  1  0  0  0  0  0  0  0  0  0
    7.4072   -0.0783   24.1222 C   0  0  0  0  0  0  0  0  0  0  0  0
    7.6885    1.2618   24.5992 N   0  0  0  0  0  0  0  0  0  0  0  0
    6.5855    2.1900   24.7834 C   0  0  0  0  0  0  0  0  0  0  0  0
    5.5228    1.6704   25.7046 C   0  0  0  0  0  0  0  0  0  0  0  0
    4.3033    1.3478   25.3557 N   0  0  0  0  0  0  0  0  0  0  0  0
    3.6638    0.8620   26.4701 N   0  0  0  0  0  0  0  0  0  0  0  0
    4.5190    0.9120   27.4486 C   0  0  0  0  0  0  0  0  0  0  0  0
    5.7165    1.4231   27.0333 N   0  0  0  0  0  0  0  0  0  0  0  0
    6.9253    1.6211   27.8101 C   0  0  0  0  0  0  0  0  0  0  0  0
    7.3437    2.6158   27.6247 H   0  0  0  0  0  0  0  0  0  0  0  0
    6.6578    1.5385   28.8668 H   0  0  0  0  0  0  0  0  0  0  0  0
    7.6777    0.8637   27.5663 H   0  0  0  0  0  0  0  0  0  0  0  0
    4.3380    0.5953   28.4712 H   0  0  0  0  0  0  0  0  0  0  0  0
    7.0312    3.1191   25.1519 H   0  0  0  0  0  0  0  0  0  0  0  0
    6.1034    2.3819   23.8150 H   0  0  0  0  0  0  0  0  0  0  0  0
    8.9747    1.6543   24.8249 C   0  0  0  0  0  0  0  0  0  0  0  0
    9.2760    2.5798   25.5720 O   0  0  0  0  0  0  0  0  0  0  0  0
   10.0086    0.8797   24.0638 C   0  0  0  0  0  0  0  0  0  0  0  0
   11.3408    1.2028   24.2970 C   0  0  0  0  0  0  0  0  0  0  0  0
   12.3442    0.6841   23.5072 C   0  0  0  0  0  0  0  0  0  0  0  0
   11.9650   -0.1274   22.4451 C   0  0  0  0  0  0  0  0  0  0  0  0
   12.8886   -0.4900   21.5457 F   0  0  0  0  0  0  0  0  0  0  0  0
   10.6629   -0.5325   22.2406 C   0  0  0  0  0  0  0  0  0  0  0  0
    9.6559   -0.0601   23.0872 C   0  0  0  0  0  0  0  0  0  0  0  0
   10.4680   -1.1723   21.3871 H   0  0  0  0  0  0  0  0  0  0  0  0
   13.3921    0.9242   23.6417 H   0  0  0  0  0  0  0  0  0  0  0  0
   11.5034    1.9187   25.0837 H   0  0  0  0  0  0  0  0  0  0  0  0
    6.3361   -0.1334   23.9208 H   0  0  0  0  0  0  0  0  0  0  0  0
    7.6657   -0.8066   24.9068 H   0  0  0  0  0  0  0  0  0  0  0  0
    6.9854   -2.4548   20.4563 H   0  0  0  0  0  0  0  0  0  0  0  0
    5.8565   -1.9903   21.7266 H   0  0  0  0  0  0  0  0  0  0  0  0
    8.8710   -2.1995   21.8602 H   0  0  0  0  0  0  0  0  0  0  0  0
    7.5400   -3.9259   23.0105 H   0  0  0  0  0  0  0  0  0  0  0  0
    6.6710   -2.6942   23.9321 H   0  0  0  0  0  0  0  0  0  0  0  0
    8.3940   -2.9614   24.2241 H   0  0  0  0  0  0  0  0  0  0  0  0
  1  2  1  0
  2  3  1  0
  3  4  1  0
  4  5  1  0
  5  6  2  0
  6  7  1  0
  7  8  2  0
  8  9  1  0
  9 10  2  0
 10 11  1  0
 11 12  2  0
 12 13  1  0
 13 14  2  0
 13 15  1  0
 12 16  1  0
 11 17  1  0
 10 18  1  0
  8 19  1  0
  6 20  1  0
  4 21  1  0
 21 22  2  0
 21 23  1  0
 23 24  1  1
 24 25  1  0
 25 26  1  0
 26 27  1  0
 27 28  2  0
 28 29  1  0
 29 30  2  0
 30 31  1  0
 31 32  1  0
 32 33  1  0
 32 34  1  0
 32 35  1  0
 30 36  1  0
 26 37  1  0
 26 38  1  0
 25 39  1  0
 39 40  2  0
 39 41  1  0
 41 42  2  0
 42 43  1  0
 43 44  2  0
 44 45  1  0
 44 46  1  0
 46 47  2  0
 46 48  1  0
 43 49  1  0
 42 50  1  0
 24 51  1  0
 24 52  1  0
  3 53  1  0
  3 54  1  0
  2 55  1  6
  1 56  1  0
  1 57  1  0
  1 58  1  0
 23  2  1  0
 31 27  1  0
 47 41  1  0
 14  5  1  0
 47 23  1  0
 14  9  1  0
M  END
>  <cnnaffinities>  (18) 
[6.57957, 6.81627]

>  <score>  (18) 
6.57957

>  <index>  (18) 
17

>  <Smiles>  (18) 
C([C@]1(C(N(c2c(nc(c3c(c(c(c(c23)[H])[H])[H])[H])[H])[H])C(=O)[C@]21C(N(C(c1nnc(n1C([H])([H])[H])[H])([H])[H])C(=O)c1c(c(c(F)c(c21)[H])[H])[H])([H])[H])([H])[H])[H])([H])([H])[H]

>  <h>  (18) 
<NA>

>  <Training>  (18) 
True

>  <Success>  (18) 
True

>  <enamine_searched>  (18) 
False

>  <enamine_id>  (18) 
nan

$$$$

     RDKit          3D

 50 53  0  0  0  0  0  0  0  0999 V2000
    7.9526    4.5628   27.7506 C   0  0  0  0  0  0  0  0  0  0  0  0
    8.2477    4.6434   26.2547 C   0  0  1  0  0  0  0  0  0  0  0  0
    9.5163    3.8706   25.8724 C   0  0  0  0  0  0  0  0  0  0  0  0
    9.3155    2.3542   25.9078 C   0  0  0  0  0  0  0  0  0  0  0  0
    8.1560    1.8560   25.0344 C   0  0  2  0  0  0  0  0  0  0  0  0
    7.9308    0.3439   25.2187 C   0  0  0  0  0  0  0  0  0  0  0  0
    7.4013   -0.1848   23.8826 C   0  0  0  0  0  0  0  0  0  0  0  0
    7.8620    0.7877   22.8996 N   0  0  0  0  0  0  0  0  0  0  0  0
    7.8315    0.6587   21.5414 C   0  0  0  0  0  0  0  0  0  0  0  0
    8.4709    1.3971   20.8072 O   0  0  0  0  0  0  0  0  0  0  0  0
    6.9392   -0.4412   20.9230 C   0  0  0  0  0  0  0  0  0  0  0  0
    6.1101    0.0841   19.7711 C   0  0  0  0  0  0  0  0  0  0  0  0
    6.4274   -0.2066   18.4674 C   0  0  0  0  0  0  0  0  0  0  0  0
    5.7602    0.2474   17.3729 N   0  0  0  0  0  0  0  0  0  0  0  0
    4.7314    1.0299   17.5778 C   0  0  0  0  0  0  0  0  0  0  0  0
    4.2852    1.4243   18.8699 C   0  0  0  0  0  0  0  0  0  0  0  0
    3.1697    2.2840   19.0436 C   0  0  0  0  0  0  0  0  0  0  0  0
    2.7652    2.6499   20.2991 C   0  0  0  0  0  0  0  0  0  0  0  0
    3.4622    2.1705   21.4306 C   0  0  0  0  0  0  0  0  0  0  0  0
    4.5454    1.3377   21.2875 C   0  0  0  0  0  0  0  0  0  0  0  0
    4.9899    0.9415   19.9972 C   0  0  0  0  0  0  0  0  0  0  0  0
    5.0688    0.9830   22.1709 H   0  0  0  0  0  0  0  0  0  0  0  0
    3.1371    2.4688   22.4216 H   0  0  0  0  0  0  0  0  0  0  0  0
    1.9148    3.3121   20.4349 H   0  0  0  0  0  0  0  0  0  0  0  0
    2.6468    2.6494   18.1633 H   0  0  0  0  0  0  0  0  0  0  0  0
    4.1993    1.3977   16.6986 H   0  0  0  0  0  0  0  0  0  0  0  0
    7.2737   -0.8559   18.2447 H   0  0  0  0  0  0  0  0  0  0  0  0
    7.6101   -1.2152   20.5313 H   0  0  0  0  0  0  0  0  0  0  0  0
    6.2959   -0.9327   21.6622 H   0  0  0  0  0  0  0  0  0  0  0  0
    8.4785    1.9543   23.5240 C   0  0  0  0  0  0  0  0  0  0  0  0
    8.0898    2.8720   23.0774 H   0  0  0  0  0  0  0  0  0  0  0  0
    9.5598    1.9671   23.3438 H   0  0  0  0  0  0  0  0  0  0  0  0
    7.8054   -1.1772   23.6719 H   0  0  0  0  0  0  0  0  0  0  0  0
    6.3081   -0.2582   23.8941 H   0  0  0  0  0  0  0  0  0  0  0  0
    8.8718   -0.1500   25.4738 H   0  0  0  0  0  0  0  0  0  0  0  0
    7.2472    0.1340   26.0431 H   0  0  0  0  0  0  0  0  0  0  0  0
    6.8797    2.6421   25.4058 C   0  0  0  0  0  0  0  0  0  0  0  0
    7.0599    4.1641   25.4080 C   0  0  0  0  0  0  0  0  0  0  0  0
    6.1405    4.6412   25.7684 H   0  0  0  0  0  0  0  0  0  0  0  0
    7.1869    4.5104   24.3755 H   0  0  0  0  0  0  0  0  0  0  0  0
    6.0711    2.3574   24.7239 H   0  0  0  0  0  0  0  0  0  0  0  0
    6.5422    2.3271   26.4021 H   0  0  0  0  0  0  0  0  0  0  0  0
    9.1431    2.0247   26.9380 H   0  0  0  0  0  0  0  0  0  0  0  0
   10.2327    1.8488   25.5865 H   0  0  0  0  0  0  0  0  0  0  0  0
   10.3424    4.1656   26.5321 H   0  0  0  0  0  0  0  0  0  0  0  0
    9.8256    4.1539   24.8588 H   0  0  0  0  0  0  0  0  0  0  0  0
    8.4173    5.7023   26.0247 H   0  0  0  0  0  0  0  0  0  0  0  0
    7.7282    3.5465   28.0793 H   0  0  0  0  0  0  0  0  0  0  0  0
    7.0857    5.1735   28.0141 H   0  0  0  0  0  0  0  0  0  0  0  0
    8.8017    4.9166   28.3415 H   0  0  0  0  0  0  0  0  0  0  0  0
  1  2  1  0
  2  3  1  0
  3  4  1  0
  5  4  1  1
  5  6  1  0
  6  7  1  0
  7  8  1  0
  8  9  1  0
  9 10  2  0
  9 11  1  0
 11 12  1  0
 12 13  2  0
 13 14  1  0
 14 15  2  0
 15 16  1  0
 16 17  2  0
 17 18  1  0
 18 19  2  0
 19 20  1  0
 20 21  2  0
 20 22  1  0
 19 23  1  0
 18 24  1  0
 17 25  1  0
 15 26  1  0
 13 27  1  0
 11 28  1  0
 11 29  1  0
  8 30  1  0
 30 31  1  0
 30 32  1  0
  7 33  1  0
  7 34  1  0
  6 35  1  0
  6 36  1  0
  5 37  1  0
 37 38  1  0
 38 39  1  0
 38 40  1  0
 37 41  1  0
 37 42  1  0
  4 43  1  0
  4 44  1  0
  3 45  1  0
  3 46  1  0
  2 47  1  6
  1 48  1  0
  1 49  1  0
  1 50  1  0
 38  2  1  0
 30  5  1  0
 21 12  1  0
 21 16  1  0
M  END
>  <cnnaffinities>  (19) 
[5.64999, 5.95996]

>  <score>  (19) 
5.64999

>  <index>  (19) 
18

>  <Smiles>  (19) 
C([C@]1(C(C([C@@]2(C(C(N(C(=O)C(c3c(nc(c4c(c(c(c(c34)[H])[H])[H])[H])[H])[H])([H])[H])C2([H])[H])([H])[H])([H])[H])C(C1([H])[H])([H])[H])([H])[H])([H])[H])[H])([H])([H])[H]

>  <h>  (19) 
<NA>

>  <Training>  (19) 
True

>  <Success>  (19) 
True

>  <enamine_searched>  (19) 
False

>  <enamine_id>  (19) 
nan

$$$$

     RDKit          3D

 67 71  0  0  0  0  0  0  0  0999 V2000
    9.2493    3.1692   25.3561 O   0  0  0  0  0  0  0  0  0  0  0  0
    8.4251    2.7667   24.5479 C   0  0  0  0  0  0  0  0  0  0  0  0
    7.5431    1.5473   24.7972 C   0  0  0  0  0  0  0  0  0  0  0  0
    7.8425    0.4285   23.8542 N   0  0  1  0  0  4  0  0  0  0  0  0
    9.3093    0.0343   23.9037 C   0  0  0  0  0  0  0  0  0  0  0  0
    9.6158   -1.0423   22.8934 C   0  0  0  0  0  0  0  0  0  0  0  0
   10.8857   -1.1521   22.3268 C   0  0  0  0  0  0  0  0  0  0  0  0
   11.1740   -2.1430   21.3990 C   0  0  0  0  0  0  0  0  0  0  0  0
   10.1700   -3.0340   21.0303 C   0  0  0  0  0  0  0  0  0  0  0  0
   10.5212   -4.2488   19.8103 Cl  0  0  0  0  0  0  0  0  0  0  0  0
    8.9194   -2.9810   21.6321 C   0  0  0  0  0  0  0  0  0  0  0  0
    8.6245   -1.9545   22.5330 C   0  0  0  0  0  0  0  0  0  0  0  0
    7.1852   -1.7753   22.9632 C   0  0  2  0  0  0  0  0  0  0  0  0
    6.3251   -1.2385   21.8137 C   0  0  0  0  0  0  0  0  0  0  0  0
    5.1885   -1.6164   21.6163 O   0  0  0  0  0  0  0  0  0  0  0  0
    6.8965   -0.2071   21.0688 N   0  0  0  0  0  0  0  0  0  0  0  0
    6.1866    0.2570   19.9314 C   0  0  0  0  0  0  0  0  0  0  0  0
    6.5502   -0.1062   18.6579 C   0  0  0  0  0  0  0  0  0  0  0  0
    5.8718    0.2566   17.5422 N   0  0  0  0  0  0  0  0  0  0  0  0
    4.8063    1.0043   17.6919 C   0  0  0  0  0  0  0  0  0  0  0  0
    4.3316    1.4623   18.9514 C   0  0  0  0  0  0  0  0  0  0  0  0
    3.1826    2.2872   19.0725 C   0  0  0  0  0  0  0  0  0  0  0  0
    2.7639    2.7159   20.3034 C   0  0  0  0  0  0  0  0  0  0  0  0
    3.4732    2.3422   21.4679 C   0  0  0  0  0  0  0  0  0  0  0  0
    4.5888    1.5489   21.3769 C   0  0  0  0  0  0  0  0  0  0  0  0
    5.0406    1.0823   20.1112 C   0  0  0  0  0  0  0  0  0  0  0  0
    5.1398    1.2553   22.2690 H   0  0  0  0  0  0  0  0  0  0  0  0
    3.1300    2.6895   22.4373 H   0  0  0  0  0  0  0  0  0  0  0  0
    1.8889    3.3536   20.3931 H   0  0  0  0  0  0  0  0  0  0  0  0
    2.6549    2.5758   18.1670 H   0  0  0  0  0  0  0  0  0  0  0  0
    4.2630    1.2869   16.7882 H   0  0  0  0  0  0  0  0  0  0  0  0
    7.4172   -0.7436   18.4806 H   0  0  0  0  0  0  0  0  0  0  0  0
    7.9070   -0.2266   20.9722 H   0  0  0  0  0  0  0  0  0  0  0  0
    7.0368   -0.8087   24.1452 C   0  0  0  0  0  0  0  0  0  0  0  0
    5.9866   -0.5444   24.2994 H   0  0  0  0  0  0  0  0  0  0  0  0
    7.4163   -1.2591   25.0695 H   0  0  0  0  0  0  0  0  0  0  0  0
    6.7409   -2.7353   23.2255 H   0  0  0  0  0  0  0  0  0  0  0  0
    8.1611   -3.7259   21.4134 H   0  0  0  0  0  0  0  0  0  0  0  0
   12.1721   -2.2400   20.9787 H   0  0  0  0  0  0  0  0  0  0  0  0
   11.6656   -0.4495   22.6074 H   0  0  0  0  0  0  0  0  0  0  0  0
    9.9352    0.9111   23.7352 H   0  0  0  0  0  0  0  0  0  0  0  0
    9.5202   -0.3231   24.9216 H   0  0  0  0  0  0  0  0  0  0  0  0
    7.5999    0.7134   22.8784 H   0  0  0  0  0  0  0  0  0  0  0  0
    7.7033    1.2311   25.8298 H   0  0  0  0  0  0  0  0  0  0  0  0
    6.4950    1.8439   24.6787 H   0  0  0  0  0  0  0  0  0  0  0  0
    8.2178    3.3716   23.3495 N   0  0  0  0  0  0  0  0  0  0  0  0
    9.0483    4.4980   22.9637 C   0  0  0  0  0  0  0  0  0  0  0  0
   10.4607    4.0364   22.5492 C   0  0  0  0  0  0  0  0  0  0  0  0
   11.3829    5.1366   22.0324 C   0  0  0  0  0  0  0  0  0  0  0  0
   11.5202    5.3341   20.7360 C   0  0  0  0  0  0  0  0  0  0  0  0
   12.6209    7.1940   21.0145 C   0  0  0  0  0  0  0  0  0  0  0  0
   12.6116    7.5274   21.1372 C   0  0  0  0  0  0  0  0  0  0  0  0
   13.3279    8.6386   20.5650 C   0  0  0  0  0  0  0  0  0  0  0  0
   12.3876    9.6085   20.9287 F   0  0  0  0  0  0  0  0  0  0  0  0
   13.6306    8.8416   19.2855 F   0  0  0  0  0  0  0  0  0  0  0  0
   14.1522    8.9542   21.1624 H   0  0  0  0  0  0  0  0  0  0  0  0
   12.7496    7.0086   22.5787 C   0  0  0  0  0  0  0  0  0  0  0  0
   12.1315    5.9474   22.9928 C   0  0  0  0  0  0  0  0  0  0  0  0
   12.1658    5.6450   24.0465 H   0  0  0  0  0  0  0  0  0  0  0  0
   13.0013    7.8577   23.2079 H   0  0  0  0  0  0  0  0  0  0  0  0
   12.3903    6.1751   20.5676 H   0  0  0  0  0  0  0  0  0  0  0  0
   11.0633    4.6575   20.0053 H   0  0  0  0  0  0  0  0  0  0  0  0
   10.3135    3.2198   21.8164 H   0  0  0  0  0  0  0  0  0  0  0  0
   10.8783    3.5325   23.4338 H   0  0  0  0  0  0  0  0  0  0  0  0
    8.5176    5.0220   22.1655 H   0  0  0  0  0  0  0  0  0  0  0  0
    9.1128    5.1638   23.8275 H   0  0  0  0  0  0  0  0  0  0  0  0
    7.6427    2.9187   22.6511 H   0  0  0  0  0  0  0  0  0  0  0  0
  1  2  2  0
  2  3  1  0
  3  4  1  0
  4  5  1  0
  5  6  1  0
  6  7  2  0
  7  8  1  0
  8  9  2  0
  9 10  1  0
  9 11  1  0
 11 12  2  0
 12 13  1  0
 13 14  1  0
 14 15  2  0
 14 16  1  0
 16 17  1  0
 17 18  2  0
 18 19  1  0
 19 20  2  0
 20 21  1  0
 21 22  2  0
 22 23  1  0
 23 24  2  0
 24 25  1  0
 25 26  2  0
 25 27  1  0
 24 28  1  0
 23 29  1  0
 22 30  1  0
 20 31  1  0
 18 32  1  0
 16 33  1  0
 13 34  1  0
 34 35  1  0
 34 36  1  0
 13 37  1  1
 11 38  1  0
  8 39  1  0
  7 40  1  0
  5 41  1  0
  5 42  1  0
  4 43  1  6
  3 44  1  0
  3 45  1  0
  2 46  1  0
 46 47  1  0
 47 48  1  0
 48 49  1  0
 49 50  2  0
 50 51  1  0
 51 52  2  0
 52 53  1  0
 53 54  1  0
 53 55  1  0
 53 56  1  0
 52 57  1  0
 57 58  2  0
 58 59  1  0
 57 60  1  0
 51 61  1  0
 50 62  1  0
 48 63  1  0
 48 64  1  0
 47 65  1  0
 47 66  1  0
 46 67  1  0
 34  4  1  0
 58 49  1  0
 12  6  1  0
 26 17  1  0
 26 21  1  0
M  CHG  1   4   1
M  END
>  <cnnaffinities>  (20) 
[6.66407]

>  <score>  (20) 
6.66407

>  <index>  (20) 
19

>  <Smiles>  (20) 
O=C(C([N@+]1(C(c2c(c(c(Cl)c(c2[C@](C(=O)N(c2c(nc(c3c(c(c(c(c23)[H])[H])[H])[H])[H])[H])[H])(C1([H])[H])[H])[H])[H])[H])([H])[H])[H])([H])[H])N(C(C(c1c(c(c(C(F)(F)[H])c(c1[H])[H])[H])[H])([H])[H])([H])[H])[H]

>  <h>  (20) 
<NA>

>  <Training>  (20) 
True

>  <Success>  (20) 
True

>  <enamine_searched>  (20) 
False

>  <enamine_id>  (20) 
nan

$$$$

     RDKit          3D

 66 70  0  0  0  0  0  0  0  0999 V2000
    4.3185    6.2274   22.0979 C   0  0  0  0  0  0  0  0  0  0  0  0
    5.3967    5.1529   21.8770 C   0  0  0  0  0  0  0  0  0  0  0  0
    6.7072    5.8632   21.6035 C   0  0  0  0  0  0  0  0  0  0  0  0
    6.8165    6.6311   20.6708 O   0  0  0  0  0  0  0  0  0  0  0  0
    7.7155    5.8064   22.5827 N   0  0  0  0  0  0  0  0  0  0  0  0
    8.1117    7.1495   23.0117 C   0  0  0  0  0  0  0  0  0  0  0  0
    9.4846    7.1743   23.6396 C   0  0  0  0  0  0  0  0  0  0  0  0
    9.5344    6.1217   24.7443 C   0  0  0  0  0  0  0  0  0  0  0  0
    9.1525    4.7520   24.2154 C   0  0  0  0  0  0  0  0  0  0  0  0
    9.6721    3.5913   24.7836 C   0  0  0  0  0  0  0  0  0  0  0  0
    9.3378    2.3256   24.3182 C   0  0  0  0  0  0  0  0  0  0  0  0
    8.4688    2.2087   23.2273 C   0  0  0  0  0  0  0  0  0  0  0  0
    8.0111    0.9191   22.8003 N   0  0  0  0  0  0  0  0  0  0  0  0
    7.9177    0.6910   21.4138 C   0  0  0  0  0  0  0  0  0  0  0  0
    8.5699    1.3524   20.6376 O   0  0  0  0  0  0  0  0  0  0  0  0
    6.9696   -0.4056   20.9199 C   0  0  0  0  0  0  0  0  0  0  0  0
    6.1136    0.0927   19.7778 C   0  0  0  0  0  0  0  0  0  0  0  0
    6.4308   -0.2048   18.4765 C   0  0  0  0  0  0  0  0  0  0  0  0
    5.7629    0.2459   17.3828 N   0  0  0  0  0  0  0  0  0  0  0  0
    4.7370    1.0321   17.5858 C   0  0  0  0  0  0  0  0  0  0  0  0
    4.2869    1.4282   18.8738 C   0  0  0  0  0  0  0  0  0  0  0  0
    3.1685    2.2835   19.0467 C   0  0  0  0  0  0  0  0  0  0  0  0
    2.7570    2.6387   20.3025 C   0  0  0  0  0  0  0  0  0  0  0  0
    3.4482    2.1560   21.4366 C   0  0  0  0  0  0  0  0  0  0  0  0
    4.5363    1.3288   21.2947 C   0  0  0  0  0  0  0  0  0  0  0  0
    4.9912    0.9449   20.0046 C   0  0  0  0  0  0  0  0  0  0  0  0
    5.0442    0.9618   22.1809 H   0  0  0  0  0  0  0  0  0  0  0  0
    3.1226    2.4637   22.4271 H   0  0  0  0  0  0  0  0  0  0  0  0
    1.9091    3.3030   20.4348 H   0  0  0  0  0  0  0  0  0  0  0  0
    2.6560    2.6503   18.1627 H   0  0  0  0  0  0  0  0  0  0  0  0
    4.2042    1.3918   16.7040 H   0  0  0  0  0  0  0  0  0  0  0  0
    7.2734   -0.8549   18.2430 H   0  0  0  0  0  0  0  0  0  0  0  0
    7.5943   -1.2313   20.5512 H   0  0  0  0  0  0  0  0  0  0  0  0
    6.3877   -0.7818   21.7671 H   0  0  0  0  0  0  0  0  0  0  0  0
    7.9350   -0.1270   23.7191 N   0  0  0  0  0  0  0  0  0  0  0  0
    8.7765   -1.2971   23.5412 C   0  0  0  0  0  0  0  0  0  0  0  0
    9.5677   -1.3585   24.3047 H   0  0  0  0  0  0  0  0  0  0  0  0
    8.1634   -2.2064   23.6097 H   0  0  0  0  0  0  0  0  0  0  0  0
    9.2514   -1.2630   22.5565 H   0  0  0  0  0  0  0  0  0  0  0  0
    7.0996   -0.0119   24.8326 C   0  0  0  0  0  0  0  0  0  0  0  0
    6.1289    1.0020   24.8981 C   0  0  0  0  0  0  0  0  0  0  0  0
    5.3181    1.1289   26.0165 C   0  0  0  0  0  0  0  0  0  0  0  0
    5.4481    0.2647   27.0989 C   0  0  0  0  0  0  0  0  0  0  0  0
    6.4099   -0.7304   27.0278 C   0  0  0  0  0  0  0  0  0  0  0  0
    6.5939   -1.8227   28.3732 Cl  0  0  0  0  0  0  0  0  0  0  0  0
    7.2318   -0.8881   25.9186 C   0  0  0  0  0  0  0  0  0  0  0  0
    7.9745   -1.6789   25.9362 H   0  0  0  0  0  0  0  0  0  0  0  0
    4.8223    0.3513   27.9797 H   0  0  0  0  0  0  0  0  0  0  0  0
    4.5746    1.9205   26.0493 H   0  0  0  0  0  0  0  0  0  0  0  0
    6.0245    1.6992   24.0748 H   0  0  0  0  0  0  0  0  0  0  0  0
    7.9612    3.3588   22.6185 C   0  0  0  0  0  0  0  0  0  0  0  0
    8.2519    4.6306   23.1413 C   0  0  0  0  0  0  0  0  0  0  0  0
    7.3323    3.2638   21.7366 H   0  0  0  0  0  0  0  0  0  0  0  0
    9.7267    1.4410   24.8118 H   0  0  0  0  0  0  0  0  0  0  0  0
   10.3411    3.6905   25.6372 H   0  0  0  0  0  0  0  0  0  0  0  0
    8.8382    6.4156   25.5470 H   0  0  0  0  0  0  0  0  0  0  0  0
   10.5350    6.0893   25.1920 H   0  0  0  0  0  0  0  0  0  0  0  0
   10.2496    6.9781   22.8771 H   0  0  0  0  0  0  0  0  0  0  0  0
    9.6687    8.1810   24.0365 H   0  0  0  0  0  0  0  0  0  0  0  0
    7.3527    7.5378   23.7143 H   0  0  0  0  0  0  0  0  0  0  0  0
    8.0593    7.7540   22.1050 H   0  0  0  0  0  0  0  0  0  0  0  0
    5.4642    4.4918   22.7488 H   0  0  0  0  0  0  0  0  0  0  0  0
    5.1547    4.5284   21.0097 H   0  0  0  0  0  0  0  0  0  0  0  0
    3.3473    5.7800   22.3229 H   0  0  0  0  0  0  0  0  0  0  0  0
    4.2119    6.8512   21.2063 H   0  0  0  0  0  0  0  0  0  0  0  0
    4.5842    6.8946   22.9272 H   0  0  0  0  0  0  0  0  0  0  0  0
  1  2  1  0
  2  3  1  0
  3  4  2  0
  3  5  1  0
  5  6  1  0
  6  7  1  0
  7  8  1  0
  8  9  1  0
  9 10  2  0
 10 11  1  0
 11 12  2  0
 12 13  1  0
 13 14  1  0
 14 15  2  0
 14 16  1  0
 16 17  1  0
 17 18  2  0
 18 19  1  0
 19 20  2  0
 20 21  1  0
 21 22  2  0
 22 23  1  0
 23 24  2  0
 24 25  1  0
 25 26  2  0
 25 27  1  0
 24 28  1  0
 23 29  1  0
 22 30  1  0
 20 31  1  0
 18 32  1  0
 16 33  1  0
 16 34  1  0
 13 35  1  0
 35 36  1  0
 36 37  1  0
 36 38  1  0
 36 39  1  0
 35 40  1  0
 40 41  2  0
 41 42  1  0
 42 43  2  0
 43 44  1  0
 44 45  1  0
 44 46  2  0
 46 47  1  0
 43 48  1  0
 42 49  1  0
 41 50  1  0
 12 51  1  0
 51 52  2  0
 51 53  1  0
 11 54  1  0
 10 55  1  0
  8 56  1  0
  8 57  1  0
  7 58  1  0
  7 59  1  0
  6 60  1  0
  6 61  1  0
  2 62  1  0
  2 63  1  0
  1 64  1  0
  1 65  1  0
  1 66  1  0
 52  5  1  0
 52  9  1  0
 26 17  1  0
 46 40  1  0
 26 21  1  0
M  END
>  <cnnaffinities>  (21) 
[6.98544, 7.16636, 6.90553]

>  <score>  (21) 
6.98544

>  <index>  (21) 
20

>  <Smiles>  (21) 
C(C(C(=O)N1C(C(C(c2c(c(c(N(C(=O)C(c3c(nc(c4c(c(c(c(c34)[H])[H])[H])[H])[H])[H])([H])[H])N(C([H])([H])[H])c3c(c(c(c(Cl)c3[H])[H])[H])[H])c(c12)[H])[H])[H])([H])[H])([H])[H])([H])[H])([H])[H])([H])([H])[H]

>  <h>  (21) 
<NA>

>  <Training>  (21) 
True

>  <Success>  (21) 
True

>  <enamine_searched>  (21) 
False

>  <enamine_id>  (21) 
nan

$$$$

     RDKit          3D

 59 64  0  0  0  0  0  0  0  0999 V2000
    6.8024   -2.2576   23.6496 C   0  0  0  0  0  0  0  0  0  0  0  0
    7.7708   -1.8256   22.5317 C   0  0  1  0  0  0  0  0  0  0  0  0
    7.0313   -1.7857   21.1733 C   0  0  0  0  0  0  0  0  0  0  0  0
    6.8831   -0.3816   20.8764 N   0  0  0  0  0  0  0  0  0  0  0  0
    6.1305    0.1096   19.7802 C   0  0  0  0  0  0  0  0  0  0  0  0
    6.4438   -0.2242   18.4838 C   0  0  0  0  0  0  0  0  0  0  0  0
    5.7680    0.2269   17.4016 N   0  0  0  0  0  0  0  0  0  0  0  0
    4.7451    1.0220   17.5990 C   0  0  0  0  0  0  0  0  0  0  0  0
    4.2930    1.4256   18.8862 C   0  0  0  0  0  0  0  0  0  0  0  0
    3.1663    2.2733   19.0628 C   0  0  0  0  0  0  0  0  0  0  0  0
    2.7422    2.6156   20.3211 C   0  0  0  0  0  0  0  0  0  0  0  0
    3.4248    2.1217   21.4548 C   0  0  0  0  0  0  0  0  0  0  0  0
    4.5218    1.3087   21.3064 C   0  0  0  0  0  0  0  0  0  0  0  0
    4.9982    0.9541   20.0137 C   0  0  0  0  0  0  0  0  0  0  0  0
    5.0330    0.9136   22.1759 H   0  0  0  0  0  0  0  0  0  0  0  0
    3.0762    2.3913   22.4486 H   0  0  0  0  0  0  0  0  0  0  0  0
    1.8805    3.2640   20.4501 H   0  0  0  0  0  0  0  0  0  0  0  0
    2.6537    2.6395   18.1810 H   0  0  0  0  0  0  0  0  0  0  0  0
    4.2214    1.3819   16.7161 H   0  0  0  0  0  0  0  0  0  0  0  0
    7.2880   -0.8740   18.2547 H   0  0  0  0  0  0  0  0  0  0  0  0
    7.7211    0.4315   21.6029 C   0  0  0  0  0  0  0  0  0  0  0  0
    7.8731    1.6143   21.3776 O   0  0  0  0  0  0  0  0  0  0  0  0
    8.4399   -0.4149   22.6848 C   0  0  1  0  0  0  0  0  0  0  0  0
    8.2464    0.1776   24.1038 C   0  0  0  0  0  0  0  0  0  0  0  0
    8.9574    1.4238   24.3071 N   0  0  0  0  0  0  0  0  0  0  0  0
    8.2779    2.5739   24.9074 C   0  0  0  0  0  0  0  0  0  0  0  0
    7.7576    3.5796   23.9050 C   0  0  0  0  0  0  0  0  0  0  0  0
    8.4809    4.5955   23.2441 C   0  0  0  0  0  0  0  0  0  0  0  0
    7.7402    5.2158   22.3321 N   0  0  0  0  0  0  0  0  0  0  0  0
    6.5467    4.6242   22.3956 N   0  0  0  0  0  0  0  0  0  0  0  0
    5.4978    4.9474   21.4572 C   0  0  0  0  0  0  0  0  0  0  0  0
    5.4789    4.2369   20.6176 H   0  0  0  0  0  0  0  0  0  0  0  0
    5.6677    5.9660   21.0996 H   0  0  0  0  0  0  0  0  0  0  0  0
    4.5478    4.8799   21.9925 H   0  0  0  0  0  0  0  0  0  0  0  0
    6.5022    3.6544   23.3354 C   0  0  0  0  0  0  0  0  0  0  0  0
    5.5957    3.0680   23.4491 H   0  0  0  0  0  0  0  0  0  0  0  0
    9.5225    4.8696   23.3669 H   0  0  0  0  0  0  0  0  0  0  0  0
    8.9897    3.0406   25.5968 H   0  0  0  0  0  0  0  0  0  0  0  0
    7.4480    2.1862   25.5069 H   0  0  0  0  0  0  0  0  0  0  0  0
   10.2603    1.5760   23.9274 C   0  0  0  0  0  0  0  0  0  0  0  0
   10.9419    2.5174   24.3161 O   0  0  0  0  0  0  0  0  0  0  0  0
   10.7765    0.5384   22.9772 C   0  0  0  0  0  0  0  0  0  0  0  0
   12.1303    0.5889   22.6520 C   0  0  0  0  0  0  0  0  0  0  0  0
   12.6638   -0.2997   21.7481 C   0  0  0  0  0  0  0  0  0  0  0  0
   11.8254   -1.2404   21.1662 C   0  0  0  0  0  0  0  0  0  0  0  0
   12.3649   -2.0615   20.2492 F   0  0  0  0  0  0  0  0  0  0  0  0
   10.4715   -1.2924   21.4350 C   0  0  0  0  0  0  0  0  0  0  0  0
    9.9354   -0.4156   22.3897 C   0  0  0  0  0  0  0  0  0  0  0  0
    9.8480   -1.9570   20.8433 H   0  0  0  0  0  0  0  0  0  0  0  0
   13.6939   -0.2455   21.4178 H   0  0  0  0  0  0  0  0  0  0  0  0
   12.7543    1.3400   23.1155 H   0  0  0  0  0  0  0  0  0  0  0  0
    7.1901    0.3864   24.2588 H   0  0  0  0  0  0  0  0  0  0  0  0
    8.5742   -0.5710   24.8445 H   0  0  0  0  0  0  0  0  0  0  0  0
    7.6163   -2.2793   20.3951 H   0  0  0  0  0  0  0  0  0  0  0  0
    6.0451   -2.2649   21.2181 H   0  0  0  0  0  0  0  0  0  0  0  0
    8.5614   -2.5854   22.5043 H   0  0  0  0  0  0  0  0  0  0  0  0
    7.3024   -2.3296   24.6215 H   0  0  0  0  0  0  0  0  0  0  0  0
    6.3860   -3.2502   23.4255 H   0  0  0  0  0  0  0  0  0  0  0  0
    5.9591   -1.5628   23.7517 H   0  0  0  0  0  0  0  0  0  0  0  0
  1  2  1  0
  2  3  1  0
  3  4  1  0
  4  5  1  0
  5  6  2  0
  6  7  1  0
  7  8  2  0
  8  9  1  0
  9 10  2  0
 10 11  1  0
 11 12  2  0
 12 13  1  0
 13 14  2  0
 13 15  1  0
 12 16  1  0
 11 17  1  0
 10 18  1  0
  8 19  1  0
  6 20  1  0
  4 21  1  0
 21 22  2  0
 21 23  1  0
 23 24  1  1
 24 25  1  0
 25 26  1  0
 26 27  1  0
 27 28  1  0
 28 29  2  0
 29 30  1  0
 30 31  1  0
 31 32  1  0
 31 33  1  0
 31 34  1  0
 30 35  1  0
 35 36  1  0
 28 37  1  0
 26 38  1  0
 26 39  1  0
 25 40  1  0
 40 41  2  0
 40 42  1  0
 42 43  2  0
 43 44  1  0
 44 45  2  0
 45 46  1  0
 45 47  1  0
 47 48  2  0
 47 49  1  0
 44 50  1  0
 43 51  1  0
 24 52  1  0
 24 53  1  0
  3 54  1  0
  3 55  1  0
  2 56  1  6
  1 57  1  0
  1 58  1  0
  1 59  1  0
 23  2  1  0
 35 27  2  0
 48 42  1  0
 14  5  1  0
 48 23  1  0
 14  9  1  0
M  END
>  <cnnaffinities>  (22) 
[6.77168, 6.80322, 6.64218, 6.60171]

>  <score>  (22) 
6.77168

>  <index>  (22) 
21

>  <Smiles>  (22) 
C([C@]1(C(N(c2c(nc(c3c(c(c(c(c23)[H])[H])[H])[H])[H])[H])C(=O)[C@]21C(N(C(c1c(nn(C([H])([H])[H])c1[H])[H])([H])[H])C(=O)c1c(c(c(F)c(c21)[H])[H])[H])([H])[H])([H])[H])[H])([H])([H])[H]

>  <h>  (22) 
<NA>

>  <Training>  (22) 
True

>  <Success>  (22) 
True

>  <enamine_searched>  (22) 
False

>  <enamine_id>  (22) 
nan

$$$$

     RDKit          3D

 41 44  0  0  0  0  0  0  0  0999 V2000
    7.9706    1.7254   21.0894 O   0  0  0  0  0  0  0  0  0  0  0  0
    8.0419    0.5391   21.3828 C   0  0  0  0  0  0  0  0  0  0  0  0
    6.9854   -0.4550   20.9058 C   0  0  0  0  0  0  0  0  0  0  0  0
    6.1435    0.0921   19.7859 C   0  0  0  0  0  0  0  0  0  0  0  0
    6.4546   -0.2092   18.4851 C   0  0  0  0  0  0  0  0  0  0  0  0
    5.7859    0.2384   17.3905 N   0  0  0  0  0  0  0  0  0  0  0  0
    4.7564    1.0188   17.5961 C   0  0  0  0  0  0  0  0  0  0  0  0
    4.3153    1.4195   18.8836 C   0  0  0  0  0  0  0  0  0  0  0  0
    3.1921    2.2687   19.0521 C   0  0  0  0  0  0  0  0  0  0  0  0
    2.7853    2.6388   20.3031 C   0  0  0  0  0  0  0  0  0  0  0  0
    3.4839    2.1733   21.4395 C   0  0  0  0  0  0  0  0  0  0  0  0
    4.5796    1.3540   21.3016 C   0  0  0  0  0  0  0  0  0  0  0  0
    5.0276    0.9531   20.0153 C   0  0  0  0  0  0  0  0  0  0  0  0
    5.1184    1.0218   22.1832 H   0  0  0  0  0  0  0  0  0  0  0  0
    3.1515    2.4725   22.4292 H   0  0  0  0  0  0  0  0  0  0  0  0
    1.9314    3.2996   20.4334 H   0  0  0  0  0  0  0  0  0  0  0  0
    2.6715    2.6220   18.1647 H   0  0  0  0  0  0  0  0  0  0  0  0
    4.2108    1.3842   16.7225 H   0  0  0  0  0  0  0  0  0  0  0  0
    7.2939   -0.8677   18.2592 H   0  0  0  0  0  0  0  0  0  0  0  0
    6.3702   -0.7609   21.7632 H   0  0  0  0  0  0  0  0  0  0  0  0
    7.5130   -1.3527   20.5629 H   0  0  0  0  0  0  0  0  0  0  0  0
    9.0781    0.0534   22.1312 N   0  0  0  0  0  0  0  0  0  0  0  0
    9.2009   -1.3336   22.5904 C   0  0  0  0  0  0  0  0  0  0  0  0
   10.1386   -1.4200   23.7916 C   0  0  0  0  0  0  0  0  0  0  0  0
   11.4695   -0.8324   23.4277 C   0  0  0  0  0  0  0  0  0  0  0  0
   12.6911   -1.3875   23.7758 C   0  0  0  0  0  0  0  0  0  0  0  0
   12.7247   -2.9821   24.4743 Cl  0  0  0  0  0  0  0  0  0  0  0  0
   13.8762   -0.7064   23.5537 C   0  0  0  0  0  0  0  0  0  0  0  0
   13.8645    0.4682   22.8069 C   0  0  0  0  0  0  0  0  0  0  0  0
   12.6523    0.9909   22.3788 C   0  0  0  0  0  0  0  0  0  0  0  0
   11.4573    0.3723   22.7248 C   0  0  0  0  0  0  0  0  0  0  0  0
   10.1372    1.0137   22.4190 C   0  0  0  0  0  0  0  0  0  0  0  0
    9.8365    1.6627   23.2484 H   0  0  0  0  0  0  0  0  0  0  0  0
   10.2322    1.6854   21.5682 H   0  0  0  0  0  0  0  0  0  0  0  0
   12.6496    1.8871   21.7665 H   0  0  0  0  0  0  0  0  0  0  0  0
   14.7927    0.9667   22.5404 H   0  0  0  0  0  0  0  0  0  0  0  0
   14.7626   -1.1263   23.9905 H   0  0  0  0  0  0  0  0  0  0  0  0
   10.2433   -2.4468   24.1440 H   0  0  0  0  0  0  0  0  0  0  0  0
    9.7063   -0.8623   24.6304 H   0  0  0  0  0  0  0  0  0  0  0  0
    9.5985   -1.9660   21.7838 H   0  0  0  0  0  0  0  0  0  0  0  0
    8.2221   -1.7392   22.8744 H   0  0  0  0  0  0  0  0  0  0  0  0
  1  2  2  0
  2  3  1  0
  3  4  1  0
  4  5  2  0
  5  6  1  0
  6  7  2  0
  7  8  1  0
  8  9  2  0
  9 10  1  0
 10 11  2  0
 11 12  1  0
 12 13  2  0
 12 14  1  0
 11 15  1  0
 10 16  1  0
  9 17  1  0
  7 18  1  0
  5 19  1  0
  3 20  1  0
  3 21  1  0
  2 22  1  0
 22 23  1  0
 23 24  1  0
 24 25  1  0
 25 26  2  0
 26 27  1  0
 26 28  1  0
 28 29  2  0
 29 30  1  0
 30 31  2  0
 31 32  1  0
 32 33  1  0
 32 34  1  0
 30 35  1  0
 29 36  1  0
 28 37  1  0
 24 38  1  0
 24 39  1  0
 23 40  1  0
 23 41  1  0
 13  4  1  0
 32 22  1  0
 13  8  1  0
 31 25  1  0
M  END
>  <cnnaffinities>  (23) 
[6.07287, 5.25739]

>  <score>  (23) 
6.07287

>  <index>  (23) 
22

>  <Smiles>  (23) 
O=C(C(c1c(nc(c2c(c(c(c(c12)[H])[H])[H])[H])[H])[H])([H])[H])N1C(C(c2c(Cl)c(c(c(c2C1([H])[H])[H])[H])[H])([H])[H])([H])[H]

>  <h>  (23) 
<NA>

>  <Training>  (23) 
True

>  <Success>  (23) 
True

>  <enamine_searched>  (23) 
False

>  <enamine_id>  (23) 
nan

$$$$

     RDKit          3D

 69 74  0  0  0  0  0  0  0  0999 V2000
    7.9392    7.6709   22.4993 C   0  0  0  0  0  0  0  0  0  0  0  0
    7.7091    6.3172   21.8577 C   0  0  1  0  0  0  0  0  0  0  0  0
    8.6406    5.1824   22.3557 C   0  0  0  0  0  0  0  0  0  0  0  0
    7.9895    3.8102   22.2599 N   0  0  1  0  0  4  0  0  0  0  0  0
    7.3115    3.3833   23.5318 C   0  0  0  0  0  0  0  0  0  0  0  0
    8.3132    2.8068   24.5261 C   0  0  0  0  0  0  0  0  0  0  0  0
    8.9945    1.6283   23.9975 N   0  0  0  0  0  0  0  0  0  0  0  0
    8.2415    0.3957   23.8385 C   0  0  0  0  0  0  0  0  0  0  0  0
    8.5822   -0.3871   22.5393 C   0  0  2  0  0  0  0  0  0  0  0  0
    8.0041    0.3600   21.3142 C   0  0  0  0  0  0  0  0  0  0  0  0
    8.4297    1.4178   20.8776 O   0  0  0  0  0  0  0  0  0  0  0  0
    6.9337   -0.3467   20.8182 N   0  0  0  0  0  0  0  0  0  0  0  0
    6.1355    0.1364   19.7409 C   0  0  0  0  0  0  0  0  0  0  0  0
    6.4714   -0.1527   18.4424 C   0  0  0  0  0  0  0  0  0  0  0  0
    5.7738    0.2834   17.3665 N   0  0  0  0  0  0  0  0  0  0  0  0
    4.7259    1.0382   17.5793 C   0  0  0  0  0  0  0  0  0  0  0  0
    4.2659    1.4205   18.8714 C   0  0  0  0  0  0  0  0  0  0  0  0
    3.1563    2.2891   19.0602 C   0  0  0  0  0  0  0  0  0  0  0  0
    2.7649    2.6542   20.3202 C   0  0  0  0  0  0  0  0  0  0  0  0
    3.4552    2.1655   21.4492 C   0  0  0  0  0  0  0  0  0  0  0  0
    4.5233    1.3122   21.2898 C   0  0  0  0  0  0  0  0  0  0  0  0
    4.9744    0.9311   19.9954 C   0  0  0  0  0  0  0  0  0  0  0  0
    5.0687    0.9705   22.1632 H   0  0  0  0  0  0  0  0  0  0  0  0
    3.1640    2.4907   22.4443 H   0  0  0  0  0  0  0  0  0  0  0  0
    1.9347    3.3416   20.4611 H   0  0  0  0  0  0  0  0  0  0  0  0
    2.6471    2.6735   18.1812 H   0  0  0  0  0  0  0  0  0  0  0  0
    4.1831    1.3965   16.7034 H   0  0  0  0  0  0  0  0  0  0  0  0
    7.3439   -0.7664   18.2253 H   0  0  0  0  0  0  0  0  0  0  0  0
    6.5166   -1.4251   21.6975 C   0  0  0  0  0  0  0  0  0  0  0  0
    7.8110   -1.7388   22.4681 C   0  0  2  0  0  0  0  0  0  0  0  0
    7.5831   -2.4755   23.7857 C   0  0  0  0  0  0  0  0  0  0  0  0
    6.9380   -1.8967   24.4576 H   0  0  0  0  0  0  0  0  0  0  0  0
    8.5292   -2.6639   24.3069 H   0  0  0  0  0  0  0  0  0  0  0  0
    7.0956   -3.4427   23.6199 H   0  0  0  0  0  0  0  0  0  0  0  0
    8.3905   -2.3856   21.8083 H   0  0  0  0  0  0  0  0  0  0  0  0
    5.7009   -1.1203   22.3763 H   0  0  0  0  0  0  0  0  0  0  0  0
    6.1541   -2.2806   21.1172 H   0  0  0  0  0  0  0  0  0  0  0  0
   10.0940   -0.4573   22.3766 C   0  0  0  0  0  0  0  0  0  0  0  0
   10.6869   -1.4167   21.5399 C   0  0  0  0  0  0  0  0  0  0  0  0
   12.0089   -1.2837   21.1569 C   0  0  0  0  0  0  0  0  0  0  0  0
   12.6496   -2.4094   19.9880 Cl  0  0  0  0  0  0  0  0  0  0  0  0
   12.7992   -0.2274   21.6169 C   0  0  0  0  0  0  0  0  0  0  0  0
   12.2479    0.6714   22.5100 C   0  0  0  0  0  0  0  0  0  0  0  0
   10.8985    0.5831   22.8682 C   0  0  0  0  0  0  0  0  0  0  0  0
   10.3242    1.7121   23.6865 C   0  0  0  0  0  0  0  0  0  0  0  0
   11.0094    2.6857   23.9916 O   0  0  0  0  0  0  0  0  0  0  0  0
   12.8394    1.4788   22.9274 H   0  0  0  0  0  0  0  0  0  0  0  0
   13.8091   -0.1000   21.2391 H   0  0  0  0  0  0  0  0  0  0  0  0
   10.1358   -2.2511   21.1197 H   0  0  0  0  0  0  0  0  0  0  0  0
    8.4147   -0.2600   24.7012 H   0  0  0  0  0  0  0  0  0  0  0  0
    7.1784    0.6526   23.8207 H   0  0  0  0  0  0  0  0  0  0  0  0
    9.0942    3.5376   24.7384 H   0  0  0  0  0  0  0  0  0  0  0  0
    7.7951    2.5831   25.4693 H   0  0  0  0  0  0  0  0  0  0  0  0
    6.7856    4.2291   23.9753 H   0  0  0  0  0  0  0  0  0  0  0  0
    6.5402    2.6433   23.2758 H   0  0  0  0  0  0  0  0  0  0  0  0
    7.0397    3.8357   21.1155 C   0  0  0  0  0  0  0  0  0  0  0  0
    5.9724    4.9175   21.2728 C   0  0  0  0  0  0  0  0  0  0  0  0
    6.3650    5.9599   22.1408 O   0  0  0  0  0  0  0  0  0  0  0  0
    5.8017    5.3397   20.2833 H   0  0  0  0  0  0  0  0  0  0  0  0
    5.0355    4.4865   21.6424 H   0  0  0  0  0  0  0  0  0  0  0  0
    6.5608    2.8711   21.0194 H   0  0  0  0  0  0  0  0  0  0  0  0
    7.6086    3.9667   20.1910 H   0  0  0  0  0  0  0  0  0  0  0  0
    8.6747    3.0821   22.0000 H   0  0  0  0  0  0  0  0  0  0  0  0
    8.8790    5.3671   23.4041 H   0  0  0  0  0  0  0  0  0  0  0  0
    9.5719    5.1837   21.7784 H   0  0  0  0  0  0  0  0  0  0  0  0
    7.8273    6.4339   20.7670 H   0  0  0  0  0  0  0  0  0  0  0  0
    7.7176    7.6268   23.5688 H   0  0  0  0  0  0  0  0  0  0  0  0
    7.2590    8.4033   22.0511 H   0  0  0  0  0  0  0  0  0  0  0  0
    8.9643    8.0183   22.3422 H   0  0  0  0  0  0  0  0  0  0  0  0
  1  2  1  0
  2  3  1  0
  3  4  1  0
  4  5  1  0
  5  6  1  0
  6  7  1  0
  7  8  1  0
  9  8  1  1
  9 10  1  0
 10 11  2  0
 10 12  1  0
 12 13  1  0
 13 14  2  0
 14 15  1  0
 15 16  2  0
 16 17  1  0
 17 18  2  0
 18 19  1  0
 19 20  2  0
 20 21  1  0
 21 22  2  0
 21 23  1  0
 20 24  1  0
 19 25  1  0
 18 26  1  0
 16 27  1  0
 14 28  1  0
 12 29  1  0
 29 30  1  0
 30 31  1  0
 31 32  1  0
 31 33  1  0
 31 34  1  0
 30 35  1  6
 29 36  1  0
 29 37  1  0
  9 38  1  0
 38 39  2  0
 39 40  1  0
 40 41  1  0
 40 42  2  0
 42 43  1  0
 43 44  2  0
 44 45  1  0
 45 46  2  0
 43 47  1  0
 42 48  1  0
 39 49  1  0
  8 50  1  0
  8 51  1  0
  6 52  1  0
  6 53  1  0
  5 54  1  0
  5 55  1  0
  4 56  1  0
 56 57  1  0
 57 58  1  0
 57 59  1  0
 57 60  1  0
 56 61  1  0
 56 62  1  0
  4 63  1  6
  3 64  1  0
  3 65  1  0
  2 66  1  6
  1 67  1  0
  1 68  1  0
  1 69  1  0
 58  2  1  0
 45  7  1  0
 30  9  1  0
 44 38  1  0
 22 13  1  0
 22 17  1  0
M  CHG  1   4   1
M  END
>  <cnnaffinities>  (24) 
[6.7264]

>  <score>  (24) 
6.7264

>  <index>  (24) 
23

>  <Smiles>  (24) 
C([C@]1(C([N@@+](C(C(N2C([C@@]3(C(=O)N(c4c(nc(c5c(c(c(c(c45)[H])[H])[H])[H])[H])[H])C([C@@]3(C([H])([H])[H])[H])([H])[H])c3c(c(Cl)c(c(c3C2=O)[H])[H])[H])([H])[H])([H])[H])([H])[H])(C(C(O1)([H])[H])([H])[H])[H])([H])[H])[H])([H])([H])[H]

>  <h>  (24) 
<NA>

>  <Training>  (24) 
True

>  <Success>  (24) 
True

>  <enamine_searched>  (24) 
False

>  <enamine_id>  (24) 
nan

$$$$

     RDKit          3D

 70 75  0  0  0  0  0  0  0  0999 V2000
    6.5302    4.5772   21.3421 C   0  0  0  0  0  0  0  0  0  0  0  0
    6.8504    3.6225   22.4070 N   0  0  0  0  0  4  0  0  0  0  0  0
    7.9304    4.0501   23.3232 C   0  0  0  0  0  0  0  0  0  0  0  0
    8.1233    3.0558   24.4706 C   0  0  0  0  0  0  0  0  0  0  0  0
    8.7354    1.8072   24.0376 N   0  0  0  0  0  0  0  0  0  0  0  0
    7.9603    0.5812   23.9527 C   0  0  0  0  0  0  0  0  0  0  0  0
    8.3302   -0.2690   22.7117 C   0  0  2  0  0  0  0  0  0  0  0  0
    7.7490    0.4207   21.4667 C   0  0  0  0  0  0  0  0  0  0  0  0
    7.9333    1.5830   21.1315 O   0  0  0  0  0  0  0  0  0  0  0  0
    6.9082   -0.4255   20.8085 N   0  0  0  0  0  0  0  0  0  0  0  0
    6.1199    0.1011   19.7491 C   0  0  0  0  0  0  0  0  0  0  0  0
    6.4556   -0.1975   18.4545 C   0  0  0  0  0  0  0  0  0  0  0  0
    5.7702    0.2490   17.3792 N   0  0  0  0  0  0  0  0  0  0  0  0
    4.7411    1.0259   17.6009 C   0  0  0  0  0  0  0  0  0  0  0  0
    4.3115    1.4385   18.8945 C   0  0  0  0  0  0  0  0  0  0  0  0
    3.2017    2.3062   19.0711 C   0  0  0  0  0  0  0  0  0  0  0  0
    2.8081    2.6846   20.3246 C   0  0  0  0  0  0  0  0  0  0  0  0
    3.5030    2.2137   21.4591 C   0  0  0  0  0  0  0  0  0  0  0  0
    4.5843    1.3757   21.3154 C   0  0  0  0  0  0  0  0  0  0  0  0
    5.0217    0.9675   20.0183 C   0  0  0  0  0  0  0  0  0  0  0  0
    5.0946    1.0100   22.2046 H   0  0  0  0  0  0  0  0  0  0  0  0
    3.1792    2.5183   22.4511 H   0  0  0  0  0  0  0  0  0  0  0  0
    1.9581    3.3488   20.4540 H   0  0  0  0  0  0  0  0  0  0  0  0
    2.6799    2.6532   18.1845 H   0  0  0  0  0  0  0  0  0  0  0  0
    4.1909    1.3803   16.7292 H   0  0  0  0  0  0  0  0  0  0  0  0
    7.3227   -0.8231   18.2549 H   0  0  0  0  0  0  0  0  0  0  0  0
    6.4778   -1.5397   21.6406 C   0  0  0  0  0  0  0  0  0  0  0  0
    7.6065   -1.6546   22.6783 C   0  0  2  0  0  0  0  0  0  0  0  0
    7.1561   -2.2496   24.0109 C   0  0  0  0  0  0  0  0  0  0  0  0
    6.0897   -1.5132   24.5831 O   0  0  0  0  0  0  0  0  0  0  0  0
    5.7607   -1.9725   25.8827 C   0  0  0  0  0  0  0  0  0  0  0  0
    4.6809   -1.0680   26.4396 C   0  0  0  0  0  0  0  0  0  0  0  0
    3.3375   -1.2361   25.7206 C   0  0  0  0  0  0  0  0  0  0  0  0
    2.6559   -1.5288   26.9444 O   0  0  0  0  0  0  0  0  0  0  0  0
    3.9015   -1.5893   27.6508 C   0  0  0  0  0  0  0  0  0  0  0  0
    3.8787   -0.9571   28.5423 H   0  0  0  0  0  0  0  0  0  0  0  0
    4.1643   -2.6196   27.9300 H   0  0  0  0  0  0  0  0  0  0  0  0
    2.9095   -0.3816   25.1855 H   0  0  0  0  0  0  0  0  0  0  0  0
    3.3651   -2.1192   25.0709 H   0  0  0  0  0  0  0  0  0  0  0  0
    5.0031   -0.0284   26.5339 H   0  0  0  0  0  0  0  0  0  0  0  0
    6.6466   -1.9877   26.5370 H   0  0  0  0  0  0  0  0  0  0  0  0
    5.3724   -3.0068   25.8293 H   0  0  0  0  0  0  0  0  0  0  0  0
    8.0123   -2.2669   24.7073 H   0  0  0  0  0  0  0  0  0  0  0  0
    6.8339   -3.2901   23.8515 H   0  0  0  0  0  0  0  0  0  0  0  0
    8.3291   -2.3738   22.2879 H   0  0  0  0  0  0  0  0  0  0  0  0
    5.5164   -1.3188   22.1212 H   0  0  0  0  0  0  0  0  0  0  0  0
    6.3663   -2.4471   21.0405 H   0  0  0  0  0  0  0  0  0  0  0  0
    9.8469   -0.3500   22.5901 C   0  0  0  0  0  0  0  0  0  0  0  0
   10.4574   -1.2864   21.7420 C   0  0  0  0  0  0  0  0  0  0  0  0
   11.8287   -1.2861   21.5530 C   0  0  0  0  0  0  0  0  0  0  0  0
   12.4682   -2.3477   20.3117 Cl  0  0  0  0  0  0  0  0  0  0  0  0
   12.6498   -0.4202   22.2881 C   0  0  0  0  0  0  0  0  0  0  0  0
   12.0591    0.4942   23.1312 C   0  0  0  0  0  0  0  0  0  0  0  0
   10.6703    0.5959   23.2122 C   0  0  0  0  0  0  0  0  0  0  0  0
   10.0946    1.7897   23.9096 C   0  0  0  0  0  0  0  0  0  0  0  0
   10.8104    2.6978   24.3172 O   0  0  0  0  0  0  0  0  0  0  0  0
   12.6648    1.1846   23.7139 H   0  0  0  0  0  0  0  0  0  0  0  0
   13.7296   -0.4129   22.1808 H   0  0  0  0  0  0  0  0  0  0  0  0
    9.8916   -2.0130   21.1715 H   0  0  0  0  0  0  0  0  0  0  0  0
    8.1117   -0.0178   24.8583 H   0  0  0  0  0  0  0  0  0  0  0  0
    6.9041    0.8341   23.8751 H   0  0  0  0  0  0  0  0  0  0  0  0
    8.7893    3.4813   25.2253 H   0  0  0  0  0  0  0  0  0  0  0  0
    7.1631    2.8191   24.9424 H   0  0  0  0  0  0  0  0  0  0  0  0
    8.8729    4.1364   22.7717 H   0  0  0  0  0  0  0  0  0  0  0  0
    7.6971    5.0370   23.7378 H   0  0  0  0  0  0  0  0  0  0  0  0
    5.9871    3.4308   22.9384 H   0  0  0  0  0  0  0  0  0  0  0  0
    7.1418    2.7338   21.9556 H   0  0  0  0  0  0  0  0  0  0  0  0
    6.3754    5.5809   21.7496 H   0  0  0  0  0  0  0  0  0  0  0  0
    7.3445    4.6279   20.6178 H   0  0  0  0  0  0  0  0  0  0  0  0
    5.6198    4.2551   20.8284 H   0  0  0  0  0  0  0  0  0  0  0  0
  1  2  1  0
  2  3  1  0
  3  4  1  0
  4  5  1  0
  5  6  1  0
  7  6  1  1
  7  8  1  0
  8  9  2  0
  8 10  1  0
 10 11  1  0
 11 12  2  0
 12 13  1  0
 13 14  2  0
 14 15  1  0
 15 16  2  0
 16 17  1  0
 17 18  2  0
 18 19  1  0
 19 20  2  0
 19 21  1  0
 18 22  1  0
 17 23  1  0
 16 24  1  0
 14 25  1  0
 12 26  1  0
 10 27  1  0
 27 28  1  0
 28 29  1  0
 29 30  1  0
 30 31  1  0
 31 32  1  0
 32 33  1  0
 33 34  1  0
 34 35  1  0
 35 36  1  0
 35 37  1  0
 33 38  1  0
 33 39  1  0
 32 40  1  0
 31 41  1  0
 31 42  1  0
 29 43  1  0
 29 44  1  0
 28 45  1  6
 27 46  1  0
 27 47  1  0
  7 48  1  0
 48 49  2  0
 49 50  1  0
 50 51  1  0
 50 52  2  0
 52 53  1  0
 53 54  2  0
 54 55  1  0
 55 56  2  0
 53 57  1  0
 52 58  1  0
 49 59  1  0
  6 60  1  0
  6 61  1  0
  4 62  1  0
  4 63  1  0
  3 64  1  0
  3 65  1  0
  2 66  1  0
  2 67  1  0
  1 68  1  0
  1 69  1  0
  1 70  1  0
 55  5  1  0
 28  7  1  0
 35 32  1  0
 54 48  1  0
 20 11  1  0
 20 15  1  0
M  CHG  1   2   1
M  END
>  <cnnaffinities>  (25) 
[6.15061, 6.46822]

>  <score>  (25) 
6.15061

>  <index>  (25) 
24

>  <Smiles>  (25) 
C([N+](C(C(N1C([C@@]2(C(=O)N(c3c(nc(c4c(c(c(c(c34)[H])[H])[H])[H])[H])[H])C([C@@]2(C(OC(C2(C(OC2([H])[H])([H])[H])[H])([H])[H])([H])[H])[H])([H])[H])c2c(c(Cl)c(c(c2C1=O)[H])[H])[H])([H])[H])([H])[H])([H])[H])([H])[H])([H])([H])[H]

>  <h>  (25) 
<NA>

>  <Training>  (25) 
True

>  <Success>  (25) 
True

>  <enamine_searched>  (25) 
False

>  <enamine_id>  (25) 
nan

$$$$

     RDKit          3D

 68 73  0  0  0  0  0  0  0  0999 V2000
    6.5163    4.2562   21.2695 C   0  0  0  0  0  0  0  0  0  0  0  0
    7.5073    3.9059   22.2763 N   0  0  0  0  0  0  0  0  0  0  0  0
    7.0654    3.2982   23.4120 C   0  0  0  0  0  0  0  0  0  0  0  0
    5.8751    3.1202   23.6277 O   0  0  0  0  0  0  0  0  0  0  0  0
    8.1237    2.8537   24.4305 C   0  0  0  0  0  0  0  0  0  0  0  0
    8.7601    1.6125   24.0124 N   0  0  0  0  0  0  0  0  0  0  0  0
    7.9611    0.4017   23.8538 C   0  0  0  0  0  0  0  0  0  0  0  0
    8.3926   -0.4417   22.6238 C   0  0  2  0  0  0  0  0  0  0  0  0
    7.9466    0.2514   21.3099 C   0  0  0  0  0  0  0  0  0  0  0  0
    8.4580    1.2121   20.7744 O   0  0  0  0  0  0  0  0  0  0  0  0
    6.8662   -0.4282   20.8006 N   0  0  0  0  0  0  0  0  0  0  0  0
    6.1103    0.1024   19.7356 C   0  0  0  0  0  0  0  0  0  0  0  0
    6.4621   -0.1845   18.4451 C   0  0  0  0  0  0  0  0  0  0  0  0
    5.7797    0.2623   17.3680 N   0  0  0  0  0  0  0  0  0  0  0  0
    4.7355    1.0234   17.5836 C   0  0  0  0  0  0  0  0  0  0  0  0
    4.2768    1.4081   18.8748 C   0  0  0  0  0  0  0  0  0  0  0  0
    3.1689    2.2740   19.0611 C   0  0  0  0  0  0  0  0  0  0  0  0
    2.7783    2.6434   20.3197 C   0  0  0  0  0  0  0  0  0  0  0  0
    3.4748    2.1663   21.4526 C   0  0  0  0  0  0  0  0  0  0  0  0
    4.5487    1.3216   21.2982 C   0  0  0  0  0  0  0  0  0  0  0  0
    4.9783    0.9243   20.0000 C   0  0  0  0  0  0  0  0  0  0  0  0
    5.1204    1.0144   22.1697 H   0  0  0  0  0  0  0  0  0  0  0  0
    3.1900    2.4983   22.4477 H   0  0  0  0  0  0  0  0  0  0  0  0
    1.9375    3.3187   20.4539 H   0  0  0  0  0  0  0  0  0  0  0  0
    2.6578    2.6452   18.1783 H   0  0  0  0  0  0  0  0  0  0  0  0
    4.1970    1.3841   16.7074 H   0  0  0  0  0  0  0  0  0  0  0  0
    7.3353   -0.8032   18.2467 H   0  0  0  0  0  0  0  0  0  0  0  0
    6.4207   -1.5392   21.6000 C   0  0  0  0  0  0  0  0  0  0  0  0
    7.6247   -1.8008   22.5039 C   0  0  2  0  0  0  0  0  0  0  0  0
    7.2127   -2.5245   23.7774 C   0  0  0  0  0  0  0  0  0  0  0  0
    8.3831   -3.0520   24.4279 N   0  0  0  0  0  0  0  0  0  0  0  0
    8.3203   -3.5434   25.7279 C   0  0  0  0  0  0  0  0  0  0  0  0
    7.2184   -3.7298   26.5997 C   0  0  0  0  0  0  0  0  0  0  0  0
    7.6048   -4.2419   27.7653 N   0  0  0  0  0  0  0  0  0  0  0  0
    8.9288   -4.3800   27.6615 N   0  0  0  0  0  0  0  0  0  0  0  0
    9.7087   -4.8368   28.7819 C   0  0  0  0  0  0  0  0  0  0  0  0
    9.2326   -4.5064   29.7008 H   0  0  0  0  0  0  0  0  0  0  0  0
    9.7892   -5.9232   28.8122 H   0  0  0  0  0  0  0  0  0  0  0  0
   10.7156   -4.4223   28.7305 H   0  0  0  0  0  0  0  0  0  0  0  0
    9.4002   -3.9951   26.4528 C   0  0  0  0  0  0  0  0  0  0  0  0
   10.4478   -4.0763   26.1917 H   0  0  0  0  0  0  0  0  0  0  0  0
    6.1695   -3.5018   26.4441 H   0  0  0  0  0  0  0  0  0  0  0  0
    9.2412   -2.5449   24.2359 H   0  0  0  0  0  0  0  0  0  0  0  0
    6.5339   -3.3514   23.5315 H   0  0  0  0  0  0  0  0  0  0  0  0
    6.6297   -1.8401   24.4168 H   0  0  0  0  0  0  0  0  0  0  0  0
    8.2890   -2.4782   21.9623 H   0  0  0  0  0  0  0  0  0  0  0  0
    5.5165   -1.2909   22.1775 H   0  0  0  0  0  0  0  0  0  0  0  0
    6.1786   -2.4077   20.9757 H   0  0  0  0  0  0  0  0  0  0  0  0
    9.9083   -0.5434   22.6096 C   0  0  0  0  0  0  0  0  0  0  0  0
   10.5365   -1.4027   21.6983 C   0  0  0  0  0  0  0  0  0  0  0  0
   11.8913   -1.3031   21.4513 C   0  0  0  0  0  0  0  0  0  0  0  0
   12.5490   -2.2514   20.1449 Cl  0  0  0  0  0  0  0  0  0  0  0  0
   12.6948   -0.4126   22.1658 C   0  0  0  0  0  0  0  0  0  0  0  0
   12.0983    0.3875   23.1170 C   0  0  0  0  0  0  0  0  0  0  0  0
   10.7140    0.3911   23.2786 C   0  0  0  0  0  0  0  0  0  0  0  0
   10.1270    1.5522   24.0228 C   0  0  0  0  0  0  0  0  0  0  0  0
   10.8224    2.4193   24.5384 O   0  0  0  0  0  0  0  0  0  0  0  0
   12.6885    1.0669   23.7220 H   0  0  0  0  0  0  0  0  0  0  0  0
   13.7517   -0.3070   21.9488 H   0  0  0  0  0  0  0  0  0  0  0  0
    9.9847   -2.1100   21.0949 H   0  0  0  0  0  0  0  0  0  0  0  0
    8.0484   -0.2057   24.7683 H   0  0  0  0  0  0  0  0  0  0  0  0
    6.9175    0.7037   23.7352 H   0  0  0  0  0  0  0  0  0  0  0  0
    8.9309    3.5879   24.5300 H   0  0  0  0  0  0  0  0  0  0  0  0
    7.6500    2.7515   25.4204 H   0  0  0  0  0  0  0  0  0  0  0  0
    8.4399    3.6647   21.9630 H   0  0  0  0  0  0  0  0  0  0  0  0
    5.9891    3.3665   20.9054 H   0  0  0  0  0  0  0  0  0  0  0  0
    7.0036    4.7522   20.4323 H   0  0  0  0  0  0  0  0  0  0  0  0
    5.7768    4.9391   21.6970 H   0  0  0  0  0  0  0  0  0  0  0  0
  1  2  1  0
  2  3  1  0
  3  4  2  0
  3  5  1  0
  5  6  1  0
  6  7  1  0
  8  7  1  1
  8  9  1  0
  9 10  2  0
  9 11  1  0
 11 12  1  0
 12 13  2  0
 13 14  1  0
 14 15  2  0
 15 16  1  0
 16 17  2  0
 17 18  1  0
 18 19  2  0
 19 20  1  0
 20 21  2  0
 20 22  1  0
 19 23  1  0
 18 24  1  0
 17 25  1  0
 15 26  1  0
 13 27  1  0
 11 28  1  0
 28 29  1  0
 29 30  1  0
 30 31  1  0
 31 32  1  0
 32 33  1  0
 33 34  2  0
 34 35  1  0
 35 36  1  0
 36 37  1  0
 36 38  1  0
 36 39  1  0
 35 40  1  0
 40 41  1  0
 33 42  1  0
 31 43  1  0
 30 44  1  0
 30 45  1  0
 29 46  1  6
 28 47  1  0
 28 48  1  0
  8 49  1  0
 49 50  2  0
 50 51  1  0
 51 52  1  0
 51 53  2  0
 53 54  1  0
 54 55  2  0
 55 56  1  0
 56 57  2  0
 54 58  1  0
 53 59  1  0
 50 60  1  0
  7 61  1  0
  7 62  1  0
  5 63  1  0
  5 64  1  0
  2 65  1  0
  1 66  1  0
  1 67  1  0
  1 68  1  0
 56  6  1  0
 29  8  1  0
 40 32  2  0
 55 49  1  0
 21 12  1  0
 21 16  1  0
M  END
>  <cnnaffinities>  (26) 
[6.66304]

>  <score>  (26) 
6.66304

>  <index>  (26) 
25

>  <Smiles>  (26) 
C(N(C(=O)C(N1C([C@@]2(C(=O)N(c3c(nc(c4c(c(c(c(c34)[H])[H])[H])[H])[H])[H])C([C@@]2(C(N(c2c(nn(C([H])([H])[H])c2[H])[H])[H])([H])[H])[H])([H])[H])c2c(c(Cl)c(c(c2C1=O)[H])[H])[H])([H])[H])([H])[H])[H])([H])([H])[H]

>  <h>  (26) 
<NA>

>  <Training>  (26) 
True

>  <Success>  (26) 
True

>  <enamine_searched>  (26) 
False

>  <enamine_id>  (26) 
nan

$$$$

     RDKit          3D

 43 47  0  0  0  0  0  0  0  0999 V2000
    8.9725    0.4654   20.5968 O   0  0  0  0  0  0  0  0  0  0  0  0
    8.2674   -0.4109   21.0292 C   0  0  0  0  0  0  0  0  0  0  0  0
    8.6303   -1.4561   21.8318 N   0  0  0  0  0  0  0  0  0  0  0  0
    7.5111   -2.0926   22.4847 C   0  0  1  0  0  0  0  0  0  0  0  0
    7.5579   -3.6326   22.5399 C   0  0  0  0  0  0  0  0  0  0  0  0
    7.6703   -3.5860   24.0979 C   0  0  2  0  0  0  0  0  0  0  0  0
    6.6085   -4.3381   24.8369 C   0  0  0  0  0  0  0  0  0  0  0  0
    5.2583   -4.0961   24.5583 C   0  0  0  0  0  0  0  0  0  0  0  0
    4.2539   -4.7857   25.2260 C   0  0  0  0  0  0  0  0  0  0  0  0
    4.5833   -5.7402   26.1878 C   0  0  0  0  0  0  0  0  0  0  0  0
    5.9174   -6.0014   26.4746 C   0  0  0  0  0  0  0  0  0  0  0  0
    6.9105   -5.3030   25.7982 C   0  0  0  0  0  0  0  0  0  0  0  0
    8.5720   -5.6800   26.1916 Cl  0  0  0  0  0  0  0  0  0  0  0  0
    6.2076   -6.7397   27.2168 H   0  0  0  0  0  0  0  0  0  0  0  0
    3.8022   -6.2824   26.7133 H   0  0  0  0  0  0  0  0  0  0  0  0
    3.2145   -4.5748   24.9912 H   0  0  0  0  0  0  0  0  0  0  0  0
    5.0018   -3.3527   23.7996 H   0  0  0  0  0  0  0  0  0  0  0  0
    7.4914   -2.0322   24.0401 C   0  0  0  0  0  0  0  0  0  0  0  0
    8.3133   -1.4468   24.4686 H   0  0  0  0  0  0  0  0  0  0  0  0
    6.5503   -1.6600   24.4662 H   0  0  0  0  0  0  0  0  0  0  0  0
    8.6656   -3.8741   24.4501 H   0  0  0  0  0  0  0  0  0  0  0  0
    8.4226   -4.0220   22.0037 H   0  0  0  0  0  0  0  0  0  0  0  0
    6.6505   -4.1123   22.1528 H   0  0  0  0  0  0  0  0  0  0  0  0
    6.3330   -1.4927   21.7405 C   0  0  0  0  0  0  0  0  0  0  0  0
    5.1654   -1.7701   21.9011 O   0  0  0  0  0  0  0  0  0  0  0  0
    6.8610   -0.5510   20.8455 N   0  0  0  0  0  0  0  0  0  0  0  0
    6.1232    0.0560   19.7823 C   0  0  0  0  0  0  0  0  0  0  0  0
    6.4592   -0.2263   18.4803 C   0  0  0  0  0  0  0  0  0  0  0  0
    5.7826    0.2393   17.4037 N   0  0  0  0  0  0  0  0  0  0  0  0
    4.7554    1.0175   17.6156 C   0  0  0  0  0  0  0  0  0  0  0  0
    4.3096    1.4152   18.9024 C   0  0  0  0  0  0  0  0  0  0  0  0
    3.1883    2.2730   19.0635 C   0  0  0  0  0  0  0  0  0  0  0  0
    2.7833    2.6518   20.3114 C   0  0  0  0  0  0  0  0  0  0  0  0
    3.4904    2.1899   21.4452 C   0  0  0  0  0  0  0  0  0  0  0  0
    4.5770    1.3600   21.3144 C   0  0  0  0  0  0  0  0  0  0  0  0
    5.0133    0.9327   20.0297 C   0  0  0  0  0  0  0  0  0  0  0  0
    5.1058    1.0126   22.1963 H   0  0  0  0  0  0  0  0  0  0  0  0
    3.1668    2.4994   22.4326 H   0  0  0  0  0  0  0  0  0  0  0  0
    1.9297    3.3142   20.4395 H   0  0  0  0  0  0  0  0  0  0  0  0
    2.6722    2.6232   18.1738 H   0  0  0  0  0  0  0  0  0  0  0  0
    4.2233    1.3760   16.7357 H   0  0  0  0  0  0  0  0  0  0  0  0
    7.2984   -0.8786   18.2552 H   0  0  0  0  0  0  0  0  0  0  0  0
    9.5886   -1.5984   22.1098 H   0  0  0  0  0  0  0  0  0  0  0  0
  1  2  2  0
  2  3  1  0
  4  3  1  6
  4  5  1  0
  5  6  1  0
  6  7  1  0
  7  8  2  0
  8  9  1  0
  9 10  2  0
 10 11  1  0
 11 12  2  0
 12 13  1  0
 11 14  1  0
 10 15  1  0
  9 16  1  0
  8 17  1  0
  6 18  1  0
 18 19  1  0
 18 20  1  0
  6 21  1  6
  5 22  1  0
  5 23  1  0
  4 24  1  0
 24 25  2  0
 24 26  1  0
 26 27  1  0
 27 28  2  0
 28 29  1  0
 29 30  2  0
 30 31  1  0
 31 32  2  0
 32 33  1  0
 33 34  2  0
 34 35  1  0
 35 36  2  0
 35 37  1  0
 34 38  1  0
 33 39  1  0
 32 40  1  0
 30 41  1  0
 28 42  1  0
  3 43  1  0
 26  2  1  0
 36 27  1  0
 18  4  1  0
 36 31  1  0
 12  7  1  0
M  END
>  <cnnaffinities>  (27) 
[6.15992]

>  <score>  (27) 
6.15992

>  <index>  (27) 
26

>  <Smiles>  (27) 
O=C1N([C@]2(C([C@](c3c(c(c(c(c3Cl)[H])[H])[H])[H])(C2([H])[H])[H])([H])[H])C(=O)N1c1c(nc(c2c(c(c(c(c12)[H])[H])[H])[H])[H])[H])[H]

>  <h>  (27) 
<NA>

>  <Training>  (27) 
True

>  <Success>  (27) 
True

>  <enamine_searched>  (27) 
False

>  <enamine_id>  (27) 
nan

$$$$

     RDKit          3D

 46 48  0  0  0  0  0  0  0  0999 V2000
    6.8359    3.9249   21.4059 C   0  0  0  0  0  0  0  0  0  0  0  0
    7.1971    3.3958   22.7934 C   0  0  0  0  0  0  0  0  0  0  0  0
    8.4683    2.5072   22.7916 C   0  0  1  0  0  0  0  0  0  0  0  0
    9.3507    2.7107   24.0219 C   0  0  0  0  0  0  0  0  0  0  0  0
    8.9309    1.9476   25.2723 C   0  0  1  0  0  0  0  0  0  0  0  0
    7.8363    2.5980   26.0932 C   0  0  0  0  0  0  0  0  0  0  0  0
    7.7311    1.9848   27.2919 F   0  0  0  0  0  0  0  0  0  0  0  0
    6.6147    2.5415   25.5204 F   0  0  0  0  0  0  0  0  0  0  0  0
    8.1188    3.8952   26.3320 F   0  0  0  0  0  0  0  0  0  0  0  0
    8.6457    0.4925   24.9300 C   0  0  0  0  0  0  0  0  0  0  0  0
    7.6896    0.3288   23.7472 C   0  0  0  0  0  0  0  0  0  0  0  0
    8.1646    1.0838   22.6005 N   0  0  0  0  0  0  0  0  0  0  0  0
    8.0457    0.6534   21.2970 C   0  0  0  0  0  0  0  0  0  0  0  0
    8.7503    1.1170   20.4177 O   0  0  0  0  0  0  0  0  0  0  0  0
    6.9786   -0.3981   20.9177 C   0  0  0  0  0  0  0  0  0  0  0  0
    6.1153    0.0944   19.7750 C   0  0  0  0  0  0  0  0  0  0  0  0
    6.4302   -0.2086   18.4705 C   0  0  0  0  0  0  0  0  0  0  0  0
    5.7614    0.2443   17.3805 N   0  0  0  0  0  0  0  0  0  0  0  0
    4.7352    1.0287   17.5820 C   0  0  0  0  0  0  0  0  0  0  0  0
    4.2827    1.4262   18.8693 C   0  0  0  0  0  0  0  0  0  0  0  0
    3.1744    2.2916   19.0474 C   0  0  0  0  0  0  0  0  0  0  0  0
    2.7727    2.6653   20.3006 C   0  0  0  0  0  0  0  0  0  0  0  0
    3.4680    2.1874   21.4346 C   0  0  0  0  0  0  0  0  0  0  0  0
    4.5474    1.3465   21.2856 C   0  0  0  0  0  0  0  0  0  0  0  0
    4.9900    0.9411   20.0007 C   0  0  0  0  0  0  0  0  0  0  0  0
    5.0664    0.9927   22.1730 H   0  0  0  0  0  0  0  0  0  0  0  0
    3.1478    2.4850   22.4275 H   0  0  0  0  0  0  0  0  0  0  0  0
    1.9261    3.3324   20.4314 H   0  0  0  0  0  0  0  0  0  0  0  0
    2.6606    2.6530   18.1603 H   0  0  0  0  0  0  0  0  0  0  0  0
    4.2062    1.3905   16.6980 H   0  0  0  0  0  0  0  0  0  0  0  0
    7.2778   -0.8510   18.2381 H   0  0  0  0  0  0  0  0  0  0  0  0
    7.5269   -1.2804   20.5698 H   0  0  0  0  0  0  0  0  0  0  0  0
    6.3627   -0.7042   21.7717 H   0  0  0  0  0  0  0  0  0  0  0  0
    6.6723    0.6299   24.0367 H   0  0  0  0  0  0  0  0  0  0  0  0
    7.6740   -0.7213   23.4533 H   0  0  0  0  0  0  0  0  0  0  0  0
    8.2466   -0.0269   25.8047 H   0  0  0  0  0  0  0  0  0  0  0  0
    9.5981    0.0185   24.6626 H   0  0  0  0  0  0  0  0  0  0  0  0
    9.7738    1.9779   25.9618 H   0  0  0  0  0  0  0  0  0  0  0  0
    9.4087    3.7783   24.2503 H   0  0  0  0  0  0  0  0  0  0  0  0
   10.3621    2.3775   23.7594 H   0  0  0  0  0  0  0  0  0  0  0  0
    9.0721    2.7713   21.9195 H   0  0  0  0  0  0  0  0  0  0  0  0
    6.3549    2.8239   23.2030 H   0  0  0  0  0  0  0  0  0  0  0  0
    7.3739    4.2388   23.4775 H   0  0  0  0  0  0  0  0  0  0  0  0
    7.5778    4.6521   21.0829 H   0  0  0  0  0  0  0  0  0  0  0  0
    6.7952    3.1039   20.6814 H   0  0  0  0  0  0  0  0  0  0  0  0
    5.8773    4.4523   21.3879 H   0  0  0  0  0  0  0  0  0  0  0  0
  1  2  1  0
  2  3  1  0
  3  4  1  0
  4  5  1  0
  5  6  1  0
  6  7  1  0
  6  8  1  0
  6  9  1  0
  5 10  1  0
 10 11  1  0
 11 12  1  0
 12 13  1  0
 13 14  2  0
 13 15  1  0
 15 16  1  0
 16 17  2  0
 17 18  1  0
 18 19  2  0
 19 20  1  0
 20 21  2  0
 21 22  1  0
 22 23  2  0
 23 24  1  0
 24 25  2  0
 24 26  1  0
 23 27  1  0
 22 28  1  0
 21 29  1  0
 19 30  1  0
 17 31  1  0
 15 32  1  0
 15 33  1  0
 11 34  1  0
 11 35  1  0
 10 36  1  0
 10 37  1  0
  5 38  1  1
  4 39  1  0
  4 40  1  0
  3 41  1  6
  2 42  1  0
  2 43  1  0
  1 44  1  0
  1 45  1  0
  1 46  1  0
 12  3  1  0
 25 16  1  0
 25 20  1  0
M  END
>  <cnnaffinities>  (28) 
[5.77799, 5.77796, 5.78763, 5.78764, 5.78748, 5.78891]

>  <score>  (28) 
5.77799

>  <index>  (28) 
27

>  <Smiles>  (28) 
C(C([C@]1(C([C@@](C(F)(F)F)(C(C(N1C(=O)C(c1c(nc(c2c(c(c(c(c12)[H])[H])[H])[H])[H])[H])([H])[H])([H])[H])([H])[H])[H])([H])[H])[H])([H])[H])([H])([H])[H]

>  <h>  (28) 
<NA>

>  <Training>  (28) 
True

>  <Success>  (28) 
True

>  <enamine_searched>  (28) 
False

>  <enamine_id>  (28) 
nan

$$$$

     RDKit          3D

 70 75  0  0  0  0  0  0  0  0999 V2000
    6.4736    4.5874   21.4720 C   0  0  0  0  0  0  0  0  0  0  0  0
    6.8300    3.5745   22.4734 N   0  0  0  0  0  4  0  0  0  0  0  0
    7.8423    4.0100   23.4631 C   0  0  0  0  0  0  0  0  0  0  0  0
    8.0693    2.9601   24.5537 C   0  0  0  0  0  0  0  0  0  0  0  0
    8.7040    1.7449   24.0575 N   0  0  0  0  0  0  0  0  0  0  0  0
    7.9518    0.5045   23.9566 C   0  0  0  0  0  0  0  0  0  0  0  0
    8.3400   -0.3081   22.6941 C   0  0  2  0  0  0  0  0  0  0  0  0
    7.7482    0.4054   21.4659 C   0  0  0  0  0  0  0  0  0  0  0  0
    7.9357    1.5712   21.1383 O   0  0  0  0  0  0  0  0  0  0  0  0
    6.8883   -0.4320   20.8179 N   0  0  0  0  0  0  0  0  0  0  0  0
    6.1085    0.0977   19.7575 C   0  0  0  0  0  0  0  0  0  0  0  0
    6.4563   -0.1953   18.4660 C   0  0  0  0  0  0  0  0  0  0  0  0
    5.7749    0.2504   17.3886 N   0  0  0  0  0  0  0  0  0  0  0  0
    4.7440    1.0274   17.6080 C   0  0  0  0  0  0  0  0  0  0  0  0
    4.3103    1.4417   18.8997 C   0  0  0  0  0  0  0  0  0  0  0  0
    3.2015    2.3104   19.0753 C   0  0  0  0  0  0  0  0  0  0  0  0
    2.8080    2.6923   20.3290 C   0  0  0  0  0  0  0  0  0  0  0  0
    3.5032    2.2248   21.4648 C   0  0  0  0  0  0  0  0  0  0  0  0
    4.5830    1.3839   21.3212 C   0  0  0  0  0  0  0  0  0  0  0  0
    5.0163    0.9703   20.0250 C   0  0  0  0  0  0  0  0  0  0  0  0
    5.0974    1.0194   22.2080 H   0  0  0  0  0  0  0  0  0  0  0  0
    3.1809    2.5349   22.4558 H   0  0  0  0  0  0  0  0  0  0  0  0
    1.9571    3.3545   20.4555 H   0  0  0  0  0  0  0  0  0  0  0  0
    2.6822    2.6560   18.1875 H   0  0  0  0  0  0  0  0  0  0  0  0
    4.1974    1.3774   16.7336 H   0  0  0  0  0  0  0  0  0  0  0  0
    7.3263   -0.8193   18.2729 H   0  0  0  0  0  0  0  0  0  0  0  0
    6.4618   -1.5479   21.6487 C   0  0  0  0  0  0  0  0  0  0  0  0
    7.6472   -1.7025   22.6090 C   0  0  2  0  0  0  0  0  0  0  0  0
    7.2741   -2.3851   23.9133 C   0  0  0  0  0  0  0  0  0  0  0  0
    6.1234   -1.7492   24.4554 O   0  0  0  0  0  0  0  0  0  0  0  0
    5.7410   -2.2187   25.7252 C   0  0  0  0  0  0  0  0  0  0  0  0
    6.3431   -1.3627   26.8117 C   0  0  0  0  0  0  0  0  0  0  0  0
    7.7249   -1.5272   26.7631 F   0  0  0  0  0  0  0  0  0  0  0  0
    5.7961   -1.4586   28.2329 C   0  0  0  0  0  0  0  0  0  0  0  0
    5.3374   -0.0975   28.1896 O   0  0  0  0  0  0  0  0  0  0  0  0
    5.9397    0.1107   26.9046 C   0  0  0  0  0  0  0  0  0  0  0  0
    5.2298    0.4884   26.1593 H   0  0  0  0  0  0  0  0  0  0  0  0
    6.8169    0.7670   26.9558 H   0  0  0  0  0  0  0  0  0  0  0  0
    6.5940   -1.6141   28.9702 H   0  0  0  0  0  0  0  0  0  0  0  0
    4.9791   -2.1657   28.4131 H   0  0  0  0  0  0  0  0  0  0  0  0
    4.6478   -2.1660   25.7795 H   0  0  0  0  0  0  0  0  0  0  0  0
    6.0525   -3.2653   25.8652 H   0  0  0  0  0  0  0  0  0  0  0  0
    7.0580   -3.4490   23.7248 H   0  0  0  0  0  0  0  0  0  0  0  0
    8.1143   -2.3366   24.6169 H   0  0  0  0  0  0  0  0  0  0  0  0
    8.3611   -2.3632   22.1181 H   0  0  0  0  0  0  0  0  0  0  0  0
    5.5365   -1.3187   22.1923 H   0  0  0  0  0  0  0  0  0  0  0  0
    6.2929   -2.4424   21.0417 H   0  0  0  0  0  0  0  0  0  0  0  0
    9.8519   -0.3660   22.5663 C   0  0  0  0  0  0  0  0  0  0  0  0
   10.4623   -1.2816   21.6992 C   0  0  0  0  0  0  0  0  0  0  0  0
   11.8271   -1.2583   21.5093 C   0  0  0  0  0  0  0  0  0  0  0  0
   12.4712   -2.2985   20.2644 Cl  0  0  0  0  0  0  0  0  0  0  0  0
   12.6415   -0.3804   22.2307 C   0  0  0  0  0  0  0  0  0  0  0  0
   12.0481    0.5278   23.0825 C   0  0  0  0  0  0  0  0  0  0  0  0
   10.6603    0.5858   23.1952 C   0  0  0  0  0  0  0  0  0  0  0  0
   10.0642    1.7567   23.9223 C   0  0  0  0  0  0  0  0  0  0  0  0
   10.7579    2.6777   24.3414 O   0  0  0  0  0  0  0  0  0  0  0  0
   12.6502    1.2319   23.6475 H   0  0  0  0  0  0  0  0  0  0  0  0
   13.7132   -0.3627   22.0936 H   0  0  0  0  0  0  0  0  0  0  0  0
    9.8979   -2.0013   21.1191 H   0  0  0  0  0  0  0  0  0  0  0  0
    6.8906    0.7541   23.8807 H   0  0  0  0  0  0  0  0  0  0  0  0
    8.1022   -0.1022   24.8613 H   0  0  0  0  0  0  0  0  0  0  0  0
    8.7243    3.3728   25.3250 H   0  0  0  0  0  0  0  0  0  0  0  0
    7.1165    2.6846   25.0251 H   0  0  0  0  0  0  0  0  0  0  0  0
    7.5273    4.9529   23.9288 H   0  0  0  0  0  0  0  0  0  0  0  0
    8.7962    4.1947   22.9578 H   0  0  0  0  0  0  0  0  0  0  0  0
    7.1819    2.7338   21.9775 H   0  0  0  0  0  0  0  0  0  0  0  0
    5.9573    3.3097   22.9664 H   0  0  0  0  0  0  0  0  0  0  0  0
    7.3098    4.7622   20.7904 H   0  0  0  0  0  0  0  0  0  0  0  0
    5.6070    4.2430   20.8985 H   0  0  0  0  0  0  0  0  0  0  0  0
    6.2258    5.5428   21.9488 H   0  0  0  0  0  0  0  0  0  0  0  0
  1  2  1  0
  2  3  1  0
  3  4  1  0
  4  5  1  0
  5  6  1  0
  7  6  1  1
  7  8  1  0
  8  9  2  0
  8 10  1  0
 10 11  1  0
 11 12  2  0
 12 13  1  0
 13 14  2  0
 14 15  1  0
 15 16  2  0
 16 17  1  0
 17 18  2  0
 18 19  1  0
 19 20  2  0
 19 21  1  0
 18 22  1  0
 17 23  1  0
 16 24  1  0
 14 25  1  0
 12 26  1  0
 10 27  1  0
 27 28  1  0
 28 29  1  0
 29 30  1  0
 30 31  1  0
 31 32  1  0
 32 33  1  0
 32 34  1  0
 34 35  1  0
 35 36  1  0
 36 37  1  0
 36 38  1  0
 34 39  1  0
 34 40  1  0
 31 41  1  0
 31 42  1  0
 29 43  1  0
 29 44  1  0
 28 45  1  6
 27 46  1  0
 27 47  1  0
  7 48  1  0
 48 49  2  0
 49 50  1  0
 50 51  1  0
 50 52  2  0
 52 53  1  0
 53 54  2  0
 54 55  1  0
 55 56  2  0
 53 57  1  0
 52 58  1  0
 49 59  1  0
  6 60  1  0
  6 61  1  0
  4 62  1  0
  4 63  1  0
  3 64  1  0
  3 65  1  0
  2 66  1  0
  2 67  1  0
  1 68  1  0
  1 69  1  0
  1 70  1  0
 55  5  1  0
 28  7  1  0
 36 32  1  0
 54 48  1  0
 20 11  1  0
 20 15  1  0
M  CHG  1   2   1
M  END
>  <cnnaffinities>  (29) 
[6.47845]

>  <score>  (29) 
6.47845

>  <index>  (29) 
28

>  <Smiles>  (29) 
C([N+](C(C(N1C([C@@]2(C(=O)N(c3c(nc(c4c(c(c(c(c34)[H])[H])[H])[H])[H])[H])C([C@@]2(C(OC(C2(F)C(OC2([H])[H])([H])[H])([H])[H])([H])[H])[H])([H])[H])c2c(c(Cl)c(c(c2C1=O)[H])[H])[H])([H])[H])([H])[H])([H])[H])([H])[H])([H])([H])[H]

>  <h>  (29) 
<NA>

>  <Training>  (29) 
True

>  <Success>  (29) 
True

>  <enamine_searched>  (29) 
False

>  <enamine_id>  (29) 
nan

$$$$

     RDKit          3D

 67 72  0  0  0  0  0  0  0  0999 V2000
    6.4655    4.6299   21.6720 C   0  0  0  0  0  0  0  0  0  0  0  0
    6.8480    3.6830   22.7234 N   0  0  0  0  0  4  0  0  0  0  0  0
    8.0938    4.0216   23.4516 C   0  0  0  0  0  0  0  0  0  0  0  0
    8.3867    3.0162   24.5712 C   0  0  0  0  0  0  0  0  0  0  0  0
    8.9423    1.7630   24.0823 N   0  0  0  0  0  0  0  0  0  0  0  0
    8.1494    0.5496   24.0022 C   0  0  0  0  0  0  0  0  0  0  0  0
    8.4127   -0.2585   22.7039 C   0  0  2  0  0  0  0  0  0  0  0  0
    7.7308    0.4713   21.5369 C   0  0  0  0  0  0  0  0  0  0  0  0
    7.7904    1.6746   21.3031 O   0  0  0  0  0  0  0  0  0  0  0  0
    6.9450   -0.3897   20.8349 N   0  0  0  0  0  0  0  0  0  0  0  0
    6.1315    0.1075   19.7776 C   0  0  0  0  0  0  0  0  0  0  0  0
    6.4473   -0.2204   18.4858 C   0  0  0  0  0  0  0  0  0  0  0  0
    5.7676    0.2198   17.4028 N   0  0  0  0  0  0  0  0  0  0  0  0
    4.7456    1.0124   17.6106 C   0  0  0  0  0  0  0  0  0  0  0  0
    4.3115    1.4316   18.8997 C   0  0  0  0  0  0  0  0  0  0  0  0
    3.1984    2.2954   19.0685 C   0  0  0  0  0  0  0  0  0  0  0  0
    2.7911    2.6648   20.3217 C   0  0  0  0  0  0  0  0  0  0  0  0
    3.4697    2.1844   21.4611 C   0  0  0  0  0  0  0  0  0  0  0  0
    4.5519    1.3504   21.3211 C   0  0  0  0  0  0  0  0  0  0  0  0
    5.0150    0.9599   20.0305 C   0  0  0  0  0  0  0  0  0  0  0  0
    5.0527    0.9741   22.2088 H   0  0  0  0  0  0  0  0  0  0  0  0
    3.1323    2.4761   22.4516 H   0  0  0  0  0  0  0  0  0  0  0  0
    1.9345    3.3184   20.4472 H   0  0  0  0  0  0  0  0  0  0  0  0
    2.6794    2.6452   18.1808 H   0  0  0  0  0  0  0  0  0  0  0  0
    4.2025    1.3651   16.7330 H   0  0  0  0  0  0  0  0  0  0  0  0
    7.3038   -0.8612   18.2872 H   0  0  0  0  0  0  0  0  0  0  0  0
    6.6633   -1.6229   21.5477 C   0  0  0  0  0  0  0  0  0  0  0  0
    7.7104   -1.6592   22.6773 C   0  0  2  0  0  0  0  0  0  0  0  0
    7.1666   -2.2202   23.9970 C   0  0  0  0  0  0  0  0  0  0  0  0
    6.0404   -1.4920   24.5522 N   0  0  0  0  0  0  0  0  0  0  0  0
    5.4979   -1.8157   25.7460 C   0  0  0  0  0  0  0  0  0  0  0  0
    6.0670   -2.8017   26.4666 N   0  0  0  0  0  0  0  0  0  0  0  0
    5.4677   -3.0382   27.6288 C   0  0  0  0  0  0  0  0  0  0  0  0
    4.4048   -2.4007   28.1188 N   0  0  0  0  0  0  0  0  0  0  0  0
    3.9380   -1.4445   27.3101 C   0  0  0  0  0  0  0  0  0  0  0  0
    4.4140   -1.1063   26.1258 N   0  0  0  0  0  0  0  0  0  0  0  0
    3.0699   -0.8879   27.6723 H   0  0  0  0  0  0  0  0  0  0  0  0
    5.8918   -3.8376   28.2433 H   0  0  0  0  0  0  0  0  0  0  0  0
    5.5021   -0.8588   23.9826 H   0  0  0  0  0  0  0  0  0  0  0  0
    7.9617   -2.2157   24.7525 H   0  0  0  0  0  0  0  0  0  0  0  0
    6.8777   -3.2683   23.8503 H   0  0  0  0  0  0  0  0  0  0  0  0
    8.4788   -2.3803   22.3932 H   0  0  0  0  0  0  0  0  0  0  0  0
    6.7529   -2.4779   20.8732 H   0  0  0  0  0  0  0  0  0  0  0  0
    5.6377   -1.6288   21.9412 H   0  0  0  0  0  0  0  0  0  0  0  0
    9.9211   -0.3314   22.4682 C   0  0  0  0  0  0  0  0  0  0  0  0
   10.4787   -1.2794   21.5967 C   0  0  0  0  0  0  0  0  0  0  0  0
   11.8366   -1.2826   21.3356 C   0  0  0  0  0  0  0  0  0  0  0  0
   12.4874   -2.4450   20.2137 Cl  0  0  0  0  0  0  0  0  0  0  0  0
   12.6944   -0.3488   21.9216 C   0  0  0  0  0  0  0  0  0  0  0  0
   12.1624    0.5647   22.8006 C   0  0  0  0  0  0  0  0  0  0  0  0
   10.7909    0.6018   23.0414 C   0  0  0  0  0  0  0  0  0  0  0  0
   10.2833    1.7494   23.8459 C   0  0  0  0  0  0  0  0  0  0  0  0
   11.0272    2.6427   24.2387 O   0  0  0  0  0  0  0  0  0  0  0  0
   12.7910    1.2933   23.2995 H   0  0  0  0  0  0  0  0  0  0  0  0
   13.7487   -0.2953   21.6685 H   0  0  0  0  0  0  0  0  0  0  0  0
    9.8620   -2.0001   21.0755 H   0  0  0  0  0  0  0  0  0  0  0  0
    8.3489   -0.0935   24.8687 H   0  0  0  0  0  0  0  0  0  0  0  0
    7.0990    0.8335   24.0353 H   0  0  0  0  0  0  0  0  0  0  0  0
    7.4793    2.7918   25.1427 H   0  0  0  0  0  0  0  0  0  0  0  0
    9.1332    3.4344   25.2508 H   0  0  0  0  0  0  0  0  0  0  0  0
    8.0227    5.0257   23.8871 H   0  0  0  0  0  0  0  0  0  0  0  0
    8.9338    4.0243   22.7445 H   0  0  0  0  0  0  0  0  0  0  0  0
    6.9931    2.7617   22.2652 H   0  0  0  0  0  0  0  0  0  0  0  0
    6.0721    3.6043   23.4069 H   0  0  0  0  0  0  0  0  0  0  0  0
    5.4770    4.3603   21.2895 H   0  0  0  0  0  0  0  0  0  0  0  0
    7.1859    4.5869   20.8497 H   0  0  0  0  0  0  0  0  0  0  0  0
    6.4468    5.6572   22.0492 H   0  0  0  0  0  0  0  0  0  0  0  0
  1  2  1  0
  2  3  1  0
  3  4  1  0
  4  5  1  0
  5  6  1  0
  7  6  1  1
  7  8  1  0
  8  9  2  0
  8 10  1  0
 10 11  1  0
 11 12  2  0
 12 13  1  0
 13 14  2  0
 14 15  1  0
 15 16  2  0
 16 17  1  0
 17 18  2  0
 18 19  1  0
 19 20  2  0
 19 21  1  0
 18 22  1  0
 17 23  1  0
 16 24  1  0
 14 25  1  0
 12 26  1  0
 10 27  1  0
 27 28  1  0
 28 29  1  0
 29 30  1  0
 30 31  1  0
 31 32  2  0
 32 33  1  0
 33 34  2  0
 34 35  1  0
 35 36  2  0
 35 37  1  0
 33 38  1  0
 30 39  1  0
 29 40  1  0
 29 41  1  0
 28 42  1  6
 27 43  1  0
 27 44  1  0
  7 45  1  0
 45 46  2  0
 46 47  1  0
 47 48  1  0
 47 49  2  0
 49 50  1  0
 50 51  2  0
 51 52  1  0
 52 53  2  0
 50 54  1  0
 49 55  1  0
 46 56  1  0
  6 57  1  0
  6 58  1  0
  4 59  1  0
  4 60  1  0
  3 61  1  0
  3 62  1  0
  2 63  1  0
  2 64  1  0
  1 65  1  0
  1 66  1  0
  1 67  1  0
 52  5  1  0
 28  7  1  0
 36 31  1  0
 51 45  1  0
 20 11  1  0
 20 15  1  0
M  CHG  1   2   1
M  END
>  <cnnaffinities>  (30) 
[6.72721]

>  <score>  (30) 
6.72721

>  <index>  (30) 
29

>  <Smiles>  (30) 
C([N+](C(C(N1C([C@@]2(C(=O)N(c3c(nc(c4c(c(c(c(c34)[H])[H])[H])[H])[H])[H])C([C@@]2(C(N(c2nc(nc(n2)[H])[H])[H])([H])[H])[H])([H])[H])c2c(c(Cl)c(c(c2C1=O)[H])[H])[H])([H])[H])([H])[H])([H])[H])([H])[H])([H])([H])[H]

>  <h>  (30) 
<NA>

>  <Training>  (30) 
True

>  <Success>  (30) 
True

>  <enamine_searched>  (30) 
False

>  <enamine_id>  (30) 
nan

$$$$

     RDKit          3D

 66 71  0  0  0  0  0  0  0  0999 V2000
    6.6976    4.2063   21.0527 C   0  0  0  0  0  0  0  0  0  0  0  0
    6.8206    3.7456   22.4202 N   0  0  0  0  0  0  0  0  0  0  0  0
    8.0344    3.7376   23.0290 C   0  0  0  0  0  0  0  0  0  0  0  0
    9.0308    4.2384   22.5377 O   0  0  0  0  0  0  0  0  0  0  0  0
    8.1248    3.0128   24.3669 C   0  0  0  0  0  0  0  0  0  0  0  0
    8.7222    1.7104   24.1416 N   0  0  0  0  0  0  0  0  0  0  0  0
    7.8769    0.5741   23.8503 C   0  0  0  0  0  0  0  0  0  0  0  0
    8.3172   -0.2575   22.6180 C   0  0  2  0  0  0  0  0  0  0  0  0
    7.8789    0.3858   21.2810 C   0  0  0  0  0  0  0  0  0  0  0  0
    8.3366    1.3791   20.7576 O   0  0  0  0  0  0  0  0  0  0  0  0
    6.8718   -0.3756   20.7305 N   0  0  0  0  0  0  0  0  0  0  0  0
    6.0964    0.1457   19.6665 C   0  0  0  0  0  0  0  0  0  0  0  0
    6.4170   -0.1400   18.3657 C   0  0  0  0  0  0  0  0  0  0  0  0
    5.7182    0.3147   17.2995 N   0  0  0  0  0  0  0  0  0  0  0  0
    4.6851    1.0864   17.5310 C   0  0  0  0  0  0  0  0  0  0  0  0
    4.2604    1.4805   18.8326 C   0  0  0  0  0  0  0  0  0  0  0  0
    3.1511    2.3445   19.0439 C   0  0  0  0  0  0  0  0  0  0  0  0
    2.7832    2.7090   20.3121 C   0  0  0  0  0  0  0  0  0  0  0  0
    3.4992    2.2281   21.4297 C   0  0  0  0  0  0  0  0  0  0  0  0
    4.5720    1.3904   21.2470 C   0  0  0  0  0  0  0  0  0  0  0  0
    4.9831    0.9931   19.9421 C   0  0  0  0  0  0  0  0  0  0  0  0
    5.1236    1.0356   22.1117 H   0  0  0  0  0  0  0  0  0  0  0  0
    3.2049    2.5256   22.4341 H   0  0  0  0  0  0  0  0  0  0  0  0
    1.9461    3.3828   20.4680 H   0  0  0  0  0  0  0  0  0  0  0  0
    2.6105    2.7126   18.1764 H   0  0  0  0  0  0  0  0  0  0  0  0
    4.1273    1.4474   16.6656 H   0  0  0  0  0  0  0  0  0  0  0  0
    7.2783   -0.7682   18.1475 H   0  0  0  0  0  0  0  0  0  0  0  0
    6.3925   -1.4234   21.6000 C   0  0  0  0  0  0  0  0  0  0  0  0
    7.5459   -1.6086   22.5911 C   0  0  2  0  0  0  0  0  0  0  0  0
    7.0781   -2.1269   23.9581 C   0  0  0  0  0  0  0  0  0  0  0  0
    6.5120   -3.5060   23.8847 C   0  0  0  0  0  0  0  0  0  0  0  0
    5.1626   -3.7285   23.6359 C   0  0  0  0  0  0  0  0  0  0  0  0
    4.6411   -5.0178   23.5885 C   0  0  0  0  0  0  0  0  0  0  0  0
    5.4989   -6.1101   23.7048 C   0  0  0  0  0  0  0  0  0  0  0  0
    6.8560   -5.8795   23.9203 C   0  0  0  0  0  0  0  0  0  0  0  0
    7.3522   -4.5967   24.0255 C   0  0  0  0  0  0  0  0  0  0  0  0
    8.4116   -4.4566   24.2310 H   0  0  0  0  0  0  0  0  0  0  0  0
    7.5919   -6.6551   24.0327 H   0  0  0  0  0  0  0  0  0  0  0  0
    5.0972   -7.1196   23.6646 H   0  0  0  0  0  0  0  0  0  0  0  0
    3.5714   -5.1611   23.4431 H   0  0  0  0  0  0  0  0  0  0  0  0
    4.5375   -2.8614   23.4743 H   0  0  0  0  0  0  0  0  0  0  0  0
    6.3223   -1.4530   24.3842 H   0  0  0  0  0  0  0  0  0  0  0  0
    7.9427   -2.1614   24.6325 H   0  0  0  0  0  0  0  0  0  0  0  0
    8.2229   -2.3619   22.1775 H   0  0  0  0  0  0  0  0  0  0  0  0
    6.1672   -2.3365   21.0413 H   0  0  0  0  0  0  0  0  0  0  0  0
    5.4617   -1.1367   22.1093 H   0  0  0  0  0  0  0  0  0  0  0  0
    9.8241   -0.3814   22.6254 C   0  0  0  0  0  0  0  0  0  0  0  0
   10.4306   -1.2480   21.7093 C   0  0  0  0  0  0  0  0  0  0  0  0
   11.8036   -1.2826   21.5729 C   0  0  0  0  0  0  0  0  0  0  0  0
   12.4432   -2.3641   20.3613 Cl  0  0  0  0  0  0  0  0  0  0  0  0
   12.6225   -0.4604   22.3528 C   0  0  0  0  0  0  0  0  0  0  0  0
   12.0321    0.3532   23.3024 C   0  0  0  0  0  0  0  0  0  0  0  0
   10.6432    0.4449   23.4032 C   0  0  0  0  0  0  0  0  0  0  0  0
   10.0824    1.5662   24.2284 C   0  0  0  0  0  0  0  0  0  0  0  0
   10.7938    2.3233   24.8741 O   0  0  0  0  0  0  0  0  0  0  0  0
   12.6407    0.9583   23.9675 H   0  0  0  0  0  0  0  0  0  0  0  0
   13.6949   -0.4204   22.1810 H   0  0  0  0  0  0  0  0  0  0  0  0
    9.8386   -1.8798   21.0572 H   0  0  0  0  0  0  0  0  0  0  0  0
    6.8469    0.9164   23.7007 H   0  0  0  0  0  0  0  0  0  0  0  0
    7.8963   -0.0861   24.7239 H   0  0  0  0  0  0  0  0  0  0  0  0
    8.7880    3.5621   25.0398 H   0  0  0  0  0  0  0  0  0  0  0  0
    7.1433    2.8980   24.8357 H   0  0  0  0  0  0  0  0  0  0  0  0
    6.0417    3.2470   22.8131 H   0  0  0  0  0  0  0  0  0  0  0  0
    7.5042    3.7627   20.4697 H   0  0  0  0  0  0  0  0  0  0  0  0
    6.7593    5.2955   20.9925 H   0  0  0  0  0  0  0  0  0  0  0  0
    5.7398    3.8728   20.6435 H   0  0  0  0  0  0  0  0  0  0  0  0
  1  2  1  0
  2  3  1  0
  3  4  2  0
  3  5  1  0
  5  6  1  0
  6  7  1  0
  8  7  1  1
  8  9  1  0
  9 10  2  0
  9 11  1  0
 11 12  1  0
 12 13  2  0
 13 14  1  0
 14 15  2  0
 15 16  1  0
 16 17  2  0
 17 18  1  0
 18 19  2  0
 19 20  1  0
 20 21  2  0
 20 22  1  0
 19 23  1  0
 18 24  1  0
 17 25  1  0
 15 26  1  0
 13 27  1  0
 11 28  1  0
 28 29  1  0
 29 30  1  0
 30 31  1  0
 31 32  2  0
 32 33  1  0
 33 34  2  0
 34 35  1  0
 35 36  2  0
 36 37  1  0
 35 38  1  0
 34 39  1  0
 33 40  1  0
 32 41  1  0
 30 42  1  0
 30 43  1  0
 29 44  1  6
 28 45  1  0
 28 46  1  0
  8 47  1  0
 47 48  2  0
 48 49  1  0
 49 50  1  0
 49 51  2  0
 51 52  1  0
 52 53  2  0
 53 54  1  0
 54 55  2  0
 52 56  1  0
 51 57  1  0
 48 58  1  0
  7 59  1  0
  7 60  1  0
  5 61  1  0
  5 62  1  0
  2 63  1  0
  1 64  1  0
  1 65  1  0
  1 66  1  0
 54  6  1  0
 29  8  1  0
 36 31  1  0
 53 47  1  0
 21 12  1  0
 21 16  1  0
M  END
>  <cnnaffinities>  (31) 
[6.46758, 6.84414, 6.87088, 7.04367]

>  <score>  (31) 
6.46758

>  <index>  (31) 
30

>  <Smiles>  (31) 
C(N(C(=O)C(N1C([C@@]2(C(=O)N(c3c(nc(c4c(c(c(c(c34)[H])[H])[H])[H])[H])[H])C([C@@]2(C(c2c(c(c(c(c2[H])[H])[H])[H])[H])([H])[H])[H])([H])[H])c2c(c(Cl)c(c(c2C1=O)[H])[H])[H])([H])[H])([H])[H])[H])([H])([H])[H]

>  <h>  (31) 
<NA>

>  <Training>  (31) 
True

>  <Success>  (31) 
True

>  <enamine_searched>  (31) 
False

>  <enamine_id>  (31) 
nan

$$$$

     RDKit          3D

 64 70  0  0  0  0  0  0  0  0999 V2000
   10.5151    2.4724   24.7156 O   0  0  0  0  0  0  0  0  0  0  0  0
    9.8701    1.6005   24.1526 C   0  0  0  0  0  0  0  0  0  0  0  0
   10.5312    0.4859   23.3778 C   0  0  0  0  0  0  0  0  0  0  0  0
   11.9219    0.4755   23.2775 C   0  0  0  0  0  0  0  0  0  0  0  0
   12.5663   -0.3528   22.3794 C   0  0  0  0  0  0  0  0  0  0  0  0
   11.7957   -1.1864   21.5649 C   0  0  0  0  0  0  0  0  0  0  0  0
   12.5144   -2.0911   20.2570 Cl  0  0  0  0  0  0  0  0  0  0  0  0
   10.4275   -1.2545   21.7227 C   0  0  0  0  0  0  0  0  0  0  0  0
    9.7746   -0.4409   22.6589 C   0  0  0  0  0  0  0  0  0  0  0  0
    8.2614   -0.4162   22.6930 C   0  0  1  0  0  0  0  0  0  0  0  0
    7.7760    0.3431   23.9555 C   0  0  0  0  0  0  0  0  0  0  0  0
    8.4934    1.5978   24.1350 N   0  0  0  0  0  0  0  0  0  0  0  0
    7.7860    2.8301   24.4507 C   0  0  0  0  0  0  0  0  0  0  0  0
    7.5478    3.7237   23.2714 C   0  0  0  0  0  0  0  0  0  0  0  0
    7.9749    4.9185   23.0267 N   0  0  0  0  0  0  0  0  0  0  0  0
    7.3277    5.3342   21.8666 N   0  0  0  0  0  0  0  0  0  0  0  0
    6.5566    4.3639   21.5220 C   0  0  0  0  0  0  0  0  0  0  0  0
    6.6379    3.3052   22.3630 O   0  0  0  0  0  0  0  0  0  0  0  0
    5.8742    4.3105   20.6846 H   0  0  0  0  0  0  0  0  0  0  0  0
    8.3629    3.3783   25.1994 H   0  0  0  0  0  0  0  0  0  0  0  0
    6.7996    2.5872   24.8660 H   0  0  0  0  0  0  0  0  0  0  0  0
    7.9274   -0.2861   24.8451 H   0  0  0  0  0  0  0  0  0  0  0  0
    6.7073    0.5726   23.8608 H   0  0  0  0  0  0  0  0  0  0  0  0
    7.7805    0.3167   21.4252 C   0  0  0  0  0  0  0  0  0  0  0  0
    8.1943    1.3596   20.9719 O   0  0  0  0  0  0  0  0  0  0  0  0
    6.7941   -0.4439   20.8406 N   0  0  0  0  0  0  0  0  0  0  0  0
    6.0610    0.0795   19.7551 C   0  0  0  0  0  0  0  0  0  0  0  0
    6.4405   -0.1976   18.4708 C   0  0  0  0  0  0  0  0  0  0  0  0
    5.7810    0.2621   17.3824 N   0  0  0  0  0  0  0  0  0  0  0  0
    4.7432    1.0358   17.5822 C   0  0  0  0  0  0  0  0  0  0  0  0
    4.2716    1.4275   18.8704 C   0  0  0  0  0  0  0  0  0  0  0  0
    3.1624    2.2957   19.0521 C   0  0  0  0  0  0  0  0  0  0  0  0
    2.7403    2.6275   20.3100 C   0  0  0  0  0  0  0  0  0  0  0  0
    3.4008    2.1134   21.4484 C   0  0  0  0  0  0  0  0  0  0  0  0
    4.4882    1.2881   21.3007 C   0  0  0  0  0  0  0  0  0  0  0  0
    4.9443    0.9266   20.0013 C   0  0  0  0  0  0  0  0  0  0  0  0
    5.0190    0.9279   22.1779 H   0  0  0  0  0  0  0  0  0  0  0  0
    3.0651    2.3928   22.4428 H   0  0  0  0  0  0  0  0  0  0  0  0
    1.8973    3.2987   20.4425 H   0  0  0  0  0  0  0  0  0  0  0  0
    2.6687    2.6856   18.1668 H   0  0  0  0  0  0  0  0  0  0  0  0
    4.2151    1.3950   16.6985 H   0  0  0  0  0  0  0  0  0  0  0  0
    7.3182   -0.8151   18.2844 H   0  0  0  0  0  0  0  0  0  0  0  0
    6.3936   -1.6105   21.5955 C   0  0  0  0  0  0  0  0  0  0  0  0
    7.6038   -1.8110   22.5157 C   0  0  2  0  0  0  0  0  0  0  0  0
    7.3462   -2.6290   23.7838 C   0  0  0  0  0  0  0  0  0  0  0  0
    7.0804   -4.0261   23.5172 N   0  0  0  0  0  0  0  0  0  0  0  0
    5.8819   -4.5518   23.1512 C   0  0  0  0  0  0  0  0  0  0  0  0
    4.6505   -3.9824   23.5189 C   0  0  0  0  0  0  0  0  0  0  0  0
    3.5204   -4.6839   23.1441 C   0  0  0  0  0  0  0  0  0  0  0  0
    3.5437   -5.8175   22.4366 N   0  0  0  0  0  0  0  0  0  0  0  0
    4.7613   -6.2475   22.1336 C   0  0  0  0  0  0  0  0  0  0  0  0
    5.9281   -5.6987   22.4506 N   0  0  0  0  0  0  0  0  0  0  0  0
    4.8089   -7.1653   21.5504 H   0  0  0  0  0  0  0  0  0  0  0  0
    2.5256   -4.3305   23.4055 H   0  0  0  0  0  0  0  0  0  0  0  0
    4.5887   -3.0552   24.0840 H   0  0  0  0  0  0  0  0  0  0  0  0
    7.8624   -4.5731   23.1942 H   0  0  0  0  0  0  0  0  0  0  0  0
    6.5175   -2.2063   24.3558 H   0  0  0  0  0  0  0  0  0  0  0  0
    8.2321   -2.5826   24.4257 H   0  0  0  0  0  0  0  0  0  0  0  0
    8.3237   -2.3854   21.9339 H   0  0  0  0  0  0  0  0  0  0  0  0
    6.2285   -2.4519   20.9165 H   0  0  0  0  0  0  0  0  0  0  0  0
    5.4537   -1.4487   22.1509 H   0  0  0  0  0  0  0  0  0  0  0  0
    9.8718   -1.9120   21.0665 H   0  0  0  0  0  0  0  0  0  0  0  0
   13.6453   -0.3298   22.2923 H   0  0  0  0  0  0  0  0  0  0  0  0
   12.4841    1.1641   23.8946 H   0  0  0  0  0  0  0  0  0  0  0  0
  1  2  2  0
  2  3  1  0
  3  4  2  0
  4  5  1  0
  5  6  2  0
  6  7  1  0
  6  8  1  0
  8  9  2  0
  9 10  1  0
 10 11  1  1
 11 12  1  0
 12 13  1  0
 13 14  1  0
 14 15  2  0
 15 16  1  0
 16 17  2  0
 17 18  1  0
 17 19  1  0
 13 20  1  0
 13 21  1  0
 11 22  1  0
 11 23  1  0
 10 24  1  0
 24 25  2  0
 24 26  1  0
 26 27  1  0
 27 28  2  0
 28 29  1  0
 29 30  2  0
 30 31  1  0
 31 32  2  0
 32 33  1  0
 33 34  2  0
 34 35  1  0
 35 36  2  0
 35 37  1  0
 34 38  1  0
 33 39  1  0
 32 40  1  0
 30 41  1  0
 28 42  1  0
 26 43  1  0
 43 44  1  0
 44 45  1  0
 45 46  1  0
 46 47  1  0
 47 48  2  0
 48 49  1  0
 49 50  2  0
 50 51  1  0
 51 52  2  0
 51 53  1  0
 49 54  1  0
 48 55  1  0
 46 56  1  0
 45 57  1  0
 45 58  1  0
 44 59  1  6
 43 60  1  0
 43 61  1  0
  8 62  1  0
  5 63  1  0
  4 64  1  0
 12  2  1  0
 18 14  1  0
 36 27  1  0
 52 47  1  0
  9  3  1  0
 44 10  1  0
 36 31  1  0
M  END
>  <cnnaffinities>  (32) 
[6.72923]

>  <score>  (32) 
6.72923

>  <index>  (32) 
31

>  <Smiles>  (32) 
O=C1c2c(c(c(Cl)c(c2[C@@]2(C(N1C(c1nnc(o1)[H])([H])[H])([H])[H])C(=O)N(c1c(nc(c3c(c(c(c(c13)[H])[H])[H])[H])[H])[H])C([C@@]2(C(N(c1c(c(nc(n1)[H])[H])[H])[H])([H])[H])[H])([H])[H])[H])[H])[H]

>  <h>  (32) 
<NA>

>  <Training>  (32) 
True

>  <Success>  (32) 
True

>  <enamine_searched>  (32) 
False

>  <enamine_id>  (32) 
nan

$$$$

     RDKit          3D

 72 77  0  0  0  0  0  0  0  0999 V2000
    7.6457   -2.9471   23.4262 C   0  0  0  0  0  0  0  0  0  0  0  0
    7.9533   -1.8942   22.3566 C   0  0  1  0  0  0  0  0  0  0  0  0
    6.8358   -1.7781   21.2993 C   0  0  0  0  0  0  0  0  0  0  0  0
    6.9300   -0.4081   20.8374 N   0  0  0  0  0  0  0  0  0  0  0  0
    6.1424    0.1094   19.7735 C   0  0  0  0  0  0  0  0  0  0  0  0
    6.4405   -0.2212   18.4752 C   0  0  0  0  0  0  0  0  0  0  0  0
    5.7631    0.2312   17.3939 N   0  0  0  0  0  0  0  0  0  0  0  0
    4.7413    1.0246   17.5973 C   0  0  0  0  0  0  0  0  0  0  0  0
    4.2935    1.4214   18.8890 C   0  0  0  0  0  0  0  0  0  0  0  0
    3.1624    2.2659   19.0616 C   0  0  0  0  0  0  0  0  0  0  0  0
    2.7373    2.6050   20.3178 C   0  0  0  0  0  0  0  0  0  0  0  0
    3.4181    2.1117   21.4527 C   0  0  0  0  0  0  0  0  0  0  0  0
    4.5183    1.3005   21.3108 C   0  0  0  0  0  0  0  0  0  0  0  0
    5.0016    0.9455   20.0180 C   0  0  0  0  0  0  0  0  0  0  0  0
    5.0296    0.9198   22.1884 H   0  0  0  0  0  0  0  0  0  0  0  0
    3.0763    2.3847   22.4479 H   0  0  0  0  0  0  0  0  0  0  0  0
    1.8707    3.2497   20.4437 H   0  0  0  0  0  0  0  0  0  0  0  0
    2.6522    2.6350   18.1766 H   0  0  0  0  0  0  0  0  0  0  0  0
    4.2139    1.3867   16.7139 H   0  0  0  0  0  0  0  0  0  0  0  0
    7.2842   -0.8754   18.2596 H   0  0  0  0  0  0  0  0  0  0  0  0
    7.6804    0.4023   21.6570 C   0  0  0  0  0  0  0  0  0  0  0  0
    7.8711    1.5832   21.4504 O   0  0  0  0  0  0  0  0  0  0  0  0
    8.2044   -0.4362   22.8537 C   0  0  1  0  0  0  0  0  0  0  0  0
    7.3625   -0.1101   24.1188 C   0  0  0  0  0  0  0  0  0  0  0  0
    7.6074    1.2321   24.6131 N   0  0  0  0  0  0  0  0  0  0  0  0
    6.5101    2.1076   25.0051 C   0  0  0  0  0  0  0  0  0  0  0  0
    6.3853    3.3076   24.0641 C   0  0  0  0  0  0  0  0  0  0  0  0
    5.1634    4.1365   24.3251 N   0  0  1  0  0  4  0  0  0  0  0  0
    5.2269    4.8896   25.6345 C   0  0  0  0  0  0  0  0  0  0  0  0
    4.0101    5.7854   25.7963 C   0  0  0  0  0  0  0  0  0  0  0  0
    3.8752    6.6976   24.7250 O   0  0  0  0  0  0  0  0  0  0  0  0
    3.7596    6.0725   23.4412 C   0  0  0  0  0  0  0  0  0  0  0  0
    2.4184    5.3512   23.3001 C   0  0  0  0  0  0  0  0  0  0  0  0
    1.6036    6.0392   23.5471 H   0  0  0  0  0  0  0  0  0  0  0  0
    2.3466    4.4661   23.9430 H   0  0  0  0  0  0  0  0  0  0  0  0
    2.2875    5.0170   22.2638 H   0  0  0  0  0  0  0  0  0  0  0  0
    3.8394    7.2025   22.4233 C   0  0  0  0  0  0  0  0  0  0  0  0
    2.9991    7.8907   22.5520 H   0  0  0  0  0  0  0  0  0  0  0  0
    3.8034    6.7952   21.4057 H   0  0  0  0  0  0  0  0  0  0  0  0
    4.7718    7.7632   22.5415 H   0  0  0  0  0  0  0  0  0  0  0  0
    4.9405    5.1201   23.2077 C   0  0  0  0  0  0  0  0  0  0  0  0
    5.8537    5.7147   23.0970 H   0  0  0  0  0  0  0  0  0  0  0  0
    4.7863    4.5643   22.2755 H   0  0  0  0  0  0  0  0  0  0  0  0
    3.1111    5.1625   25.9076 H   0  0  0  0  0  0  0  0  0  0  0  0
    4.1100    6.3970   26.6978 H   0  0  0  0  0  0  0  0  0  0  0  0
    6.1326    5.5050   25.6293 H   0  0  0  0  0  0  0  0  0  0  0  0
    5.2879    4.1800   26.4623 H   0  0  0  0  0  0  0  0  0  0  0  0
    4.3554    3.4818   24.3444 H   0  0  0  0  0  0  0  0  0  0  0  0
    7.2698    3.9442   24.1791 H   0  0  0  0  0  0  0  0  0  0  0  0
    6.3482    2.9576   23.0262 H   0  0  0  0  0  0  0  0  0  0  0  0
    6.6783    2.4287   26.0376 H   0  0  0  0  0  0  0  0  0  0  0  0
    5.5876    1.5199   24.9678 H   0  0  0  0  0  0  0  0  0  0  0  0
    8.8846    1.6389   24.8598 C   0  0  0  0  0  0  0  0  0  0  0  0
    9.1410    2.5874   25.5962 O   0  0  0  0  0  0  0  0  0  0  0  0
    9.9538    0.8680   24.1268 C   0  0  0  0  0  0  0  0  0  0  0  0
   11.2760    1.2068   24.3756 C   0  0  0  0  0  0  0  0  0  0  0  0
   12.2998    0.7330   23.5904 C   0  0  0  0  0  0  0  0  0  0  0  0
   11.9702   -0.0400   22.4808 C   0  0  0  0  0  0  0  0  0  0  0  0
   13.1655   -0.2498   21.2429 Cl  0  0  0  0  0  0  0  0  0  0  0  0
   10.6803   -0.5063   22.2960 C   0  0  0  0  0  0  0  0  0  0  0  0
    9.6503   -0.0782   23.1414 C   0  0  0  0  0  0  0  0  0  0  0  0
   10.4705   -1.1634   21.4608 H   0  0  0  0  0  0  0  0  0  0  0  0
   13.3362    0.9904   23.7710 H   0  0  0  0  0  0  0  0  0  0  0  0
   11.4088    1.9410   25.1496 H   0  0  0  0  0  0  0  0  0  0  0  0
    6.2960   -0.1962   23.8830 H   0  0  0  0  0  0  0  0  0  0  0  0
    7.6108   -0.8455   24.9015 H   0  0  0  0  0  0  0  0  0  0  0  0
    5.8484   -1.9994   21.7353 H   0  0  0  0  0  0  0  0  0  0  0  0
    6.9699   -2.4638   20.4611 H   0  0  0  0  0  0  0  0  0  0  0  0
    8.8674   -2.1981   21.8422 H   0  0  0  0  0  0  0  0  0  0  0  0
    8.4190   -2.9788   24.2023 H   0  0  0  0  0  0  0  0  0  0  0  0
    7.5769   -3.9492   22.9865 H   0  0  0  0  0  0  0  0  0  0  0  0
    6.6890   -2.7433   23.9228 H   0  0  0  0  0  0  0  0  0  0  0  0
  1  2  1  0
  2  3  1  0
  3  4  1  0
  4  5  1  0
  5  6  2  0
  6  7  1  0
  7  8  2  0
  8  9  1  0
  9 10  2  0
 10 11  1  0
 11 12  2  0
 12 13  1  0
 13 14  2  0
 13 15  1  0
 12 16  1  0
 11 17  1  0
 10 18  1  0
  8 19  1  0
  6 20  1  0
  4 21  1  0
 21 22  2  0
 21 23  1  0
 23 24  1  1
 24 25  1  0
 25 26  1  0
 26 27  1  0
 27 28  1  0
 28 29  1  0
 29 30  1  0
 30 31  1  0
 31 32  1  0
 32 33  1  0
 33 34  1  0
 33 35  1  0
 33 36  1  0
 32 37  1  0
 37 38  1  0
 37 39  1  0
 37 40  1  0
 32 41  1  0
 41 42  1  0
 41 43  1  0
 30 44  1  0
 30 45  1  0
 29 46  1  0
 29 47  1  0
 28 48  1  1
 27 49  1  0
 27 50  1  0
 26 51  1  0
 26 52  1  0
 25 53  1  0
 53 54  2  0
 53 55  1  0
 55 56  2  0
 56 57  1  0
 57 58  2  0
 58 59  1  0
 58 60  1  0
 60 61  2  0
 60 62  1  0
 57 63  1  0
 56 64  1  0
 24 65  1  0
 24 66  1  0
  3 67  1  0
  3 68  1  0
  2 69  1  6
  1 70  1  0
  1 71  1  0
  1 72  1  0
 23  2  1  0
 41 28  1  0
 61 55  1  0
 14  5  1  0
 61 23  1  0
 14  9  1  0
M  CHG  1  28   1
M  END
>  <cnnaffinities>  (33) 
[6.64134]

>  <score>  (33) 
6.64134

>  <index>  (33) 
32

>  <Smiles>  (33) 
C([C@]1(C(N(c2c(nc(c3c(c(c(c(c23)[H])[H])[H])[H])[H])[H])C(=O)[C@]21C(N(C(C([N@+]1(C(C(OC(C([H])([H])[H])(C([H])([H])[H])C1([H])[H])([H])[H])([H])[H])[H])([H])[H])([H])[H])C(=O)c1c(c(c(Cl)c(c21)[H])[H])[H])([H])[H])([H])[H])[H])([H])([H])[H]

>  <h>  (33) 
<NA>

>  <Training>  (33) 
True

>  <Success>  (33) 
True

>  <enamine_searched>  (33) 
False

>  <enamine_id>  (33) 
nan

$$$$

     RDKit          3D

 44 47  0  0  0  0  0  0  0  0999 V2000
    8.5142    1.3927   20.7374 O   0  0  0  0  0  0  0  0  0  0  0  0
    7.8673    0.6937   21.5000 C   0  0  0  0  0  0  0  0  0  0  0  0
    6.9521   -0.4143   20.9239 C   0  0  0  0  0  0  0  0  0  0  0  0
    6.1115    0.0913   19.7712 C   0  0  0  0  0  0  0  0  0  0  0  0
    6.4274   -0.2059   18.4708 C   0  0  0  0  0  0  0  0  0  0  0  0
    5.7587    0.2471   17.3757 N   0  0  0  0  0  0  0  0  0  0  0  0
    4.7315    1.0300   17.5810 C   0  0  0  0  0  0  0  0  0  0  0  0
    4.2837    1.4248   18.8694 C   0  0  0  0  0  0  0  0  0  0  0  0
    3.1712    2.2859   19.0470 C   0  0  0  0  0  0  0  0  0  0  0  0
    2.7652    2.6529   20.2998 C   0  0  0  0  0  0  0  0  0  0  0  0
    3.4644    2.1697   21.4297 C   0  0  0  0  0  0  0  0  0  0  0  0
    4.5444    1.3348   21.2907 C   0  0  0  0  0  0  0  0  0  0  0  0
    4.9879    0.9401   20.0011 C   0  0  0  0  0  0  0  0  0  0  0  0
    5.0708    0.9838   22.1768 H   0  0  0  0  0  0  0  0  0  0  0  0
    3.1344    2.4724   22.4193 H   0  0  0  0  0  0  0  0  0  0  0  0
    1.9136    3.3168   20.4327 H   0  0  0  0  0  0  0  0  0  0  0  0
    2.6527    2.6517   18.1632 H   0  0  0  0  0  0  0  0  0  0  0  0
    4.2002    1.3967   16.6987 H   0  0  0  0  0  0  0  0  0  0  0  0
    7.2741   -0.8546   18.2428 H   0  0  0  0  0  0  0  0  0  0  0  0
    7.6167   -1.1981   20.5375 H   0  0  0  0  0  0  0  0  0  0  0  0
    6.3241   -0.8884   21.6872 H   0  0  0  0  0  0  0  0  0  0  0  0
    7.9394    0.8592   22.8626 N   0  0  0  0  0  0  0  0  0  0  0  0
    7.4845   -0.0778   23.8818 C   0  0  0  0  0  0  0  0  0  0  0  0
    7.8296    0.5796   25.2258 C   0  0  0  0  0  0  0  0  0  0  0  0
    8.7643    1.7538   24.9061 C   0  0  0  0  0  0  0  0  0  0  0  0
    8.5947    2.0494   23.4076 C   0  0  2  0  0  0  0  0  0  0  0  0
    7.7993    3.3152   23.1428 C   0  0  0  0  0  0  0  0  0  0  0  0
    8.3963    4.4120   22.5246 C   0  0  0  0  0  0  0  0  0  0  0  0
    7.6660    5.5693   22.2700 C   0  0  0  0  0  0  0  0  0  0  0  0
    6.3291    5.6580   22.6339 C   0  0  0  0  0  0  0  0  0  0  0  0
    5.7639    4.5616   23.2650 C   0  0  0  0  0  0  0  0  0  0  0  0
    4.4648    4.6169   23.6175 F   0  0  0  0  0  0  0  0  0  0  0  0
    6.4667    3.3991   23.5341 C   0  0  0  0  0  0  0  0  0  0  0  0
    5.9556    2.5755   24.0291 H   0  0  0  0  0  0  0  0  0  0  0  0
    5.7325    6.5434   22.4318 H   0  0  0  0  0  0  0  0  0  0  0  0
    8.1396    6.4044   21.7656 H   0  0  0  0  0  0  0  0  0  0  0  0
    9.4404    4.3568   22.2261 H   0  0  0  0  0  0  0  0  0  0  0  0
    9.5692    2.1690   22.9323 H   0  0  0  0  0  0  0  0  0  0  0  0
    8.5336    2.6308   25.5164 H   0  0  0  0  0  0  0  0  0  0  0  0
    9.8028    1.4988   25.1338 H   0  0  0  0  0  0  0  0  0  0  0  0
    8.3001   -0.1314   25.9064 H   0  0  0  0  0  0  0  0  0  0  0  0
    6.9252    0.9283   25.7312 H   0  0  0  0  0  0  0  0  0  0  0  0
    7.9987   -1.0362   23.7583 H   0  0  0  0  0  0  0  0  0  0  0  0
    6.4075   -0.2707   23.8081 H   0  0  0  0  0  0  0  0  0  0  0  0
  1  2  2  0
  2  3  1  0
  3  4  1  0
  4  5  2  0
  5  6  1  0
  6  7  2  0
  7  8  1  0
  8  9  2  0
  9 10  1  0
 10 11  2  0
 11 12  1  0
 12 13  2  0
 12 14  1  0
 11 15  1  0
 10 16  1  0
  9 17  1  0
  7 18  1  0
  5 19  1  0
  3 20  1  0
  3 21  1  0
  2 22  1  0
 22 23  1  0
 23 24  1  0
 24 25  1  0
 25 26  1  0
 26 27  1  0
 27 28  2  0
 28 29  1  0
 29 30  2  0
 30 31  1  0
 31 32  1  0
 31 33  2  0
 33 34  1  0
 30 35  1  0
 29 36  1  0
 28 37  1  0
 26 38  1  6
 25 39  1  0
 25 40  1  0
 24 41  1  0
 24 42  1  0
 23 43  1  0
 23 44  1  0
 13  4  1  0
 26 22  1  0
 33 27  1  0
 13  8  1  0
M  END
>  <cnnaffinities>  (34) 
[5.58861, 5.87346, 5.8915]

>  <score>  (34) 
5.58861

>  <index>  (34) 
33

>  <Smiles>  (34) 
O=C(C(c1c(nc(c2c(c(c(c(c12)[H])[H])[H])[H])[H])[H])([H])[H])N1C(C(C([C@@]1(c1c(c(c(c(F)c1[H])[H])[H])[H])[H])([H])[H])([H])[H])([H])[H]

>  <h>  (34) 
<NA>

>  <Training>  (34) 
True

>  <Success>  (34) 
True

>  <enamine_searched>  (34) 
False

>  <enamine_id>  (34) 
nan

$$$$

     RDKit          3D

 58 63  0  0  0  0  0  0  0  0999 V2000
    6.6997   -2.3086   23.6205 C   0  0  0  0  0  0  0  0  0  0  0  0
    7.7075   -1.8394   22.5555 C   0  0  1  0  0  0  0  0  0  0  0  0
    7.0358   -1.7930   21.1624 C   0  0  0  0  0  0  0  0  0  0  0  0
    6.8741   -0.3870   20.8767 N   0  0  0  0  0  0  0  0  0  0  0  0
    6.1272    0.1089   19.7789 C   0  0  0  0  0  0  0  0  0  0  0  0
    6.4424   -0.2249   18.4857 C   0  0  0  0  0  0  0  0  0  0  0  0
    5.7695    0.2276   17.3998 N   0  0  0  0  0  0  0  0  0  0  0  0
    4.7482    1.0224   17.5986 C   0  0  0  0  0  0  0  0  0  0  0  0
    4.2943    1.4294   18.8832 C   0  0  0  0  0  0  0  0  0  0  0  0
    3.1639    2.2733   19.0611 C   0  0  0  0  0  0  0  0  0  0  0  0
    2.7362    2.6115   20.3155 C   0  0  0  0  0  0  0  0  0  0  0  0
    3.4172    2.1181   21.4519 C   0  0  0  0  0  0  0  0  0  0  0  0
    4.5141    1.3091   21.3042 C   0  0  0  0  0  0  0  0  0  0  0  0
    4.9969    0.9544   20.0150 C   0  0  0  0  0  0  0  0  0  0  0  0
    5.0214    0.9220   22.1817 H   0  0  0  0  0  0  0  0  0  0  0  0
    3.0799    2.3924   22.4480 H   0  0  0  0  0  0  0  0  0  0  0  0
    1.8744    3.2598   20.4461 H   0  0  0  0  0  0  0  0  0  0  0  0
    2.6522    2.6379   18.1751 H   0  0  0  0  0  0  0  0  0  0  0  0
    4.2221    1.3818   16.7140 H   0  0  0  0  0  0  0  0  0  0  0  0
    7.2874   -0.8745   18.2609 H   0  0  0  0  0  0  0  0  0  0  0  0
    7.6827    0.4310   21.6336 C   0  0  0  0  0  0  0  0  0  0  0  0
    7.8642    1.6045   21.4072 O   0  0  0  0  0  0  0  0  0  0  0  0
    8.3361   -0.4173   22.7608 C   0  0  1  0  0  0  0  0  0  0  0  0
    8.0365    0.1657   24.1638 C   0  0  0  0  0  0  0  0  0  0  0  0
    8.7063    1.4287   24.4047 N   0  0  0  0  0  0  0  0  0  0  0  0
    7.9571    2.5650   24.9431 C   0  0  0  0  0  0  0  0  0  0  0  0
    7.5780    3.5943   23.9083 C   0  0  0  0  0  0  0  0  0  0  0  0
    8.3701    4.6213   23.3818 C   0  0  0  0  0  0  0  0  0  0  0  0
    7.6956    5.2357   22.4172 N   0  0  0  0  0  0  0  0  0  0  0  0
    6.5413    4.6036   22.3905 N   0  0  0  0  0  0  0  0  0  0  0  0
    5.5439    4.8808   21.3733 C   0  0  0  0  0  0  0  0  0  0  0  0
    4.5652    4.8413   21.8553 H   0  0  0  0  0  0  0  0  0  0  0  0
    5.7472    5.8841   20.9864 H   0  0  0  0  0  0  0  0  0  0  0  0
    5.5853    4.1310   20.5691 H   0  0  0  0  0  0  0  0  0  0  0  0
    6.3983    3.6264   23.2785 N   0  0  0  0  0  0  0  0  0  0  0  0
    9.3722    4.9213   23.6585 H   0  0  0  0  0  0  0  0  0  0  0  0
    8.5850    3.0334   25.7061 H   0  0  0  0  0  0  0  0  0  0  0  0
    7.0487    2.1818   25.4195 H   0  0  0  0  0  0  0  0  0  0  0  0
   10.0383    1.5935   24.1390 C   0  0  0  0  0  0  0  0  0  0  0  0
   10.6821    2.5304   24.5988 O   0  0  0  0  0  0  0  0  0  0  0  0
   10.6418    0.5737   23.2153 C   0  0  0  0  0  0  0  0  0  0  0  0
   12.0133    0.6408   22.9661 C   0  0  0  0  0  0  0  0  0  0  0  0
   12.6070   -0.2108   22.0568 C   0  0  0  0  0  0  0  0  0  0  0  0
   11.7996   -1.1205   21.3848 C   0  0  0  0  0  0  0  0  0  0  0  0
   12.3469   -1.9060   20.4424 F   0  0  0  0  0  0  0  0  0  0  0  0
   10.4416   -1.2051   21.6023 C   0  0  0  0  0  0  0  0  0  0  0  0
    9.8464   -0.3775   22.5606 C   0  0  0  0  0  0  0  0  0  0  0  0
    9.8792   -1.8918   20.9778 H   0  0  0  0  0  0  0  0  0  0  0  0
   13.6653   -0.1690   21.8295 H   0  0  0  0  0  0  0  0  0  0  0  0
   12.5922    1.3896   23.4943 H   0  0  0  0  0  0  0  0  0  0  0  0
    8.3389   -0.5778   24.9189 H   0  0  0  0  0  0  0  0  0  0  0  0
    6.9656    0.3539   24.2508 H   0  0  0  0  0  0  0  0  0  0  0  0
    6.0577   -2.2893   21.1527 H   0  0  0  0  0  0  0  0  0  0  0  0
    7.6717   -2.2640   20.4096 H   0  0  0  0  0  0  0  0  0  0  0  0
    8.5185   -2.5770   22.5540 H   0  0  0  0  0  0  0  0  0  0  0  0
    5.8370   -1.6355   23.6913 H   0  0  0  0  0  0  0  0  0  0  0  0
    6.3209   -3.3053   23.3622 H   0  0  0  0  0  0  0  0  0  0  0  0
    7.1571   -2.3841   24.6117 H   0  0  0  0  0  0  0  0  0  0  0  0
  1  2  1  0
  2  3  1  0
  3  4  1  0
  4  5  1  0
  5  6  2  0
  6  7  1  0
  7  8  2  0
  8  9  1  0
  9 10  2  0
 10 11  1  0
 11 12  2  0
 12 13  1  0
 13 14  2  0
 13 15  1  0
 12 16  1  0
 11 17  1  0
 10 18  1  0
  8 19  1  0
  6 20  1  0
  4 21  1  0
 21 22  2  0
 21 23  1  0
 23 24  1  1
 24 25  1  0
 25 26  1  0
 26 27  1  0
 27 28  1  0
 28 29  2  0
 29 30  1  0
 30 31  1  0
 31 32  1  0
 31 33  1  0
 31 34  1  0
 30 35  1  0
 28 36  1  0
 26 37  1  0
 26 38  1  0
 25 39  1  0
 39 40  2  0
 39 41  1  0
 41 42  2  0
 42 43  1  0
 43 44  2  0
 44 45  1  0
 44 46  1  0
 46 47  2  0
 46 48  1  0
 43 49  1  0
 42 50  1  0
 24 51  1  0
 24 52  1  0
  3 53  1  0
  3 54  1  0
  2 55  1  6
  1 56  1  0
  1 57  1  0
  1 58  1  0
 23  2  1  0
 35 27  2  0
 47 41  1  0
 14  5  1  0
 47 23  1  0
 14  9  1  0
M  END
>  <cnnaffinities>  (35) 
[6.52307, 6.6923, 6.63187]

>  <score>  (35) 
6.52307

>  <index>  (35) 
34

>  <Smiles>  (35) 
C([C@]1(C(N(c2c(nc(c3c(c(c(c(c23)[H])[H])[H])[H])[H])[H])C(=O)[C@]21C(N(C(c1c(nn(C([H])([H])[H])n1)[H])([H])[H])C(=O)c1c(c(c(F)c(c21)[H])[H])[H])([H])[H])([H])[H])[H])([H])([H])[H]

>  <h>  (35) 
<NA>

>  <Training>  (35) 
True

>  <Success>  (35) 
True

>  <enamine_searched>  (35) 
False

>  <enamine_id>  (35) 
nan

$$$$

     RDKit          3D

 51 54  0  0  0  0  0  0  0  0999 V2000
    5.2320   -7.5745   27.2472 N   0  0  0  0  0  0  0  0  0  0  0  0
    4.6026   -7.0313   26.4435 C   0  0  0  0  0  0  0  0  0  0  0  0
    3.7716   -6.3618   25.4266 C   0  0  0  0  0  0  0  0  0  0  0  0
    4.4531   -5.1818   24.7628 C   0  0  0  0  0  0  0  0  0  0  0  0
    5.2330   -5.3678   23.6243 C   0  0  0  0  0  0  0  0  0  0  0  0
    5.8538   -4.2957   23.0037 C   0  0  0  0  0  0  0  0  0  0  0  0
    5.7124   -3.0158   23.5280 C   0  0  0  0  0  0  0  0  0  0  0  0
    6.3832   -1.9265   22.9001 N   0  0  0  0  0  0  0  0  0  0  0  0
    7.3140   -1.1431   23.7058 C   0  0  0  0  0  0  0  0  0  0  0  0
    8.7751   -1.3478   23.3413 C   0  0  0  0  0  0  0  0  0  0  0  0
    9.3367   -2.5980   23.5765 C   0  0  0  0  0  0  0  0  0  0  0  0
   10.6905   -2.8190   23.3894 C   0  0  0  0  0  0  0  0  0  0  0  0
   11.4940   -1.8360   22.8089 C   0  0  0  0  0  0  0  0  0  0  0  0
   10.9330   -0.5886   22.5533 C   0  0  0  0  0  0  0  0  0  0  0  0
   11.9537    0.6782   21.8908 Cl  0  0  0  0  0  0  0  0  0  0  0  0
    9.5946   -0.3226   22.8540 C   0  0  0  0  0  0  0  0  0  0  0  0
    9.2120    0.6938   22.7382 H   0  0  0  0  0  0  0  0  0  0  0  0
   12.5190   -2.0340   22.5244 H   0  0  0  0  0  0  0  0  0  0  0  0
   11.0915   -3.7788   23.6874 H   0  0  0  0  0  0  0  0  0  0  0  0
    8.7044   -3.4200   23.8878 H   0  0  0  0  0  0  0  0  0  0  0  0
    7.0667   -0.0735   23.6817 H   0  0  0  0  0  0  0  0  0  0  0  0
    7.1720   -1.4859   24.7383 H   0  0  0  0  0  0  0  0  0  0  0  0
    6.1081   -1.6863   21.5654 C   0  0  0  0  0  0  0  0  0  0  0  0
    5.3185   -2.3709   20.9400 O   0  0  0  0  0  0  0  0  0  0  0  0
    6.8408   -0.5243   20.8974 C   0  0  0  0  0  0  0  0  0  0  0  0
    6.0776    0.0732   19.7594 C   0  0  0  0  0  0  0  0  0  0  0  0
    6.4120   -0.2190   18.4656 C   0  0  0  0  0  0  0  0  0  0  0  0
    5.7627    0.2457   17.3687 N   0  0  0  0  0  0  0  0  0  0  0  0
    4.7361    1.0307   17.5758 C   0  0  0  0  0  0  0  0  0  0  0  0
    4.2759    1.4220   18.8630 C   0  0  0  0  0  0  0  0  0  0  0  0
    3.1591    2.2779   19.0347 C   0  0  0  0  0  0  0  0  0  0  0  0
    2.7438    2.6349   20.2883 C   0  0  0  0  0  0  0  0  0  0  0  0
    3.4253    2.1482   21.4261 C   0  0  0  0  0  0  0  0  0  0  0  0
    4.5072    1.3161   21.2871 C   0  0  0  0  0  0  0  0  0  0  0  0
    4.9647    0.9320   19.9956 C   0  0  0  0  0  0  0  0  0  0  0  0
    5.0125    0.9499   22.1765 H   0  0  0  0  0  0  0  0  0  0  0  0
    3.0910    2.4427   22.4173 H   0  0  0  0  0  0  0  0  0  0  0  0
    1.8927    3.2970   20.4182 H   0  0  0  0  0  0  0  0  0  0  0  0
    2.6483    2.6457   18.1496 H   0  0  0  0  0  0  0  0  0  0  0  0
    4.2098    1.3980   16.6949 H   0  0  0  0  0  0  0  0  0  0  0  0
    7.2607   -0.8734   18.2621 H   0  0  0  0  0  0  0  0  0  0  0  0
    7.0653    0.2425   21.6389 H   0  0  0  0  0  0  0  0  0  0  0  0
    7.7969   -0.9267   20.5401 H   0  0  0  0  0  0  0  0  0  0  0  0
    4.9638   -2.8205   24.6902 C   0  0  0  0  0  0  0  0  0  0  0  0
    4.3220   -3.8983   25.2870 C   0  0  0  0  0  0  0  0  0  0  0  0
    3.7370   -3.7444   26.1909 H   0  0  0  0  0  0  0  0  0  0  0  0
    4.8756   -1.8243   25.1204 H   0  0  0  0  0  0  0  0  0  0  0  0
    6.4519   -4.4453   22.1108 H   0  0  0  0  0  0  0  0  0  0  0  0
    5.3520   -6.3667   23.2131 H   0  0  0  0  0  0  0  0  0  0  0  0
    2.8447   -6.0412   25.9142 H   0  0  0  0  0  0  0  0  0  0  0  0
    3.5000   -7.1128   24.6770 H   0  0  0  0  0  0  0  0  0  0  0  0
  1  2  3  0
  2  3  1  0
  3  4  1  0
  4  5  2  0
  5  6  1  0
  6  7  2  0
  7  8  1  0
  8  9  1  0
  9 10  1  0
 10 11  2  0
 11 12  1  0
 12 13  2  0
 13 14  1  0
 14 15  1  0
 14 16  2  0
 16 17  1  0
 13 18  1  0
 12 19  1  0
 11 20  1  0
  9 21  1  0
  9 22  1  0
  8 23  1  0
 23 24  2  0
 23 25  1  0
 25 26  1  0
 26 27  2  0
 27 28  1  0
 28 29  2  0
 29 30  1  0
 30 31  2  0
 31 32  1  0
 32 33  2  0
 33 34  1  0
 34 35  2  0
 34 36  1  0
 33 37  1  0
 32 38  1  0
 31 39  1  0
 29 40  1  0
 27 41  1  0
 25 42  1  0
 25 43  1  0
  7 44  1  0
 44 45  2  0
 45 46  1  0
 44 47  1  0
  6 48  1  0
  5 49  1  0
  3 50  1  0
  3 51  1  0
 45  4  1  0
 16 10  1  0
 35 26  1  0
 35 30  1  0
M  END
>  <cnnaffinities>  (36) 
[6.53421, 6.40345, 6.52388, 6.15146, 6.14999]

>  <score>  (36) 
6.53421

>  <index>  (36) 
35

>  <Smiles>  (36) 
N#CC(c1c(c(c(N(C(c2c(c(c(c(Cl)c2[H])[H])[H])[H])([H])[H])C(=O)C(c2c(nc(c3c(c(c(c(c23)[H])[H])[H])[H])[H])[H])([H])[H])c(c1[H])[H])[H])[H])([H])[H]

>  <h>  (36) 
<NA>

>  <Training>  (36) 
True

>  <Success>  (36) 
True

>  <enamine_searched>  (36) 
False

>  <enamine_id>  (36) 
nan

$$$$

     RDKit          3D

 59 64  0  0  0  0  0  0  0  0999 V2000
    7.7798   -2.9849   23.3276 C   0  0  0  0  0  0  0  0  0  0  0  0
    8.0489   -1.8949   22.2810 C   0  0  1  0  0  0  0  0  0  0  0  0
    6.9219   -1.7882   21.2362 C   0  0  0  0  0  0  0  0  0  0  0  0
    6.9328   -0.3966   20.8322 N   0  0  0  0  0  0  0  0  0  0  0  0
    6.1422    0.1116   19.7717 C   0  0  0  0  0  0  0  0  0  0  0  0
    6.4428   -0.2219   18.4759 C   0  0  0  0  0  0  0  0  0  0  0  0
    5.7650    0.2289   17.3935 N   0  0  0  0  0  0  0  0  0  0  0  0
    4.7441    1.0215   17.5991 C   0  0  0  0  0  0  0  0  0  0  0  0
    4.2962    1.4180   18.8893 C   0  0  0  0  0  0  0  0  0  0  0  0
    3.1692    2.2686   19.0592 C   0  0  0  0  0  0  0  0  0  0  0  0
    2.7414    2.6129   20.3111 C   0  0  0  0  0  0  0  0  0  0  0  0
    3.4163    2.1110   21.4509 C   0  0  0  0  0  0  0  0  0  0  0  0
    4.5059    1.2920   21.3092 C   0  0  0  0  0  0  0  0  0  0  0  0
    4.9963    0.9409   20.0176 C   0  0  0  0  0  0  0  0  0  0  0  0
    5.0182    0.9148   22.1888 H   0  0  0  0  0  0  0  0  0  0  0  0
    3.0718    2.3912   22.4407 H   0  0  0  0  0  0  0  0  0  0  0  0
    1.8892    3.2738   20.4413 H   0  0  0  0  0  0  0  0  0  0  0  0
    2.6623    2.6386   18.1718 H   0  0  0  0  0  0  0  0  0  0  0  0
    4.2171    1.3845   16.7163 H   0  0  0  0  0  0  0  0  0  0  0  0
    7.2859   -0.8764   18.2607 H   0  0  0  0  0  0  0  0  0  0  0  0
    7.6441    0.4223   21.6759 C   0  0  0  0  0  0  0  0  0  0  0  0
    7.7466    1.6222   21.5388 O   0  0  0  0  0  0  0  0  0  0  0  0
    8.2476   -0.4416   22.8085 C   0  0  1  0  0  0  0  0  0  0  0  0
    7.4550   -0.1857   24.1098 C   0  0  0  0  0  0  0  0  0  0  0  0
    7.6758    1.1632   24.5862 N   0  0  0  0  0  0  0  0  0  0  0  0
    6.5439    1.9075   25.1183 C   0  0  0  0  0  0  0  0  0  0  0  0
    6.0810    1.4636   26.4798 C   0  0  0  0  0  0  0  0  0  0  0  0
    6.5566    1.9346   27.7214 C   0  0  0  0  0  0  0  0  0  0  0  0
    5.8985    1.1717   28.6570 C   0  0  0  0  0  0  0  0  0  0  0  0
    5.0832    0.3383   27.9762 N   0  0  0  0  0  0  0  0  0  0  0  0
    4.2745   -0.7212   28.5505 C   0  0  0  0  0  0  0  0  0  0  0  0
    3.4581   -0.9453   27.8616 H   0  0  0  0  0  0  0  0  0  0  0  0
    4.8676   -1.6288   28.7267 H   0  0  0  0  0  0  0  0  0  0  0  0
    3.8719   -0.3725   29.5074 H   0  0  0  0  0  0  0  0  0  0  0  0
    5.1785    0.5035   26.6459 N   0  0  0  0  0  0  0  0  0  0  0  0
    5.9509    1.1248   29.7389 H   0  0  0  0  0  0  0  0  0  0  0  0
    7.2905    2.7159   27.8667 H   0  0  0  0  0  0  0  0  0  0  0  0
    5.7245    1.8118   24.3918 H   0  0  0  0  0  0  0  0  0  0  0  0
    6.8560    2.9547   25.1542 H   0  0  0  0  0  0  0  0  0  0  0  0
    8.9507    1.5744   24.8593 C   0  0  0  0  0  0  0  0  0  0  0  0
    9.2101    2.4510   25.6779 O   0  0  0  0  0  0  0  0  0  0  0  0
   10.0101    0.8920   24.0450 C   0  0  0  0  0  0  0  0  0  0  0  0
   11.3288    1.2700   24.2704 C   0  0  0  0  0  0  0  0  0  0  0  0
   12.3435    0.8283   23.4477 C   0  0  0  0  0  0  0  0  0  0  0  0
   11.9917    0.0185   22.3721 C   0  0  0  0  0  0  0  0  0  0  0  0
   12.9453   -0.3309   21.4939 F   0  0  0  0  0  0  0  0  0  0  0  0
   10.6999   -0.4157   22.1548 C   0  0  0  0  0  0  0  0  0  0  0  0
    9.6854   -0.0227   23.0374 C   0  0  0  0  0  0  0  0  0  0  0  0
   10.5066   -1.0206   21.2750 H   0  0  0  0  0  0  0  0  0  0  0  0
   13.3798    1.1165   23.5757 H   0  0  0  0  0  0  0  0  0  0  0  0
   11.4752    1.9513   25.0904 H   0  0  0  0  0  0  0  0  0  0  0  0
    7.7620   -0.9100   24.8799 H   0  0  0  0  0  0  0  0  0  0  0  0
    6.3816   -0.3004   23.9272 H   0  0  0  0  0  0  0  0  0  0  0  0
    7.0885   -2.4165   20.3628 H   0  0  0  0  0  0  0  0  0  0  0  0
    5.9503   -2.0750   21.6646 H   0  0  0  0  0  0  0  0  0  0  0  0
    8.9741   -2.1538   21.7611 H   0  0  0  0  0  0  0  0  0  0  0  0
    6.8215   -2.8169   23.8359 H   0  0  0  0  0  0  0  0  0  0  0  0
    8.5590   -3.0224   24.0988 H   0  0  0  0  0  0  0  0  0  0  0  0
    7.7310   -3.9743   22.8581 H   0  0  0  0  0  0  0  0  0  0  0  0
  1  2  1  0
  2  3  1  0
  3  4  1  0
  4  5  1  0
  5  6  2  0
  6  7  1  0
  7  8  2  0
  8  9  1  0
  9 10  2  0
 10 11  1  0
 11 12  2  0
 12 13  1  0
 13 14  2  0
 13 15  1  0
 12 16  1  0
 11 17  1  0
 10 18  1  0
  8 19  1  0
  6 20  1  0
  4 21  1  0
 21 22  2  0
 21 23  1  0
 23 24  1  1
 24 25  1  0
 25 26  1  0
 26 27  1  0
 27 28  1  0
 28 29  2  0
 29 30  1  0
 30 31  1  0
 31 32  1  0
 31 33  1  0
 31 34  1  0
 30 35  1  0
 29 36  1  0
 28 37  1  0
 26 38  1  0
 26 39  1  0
 25 40  1  0
 40 41  2  0
 40 42  1  0
 42 43  2  0
 43 44  1  0
 44 45  2  0
 45 46  1  0
 45 47  1  0
 47 48  2  0
 47 49  1  0
 44 50  1  0
 43 51  1  0
 24 52  1  0
 24 53  1  0
  3 54  1  0
  3 55  1  0
  2 56  1  6
  1 57  1  0
  1 58  1  0
  1 59  1  0
 23  2  1  0
 35 27  2  0
 48 42  1  0
 14  5  1  0
 48 23  1  0
 14  9  1  0
M  END
>  <cnnaffinities>  (37) 
[6.64125, 6.67139, 6.39276]

>  <score>  (37) 
6.64125

>  <index>  (37) 
36

>  <Smiles>  (37) 
C([C@]1(C(N(c2c(nc(c3c(c(c(c(c23)[H])[H])[H])[H])[H])[H])C(=O)[C@]21C(N(C(c1c(c(n(C([H])([H])[H])n1)[H])[H])([H])[H])C(=O)c1c(c(c(F)c(c21)[H])[H])[H])([H])[H])([H])[H])[H])([H])([H])[H]

>  <h>  (37) 
<NA>

>  <Training>  (37) 
True

>  <Success>  (37) 
True

>  <enamine_searched>  (37) 
False

>  <enamine_id>  (37) 
nan

$$$$

     RDKit          3D

 48 51  0  0  0  0  0  0  0  0999 V2000
    3.2621   -7.2211   25.8291 N   0  0  0  0  0  0  0  0  0  0  0  0
    3.8194   -6.3285   25.3492 C   0  0  0  0  0  0  0  0  0  0  0  0
    4.4938   -5.2082   24.7422 C   0  0  0  0  0  0  0  0  0  0  0  0
    4.3598   -3.9275   25.2892 C   0  0  0  0  0  0  0  0  0  0  0  0
    4.9952   -2.8514   24.6902 C   0  0  0  0  0  0  0  0  0  0  0  0
    5.7353   -3.0421   23.5222 C   0  0  0  0  0  0  0  0  0  0  0  0
    6.3930   -1.9421   22.9022 N   0  0  0  0  0  0  0  0  0  0  0  0
    7.3297   -1.1548   23.7030 C   0  0  0  0  0  0  0  0  0  0  0  0
    8.7867   -1.3468   23.3248 C   0  0  0  0  0  0  0  0  0  0  0  0
    9.3557   -2.5970   23.5554 C   0  0  0  0  0  0  0  0  0  0  0  0
   10.7066   -2.8031   23.3378 C   0  0  0  0  0  0  0  0  0  0  0  0
   11.4988   -1.8045   22.7795 C   0  0  0  0  0  0  0  0  0  0  0  0
   10.9290   -0.5570   22.5524 C   0  0  0  0  0  0  0  0  0  0  0  0
   11.9233    0.7100   21.8904 Cl  0  0  0  0  0  0  0  0  0  0  0  0
    9.5951   -0.3052   22.8603 C   0  0  0  0  0  0  0  0  0  0  0  0
    9.2001    0.7020   22.7160 H   0  0  0  0  0  0  0  0  0  0  0  0
   12.5229   -1.9951   22.4811 H   0  0  0  0  0  0  0  0  0  0  0  0
   11.1174   -3.7581   23.6364 H   0  0  0  0  0  0  0  0  0  0  0  0
    8.7423   -3.4223   23.9135 H   0  0  0  0  0  0  0  0  0  0  0  0
    7.0553   -0.0905   23.6942 H   0  0  0  0  0  0  0  0  0  0  0  0
    7.1864   -1.5022   24.7321 H   0  0  0  0  0  0  0  0  0  0  0  0
    6.1061   -1.6975   21.5699 C   0  0  0  0  0  0  0  0  0  0  0  0
    5.3051   -2.3715   20.9488 O   0  0  0  0  0  0  0  0  0  0  0  0
    6.8390   -0.5318   20.9032 C   0  0  0  0  0  0  0  0  0  0  0  0
    6.0760    0.0679   19.7621 C   0  0  0  0  0  0  0  0  0  0  0  0
    6.4089   -0.2234   18.4666 C   0  0  0  0  0  0  0  0  0  0  0  0
    5.7631    0.2459   17.3678 N   0  0  0  0  0  0  0  0  0  0  0  0
    4.7362    1.0304   17.5752 C   0  0  0  0  0  0  0  0  0  0  0  0
    4.2751    1.4217   18.8631 C   0  0  0  0  0  0  0  0  0  0  0  0
    3.1587    2.2786   19.0353 C   0  0  0  0  0  0  0  0  0  0  0  0
    2.7435    2.6351   20.2886 C   0  0  0  0  0  0  0  0  0  0  0  0
    3.4246    2.1480   21.4256 C   0  0  0  0  0  0  0  0  0  0  0  0
    4.5057    1.3153   21.2865 C   0  0  0  0  0  0  0  0  0  0  0  0
    4.9620    0.9280   19.9965 C   0  0  0  0  0  0  0  0  0  0  0  0
    5.0107    0.9494   22.1756 H   0  0  0  0  0  0  0  0  0  0  0  0
    3.0909    2.4423   22.4161 H   0  0  0  0  0  0  0  0  0  0  0  0
    1.8932    3.2974   20.4177 H   0  0  0  0  0  0  0  0  0  0  0  0
    2.6486    2.6466   18.1493 H   0  0  0  0  0  0  0  0  0  0  0  0
    4.2106    1.3997   16.6940 H   0  0  0  0  0  0  0  0  0  0  0  0
    7.2592   -0.8753   18.2619 H   0  0  0  0  0  0  0  0  0  0  0  0
    7.7969   -0.9282   20.5401 H   0  0  0  0  0  0  0  0  0  0  0  0
    7.0590    0.2392   21.6447 H   0  0  0  0  0  0  0  0  0  0  0  0
    5.8840   -4.3187   22.9859 C   0  0  0  0  0  0  0  0  0  0  0  0
    5.2740   -5.4000   23.5968 C   0  0  0  0  0  0  0  0  0  0  0  0
    5.3980   -6.3962   23.1857 H   0  0  0  0  0  0  0  0  0  0  0  0
    6.4760   -4.4525   22.0865 H   0  0  0  0  0  0  0  0  0  0  0  0
    4.9038   -1.8559   25.1201 H   0  0  0  0  0  0  0  0  0  0  0  0
    3.7853   -3.7888   26.1985 H   0  0  0  0  0  0  0  0  0  0  0  0
  1  2  3  0
  2  3  1  0
  3  4  2  0
  4  5  1  0
  5  6  2  0
  6  7  1  0
  7  8  1  0
  8  9  1  0
  9 10  2  0
 10 11  1  0
 11 12  2  0
 12 13  1  0
 13 14  1  0
 13 15  2  0
 15 16  1  0
 12 17  1  0
 11 18  1  0
 10 19  1  0
  8 20  1  0
  8 21  1  0
  7 22  1  0
 22 23  2  0
 22 24  1  0
 24 25  1  0
 25 26  2  0
 26 27  1  0
 27 28  2  0
 28 29  1  0
 29 30  2  0
 30 31  1  0
 31 32  2  0
 32 33  1  0
 33 34  2  0
 33 35  1  0
 32 36  1  0
 31 37  1  0
 30 38  1  0
 28 39  1  0
 26 40  1  0
 24 41  1  0
 24 42  1  0
  6 43  1  0
 43 44  2  0
 44 45  1  0
 43 46  1  0
  5 47  1  0
  4 48  1  0
 44  3  1  0
 15  9  1  0
 34 25  1  0
 34 29  1  0
M  END
>  <cnnaffinities>  (38) 
[6.26533, 6.25811]

>  <score>  (38) 
6.26533

>  <index>  (38) 
37

>  <Smiles>  (38) 
N#Cc1c(c(c(N(C(c2c(c(c(c(Cl)c2[H])[H])[H])[H])([H])[H])C(=O)C(c2c(nc(c3c(c(c(c(c23)[H])[H])[H])[H])[H])[H])([H])[H])c(c1[H])[H])[H])[H]

>  <h>  (38) 
<NA>

>  <Training>  (38) 
True

>  <Success>  (38) 
True

>  <enamine_searched>  (38) 
False

>  <enamine_id>  (38) 
nan

$$$$

     RDKit          3D

 72 77  0  0  0  0  0  0  0  0999 V2000
    4.8797   -7.5652   20.1373 C   0  0  0  0  0  0  0  0  0  0  0  0
    5.3631   -6.2621   19.6128 N   0  0  0  0  0  4  0  0  0  0  0  0
    5.4897   -5.2002   20.6699 C   0  0  0  0  0  0  0  0  0  0  0  0
    6.6618   -5.4694   21.6210 C   0  0  0  0  0  0  0  0  0  0  0  0
    6.8723   -4.3747   22.5470 N   0  0  0  0  0  0  0  0  0  0  0  0
    7.8943   -3.3813   22.3113 C   0  0  0  0  0  0  0  0  0  0  0  0
    7.4115   -1.9502   22.6605 C   0  0  2  0  0  0  0  0  0  0  0  0
    6.2892   -1.5426   21.6703 C   0  0  0  0  0  0  0  0  0  0  0  0
    5.1729   -2.0166   21.6043 O   0  0  0  0  0  0  0  0  0  0  0  0
    6.7710   -0.5575   20.8322 N   0  0  0  0  0  0  0  0  0  0  0  0
    6.0325    0.0098   19.7706 C   0  0  0  0  0  0  0  0  0  0  0  0
    6.4148   -0.2214   18.4734 C   0  0  0  0  0  0  0  0  0  0  0  0
    5.7758    0.2644   17.3842 N   0  0  0  0  0  0  0  0  0  0  0  0
    4.7363    1.0331   17.5860 C   0  0  0  0  0  0  0  0  0  0  0  0
    4.2622    1.4008   18.8766 C   0  0  0  0  0  0  0  0  0  0  0  0
    3.1609    2.2828   19.0356 C   0  0  0  0  0  0  0  0  0  0  0  0
    2.7663    2.6726   20.2857 C   0  0  0  0  0  0  0  0  0  0  0  0
    3.4477    2.1971   21.4285 C   0  0  0  0  0  0  0  0  0  0  0  0
    4.5039    1.3267   21.3013 C   0  0  0  0  0  0  0  0  0  0  0  0
    4.9312    0.8956   20.0134 C   0  0  0  0  0  0  0  0  0  0  0  0
    5.0303    0.9682   22.1809 H   0  0  0  0  0  0  0  0  0  0  0  0
    3.1350    2.5318   22.4137 H   0  0  0  0  0  0  0  0  0  0  0  0
    1.9346    3.3615   20.4077 H   0  0  0  0  0  0  0  0  0  0  0  0
    2.6578    2.6496   18.1448 H   0  0  0  0  0  0  0  0  0  0  0  0
    4.2237    1.4177   16.7046 H   0  0  0  0  0  0  0  0  0  0  0  0
    7.2771   -0.8538   18.2699 H   0  0  0  0  0  0  0  0  0  0  0  0
    8.2029   -0.3843   20.9326 C   0  0  0  0  0  0  0  0  0  0  0  0
    8.5151   -0.9031   22.3474 C   0  0  2  0  0  0  0  0  0  0  0  0
    9.9599   -1.3894   22.4566 C   0  0  0  0  0  0  0  0  0  0  0  0
   10.8449   -0.3008   22.4048 O   0  0  0  0  0  0  0  0  0  0  0  0
   11.3363   -0.0114   23.6823 C   0  0  0  0  0  0  0  0  0  0  0  0
   11.9555    1.3160   23.4917 C   0  0  0  0  0  0  0  0  0  0  0  0
   10.9696    2.2847   23.3637 C   0  0  0  0  0  0  0  0  0  0  0  0
   10.7300    3.8813   24.2174 S   0  0  0  0  0  0  0  0  0  0  0  0
   11.9174    4.7268   24.1366 O   0  0  0  0  0  0  0  0  0  0  0  0
   10.0815    3.5925   25.4989 O   0  0  0  0  0  0  0  0  0  0  0  0
   12.1214    1.3090   23.7919 C   0  0  0  0  0  0  0  0  0  0  0  0
   13.1731    1.0569   24.5261 H   0  0  0  0  0  0  0  0  0  0  0  0
   12.1189    1.4388   25.0208 H   0  0  0  0  0  0  0  0  0  0  0  0
   11.1198    2.4267   22.3022 H   0  0  0  0  0  0  0  0  0  0  0  0
   10.0005    1.7960   23.4135 H   0  0  0  0  0  0  0  0  0  0  0  0
   13.0193    1.6237   22.6639 H   0  0  0  0  0  0  0  0  0  0  0  0
   10.4849    0.0618   24.3692 H   0  0  0  0  0  0  0  0  0  0  0  0
   12.0111   -0.8194   23.9981 H   0  0  0  0  0  0  0  0  0  0  0  0
   10.1972   -2.0641   21.6205 H   0  0  0  0  0  0  0  0  0  0  0  0
   10.1215   -1.9537   23.3890 H   0  0  0  0  0  0  0  0  0  0  0  0
    8.3886   -0.0598   23.0319 H   0  0  0  0  0  0  0  0  0  0  0  0
    8.4601    0.6688   20.7911 H   0  0  0  0  0  0  0  0  0  0  0  0
    8.7446   -0.9659   20.1724 H   0  0  0  0  0  0  0  0  0  0  0  0
    6.9173   -2.0033   24.0997 C   0  0  0  0  0  0  0  0  0  0  0  0
    6.9607   -0.9002   24.9623 C   0  0  0  0  0  0  0  0  0  0  0  0
    6.5117   -1.0205   26.2661 C   0  0  0  0  0  0  0  0  0  0  0  0
    6.5985    0.3616   27.3223 Cl  0  0  0  0  0  0  0  0  0  0  0  0
    5.9863   -2.2121   26.7599 C   0  0  0  0  0  0  0  0  0  0  0  0
    5.8962   -3.2904   25.9034 C   0  0  0  0  0  0  0  0  0  0  0  0
    6.3447   -3.1885   24.5893 C   0  0  0  0  0  0  0  0  0  0  0  0
    6.1692   -4.3904   23.7134 C   0  0  0  0  0  0  0  0  0  0  0  0
    5.4397   -5.3221   24.0278 O   0  0  0  0  0  0  0  0  0  0  0  0
    5.4737   -4.2357   26.2259 H   0  0  0  0  0  0  0  0  0  0  0  0
    5.6491   -2.2771   27.7894 H   0  0  0  0  0  0  0  0  0  0  0  0
    7.3173    0.0680   24.6349 H   0  0  0  0  0  0  0  0  0  0  0  0
    8.7830   -3.6064   22.9163 H   0  0  0  0  0  0  0  0  0  0  0  0
    8.1841   -3.4079   21.2638 H   0  0  0  0  0  0  0  0  0  0  0  0
    7.5933   -5.6351   21.0652 H   0  0  0  0  0  0  0  0  0  0  0  0
    6.4448   -6.3478   22.2320 H   0  0  0  0  0  0  0  0  0  0  0  0
    4.5691   -5.1711   21.2584 H   0  0  0  0  0  0  0  0  0  0  0  0
    5.6045   -4.2403   20.1764 H   0  0  0  0  0  0  0  0  0  0  0  0
    6.3186   -6.4091   19.2147 H   0  0  0  0  0  0  0  0  0  0  0  0
    4.7213   -5.9758   18.8524 H   0  0  0  0  0  0  0  0  0  0  0  0
    4.1461   -7.4033   20.9260 H   0  0  0  0  0  0  0  0  0  0  0  0
    4.4107   -8.1308   19.3333 H   0  0  0  0  0  0  0  0  0  0  0  0
    5.6912   -8.1534   20.5595 H   0  0  0  0  0  0  0  0  0  0  0  0
  1  2  1  0
  2  3  1  0
  3  4  1  0
  4  5  1  0
  5  6  1  0
  7  6  1  6
  7  8  1  0
  8  9  2  0
  8 10  1  0
 10 11  1  0
 11 12  2  0
 12 13  1  0
 13 14  2  0
 14 15  1  0
 15 16  2  0
 16 17  1  0
 17 18  2  0
 18 19  1  0
 19 20  2  0
 19 21  1  0
 18 22  1  0
 17 23  1  0
 16 24  1  0
 14 25  1  0
 12 26  1  0
 10 27  1  0
 27 28  1  0
 28 29  1  0
 29 30  1  0
 30 31  1  0
 31 32  1  0
 32 33  1  0
 33 34  1  0
 34 35  2  0
 34 36  2  0
 34 37  1  0
 37 38  1  0
 37 39  1  0
 33 40  1  0
 33 41  1  0
 32 42  1  0
 31 43  1  0
 31 44  1  0
 29 45  1  0
 29 46  1  0
 28 47  1  1
 27 48  1  0
 27 49  1  0
  7 50  1  0
 50 51  2  0
 51 52  1  0
 52 53  1  0
 52 54  2  0
 54 55  1  0
 55 56  2  0
 56 57  1  0
 57 58  2  0
 55 59  1  0
 54 60  1  0
 51 61  1  0
  6 62  1  0
  6 63  1  0
  4 64  1  0
  4 65  1  0
  3 66  1  0
  3 67  1  0
  2 68  1  0
  2 69  1  0
  1 70  1  0
  1 71  1  0
  1 72  1  0
 57  5  1  0
 28  7  1  0
 37 32  1  0
 56 50  1  0
 20 11  1  0
 20 15  1  0
M  CHG  1   2   1
M  END
>  <cnnaffinities>  (39) 
[6.71048]

>  <score>  (39) 
6.71048

>  <index>  (39) 
38

>  <Smiles>  (39) 
C([N+](C(C(N1C([C@@]2(C(=O)N(c3c(nc(c4c(c(c(c(c34)[H])[H])[H])[H])[H])[H])C([C@@]2(C(OC(C2(C(S(=O)(=O)C2([H])[H])([H])[H])[H])([H])[H])([H])[H])[H])([H])[H])c2c(c(Cl)c(c(c2C1=O)[H])[H])[H])([H])[H])([H])[H])([H])[H])([H])[H])([H])([H])[H]

>  <h>  (39) 
<NA>

>  <Training>  (39) 
True

>  <Success>  (39) 
True

>  <enamine_searched>  (39) 
False

>  <enamine_id>  (39) 
nan

$$$$

     RDKit          3D

 60 64  0  0  0  0  0  0  0  0999 V2000
    8.1465   -4.5467   24.1796 C   0  0  0  0  0  0  0  0  0  0  0  0
    8.2707   -3.0610   24.4822 C   0  0  0  0  0  0  0  0  0  0  0  0
    7.2966   -2.3354   23.7427 O   0  0  0  0  0  0  0  0  0  0  0  0
    7.7676   -1.7809   22.5337 C   0  0  1  0  0  0  0  0  0  0  0  0
    6.5959   -1.6143   21.5645 C   0  0  0  0  0  0  0  0  0  0  0  0
    6.9215   -0.4060   20.8360 N   0  0  0  0  0  0  0  0  0  0  0  0
    6.1416    0.1121   19.7638 C   0  0  0  0  0  0  0  0  0  0  0  0
    6.4546   -0.2098   18.4700 C   0  0  0  0  0  0  0  0  0  0  0  0
    5.7676    0.2330   17.3891 N   0  0  0  0  0  0  0  0  0  0  0  0
    4.7441    1.0202   17.5954 C   0  0  0  0  0  0  0  0  0  0  0  0
    4.2962    1.4257   18.8828 C   0  0  0  0  0  0  0  0  0  0  0  0
    3.1730    2.2799   19.0633 C   0  0  0  0  0  0  0  0  0  0  0  0
    2.7638    2.6386   20.3184 C   0  0  0  0  0  0  0  0  0  0  0  0
    3.4583    2.1580   21.4510 C   0  0  0  0  0  0  0  0  0  0  0  0
    4.5488    1.3356   21.3021 C   0  0  0  0  0  0  0  0  0  0  0  0
    5.0100    0.9536   20.0120 C   0  0  0  0  0  0  0  0  0  0  0  0
    5.0760    0.9787   22.1831 H   0  0  0  0  0  0  0  0  0  0  0  0
    3.1509    2.4563   22.4496 H   0  0  0  0  0  0  0  0  0  0  0  0
    1.9105    3.3034   20.4486 H   0  0  0  0  0  0  0  0  0  0  0  0
    2.6605    2.6443   18.1774 H   0  0  0  0  0  0  0  0  0  0  0  0
    4.2145    1.3791   16.7121 H   0  0  0  0  0  0  0  0  0  0  0  0
    7.2967   -0.8654   18.2509 H   0  0  0  0  0  0  0  0  0  0  0  0
    7.9177    0.3520   21.4059 C   0  0  0  0  0  0  0  0  0  0  0  0
    8.3069    1.4067   20.9525 O   0  0  0  0  0  0  0  0  0  0  0  0
    8.4332   -0.3782   22.6660 C   0  0  1  0  0  0  0  0  0  0  0  0
    7.9964    0.3336   23.9603 C   0  0  0  0  0  0  0  0  0  0  0  0
    8.6937    1.5965   24.1394 N   0  0  0  0  0  0  0  0  0  0  0  0
    7.9280    2.7422   24.5870 C   0  0  0  0  0  0  0  0  0  0  0  0
    6.9968    3.3363   23.5206 C   0  0  0  0  0  0  0  0  0  0  0  0
    5.7825    3.2124   23.6045 O   0  0  0  0  0  0  0  0  0  0  0  0
    7.5804    4.0234   22.5133 N   0  0  0  0  0  0  0  0  0  0  0  0
    6.7381    4.4648   21.4116 C   0  0  0  0  0  0  0  0  0  0  0  0
    6.2217    3.6111   20.9462 H   0  0  0  0  0  0  0  0  0  0  0  0
    7.3412    4.9850   20.6770 H   0  0  0  0  0  0  0  0  0  0  0  0
    5.9850    5.1704   21.7766 H   0  0  0  0  0  0  0  0  0  0  0  0
    8.5828    3.9723   22.4048 H   0  0  0  0  0  0  0  0  0  0  0  0
    7.2629    2.4546   25.4046 H   0  0  0  0  0  0  0  0  0  0  0  0
    8.6709    3.4567   24.9545 H   0  0  0  0  0  0  0  0  0  0  0  0
   10.0639    1.6646   24.1026 C   0  0  0  0  0  0  0  0  0  0  0  0
   10.7035    2.5783   24.6084 O   0  0  0  0  0  0  0  0  0  0  0  0
   10.7095    0.5459   23.3383 C   0  0  0  0  0  0  0  0  0  0  0  0
   12.1006    0.5055   23.2407 C   0  0  0  0  0  0  0  0  0  0  0  0
   12.7289   -0.3910   22.3872 C   0  0  0  0  0  0  0  0  0  0  0  0
   11.9343   -1.2339   21.5943 C   0  0  0  0  0  0  0  0  0  0  0  0
   12.5006   -2.2580   20.3011 Cl  0  0  0  0  0  0  0  0  0  0  0  0
   10.5667   -1.2390   21.7381 C   0  0  0  0  0  0  0  0  0  0  0  0
    9.9379   -0.3870   22.6365 C   0  0  0  0  0  0  0  0  0  0  0  0
   10.0021   -1.8915   21.0886 H   0  0  0  0  0  0  0  0  0  0  0  0
   13.8114   -0.4028   22.3368 H   0  0  0  0  0  0  0  0  0  0  0  0
   12.6791    1.2210   23.8212 H   0  0  0  0  0  0  0  0  0  0  0  0
    8.1675   -0.3435   24.8124 H   0  0  0  0  0  0  0  0  0  0  0  0
    6.9313    0.5512   23.8950 H   0  0  0  0  0  0  0  0  0  0  0  0
    6.4924   -2.4597   20.8755 H   0  0  0  0  0  0  0  0  0  0  0  0
    5.6635   -1.5290   22.1393 H   0  0  0  0  0  0  0  0  0  0  0  0
    8.5039   -2.4602   22.0907 H   0  0  0  0  0  0  0  0  0  0  0  0
    8.0683   -2.8632   25.5422 H   0  0  0  0  0  0  0  0  0  0  0  0
    9.2846   -2.6810   24.2598 H   0  0  0  0  0  0  0  0  0  0  0  0
    8.2959   -4.7223   23.1109 H   0  0  0  0  0  0  0  0  0  0  0  0
    8.8772   -5.1354   24.7463 H   0  0  0  0  0  0  0  0  0  0  0  0
    7.1408   -4.8978   24.4285 H   0  0  0  0  0  0  0  0  0  0  0  0
  1  2  1  0
  2  3  1  0
  3  4  1  0
  4  5  1  0
  5  6  1  0
  6  7  1  0
  7  8  2  0
  8  9  1  0
  9 10  2  0
 10 11  1  0
 11 12  2  0
 12 13  1  0
 13 14  2  0
 14 15  1  0
 15 16  2  0
 15 17  1  0
 14 18  1  0
 13 19  1  0
 12 20  1  0
 10 21  1  0
  8 22  1  0
  6 23  1  0
 23 24  2  0
 23 25  1  0
 25 26  1  1
 26 27  1  0
 27 28  1  0
 28 29  1  0
 29 30  2  0
 29 31  1  0
 31 32  1  0
 32 33  1  0
 32 34  1  0
 32 35  1  0
 31 36  1  0
 28 37  1  0
 28 38  1  0
 27 39  1  0
 39 40  2  0
 39 41  1  0
 41 42  2  0
 42 43  1  0
 43 44  2  0
 44 45  1  0
 44 46  1  0
 46 47  2  0
 46 48  1  0
 43 49  1  0
 42 50  1  0
 26 51  1  0
 26 52  1  0
  5 53  1  0
  5 54  1  0
  4 55  1  6
  2 56  1  0
  2 57  1  0
  1 58  1  0
  1 59  1  0
  1 60  1  0
 25  4  1  0
 47 41  1  0
 16  7  1  0
 47 25  1  0
 16 11  1  0
M  END
>  <cnnaffinities>  (40) 
[6.40153, 6.3906]

>  <score>  (40) 
6.40153

>  <index>  (40) 
39

>  <Smiles>  (40) 
C(C(O[C@]1(C(N(c2c(nc(c3c(c(c(c(c23)[H])[H])[H])[H])[H])[H])C(=O)[C@]21C(N(C(C(=O)N(C([H])([H])[H])[H])([H])[H])C(=O)c1c(c(c(Cl)c(c21)[H])[H])[H])([H])[H])([H])[H])[H])([H])[H])([H])([H])[H]

>  <h>  (40) 
<NA>

>  <Training>  (40) 
True

>  <Success>  (40) 
True

>  <enamine_searched>  (40) 
False

>  <enamine_id>  (40) 
nan

$$$$

     RDKit          3D

 57 61  0  0  0  0  0  0  0  0999 V2000
    6.9601    3.9014   21.2524 C   0  0  0  0  0  0  0  0  0  0  0  0
    7.3513    3.4660   22.5855 N   0  0  0  0  0  0  0  0  0  0  0  0
    8.6595    3.5672   22.9588 C   0  0  0  0  0  0  0  0  0  0  0  0
    9.4470    4.3004   22.3868 O   0  0  0  0  0  0  0  0  0  0  0  0
    9.0963    2.6818   24.1325 C   0  0  0  0  0  0  0  0  0  0  0  0
    9.3773    1.3320   23.6911 N   0  0  0  0  0  0  0  0  0  0  0  0
    8.2828    0.3433   23.7480 C   0  0  0  0  0  0  0  0  0  0  0  0
    8.2582   -0.5985   22.4758 C   0  0  2  0  0  0  0  0  0  0  0  0
    7.6582    0.2831   21.3212 C   0  0  0  0  0  0  0  0  0  0  0  0
    8.2336    1.1969   20.7572 O   0  0  0  0  0  0  0  0  0  0  0  0
    6.4020   -0.1496   21.0229 N   0  0  0  0  0  0  0  0  0  0  0  0
    5.7112    0.3354   19.8838 C   0  0  0  0  0  0  0  0  0  0  0  0
    6.1444    0.0176   18.6198 C   0  0  0  0  0  0  0  0  0  0  0  0
    5.5215    0.4201   17.4879 N   0  0  0  0  0  0  0  0  0  0  0  0
    4.4585    1.1746   17.6096 C   0  0  0  0  0  0  0  0  0  0  0  0
    3.9125    1.5897   18.8571 C   0  0  0  0  0  0  0  0  0  0  0  0
    2.7760    2.4370   18.9461 C   0  0  0  0  0  0  0  0  0  0  0  0
    2.2954    2.8223   20.1678 C   0  0  0  0  0  0  0  0  0  0  0  0
    2.9198    2.3797   21.3535 C   0  0  0  0  0  0  0  0  0  0  0  0
    4.0234    1.5623   21.2926 C   0  0  0  0  0  0  0  0  0  0  0  0
    4.5480    1.1477   20.0400 C   0  0  0  0  0  0  0  0  0  0  0  0
    4.5181    1.2514   22.2074 H   0  0  0  0  0  0  0  0  0  0  0  0
    2.5334    2.6914   22.3182 H   0  0  0  0  0  0  0  0  0  0  0  0
    1.4328    3.4780   20.2342 H   0  0  0  0  0  0  0  0  0  0  0  0
    2.3126    2.7763   18.0245 H   0  0  0  0  0  0  0  0  0  0  0  0
    3.9753    1.5007   16.6885 H   0  0  0  0  0  0  0  0  0  0  0  0
    7.0245   -0.6071   18.4802 H   0  0  0  0  0  0  0  0  0  0  0  0
    5.9228   -1.2004   21.8900 C   0  0  0  0  0  0  0  0  0  0  0  0
    7.1875   -1.7519   22.5486 C   0  0  2  0  0  0  0  0  0  0  0  0
    6.8417   -2.3884   23.9071 C   0  0  0  0  0  0  0  0  0  0  0  0
    7.8206   -3.3479   24.4315 C   0  0  0  0  0  0  0  0  0  0  0  0
    8.5728   -4.1377   24.8251 N   0  0  0  0  0  0  0  0  0  0  0  0
    5.9046   -2.9419   23.8011 H   0  0  0  0  0  0  0  0  0  0  0  0
    6.6594   -1.6149   24.6564 H   0  0  0  0  0  0  0  0  0  0  0  0
    7.6093   -2.5282   21.8970 H   0  0  0  0  0  0  0  0  0  0  0  0
    5.3877   -1.9579   21.3074 H   0  0  0  0  0  0  0  0  0  0  0  0
    5.2284   -0.8136   22.6502 H   0  0  0  0  0  0  0  0  0  0  0  0
    9.6752   -1.0138   22.2046 C   0  0  0  0  0  0  0  0  0  0  0  0
   10.3839   -2.3899   21.6177 C   0  0  0  0  0  0  0  0  0  0  0  0
   11.7534   -2.3009   21.6125 C   0  0  0  0  0  0  0  0  0  0  0  0
   12.0648   -4.1589   19.2843 Cl  0  0  0  0  0  0  0  0  0  0  0  0
   11.8639   -2.0713   21.3673 C   0  0  0  0  0  0  0  0  0  0  0  0
   12.1478   -0.8474   21.9302 C   0  0  0  0  0  0  0  0  0  0  0  0
   10.7770   -0.1548   22.4376 C   0  0  0  0  0  0  0  0  0  0  0  0
   10.6619    1.0754   23.1990 C   0  0  0  0  0  0  0  0  0  0  0  0
   11.5994    1.8353   23.3993 O   0  0  0  0  0  0  0  0  0  0  0  0
   12.7360   -0.1615   21.3649 H   0  0  0  0  0  0  0  0  0  0  0  0
   12.8343   -3.1396   19.3523 H   0  0  0  0  0  0  0  0  0  0  0  0
   10.0423   -3.1084   22.3208 H   0  0  0  0  0  0  0  0  0  0  0  0
    7.3318    0.8700   23.8118 H   0  0  0  0  0  0  0  0  0  0  0  0
    8.3911   -0.2690   24.6491 H   0  0  0  0  0  0  0  0  0  0  0  0
    8.3261    2.6600   24.9131 H   0  0  0  0  0  0  0  0  0  0  0  0
   10.0230    3.0912   24.5415 H   0  0  0  0  0  0  0  0  0  0  0  0
    6.7569    2.7894   23.0399 H   0  0  0  0  0  0  0  0  0  0  0  0
    5.9158    3.6218   21.0883 H   0  0  0  0  0  0  0  0  0  0  0  0
    7.0777    4.9829   21.1533 H   0  0  0  0  0  0  0  0  0  0  0  0
    7.5781    3.3948   20.5063 H   0  0  0  0  0  0  0  0  0  0  0  0
  1  2  1  0
  2  3  1  0
  3  4  2  0
  3  5  1  0
  5  6  1  0
  6  7  1  0
  8  7  1  1
  8  9  1  0
  9 10  2  0
  9 11  1  0
 11 12  1  0
 12 13  2  0
 13 14  1  0
 14 15  2  0
 15 16  1  0
 16 17  2  0
 17 18  1  0
 18 19  2  0
 19 20  1  0
 20 21  2  0
 20 22  1  0
 19 23  1  0
 18 24  1  0
 17 25  1  0
 15 26  1  0
 13 27  1  0
 11 28  1  0
 28 29  1  0
 29 30  1  0
 30 31  1  0
 31 32  3  0
 30 33  1  0
 30 34  1  0
 29 35  1  6
 28 36  1  0
 28 37  1  0
  8 38  1  0
 38 39  2  0
 39 40  1  0
 40 41  1  0
 40 42  2  0
 42 43  1  0
 43 44  2  0
 44 45  1  0
 45 46  2  0
 43 47  1  0
 42 48  1  0
 39 49  1  0
  7 50  1  0
  7 51  1  0
  5 52  1  0
  5 53  1  0
  2 54  1  0
  1 55  1  0
  1 56  1  0
  1 57  1  0
 45  6  1  0
 29  8  1  0
 44 38  1  0
 21 12  1  0
 21 16  1  0
M  END
>  <cnnaffinities>  (41) 
[6.73033]

>  <score>  (41) 
6.73033

>  <index>  (41) 
40

>  <Smiles>  (41) 
C(N(C(=O)C(N1C([C@@]2(C(=O)N(c3c(nc(c4c(c(c(c(c34)[H])[H])[H])[H])[H])[H])C([C@@]2(C(C#N)([H])[H])[H])([H])[H])c2c(c(Cl)c(c(c2C1=O)[H])[H])[H])([H])[H])([H])[H])[H])([H])([H])[H]

>  <h>  (41) 
<NA>

>  <Training>  (41) 
True

>  <Success>  (41) 
True

>  <enamine_searched>  (41) 
False

>  <enamine_id>  (41) 
nan

$$$$

     RDKit          3D

 68 73  0  0  0  0  0  0  0  0999 V2000
    7.1299   -2.4707   23.4513 C   0  0  0  0  0  0  0  0  0  0  0  0
    8.0072   -1.7823   22.3981 C   0  0  1  0  0  0  0  0  0  0  0  0
    7.3026   -1.7151   21.0261 C   0  0  0  0  0  0  0  0  0  0  0  0
    6.9323   -0.3251   20.8666 N   0  0  0  0  0  0  0  0  0  0  0  0
    6.1457    0.1285   19.7867 C   0  0  0  0  0  0  0  0  0  0  0  0
    6.4454   -0.2266   18.4942 C   0  0  0  0  0  0  0  0  0  0  0  0
    5.7712    0.2183   17.4085 N   0  0  0  0  0  0  0  0  0  0  0  0
    4.7535    1.0166   17.6092 C   0  0  0  0  0  0  0  0  0  0  0  0
    4.3055    1.4226   18.8975 C   0  0  0  0  0  0  0  0  0  0  0  0
    3.1825    2.2770   19.0628 C   0  0  0  0  0  0  0  0  0  0  0  0
    2.7507    2.6231   20.3143 C   0  0  0  0  0  0  0  0  0  0  0  0
    3.4160    2.1234   21.4577 C   0  0  0  0  0  0  0  0  0  0  0  0
    4.5089    1.3048   21.3223 C   0  0  0  0  0  0  0  0  0  0  0  0
    5.0019    0.9520   20.0315 C   0  0  0  0  0  0  0  0  0  0  0  0
    5.0124    0.9243   22.2056 H   0  0  0  0  0  0  0  0  0  0  0  0
    3.0736    2.4101   22.4497 H   0  0  0  0  0  0  0  0  0  0  0  0
    1.9009    3.2884   20.4393 H   0  0  0  0  0  0  0  0  0  0  0  0
    2.6826    2.6472   18.1718 H   0  0  0  0  0  0  0  0  0  0  0  0
    4.2237    1.3760   16.7270 H   0  0  0  0  0  0  0  0  0  0  0  0
    7.2920   -0.8784   18.2804 H   0  0  0  0  0  0  0  0  0  0  0  0
    7.6367    0.5268   21.6845 C   0  0  0  0  0  0  0  0  0  0  0  0
    7.6160    1.7419   21.6053 O   0  0  0  0  0  0  0  0  0  0  0  0
    8.4416   -0.3121   22.7038 C   0  0  1  0  0  0  0  0  0  0  0  0
    8.1187    0.1307   24.1397 C   0  0  0  0  0  0  0  0  0  0  0  0
    8.6035    1.4677   24.4219 N   0  0  0  0  0  0  0  0  0  0  0  0
    7.7725    2.3173   25.2502 C   0  0  0  0  0  0  0  0  0  0  0  0
    6.7424    3.0930   24.4343 C   0  0  0  0  0  0  0  0  0  0  0  0
    7.3668    4.1659   23.5904 N   0  0  0  0  0  4  0  0  0  0  0  0
    7.9188    5.2922   24.4530 C   0  0  0  0  0  0  0  0  0  0  0  0
    8.0235    6.6208   23.7122 C   0  0  0  0  0  0  0  0  0  0  0  0
    6.4047    7.2561   23.2602 S   0  0  0  0  0  0  0  0  0  0  0  0
    5.8234    7.8885   24.4427 O   0  0  0  0  0  0  0  0  0  0  0  0
    6.5450    8.0081   22.0177 O   0  0  0  0  0  0  0  0  0  0  0  0
    5.4869    5.7514   22.9261 C   0  0  0  0  0  0  0  0  0  0  0  0
    6.4349    4.6392   22.4898 C   0  0  0  0  0  0  0  0  0  0  0  0
    5.8603    3.7748   22.1540 H   0  0  0  0  0  0  0  0  0  0  0  0
    7.0531    4.9697   21.6505 H   0  0  0  0  0  0  0  0  0  0  0  0
    4.7726    6.0248   22.1449 H   0  0  0  0  0  0  0  0  0  0  0  0
    4.9467    5.5078   23.8466 H   0  0  0  0  0  0  0  0  0  0  0  0
    8.6015    6.5483   22.7856 H   0  0  0  0  0  0  0  0  0  0  0  0
    8.4430    7.4096   24.3421 H   0  0  0  0  0  0  0  0  0  0  0  0
    7.2656    5.4122   25.3249 H   0  0  0  0  0  0  0  0  0  0  0  0
    8.9107    5.0010   24.8031 H   0  0  0  0  0  0  0  0  0  0  0  0
    8.1562    3.7146   23.0926 H   0  0  0  0  0  0  0  0  0  0  0  0
    6.2208    2.4095   23.7544 H   0  0  0  0  0  0  0  0  0  0  0  0
    6.0043    3.5427   25.1083 H   0  0  0  0  0  0  0  0  0  0  0  0
    8.4431    2.9822   25.7936 H   0  0  0  0  0  0  0  0  0  0  0  0
    7.2557    1.6781   25.9728 H   0  0  0  0  0  0  0  0  0  0  0  0
    9.8830    1.8412   24.1384 C   0  0  0  0  0  0  0  0  0  0  0  0
   10.3908    2.8664   24.5826 O   0  0  0  0  0  0  0  0  0  0  0  0
   10.6140    0.9415   23.1877 C   0  0  0  0  0  0  0  0  0  0  0  0
   11.9536    1.2181   22.9137 C   0  0  0  0  0  0  0  0  0  0  0  0
   12.6749    0.3978   22.0579 C   0  0  0  0  0  0  0  0  0  0  0  0
   12.0066   -0.6661   21.4490 C   0  0  0  0  0  0  0  0  0  0  0  0
   12.7184   -1.5971   20.1376 Cl  0  0  0  0  0  0  0  0  0  0  0  0
   10.6527   -0.8660   21.6167 C   0  0  0  0  0  0  0  0  0  0  0  0
    9.9363   -0.0914   22.5249 C   0  0  0  0  0  0  0  0  0  0  0  0
   10.1747   -1.5725   20.9477 H   0  0  0  0  0  0  0  0  0  0  0  0
   13.7043    0.6204   21.8039 H   0  0  0  0  0  0  0  0  0  0  0  0
   12.3806    2.1108   23.3659 H   0  0  0  0  0  0  0  0  0  0  0  0
    8.5865   -0.5982   24.8209 H   0  0  0  0  0  0  0  0  0  0  0  0
    7.0380    0.1320   24.2920 H   0  0  0  0  0  0  0  0  0  0  0  0
    6.4093   -2.3479   20.9870 H   0  0  0  0  0  0  0  0  0  0  0  0
    7.9771   -2.0164   20.2168 H   0  0  0  0  0  0  0  0  0  0  0  0
    8.9077   -2.3978   22.3172 H   0  0  0  0  0  0  0  0  0  0  0  0
    7.6477   -2.5537   24.4125 H   0  0  0  0  0  0  0  0  0  0  0  0
    6.8969   -3.4906   23.1271 H   0  0  0  0  0  0  0  0  0  0  0  0
    6.1832   -1.9416   23.6087 H   0  0  0  0  0  0  0  0  0  0  0  0
  1  2  1  0
  2  3  1  0
  3  4  1  0
  4  5  1  0
  5  6  2  0
  6  7  1  0
  7  8  2  0
  8  9  1  0
  9 10  2  0
 10 11  1  0
 11 12  2  0
 12 13  1  0
 13 14  2  0
 13 15  1  0
 12 16  1  0
 11 17  1  0
 10 18  1  0
  8 19  1  0
  6 20  1  0
  4 21  1  0
 21 22  2  0
 21 23  1  0
 23 24  1  1
 24 25  1  0
 25 26  1  0
 26 27  1  0
 27 28  1  0
 28 29  1  0
 29 30  1  0
 30 31  1  0
 31 32  2  0
 31 33  2  0
 31 34  1  0
 34 35  1  0
 35 36  1  0
 35 37  1  0
 34 38  1  0
 34 39  1  0
 30 40  1  0
 30 41  1  0
 29 42  1  0
 29 43  1  0
 28 44  1  0
 27 45  1  0
 27 46  1  0
 26 47  1  0
 26 48  1  0
 25 49  1  0
 49 50  2  0
 49 51  1  0
 51 52  2  0
 52 53  1  0
 53 54  2  0
 54 55  1  0
 54 56  1  0
 56 57  2  0
 56 58  1  0
 53 59  1  0
 52 60  1  0
 24 61  1  0
 24 62  1  0
  3 63  1  0
  3 64  1  0
  2 65  1  6
  1 66  1  0
  1 67  1  0
  1 68  1  0
 23  2  1  0
 35 28  1  0
 57 51  1  0
 14  5  1  0
 57 23  1  0
 14  9  1  0
M  CHG  1  28   1
M  END
>  <cnnaffinities>  (42) 
[6.81282]

>  <score>  (42) 
6.81282

>  <index>  (42) 
41

>  <Smiles>  (42) 
C([C@]1(C(N(c2c(nc(c3c(c(c(c(c23)[H])[H])[H])[H])[H])[H])C(=O)[C@]21C(N(C(C([N+]1(C(C(S(=O)(=O)C(C1([H])[H])([H])[H])([H])[H])([H])[H])[H])([H])[H])([H])[H])C(=O)c1c(c(c(Cl)c(c21)[H])[H])[H])([H])[H])([H])[H])[H])([H])([H])[H]

>  <h>  (42) 
<NA>

>  <Training>  (42) 
True

>  <Success>  (42) 
True

>  <enamine_searched>  (42) 
False

>  <enamine_id>  (42) 
nan

$$$$

     RDKit          3D

 60 65  0  0  0  0  0  0  0  0999 V2000
    7.1480    3.7177   21.2006 C   0  0  0  0  0  0  0  0  0  0  0  0
    7.5634    3.2888   22.5254 N   0  0  0  0  0  0  0  0  0  0  0  0
    8.8919    3.2689   22.8218 C   0  0  0  0  0  0  0  0  0  0  0  0
    9.7244    3.8147   22.1198 O   0  0  0  0  0  0  0  0  0  0  0  0
    9.2932    2.4593   24.0578 C   0  0  0  0  0  0  0  0  0  0  0  0
    9.5943    1.1019   23.6582 N   0  0  0  0  0  0  0  0  0  0  0  0
    8.4917    0.1191   23.6636 C   0  0  0  0  0  0  0  0  0  0  0  0
    8.4548   -0.7665   22.3566 C   0  0  2  0  0  0  0  0  0  0  0  0
    7.7678    0.0984   21.2316 C   0  0  0  0  0  0  0  0  0  0  0  0
    8.2743    1.0425   20.6520 O   0  0  0  0  0  0  0  0  0  0  0  0
    6.5328   -0.4110   20.9541 N   0  0  0  0  0  0  0  0  0  0  0  0
    5.7955    0.0772   19.8463 C   0  0  0  0  0  0  0  0  0  0  0  0
    6.1696   -0.2528   18.5672 C   0  0  0  0  0  0  0  0  0  0  0  0
    5.5494    0.2115   17.4586 N   0  0  0  0  0  0  0  0  0  0  0  0
    4.5507    1.0427   17.6225 C   0  0  0  0  0  0  0  0  0  0  0  0
    4.0639    1.4670   18.8914 C   0  0  0  0  0  0  0  0  0  0  0  0
    2.9996    2.3975   19.0268 C   0  0  0  0  0  0  0  0  0  0  0  0
    2.5621    2.7749   20.2670 C   0  0  0  0  0  0  0  0  0  0  0  0
    3.1592    2.2392   21.4294 C   0  0  0  0  0  0  0  0  0  0  0  0
    4.1996    1.3459   21.3263 C   0  0  0  0  0  0  0  0  0  0  0  0
    4.6852    0.9485   20.0509 C   0  0  0  0  0  0  0  0  0  0  0  0
    4.6680    0.9513   22.2236 H   0  0  0  0  0  0  0  0  0  0  0  0
    2.8038    2.5419   22.4089 H   0  0  0  0  0  0  0  0  0  0  0  0
    1.7540    3.4948   20.3665 H   0  0  0  0  0  0  0  0  0  0  0  0
    2.5541    2.8041   18.1238 H   0  0  0  0  0  0  0  0  0  0  0  0
    4.0714    1.4262   16.7216 H   0  0  0  0  0  0  0  0  0  0  0  0
    7.0075   -0.9274   18.4002 H   0  0  0  0  0  0  0  0  0  0  0  0
    6.1477   -1.5243   21.7852 C   0  0  0  0  0  0  0  0  0  0  0  0
    7.4617   -1.9790   22.4236 C   0  0  2  0  0  0  0  0  0  0  0  0
    7.1967   -2.6971   23.7561 C   0  0  0  0  0  0  0  0  0  0  0  0
    6.3922   -3.9234   23.4525 C   0  0  0  0  0  0  0  0  0  0  0  0
    6.8638   -4.9708   22.7874 N   0  0  0  0  0  0  0  0  0  0  0  0
    5.8137   -5.7758   22.6348 N   0  0  0  0  0  0  0  0  0  0  0  0
    4.7623   -5.2277   23.1835 N   0  0  0  0  0  2  0  0  0  0  0  0
    5.0995   -4.0532   23.7127 N   0  0  0  0  0  0  0  0  0  0  0  0
    6.6148   -2.0619   24.4273 H   0  0  0  0  0  0  0  0  0  0  0  0
    8.0982   -3.0020   24.2930 H   0  0  0  0  0  0  0  0  0  0  0  0
    7.9235   -2.7134   21.7472 H   0  0  0  0  0  0  0  0  0  0  0  0
    5.6807   -2.3347   21.2122 H   0  0  0  0  0  0  0  0  0  0  0  0
    5.4316   -1.2146   22.5609 H   0  0  0  0  0  0  0  0  0  0  0  0
    9.8598   -1.1351   22.0372 C   0  0  0  0  0  0  0  0  0  0  0  0
   10.5144   -2.4563   21.3467 C   0  0  0  0  0  0  0  0  0  0  0  0
   11.8844   -2.3783   21.2567 C   0  0  0  0  0  0  0  0  0  0  0  0
   11.9717   -4.4210   19.0879 Cl  0  0  0  0  0  0  0  0  0  0  0  0
   11.9852   -2.1293   21.0255 C   0  0  0  0  0  0  0  0  0  0  0  0
   12.3099   -0.9597   21.6695 C   0  0  0  0  0  0  0  0  0  0  0  0
   10.9631   -0.2849   22.2802 C   0  0  0  0  0  0  0  0  0  0  0  0
   10.8703    0.8797   23.1218 C   0  0  0  0  0  0  0  0  0  0  0  0
   11.8144    1.6212   23.3506 O   0  0  0  0  0  0  0  0  0  0  0  0
   12.8887   -0.2550   21.1203 H   0  0  0  0  0  0  0  0  0  0  0  0
   12.8302   -3.4685   19.0503 H   0  0  0  0  0  0  0  0  0  0  0  0
   10.2182   -3.1891   22.0491 H   0  0  0  0  0  0  0  0  0  0  0  0
    8.6036   -0.5420   24.5329 H   0  0  0  0  0  0  0  0  0  0  0  0
    7.5455    0.6525   23.7492 H   0  0  0  0  0  0  0  0  0  0  0  0
   10.2098    2.8832   24.4742 H   0  0  0  0  0  0  0  0  0  0  0  0
    8.5056    2.4525   24.8199 H   0  0  0  0  0  0  0  0  0  0  0  0
    6.9178    2.7381   23.0675 H   0  0  0  0  0  0  0  0  0  0  0  0
    6.1350    3.3505   21.0092 H   0  0  0  0  0  0  0  0  0  0  0  0
    7.1734    4.8091   21.1190 H   0  0  0  0  0  0  0  0  0  0  0  0
    7.8265    3.2780   20.4663 H   0  0  0  0  0  0  0  0  0  0  0  0
  1  2  1  0
  2  3  1  0
  3  4  2  0
  3  5  1  0
  5  6  1  0
  6  7  1  0
  8  7  1  1
  8  9  1  0
  9 10  2  0
  9 11  1  0
 11 12  1  0
 12 13  2  0
 13 14  1  0
 14 15  2  0
 15 16  1  0
 16 17  2  0
 17 18  1  0
 18 19  2  0
 19 20  1  0
 20 21  2  0
 20 22  1  0
 19 23  1  0
 18 24  1  0
 17 25  1  0
 15 26  1  0
 13 27  1  0
 11 28  1  0
 28 29  1  0
 29 30  1  0
 30 31  1  0
 31 32  1  0
 32 33  2  0
 33 34  1  0
 34 35  1  0
 30 36  1  0
 30 37  1  0
 29 38  1  6
 28 39  1  0
 28 40  1  0
  8 41  1  0
 41 42  2  0
 42 43  1  0
 43 44  1  0
 43 45  2  0
 45 46  1  0
 46 47  2  0
 47 48  1  0
 48 49  2  0
 46 50  1  0
 45 51  1  0
 42 52  1  0
  7 53  1  0
  7 54  1  0
  5 55  1  0
  5 56  1  0
  2 57  1  0
  1 58  1  0
  1 59  1  0
  1 60  1  0
 48  6  1  0
 29  8  1  0
 35 31  2  0
 47 41  1  0
 21 12  1  0
 21 16  1  0
M  CHG  1  34  -1
M  END
>  <cnnaffinities>  (43) 
[7.16295]

>  <score>  (43) 
7.16295

>  <index>  (43) 
42

>  <Smiles>  (43) 
C(N(C(=O)C(N1C([C@@]2(C(=O)N(c3c(nc(c4c(c(c(c(c34)[H])[H])[H])[H])[H])[H])C([C@@]2(C(c2nn[n-]n2)([H])[H])[H])([H])[H])c2c(c(Cl)c(c(c2C1=O)[H])[H])[H])([H])[H])([H])[H])[H])([H])([H])[H]

>  <h>  (43) 
<NA>

>  <Training>  (43) 
True

>  <Success>  (43) 
True

>  <enamine_searched>  (43) 
False

>  <enamine_id>  (43) 
nan

$$$$

     RDKit          3D

 62 67  0  0  0  0  0  0  0  0999 V2000
    6.5053    4.2598   28.0456 C   0  0  0  0  0  0  0  0  0  0  0  0
    5.2337    3.9506   27.2520 C   0  0  0  0  0  0  0  0  0  0  0  0
    5.4358    3.9962   25.8074 N   0  0  0  0  0  0  0  0  0  0  0  0
    5.1904    5.1416   25.1514 N   0  0  0  0  0  0  0  0  0  0  0  0
    5.5164    4.9036   23.8878 C   0  0  0  0  0  0  0  0  0  0  0  0
    5.9903    3.5842   23.7277 C   0  0  0  0  0  0  0  0  0  0  0  0
    5.9431    3.0347   24.9886 C   0  0  0  0  0  0  0  0  0  0  0  0
    6.3075    1.6409   25.4150 C   0  0  0  0  0  0  0  0  0  0  0  0
    7.4346    1.0995   24.6733 N   0  0  0  0  0  0  0  0  0  0  0  0
    7.3287   -0.2290   24.0979 C   0  0  0  0  0  0  0  0  0  0  0  0
    8.2162   -0.3989   22.8369 C   0  0  2  0  0  0  0  0  0  0  0  0
    7.6418    0.4482   21.6719 C   0  0  0  0  0  0  0  0  0  0  0  0
    7.7695    1.6466   21.4973 O   0  0  0  0  0  0  0  0  0  0  0  0
    6.9340   -0.3808   20.8398 N   0  0  0  0  0  0  0  0  0  0  0  0
    6.1449    0.1142   19.7713 C   0  0  0  0  0  0  0  0  0  0  0  0
    6.4452   -0.2223   18.4761 C   0  0  0  0  0  0  0  0  0  0  0  0
    5.7635    0.2246   17.3958 N   0  0  0  0  0  0  0  0  0  0  0  0
    4.7458    1.0191   17.6022 C   0  0  0  0  0  0  0  0  0  0  0  0
    4.2997    1.4229   18.8900 C   0  0  0  0  0  0  0  0  0  0  0  0
    3.1757    2.2761   19.0642 C   0  0  0  0  0  0  0  0  0  0  0  0
    2.7555    2.6291   20.3141 C   0  0  0  0  0  0  0  0  0  0  0  0
    3.4347    2.1310   21.4516 C   0  0  0  0  0  0  0  0  0  0  0  0
    4.5200    1.3045   21.3076 C   0  0  0  0  0  0  0  0  0  0  0  0
    5.0055    0.9477   20.0197 C   0  0  0  0  0  0  0  0  0  0  0  0
    5.0253    0.9187   22.1891 H   0  0  0  0  0  0  0  0  0  0  0  0
    3.0955    2.4148   22.4433 H   0  0  0  0  0  0  0  0  0  0  0  0
    1.9044    3.2930   20.4432 H   0  0  0  0  0  0  0  0  0  0  0  0
    2.6676    2.6428   18.1740 H   0  0  0  0  0  0  0  0  0  0  0  0
    4.2185    1.3823   16.7187 H   0  0  0  0  0  0  0  0  0  0  0  0
    7.2879   -0.8769   18.2593 H   0  0  0  0  0  0  0  0  0  0  0  0
    6.9524   -1.7747   21.2410 C   0  0  0  0  0  0  0  0  0  0  0  0
    8.0985   -1.8518   22.2698 C   0  0  2  0  0  0  0  0  0  0  0  0
    7.9078   -2.9855   23.2867 C   0  0  0  0  0  0  0  0  0  0  0  0
    7.9342   -3.9661   22.7944 H   0  0  0  0  0  0  0  0  0  0  0  0
    8.6846   -2.9822   24.0623 H   0  0  0  0  0  0  0  0  0  0  0  0
    6.9358   -2.9042   23.7913 H   0  0  0  0  0  0  0  0  0  0  0  0
    9.0265   -2.0375   21.7214 H   0  0  0  0  0  0  0  0  0  0  0  0
    7.1188   -2.3983   20.3645 H   0  0  0  0  0  0  0  0  0  0  0  0
    5.9926   -2.0809   21.6859 H   0  0  0  0  0  0  0  0  0  0  0  0
    9.6167    0.0711   23.1642 C   0  0  0  0  0  0  0  0  0  0  0  0
   10.7213   -0.3184   22.3956 C   0  0  0  0  0  0  0  0  0  0  0  0
   11.9678    0.1869   22.7022 C   0  0  0  0  0  0  0  0  0  0  0  0
   13.0203   -0.1793   21.9537 F   0  0  0  0  0  0  0  0  0  0  0  0
   12.1783    1.0843   23.7436 C   0  0  0  0  0  0  0  0  0  0  0  0
   11.0801    1.5190   24.4552 C   0  0  0  0  0  0  0  0  0  0  0  0
    9.8101    1.0374   24.1615 C   0  0  0  0  0  0  0  0  0  0  0  0
    8.6654    1.6344   24.9293 C   0  0  0  0  0  0  0  0  0  0  0  0
    8.8283    2.5437   25.7311 O   0  0  0  0  0  0  0  0  0  0  0  0
   11.1189    2.2633   25.2382 H   0  0  0  0  0  0  0  0  0  0  0  0
   13.1864    1.4298   23.9328 H   0  0  0  0  0  0  0  0  0  0  0  0
   10.6392   -0.9807   21.5388 H   0  0  0  0  0  0  0  0  0  0  0  0
    7.6238   -0.9920   24.8365 H   0  0  0  0  0  0  0  0  0  0  0  0
    6.2880   -0.3986   23.8078 H   0  0  0  0  0  0  0  0  0  0  0  0
    5.4690    0.9692   25.2142 H   0  0  0  0  0  0  0  0  0  0  0  0
    6.5111    1.6086   26.4935 H   0  0  0  0  0  0  0  0  0  0  0  0
    6.3230    3.0568   22.8401 H   0  0  0  0  0  0  0  0  0  0  0  0
    5.4042    5.7050   23.1640 H   0  0  0  0  0  0  0  0  0  0  0  0
    4.4457    4.6836   27.4622 H   0  0  0  0  0  0  0  0  0  0  0  0
    4.8440    2.9550   27.5035 H   0  0  0  0  0  0  0  0  0  0  0  0
    7.3068    3.5485   27.8084 H   0  0  0  0  0  0  0  0  0  0  0  0
    6.2900    4.1993   29.1178 H   0  0  0  0  0  0  0  0  0  0  0  0
    6.8617    5.2721   27.8253 H   0  0  0  0  0  0  0  0  0  0  0  0
  1  2  1  0
  2  3  1  0
  3  4  1  0
  4  5  2  0
  5  6  1  0
  6  7  2  0
  7  8  1  0
  8  9  1  0
  9 10  1  0
 11 10  1  1
 11 12  1  0
 12 13  2  0
 12 14  1  0
 14 15  1  0
 15 16  2  0
 16 17  1  0
 17 18  2  0
 18 19  1  0
 19 20  2  0
 20 21  1  0
 21 22  2  0
 22 23  1  0
 23 24  2  0
 23 25  1  0
 22 26  1  0
 21 27  1  0
 20 28  1  0
 18 29  1  0
 16 30  1  0
 14 31  1  0
 31 32  1  0
 32 33  1  0
 33 34  1  0
 33 35  1  0
 33 36  1  0
 32 37  1  6
 31 38  1  0
 31 39  1  0
 11 40  1  0
 40 41  2  0
 41 42  1  0
 42 43  1  0
 42 44  2  0
 44 45  1  0
 45 46  2  0
 46 47  1  0
 47 48  2  0
 45 49  1  0
 44 50  1  0
 41 51  1  0
 10 52  1  0
 10 53  1  0
  8 54  1  0
  8 55  1  0
  6 56  1  0
  5 57  1  0
  2 58  1  0
  2 59  1  0
  1 60  1  0
  1 61  1  0
  1 62  1  0
  7  3  1  0
 47  9  1  0
 32 11  1  0
 46 40  1  0
 24 15  1  0
 24 19  1  0
M  END
>  <cnnaffinities>  (44) 
[6.76958, 6.74286]

>  <score>  (44) 
6.76958

>  <index>  (44) 
43

>  <Smiles>  (44) 
C(C(n1nc(c(c1C(N1C([C@@]2(C(=O)N(c3c(nc(c4c(c(c(c(c34)[H])[H])[H])[H])[H])[H])C([C@@]2(C([H])([H])[H])[H])([H])[H])c2c(c(F)c(c(c2C1=O)[H])[H])[H])([H])[H])([H])[H])[H])[H])([H])[H])([H])([H])[H]

>  <h>  (44) 
<NA>

>  <Training>  (44) 
True

>  <Success>  (44) 
True

>  <enamine_searched>  (44) 
False

>  <enamine_id>  (44) 
nan

$$$$

     RDKit          3D

 56 60  0  0  0  0  0  0  0  0999 V2000
    6.5001    4.2709   21.2577 C   0  0  0  0  0  0  0  0  0  0  0  0
    7.4874    3.9063   22.2670 N   0  0  0  0  0  0  0  0  0  0  0  0
    7.0479    3.3060   23.4059 C   0  0  0  0  0  0  0  0  0  0  0  0
    5.8568    3.1465   23.6335 O   0  0  0  0  0  0  0  0  0  0  0  0
    8.1156    2.8500   24.4196 C   0  0  0  0  0  0  0  0  0  0  0  0
    8.7975    1.6427   23.9689 N   0  0  0  0  0  0  0  0  0  0  0  0
    8.0459    0.3985   23.8369 C   0  0  0  0  0  0  0  0  0  0  0  0
    8.4518   -0.4049   22.5731 C   0  0  2  0  0  0  0  0  0  0  0  0
    7.9386    0.2758   21.2858 C   0  0  0  0  0  0  0  0  0  0  0  0
    8.4130    1.2492   20.7276 O   0  0  0  0  0  0  0  0  0  0  0  0
    6.8546   -0.4232   20.8167 N   0  0  0  0  0  0  0  0  0  0  0  0
    6.0943    0.0903   19.7428 C   0  0  0  0  0  0  0  0  0  0  0  0
    6.4537   -0.1891   18.4500 C   0  0  0  0  0  0  0  0  0  0  0  0
    5.7744    0.2600   17.3717 N   0  0  0  0  0  0  0  0  0  0  0  0
    4.7290    1.0224   17.5806 C   0  0  0  0  0  0  0  0  0  0  0  0
    4.2668    1.4075   18.8711 C   0  0  0  0  0  0  0  0  0  0  0  0
    3.1596    2.2746   19.0567 C   0  0  0  0  0  0  0  0  0  0  0  0
    2.7676    2.6428   20.3158 C   0  0  0  0  0  0  0  0  0  0  0  0
    3.4641    2.1653   21.4498 C   0  0  0  0  0  0  0  0  0  0  0  0
    4.5390    1.3206   21.2945 C   0  0  0  0  0  0  0  0  0  0  0  0
    4.9663    0.9219   19.9975 C   0  0  0  0  0  0  0  0  0  0  0  0
    5.1116    1.0084   22.1639 H   0  0  0  0  0  0  0  0  0  0  0  0
    3.1810    2.4954   22.4448 H   0  0  0  0  0  0  0  0  0  0  0  0
    1.9266    3.3168   20.4510 H   0  0  0  0  0  0  0  0  0  0  0  0
    2.6489    2.6479   18.1743 H   0  0  0  0  0  0  0  0  0  0  0  0
    4.1943    1.3844   16.7027 H   0  0  0  0  0  0  0  0  0  0  0  0
    7.3302   -0.8020   18.2479 H   0  0  0  0  0  0  0  0  0  0  0  0
    6.4643   -1.5425   21.6413 C   0  0  0  0  0  0  0  0  0  0  0  0
    7.7311   -1.7841   22.4797 C   0  0  2  0  0  0  0  0  0  0  0  0
    7.4062   -2.5307   23.7630 C   0  0  0  0  0  0  0  0  0  0  0  0
    8.8794   -2.9805   24.6689 Cl  0  0  0  0  0  0  0  0  0  0  0  0
    6.7803   -1.9362   24.4313 H   0  0  0  0  0  0  0  0  0  0  0  0
    6.8702   -3.4577   23.5469 H   0  0  0  0  0  0  0  0  0  0  0  0
    8.3809   -2.4319   21.8925 H   0  0  0  0  0  0  0  0  0  0  0  0
    5.5878   -1.3029   22.2638 H   0  0  0  0  0  0  0  0  0  0  0  0
    6.2014   -2.4112   21.0276 H   0  0  0  0  0  0  0  0  0  0  0  0
    9.9623   -0.4562   22.4981 C   0  0  0  0  0  0  0  0  0  0  0  0
   10.5797   -1.3132   21.5801 C   0  0  0  0  0  0  0  0  0  0  0  0
   11.9375   -1.2434   21.3518 C   0  0  0  0  0  0  0  0  0  0  0  0
   12.6088   -2.2412   20.0908 Cl  0  0  0  0  0  0  0  0  0  0  0  0
   12.7388   -0.3431   22.0512 C   0  0  0  0  0  0  0  0  0  0  0  0
   12.1462    0.4830   22.9793 C   0  0  0  0  0  0  0  0  0  0  0  0
   10.7638    0.4848   23.1538 C   0  0  0  0  0  0  0  0  0  0  0  0
   10.1683    1.6219   23.9349 C   0  0  0  0  0  0  0  0  0  0  0  0
   10.8592    2.4931   24.4443 O   0  0  0  0  0  0  0  0  0  0  0  0
   12.7379    1.1706   23.5682 H   0  0  0  0  0  0  0  0  0  0  0  0
   13.8001   -0.2631   21.8542 H   0  0  0  0  0  0  0  0  0  0  0  0
   10.0186   -2.0107   20.9740 H   0  0  0  0  0  0  0  0  0  0  0  0
    6.9828    0.6512   23.7825 H   0  0  0  0  0  0  0  0  0  0  0  0
    8.2219   -0.2284   24.7249 H   0  0  0  0  0  0  0  0  0  0  0  0
    7.6176    2.6953   25.3906 H   0  0  0  0  0  0  0  0  0  0  0  0
    8.8981    3.6045   24.5669 H   0  0  0  0  0  0  0  0  0  0  0  0
    8.4256    3.6694   21.9674 H   0  0  0  0  0  0  0  0  0  0  0  0
    5.7628    4.9567   21.6861 H   0  0  0  0  0  0  0  0  0  0  0  0
    6.9951    4.7710   20.4258 H   0  0  0  0  0  0  0  0  0  0  0  0
    5.9648    3.3903   20.8810 H   0  0  0  0  0  0  0  0  0  0  0  0
  1  2  1  0
  2  3  1  0
  3  4  2  0
  3  5  1  0
  5  6  1  0
  6  7  1  0
  8  7  1  1
  8  9  1  0
  9 10  2  0
  9 11  1  0
 11 12  1  0
 12 13  2  0
 13 14  1  0
 14 15  2  0
 15 16  1  0
 16 17  2  0
 17 18  1  0
 18 19  2  0
 19 20  1  0
 20 21  2  0
 20 22  1  0
 19 23  1  0
 18 24  1  0
 17 25  1  0
 15 26  1  0
 13 27  1  0
 11 28  1  0
 28 29  1  0
 29 30  1  0
 30 31  1  0
 30 32  1  0
 30 33  1  0
 29 34  1  6
 28 35  1  0
 28 36  1  0
  8 37  1  0
 37 38  2  0
 38 39  1  0
 39 40  1  0
 39 41  2  0
 41 42  1  0
 42 43  2  0
 43 44  1  0
 44 45  2  0
 42 46  1  0
 41 47  1  0
 38 48  1  0
  7 49  1  0
  7 50  1  0
  5 51  1  0
  5 52  1  0
  2 53  1  0
  1 54  1  0
  1 55  1  0
  1 56  1  0
 44  6  1  0
 29  8  1  0
 43 37  1  0
 21 12  1  0
 21 16  1  0
M  END
>  <cnnaffinities>  (45) 
[6.83937]

>  <score>  (45) 
6.83937

>  <index>  (45) 
44

>  <Smiles>  (45) 
C(N(C(=O)C(N1C([C@@]2(C(=O)N(c3c(nc(c4c(c(c(c(c34)[H])[H])[H])[H])[H])[H])C([C@@]2(C(Cl)([H])[H])[H])([H])[H])c2c(c(Cl)c(c(c2C1=O)[H])[H])[H])([H])[H])([H])[H])[H])([H])([H])[H]

>  <h>  (45) 
<NA>

>  <Training>  (45) 
True

>  <Success>  (45) 
True

>  <enamine_searched>  (45) 
False

>  <enamine_id>  (45) 
nan

$$$$

     RDKit          3D

 60 64  0  0  0  0  0  0  0  0999 V2000
    6.5151    4.2883   21.2799 C   0  0  0  0  0  0  0  0  0  0  0  0
    7.5033    3.9316   22.2911 N   0  0  0  0  0  0  0  0  0  0  0  0
    7.0484    3.3126   23.4211 C   0  0  0  0  0  0  0  0  0  0  0  0
    5.8561    3.1311   23.6249 O   0  0  0  0  0  0  0  0  0  0  0  0
    8.1091    2.8540   24.4394 C   0  0  0  0  0  0  0  0  0  0  0  0
    8.7799    1.6410   23.9936 N   0  0  0  0  0  0  0  0  0  0  0  0
    8.0177    0.4012   23.8634 C   0  0  0  0  0  0  0  0  0  0  0  0
    8.4218   -0.4042   22.6012 C   0  0  2  0  0  0  0  0  0  0  0  0
    7.9306    0.2852   21.3078 C   0  0  0  0  0  0  0  0  0  0  0  0
    8.4092    1.2582   20.7620 O   0  0  0  0  0  0  0  0  0  0  0  0
    6.8646   -0.4244   20.8132 N   0  0  0  0  0  0  0  0  0  0  0  0
    6.1042    0.0948   19.7432 C   0  0  0  0  0  0  0  0  0  0  0  0
    6.4615   -0.1875   18.4519 C   0  0  0  0  0  0  0  0  0  0  0  0
    5.7828    0.2594   17.3730 N   0  0  0  0  0  0  0  0  0  0  0  0
    4.7369    1.0207   17.5849 C   0  0  0  0  0  0  0  0  0  0  0  0
    4.2784    1.4085   18.8763 C   0  0  0  0  0  0  0  0  0  0  0  0
    3.1699    2.2728   19.0589 C   0  0  0  0  0  0  0  0  0  0  0  0
    2.7749    2.6407   20.3171 C   0  0  0  0  0  0  0  0  0  0  0  0
    3.4712    2.1653   21.4520 C   0  0  0  0  0  0  0  0  0  0  0  0
    4.5479    1.3236   21.3008 C   0  0  0  0  0  0  0  0  0  0  0  0
    4.9775    0.9256   20.0034 C   0  0  0  0  0  0  0  0  0  0  0  0
    5.1177    1.0134   22.1734 H   0  0  0  0  0  0  0  0  0  0  0  0
    3.1827    2.4959   22.4450 H   0  0  0  0  0  0  0  0  0  0  0  0
    1.9299    3.3089   20.4498 H   0  0  0  0  0  0  0  0  0  0  0  0
    2.6572    2.6395   18.1756 H   0  0  0  0  0  0  0  0  0  0  0  0
    4.1976    1.3784   16.7087 H   0  0  0  0  0  0  0  0  0  0  0  0
    7.3389   -0.8009   18.2542 H   0  0  0  0  0  0  0  0  0  0  0  0
    6.4719   -1.5596   21.6147 C   0  0  0  0  0  0  0  0  0  0  0  0
    7.7004   -1.7815   22.5039 C   0  0  2  0  0  0  0  0  0  0  0  0
    7.3591   -2.4911   23.8000 C   0  0  0  0  0  0  0  0  0  0  0  0
    8.5500   -2.7089   24.5139 O   0  0  0  0  0  0  0  0  0  0  0  0
    8.3142   -3.3219   25.7581 C   0  0  0  0  0  0  0  0  0  0  0  0
    7.7840   -4.2818   25.6366 H   0  0  0  0  0  0  0  0  0  0  0  0
    7.7155   -2.6750   26.4235 H   0  0  0  0  0  0  0  0  0  0  0  0
    9.2881   -3.5046   26.2191 H   0  0  0  0  0  0  0  0  0  0  0  0
    6.8594   -3.4520   23.5785 H   0  0  0  0  0  0  0  0  0  0  0  0
    6.6493   -1.8881   24.3930 H   0  0  0  0  0  0  0  0  0  0  0  0
    8.3814   -2.4413   21.9677 H   0  0  0  0  0  0  0  0  0  0  0  0
    5.5679   -1.3422   22.2051 H   0  0  0  0  0  0  0  0  0  0  0  0
    6.2524   -2.4299   20.9863 H   0  0  0  0  0  0  0  0  0  0  0  0
    9.9334   -0.4666   22.5447 C   0  0  0  0  0  0  0  0  0  0  0  0
   10.5528   -1.3257   21.6281 C   0  0  0  0  0  0  0  0  0  0  0  0
   11.9114   -1.2583   21.3974 C   0  0  0  0  0  0  0  0  0  0  0  0
   12.5862   -2.2512   20.1270 Cl  0  0  0  0  0  0  0  0  0  0  0  0
   12.7148   -0.3671   22.1110 C   0  0  0  0  0  0  0  0  0  0  0  0
   12.1172    0.4590   23.0366 C   0  0  0  0  0  0  0  0  0  0  0  0
   10.7367    0.4689   23.2046 C   0  0  0  0  0  0  0  0  0  0  0  0
   10.1481    1.6147   23.9652 C   0  0  0  0  0  0  0  0  0  0  0  0
   10.8409    2.4918   24.4681 O   0  0  0  0  0  0  0  0  0  0  0  0
   12.7118    1.1426   23.6252 H   0  0  0  0  0  0  0  0  0  0  0  0
   13.7777   -0.2944   21.9194 H   0  0  0  0  0  0  0  0  0  0  0  0
    9.9870   -2.0190   21.0201 H   0  0  0  0  0  0  0  0  0  0  0  0
    6.9534    0.6498   23.8106 H   0  0  0  0  0  0  0  0  0  0  0  0
    8.1986   -0.2260   24.7474 H   0  0  0  0  0  0  0  0  0  0  0  0
    7.5949    2.7007   25.3974 H   0  0  0  0  0  0  0  0  0  0  0  0
    8.8956    3.6037   24.6059 H   0  0  0  0  0  0  0  0  0  0  0  0
    8.4337    3.7075   21.9500 H   0  0  0  0  0  0  0  0  0  0  0  0
    6.9909    4.7980   20.4402 H   0  0  0  0  0  0  0  0  0  0  0  0
    5.9832    3.4023   20.9096 H   0  0  0  0  0  0  0  0  0  0  0  0
    5.7619    4.9497   21.7165 H   0  0  0  0  0  0  0  0  0  0  0  0
  1  2  1  0
  2  3  1  0
  3  4  2  0
  3  5  1  0
  5  6  1  0
  6  7  1  0
  8  7  1  1
  8  9  1  0
  9 10  2  0
  9 11  1  0
 11 12  1  0
 12 13  2  0
 13 14  1  0
 14 15  2  0
 15 16  1  0
 16 17  2  0
 17 18  1  0
 18 19  2  0
 19 20  1  0
 20 21  2  0
 20 22  1  0
 19 23  1  0
 18 24  1  0
 17 25  1  0
 15 26  1  0
 13 27  1  0
 11 28  1  0
 28 29  1  0
 29 30  1  0
 30 31  1  0
 31 32  1  0
 32 33  1  0
 32 34  1  0
 32 35  1  0
 30 36  1  0
 30 37  1  0
 29 38  1  6
 28 39  1  0
 28 40  1  0
  8 41  1  0
 41 42  2  0
 42 43  1  0
 43 44  1  0
 43 45  2  0
 45 46  1  0
 46 47  2  0
 47 48  1  0
 48 49  2  0
 46 50  1  0
 45 51  1  0
 42 52  1  0
  7 53  1  0
  7 54  1  0
  5 55  1  0
  5 56  1  0
  2 57  1  0
  1 58  1  0
  1 59  1  0
  1 60  1  0
 48  6  1  0
 29  8  1  0
 47 41  1  0
 21 12  1  0
 21 16  1  0
M  END
>  <cnnaffinities>  (46) 
[6.65265, 6.62578]

>  <score>  (46) 
6.65265

>  <index>  (46) 
45

>  <Smiles>  (46) 
C(N(C(=O)C(N1C([C@@]2(C(=O)N(c3c(nc(c4c(c(c(c(c34)[H])[H])[H])[H])[H])[H])C([C@@]2(C(OC([H])([H])[H])([H])[H])[H])([H])[H])c2c(c(Cl)c(c(c2C1=O)[H])[H])[H])([H])[H])([H])[H])[H])([H])([H])[H]

>  <h>  (46) 
<NA>

>  <Training>  (46) 
True

>  <Success>  (46) 
True

>  <enamine_searched>  (46) 
False

>  <enamine_id>  (46) 
nan

$$$$

     RDKit          3D

 64 68  0  0  0  0  0  0  0  0999 V2000
    5.9822   -6.0096   25.1119 C   0  0  0  0  0  0  0  0  0  0  0  0
    6.6891   -4.6643   25.1668 C   0  0  0  0  0  0  0  0  0  0  0  0
    6.7365   -4.0274   23.5061 S   0  0  0  0  0  0  0  0  0  0  0  0
    7.5877   -4.8972   22.6973 O   0  0  0  0  0  0  0  0  0  0  0  0
    5.3624   -3.7850   23.0953 O   0  0  0  0  0  0  0  0  0  0  0  0
    7.4995   -2.5300   23.7076 N   0  0  0  0  0  0  0  0  0  0  0  0
    7.7274   -1.8452   22.4191 C   0  0  1  0  0  0  0  0  0  0  0  0
    6.4509   -1.5533   21.6255 C   0  0  0  0  0  0  0  0  0  0  0  0
    6.8543   -0.4197   20.8274 N   0  0  0  0  0  0  0  0  0  0  0  0
    6.0996    0.0943   19.7492 C   0  0  0  0  0  0  0  0  0  0  0  0
    6.4593   -0.1867   18.4566 C   0  0  0  0  0  0  0  0  0  0  0  0
    5.7814    0.2610   17.3756 N   0  0  0  0  0  0  0  0  0  0  0  0
    4.7356    1.0206   17.5856 C   0  0  0  0  0  0  0  0  0  0  0  0
    4.2727    1.4068   18.8755 C   0  0  0  0  0  0  0  0  0  0  0  0
    3.1667    2.2749   19.0593 C   0  0  0  0  0  0  0  0  0  0  0  0
    2.7744    2.6440   20.3166 C   0  0  0  0  0  0  0  0  0  0  0  0
    3.4661    2.1647   21.4516 C   0  0  0  0  0  0  0  0  0  0  0  0
    4.5376    1.3164   21.2999 C   0  0  0  0  0  0  0  0  0  0  0  0
    4.9682    0.9197   20.0041 C   0  0  0  0  0  0  0  0  0  0  0  0
    5.1052    1.0005   22.1713 H   0  0  0  0  0  0  0  0  0  0  0  0
    3.1766    2.4915   22.4450 H   0  0  0  0  0  0  0  0  0  0  0  0
    1.9318    3.3165   20.4507 H   0  0  0  0  0  0  0  0  0  0  0  0
    2.6553    2.6470   18.1766 H   0  0  0  0  0  0  0  0  0  0  0  0
    4.2014    1.3817   16.7068 H   0  0  0  0  0  0  0  0  0  0  0  0
    7.3334   -0.8045   18.2612 H   0  0  0  0  0  0  0  0  0  0  0  0
    7.9785    0.2320   21.2783 C   0  0  0  0  0  0  0  0  0  0  0  0
    8.4919    1.1807   20.7214 O   0  0  0  0  0  0  0  0  0  0  0  0
    8.4581   -0.4918   22.5586 C   0  0  1  0  0  0  0  0  0  0  0  0
    8.0276    0.2594   23.8469 C   0  0  0  0  0  0  0  0  0  0  0  0
    8.7881    1.4982   24.0259 N   0  0  0  0  0  0  0  0  0  0  0  0
    8.1294    2.7203   24.4697 C   0  0  0  0  0  0  0  0  0  0  0  0
    7.1047    3.2139   23.4364 C   0  0  0  0  0  0  0  0  0  0  0  0
    5.9078    3.0615   23.6262 O   0  0  0  0  0  0  0  0  0  0  0  0
    7.5669    3.8316   22.3114 N   0  0  0  0  0  0  0  0  0  0  0  0
    6.5791    4.2070   21.3057 C   0  0  0  0  0  0  0  0  0  0  0  0
    7.0496    4.7095   20.4616 H   0  0  0  0  0  0  0  0  0  0  0  0
    5.8585    4.8984   21.7505 H   0  0  0  0  0  0  0  0  0  0  0  0
    6.0483    3.3192   20.9411 H   0  0  0  0  0  0  0  0  0  0  0  0
    8.4988    3.6138   21.9863 H   0  0  0  0  0  0  0  0  0  0  0  0
    7.6059    2.5786   25.4264 H   0  0  0  0  0  0  0  0  0  0  0  0
    8.9196    3.4603   24.6447 H   0  0  0  0  0  0  0  0  0  0  0  0
   10.1564    1.4847   23.9932 C   0  0  0  0  0  0  0  0  0  0  0  0
   10.8410    2.3616   24.5114 O   0  0  0  0  0  0  0  0  0  0  0  0
   10.7562    0.3653   23.2013 C   0  0  0  0  0  0  0  0  0  0  0  0
   12.1357    0.3912   23.0090 C   0  0  0  0  0  0  0  0  0  0  0  0
   12.7329   -0.3989   22.0531 C   0  0  0  0  0  0  0  0  0  0  0  0
   11.9449   -1.3226   21.3630 C   0  0  0  0  0  0  0  0  0  0  0  0
   12.6054   -2.2906   20.0672 Cl  0  0  0  0  0  0  0  0  0  0  0  0
   10.5928   -1.4370   21.6183 C   0  0  0  0  0  0  0  0  0  0  0  0
    9.9650   -0.5707   22.5234 C   0  0  0  0  0  0  0  0  0  0  0  0
   10.0449   -2.1644   21.0307 H   0  0  0  0  0  0  0  0  0  0  0  0
   13.7853   -0.2662   21.8233 H   0  0  0  0  0  0  0  0  0  0  0  0
   12.7419    1.0775   23.5852 H   0  0  0  0  0  0  0  0  0  0  0  0
    8.1687   -0.3997   24.7140 H   0  0  0  0  0  0  0  0  0  0  0  0
    6.9639    0.5060   23.7842 H   0  0  0  0  0  0  0  0  0  0  0  0
    6.1628   -2.3977   20.9958 H   0  0  0  0  0  0  0  0  0  0  0  0
    5.6058   -1.3311   22.2876 H   0  0  0  0  0  0  0  0  0  0  0  0
    8.3381   -2.5058   21.7966 H   0  0  0  0  0  0  0  0  0  0  0  0
    8.4132   -2.6696   24.1472 H   0  0  0  0  0  0  0  0  0  0  0  0
    6.1412   -3.9467   25.7808 H   0  0  0  0  0  0  0  0  0  0  0  0
    7.7233   -4.7376   25.5193 H   0  0  0  0  0  0  0  0  0  0  0  0
    6.3485   -6.5720   24.2518 H   0  0  0  0  0  0  0  0  0  0  0  0
    6.1503   -6.5858   26.0220 H   0  0  0  0  0  0  0  0  0  0  0  0
    4.9067   -5.8696   24.9906 H   0  0  0  0  0  0  0  0  0  0  0  0
  1  2  1  0
  2  3  1  0
  3  4  2  0
  3  5  2  0
  3  6  1  0
  6  7  1  0
  7  8  1  0
  8  9  1  0
  9 10  1  0
 10 11  2  0
 11 12  1  0
 12 13  2  0
 13 14  1  0
 14 15  2  0
 15 16  1  0
 16 17  2  0
 17 18  1  0
 18 19  2  0
 18 20  1  0
 17 21  1  0
 16 22  1  0
 15 23  1  0
 13 24  1  0
 11 25  1  0
  9 26  1  0
 26 27  2  0
 26 28  1  0
 28 29  1  1
 29 30  1  0
 30 31  1  0
 31 32  1  0
 32 33  2  0
 32 34  1  0
 34 35  1  0
 35 36  1  0
 35 37  1  0
 35 38  1  0
 34 39  1  0
 31 40  1  0
 31 41  1  0
 30 42  1  0
 42 43  2  0
 42 44  1  0
 44 45  2  0
 45 46  1  0
 46 47  2  0
 47 48  1  0
 47 49  1  0
 49 50  2  0
 49 51  1  0
 46 52  1  0
 45 53  1  0
 29 54  1  0
 29 55  1  0
  8 56  1  0
  8 57  1  0
  7 58  1  6
  6 59  1  0
  2 60  1  0
  2 61  1  0
  1 62  1  0
  1 63  1  0
  1 64  1  0
 28  7  1  0
 50 44  1  0
 19 10  1  0
 50 28  1  0
 19 14  1  0
M  END
>  <cnnaffinities>  (47) 
[6.77199]

>  <score>  (47) 
6.77199

>  <index>  (47) 
46

>  <Smiles>  (47) 
C(C(S(=O)(=O)N([C@]1(C(N(c2c(nc(c3c(c(c(c(c23)[H])[H])[H])[H])[H])[H])C(=O)[C@]21C(N(C(C(=O)N(C([H])([H])[H])[H])([H])[H])C(=O)c1c(c(c(Cl)c(c21)[H])[H])[H])([H])[H])([H])[H])[H])[H])([H])[H])([H])([H])[H]

>  <h>  (47) 
<NA>

>  <Training>  (47) 
True

>  <Success>  (47) 
True

>  <enamine_searched>  (47) 
False

>  <enamine_id>  (47) 
nan

$$$$

     RDKit          3D

 56 60  0  0  0  0  0  0  0  0999 V2000
    6.7374    4.4417   21.3012 C   0  0  0  0  0  0  0  0  0  0  0  0
    7.6156    4.0363   22.3793 N   0  0  0  0  0  0  0  0  0  0  0  0
    7.0660    3.3705   23.4207 C   0  0  0  0  0  0  0  0  0  0  0  0
    5.8533    3.2351   23.5335 O   0  0  0  0  0  0  0  0  0  0  0  0
    8.0028    2.8057   24.4904 C   0  0  0  0  0  0  0  0  0  0  0  0
    8.7442    1.6373   24.0662 N   0  0  0  0  0  0  0  0  0  0  0  0
    8.0290    0.3792   23.9286 C   0  0  0  0  0  0  0  0  0  0  0  0
    8.4444   -0.3839   22.6542 C   0  0  2  0  0  0  0  0  0  0  0  0
    7.9337    0.3410   21.3824 C   0  0  0  0  0  0  0  0  0  0  0  0
    8.3452    1.3761   20.9077 O   0  0  0  0  0  0  0  0  0  0  0  0
    6.9204   -0.4077   20.8300 N   0  0  0  0  0  0  0  0  0  0  0  0
    6.1391    0.1099   19.7627 C   0  0  0  0  0  0  0  0  0  0  0  0
    6.4558   -0.2099   18.4671 C   0  0  0  0  0  0  0  0  0  0  0  0
    5.7718    0.2336   17.3875 N   0  0  0  0  0  0  0  0  0  0  0  0
    4.7443    1.0192   17.5940 C   0  0  0  0  0  0  0  0  0  0  0  0
    4.2957    1.4231   18.8841 C   0  0  0  0  0  0  0  0  0  0  0  0
    3.1747    2.2793   19.0625 C   0  0  0  0  0  0  0  0  0  0  0  0
    2.7673    2.6403   20.3196 C   0  0  0  0  0  0  0  0  0  0  0  0
    3.4627    2.1610   21.4522 C   0  0  0  0  0  0  0  0  0  0  0  0
    4.5525    1.3349   21.3036 C   0  0  0  0  0  0  0  0  0  0  0  0
    5.0075    0.9498   20.0117 C   0  0  0  0  0  0  0  0  0  0  0  0
    5.0836    0.9829   22.1827 H   0  0  0  0  0  0  0  0  0  0  0  0
    3.1558    2.4619   22.4484 H   0  0  0  0  0  0  0  0  0  0  0  0
    1.9168    3.3050   20.4492 H   0  0  0  0  0  0  0  0  0  0  0  0
    2.6603    2.6440   18.1781 H   0  0  0  0  0  0  0  0  0  0  0  0
    4.2127    1.3783   16.7131 H   0  0  0  0  0  0  0  0  0  0  0  0
    7.3018   -0.8605   18.2567 H   0  0  0  0  0  0  0  0  0  0  0  0
    6.5834   -1.6045   21.5731 C   0  0  0  0  0  0  0  0  0  0  0  0
    7.7637   -1.7907   22.5466 C   0  0  2  0  0  0  0  0  0  0  0  0
    7.3483   -2.4694   23.8540 C   0  0  0  0  0  0  0  0  0  0  0  0
    6.9346   -3.4644   23.6596 H   0  0  0  0  0  0  0  0  0  0  0  0
    6.5746   -1.8881   24.3667 H   0  0  0  0  0  0  0  0  0  0  0  0
    8.1895   -2.5908   24.5459 H   0  0  0  0  0  0  0  0  0  0  0  0
    8.4932   -2.4407   22.0611 H   0  0  0  0  0  0  0  0  0  0  0  0
    5.6396   -1.4790   22.1239 H   0  0  0  0  0  0  0  0  0  0  0  0
    6.4582   -2.4540   20.8919 H   0  0  0  0  0  0  0  0  0  0  0  0
    9.9543   -0.4027   22.6107 C   0  0  0  0  0  0  0  0  0  0  0  0
   10.5831   -1.2718   21.7256 C   0  0  0  0  0  0  0  0  0  0  0  0
   11.9479   -1.2569   21.5985 C   0  0  0  0  0  0  0  0  0  0  0  0
   12.4386   -2.0846   20.6596 F   0  0  0  0  0  0  0  0  0  0  0  0
   12.7518   -0.4071   22.3574 C   0  0  0  0  0  0  0  0  0  0  0  0
   12.1278    0.4987   23.1913 C   0  0  0  0  0  0  0  0  0  0  0  0
   10.7402    0.5401   23.2873 C   0  0  0  0  0  0  0  0  0  0  0  0
   10.1144    1.6829   24.0227 C   0  0  0  0  0  0  0  0  0  0  0  0
   10.7715    2.5988   24.5036 O   0  0  0  0  0  0  0  0  0  0  0  0
   12.7082    1.2201   23.7525 H   0  0  0  0  0  0  0  0  0  0  0  0
   13.8304   -0.4233   22.2952 H   0  0  0  0  0  0  0  0  0  0  0  0
   10.0380   -1.9553   21.0875 H   0  0  0  0  0  0  0  0  0  0  0  0
    6.9617    0.6138   23.8808 H   0  0  0  0  0  0  0  0  0  0  0  0
    8.2245   -0.2707   24.7976 H   0  0  0  0  0  0  0  0  0  0  0  0
    7.3562    2.5477   25.3358 H   0  0  0  0  0  0  0  0  0  0  0  0
    8.7626    3.5215   24.8135 H   0  0  0  0  0  0  0  0  0  0  0  0
    8.6125    3.9843   22.2390 H   0  0  0  0  0  0  0  0  0  0  0  0
    7.2875    4.9418   20.5141 H   0  0  0  0  0  0  0  0  0  0  0  0
    6.2107    3.5759   20.8921 H   0  0  0  0  0  0  0  0  0  0  0  0
    5.9863    5.1345   21.6777 H   0  0  0  0  0  0  0  0  0  0  0  0
  1  2  1  0
  2  3  1  0
  3  4  2  0
  3  5  1  0
  5  6  1  0
  6  7  1  0
  8  7  1  1
  8  9  1  0
  9 10  2  0
  9 11  1  0
 11 12  1  0
 12 13  2  0
 13 14  1  0
 14 15  2  0
 15 16  1  0
 16 17  2  0
 17 18  1  0
 18 19  2  0
 19 20  1  0
 20 21  2  0
 20 22  1  0
 19 23  1  0
 18 24  1  0
 17 25  1  0
 15 26  1  0
 13 27  1  0
 11 28  1  0
 28 29  1  0
 29 30  1  0
 30 31  1  0
 30 32  1  0
 30 33  1  0
 29 34  1  6
 28 35  1  0
 28 36  1  0
  8 37  1  0
 37 38  2  0
 38 39  1  0
 39 40  1  0
 39 41  2  0
 41 42  1  0
 42 43  2  0
 43 44  1  0
 44 45  2  0
 42 46  1  0
 41 47  1  0
 38 48  1  0
  7 49  1  0
  7 50  1  0
  5 51  1  0
  5 52  1  0
  2 53  1  0
  1 54  1  0
  1 55  1  0
  1 56  1  0
 44  6  1  0
 29  8  1  0
 43 37  1  0
 21 12  1  0
 21 16  1  0
M  END
>  <cnnaffinities>  (48) 
[6.30016, 6.45561, 6.5481]

>  <score>  (48) 
6.30016

>  <index>  (48) 
47

>  <Smiles>  (48) 
C(N(C(=O)C(N1C([C@@]2(C(=O)N(c3c(nc(c4c(c(c(c(c34)[H])[H])[H])[H])[H])[H])C([C@@]2(C([H])([H])[H])[H])([H])[H])c2c(c(F)c(c(c2C1=O)[H])[H])[H])([H])[H])([H])[H])[H])([H])([H])[H]

>  <h>  (48) 
<NA>

>  <Training>  (48) 
True

>  <Success>  (48) 
True

>  <enamine_searched>  (48) 
False

>  <enamine_id>  (48) 
nan

$$$$

     RDKit          3D

 41 43  0  0  0  0  0  0  0  0999 V2000
   10.9102   -2.4468   23.7838 C   0  0  0  0  0  0  0  0  0  0  0  0
   10.0170   -1.2705   23.4547 C   0  0  1  0  0  0  0  0  0  0  0  0
    8.5429   -1.5709   23.7524 C   0  0  0  0  0  0  0  0  0  0  0  0
    7.6635   -0.3153   23.8325 C   0  0  0  0  0  0  0  0  0  0  0  0
    8.0162    0.7492   22.8945 N   0  0  0  0  0  0  0  0  0  0  0  0
    7.8623    0.6365   21.5248 C   0  0  0  0  0  0  0  0  0  0  0  0
    8.4373    1.3986   20.7664 O   0  0  0  0  0  0  0  0  0  0  0  0
    6.9378   -0.4478   20.9206 C   0  0  0  0  0  0  0  0  0  0  0  0
    6.1112    0.0851   19.7693 C   0  0  0  0  0  0  0  0  0  0  0  0
    6.4263   -0.2071   18.4652 C   0  0  0  0  0  0  0  0  0  0  0  0
    5.7593    0.2471   17.3710 N   0  0  0  0  0  0  0  0  0  0  0  0
    4.7309    1.0304   17.5774 C   0  0  0  0  0  0  0  0  0  0  0  0
    4.2850    1.4250   18.8689 C   0  0  0  0  0  0  0  0  0  0  0  0
    3.1683    2.2822   19.0434 C   0  0  0  0  0  0  0  0  0  0  0  0
    2.7636    2.6461   20.2999 C   0  0  0  0  0  0  0  0  0  0  0  0
    3.4627    2.1678   21.4301 C   0  0  0  0  0  0  0  0  0  0  0  0
    4.5480    1.3383   21.2864 C   0  0  0  0  0  0  0  0  0  0  0  0
    4.9917    0.9426   19.9965 C   0  0  0  0  0  0  0  0  0  0  0  0
    5.0722    0.9898   22.1706 H   0  0  0  0  0  0  0  0  0  0  0  0
    3.1372    2.4643   22.4219 H   0  0  0  0  0  0  0  0  0  0  0  0
    1.9116    3.3059   20.4370 H   0  0  0  0  0  0  0  0  0  0  0  0
    2.6437    2.6477   18.1641 H   0  0  0  0  0  0  0  0  0  0  0  0
    4.1981    1.3984   16.6992 H   0  0  0  0  0  0  0  0  0  0  0  0
    7.2727   -0.8566   18.2438 H   0  0  0  0  0  0  0  0  0  0  0  0
    7.5899   -1.2396   20.5270 H   0  0  0  0  0  0  0  0  0  0  0  0
    6.2855   -0.9124   21.6668 H   0  0  0  0  0  0  0  0  0  0  0  0
    9.0465    1.6762   23.3757 C   0  0  0  0  0  0  0  0  0  0  0  0
   10.4541    1.0774   23.4654 C   0  0  0  0  0  0  0  0  0  0  0  0
   10.4958   -0.1418   24.1770 O   0  0  0  0  0  0  0  0  0  0  0  0
   10.8641    0.9352   22.4554 H   0  0  0  0  0  0  0  0  0  0  0  0
   11.1271    1.7682   23.9971 H   0  0  0  0  0  0  0  0  0  0  0  0
    8.7541    1.9972   24.3788 H   0  0  0  0  0  0  0  0  0  0  0  0
    9.0631    2.5593   22.7331 H   0  0  0  0  0  0  0  0  0  0  0  0
    6.6073   -0.5753   23.7198 H   0  0  0  0  0  0  0  0  0  0  0  0
    7.7552    0.1102   24.8326 H   0  0  0  0  0  0  0  0  0  0  0  0
    8.4668   -2.1274   24.6968 H   0  0  0  0  0  0  0  0  0  0  0  0
    8.1656   -2.2442   22.9724 H   0  0  0  0  0  0  0  0  0  0  0  0
   10.1178   -1.0535   22.3865 H   0  0  0  0  0  0  0  0  0  0  0  0
   10.5859   -3.3267   23.2256 H   0  0  0  0  0  0  0  0  0  0  0  0
   11.9468   -2.2266   23.5148 H   0  0  0  0  0  0  0  0  0  0  0  0
   10.8642   -2.6794   24.8490 H   0  0  0  0  0  0  0  0  0  0  0  0
  1  2  1  0
  2  3  1  0
  3  4  1  0
  4  5  1  0
  5  6  1  0
  6  7  2  0
  6  8  1  0
  8  9  1  0
  9 10  2  0
 10 11  1  0
 11 12  2  0
 12 13  1  0
 13 14  2  0
 14 15  1  0
 15 16  2  0
 16 17  1  0
 17 18  2  0
 17 19  1  0
 16 20  1  0
 15 21  1  0
 14 22  1  0
 12 23  1  0
 10 24  1  0
  8 25  1  0
  8 26  1  0
  5 27  1  0
 27 28  1  0
 28 29  1  0
 28 30  1  0
 28 31  1  0
 27 32  1  0
 27 33  1  0
  4 34  1  0
  4 35  1  0
  3 36  1  0
  3 37  1  0
  2 38  1  6
  1 39  1  0
  1 40  1  0
  1 41  1  0
 29  2  1  0
 18  9  1  0
 18 13  1  0
M  END
>  <cnnaffinities>  (49) 
[5.70295, 5.72089, 5.30924]

>  <score>  (49) 
5.70295

>  <index>  (49) 
48

>  <Smiles>  (49) 
C([C@]1(C(C(N(C(=O)C(c2c(nc(c3c(c(c(c(c23)[H])[H])[H])[H])[H])[H])([H])[H])C(C(O1)([H])[H])([H])[H])([H])[H])([H])[H])[H])([H])([H])[H]

>  <h>  (49) 
<NA>

>  <Training>  (49) 
True

>  <Success>  (49) 
True

>  <enamine_searched>  (49) 
False

>  <enamine_id>  (49) 
nan

$$$$

     RDKit          3D

 42 45  0  0  0  0  0  0  0  0999 V2000
   12.2425   -1.1528   22.4797 C   0  0  0  0  0  0  0  0  0  0  0  0
   10.8185   -1.2904   22.7000 N   0  0  0  0  0  0  0  0  0  0  0  0
    9.8799   -0.7078   21.7686 C   0  0  0  0  0  0  0  0  0  0  0  0
    8.6717   -0.2330   22.5705 C   0  0  1  0  0  0  0  0  0  0  0  0
    7.6683    0.4333   21.6429 C   0  0  0  0  0  0  0  0  0  0  0  0
    7.5770    1.6456   21.5820 O   0  0  0  0  0  0  0  0  0  0  0  0
    6.9149   -0.4014   20.8395 N   0  0  0  0  0  0  0  0  0  0  0  0
    6.1254    0.1046   19.7711 C   0  0  0  0  0  0  0  0  0  0  0  0
    6.4351   -0.2193   18.4749 C   0  0  0  0  0  0  0  0  0  0  0  0
    5.7640    0.2378   17.3908 N   0  0  0  0  0  0  0  0  0  0  0  0
    4.7426    1.0286   17.5924 C   0  0  0  0  0  0  0  0  0  0  0  0
    4.2893    1.4197   18.8786 C   0  0  0  0  0  0  0  0  0  0  0  0
    3.1637    2.2672   19.0534 C   0  0  0  0  0  0  0  0  0  0  0  0
    2.7375    2.6027   20.3083 C   0  0  0  0  0  0  0  0  0  0  0  0
    3.4127    2.0978   21.4427 C   0  0  0  0  0  0  0  0  0  0  0  0
    4.5038    1.2788   21.2989 C   0  0  0  0  0  0  0  0  0  0  0  0
    4.9895    0.9365   20.0092 C   0  0  0  0  0  0  0  0  0  0  0  0
    5.0182    0.8941   22.1736 H   0  0  0  0  0  0  0  0  0  0  0  0
    3.0686    2.3683   22.4357 H   0  0  0  0  0  0  0  0  0  0  0  0
    1.8791    3.2564   20.4422 H   0  0  0  0  0  0  0  0  0  0  0  0
    2.6531    2.6383   18.1683 H   0  0  0  0  0  0  0  0  0  0  0  0
    4.2134    1.3905   16.7096 H   0  0  0  0  0  0  0  0  0  0  0  0
    7.2800   -0.8695   18.2514 H   0  0  0  0  0  0  0  0  0  0  0  0
    7.1288   -1.3915   20.8434 H   0  0  0  0  0  0  0  0  0  0  0  0
    8.1537   -1.3471   23.4539 C   0  0  0  0  0  0  0  0  0  0  0  0
    6.8491   -1.3117   23.9375 C   0  0  0  0  0  0  0  0  0  0  0  0
    6.3901   -2.3278   24.7551 C   0  0  0  0  0  0  0  0  0  0  0  0
    4.7429   -2.2843   25.3121 Cl  0  0  0  0  0  0  0  0  0  0  0  0
    7.2171   -3.3793   25.1414 C   0  0  0  0  0  0  0  0  0  0  0  0
    8.5322   -3.3877   24.7090 C   0  0  0  0  0  0  0  0  0  0  0  0
    9.0059   -2.3708   23.8795 C   0  0  0  0  0  0  0  0  0  0  0  0
   10.4530   -2.3239   23.5240 C   0  0  0  0  0  0  0  0  0  0  0  0
   11.2861   -3.1110   23.9678 O   0  0  0  0  0  0  0  0  0  0  0  0
    9.2132   -4.1720   25.0251 H   0  0  0  0  0  0  0  0  0  0  0  0
    6.8306   -4.1603   25.7856 H   0  0  0  0  0  0  0  0  0  0  0  0
    6.1874   -0.4945   23.6732 H   0  0  0  0  0  0  0  0  0  0  0  0
    9.0336    0.5705   23.2177 H   0  0  0  0  0  0  0  0  0  0  0  0
   10.3766    0.1478   21.3061 H   0  0  0  0  0  0  0  0  0  0  0  0
    9.5716   -1.3939   20.9559 H   0  0  0  0  0  0  0  0  0  0  0  0
   12.4447   -0.4350   21.6786 H   0  0  0  0  0  0  0  0  0  0  0  0
   12.6120   -2.1489   22.2468 H   0  0  0  0  0  0  0  0  0  0  0  0
   12.7421   -0.7936   23.3869 H   0  0  0  0  0  0  0  0  0  0  0  0
  1  2  1  0
  2  3  1  0
  3  4  1  0
  4  5  1  0
  5  6  2  0
  5  7  1  0
  7  8  1  0
  8  9  2  0
  9 10  1  0
 10 11  2  0
 11 12  1  0
 12 13  2  0
 13 14  1  0
 14 15  2  0
 15 16  1  0
 16 17  2  0
 16 18  1  0
 15 19  1  0
 14 20  1  0
 13 21  1  0
 11 22  1  0
  9 23  1  0
  7 24  1  0
  4 25  1  0
 25 26  2  0
 26 27  1  0
 27 28  1  0
 27 29  2  0
 29 30  1  0
 30 31  2  0
 31 32  1  0
 32 33  2  0
 30 34  1  0
 29 35  1  0
 26 36  1  0
  4 37  1  1
  3 38  1  0
  3 39  1  0
  1 40  1  0
  1 41  1  0
  1 42  1  0
 32  2  1  0
 17  8  1  0
 31 25  1  0
 17 12  1  0
M  END
>  <cnnaffinities>  (50) 
[6.23945, 6.06627, 5.84399]

>  <score>  (50) 
6.23945

>  <index>  (50) 
49

>  <Smiles>  (50) 
C(N1C([C@@](C(=O)N(c2c(nc(c3c(c(c(c(c23)[H])[H])[H])[H])[H])[H])[H])(c2c(c(Cl)c(c(c2C1=O)[H])[H])[H])[H])([H])[H])([H])([H])[H]

>  <h>  (50) 
<NA>

>  <Training>  (50) 
True

>  <Success>  (50) 
True

>  <enamine_searched>  (50) 
False

>  <enamine_id>  (50) 
nan

$$$$

     RDKit          3D

 38 41  0  0  0  0  0  0  0  0999 V2000
    5.1357   -2.0974   21.2316 O   0  0  0  0  0  0  0  0  0  0  0  0
    6.2484   -1.7322   21.5694 C   0  0  0  0  0  0  0  0  0  0  0  0
    6.9232   -0.5090   20.9156 C   0  0  0  0  0  0  0  0  0  0  0  0
    6.1127    0.0755   19.7827 C   0  0  0  0  0  0  0  0  0  0  0  0
    6.4263   -0.2209   18.4818 C   0  0  0  0  0  0  0  0  0  0  0  0
    5.7635    0.2371   17.3886 N   0  0  0  0  0  0  0  0  0  0  0  0
    4.7385    1.0233   17.5922 C   0  0  0  0  0  0  0  0  0  0  0  0
    4.2854    1.4122   18.8784 C   0  0  0  0  0  0  0  0  0  0  0  0
    3.1678    2.2669   19.0488 C   0  0  0  0  0  0  0  0  0  0  0  0
    2.7508    2.6192   20.3032 C   0  0  0  0  0  0  0  0  0  0  0  0
    3.4365    2.1292   21.4364 C   0  0  0  0  0  0  0  0  0  0  0  0
    4.5250    1.3006   21.2963 C   0  0  0  0  0  0  0  0  0  0  0  0
    4.9837    0.9215   20.0085 C   0  0  0  0  0  0  0  0  0  0  0  0
    5.0430    0.9271   22.1733 H   0  0  0  0  0  0  0  0  0  0  0  0
    3.1018    2.4177   22.4282 H   0  0  0  0  0  0  0  0  0  0  0  0
    1.8970    3.2799   20.4319 H   0  0  0  0  0  0  0  0  0  0  0  0
    2.6637    2.6343   18.1586 H   0  0  0  0  0  0  0  0  0  0  0  0
    4.2143    1.3884   16.7077 H   0  0  0  0  0  0  0  0  0  0  0  0
    7.2691   -0.8696   18.2463 H   0  0  0  0  0  0  0  0  0  0  0  0
    7.9026   -0.8288   20.5321 H   0  0  0  0  0  0  0  0  0  0  0  0
    7.1376    0.2560   21.6760 H   0  0  0  0  0  0  0  0  0  0  0  0
    6.9518   -2.4254   22.5346 N   0  0  0  0  0  0  0  0  0  0  0  0
    8.0959   -1.8902   23.2609 C   0  0  0  0  0  0  0  0  0  0  0  0
    9.1355   -2.9826   23.4869 C   0  0  0  0  0  0  0  0  0  0  0  0
    8.4289   -4.1506   24.1000 C   0  0  0  0  0  0  0  0  0  0  0  0
    9.1631   -5.2047   25.2446 S   0  0  0  0  0  0  0  0  0  0  0  0
    7.7518   -6.1808   25.3303 C   0  0  0  0  0  0  0  0  0  0  0  0
    6.7554   -5.7020   24.5331 C   0  0  0  0  0  0  0  0  0  0  0  0
    7.1366   -4.4960   23.8588 C   0  0  0  0  0  0  0  0  0  0  0  0
    6.2255   -3.5474   23.1267 C   0  0  0  0  0  0  0  0  0  0  0  0
    5.4426   -3.1646   23.8044 H   0  0  0  0  0  0  0  0  0  0  0  0
    5.6902   -4.0404   22.3133 H   0  0  0  0  0  0  0  0  0  0  0  0
    5.7694   -6.1471   24.4345 H   0  0  0  0  0  0  0  0  0  0  0  0
    7.7865   -7.0593   25.9655 H   0  0  0  0  0  0  0  0  0  0  0  0
    9.9305   -2.6376   24.1564 H   0  0  0  0  0  0  0  0  0  0  0  0
    9.5980   -3.2671   22.5295 H   0  0  0  0  0  0  0  0  0  0  0  0
    8.5376   -1.0760   22.6868 H   0  0  0  0  0  0  0  0  0  0  0  0
    7.7730   -1.5013   24.2411 H   0  0  0  0  0  0  0  0  0  0  0  0
  1  2  2  0
  2  3  1  0
  3  4  1  0
  4  5  2  0
  5  6  1  0
  6  7  2  0
  7  8  1  0
  8  9  2  0
  9 10  1  0
 10 11  2  0
 11 12  1  0
 12 13  2  0
 12 14  1  0
 11 15  1  0
 10 16  1  0
  9 17  1  0
  7 18  1  0
  5 19  1  0
  3 20  1  0
  3 21  1  0
  2 22  1  0
 22 23  1  0
 23 24  1  0
 24 25  1  0
 25 26  1  0
 26 27  1  0
 27 28  2  0
 28 29  1  0
 29 30  1  0
 30 31  1  0
 30 32  1  0
 28 33  1  0
 27 34  1  0
 24 35  1  0
 24 36  1  0
 23 37  1  0
 23 38  1  0
 13  4  1  0
 30 22  1  0
 13  8  1  0
 29 25  2  0
M  END
>  <cnnaffinities>  (51) 
[5.5856, 5.72515]

>  <score>  (51) 
5.5856

>  <index>  (51) 
50

>  <Smiles>  (51) 
O=C(C(c1c(nc(c2c(c(c(c(c12)[H])[H])[H])[H])[H])[H])([H])[H])N1C(C(c2sc(c(c2C1([H])[H])[H])[H])([H])[H])([H])[H]

>  <h>  (51) 
<NA>

>  <Training>  (51) 
True

>  <Success>  (51) 
True

>  <enamine_searched>  (51) 
False

>  <enamine_id>  (51) 
nan

$$$$

     RDKit          3D

 67 73  0  0  0  0  0  0  0  0999 V2000
    5.5414    4.7965   22.2288 C   0  0  0  0  0  0  0  0  0  0  0  0
    5.9905    3.9077   23.3306 C   0  0  0  0  0  0  0  0  0  0  0  0
    5.2709    3.2247   24.1588 N   0  0  0  0  0  0  0  0  0  0  0  0
    6.1570    2.5210   24.9682 N   0  0  0  0  0  0  0  0  0  0  0  0
    7.3428    2.8380   24.5686 C   0  0  0  0  0  0  0  0  0  0  0  0
    8.6445    2.3145   25.0845 C   0  0  0  0  0  0  0  0  0  0  0  0
    9.2419    1.3520   24.1770 N   0  0  0  0  0  0  0  0  0  0  0  0
    8.6210    0.0446   24.0194 C   0  0  0  0  0  0  0  0  0  0  0  0
    8.6603   -0.4565   22.5559 C   0  0  2  0  0  0  0  0  0  0  0  0
    7.7629    0.4346   21.6583 C   0  0  0  0  0  0  0  0  0  0  0  0
    7.8380    1.6350   21.5523 O   0  0  0  0  0  0  0  0  0  0  0  0
    6.8375   -0.3683   20.9932 N   0  0  0  0  0  0  0  0  0  0  0  0
    6.1055    0.1175   19.8725 C   0  0  0  0  0  0  0  0  0  0  0  0
    6.4447   -0.2283   18.5854 C   0  0  0  0  0  0  0  0  0  0  0  0
    5.7981    0.2151   17.4822 N   0  0  0  0  0  0  0  0  0  0  0  0
    4.7701    1.0080   17.6509 C   0  0  0  0  0  0  0  0  0  0  0  0
    4.2943    1.4275   18.9245 C   0  0  0  0  0  0  0  0  0  0  0  0
    3.1637    2.2782   19.0662 C   0  0  0  0  0  0  0  0  0  0  0  0
    2.7212    2.6438   20.3084 C   0  0  0  0  0  0  0  0  0  0  0  0
    3.3904    2.1805   21.4627 C   0  0  0  0  0  0  0  0  0  0  0  0
    4.4928    1.3679   21.3512 C   0  0  0  0  0  0  0  0  0  0  0  0
    4.9755    0.9708   20.0757 C   0  0  0  0  0  0  0  0  0  0  0  0
    5.0173    1.0294   22.2402 H   0  0  0  0  0  0  0  0  0  0  0  0
    3.0461    2.4797   22.4479 H   0  0  0  0  0  0  0  0  0  0  0  0
    1.8543    3.2926   20.4091 H   0  0  0  0  0  0  0  0  0  0  0  0
    2.6633    2.6290   18.1683 H   0  0  0  0  0  0  0  0  0  0  0  0
    4.2591    1.3539   16.7528 H   0  0  0  0  0  0  0  0  0  0  0  0
    7.2968   -0.8776   18.3834 H   0  0  0  0  0  0  0  0  0  0  0  0
    7.1862   -1.7744   21.0780 C   0  0  0  0  0  0  0  0  0  0  0  0
    8.0539   -1.8837   22.3427 C   0  0  2  0  0  0  0  0  0  0  0  0
    7.2812   -2.5226   23.5013 C   0  0  0  0  0  0  0  0  0  0  0  0
    6.0440   -1.8403   23.8094 N   0  0  0  0  0  0  0  0  0  0  0  0
    5.2955   -2.1837   24.8902 C   0  0  0  0  0  0  0  0  0  0  0  0
    4.1539   -1.4424   25.2612 C   0  0  0  0  0  0  0  0  0  0  0  0
    3.4559   -1.9040   26.3547 C   0  0  0  0  0  0  0  0  0  0  0  0
    3.8162   -2.9804   27.0689 N   0  0  0  0  0  0  0  0  0  0  0  0
    4.9168   -3.5828   26.6433 C   0  0  0  0  0  0  0  0  0  0  0  0
    5.6818   -3.2534   25.6011 N   0  0  0  0  0  0  0  0  0  0  0  0
    5.2387   -4.4552   27.2158 H   0  0  0  0  0  0  0  0  0  0  0  0
    2.5517   -1.3942   26.6885 H   0  0  0  0  0  0  0  0  0  0  0  0
    3.8398   -0.5576   24.7109 H   0  0  0  0  0  0  0  0  0  0  0  0
    5.7214   -1.1148   23.1849 H   0  0  0  0  0  0  0  0  0  0  0  0
    7.8986   -2.5555   24.4062 H   0  0  0  0  0  0  0  0  0  0  0  0
    7.0659   -3.5724   23.2598 H   0  0  0  0  0  0  0  0  0  0  0  0
    8.8623   -2.5959   22.1774 H   0  0  0  0  0  0  0  0  0  0  0  0
    7.7366   -2.0711   20.1772 H   0  0  0  0  0  0  0  0  0  0  0  0
    6.2867   -2.3952   21.1476 H   0  0  0  0  0  0  0  0  0  0  0  0
   10.1321   -0.3609   22.1442 C   0  0  0  0  0  0  0  0  0  0  0  0
   10.7010   -1.3149   21.3019 C   0  0  0  0  0  0  0  0  0  0  0  0
   12.0558   -1.2821   21.0326 C   0  0  0  0  0  0  0  0  0  0  0  0
   12.6774   -2.5480   20.0062 Cl  0  0  0  0  0  0  0  0  0  0  0  0
   12.8740   -0.2250   21.4543 C   0  0  0  0  0  0  0  0  0  0  0  0
   12.3014    0.7626   22.2368 C   0  0  0  0  0  0  0  0  0  0  0  0
   10.9647    0.6599   22.6261 C   0  0  0  0  0  0  0  0  0  0  0  0
   10.4545    1.6483   23.6189 C   0  0  0  0  0  0  0  0  0  0  0  0
   11.0890    2.6545   23.9297 O   0  0  0  0  0  0  0  0  0  0  0  0
   12.8576    1.6342   22.5746 H   0  0  0  0  0  0  0  0  0  0  0  0
   13.9088   -0.1772   21.1333 H   0  0  0  0  0  0  0  0  0  0  0  0
   10.1041   -2.0935   20.8449 H   0  0  0  0  0  0  0  0  0  0  0  0
    7.5884    0.1188   24.3586 H   0  0  0  0  0  0  0  0  0  0  0  0
    9.1711   -0.6893   24.6244 H   0  0  0  0  0  0  0  0  0  0  0  0
    9.3744    3.1228   25.1987 H   0  0  0  0  0  0  0  0  0  0  0  0
    8.4540    1.8625   26.0654 H   0  0  0  0  0  0  0  0  0  0  0  0
    7.3213    3.7268   23.5491 O   0  0  0  0  0  0  0  0  0  0  0  0
    6.1265    5.7190   22.1955 H   0  0  0  0  0  0  0  0  0  0  0  0
    4.4877    5.0441   22.3764 H   0  0  0  0  0  0  0  0  0  0  0  0
    5.6429    4.2837   21.2645 H   0  0  0  0  0  0  0  0  0  0  0  0
  1  2  1  0
  2  3  2  0
  3  4  1  0
  4  5  2  0
  5  6  1  0
  6  7  1  0
  7  8  1  0
  9  8  1  1
  9 10  1  0
 10 11  2  0
 10 12  1  0
 12 13  1  0
 13 14  2  0
 14 15  1  0
 15 16  2  0
 16 17  1  0
 17 18  2  0
 18 19  1  0
 19 20  2  0
 20 21  1  0
 21 22  2  0
 21 23  1  0
 20 24  1  0
 19 25  1  0
 18 26  1  0
 16 27  1  0
 14 28  1  0
 12 29  1  0
 29 30  1  0
 30 31  1  0
 31 32  1  0
 32 33  1  0
 33 34  2  0
 34 35  1  0
 35 36  2  0
 36 37  1  0
 37 38  2  0
 37 39  1  0
 35 40  1  0
 34 41  1  0
 32 42  1  0
 31 43  1  0
 31 44  1  0
 30 45  1  6
 29 46  1  0
 29 47  1  0
  9 48  1  0
 48 49  2  0
 49 50  1  0
 50 51  1  0
 50 52  2  0
 52 53  1  0
 53 54  2  0
 54 55  1  0
 55 56  2  0
 53 57  1  0
 52 58  1  0
 49 59  1  0
  8 60  1  0
  8 61  1  0
  6 62  1  0
  6 63  1  0
  5 64  1  0
  1 65  1  0
  1 66  1  0
  1 67  1  0
 64  2  1  0
 55  7  1  0
 30  9  1  0
 38 33  1  0
 54 48  1  0
 22 13  1  0
 22 17  1  0
M  END
>  <cnnaffinities>  (52) 
[6.94256, 6.80199]

>  <score>  (52) 
6.94256

>  <index>  (52) 
51

>  <Smiles>  (52) 
C(c1nnc(C(N2C([C@@]3(C(=O)N(c4c(nc(c5c(c(c(c(c45)[H])[H])[H])[H])[H])[H])C([C@@]3(C(N(c3c(c(nc(n3)[H])[H])[H])[H])([H])[H])[H])([H])[H])c3c(c(Cl)c(c(c3C2=O)[H])[H])[H])([H])[H])([H])[H])o1)([H])([H])[H]

>  <h>  (52) 
<NA>

>  <Training>  (52) 
True

>  <Success>  (52) 
True

>  <enamine_searched>  (52) 
False

>  <enamine_id>  (52) 
nan

$$$$

     RDKit          3D

 66 71  0  0  0  0  0  0  0  0999 V2000
    6.5485    4.3286   21.3218 C   0  0  0  0  0  0  0  0  0  0  0  0
    7.5347    3.9793   22.3322 N   0  0  0  0  0  0  0  0  0  0  0  0
    7.0742    3.3277   23.4388 C   0  0  0  0  0  0  0  0  0  0  0  0
    5.8797    3.1214   23.6067 O   0  0  0  0  0  0  0  0  0  0  0  0
    8.0937    2.8434   24.4686 C   0  0  0  0  0  0  0  0  0  0  0  0
    8.7506    1.6369   24.0118 N   0  0  0  0  0  0  0  0  0  0  0  0
    7.9735    0.4086   23.8877 C   0  0  0  0  0  0  0  0  0  0  0  0
    8.3924   -0.4136   22.6445 C   0  0  2  0  0  0  0  0  0  0  0  0
    7.9244    0.2762   21.3428 C   0  0  0  0  0  0  0  0  0  0  0  0
    8.3943    1.2651   20.8172 O   0  0  0  0  0  0  0  0  0  0  0  0
    6.8732   -0.4411   20.8282 N   0  0  0  0  0  0  0  0  0  0  0  0
    6.1129    0.0859   19.7657 C   0  0  0  0  0  0  0  0  0  0  0  0
    6.4716   -0.2001   18.4754 C   0  0  0  0  0  0  0  0  0  0  0  0
    5.7997    0.2463   17.3926 N   0  0  0  0  0  0  0  0  0  0  0  0
    4.7556    1.0106   17.6013 C   0  0  0  0  0  0  0  0  0  0  0  0
    4.2990    1.4038   18.8921 C   0  0  0  0  0  0  0  0  0  0  0  0
    3.1864    2.2656   19.0657 C   0  0  0  0  0  0  0  0  0  0  0  0
    2.7855    2.6358   20.3216 C   0  0  0  0  0  0  0  0  0  0  0  0
    3.4771    2.1693   21.4597 C   0  0  0  0  0  0  0  0  0  0  0  0
    4.5577    1.3287   21.3192 C   0  0  0  0  0  0  0  0  0  0  0  0
    4.9916    0.9247   20.0229 C   0  0  0  0  0  0  0  0  0  0  0  0
    5.1164    1.0236   22.1986 H   0  0  0  0  0  0  0  0  0  0  0  0
    3.1768    2.4991   22.4500 H   0  0  0  0  0  0  0  0  0  0  0  0
    1.9334    3.2973   20.4462 H   0  0  0  0  0  0  0  0  0  0  0  0
    2.6737    2.6237   18.1805 H   0  0  0  0  0  0  0  0  0  0  0  0
    4.2153    1.3642   16.7242 H   0  0  0  0  0  0  0  0  0  0  0  0
    7.3470   -0.8190   18.2906 H   0  0  0  0  0  0  0  0  0  0  0  0
    6.4737   -1.5815   21.6183 C   0  0  0  0  0  0  0  0  0  0  0  0
    7.6723   -1.7923   22.5430 C   0  0  2  0  0  0  0  0  0  0  0  0
    7.2655   -2.4959   23.8277 C   0  0  0  0  0  0  0  0  0  0  0  0
    8.4299   -2.8628   24.5973 N   0  0  0  0  0  0  0  0  0  0  0  0
    8.3251   -3.4590   25.8101 C   0  0  0  0  0  0  0  0  0  0  0  0
    9.4665   -3.8646   26.5294 C   0  0  0  0  0  0  0  0  0  0  0  0
    9.2470   -4.3402   27.8024 C   0  0  0  0  0  0  0  0  0  0  0  0
    8.0176   -4.4985   28.3252 N   0  0  0  0  0  0  0  0  0  0  0  0
    7.0182   -4.1569   27.5270 C   0  0  0  0  0  0  0  0  0  0  0  0
    7.0881   -3.6403   26.2982 N   0  0  0  0  0  0  0  0  0  0  0  0
    6.0144   -4.3070   27.9273 H   0  0  0  0  0  0  0  0  0  0  0  0
   10.0920   -4.6021   28.4399 H   0  0  0  0  0  0  0  0  0  0  0  0
   10.4655   -3.8175   26.0949 H   0  0  0  0  0  0  0  0  0  0  0  0
    9.3446   -2.6318   24.2361 H   0  0  0  0  0  0  0  0  0  0  0  0
    6.6918   -3.4000   23.5885 H   0  0  0  0  0  0  0  0  0  0  0  0
    6.6010   -1.8645   24.4320 H   0  0  0  0  0  0  0  0  0  0  0  0
    8.3649   -2.4693   22.0346 H   0  0  0  0  0  0  0  0  0  0  0  0
    6.2886   -2.4580   20.9878 H   0  0  0  0  0  0  0  0  0  0  0  0
    5.5542   -1.3844   22.1915 H   0  0  0  0  0  0  0  0  0  0  0  0
    9.9026   -0.4879   22.5975 C   0  0  0  0  0  0  0  0  0  0  0  0
   10.5166   -1.3484   21.6767 C   0  0  0  0  0  0  0  0  0  0  0  0
   11.8815   -1.3023   21.4728 C   0  0  0  0  0  0  0  0  0  0  0  0
   12.5351   -2.2896   20.1894 Cl  0  0  0  0  0  0  0  0  0  0  0  0
   12.6926   -0.4359   22.2111 C   0  0  0  0  0  0  0  0  0  0  0  0
   12.0918    0.4110   23.1205 C   0  0  0  0  0  0  0  0  0  0  0  0
   10.7067    0.4448   23.2617 C   0  0  0  0  0  0  0  0  0  0  0  0
   10.1186    1.6062   23.9991 C   0  0  0  0  0  0  0  0  0  0  0  0
   10.8113    2.4830   24.4994 O   0  0  0  0  0  0  0  0  0  0  0  0
   12.6844    1.1092   23.6984 H   0  0  0  0  0  0  0  0  0  0  0  0
   13.7621   -0.3710   22.0360 H   0  0  0  0  0  0  0  0  0  0  0  0
    9.9389   -2.0133   21.0461 H   0  0  0  0  0  0  0  0  0  0  0  0
    8.1108   -0.2047   24.7906 H   0  0  0  0  0  0  0  0  0  0  0  0
    6.9147    0.6730   23.8172 H   0  0  0  0  0  0  0  0  0  0  0  0
    8.8777    3.5774   24.6771 H   0  0  0  0  0  0  0  0  0  0  0  0
    7.5530    2.6548   25.4005 H   0  0  0  0  0  0  0  0  0  0  0  0
    8.4644    3.7843   21.9793 H   0  0  0  0  0  0  0  0  0  0  0  0
    7.0220    4.8690   20.4983 H   0  0  0  0  0  0  0  0  0  0  0  0
    6.0508    3.4278   20.9399 H   0  0  0  0  0  0  0  0  0  0  0  0
    5.7808    4.9598   21.7753 H   0  0  0  0  0  0  0  0  0  0  0  0
  1  2  1  0
  2  3  1  0
  3  4  2  0
  3  5  1  0
  5  6  1  0
  6  7  1  0
  8  7  1  1
  8  9  1  0
  9 10  2  0
  9 11  1  0
 11 12  1  0
 12 13  2  0
 13 14  1  0
 14 15  2  0
 15 16  1  0
 16 17  2  0
 17 18  1  0
 18 19  2  0
 19 20  1  0
 20 21  2  0
 20 22  1  0
 19 23  1  0
 18 24  1  0
 17 25  1  0
 15 26  1  0
 13 27  1  0
 11 28  1  0
 28 29  1  0
 29 30  1  0
 30 31  1  0
 31 32  1  0
 32 33  2  0
 33 34  1  0
 34 35  2  0
 35 36  1  0
 36 37  2  0
 36 38  1  0
 34 39  1  0
 33 40  1  0
 31 41  1  0
 30 42  1  0
 30 43  1  0
 29 44  1  6
 28 45  1  0
 28 46  1  0
  8 47  1  0
 47 48  2  0
 48 49  1  0
 49 50  1  0
 49 51  2  0
 51 52  1  0
 52 53  2  0
 53 54  1  0
 54 55  2  0
 52 56  1  0
 51 57  1  0
 48 58  1  0
  7 59  1  0
  7 60  1  0
  5 61  1  0
  5 62  1  0
  2 63  1  0
  1 64  1  0
  1 65  1  0
  1 66  1  0
 54  6  1  0
 29  8  1  0
 37 32  1  0
 53 47  1  0
 21 12  1  0
 21 16  1  0
M  END
>  <cnnaffinities>  (53) 
[6.80382, 7.00458]

>  <score>  (53) 
6.80382

>  <index>  (53) 
52

>  <Smiles>  (53) 
C(N(C(=O)C(N1C([C@@]2(C(=O)N(c3c(nc(c4c(c(c(c(c34)[H])[H])[H])[H])[H])[H])C([C@@]2(C(N(c2c(c(nc(n2)[H])[H])[H])[H])([H])[H])[H])([H])[H])c2c(c(Cl)c(c(c2C1=O)[H])[H])[H])([H])[H])([H])[H])[H])([H])([H])[H]

>  <h>  (53) 
<NA>

>  <Training>  (53) 
True

>  <Success>  (53) 
True

>  <enamine_searched>  (53) 
False

>  <enamine_id>  (53) 
nan

$$$$

     RDKit          3D

 77 84  0  0  0  0  0  0  0  0999 V2000
   10.3337    2.6209   24.9715 O   0  0  0  0  0  0  0  0  0  0  0  0
    9.7901    1.6957   24.3792 C   0  0  0  0  0  0  0  0  0  0  0  0
   10.5712    0.7518   23.4904 C   0  0  0  0  0  0  0  0  0  0  0  0
   11.9614    0.8751   23.3684 C   0  0  0  0  0  0  0  0  0  0  0  0
   12.6737    0.1600   22.4083 C   0  0  0  0  0  0  0  0  0  0  0  0
   11.9682   -0.7092   21.5647 C   0  0  0  0  0  0  0  0  0  0  0  0
   12.6839   -1.5463   20.1862 Cl  0  0  0  0  0  0  0  0  0  0  0  0
   10.6056   -0.8528   21.6963 C   0  0  0  0  0  0  0  0  0  0  0  0
    9.8937   -0.1752   22.6905 C   0  0  0  0  0  0  0  0  0  0  0  0
    8.3906   -0.3245   22.7358 C   0  0  1  0  0  0  0  0  0  0  0  0
    7.8372    0.2309   24.0617 C   0  0  0  0  0  0  0  0  0  0  0  0
    8.4345    1.5010   24.4130 N   0  0  0  0  0  0  0  0  0  0  0  0
    7.5333    2.5223   24.9324 C   0  0  0  0  0  0  0  0  0  0  0  0
    6.7496    3.2262   23.8227 C   0  0  0  0  0  0  0  0  0  0  0  0
    7.6683    4.0864   23.0178 N   0  0  0  0  0  4  0  0  0  0  0  0
    8.2792    5.2744   23.7909 C   0  0  0  0  0  0  0  0  0  0  0  0
    7.7284    6.2900   22.7665 C   0  0  0  0  0  0  0  0  0  0  0  0
    8.6448    7.2761   22.0527 C   0  0  0  0  0  0  0  0  0  0  0  0
    7.7223    8.3506   22.2527 O   0  0  0  0  0  0  0  0  0  0  0  0
    6.8378    7.5154   23.0042 C   0  0  0  0  0  0  0  0  0  0  0  0
    5.8553    7.4386   22.5202 H   0  0  0  0  0  0  0  0  0  0  0  0
    6.7004    7.8821   24.0288 H   0  0  0  0  0  0  0  0  0  0  0  0
    8.8133    7.0452   20.9949 H   0  0  0  0  0  0  0  0  0  0  0  0
    9.6087    7.4763   22.5428 H   0  0  0  0  0  0  0  0  0  0  0  0
    7.0986    5.0873   22.0356 C   0  0  0  0  0  0  0  0  0  0  0  0
    6.0082    5.0769   22.0187 H   0  0  0  0  0  0  0  0  0  0  0  0
    7.4866    4.9055   21.0369 H   0  0  0  0  0  0  0  0  0  0  0  0
    9.3584    5.1776   23.8784 H   0  0  0  0  0  0  0  0  0  0  0  0
    7.8319    5.3465   24.7797 H   0  0  0  0  0  0  0  0  0  0  0  0
    8.3124    3.4563   22.5100 H   0  0  0  0  0  0  0  0  0  0  0  0
    5.9324    3.8349   24.2287 H   0  0  0  0  0  0  0  0  0  0  0  0
    6.3229    2.4883   23.1446 H   0  0  0  0  0  0  0  0  0  0  0  0
    6.8325    2.0392   25.6230 H   0  0  0  0  0  0  0  0  0  0  0  0
    8.1337    3.2209   25.5165 H   0  0  0  0  0  0  0  0  0  0  0  0
    6.7612    0.3742   23.9322 H   0  0  0  0  0  0  0  0  0  0  0  0
    7.9838   -0.4900   24.8750 H   0  0  0  0  0  0  0  0  0  0  0  0
    7.7792    0.4932   21.5837 C   0  0  0  0  0  0  0  0  0  0  0  0
    7.9357    1.6900   21.3915 O   0  0  0  0  0  0  0  0  0  0  0  0
    6.9898   -0.3453   20.8383 N   0  0  0  0  0  0  0  0  0  0  0  0
    6.1812    0.1347   19.7887 C   0  0  0  0  0  0  0  0  0  0  0  0
    6.4763   -0.2399   18.5074 C   0  0  0  0  0  0  0  0  0  0  0  0
    5.7873    0.1807   17.4251 N   0  0  0  0  0  0  0  0  0  0  0  0
    4.7724    0.9827   17.6293 C   0  0  0  0  0  0  0  0  0  0  0  0
    4.3410    1.4075   18.9165 C   0  0  0  0  0  0  0  0  0  0  0  0
    3.2344    2.2769   19.0790 C   0  0  0  0  0  0  0  0  0  0  0  0
    2.8104    2.6385   20.3269 C   0  0  0  0  0  0  0  0  0  0  0  0
    3.4702    2.1384   21.4722 C   0  0  0  0  0  0  0  0  0  0  0  0
    4.5465    1.2936   21.3419 C   0  0  0  0  0  0  0  0  0  0  0  0
    5.0369    0.9437   20.0494 C   0  0  0  0  0  0  0  0  0  0  0  0
    5.0282    0.8938   22.2317 H   0  0  0  0  0  0  0  0  0  0  0  0
    3.1215    2.4278   22.4585 H   0  0  0  0  0  0  0  0  0  0  0  0
    1.9616    3.3060   20.4428 H   0  0  0  0  0  0  0  0  0  0  0  0
    2.7387    2.6351   18.1840 H   0  0  0  0  0  0  0  0  0  0  0  0
    4.2282    1.3315   16.7520 H   0  0  0  0  0  0  0  0  0  0  0  0
    7.3251   -0.8974   18.3198 H   0  0  0  0  0  0  0  0  0  0  0  0
    6.7311   -1.6229   21.4742 C   0  0  0  0  0  0  0  0  0  0  0  0
    7.8964   -1.7701   22.4424 C   0  0  2  0  0  0  0  0  0  0  0  0
    7.5275   -2.6398   23.6326 C   0  0  0  0  0  0  0  0  0  0  0  0
    8.6767   -2.8218   24.4909 N   0  0  0  0  0  0  0  0  0  0  0  0
    8.6335   -3.6425   25.5683 C   0  0  0  0  0  0  0  0  0  0  0  0
    9.7963   -3.9171   26.1830 N   0  0  0  0  0  0  0  0  0  0  0  0
    9.7094   -4.7070   27.2497 C   0  0  0  0  0  0  0  0  0  0  0  0
    8.5010   -5.2067   27.7212 C   0  0  0  0  0  0  0  0  0  0  0  0
    7.3721   -4.8617   26.9950 C   0  0  0  0  0  0  0  0  0  0  0  0
    7.4142   -4.0935   25.9133 N   0  0  0  0  0  0  0  0  0  0  0  0
    6.3847   -5.2217   27.2835 H   0  0  0  0  0  0  0  0  0  0  0  0
    8.4487   -5.8508   28.5873 H   0  0  0  0  0  0  0  0  0  0  0  0
   10.6514   -4.9501   27.7461 H   0  0  0  0  0  0  0  0  0  0  0  0
    9.5923   -2.5496   24.1670 H   0  0  0  0  0  0  0  0  0  0  0  0
    7.1431   -3.6074   23.2871 H   0  0  0  0  0  0  0  0  0  0  0  0
    6.7143   -2.1846   24.2099 H   0  0  0  0  0  0  0  0  0  0  0  0
    8.7049   -2.2886   21.9234 H   0  0  0  0  0  0  0  0  0  0  0  0
    5.7753   -1.6258   22.0251 H   0  0  0  0  0  0  0  0  0  0  0  0
    6.6896   -2.4318   20.7395 H   0  0  0  0  0  0  0  0  0  0  0  0
   10.1025   -1.4405   20.9365 H   0  0  0  0  0  0  0  0  0  0  0  0
   13.7394    0.3226   22.2791 H   0  0  0  0  0  0  0  0  0  0  0  0
   12.4735    1.5498   24.0487 H   0  0  0  0  0  0  0  0  0  0  0  0
  1  2  2  0
  2  3  1  0
  3  4  2  0
  4  5  1  0
  5  6  2  0
  6  7  1  0
  6  8  1  0
  8  9  2  0
  9 10  1  0
 10 11  1  1
 11 12  1  0
 12 13  1  0
 13 14  1  0
 14 15  1  0
 15 16  1  0
 16 17  1  0
 17 18  1  0
 18 19  1  0
 19 20  1  0
 20 21  1  0
 20 22  1  0
 18 23  1  0
 18 24  1  0
 17 25  1  0
 25 26  1  0
 25 27  1  0
 16 28  1  0
 16 29  1  0
 15 30  1  0
 14 31  1  0
 14 32  1  0
 13 33  1  0
 13 34  1  0
 11 35  1  0
 11 36  1  0
 10 37  1  0
 37 38  2  0
 37 39  1  0
 39 40  1  0
 40 41  2  0
 41 42  1  0
 42 43  2  0
 43 44  1  0
 44 45  2  0
 45 46  1  0
 46 47  2  0
 47 48  1  0
 48 49  2  0
 48 50  1  0
 47 51  1  0
 46 52  1  0
 45 53  1  0
 43 54  1  0
 41 55  1  0
 39 56  1  0
 56 57  1  0
 57 58  1  0
 58 59  1  0
 59 60  1  0
 60 61  2  0
 61 62  1  0
 62 63  2  0
 63 64  1  0
 64 65  2  0
 64 66  1  0
 63 67  1  0
 62 68  1  0
 59 69  1  0
 58 70  1  0
 58 71  1  0
 57 72  1  6
 56 73  1  0
 56 74  1  0
  8 75  1  0
  5 76  1  0
  4 77  1  0
 12  2  1  0
 25 15  1  0
 49 40  1  0
 65 60  1  0
  9  3  1  0
 57 10  1  0
 20 17  1  0
 49 44  1  0
M  CHG  1  15   1
M  END
>  <cnnaffinities>  (54) 
[6.67905]

>  <score>  (54) 
6.67905

>  <index>  (54) 
53

>  <Smiles>  (54) 
O=C1c2c(c(c(Cl)c(c2[C@@]2(C(N1C(C([N+]1(C(C3(C(OC3([H])[H])([H])[H])C1([H])[H])([H])[H])[H])([H])[H])([H])[H])([H])[H])C(=O)N(c1c(nc(c3c(c(c(c(c13)[H])[H])[H])[H])[H])[H])C([C@@]2(C(N(c1nc(c(c(n1)[H])[H])[H])[H])([H])[H])[H])([H])[H])[H])[H])[H]

>  <h>  (54) 
<NA>

>  <Training>  (54) 
True

>  <Success>  (54) 
True

>  <enamine_searched>  (54) 
False

>  <enamine_id>  (54) 
nan

$$$$

     RDKit          3D

 66 71  0  0  0  0  0  0  0  0999 V2000
    6.5080    4.2703   21.2065 C   0  0  0  0  0  0  0  0  0  0  0  0
    7.4889    3.9098   22.2230 N   0  0  0  0  0  0  0  0  0  0  0  0
    7.0612    3.3325   23.3759 C   0  0  0  0  0  0  0  0  0  0  0  0
    5.8770    3.1650   23.6273 O   0  0  0  0  0  0  0  0  0  0  0  0
    8.1494    2.9096   24.3728 C   0  0  0  0  0  0  0  0  0  0  0  0
    8.7993    1.6664   23.9798 N   0  0  0  0  0  0  0  0  0  0  0  0
    8.0018    0.4585   23.8240 C   0  0  0  0  0  0  0  0  0  0  0  0
    8.4244   -0.3922   22.5954 C   0  0  2  0  0  0  0  0  0  0  0  0
    7.9626    0.3005   21.2883 C   0  0  0  0  0  0  0  0  0  0  0  0
    8.4538    1.2778   20.7678 O   0  0  0  0  0  0  0  0  0  0  0  0
    6.8851   -0.3872   20.7825 N   0  0  0  0  0  0  0  0  0  0  0  0
    6.1172    0.1291   19.7152 C   0  0  0  0  0  0  0  0  0  0  0  0
    6.4558   -0.1633   18.4209 C   0  0  0  0  0  0  0  0  0  0  0  0
    5.7610    0.2740   17.3466 N   0  0  0  0  0  0  0  0  0  0  0  0
    4.7154    1.0347   17.5628 C   0  0  0  0  0  0  0  0  0  0  0  0
    4.2647    1.4235   18.8574 C   0  0  0  0  0  0  0  0  0  0  0  0
    3.1520    2.2843   19.0519 C   0  0  0  0  0  0  0  0  0  0  0  0
    2.7667    2.6499   20.3154 C   0  0  0  0  0  0  0  0  0  0  0  0
    3.4665    2.1671   21.4440 C   0  0  0  0  0  0  0  0  0  0  0  0
    4.5416    1.3257   21.2786 C   0  0  0  0  0  0  0  0  0  0  0  0
    4.9746    0.9402   19.9783 C   0  0  0  0  0  0  0  0  0  0  0  0
    5.1119    1.0088   22.1463 H   0  0  0  0  0  0  0  0  0  0  0  0
    3.1885    2.4914   22.4437 H   0  0  0  0  0  0  0  0  0  0  0  0
    1.9287    3.3265   20.4566 H   0  0  0  0  0  0  0  0  0  0  0  0
    2.6330    2.6593   18.1743 H   0  0  0  0  0  0  0  0  0  0  0  0
    4.1709    1.3926   16.6882 H   0  0  0  0  0  0  0  0  0  0  0  0
    7.3263   -0.7843   18.2169 H   0  0  0  0  0  0  0  0  0  0  0  0
    6.4404   -1.4910   21.5952 C   0  0  0  0  0  0  0  0  0  0  0  0
    7.6542   -1.7531   22.4931 C   0  0  2  0  0  0  0  0  0  0  0  0
    7.2555   -2.4757   23.7714 C   0  0  0  0  0  0  0  0  0  0  0  0
    8.4222   -3.0157   24.4322 N   0  0  0  0  0  0  0  0  0  0  0  0
    8.3260   -3.4038   25.7407 C   0  0  0  0  0  0  0  0  0  0  0  0
    9.4823   -3.7583   26.4673 C   0  0  0  0  0  0  0  0  0  0  0  0
    9.4331   -4.0679   27.7459 N   0  0  0  0  0  0  0  0  0  0  0  0
    8.2279   -4.0530   28.3349 C   0  0  0  0  0  0  0  0  0  0  0  0
    7.0835   -3.7882   27.6040 C   0  0  0  0  0  0  0  0  0  0  0  0
    7.1216   -3.4515   26.3087 N   0  0  0  0  0  0  0  0  0  0  0  0
    6.0892   -3.8362   28.0527 H   0  0  0  0  0  0  0  0  0  0  0  0
    8.2026   -4.2382   29.4047 H   0  0  0  0  0  0  0  0  0  0  0  0
   10.4635   -3.7507   25.9957 H   0  0  0  0  0  0  0  0  0  0  0  0
    9.3220   -2.6306   24.1711 H   0  0  0  0  0  0  0  0  0  0  0  0
    6.5688   -3.3018   23.5491 H   0  0  0  0  0  0  0  0  0  0  0  0
    6.7006   -1.8169   24.4552 H   0  0  0  0  0  0  0  0  0  0  0  0
    8.3129   -2.4254   21.9359 H   0  0  0  0  0  0  0  0  0  0  0  0
    6.1953   -2.3516   20.9634 H   0  0  0  0  0  0  0  0  0  0  0  0
    5.5302   -1.2428   22.1663 H   0  0  0  0  0  0  0  0  0  0  0  0
    9.9411   -0.4804   22.5417 C   0  0  0  0  0  0  0  0  0  0  0  0
   10.5473   -1.3611   21.6333 C   0  0  0  0  0  0  0  0  0  0  0  0
   11.9012   -1.2715   21.3789 C   0  0  0  0  0  0  0  0  0  0  0  0
   12.5724   -2.2735   20.1194 Cl  0  0  0  0  0  0  0  0  0  0  0  0
   12.7116   -0.3534   22.0512 C   0  0  0  0  0  0  0  0  0  0  0  0
   12.1338    0.4797   22.9870 C   0  0  0  0  0  0  0  0  0  0  0  0
   10.7533    0.4651   23.1870 C   0  0  0  0  0  0  0  0  0  0  0  0
   10.1675    1.6102   23.9624 C   0  0  0  0  0  0  0  0  0  0  0  0
   10.8731    2.4711   24.4727 O   0  0  0  0  0  0  0  0  0  0  0  0
   12.7266    1.1869   23.5577 H   0  0  0  0  0  0  0  0  0  0  0  0
   13.7650   -0.2790   21.8089 H   0  0  0  0  0  0  0  0  0  0  0  0
    9.9763   -2.0810   21.0570 H   0  0  0  0  0  0  0  0  0  0  0  0
    6.9611    0.7712   23.7205 H   0  0  0  0  0  0  0  0  0  0  0  0
    8.0857   -0.1509   24.7337 H   0  0  0  0  0  0  0  0  0  0  0  0
    8.9430    3.6592   24.4279 H   0  0  0  0  0  0  0  0  0  0  0  0
    7.6920    2.8361   25.3694 H   0  0  0  0  0  0  0  0  0  0  0  0
    8.4346    3.6945   21.9349 H   0  0  0  0  0  0  0  0  0  0  0  0
    7.0192    4.7526   20.3725 H   0  0  0  0  0  0  0  0  0  0  0  0
    5.7818    4.9749   21.6296 H   0  0  0  0  0  0  0  0  0  0  0  0
    5.9674    3.3851   20.8382 H   0  0  0  0  0  0  0  0  0  0  0  0
  1  2  1  0
  2  3  1  0
  3  4  2  0
  3  5  1  0
  5  6  1  0
  6  7  1  0
  8  7  1  1
  8  9  1  0
  9 10  2  0
  9 11  1  0
 11 12  1  0
 12 13  2  0
 13 14  1  0
 14 15  2  0
 15 16  1  0
 16 17  2  0
 17 18  1  0
 18 19  2  0
 19 20  1  0
 20 21  2  0
 20 22  1  0
 19 23  1  0
 18 24  1  0
 17 25  1  0
 15 26  1  0
 13 27  1  0
 11 28  1  0
 28 29  1  0
 29 30  1  0
 30 31  1  0
 31 32  1  0
 32 33  2  0
 33 34  1  0
 34 35  2  0
 35 36  1  0
 36 37  2  0
 36 38  1  0
 35 39  1  0
 33 40  1  0
 31 41  1  0
 30 42  1  0
 30 43  1  0
 29 44  1  6
 28 45  1  0
 28 46  1  0
  8 47  1  0
 47 48  2  0
 48 49  1  0
 49 50  1  0
 49 51  2  0
 51 52  1  0
 52 53  2  0
 53 54  1  0
 54 55  2  0
 52 56  1  0
 51 57  1  0
 48 58  1  0
  7 59  1  0
  7 60  1  0
  5 61  1  0
  5 62  1  0
  2 63  1  0
  1 64  1  0
  1 65  1  0
  1 66  1  0
 54  6  1  0
 29  8  1  0
 37 32  1  0
 53 47  1  0
 21 12  1  0
 21 16  1  0
M  END
>  <cnnaffinities>  (55) 
[6.84643, 7.20683]

>  <score>  (55) 
6.84643

>  <index>  (55) 
54

>  <Smiles>  (55) 
C(N(C(=O)C(N1C([C@@]2(C(=O)N(c3c(nc(c4c(c(c(c(c34)[H])[H])[H])[H])[H])[H])C([C@@]2(C(N(c2c(nc(c(n2)[H])[H])[H])[H])([H])[H])[H])([H])[H])c2c(c(Cl)c(c(c2C1=O)[H])[H])[H])([H])[H])([H])[H])[H])([H])([H])[H]

>  <h>  (55) 
<NA>

>  <Training>  (55) 
True

>  <Success>  (55) 
True

>  <enamine_searched>  (55) 
False

>  <enamine_id>  (55) 
nan

$$$$

     RDKit          3D

 56 61  0  0  0  0  0  0  0  0999 V2000
   12.6341    2.5616   22.3096 C   0  0  0  0  0  0  0  0  0  0  0  0
   12.6451    1.1754   22.7350 N   0  0  0  0  0  0  0  0  0  0  0  0
   13.0254    0.6804   23.9296 C   0  0  0  0  0  0  0  0  0  0  0  0
   12.8302   -0.6746   23.8973 C   0  0  0  0  0  0  0  0  0  0  0  0
   12.2977   -0.9152   22.6133 C   0  0  0  0  0  0  0  0  0  0  0  0
   11.8790   -2.2354   22.0391 C   0  0  0  0  0  0  0  0  0  0  0  0
   10.5055   -2.6175   22.3644 N   0  0  0  0  0  0  0  0  0  0  0  0
    9.4120   -2.4675   21.4234 C   0  0  0  0  0  0  0  0  0  0  0  0
    8.1833   -1.8575   22.1392 C   0  0  1  0  0  0  0  0  0  0  0  0
    8.4676   -0.3912   22.5651 C   0  0  0  0  0  0  0  0  0  0  0  0
    7.8547    0.4926   21.4716 C   0  0  0  0  0  0  0  0  0  0  0  0
    6.8713   -0.3793   20.8499 N   0  0  0  0  0  0  0  0  0  0  0  0
    6.0817    0.0579   19.7613 C   0  0  0  0  0  0  0  0  0  0  0  0
    6.4139   -0.2645   18.4713 C   0  0  0  0  0  0  0  0  0  0  0  0
    5.7636    0.2223   17.3871 N   0  0  0  0  0  0  0  0  0  0  0  0
    4.7545    1.0288   17.5925 C   0  0  0  0  0  0  0  0  0  0  0  0
    4.2924    1.4246   18.8784 C   0  0  0  0  0  0  0  0  0  0  0  0
    3.1755    2.2810   19.0578 C   0  0  0  0  0  0  0  0  0  0  0  0
    2.7675    2.6220   20.3175 C   0  0  0  0  0  0  0  0  0  0  0  0
    3.4507    2.1259   21.4530 C   0  0  0  0  0  0  0  0  0  0  0  0
    4.5333    1.2941   21.3046 C   0  0  0  0  0  0  0  0  0  0  0  0
    4.9773    0.9284   20.0065 C   0  0  0  0  0  0  0  0  0  0  0  0
    5.0576    0.8943   22.1684 H   0  0  0  0  0  0  0  0  0  0  0  0
    3.1141    2.3992   22.4492 H   0  0  0  0  0  0  0  0  0  0  0  0
    1.9121    3.2784   20.4574 H   0  0  0  0  0  0  0  0  0  0  0  0
    2.6610    2.6520   18.1754 H   0  0  0  0  0  0  0  0  0  0  0  0
    4.2390    1.4017   16.7095 H   0  0  0  0  0  0  0  0  0  0  0  0
    7.2516   -0.9264   18.2616 H   0  0  0  0  0  0  0  0  0  0  0  0
    7.0391   -1.7152   21.1344 C   0  0  0  0  0  0  0  0  0  0  0  0
    6.3675   -2.6067   20.6549 O   0  0  0  0  0  0  0  0  0  0  0  0
    8.6051    0.8247   20.7361 H   0  0  0  0  0  0  0  0  0  0  0  0
    7.3788    1.3912   21.8790 H   0  0  0  0  0  0  0  0  0  0  0  0
    9.5378   -0.1999   22.6708 H   0  0  0  0  0  0  0  0  0  0  0  0
    8.0024   -0.2130   23.5383 H   0  0  0  0  0  0  0  0  0  0  0  0
    7.8315   -2.7642   23.3025 C   0  0  0  0  0  0  0  0  0  0  0  0
    6.5208   -2.9098   23.7730 C   0  0  0  0  0  0  0  0  0  0  0  0
    6.2662   -3.7264   24.8635 C   0  0  0  0  0  0  0  0  0  0  0  0
    4.6408   -3.8525   25.4893 Cl  0  0  0  0  0  0  0  0  0  0  0  0
    7.2885   -4.4611   25.4679 C   0  0  0  0  0  0  0  0  0  0  0  0
    8.5931   -4.2770   25.0398 C   0  0  0  0  0  0  0  0  0  0  0  0
    8.8692   -3.4122   23.9817 C   0  0  0  0  0  0  0  0  0  0  0  0
   10.2970   -3.1502   23.6133 C   0  0  0  0  0  0  0  0  0  0  0  0
   11.2203   -3.3730   24.3866 O   0  0  0  0  0  0  0  0  0  0  0  0
    9.4259   -4.7918   25.5158 H   0  0  0  0  0  0  0  0  0  0  0  0
    7.0569   -5.1654   26.2610 H   0  0  0  0  0  0  0  0  0  0  0  0
    5.6872   -2.4262   23.2736 H   0  0  0  0  0  0  0  0  0  0  0  0
    9.7127   -1.8079   20.6027 H   0  0  0  0  0  0  0  0  0  0  0  0
    9.1116   -3.4444   21.0286 H   0  0  0  0  0  0  0  0  0  0  0  0
   12.0045   -2.2187   20.9524 H   0  0  0  0  0  0  0  0  0  0  0  0
   12.5262   -3.0109   22.4583 H   0  0  0  0  0  0  0  0  0  0  0  0
   12.1835    0.2133   21.9190 N   0  0  0  0  0  0  0  0  0  0  0  0
   13.0358   -1.3847   24.6879 H   0  0  0  0  0  0  0  0  0  0  0  0
   13.3321    1.3257   24.7285 H   0  0  0  0  0  0  0  0  0  0  0  0
   13.6511    2.9619   22.2448 H   0  0  0  0  0  0  0  0  0  0  0  0
   12.1894    2.5853   21.3169 H   0  0  0  0  0  0  0  0  0  0  0  0
   12.0256    3.1791   22.9809 H   0  0  0  0  0  0  0  0  0  0  0  0
  1  2  1  0
  2  3  1  0
  3  4  2  0
  4  5  1  0
  5  6  1  0
  6  7  1  0
  7  8  1  0
  9  8  1  6
  9 10  1  0
 10 11  1  0
 11 12  1  0
 12 13  1  0
 13 14  2  0
 14 15  1  0
 15 16  2  0
 16 17  1  0
 17 18  2  0
 18 19  1  0
 19 20  2  0
 20 21  1  0
 21 22  2  0
 21 23  1  0
 20 24  1  0
 19 25  1  0
 18 26  1  0
 16 27  1  0
 14 28  1  0
 12 29  1  0
 29 30  2  0
 11 31  1  0
 11 32  1  0
 10 33  1  0
 10 34  1  0
  9 35  1  0
 35 36  2  0
 36 37  1  0
 37 38  1  0
 37 39  2  0
 39 40  1  0
 40 41  2  0
 41 42  1  0
 42 43  2  0
 40 44  1  0
 39 45  1  0
 36 46  1  0
  8 47  1  0
  8 48  1  0
  6 49  1  0
  6 50  1  0
  5 51  2  0
  4 52  1  0
  3 53  1  0
  1 54  1  0
  1 55  1  0
  1 56  1  0
 51  2  1  0
 42  7  1  0
 29  9  1  0
 41 35  1  0
 22 13  1  0
 22 17  1  0
M  END
>  <cnnaffinities>  (56) 
[7.10983]

>  <score>  (56) 
7.10983

>  <index>  (56) 
55

>  <Smiles>  (56) 
C(n1c(c(c(C(N2C([C@]3(C(C(N(c4c(nc(c5c(c(c(c(c45)[H])[H])[H])[H])[H])[H])C3=O)([H])[H])([H])[H])c3c(c(Cl)c(c(c3C2=O)[H])[H])[H])([H])[H])([H])[H])n1)[H])[H])([H])([H])[H]

>  <h>  (56) 
<NA>

>  <Training>  (56) 
True

>  <Success>  (56) 
True

>  <enamine_searched>  (56) 
False

>  <enamine_id>  (56) 
nan

$$$$

     RDKit          3D

 41 43  0  0  0  0  0  0  0  0999 V2000
    8.0634    1.6456   20.9623 O   0  0  0  0  0  0  0  0  0  0  0  0
    7.8807    0.5929   21.5439 C   0  0  0  0  0  0  0  0  0  0  0  0
    6.9434   -0.4658   20.9164 C   0  0  0  0  0  0  0  0  0  0  0  0
    6.1156    0.0851   19.7749 C   0  0  0  0  0  0  0  0  0  0  0  0
    6.4274   -0.2072   18.4696 C   0  0  0  0  0  0  0  0  0  0  0  0
    5.7616    0.2458   17.3755 N   0  0  0  0  0  0  0  0  0  0  0  0
    4.7317    1.0302   17.5787 C   0  0  0  0  0  0  0  0  0  0  0  0
    4.2885    1.4254   18.8706 C   0  0  0  0  0  0  0  0  0  0  0  0
    3.1702    2.2819   19.0429 C   0  0  0  0  0  0  0  0  0  0  0  0
    2.7665    2.6480   20.3008 C   0  0  0  0  0  0  0  0  0  0  0  0
    3.4666    2.1724   21.4303 C   0  0  0  0  0  0  0  0  0  0  0  0
    4.5545    1.3415   21.2889 C   0  0  0  0  0  0  0  0  0  0  0  0
    4.9976    0.9457   19.9988 C   0  0  0  0  0  0  0  0  0  0  0  0
    5.0814    0.9905   22.1723 H   0  0  0  0  0  0  0  0  0  0  0  0
    3.1430    2.4720   22.4215 H   0  0  0  0  0  0  0  0  0  0  0  0
    1.9138    3.3083   20.4358 H   0  0  0  0  0  0  0  0  0  0  0  0
    2.6438    2.6467   18.1644 H   0  0  0  0  0  0  0  0  0  0  0  0
    4.1984    1.3980   16.7000 H   0  0  0  0  0  0  0  0  0  0  0  0
    7.2730   -0.8558   18.2472 H   0  0  0  0  0  0  0  0  0  0  0  0
    6.2878   -0.8986   21.6801 H   0  0  0  0  0  0  0  0  0  0  0  0
    7.5725   -1.2820   20.5317 H   0  0  0  0  0  0  0  0  0  0  0  0
    8.5092    0.3436   22.7614 N   0  0  0  0  0  0  0  0  0  0  0  0
    9.4033    1.3979   23.2730 C   0  0  0  0  0  0  0  0  0  0  0  0
   10.7753    1.4391   22.6076 C   0  0  0  0  0  0  0  0  0  0  0  0
   11.7201    0.3319   23.0446 C   0  0  0  0  0  0  0  0  0  0  0  0
   11.1391   -1.3488   22.6980 S   0  0  0  0  0  0  0  0  0  0  0  0
    9.8354   -1.4450   23.9470 C   0  0  0  0  0  0  0  0  0  0  0  0
    8.4752   -0.9374   23.4467 C   0  0  1  0  0  0  0  0  0  0  0  0
    7.4685   -0.8745   24.5933 C   0  0  0  0  0  0  0  0  0  0  0  0
    6.2772   -0.4315   24.1569 F   0  0  0  0  0  0  0  0  0  0  0  0
    7.2798   -2.0841   25.1515 F   0  0  0  0  0  0  0  0  0  0  0  0
    7.8754   -0.0476   25.5780 F   0  0  0  0  0  0  0  0  0  0  0  0
    8.0965   -1.7016   22.7632 H   0  0  0  0  0  0  0  0  0  0  0  0
   10.1714   -0.9072   24.8352 H   0  0  0  0  0  0  0  0  0  0  0  0
    9.7524   -2.4960   24.2412 H   0  0  0  0  0  0  0  0  0  0  0  0
   11.9063    0.3969   24.1203 H   0  0  0  0  0  0  0  0  0  0  0  0
   12.6892    0.4349   22.5444 H   0  0  0  0  0  0  0  0  0  0  0  0
   11.2596    2.4093   22.7976 H   0  0  0  0  0  0  0  0  0  0  0  0
   10.6126    1.3632   21.5406 H   0  0  0  0  0  0  0  0  0  0  0  0
    9.5252    1.2718   24.3467 H   0  0  0  0  0  0  0  0  0  0  0  0
    8.9001    2.3540   23.1243 H   0  0  0  0  0  0  0  0  0  0  0  0
  1  2  2  0
  2  3  1  0
  3  4  1  0
  4  5  2  0
  5  6  1  0
  6  7  2  0
  7  8  1  0
  8  9  2  0
  9 10  1  0
 10 11  2  0
 11 12  1  0
 12 13  2  0
 12 14  1  0
 11 15  1  0
 10 16  1  0
  9 17  1  0
  7 18  1  0
  5 19  1  0
  3 20  1  0
  3 21  1  0
  2 22  1  0
 22 23  1  0
 23 24  1  0
 24 25  1  0
 25 26  1  0
 26 27  1  0
 27 28  1  0
 28 29  1  0
 29 30  1  0
 29 31  1  0
 29 32  1  0
 28 33  1  6
 27 34  1  0
 27 35  1  0
 25 36  1  0
 25 37  1  0
 24 38  1  0
 24 39  1  0
 23 40  1  0
 23 41  1  0
 13  4  1  0
 28 22  1  0
 13  8  1  0
M  END
>  <cnnaffinities>  (57) 
[6.17079, 6.17073, 6.17073, 6.10877, 6.10803]

>  <score>  (57) 
6.17079

>  <index>  (57) 
56

>  <Smiles>  (57) 
O=C(C(c1c(nc(c2c(c(c(c(c12)[H])[H])[H])[H])[H])[H])([H])[H])N1C(C(C(SC([C@]1(C(F)(F)F)[H])([H])[H])([H])[H])([H])[H])([H])[H]

>  <h>  (57) 
<NA>

>  <Training>  (57) 
True

>  <Success>  (57) 
True

>  <enamine_searched>  (57) 
False

>  <enamine_id>  (57) 
nan

$$$$

     RDKit          3D

 67 72  0  0  0  0  0  0  0  0999 V2000
    6.5090    4.2958   21.2624 C   0  0  0  0  0  0  0  0  0  0  0  0
    7.4826    3.9311   22.2839 N   0  0  0  0  0  0  0  0  0  0  0  0
    7.0276    3.3309   23.4183 C   0  0  0  0  0  0  0  0  0  0  0  0
    5.8345    3.1527   23.6184 O   0  0  0  0  0  0  0  0  0  0  0  0
    8.0711    2.8567   24.4485 C   0  0  0  0  0  0  0  0  0  0  0  0
    8.7402    1.6406   23.9991 N   0  0  0  0  0  0  0  0  0  0  0  0
    7.9802    0.3987   23.8765 C   0  0  0  0  0  0  0  0  0  0  0  0
    8.3973   -0.4136   22.6214 C   0  0  2  0  0  0  0  0  0  0  0  0
    7.8966    0.2664   21.3256 C   0  0  0  0  0  0  0  0  0  0  0  0
    8.3612    1.2466   20.7787 O   0  0  0  0  0  0  0  0  0  0  0  0
    6.8209   -0.4443   20.8458 N   0  0  0  0  0  0  0  0  0  0  0  0
    6.0763    0.0749   19.7638 C   0  0  0  0  0  0  0  0  0  0  0  0
    6.4505   -0.1985   18.4740 C   0  0  0  0  0  0  0  0  0  0  0  0
    5.7845    0.2530   17.3890 N   0  0  0  0  0  0  0  0  0  0  0  0
    4.7382    1.0164   17.5934 C   0  0  0  0  0  0  0  0  0  0  0  0
    4.2696    1.4069   18.8807 C   0  0  0  0  0  0  0  0  0  0  0  0
    3.1610    2.2751   19.0572 C   0  0  0  0  0  0  0  0  0  0  0  0
    2.7646    2.6465   20.3136 C   0  0  0  0  0  0  0  0  0  0  0  0
    3.4579    2.1763   21.4505 C   0  0  0  0  0  0  0  0  0  0  0  0
    4.5341    1.3319   21.3057 C   0  0  0  0  0  0  0  0  0  0  0  0
    4.9596    0.9226   20.0114 C   0  0  0  0  0  0  0  0  0  0  0  0
    5.1068    1.0273   22.1769 H   0  0  0  0  0  0  0  0  0  0  0  0
    3.1690    2.5099   22.4420 H   0  0  0  0  0  0  0  0  0  0  0  0
    1.9179    3.3158   20.4421 H   0  0  0  0  0  0  0  0  0  0  0  0
    2.6526    2.6426   18.1715 H   0  0  0  0  0  0  0  0  0  0  0  0
    4.2155    1.3779   16.7099 H   0  0  0  0  0  0  0  0  0  0  0  0
    7.3278   -0.8143   18.2860 H   0  0  0  0  0  0  0  0  0  0  0  0
    6.4385   -1.5885   21.6463 C   0  0  0  0  0  0  0  0  0  0  0  0
    7.6909   -1.7973   22.5102 C   0  0  2  0  0  0  0  0  0  0  0  0
    7.4215   -2.5825   23.7936 C   0  0  0  0  0  0  0  0  0  0  0  0
    7.0238   -3.9382   23.4909 N   0  0  0  0  0  0  0  0  0  0  0  0
    5.7096   -4.3223   23.4595 C   0  0  0  0  0  0  0  0  0  0  0  0
    4.6360   -3.7399   24.0667 C   0  0  0  0  0  0  0  0  0  0  0  0
    3.4335   -4.3898   23.9390 N   0  0  0  0  0  0  0  0  0  0  0  0
    3.5465   -5.4617   23.2209 C   0  0  0  0  0  0  0  0  0  0  0  0
    2.3729   -6.3039   22.8338 C   0  0  0  0  0  0  0  0  0  0  0  0
    2.1368   -6.1622   21.7721 H   0  0  0  0  0  0  0  0  0  0  0  0
    2.5467   -7.3693   23.0214 H   0  0  0  0  0  0  0  0  0  0  0  0
    1.5073   -5.9626   23.4075 H   0  0  0  0  0  0  0  0  0  0  0  0
    5.1768   -5.7925   22.6708 S   0  0  0  0  0  0  0  0  0  0  0  0
    4.6676   -2.8433   24.6774 H   0  0  0  0  0  0  0  0  0  0  0  0
    7.7309   -4.6507   23.3929 H   0  0  0  0  0  0  0  0  0  0  0  0
    8.3190   -2.5991   24.4223 H   0  0  0  0  0  0  0  0  0  0  0  0
    6.6143   -2.1021   24.3586 H   0  0  0  0  0  0  0  0  0  0  0  0
    8.3575   -2.4189   21.9124 H   0  0  0  0  0  0  0  0  0  0  0  0
    5.5362   -1.3957   22.2494 H   0  0  0  0  0  0  0  0  0  0  0  0
    6.2130   -2.4663   21.0286 H   0  0  0  0  0  0  0  0  0  0  0  0
    9.9082   -0.4633   22.5525 C   0  0  0  0  0  0  0  0  0  0  0  0
   10.5277   -1.3290   21.6406 C   0  0  0  0  0  0  0  0  0  0  0  0
   11.8903   -1.2863   21.4380 C   0  0  0  0  0  0  0  0  0  0  0  0
   12.5396   -2.2939   20.1622 Cl  0  0  0  0  0  0  0  0  0  0  0  0
   12.6912   -0.4109   22.1792 C   0  0  0  0  0  0  0  0  0  0  0  0
   12.0929    0.4312   23.0896 C   0  0  0  0  0  0  0  0  0  0  0  0
   10.7090    0.4663   23.2226 C   0  0  0  0  0  0  0  0  0  0  0  0
   10.1093    1.6140   23.9747 C   0  0  0  0  0  0  0  0  0  0  0  0
   10.7995    2.4901   24.4819 O   0  0  0  0  0  0  0  0  0  0  0  0
   12.6815    1.1183   23.6854 H   0  0  0  0  0  0  0  0  0  0  0  0
   13.7582   -0.3266   22.0338 H   0  0  0  0  0  0  0  0  0  0  0  0
    9.9778   -2.0120   21.0048 H   0  0  0  0  0  0  0  0  0  0  0  0
    6.9216    0.6600   23.8111 H   0  0  0  0  0  0  0  0  0  0  0  0
    8.1341   -0.2114   24.7811 H   0  0  0  0  0  0  0  0  0  0  0  0
    8.8608    3.5985   24.6229 H   0  0  0  0  0  0  0  0  0  0  0  0
    7.5543    2.7003   25.4080 H   0  0  0  0  0  0  0  0  0  0  0  0
    8.4209    3.7102   21.9690 H   0  0  0  0  0  0  0  0  0  0  0  0
    5.9790    3.4078   20.8884 H   0  0  0  0  0  0  0  0  0  0  0  0
    5.7659    4.9800   21.6870 H   0  0  0  0  0  0  0  0  0  0  0  0
    7.0281    4.7965   20.4424 H   0  0  0  0  0  0  0  0  0  0  0  0
  1  2  1  0
  2  3  1  0
  3  4  2  0
  3  5  1  0
  5  6  1  0
  6  7  1  0
  8  7  1  1
  8  9  1  0
  9 10  2  0
  9 11  1  0
 11 12  1  0
 12 13  2  0
 13 14  1  0
 14 15  2  0
 15 16  1  0
 16 17  2  0
 17 18  1  0
 18 19  2  0
 19 20  1  0
 20 21  2  0
 20 22  1  0
 19 23  1  0
 18 24  1  0
 17 25  1  0
 15 26  1  0
 13 27  1  0
 11 28  1  0
 28 29  1  0
 29 30  1  0
 30 31  1  0
 31 32  1  0
 32 33  2  0
 33 34  1  0
 34 35  2  0
 35 36  1  0
 36 37  1  0
 36 38  1  0
 36 39  1  0
 35 40  1  0
 33 41  1  0
 31 42  1  0
 30 43  1  0
 30 44  1  0
 29 45  1  6
 28 46  1  0
 28 47  1  0
  8 48  1  0
 48 49  2  0
 49 50  1  0
 50 51  1  0
 50 52  2  0
 52 53  1  0
 53 54  2  0
 54 55  1  0
 55 56  2  0
 53 57  1  0
 52 58  1  0
 49 59  1  0
  7 60  1  0
  7 61  1  0
  5 62  1  0
  5 63  1  0
  2 64  1  0
  1 65  1  0
  1 66  1  0
  1 67  1  0
 55  6  1  0
 29  8  1  0
 40 32  1  0
 54 48  1  0
 21 12  1  0
 21 16  1  0
M  END
>  <cnnaffinities>  (58) 
[7.05838]

>  <score>  (58) 
7.05838

>  <index>  (58) 
57

>  <Smiles>  (58) 
C(N(C(=O)C(N1C([C@@]2(C(=O)N(c3c(nc(c4c(c(c(c(c34)[H])[H])[H])[H])[H])[H])C([C@@]2(C(N(c2c(nc(C([H])([H])[H])s2)[H])[H])([H])[H])[H])([H])[H])c2c(c(Cl)c(c(c2C1=O)[H])[H])[H])([H])[H])([H])[H])[H])([H])([H])[H]

>  <h>  (58) 
<NA>

>  <Training>  (58) 
True

>  <Success>  (58) 
True

>  <enamine_searched>  (58) 
False

>  <enamine_id>  (58) 
nan

$$$$

     RDKit          3D

 57 62  0  0  0  0  0  0  0  0999 V2000
    7.7516   -2.9866   23.3405 C   0  0  0  0  0  0  0  0  0  0  0  0
    8.0315   -1.8994   22.2947 C   0  0  1  0  0  0  0  0  0  0  0  0
    6.9105   -1.7892   21.2421 C   0  0  0  0  0  0  0  0  0  0  0  0
    6.9347   -0.3989   20.8335 N   0  0  0  0  0  0  0  0  0  0  0  0
    6.1438    0.1118   19.7719 C   0  0  0  0  0  0  0  0  0  0  0  0
    6.4431   -0.2208   18.4771 C   0  0  0  0  0  0  0  0  0  0  0  0
    5.7639    0.2290   17.3947 N   0  0  0  0  0  0  0  0  0  0  0  0
    4.7449    1.0212   17.5997 C   0  0  0  0  0  0  0  0  0  0  0  0
    4.2942    1.4190   18.8871 C   0  0  0  0  0  0  0  0  0  0  0  0
    3.1682    2.2690   19.0604 C   0  0  0  0  0  0  0  0  0  0  0  0
    2.7414    2.6127   20.3108 C   0  0  0  0  0  0  0  0  0  0  0  0
    3.4154    2.1100   21.4488 C   0  0  0  0  0  0  0  0  0  0  0  0
    4.5046    1.2906   21.3062 C   0  0  0  0  0  0  0  0  0  0  0  0
    4.9978    0.9395   20.0187 C   0  0  0  0  0  0  0  0  0  0  0  0
    5.0186    0.9123   22.1871 H   0  0  0  0  0  0  0  0  0  0  0  0
    3.0709    2.3915   22.4393 H   0  0  0  0  0  0  0  0  0  0  0  0
    1.8883    3.2740   20.4417 H   0  0  0  0  0  0  0  0  0  0  0  0
    2.6614    2.6396   18.1709 H   0  0  0  0  0  0  0  0  0  0  0  0
    4.2181    1.3846   16.7151 H   0  0  0  0  0  0  0  0  0  0  0  0
    7.2846   -0.8768   18.2587 H   0  0  0  0  0  0  0  0  0  0  0  0
    7.6413    0.4194   21.6819 C   0  0  0  0  0  0  0  0  0  0  0  0
    7.7494    1.6196   21.5438 O   0  0  0  0  0  0  0  0  0  0  0  0
    8.2350   -0.4458   22.8221 C   0  0  1  0  0  0  0  0  0  0  0  0
    7.4406   -0.1801   24.1244 C   0  0  0  0  0  0  0  0  0  0  0  0
    7.6809    1.1617   24.6076 N   0  0  0  0  0  0  0  0  0  0  0  0
    6.5567    1.9384   25.0933 C   0  0  0  0  0  0  0  0  0  0  0  0
    6.0186    1.4594   26.4183 C   0  0  0  0  0  0  0  0  0  0  0  0
    6.5160    1.9642   27.6139 C   0  0  0  0  0  0  0  0  0  0  0  0
    5.9955    1.4463   28.7866 C   0  0  0  0  0  0  0  0  0  0  0  0
    5.0428    0.5117   28.7896 N   0  0  0  0  0  0  0  0  0  0  0  0
    4.6231    0.1125   27.5896 C   0  0  0  0  0  0  0  0  0  0  0  0
    5.0486    0.5344   26.4028 N   0  0  0  0  0  0  0  0  0  0  0  0
    3.8469   -0.6549   27.5845 H   0  0  0  0  0  0  0  0  0  0  0  0
    6.3472    1.7747   29.7682 H   0  0  0  0  0  0  0  0  0  0  0  0
    7.2902    2.7242   27.6042 H   0  0  0  0  0  0  0  0  0  0  0  0
    5.7519    1.8701   24.3502 H   0  0  0  0  0  0  0  0  0  0  0  0
    6.8901    2.9760   25.1764 H   0  0  0  0  0  0  0  0  0  0  0  0
    8.9544    1.5722   24.8723 C   0  0  0  0  0  0  0  0  0  0  0  0
    9.2072    2.4514   25.6859 O   0  0  0  0  0  0  0  0  0  0  0  0
   10.0073    0.8826   24.0560 C   0  0  0  0  0  0  0  0  0  0  0  0
   11.3297    1.2479   24.2763 C   0  0  0  0  0  0  0  0  0  0  0  0
   12.3421    0.7961   23.4559 C   0  0  0  0  0  0  0  0  0  0  0  0
   11.9848   -0.0110   22.3819 C   0  0  0  0  0  0  0  0  0  0  0  0
   12.9328   -0.3632   21.5011 F   0  0  0  0  0  0  0  0  0  0  0  0
   10.6889   -0.4364   22.1692 C   0  0  0  0  0  0  0  0  0  0  0  0
    9.6761   -0.0344   23.0504 C   0  0  0  0  0  0  0  0  0  0  0  0
   10.4974   -1.0417   21.2892 H   0  0  0  0  0  0  0  0  0  0  0  0
   13.3817    1.0758   23.5840 H   0  0  0  0  0  0  0  0  0  0  0  0
   11.4846    1.9299   25.0936 H   0  0  0  0  0  0  0  0  0  0  0  0
    6.3674   -0.2753   23.9440 H   0  0  0  0  0  0  0  0  0  0  0  0
    7.7266   -0.9099   24.8993 H   0  0  0  0  0  0  0  0  0  0  0  0
    7.0768   -2.4218   20.3721 H   0  0  0  0  0  0  0  0  0  0  0  0
    5.9346   -2.0705   21.6662 H   0  0  0  0  0  0  0  0  0  0  0  0
    8.9582   -2.1630   21.7780 H   0  0  0  0  0  0  0  0  0  0  0  0
    7.6981   -3.9768   22.8718 H   0  0  0  0  0  0  0  0  0  0  0  0
    6.7926   -2.8116   23.8446 H   0  0  0  0  0  0  0  0  0  0  0  0
    8.5278   -3.0265   24.1148 H   0  0  0  0  0  0  0  0  0  0  0  0
  1  2  1  0
  2  3  1  0
  3  4  1  0
  4  5  1  0
  5  6  2  0
  6  7  1  0
  7  8  2  0
  8  9  1  0
  9 10  2  0
 10 11  1  0
 11 12  2  0
 12 13  1  0
 13 14  2  0
 13 15  1  0
 12 16  1  0
 11 17  1  0
 10 18  1  0
  8 19  1  0
  6 20  1  0
  4 21  1  0
 21 22  2  0
 21 23  1  0
 23 24  1  1
 24 25  1  0
 25 26  1  0
 26 27  1  0
 27 28  2  0
 28 29  1  0
 29 30  2  0
 30 31  1  0
 31 32  2  0
 31 33  1  0
 29 34  1  0
 28 35  1  0
 26 36  1  0
 26 37  1  0
 25 38  1  0
 38 39  2  0
 38 40  1  0
 40 41  2  0
 41 42  1  0
 42 43  2  0
 43 44  1  0
 43 45  1  0
 45 46  2  0
 45 47  1  0
 42 48  1  0
 41 49  1  0
 24 50  1  0
 24 51  1  0
  3 52  1  0
  3 53  1  0
  2 54  1  6
  1 55  1  0
  1 56  1  0
  1 57  1  0
 23  2  1  0
 32 27  1  0
 46 40  1  0
 14  5  1  0
 46 23  1  0
 14  9  1  0
M  END
>  <cnnaffinities>  (59) 
[6.62389]

>  <score>  (59) 
6.62389

>  <index>  (59) 
58

>  <Smiles>  (59) 
C([C@]1(C(N(c2c(nc(c3c(c(c(c(c23)[H])[H])[H])[H])[H])[H])C(=O)[C@]21C(N(C(c1c(c(nc(n1)[H])[H])[H])([H])[H])C(=O)c1c(c(c(F)c(c21)[H])[H])[H])([H])[H])([H])[H])[H])([H])([H])[H]

>  <h>  (59) 
<NA>

>  <Training>  (59) 
True

>  <Success>  (59) 
True

>  <enamine_searched>  (59) 
False

>  <enamine_id>  (59) 
nan

$$$$

     RDKit          3D

 60 65  0  0  0  0  0  0  0  0999 V2000
   10.0790   -3.4734   24.0820 C   0  0  0  0  0  0  0  0  0  0  0  0
    8.8740   -2.7943   24.3201 O   0  0  0  0  0  0  0  0  0  0  0  0
    7.9245   -2.9252   23.2825 C   0  0  0  0  0  0  0  0  0  0  0  0
    8.0946   -1.8422   22.2076 C   0  0  1  0  0  0  0  0  0  0  0  0
    6.9039   -1.7682   21.2426 C   0  0  0  0  0  0  0  0  0  0  0  0
    6.9060   -0.3854   20.8140 N   0  0  0  0  0  0  0  0  0  0  0  0
    6.1146    0.1059   19.7605 C   0  0  0  0  0  0  0  0  0  0  0  0
    6.4317   -0.2261   18.4703 C   0  0  0  0  0  0  0  0  0  0  0  0
    5.7668    0.2267   17.3841 N   0  0  0  0  0  0  0  0  0  0  0  0
    4.7474    1.0204   17.5971 C   0  0  0  0  0  0  0  0  0  0  0  0
    4.2987    1.4165   18.8873 C   0  0  0  0  0  0  0  0  0  0  0  0
    3.1785    2.2687   19.0526 C   0  0  0  0  0  0  0  0  0  0  0  0
    2.7452    2.6129   20.3010 C   0  0  0  0  0  0  0  0  0  0  0  0
    3.4052    2.1157   21.4475 C   0  0  0  0  0  0  0  0  0  0  0  0
    4.4963    1.2973   21.3156 C   0  0  0  0  0  0  0  0  0  0  0  0
    4.9854    0.9393   20.0229 C   0  0  0  0  0  0  0  0  0  0  0  0
    4.9945    0.9314   22.2104 H   0  0  0  0  0  0  0  0  0  0  0  0
    3.0394    2.3896   22.4330 H   0  0  0  0  0  0  0  0  0  0  0  0
    1.8872    3.2668   20.4189 H   0  0  0  0  0  0  0  0  0  0  0  0
    2.6816    2.6337   18.1583 H   0  0  0  0  0  0  0  0  0  0  0  0
    4.2090    1.3858   16.7225 H   0  0  0  0  0  0  0  0  0  0  0  0
    7.2875   -0.8749   18.2855 H   0  0  0  0  0  0  0  0  0  0  0  0
    7.6301    0.4641   21.6145 C   0  0  0  0  0  0  0  0  0  0  0  0
    7.7466    1.6533   21.4166 O   0  0  0  0  0  0  0  0  0  0  0  0
    8.2241   -0.3880   22.7576 C   0  0  1  0  0  0  0  0  0  0  0  0
    7.3772   -0.2405   24.0403 C   0  0  0  0  0  0  0  0  0  0  0  0
    7.5322    1.0858   24.6028 N   0  0  0  0  0  0  0  0  0  0  0  0
    6.3730    1.7594   25.1379 C   0  0  0  0  0  0  0  0  0  0  0  0
    5.9860    1.2209   26.4752 C   0  0  0  0  0  0  0  0  0  0  0  0
    5.1693    0.2181   26.6926 N   0  0  0  0  0  0  0  0  0  0  0  0
    5.1390    0.0864   28.0617 C   0  0  0  0  0  0  0  0  0  0  0  0
    5.9462    1.0150   28.6587 C   0  0  0  0  0  0  0  0  0  0  0  0
    6.4961    1.7404   27.6242 N   0  0  0  0  0  0  0  0  0  0  0  0
    7.2616    2.3990   27.6611 H   0  0  0  0  0  0  0  0  0  0  0  0
    6.1220    1.2539   29.6950 H   0  0  0  0  0  0  0  0  0  0  0  0
    4.5284   -0.6701   28.5383 H   0  0  0  0  0  0  0  0  0  0  0  0
    6.6086    2.8251   25.1958 H   0  0  0  0  0  0  0  0  0  0  0  0
    5.5486    1.6147   24.4327 H   0  0  0  0  0  0  0  0  0  0  0  0
    8.7675    1.5002   25.0001 C   0  0  0  0  0  0  0  0  0  0  0  0
    8.9376    2.3069   25.9150 O   0  0  0  0  0  0  0  0  0  0  0  0
    9.8765    0.9297   24.1809 C   0  0  0  0  0  0  0  0  0  0  0  0
   11.1660    1.3489   24.4780 C   0  0  0  0  0  0  0  0  0  0  0  0
   12.2193    1.0334   23.6505 C   0  0  0  0  0  0  0  0  0  0  0  0
   11.9576    0.2710   22.5142 C   0  0  0  0  0  0  0  0  0  0  0  0
   13.2618   -0.0139   21.4023 Cl  0  0  0  0  0  0  0  0  0  0  0  0
   10.6986   -0.2465   22.2593 C   0  0  0  0  0  0  0  0  0  0  0  0
    9.6239    0.0747   23.0967 C   0  0  0  0  0  0  0  0  0  0  0  0
   10.5751   -0.9072   21.4083 H   0  0  0  0  0  0  0  0  0  0  0  0
   13.2230    1.3851   23.8575 H   0  0  0  0  0  0  0  0  0  0  0  0
   11.2840    1.9553   25.3599 H   0  0  0  0  0  0  0  0  0  0  0  0
    7.7239   -1.0144   24.7373 H   0  0  0  0  0  0  0  0  0  0  0  0
    6.3181   -0.4318   23.8445 H   0  0  0  0  0  0  0  0  0  0  0  0
    5.9565   -2.0306   21.7398 H   0  0  0  0  0  0  0  0  0  0  0  0
    7.0078   -2.4123   20.3727 H   0  0  0  0  0  0  0  0  0  0  0  0
    8.9970   -2.0591   21.6260 H   0  0  0  0  0  0  0  0  0  0  0  0
    6.9299   -2.8048   23.7375 H   0  0  0  0  0  0  0  0  0  0  0  0
    7.9829   -3.9356   22.8480 H   0  0  0  0  0  0  0  0  0  0  0  0
    9.9743   -4.5674   24.1910 H   0  0  0  0  0  0  0  0  0  0  0  0
   10.7916   -3.0989   24.8204 H   0  0  0  0  0  0  0  0  0  0  0  0
   10.4570   -3.2465   23.0777 H   0  0  0  0  0  0  0  0  0  0  0  0
  1  2  1  0
  2  3  1  0
  3  4  1  0
  4  5  1  0
  5  6  1  0
  6  7  1  0
  7  8  2  0
  8  9  1  0
  9 10  2  0
 10 11  1  0
 11 12  2  0
 12 13  1  0
 13 14  2  0
 14 15  1  0
 15 16  2  0
 15 17  1  0
 14 18  1  0
 13 19  1  0
 12 20  1  0
 10 21  1  0
  8 22  1  0
  6 23  1  0
 23 24  2  0
 23 25  1  0
 25 26  1  1
 26 27  1  0
 27 28  1  0
 28 29  1  0
 29 30  2  0
 30 31  1  0
 31 32  2  0
 32 33  1  0
 33 34  1  0
 32 35  1  0
 31 36  1  0
 28 37  1  0
 28 38  1  0
 27 39  1  0
 39 40  2  0
 39 41  1  0
 41 42  2  0
 42 43  1  0
 43 44  2  0
 44 45  1  0
 44 46  1  0
 46 47  2  0
 46 48  1  0
 43 49  1  0
 42 50  1  0
 26 51  1  0
 26 52  1  0
  5 53  1  0
  5 54  1  0
  4 55  1  6
  3 56  1  0
  3 57  1  0
  1 58  1  0
  1 59  1  0
  1 60  1  0
 25  4  1  0
 33 29  1  0
 47 41  1  0
 16  7  1  0
 47 25  1  0
 16 11  1  0
M  END
>  <cnnaffinities>  (60) 
[6.46813]

>  <score>  (60) 
6.46813

>  <index>  (60) 
59

>  <Smiles>  (60) 
C(OC([C@]1(C(N(c2c(nc(c3c(c(c(c(c23)[H])[H])[H])[H])[H])[H])C(=O)[C@]21C(N(C(c1nc(c(n1[H])[H])[H])([H])[H])C(=O)c1c(c(c(Cl)c(c21)[H])[H])[H])([H])[H])([H])[H])[H])([H])[H])([H])([H])[H]

>  <h>  (60) 
<NA>

>  <Training>  (60) 
True

>  <Success>  (60) 
True

>  <enamine_searched>  (60) 
False

>  <enamine_id>  (60) 
nan

$$$$

     RDKit          3D

 38 41  0  0  0  0  0  0  0  0999 V2000
    5.1357   -2.0974   21.2316 O   0  0  0  0  0  0  0  0  0  0  0  0
    6.2484   -1.7322   21.5694 C   0  0  0  0  0  0  0  0  0  0  0  0
    6.9232   -0.5090   20.9156 C   0  0  0  0  0  0  0  0  0  0  0  0
    6.1127    0.0755   19.7827 C   0  0  0  0  0  0  0  0  0  0  0  0
    6.4263   -0.2209   18.4818 C   0  0  0  0  0  0  0  0  0  0  0  0
    5.7635    0.2371   17.3886 N   0  0  0  0  0  0  0  0  0  0  0  0
    4.7385    1.0233   17.5922 C   0  0  0  0  0  0  0  0  0  0  0  0
    4.2854    1.4122   18.8784 C   0  0  0  0  0  0  0  0  0  0  0  0
    3.1678    2.2669   19.0488 C   0  0  0  0  0  0  0  0  0  0  0  0
    2.7508    2.6192   20.3032 C   0  0  0  0  0  0  0  0  0  0  0  0
    3.4365    2.1292   21.4364 C   0  0  0  0  0  0  0  0  0  0  0  0
    4.5250    1.3006   21.2963 C   0  0  0  0  0  0  0  0  0  0  0  0
    4.9837    0.9215   20.0085 C   0  0  0  0  0  0  0  0  0  0  0  0
    5.0430    0.9271   22.1733 H   0  0  0  0  0  0  0  0  0  0  0  0
    3.1018    2.4177   22.4282 H   0  0  0  0  0  0  0  0  0  0  0  0
    1.8970    3.2799   20.4319 H   0  0  0  0  0  0  0  0  0  0  0  0
    2.6637    2.6343   18.1586 H   0  0  0  0  0  0  0  0  0  0  0  0
    4.2143    1.3884   16.7077 H   0  0  0  0  0  0  0  0  0  0  0  0
    7.2691   -0.8696   18.2463 H   0  0  0  0  0  0  0  0  0  0  0  0
    7.9026   -0.8288   20.5321 H   0  0  0  0  0  0  0  0  0  0  0  0
    7.1376    0.2560   21.6760 H   0  0  0  0  0  0  0  0  0  0  0  0
    6.9518   -2.4254   22.5346 N   0  0  0  0  0  0  0  0  0  0  0  0
    8.0959   -1.8902   23.2609 C   0  0  0  0  0  0  0  0  0  0  0  0
    9.1355   -2.9826   23.4869 C   0  0  0  0  0  0  0  0  0  0  0  0
    8.4289   -4.1506   24.1000 C   0  0  0  0  0  0  0  0  0  0  0  0
    9.1631   -5.2047   25.2446 S   0  0  0  0  0  0  0  0  0  0  0  0
    7.7518   -6.1808   25.3303 C   0  0  0  0  0  0  0  0  0  0  0  0
    6.7554   -5.7020   24.5331 C   0  0  0  0  0  0  0  0  0  0  0  0
    7.1367   -4.4960   23.8588 C   0  0  0  0  0  0  0  0  0  0  0  0
    6.2255   -3.5474   23.1267 C   0  0  0  0  0  0  0  0  0  0  0  0
    5.4426   -3.1646   23.8044 H   0  0  0  0  0  0  0  0  0  0  0  0
    5.6902   -4.0404   22.3133 H   0  0  0  0  0  0  0  0  0  0  0  0
    5.7694   -6.1471   24.4345 H   0  0  0  0  0  0  0  0  0  0  0  0
    7.7865   -7.0593   25.9655 H   0  0  0  0  0  0  0  0  0  0  0  0
    9.9305   -2.6377   24.1564 H   0  0  0  0  0  0  0  0  0  0  0  0
    9.5980   -3.2671   22.5295 H   0  0  0  0  0  0  0  0  0  0  0  0
    8.5376   -1.0760   22.6868 H   0  0  0  0  0  0  0  0  0  0  0  0
    7.7730   -1.5013   24.2411 H   0  0  0  0  0  0  0  0  0  0  0  0
  1  2  2  0
  2  3  1  0
  3  4  1  0
  4  5  2  0
  5  6  1  0
  6  7  2  0
  7  8  1  0
  8  9  2  0
  9 10  1  0
 10 11  2  0
 11 12  1  0
 12 13  2  0
 12 14  1  0
 11 15  1  0
 10 16  1  0
  9 17  1  0
  7 18  1  0
  5 19  1  0
  3 20  1  0
  3 21  1  0
  2 22  1  0
 22 23  1  0
 23 24  1  0
 24 25  1  0
 25 26  1  0
 26 27  1  0
 27 28  2  0
 28 29  1  0
 29 30  1  0
 30 31  1  0
 30 32  1  0
 28 33  1  0
 27 34  1  0
 24 35  1  0
 24 36  1  0
 23 37  1  0
 23 38  1  0
 13  4  1  0
 30 22  1  0
 13  8  1  0
 29 25  2  0
M  END
>  <cnnaffinities>  (61) 
[5.5856, 5.72515]

>  <score>  (61) 
5.5856

>  <index>  (61) 
60

>  <Smiles>  (61) 
O=C(C(c1c(nc(c2c(c(c(c(c12)[H])[H])[H])[H])[H])[H])([H])[H])N1C(C(c2sc(c(c2C1([H])[H])[H])[H])([H])[H])([H])[H]

>  <h>  (61) 
<NA>

>  <Training>  (61) 
True

>  <Success>  (61) 
True

>  <enamine_searched>  (61) 
False

>  <enamine_id>  (61) 
nan

$$$$

     RDKit          3D

 64 70  0  0  0  0  0  0  0  0999 V2000
   11.0500    2.7016   23.9219 O   0  0  0  0  0  0  0  0  0  0  0  0
   10.4512    1.6627   23.6672 C   0  0  0  0  0  0  0  0  0  0  0  0
   10.9815    0.6470   22.7066 C   0  0  0  0  0  0  0  0  0  0  0  0
   12.3200    0.7438   22.3269 C   0  0  0  0  0  0  0  0  0  0  0  0
   12.8834   -0.2094   21.4979 C   0  0  0  0  0  0  0  0  0  0  0  0
   12.0836   -1.2709   21.0569 C   0  0  0  0  0  0  0  0  0  0  0  0
   12.7090   -2.5194   20.0025 Cl  0  0  0  0  0  0  0  0  0  0  0  0
   10.7384   -1.3224   21.3633 C   0  0  0  0  0  0  0  0  0  0  0  0
   10.1601   -0.3772   22.2195 C   0  0  0  0  0  0  0  0  0  0  0  0
    8.6774   -0.4419   22.5988 C   0  0  1  0  0  0  0  0  0  0  0  0
    8.5942    0.0705   24.0617 C   0  0  0  0  0  0  0  0  0  0  0  0
    9.2689    1.3425   24.2636 N   0  0  0  0  0  0  0  0  0  0  0  0
    8.6445    2.3657   25.0888 C   0  0  0  0  0  0  0  0  0  0  0  0
    7.7175    3.2427   24.2846 C   0  0  0  0  0  0  0  0  0  0  0  0
    8.1739    4.3070   23.5386 C   0  0  0  0  0  0  0  0  0  0  0  0
    7.2239    5.0524   22.8404 C   0  0  0  0  0  0  0  0  0  0  0  0
    5.9225    4.7789   22.8534 N   0  0  0  0  0  0  0  0  0  0  0  0
    5.4968    3.7202   23.5210 N   0  0  0  0  0  0  0  0  0  0  0  0
    6.3563    2.9654   24.2007 C   0  0  0  0  0  0  0  0  0  0  0  0
    5.9293    2.1000   24.7058 H   0  0  0  0  0  0  0  0  0  0  0  0
    7.5100    5.9187   22.2516 H   0  0  0  0  0  0  0  0  0  0  0  0
    9.2324    4.5556   23.4865 H   0  0  0  0  0  0  0  0  0  0  0  0
    9.4528    2.9585   25.5240 H   0  0  0  0  0  0  0  0  0  0  0  0
    8.0992    1.8889   25.9106 H   0  0  0  0  0  0  0  0  0  0  0  0
    9.0450   -0.6924   24.7083 H   0  0  0  0  0  0  0  0  0  0  0  0
    7.5581    0.2017   24.3677 H   0  0  0  0  0  0  0  0  0  0  0  0
    7.8290    0.4467   21.6522 C   0  0  0  0  0  0  0  0  0  0  0  0
    7.9811    1.6293   21.4457 O   0  0  0  0  0  0  0  0  0  0  0  0
    6.8515   -0.3401   21.0472 N   0  0  0  0  0  0  0  0  0  0  0  0
    6.1154    0.1423   19.9309 C   0  0  0  0  0  0  0  0  0  0  0  0
    6.4559   -0.2171   18.6477 C   0  0  0  0  0  0  0  0  0  0  0  0
    5.8094    0.2030   17.5349 N   0  0  0  0  0  0  0  0  0  0  0  0
    4.7744    0.9883   17.6889 C   0  0  0  0  0  0  0  0  0  0  0  0
    4.2935    1.4125   18.9589 C   0  0  0  0  0  0  0  0  0  0  0  0
    3.1489    2.2438   19.0785 C   0  0  0  0  0  0  0  0  0  0  0  0
    2.6972    2.6303   20.3087 C   0  0  0  0  0  0  0  0  0  0  0  0
    3.3721    2.2094   21.4760 C   0  0  0  0  0  0  0  0  0  0  0  0
    4.4939    1.4189   21.3872 C   0  0  0  0  0  0  0  0  0  0  0  0
    4.9801    0.9923   20.1221 C   0  0  0  0  0  0  0  0  0  0  0  0
    5.0315    1.1571   22.2965 H   0  0  0  0  0  0  0  0  0  0  0  0
    3.0298    2.5411   22.4516 H   0  0  0  0  0  0  0  0  0  0  0  0
    1.8226    3.2704   20.3948 H   0  0  0  0  0  0  0  0  0  0  0  0
    2.6517    2.5694   18.1687 H   0  0  0  0  0  0  0  0  0  0  0  0
    4.2589    1.3266   16.7881 H   0  0  0  0  0  0  0  0  0  0  0  0
    7.3095   -0.8676   18.4589 H   0  0  0  0  0  0  0  0  0  0  0  0
    7.2005   -1.7458   21.1201 C   0  0  0  0  0  0  0  0  0  0  0  0
    8.0494   -1.8556   22.3920 C   0  0  2  0  0  0  0  0  0  0  0  0
    7.2298   -2.4687   23.5290 C   0  0  0  0  0  0  0  0  0  0  0  0
    6.0269   -1.7260   23.8440 N   0  0  0  0  0  0  0  0  0  0  0  0
    5.2928   -2.1480   24.9070 C   0  0  0  0  0  0  0  0  0  0  0  0
    5.5956   -3.2195   25.5867 N   0  0  0  0  0  0  0  0  0  0  0  0
    4.7399   -3.4380   26.6318 N   0  0  0  0  0  0  0  0  0  0  0  0
    3.8301   -2.5345   26.7313 C   0  0  0  0  0  0  0  0  0  0  0  0
    3.9058   -1.2813   25.5292 S   0  0  0  0  0  0  0  0  0  0  0  0
    3.0736   -2.5429   27.5040 H   0  0  0  0  0  0  0  0  0  0  0  0
    5.6231   -1.1380   23.1281 H   0  0  0  0  0  0  0  0  0  0  0  0
    6.9627   -3.5010   23.2663 H   0  0  0  0  0  0  0  0  0  0  0  0
    7.8321   -2.5413   24.4380 H   0  0  0  0  0  0  0  0  0  0  0  0
    8.8552   -2.5740   22.2484 H   0  0  0  0  0  0  0  0  0  0  0  0
    6.2971   -2.3624   21.1535 H   0  0  0  0  0  0  0  0  0  0  0  0
    7.7722   -2.0496   20.2356 H   0  0  0  0  0  0  0  0  0  0  0  0
   10.1465   -2.0914   20.8904 H   0  0  0  0  0  0  0  0  0  0  0  0
   13.9162   -0.1295   21.1802 H   0  0  0  0  0  0  0  0  0  0  0  0
   12.9116    1.5676   22.7201 H   0  0  0  0  0  0  0  0  0  0  0  0
  1  2  2  0
  2  3  1  0
  3  4  2  0
  4  5  1  0
  5  6  2  0
  6  7  1  0
  6  8  1  0
  8  9  2  0
  9 10  1  0
 10 11  1  1
 11 12  1  0
 12 13  1  0
 13 14  1  0
 14 15  2  0
 15 16  1  0
 16 17  2  0
 17 18  1  0
 18 19  2  0
 19 20  1  0
 16 21  1  0
 15 22  1  0
 13 23  1  0
 13 24  1  0
 11 25  1  0
 11 26  1  0
 10 27  1  0
 27 28  2  0
 27 29  1  0
 29 30  1  0
 30 31  2  0
 31 32  1  0
 32 33  2  0
 33 34  1  0
 34 35  2  0
 35 36  1  0
 36 37  2  0
 37 38  1  0
 38 39  2  0
 38 40  1  0
 37 41  1  0
 36 42  1  0
 35 43  1  0
 33 44  1  0
 31 45  1  0
 29 46  1  0
 46 47  1  0
 47 48  1  0
 48 49  1  0
 49 50  1  0
 50 51  2  0
 51 52  1  0
 52 53  2  0
 53 54  1  0
 53 55  1  0
 49 56  1  0
 48 57  1  0
 48 58  1  0
 47 59  1  6
 46 60  1  0
 46 61  1  0
  8 62  1  0
  5 63  1  0
  4 64  1  0
 12  2  1  0
 19 14  1  0
 39 30  1  0
 54 50  1  0
  9  3  1  0
 47 10  1  0
 39 34  1  0
M  END
>  <cnnaffinities>  (62) 
[6.90175]

>  <score>  (62) 
6.90175

>  <index>  (62) 
61

>  <Smiles>  (62) 
O=C1c2c(c(c(Cl)c(c2[C@@]2(C(N1C(c1c(c(nnc1[H])[H])[H])([H])[H])([H])[H])C(=O)N(c1c(nc(c3c(c(c(c(c13)[H])[H])[H])[H])[H])[H])C([C@@]2(C(N(c1nnc(s1)[H])[H])([H])[H])[H])([H])[H])[H])[H])[H]

>  <h>  (62) 
<NA>

>  <Training>  (62) 
True

>  <Success>  (62) 
True

>  <enamine_searched>  (62) 
False

>  <enamine_id>  (62) 
nan

$$$$

     RDKit          3D

 70 76  0  0  0  0  0  0  0  0999 V2000
    7.7085   -2.9337   23.4112 C   0  0  0  0  0  0  0  0  0  0  0  0
    7.9932   -1.8740   22.3414 C   0  0  1  0  0  0  0  0  0  0  0  0
    6.8655   -1.7715   21.2944 C   0  0  0  0  0  0  0  0  0  0  0  0
    6.9344   -0.3989   20.8373 N   0  0  0  0  0  0  0  0  0  0  0  0
    6.1437    0.1094   19.7720 C   0  0  0  0  0  0  0  0  0  0  0  0
    6.4418   -0.2226   18.4744 C   0  0  0  0  0  0  0  0  0  0  0  0
    5.7630    0.2291   17.3932 N   0  0  0  0  0  0  0  0  0  0  0  0
    4.7430    1.0235   17.5986 C   0  0  0  0  0  0  0  0  0  0  0  0
    4.2975    1.4225   18.8895 C   0  0  0  0  0  0  0  0  0  0  0  0
    3.1717    2.2720   19.0651 C   0  0  0  0  0  0  0  0  0  0  0  0
    2.7476    2.6151   20.3199 C   0  0  0  0  0  0  0  0  0  0  0  0
    3.4282    2.1188   21.4554 C   0  0  0  0  0  0  0  0  0  0  0  0
    4.5189    1.2977   21.3107 C   0  0  0  0  0  0  0  0  0  0  0  0
    5.0038    0.9432   20.0190 C   0  0  0  0  0  0  0  0  0  0  0  0
    5.0271    0.9171   22.1915 H   0  0  0  0  0  0  0  0  0  0  0  0
    3.0889    2.3986   22.4501 H   0  0  0  0  0  0  0  0  0  0  0  0
    1.8891    3.2701   20.4466 H   0  0  0  0  0  0  0  0  0  0  0  0
    2.6604    2.6425   18.1801 H   0  0  0  0  0  0  0  0  0  0  0  0
    4.2143    1.3863   16.7158 H   0  0  0  0  0  0  0  0  0  0  0  0
    7.2867   -0.8762   18.2595 H   0  0  0  0  0  0  0  0  0  0  0  0
    7.6821    0.4199   21.6506 C   0  0  0  0  0  0  0  0  0  0  0  0
    7.8526    1.6032   21.4455 O   0  0  0  0  0  0  0  0  0  0  0  0
    8.2247   -0.4141   22.8380 C   0  0  1  0  0  0  0  0  0  0  0  0
    7.3879   -0.1072   24.1094 C   0  0  0  0  0  0  0  0  0  0  0  0
    7.6138    1.2346   24.6062 N   0  0  0  0  0  0  0  0  0  0  0  0
    6.5049    2.0937   24.9983 C   0  0  0  0  0  0  0  0  0  0  0  0
    6.3459    3.2772   24.0422 C   0  0  0  0  0  0  0  0  0  0  0  0
    5.1618    4.1177   24.3522 N   0  0  2  0  0  4  0  0  0  0  0  0
    4.9212    5.1867   23.3219 C   0  0  0  0  0  0  0  0  0  0  0  0
    4.0843    6.2595   24.0190 C   0  0  0  0  0  0  0  0  0  0  0  0
    4.3694    6.1155   25.5207 C   0  0  0  0  0  0  0  0  0  0  0  0
    4.8793    7.3540   26.2784 C   0  0  0  0  0  0  0  0  0  0  0  0
    3.7141    7.4011   27.1118 O   0  0  0  0  0  0  0  0  0  0  0  0
    3.1587    6.2504   26.4638 C   0  0  0  0  0  0  0  0  0  0  0  0
    3.0079    5.4128   27.1580 H   0  0  0  0  0  0  0  0  0  0  0  0
    2.2042    6.4724   25.9679 H   0  0  0  0  0  0  0  0  0  0  0  0
    4.9956    8.2608   25.6694 H   0  0  0  0  0  0  0  0  0  0  0  0
    5.7977    7.2052   26.8627 H   0  0  0  0  0  0  0  0  0  0  0  0
    5.2228    4.8532   25.6695 C   0  0  0  0  0  0  0  0  0  0  0  0
    4.8709    4.2005   26.4730 H   0  0  0  0  0  0  0  0  0  0  0  0
    6.2721    5.1004   25.8656 H   0  0  0  0  0  0  0  0  0  0  0  0
    3.0166    6.1109   23.8178 H   0  0  0  0  0  0  0  0  0  0  0  0
    4.3407    7.2587   23.6511 H   0  0  0  0  0  0  0  0  0  0  0  0
    4.4435    4.7498   22.4422 H   0  0  0  0  0  0  0  0  0  0  0  0
    5.8971    5.5784   23.0235 H   0  0  0  0  0  0  0  0  0  0  0  0
    4.3251    3.4944   24.3617 H   0  0  0  0  0  0  0  0  0  0  0  0
    6.2607    2.9128   23.0115 H   0  0  0  0  0  0  0  0  0  0  0  0
    7.2429    3.9072   24.0971 H   0  0  0  0  0  0  0  0  0  0  0  0
    5.5905    1.4890   24.9820 H   0  0  0  0  0  0  0  0  0  0  0  0
    6.6815    2.4331   26.0251 H   0  0  0  0  0  0  0  0  0  0  0  0
    8.8864    1.6635   24.8430 C   0  0  0  0  0  0  0  0  0  0  0  0
    9.1338    2.6147   25.5731 O   0  0  0  0  0  0  0  0  0  0  0  0
    9.9614    0.9114   24.0993 C   0  0  0  0  0  0  0  0  0  0  0  0
   11.2718    1.2825   24.3458 C   0  0  0  0  0  0  0  0  0  0  0  0
   12.3073    0.8239   23.5594 C   0  0  0  0  0  0  0  0  0  0  0  0
   11.9834    0.0281   22.4609 C   0  0  0  0  0  0  0  0  0  0  0  0
   13.2030   -0.2030   21.2470 Cl  0  0  0  0  0  0  0  0  0  0  0  0
   10.6994   -0.4485   22.2636 C   0  0  0  0  0  0  0  0  0  0  0  0
    9.6639   -0.0340   23.1124 C   0  0  0  0  0  0  0  0  0  0  0  0
   10.5024   -1.1155   21.4298 H   0  0  0  0  0  0  0  0  0  0  0  0
   13.3392    1.0951   23.7383 H   0  0  0  0  0  0  0  0  0  0  0  0
   11.3907    2.0151   25.1186 H   0  0  0  0  0  0  0  0  0  0  0  0
    7.6523   -0.8386   24.8896 H   0  0  0  0  0  0  0  0  0  0  0  0
    6.3220   -0.2077   23.8809 H   0  0  0  0  0  0  0  0  0  0  0  0
    7.0026   -2.4502   20.4514 H   0  0  0  0  0  0  0  0  0  0  0  0
    5.8842   -2.0048   21.7375 H   0  0  0  0  0  0  0  0  0  0  0  0
    8.9082   -2.1623   21.8191 H   0  0  0  0  0  0  0  0  0  0  0  0
    6.7518   -2.7451   23.9146 H   0  0  0  0  0  0  0  0  0  0  0  0
    7.6503   -3.9355   22.9689 H   0  0  0  0  0  0  0  0  0  0  0  0
    8.4877   -2.9573   24.1821 H   0  0  0  0  0  0  0  0  0  0  0  0
  1  2  1  0
  2  3  1  0
  3  4  1  0
  4  5  1  0
  5  6  2  0
  6  7  1  0
  7  8  2  0
  8  9  1  0
  9 10  2  0
 10 11  1  0
 11 12  2  0
 12 13  1  0
 13 14  2  0
 13 15  1  0
 12 16  1  0
 11 17  1  0
 10 18  1  0
  8 19  1  0
  6 20  1  0
  4 21  1  0
 21 22  2  0
 21 23  1  0
 23 24  1  1
 24 25  1  0
 25 26  1  0
 26 27  1  0
 27 28  1  0
 28 29  1  0
 29 30  1  0
 30 31  1  0
 31 32  1  0
 32 33  1  0
 33 34  1  0
 34 35  1  0
 34 36  1  0
 32 37  1  0
 32 38  1  0
 31 39  1  0
 39 40  1  0
 39 41  1  0
 30 42  1  0
 30 43  1  0
 29 44  1  0
 29 45  1  0
 28 46  1  1
 27 47  1  0
 27 48  1  0
 26 49  1  0
 26 50  1  0
 25 51  1  0
 51 52  2  0
 51 53  1  0
 53 54  2  0
 54 55  1  0
 55 56  2  0
 56 57  1  0
 56 58  1  0
 58 59  2  0
 58 60  1  0
 55 61  1  0
 54 62  1  0
 24 63  1  0
 24 64  1  0
  3 65  1  0
  3 66  1  0
  2 67  1  6
  1 68  1  0
  1 69  1  0
  1 70  1  0
 23  2  1  0
 39 28  1  0
 59 53  1  0
 14  5  1  0
 59 23  1  0
 14  9  1  0
 34 31  1  0
M  CHG  1  28   1
M  END
>  <cnnaffinities>  (63) 
[6.58198, 6.63596]

>  <score>  (63) 
6.58198

>  <index>  (63) 
62

>  <Smiles>  (63) 
C([C@]1(C(N(c2c(nc(c3c(c(c(c(c23)[H])[H])[H])[H])[H])[H])C(=O)[C@]21C(N(C(C([N@@+]1(C(C(C3(C(OC3([H])[H])([H])[H])C1([H])[H])([H])[H])([H])[H])[H])([H])[H])([H])[H])C(=O)c1c(c(c(Cl)c(c21)[H])[H])[H])([H])[H])([H])[H])[H])([H])([H])[H]

>  <h>  (63) 
<NA>

>  <Training>  (63) 
True

>  <Success>  (63) 
True

>  <enamine_searched>  (63) 
False

>  <enamine_id>  (63) 
nan

$$$$

     RDKit          3D

 56 61  0  0  0  0  0  0  0  0999 V2000
   12.6341    2.5617   22.3098 C   0  0  0  0  0  0  0  0  0  0  0  0
   12.6451    1.1756   22.7352 N   0  0  0  0  0  0  0  0  0  0  0  0
   13.0255    0.6805   23.9298 C   0  0  0  0  0  0  0  0  0  0  0  0
   12.8302   -0.6744   23.8975 C   0  0  0  0  0  0  0  0  0  0  0  0
   12.2978   -0.9150   22.6136 C   0  0  0  0  0  0  0  0  0  0  0  0
   11.8790   -2.2353   22.0393 C   0  0  0  0  0  0  0  0  0  0  0  0
   10.5055   -2.6174   22.3644 N   0  0  0  0  0  0  0  0  0  0  0  0
    9.4120   -2.4675   21.4235 C   0  0  0  0  0  0  0  0  0  0  0  0
    8.1832   -1.8574   22.1393 C   0  0  1  0  0  0  0  0  0  0  0  0
    8.4676   -0.3911   22.5651 C   0  0  0  0  0  0  0  0  0  0  0  0
    7.8547    0.4927   21.4715 C   0  0  0  0  0  0  0  0  0  0  0  0
    6.8712   -0.3793   20.8500 N   0  0  0  0  0  0  0  0  0  0  0  0
    6.0817    0.0579   19.7613 C   0  0  0  0  0  0  0  0  0  0  0  0
    6.4139   -0.2645   18.4713 C   0  0  0  0  0  0  0  0  0  0  0  0
    5.7635    0.2223   17.3870 N   0  0  0  0  0  0  0  0  0  0  0  0
    4.7545    1.0288   17.5926 C   0  0  0  0  0  0  0  0  0  0  0  0
    4.2925    1.4246   18.8783 C   0  0  0  0  0  0  0  0  0  0  0  0
    3.1755    2.2810   19.0578 C   0  0  0  0  0  0  0  0  0  0  0  0
    2.7675    2.6220   20.3175 C   0  0  0  0  0  0  0  0  0  0  0  0
    3.4507    2.1259   21.4530 C   0  0  0  0  0  0  0  0  0  0  0  0
    4.5333    1.2941   21.3047 C   0  0  0  0  0  0  0  0  0  0  0  0
    4.9773    0.9284   20.0065 C   0  0  0  0  0  0  0  0  0  0  0  0
    5.0576    0.8943   22.1684 H   0  0  0  0  0  0  0  0  0  0  0  0
    3.1141    2.3992   22.4492 H   0  0  0  0  0  0  0  0  0  0  0  0
    1.9121    3.2784   20.4574 H   0  0  0  0  0  0  0  0  0  0  0  0
    2.6610    2.6520   18.1754 H   0  0  0  0  0  0  0  0  0  0  0  0
    4.2390    1.4017   16.7094 H   0  0  0  0  0  0  0  0  0  0  0  0
    7.2516   -0.9264   18.2616 H   0  0  0  0  0  0  0  0  0  0  0  0
    7.0391   -1.7152   21.1344 C   0  0  0  0  0  0  0  0  0  0  0  0
    6.3675   -2.6067   20.6549 O   0  0  0  0  0  0  0  0  0  0  0  0
    8.6051    0.8247   20.7361 H   0  0  0  0  0  0  0  0  0  0  0  0
    7.3788    1.3913   21.8789 H   0  0  0  0  0  0  0  0  0  0  0  0
    9.5377   -0.1998   22.6709 H   0  0  0  0  0  0  0  0  0  0  0  0
    8.0023   -0.2128   23.5383 H   0  0  0  0  0  0  0  0  0  0  0  0
    7.8315   -2.7641   23.3026 C   0  0  0  0  0  0  0  0  0  0  0  0
    6.5208   -2.9098   23.7730 C   0  0  0  0  0  0  0  0  0  0  0  0
    6.2661   -3.7264   24.8634 C   0  0  0  0  0  0  0  0  0  0  0  0
    4.6407   -3.8526   25.4893 Cl  0  0  0  0  0  0  0  0  0  0  0  0
    7.2885   -4.4611   25.4679 C   0  0  0  0  0  0  0  0  0  0  0  0
    8.5931   -4.2769   25.0399 C   0  0  0  0  0  0  0  0  0  0  0  0
    8.8692   -3.4121   23.9819 C   0  0  0  0  0  0  0  0  0  0  0  0
   10.2970   -3.1501   23.6133 C   0  0  0  0  0  0  0  0  0  0  0  0
   11.2204   -3.3730   24.3866 O   0  0  0  0  0  0  0  0  0  0  0  0
    9.4260   -4.7918   25.5159 H   0  0  0  0  0  0  0  0  0  0  0  0
    7.0569   -5.1655   26.2609 H   0  0  0  0  0  0  0  0  0  0  0  0
    5.6871   -2.4263   23.2736 H   0  0  0  0  0  0  0  0  0  0  0  0
    9.7127   -1.8078   20.6027 H   0  0  0  0  0  0  0  0  0  0  0  0
    9.1115   -3.4444   21.0286 H   0  0  0  0  0  0  0  0  0  0  0  0
   12.0045   -2.2185   20.9526 H   0  0  0  0  0  0  0  0  0  0  0  0
   12.5261   -3.0109   22.4584 H   0  0  0  0  0  0  0  0  0  0  0  0
   12.1834    0.2135   21.9193 N   0  0  0  0  0  0  0  0  0  0  0  0
   13.0359   -1.3845   24.6881 H   0  0  0  0  0  0  0  0  0  0  0  0
   13.3322    1.3257   24.7287 H   0  0  0  0  0  0  0  0  0  0  0  0
   13.6511    2.9621   22.2450 H   0  0  0  0  0  0  0  0  0  0  0  0
   12.1894    2.5854   21.3171 H   0  0  0  0  0  0  0  0  0  0  0  0
   12.0255    3.1793   22.9810 H   0  0  0  0  0  0  0  0  0  0  0  0
  1  2  1  0
  2  3  1  0
  3  4  2  0
  4  5  1  0
  5  6  1  0
  6  7  1  0
  7  8  1  0
  9  8  1  6
  9 10  1  0
 10 11  1  0
 11 12  1  0
 12 13  1  0
 13 14  2  0
 14 15  1  0
 15 16  2  0
 16 17  1  0
 17 18  2  0
 18 19  1  0
 19 20  2  0
 20 21  1  0
 21 22  2  0
 21 23  1  0
 20 24  1  0
 19 25  1  0
 18 26  1  0
 16 27  1  0
 14 28  1  0
 12 29  1  0
 29 30  2  0
 11 31  1  0
 11 32  1  0
 10 33  1  0
 10 34  1  0
  9 35  1  0
 35 36  2  0
 36 37  1  0
 37 38  1  0
 37 39  2  0
 39 40  1  0
 40 41  2  0
 41 42  1  0
 42 43  2  0
 40 44  1  0
 39 45  1  0
 36 46  1  0
  8 47  1  0
  8 48  1  0
  6 49  1  0
  6 50  1  0
  5 51  2  0
  4 52  1  0
  3 53  1  0
  1 54  1  0
  1 55  1  0
  1 56  1  0
 51  2  1  0
 42  7  1  0
 29  9  1  0
 41 35  1  0
 22 13  1  0
 22 17  1  0
M  END
>  <cnnaffinities>  (64) 
[7.10983]

>  <score>  (64) 
7.10983

>  <index>  (64) 
63

>  <Smiles>  (64) 
C(n1c(c(c(C(N2C([C@]3(C(C(N(c4c(nc(c5c(c(c(c(c45)[H])[H])[H])[H])[H])[H])C3=O)([H])[H])([H])[H])c3c(c(Cl)c(c(c3C2=O)[H])[H])[H])([H])[H])([H])[H])n1)[H])[H])([H])([H])[H]

>  <h>  (64) 
<NA>

>  <Training>  (64) 
True

>  <Success>  (64) 
True

>  <enamine_searched>  (64) 
False

>  <enamine_id>  (64) 
nan

$$$$

     RDKit          3D

 66 71  0  0  0  0  0  0  0  0999 V2000
    7.6413   -2.6032   23.6671 C   0  0  0  0  0  0  0  0  0  0  0  0
    7.9899   -1.7591   22.4366 C   0  0  1  0  0  0  0  0  0  0  0  0
    6.8097   -1.6578   21.4478 C   0  0  0  0  0  0  0  0  0  0  0  0
    6.9735   -0.3561   20.8318 N   0  0  0  0  0  0  0  0  0  0  0  0
    6.1581    0.1240   19.7681 C   0  0  0  0  0  0  0  0  0  0  0  0
    6.4471   -0.2167   18.4713 C   0  0  0  0  0  0  0  0  0  0  0  0
    5.7575    0.2260   17.3941 N   0  0  0  0  0  0  0  0  0  0  0  0
    4.7396    1.0254   17.5926 C   0  0  0  0  0  0  0  0  0  0  0  0
    4.2993    1.4294   18.8858 C   0  0  0  0  0  0  0  0  0  0  0  0
    3.1830    2.2931   19.0642 C   0  0  0  0  0  0  0  0  0  0  0  0
    2.7747    2.6481   20.3232 C   0  0  0  0  0  0  0  0  0  0  0  0
    3.4539    2.1468   21.4550 C   0  0  0  0  0  0  0  0  0  0  0  0
    4.5327    1.3062   21.3030 C   0  0  0  0  0  0  0  0  0  0  0  0
    5.0094    0.9475   20.0112 C   0  0  0  0  0  0  0  0  0  0  0  0
    5.0327    0.8977   22.1738 H   0  0  0  0  0  0  0  0  0  0  0  0
    3.1241    2.4338   22.4502 H   0  0  0  0  0  0  0  0  0  0  0  0
    1.9302    3.3192   20.4560 H   0  0  0  0  0  0  0  0  0  0  0  0
    2.6679    2.6657   18.1834 H   0  0  0  0  0  0  0  0  0  0  0  0
    4.2120    1.3883   16.7081 H   0  0  0  0  0  0  0  0  0  0  0  0
    7.2886   -0.8695   18.2450 H   0  0  0  0  0  0  0  0  0  0  0  0
    7.8434    0.4729   21.4907 C   0  0  0  0  0  0  0  0  0  0  0  0
    8.0678    1.6268   21.1694 O   0  0  0  0  0  0  0  0  0  0  0  0
    8.4620   -0.2870   22.6890 C   0  0  1  0  0  0  0  0  0  0  0  0
    7.9119    0.2881   24.0148 C   0  0  0  0  0  0  0  0  0  0  0  0
    8.4016    1.6270   24.2928 N   0  0  0  0  0  0  0  0  0  0  0  0
    7.4805    2.5691   24.9197 C   0  0  0  0  0  0  0  0  0  0  0  0
    6.6316    3.3309   23.9061 C   0  0  0  0  0  0  0  0  0  0  0  0
    7.4529    4.2385   23.0350 N   0  0  0  0  0  4  0  0  0  0  0  0
    6.7637    4.5607   21.7279 C   0  0  0  0  0  0  0  0  0  0  0  0
    5.6578    5.5872   21.9201 C   0  0  0  0  0  0  0  0  0  0  0  0
    6.1490    6.7838   22.4879 O   0  0  0  0  0  0  0  0  0  0  0  0
    6.6911    6.5480   23.7679 C   0  0  0  0  0  0  0  0  0  0  0  0
    7.8456    5.5470   23.7134 C   0  0  0  0  0  0  0  0  0  0  0  0
    8.6604    5.9892   23.1378 H   0  0  0  0  0  0  0  0  0  0  0  0
    8.2102    5.3240   24.7182 H   0  0  0  0  0  0  0  0  0  0  0  0
    7.0486    7.5149   24.1309 H   0  0  0  0  0  0  0  0  0  0  0  0
    5.9031    6.1917   24.4470 H   0  0  0  0  0  0  0  0  0  0  0  0
    5.2363    5.8727   20.9619 H   0  0  0  0  0  0  0  0  0  0  0  0
    4.8537    5.1617   22.5404 H   0  0  0  0  0  0  0  0  0  0  0  0
    6.3816    3.6271   21.3043 H   0  0  0  0  0  0  0  0  0  0  0  0
    7.5142    4.9731   21.0525 H   0  0  0  0  0  0  0  0  0  0  0  0
    8.3082    3.7148   22.7799 H   0  0  0  0  0  0  0  0  0  0  0  0
    5.8715    3.9214   24.4227 H   0  0  0  0  0  0  0  0  0  0  0  0
    6.1107    2.6254   23.2491 H   0  0  0  0  0  0  0  0  0  0  0  0
    8.0642    3.2569   25.5312 H   0  0  0  0  0  0  0  0  0  0  0  0
    6.7972    2.0252   25.5803 H   0  0  0  0  0  0  0  0  0  0  0  0
    9.7438    1.8934   24.2583 C   0  0  0  0  0  0  0  0  0  0  0  0
   10.2332    2.8743   24.8041 O   0  0  0  0  0  0  0  0  0  0  0  0
   10.5741    0.9293   23.4355 C   0  0  0  0  0  0  0  0  0  0  0  0
   11.9583    1.1049   23.3617 C   0  0  0  0  0  0  0  0  0  0  0  0
   12.7477    0.3797   22.4808 C   0  0  0  0  0  0  0  0  0  0  0  0
   12.1037   -0.5166   21.6257 C   0  0  0  0  0  0  0  0  0  0  0  0
   12.8979   -1.2613   20.2455 Cl  0  0  0  0  0  0  0  0  0  0  0  0
   10.7457   -0.7483   21.7295 C   0  0  0  0  0  0  0  0  0  0  0  0
    9.9641   -0.0761   22.6722 C   0  0  0  0  0  0  0  0  0  0  0  0
   10.3073   -1.4311   21.0120 H   0  0  0  0  0  0  0  0  0  0  0  0
   13.8236    0.5304   22.4402 H   0  0  0  0  0  0  0  0  0  0  0  0
   12.4043    1.8704   23.9814 H   0  0  0  0  0  0  0  0  0  0  0  0
    6.8247    0.3316   23.9567 H   0  0  0  0  0  0  0  0  0  0  0  0
    8.1737   -0.3923   24.8380 H   0  0  0  0  0  0  0  0  0  0  0  0
    6.8256   -2.4430   20.6890 H   0  0  0  0  0  0  0  0  0  0  0  0
    5.8451   -1.7594   21.9682 H   0  0  0  0  0  0  0  0  0  0  0  0
    8.8127   -2.2638   21.9253 H   0  0  0  0  0  0  0  0  0  0  0  0
    7.3846   -3.6289   23.3802 H   0  0  0  0  0  0  0  0  0  0  0  0
    6.7806   -2.1967   24.2087 H   0  0  0  0  0  0  0  0  0  0  0  0
    8.4728   -2.6620   24.3761 H   0  0  0  0  0  0  0  0  0  0  0  0
  1  2  1  0
  2  3  1  0
  3  4  1  0
  4  5  1  0
  5  6  2  0
  6  7  1  0
  7  8  2  0
  8  9  1  0
  9 10  2  0
 10 11  1  0
 11 12  2  0
 12 13  1  0
 13 14  2  0
 13 15  1  0
 12 16  1  0
 11 17  1  0
 10 18  1  0
  8 19  1  0
  6 20  1  0
  4 21  1  0
 21 22  2  0
 21 23  1  0
 23 24  1  1
 24 25  1  0
 25 26  1  0
 26 27  1  0
 27 28  1  0
 28 29  1  0
 29 30  1  0
 30 31  1  0
 31 32  1  0
 32 33  1  0
 33 34  1  0
 33 35  1  0
 32 36  1  0
 32 37  1  0
 30 38  1  0
 30 39  1  0
 29 40  1  0
 29 41  1  0
 28 42  1  0
 27 43  1  0
 27 44  1  0
 26 45  1  0
 26 46  1  0
 25 47  1  0
 47 48  2  0
 47 49  1  0
 49 50  2  0
 50 51  1  0
 51 52  2  0
 52 53  1  0
 52 54  1  0
 54 55  2  0
 54 56  1  0
 51 57  1  0
 50 58  1  0
 24 59  1  0
 24 60  1  0
  3 61  1  0
  3 62  1  0
  2 63  1  6
  1 64  1  0
  1 65  1  0
  1 66  1  0
 23  2  1  0
 33 28  1  0
 55 49  1  0
 14  5  1  0
 55 23  1  0
 14  9  1  0
M  CHG  1  28   1
M  END
>  <cnnaffinities>  (65) 
[6.71132, 6.71259]

>  <score>  (65) 
6.71132

>  <index>  (65) 
64

>  <Smiles>  (65) 
C([C@]1(C(N(c2c(nc(c3c(c(c(c(c23)[H])[H])[H])[H])[H])[H])C(=O)[C@]21C(N(C(C([N+]1(C(C(OC(C1([H])[H])([H])[H])([H])[H])([H])[H])[H])([H])[H])([H])[H])C(=O)c1c(c(c(Cl)c(c21)[H])[H])[H])([H])[H])([H])[H])[H])([H])([H])[H]

>  <h>  (65) 
<NA>

>  <Training>  (65) 
True

>  <Success>  (65) 
True

>  <enamine_searched>  (65) 
False

>  <enamine_id>  (65) 
nan

$$$$

     RDKit          3D

 54 59  0  0  0  0  0  0  0  0999 V2000
    3.9811    1.2579   28.0902 C   0  0  0  0  0  0  0  0  0  0  0  0
    5.2114    1.3140   27.3355 N   0  0  0  0  0  0  0  0  0  0  0  0
    5.1267    1.5371   26.0018 C   0  0  0  0  0  0  0  0  0  0  0  0
    4.0802    1.7968   25.4224 O   0  0  0  0  0  0  0  0  0  0  0  0
    6.4675    1.3972   25.2894 C   0  0  0  0  0  0  0  0  0  0  0  0
    6.8022    0.0089   25.1028 N   0  0  0  0  0  0  0  0  0  0  0  0
    7.5039   -0.6899   26.0574 C   0  0  0  0  0  0  0  0  0  0  0  0
    7.7850   -0.2223   27.1535 O   0  0  0  0  0  0  0  0  0  0  0  0
    7.6780   -2.0613   25.4982 C   0  0  0  0  0  0  0  0  0  0  0  0
    8.2562   -3.1365   26.1249 C   0  0  0  0  0  0  0  0  0  0  0  0
    7.9053   -4.4393   25.7109 C   0  0  0  0  0  0  0  0  0  0  0  0
    6.9303   -4.5990   24.7665 C   0  0  0  0  0  0  0  0  0  0  0  0
    6.3075   -6.1622   24.3915 Cl  0  0  0  0  0  0  0  0  0  0  0  0
    6.1711   -3.5018   24.1226 C   0  0  0  0  0  0  0  0  0  0  0  0
    6.8959   -2.1810   24.2644 C   0  0  1  0  0  0  0  0  0  0  0  0
    6.2289   -0.8444   24.1113 C   0  0  2  0  0  0  0  0  0  0  0  0
    7.1263   -1.3452   22.9938 C   0  0  2  0  0  0  0  0  0  0  0  0
    6.3351   -1.4431   21.6955 C   0  0  0  0  0  0  0  0  0  0  0  0
    5.3600   -2.1183   21.4334 O   0  0  0  0  0  0  0  0  0  0  0  0
    6.8887   -0.5318   20.8109 N   0  0  0  0  0  0  0  0  0  0  0  0
    6.1065    0.0280   19.7638 C   0  0  0  0  0  0  0  0  0  0  0  0
    6.4459   -0.2355   18.4647 C   0  0  0  0  0  0  0  0  0  0  0  0
    5.7811    0.2440   17.3871 N   0  0  0  0  0  0  0  0  0  0  0  0
    4.7457    1.0151   17.6023 C   0  0  0  0  0  0  0  0  0  0  0  0
    4.2978    1.3910   18.9006 C   0  0  0  0  0  0  0  0  0  0  0  0
    3.1875    2.2581   19.0794 C   0  0  0  0  0  0  0  0  0  0  0  0
    2.7945    2.6317   20.3340 C   0  0  0  0  0  0  0  0  0  0  0  0
    3.4935    2.1610   21.4706 C   0  0  0  0  0  0  0  0  0  0  0  0
    4.5706    1.3198   21.3243 C   0  0  0  0  0  0  0  0  0  0  0  0
    4.9953    0.8987   20.0272 C   0  0  0  0  0  0  0  0  0  0  0  0
    5.1145    0.9786   22.2069 H   0  0  0  0  0  0  0  0  0  0  0  0
    3.1843    2.4777   22.4628 H   0  0  0  0  0  0  0  0  0  0  0  0
    1.9527    3.3063   20.4626 H   0  0  0  0  0  0  0  0  0  0  0  0
    2.6724    2.6261   18.1959 H   0  0  0  0  0  0  0  0  0  0  0  0
    4.2132    1.4000   16.7293 H   0  0  0  0  0  0  0  0  0  0  0  0
    7.2962   -0.8830   18.2623 H   0  0  0  0  0  0  0  0  0  0  0  0
    8.0953    0.1068   21.3135 C   0  0  0  0  0  0  0  0  0  0  0  0
    8.3702   -0.6616   22.5849 C   0  0  0  0  0  0  0  0  0  0  0  0
    9.5490   -0.6587   23.1938 C   0  0  0  0  0  0  0  0  0  0  0  0
   10.5529    0.1100   22.7325 F   0  0  0  0  0  0  0  0  0  0  0  0
    9.8098   -1.2517   24.0605 H   0  0  0  0  0  0  0  0  0  0  0  0
    8.9088    0.0523   20.5874 H   0  0  0  0  0  0  0  0  0  0  0  0
    7.9142    1.1639   21.5472 H   0  0  0  0  0  0  0  0  0  0  0  0
    5.1676   -0.7435   23.8889 H   0  0  0  0  0  0  0  0  0  0  0  0
    5.9671   -3.7196   23.0666 H   0  0  0  0  0  0  0  0  0  0  0  0
    5.1818   -3.4455   24.6189 H   0  0  0  0  0  0  0  0  0  0  0  0
    8.3430   -5.3059   26.2073 H   0  0  0  0  0  0  0  0  0  0  0  0
    8.9544   -2.9971   26.9368 H   0  0  0  0  0  0  0  0  0  0  0  0
    6.4276    1.8757   24.3125 H   0  0  0  0  0  0  0  0  0  0  0  0
    7.2655    1.8555   25.8801 H   0  0  0  0  0  0  0  0  0  0  0  0
    6.0702    0.9181   27.7033 H   0  0  0  0  0  0  0  0  0  0  0  0
    4.2044    1.0485   29.1372 H   0  0  0  0  0  0  0  0  0  0  0  0
    3.4710    2.2215   28.0097 H   0  0  0  0  0  0  0  0  0  0  0  0
    3.3128    0.4821   27.6958 H   0  0  0  0  0  0  0  0  0  0  0  0
  1  2  1  0
  2  3  1  0
  3  4  2  0
  3  5  1  0
  5  6  1  0
  6  7  1  0
  7  8  2  0
  7  9  1  0
  9 10  2  0
 10 11  1  0
 11 12  2  0
 12 13  1  0
 12 14  1  0
 15 14  1  6
 15 16  1  0
 16 17  1  0
 17 18  1  6
 18 19  2  0
 18 20  1  0
 20 21  1  0
 21 22  2  0
 22 23  1  0
 23 24  2  0
 24 25  1  0
 25 26  2  0
 26 27  1  0
 27 28  2  0
 28 29  1  0
 29 30  2  0
 29 31  1  0
 28 32  1  0
 27 33  1  0
 26 34  1  0
 24 35  1  0
 22 36  1  0
 20 37  1  0
 37 38  1  0
 38 39  2  0
 39 40  1  0
 39 41  1  0
 37 42  1  0
 37 43  1  0
 16 44  1  6
 14 45  1  0
 14 46  1  0
 11 47  1  0
 10 48  1  0
  5 49  1  0
  5 50  1  0
  2 51  1  0
  1 52  1  0
  1 53  1  0
  1 54  1  0
 16  6  1  0
 38 17  1  0
 15  9  1  0
 30 21  1  0
 17 15  1  0
 30 25  1  0
M  END
>  <cnnaffinities>  (66) 
[6.63399, 6.71784]

>  <score>  (66) 
6.63399

>  <index>  (66) 
65

>  <Smiles>  (66) 
C(N(C(=O)C(N1C(=O)C2=C(C(=C(Cl)C([C@]32[C@@]1([C@@]13C(=O)N(c2c(nc(c3c(c(c(c(c23)[H])[H])[H])[H])[H])[H])C(/C/1=C(\F)/[H])([H])[H])[H])([H])[H])[H])[H])([H])[H])[H])([H])([H])[H]

>  <h>  (66) 
<NA>

>  <Training>  (66) 
True

>  <Success>  (66) 
True

>  <enamine_searched>  (66) 
False

>  <enamine_id>  (66) 
nan

$$$$

     RDKit          3D

 47 50  0  0  0  0  0  0  0  0999 V2000
    8.3331    1.4888   20.8545 O   0  0  0  0  0  0  0  0  0  0  0  0
    7.7982    0.6460   21.5481 C   0  0  0  0  0  0  0  0  0  0  0  0
    6.9430   -0.4631   20.9072 C   0  0  0  0  0  0  0  0  0  0  0  0
    6.1086    0.0781   19.7657 C   0  0  0  0  0  0  0  0  0  0  0  0
    6.4271   -0.2083   18.4661 C   0  0  0  0  0  0  0  0  0  0  0  0
    5.7599    0.2496   17.3724 N   0  0  0  0  0  0  0  0  0  0  0  0
    4.7328    1.0293   17.5798 C   0  0  0  0  0  0  0  0  0  0  0  0
    4.2867    1.4240   18.8685 C   0  0  0  0  0  0  0  0  0  0  0  0
    3.1706    2.2809   19.0465 C   0  0  0  0  0  0  0  0  0  0  0  0
    2.7645    2.6470   20.2989 C   0  0  0  0  0  0  0  0  0  0  0  0
    3.4646    2.1687   21.4319 C   0  0  0  0  0  0  0  0  0  0  0  0
    4.5482    1.3407   21.2841 C   0  0  0  0  0  0  0  0  0  0  0  0
    4.9957    0.9410   19.9987 C   0  0  0  0  0  0  0  0  0  0  0  0
    5.0728    0.9886   22.1685 H   0  0  0  0  0  0  0  0  0  0  0  0
    3.1386    2.4669   22.4235 H   0  0  0  0  0  0  0  0  0  0  0  0
    1.9120    3.3085   20.4358 H   0  0  0  0  0  0  0  0  0  0  0  0
    2.6467    2.6461   18.1643 H   0  0  0  0  0  0  0  0  0  0  0  0
    4.1994    1.3971   16.6985 H   0  0  0  0  0  0  0  0  0  0  0  0
    7.2743   -0.8562   18.2410 H   0  0  0  0  0  0  0  0  0  0  0  0
    7.6195   -1.2381   20.5228 H   0  0  0  0  0  0  0  0  0  0  0  0
    6.3007   -0.9404   21.6590 H   0  0  0  0  0  0  0  0  0  0  0  0
    7.8491    0.6649   22.9406 N   0  0  0  0  0  0  0  0  0  0  0  0
    8.0423    1.9453   23.6158 C   0  0  0  0  0  0  0  0  0  0  0  0
    7.2505    1.9707   24.9194 C   0  0  0  0  0  0  0  0  0  0  0  0
    7.6062    0.7875   25.8192 C   0  0  1  0  0  0  0  0  0  0  0  0
    6.7874    0.7669   27.1215 C   0  0  0  0  0  0  0  0  0  0  0  0
    5.3285    0.3542   26.9178 C   0  0  0  0  0  0  0  0  0  0  0  0
    5.2314   -0.9523   26.1594 C   0  0  0  0  0  0  0  0  0  0  0  0
    3.9171   -1.2619   25.9222 F   0  0  0  0  0  0  0  0  0  0  0  0
    5.7102   -1.9610   26.9574 F   0  0  0  0  0  0  0  0  0  0  0  0
    6.0047   -0.9507   24.8582 C   0  0  0  0  0  0  0  0  0  0  0  0
    7.4683   -0.5489   25.0699 C   0  0  1  0  0  0  0  0  0  0  0  0
    8.2272   -0.4959   23.7442 C   0  0  0  0  0  0  0  0  0  0  0  0
    9.3110   -0.4990   23.9538 H   0  0  0  0  0  0  0  0  0  0  0  0
    8.0389   -1.3968   23.1604 H   0  0  0  0  0  0  0  0  0  0  0  0
    7.9227   -1.3298   25.6898 H   0  0  0  0  0  0  0  0  0  0  0  0
    5.9296   -1.9489   24.4131 H   0  0  0  0  0  0  0  0  0  0  0  0
    5.5081   -0.2555   24.1762 H   0  0  0  0  0  0  0  0  0  0  0  0
    4.8050    0.2477   27.8735 H   0  0  0  0  0  0  0  0  0  0  0  0
    4.7897    1.1064   26.3368 H   0  0  0  0  0  0  0  0  0  0  0  0
    7.2509    0.0695   27.8280 H   0  0  0  0  0  0  0  0  0  0  0  0
    6.8214    1.7531   27.5961 H   0  0  0  0  0  0  0  0  0  0  0  0
    8.6631    0.9102   26.0929 H   0  0  0  0  0  0  0  0  0  0  0  0
    6.1809    1.9716   24.6918 H   0  0  0  0  0  0  0  0  0  0  0  0
    7.4324    2.9108   25.4518 H   0  0  0  0  0  0  0  0  0  0  0  0
    9.1038    2.1505   23.8250 H   0  0  0  0  0  0  0  0  0  0  0  0
    7.7017    2.7343   22.9455 H   0  0  0  0  0  0  0  0  0  0  0  0
  1  2  2  0
  2  3  1  0
  3  4  1  0
  4  5  2  0
  5  6  1  0
  6  7  2  0
  7  8  1  0
  8  9  2  0
  9 10  1  0
 10 11  2  0
 11 12  1  0
 12 13  2  0
 12 14  1  0
 11 15  1  0
 10 16  1  0
  9 17  1  0
  7 18  1  0
  5 19  1  0
  3 20  1  0
  3 21  1  0
  2 22  1  0
 22 23  1  0
 23 24  1  0
 24 25  1  0
 25 26  1  0
 26 27  1  0
 27 28  1  0
 28 29  1  0
 28 30  1  0
 28 31  1  0
 31 32  1  0
 32 33  1  0
 33 34  1  0
 33 35  1  0
 32 36  1  1
 31 37  1  0
 31 38  1  0
 27 39  1  0
 27 40  1  0
 26 41  1  0
 26 42  1  0
 25 43  1  1
 24 44  1  0
 24 45  1  0
 23 46  1  0
 23 47  1  0
 13  4  1  0
 33 22  1  0
 13  8  1  0
 32 25  1  0
M  END
>  <cnnaffinities>  (67) 
[5.87198, 5.87211, 5.70127, 5.70136]

>  <score>  (67) 
5.87198

>  <index>  (67) 
66

>  <Smiles>  (67) 
O=C(C(c1c(nc(c2c(c(c(c(c12)[H])[H])[H])[H])[H])[H])([H])[H])N1C(C([C@]2(C(C(C(F)(F)C([C@]2(C1([H])[H])[H])([H])[H])([H])[H])([H])[H])[H])([H])[H])([H])[H]

>  <h>  (67) 
<NA>

>  <Training>  (67) 
True

>  <Success>  (67) 
True

>  <enamine_searched>  (67) 
False

>  <enamine_id>  (67) 
nan

$$$$

     RDKit          3D

 69 74  0  0  0  0  0  0  0  0999 V2000
    6.6758    4.3184   21.1661 C   0  0  0  0  0  0  0  0  0  0  0  0
    7.0044    3.4238   22.2769 N   0  0  0  0  0  4  0  0  0  0  0  0
    8.0873    3.8806   23.1728 C   0  0  0  0  0  0  0  0  0  0  0  0
    8.2421    2.9166   24.3539 C   0  0  0  0  0  0  0  0  0  0  0  0
    8.8473    1.6472   23.9566 N   0  0  0  0  0  0  0  0  0  0  0  0
    8.1054    0.4046   23.8397 C   0  0  0  0  0  0  0  0  0  0  0  0
    8.4692   -0.4180   22.5660 C   0  0  2  0  0  0  0  0  0  0  0  0
    7.8676    0.2913   21.3437 C   0  0  0  0  0  0  0  0  0  0  0  0
    8.1413    1.4234   20.9597 O   0  0  0  0  0  0  0  0  0  0  0  0
    6.8867   -0.4749   20.7901 N   0  0  0  0  0  0  0  0  0  0  0  0
    6.1052    0.0761   19.7390 C   0  0  0  0  0  0  0  0  0  0  0  0
    6.4479   -0.2018   18.4423 C   0  0  0  0  0  0  0  0  0  0  0  0
    5.7633    0.2533   17.3702 N   0  0  0  0  0  0  0  0  0  0  0  0
    4.7340    1.0317   17.5914 C   0  0  0  0  0  0  0  0  0  0  0  0
    4.3047    1.4378   18.8870 C   0  0  0  0  0  0  0  0  0  0  0  0
    3.1998    2.3105   19.0731 C   0  0  0  0  0  0  0  0  0  0  0  0
    2.8209    2.6965   20.3302 C   0  0  0  0  0  0  0  0  0  0  0  0
    3.5271    2.2286   21.4587 C   0  0  0  0  0  0  0  0  0  0  0  0
    4.6008    1.3808   21.3034 C   0  0  0  0  0  0  0  0  0  0  0  0
    5.0187    0.9585   20.0084 C   0  0  0  0  0  0  0  0  0  0  0  0
    5.1228    1.0164   22.1845 H   0  0  0  0  0  0  0  0  0  0  0  0
    3.2215    2.5451   22.4525 H   0  0  0  0  0  0  0  0  0  0  0  0
    1.9804    3.3709   20.4647 H   0  0  0  0  0  0  0  0  0  0  0  0
    2.6751    2.6639   18.1909 H   0  0  0  0  0  0  0  0  0  0  0  0
    4.1828    1.3898   16.7205 H   0  0  0  0  0  0  0  0  0  0  0  0
    7.3136   -0.8273   18.2323 H   0  0  0  0  0  0  0  0  0  0  0  0
    6.4576   -1.5465   21.6749 C   0  0  0  0  0  0  0  0  0  0  0  0
    7.7272   -1.7879   22.5125 C   0  0  2  0  0  0  0  0  0  0  0  0
    7.4685   -2.4305   23.8702 C   0  0  0  0  0  0  0  0  0  0  0  0
    6.8655   -3.6850   23.6883 O   0  0  0  0  0  0  0  0  0  0  0  0
    6.4941   -4.2865   24.9078 C   0  0  0  0  0  0  0  0  0  0  0  0
    5.6763   -5.5134   24.6023 C   0  0  0  0  0  0  0  0  0  0  0  0
    5.4163   -6.2118   25.7556 F   0  0  0  0  0  0  0  0  0  0  0  0
    5.8780   -6.2591   23.3390 C   0  0  0  0  0  0  0  0  0  0  0  0
    4.6258   -5.4396   23.5488 C   0  0  0  0  0  0  0  0  0  0  0  0
    4.5487   -4.5038   23.0048 H   0  0  0  0  0  0  0  0  0  0  0  0
    3.7088   -5.9903   23.7163 H   0  0  0  0  0  0  0  0  0  0  0  0
    5.7641   -7.3330   23.3702 H   0  0  0  0  0  0  0  0  0  0  0  0
    6.6378   -5.8646   22.6777 H   0  0  0  0  0  0  0  0  0  0  0  0
    7.3835   -4.5647   25.4932 H   0  0  0  0  0  0  0  0  0  0  0  0
    5.8946   -3.5878   25.5163 H   0  0  0  0  0  0  0  0  0  0  0  0
    8.4200   -2.5326   24.4217 H   0  0  0  0  0  0  0  0  0  0  0  0
    6.7960   -1.7841   24.4598 H   0  0  0  0  0  0  0  0  0  0  0  0
    8.3451   -2.4701   21.9292 H   0  0  0  0  0  0  0  0  0  0  0  0
    5.6061   -1.2406   22.3033 H   0  0  0  0  0  0  0  0  0  0  0  0
    6.1496   -2.4219   21.0981 H   0  0  0  0  0  0  0  0  0  0  0  0
    9.9821   -0.4949   22.4454 C   0  0  0  0  0  0  0  0  0  0  0  0
   10.6036   -1.4442   21.6202 C   0  0  0  0  0  0  0  0  0  0  0  0
   11.9439   -1.3145   21.3254 C   0  0  0  0  0  0  0  0  0  0  0  0
   12.5961   -2.3397   20.0725 Cl  0  0  0  0  0  0  0  0  0  0  0  0
   12.7455   -0.3475   21.9422 C   0  0  0  0  0  0  0  0  0  0  0  0
   12.1645    0.5227   22.8409 C   0  0  0  0  0  0  0  0  0  0  0  0
   10.7816    0.5002   23.0293 C   0  0  0  0  0  0  0  0  0  0  0  0
   10.1986    1.6659   23.7709 C   0  0  0  0  0  0  0  0  0  0  0  0
   10.8990    2.6008   24.1460 O   0  0  0  0  0  0  0  0  0  0  0  0
   12.7473    1.2634   23.3805 H   0  0  0  0  0  0  0  0  0  0  0  0
   13.7909   -0.2681   21.6780 H   0  0  0  0  0  0  0  0  0  0  0  0
   10.0771   -2.2666   21.1473 H   0  0  0  0  0  0  0  0  0  0  0  0
    8.2922   -0.2140   24.7274 H   0  0  0  0  0  0  0  0  0  0  0  0
    7.0373    0.6291   23.8101 H   0  0  0  0  0  0  0  0  0  0  0  0
    8.9093    3.3416   25.1064 H   0  0  0  0  0  0  0  0  0  0  0  0
    7.2721    2.7117   24.8195 H   0  0  0  0  0  0  0  0  0  0  0  0
    7.8814    4.8927   23.5328 H   0  0  0  0  0  0  0  0  0  0  0  0
    9.0391    3.9166   22.6277 H   0  0  0  0  0  0  0  0  0  0  0  0
    7.3098    2.5202   21.8788 H   0  0  0  0  0  0  0  0  0  0  0  0
    6.1433    3.2568   22.8315 H   0  0  0  0  0  0  0  0  0  0  0  0
    6.7027    5.3652   21.4816 H   0  0  0  0  0  0  0  0  0  0  0  0
    5.6777    4.0771   20.7979 H   0  0  0  0  0  0  0  0  0  0  0  0
    7.3928    4.1677   20.3564 H   0  0  0  0  0  0  0  0  0  0  0  0
  1  2  1  0
  2  3  1  0
  3  4  1  0
  4  5  1  0
  5  6  1  0
  7  6  1  1
  7  8  1  0
  8  9  2  0
  8 10  1  0
 10 11  1  0
 11 12  2  0
 12 13  1  0
 13 14  2  0
 14 15  1  0
 15 16  2  0
 16 17  1  0
 17 18  2  0
 18 19  1  0
 19 20  2  0
 19 21  1  0
 18 22  1  0
 17 23  1  0
 16 24  1  0
 14 25  1  0
 12 26  1  0
 10 27  1  0
 27 28  1  0
 28 29  1  0
 29 30  1  0
 30 31  1  0
 31 32  1  0
 32 33  1  0
 32 34  1  0
 34 35  1  0
 35 36  1  0
 35 37  1  0
 34 38  1  0
 34 39  1  0
 31 40  1  0
 31 41  1  0
 29 42  1  0
 29 43  1  0
 28 44  1  6
 27 45  1  0
 27 46  1  0
  7 47  1  0
 47 48  2  0
 48 49  1  0
 49 50  1  0
 49 51  2  0
 51 52  1  0
 52 53  2  0
 53 54  1  0
 54 55  2  0
 52 56  1  0
 51 57  1  0
 48 58  1  0
  6 59  1  0
  6 60  1  0
  4 61  1  0
  4 62  1  0
  3 63  1  0
  3 64  1  0
  2 65  1  0
  2 66  1  0
  1 67  1  0
  1 68  1  0
  1 69  1  0
 54  5  1  0
 28  7  1  0
 35 32  1  0
 53 47  1  0
 20 11  1  0
 20 15  1  0
M  CHG  1   2   1
M  END
>  <cnnaffinities>  (68) 
[6.89456]

>  <score>  (68) 
6.89456

>  <index>  (68) 
67

>  <Smiles>  (68) 
C([N+](C(C(N1C([C@@]2(C(=O)N(c3c(nc(c4c(c(c(c(c34)[H])[H])[H])[H])[H])[H])C([C@@]2(C(OC(C2(F)C(C2([H])[H])([H])[H])([H])[H])([H])[H])[H])([H])[H])c2c(c(Cl)c(c(c2C1=O)[H])[H])[H])([H])[H])([H])[H])([H])[H])([H])[H])([H])([H])[H]

>  <h>  (68) 
<NA>

>  <Training>  (68) 
True

>  <Success>  (68) 
True

>  <enamine_searched>  (68) 
False

>  <enamine_id>  (68) 
nan

$$$$

     RDKit          3D

 57 62  0  0  0  0  0  0  0  0999 V2000
    5.4081    4.9798   21.5263 C   0  0  0  0  0  0  0  0  0  0  0  0
    6.3783    4.5219   22.5590 C   0  0  0  0  0  0  0  0  0  0  0  0
    6.2932    3.5167   23.3830 N   0  0  0  0  0  0  0  0  0  0  0  0
    7.5199    3.5474   24.0078 C   0  0  0  0  0  0  0  0  0  0  0  0
    7.9472    2.5067   25.0032 C   0  0  0  0  0  0  0  0  0  0  0  0
    8.7041    1.4225   24.3967 N   0  0  0  0  0  0  0  0  0  0  0  0
    8.0838    0.1330   24.1531 C   0  0  0  0  0  0  0  0  0  0  0  0
    8.3753   -0.4030   22.7329 C   0  0  2  0  0  0  0  0  0  0  0  0
    7.6653    0.4496   21.6467 C   0  0  0  0  0  0  0  0  0  0  0  0
    7.7876    1.6406   21.4596 O   0  0  0  0  0  0  0  0  0  0  0  0
    6.8776   -0.3782   20.8775 N   0  0  0  0  0  0  0  0  0  0  0  0
    6.1264    0.1076   19.7802 C   0  0  0  0  0  0  0  0  0  0  0  0
    6.4438   -0.2259   18.4863 C   0  0  0  0  0  0  0  0  0  0  0  0
    5.7707    0.2263   17.4019 N   0  0  0  0  0  0  0  0  0  0  0  0
    4.7481    1.0198   17.6013 C   0  0  0  0  0  0  0  0  0  0  0  0
    4.2914    1.4226   18.8863 C   0  0  0  0  0  0  0  0  0  0  0  0
    3.1629    2.2707   19.0604 C   0  0  0  0  0  0  0  0  0  0  0  0
    2.7332    2.6096   20.3156 C   0  0  0  0  0  0  0  0  0  0  0  0
    3.4133    2.1134   21.4506 C   0  0  0  0  0  0  0  0  0  0  0  0
    4.5087    1.3009   21.3068 C   0  0  0  0  0  0  0  0  0  0  0  0
    4.9909    0.9467   20.0159 C   0  0  0  0  0  0  0  0  0  0  0  0
    5.0200    0.9234   22.1844 H   0  0  0  0  0  0  0  0  0  0  0  0
    3.0809    2.3925   22.4476 H   0  0  0  0  0  0  0  0  0  0  0  0
    1.8758    3.2652   20.4436 H   0  0  0  0  0  0  0  0  0  0  0  0
    2.6583    2.6392   18.1735 H   0  0  0  0  0  0  0  0  0  0  0  0
    4.2254    1.3801   16.7169 H   0  0  0  0  0  0  0  0  0  0  0  0
    7.2890   -0.8742   18.2589 H   0  0  0  0  0  0  0  0  0  0  0  0
    7.1155   -1.7842   21.1130 C   0  0  0  0  0  0  0  0  0  0  0  0
    7.8011   -1.8431   22.4980 C   0  0  2  0  0  0  0  0  0  0  0  0
    6.8291   -2.3822   23.5626 C   0  0  0  0  0  0  0  0  0  0  0  0
    7.3037   -2.4625   24.5459 H   0  0  0  0  0  0  0  0  0  0  0  0
    5.9403   -1.7475   23.6614 H   0  0  0  0  0  0  0  0  0  0  0  0
    6.4907   -3.3882   23.2835 H   0  0  0  0  0  0  0  0  0  0  0  0
    8.6408   -2.5465   22.4650 H   0  0  0  0  0  0  0  0  0  0  0  0
    6.1645   -2.3305   21.0945 H   0  0  0  0  0  0  0  0  0  0  0  0
    7.7714   -2.1903   20.3380 H   0  0  0  0  0  0  0  0  0  0  0  0
    9.8813   -0.3098   22.5226 C   0  0  0  0  0  0  0  0  0  0  0  0
   10.5047   -1.1219   21.5704 C   0  0  0  0  0  0  0  0  0  0  0  0
   11.8586   -0.9875   21.3564 C   0  0  0  0  0  0  0  0  0  0  0  0
   12.4299   -1.7356   20.3956 F   0  0  0  0  0  0  0  0  0  0  0  0
   12.6324   -0.0384   22.0108 C   0  0  0  0  0  0  0  0  0  0  0  0
   12.0104    0.7996   22.9137 C   0  0  0  0  0  0  0  0  0  0  0  0
   10.6462    0.6706   23.1691 C   0  0  0  0  0  0  0  0  0  0  0  0
   10.0243    1.6453   24.1216 C   0  0  0  0  0  0  0  0  0  0  0  0
   10.6363    2.5871   24.6065 O   0  0  0  0  0  0  0  0  0  0  0  0
   12.5470    1.5903   23.4258 H   0  0  0  0  0  0  0  0  0  0  0  0
   13.6742    0.0652   21.7375 H   0  0  0  0  0  0  0  0  0  0  0  0
    9.9608   -1.7938   20.9156 H   0  0  0  0  0  0  0  0  0  0  0  0
    7.0082    0.2696   24.2723 H   0  0  0  0  0  0  0  0  0  0  0  0
    8.4437   -0.6142   24.8796 H   0  0  0  0  0  0  0  0  0  0  0  0
    8.5757    2.9695   25.7691 H   0  0  0  0  0  0  0  0  0  0  0  0
    7.0453    2.0846   25.4526 H   0  0  0  0  0  0  0  0  0  0  0  0
    8.2807    4.5392   23.6525 N   0  0  0  0  0  0  0  0  0  0  0  0
    7.5343    5.1908   22.6815 O   0  0  0  0  0  0  0  0  0  0  0  0
    5.6435    5.9952   21.2003 H   0  0  0  0  0  0  0  0  0  0  0  0
    4.3967    4.9442   21.9345 H   0  0  0  0  0  0  0  0  0  0  0  0
    5.4296    4.3016   20.6660 H   0  0  0  0  0  0  0  0  0  0  0  0
  1  2  1  0
  2  3  2  0
  3  4  1  0
  4  5  1  0
  5  6  1  0
  6  7  1  0
  8  7  1  1
  8  9  1  0
  9 10  2  0
  9 11  1  0
 11 12  1  0
 12 13  2  0
 13 14  1  0
 14 15  2  0
 15 16  1  0
 16 17  2  0
 17 18  1  0
 18 19  2  0
 19 20  1  0
 20 21  2  0
 20 22  1  0
 19 23  1  0
 18 24  1  0
 17 25  1  0
 15 26  1  0
 13 27  1  0
 11 28  1  0
 28 29  1  0
 29 30  1  0
 30 31  1  0
 30 32  1  0
 30 33  1  0
 29 34  1  6
 28 35  1  0
 28 36  1  0
  8 37  1  0
 37 38  2  0
 38 39  1  0
 39 40  1  0
 39 41  2  0
 41 42  1  0
 42 43  2  0
 43 44  1  0
 44 45  2  0
 42 46  1  0
 41 47  1  0
 38 48  1  0
  7 49  1  0
  7 50  1  0
  5 51  1  0
  5 52  1  0
  4 53  2  0
 53 54  1  0
  1 55  1  0
  1 56  1  0
  1 57  1  0
 54  2  1  0
 44  6  1  0
 29  8  1  0
 43 37  1  0
 21 12  1  0
 21 16  1  0
M  END
>  <cnnaffinities>  (69) 
[6.55452, 6.68685, 6.72461, 6.50723]

>  <score>  (69) 
6.55452

>  <index>  (69) 
68

>  <Smiles>  (69) 
C(c1nc(C(N2C([C@@]3(C(=O)N(c4c(nc(c5c(c(c(c(c45)[H])[H])[H])[H])[H])[H])C([C@@]3(C([H])([H])[H])[H])([H])[H])c3c(c(F)c(c(c3C2=O)[H])[H])[H])([H])[H])([H])[H])no1)([H])([H])[H]

>  <h>  (69) 
<NA>

>  <Training>  (69) 
True

>  <Success>  (69) 
True

>  <enamine_searched>  (69) 
False

>  <enamine_id>  (69) 
nan

$$$$

     RDKit          3D

 64 68  0  0  0  0  0  0  0  0999 V2000
    2.4397   -1.8777   27.4712 C   0  0  0  0  0  0  0  0  0  0  0  0
    3.1423   -1.8054   26.1076 C   0  0  0  0  0  0  0  0  0  0  0  0
    4.6429   -1.5358   26.2152 C   0  0  0  0  0  0  0  0  0  0  0  0
    5.0365   -0.4571   26.6138 O   0  0  0  0  0  0  0  0  0  0  0  0
    5.5230   -2.5453   25.7962 N   0  0  0  0  0  0  0  0  0  0  0  0
    5.2690   -3.9474   26.1471 C   0  0  0  0  0  0  0  0  0  0  0  0
    6.5515   -4.6086   26.6497 C   0  0  0  0  0  0  0  0  0  0  0  0
    7.6055   -4.5576   25.5467 C   0  0  0  0  0  0  0  0  0  0  0  0
    7.7178   -3.1729   24.9436 C   0  0  0  0  0  0  0  0  0  0  0  0
    8.8431   -2.8469   24.1960 C   0  0  0  0  0  0  0  0  0  0  0  0
    8.9721   -1.6313   23.5429 C   0  0  0  0  0  0  0  0  0  0  0  0
    7.9381   -0.7018   23.6458 C   0  0  0  0  0  0  0  0  0  0  0  0
    8.0429    0.5369   22.9379 N   0  0  0  0  0  0  0  0  0  0  0  0
    8.4898    1.7146   23.6827 C   0  0  0  0  0  0  0  0  0  0  0  0
    7.3496    2.3429   24.4575 C   0  0  0  0  0  0  0  0  0  0  0  0
    6.3762    3.0813   23.7834 C   0  0  0  0  0  0  0  0  0  0  0  0
    5.2854    3.6015   24.4737 C   0  0  0  0  0  0  0  0  0  0  0  0
    5.1397    3.3944   25.8413 C   0  0  0  0  0  0  0  0  0  0  0  0
    6.1177    2.6663   26.5068 C   0  0  0  0  0  0  0  0  0  0  0  0
    5.9555    2.3884   28.2208 Cl  0  0  0  0  0  0  0  0  0  0  0  0
    7.2132    2.1407   25.8312 C   0  0  0  0  0  0  0  0  0  0  0  0
    7.9311    1.5468   26.3912 H   0  0  0  0  0  0  0  0  0  0  0  0
    4.2888    3.7857   26.3918 H   0  0  0  0  0  0  0  0  0  0  0  0
    4.5342    4.1780   23.9380 H   0  0  0  0  0  0  0  0  0  0  0  0
    6.4741    3.2352   22.7097 H   0  0  0  0  0  0  0  0  0  0  0  0
    9.2804    1.4088   24.3772 H   0  0  0  0  0  0  0  0  0  0  0  0
    8.8943    2.4135   22.9419 H   0  0  0  0  0  0  0  0  0  0  0  0
    7.7725    0.6818   21.5893 C   0  0  0  0  0  0  0  0  0  0  0  0
    8.1674    1.6443   20.9587 O   0  0  0  0  0  0  0  0  0  0  0  0
    6.9458   -0.4280   20.9102 C   0  0  0  0  0  0  0  0  0  0  0  0
    6.1159    0.0979   19.7693 C   0  0  0  0  0  0  0  0  0  0  0  0
    6.4262   -0.1949   18.4684 C   0  0  0  0  0  0  0  0  0  0  0  0
    5.7583    0.2560   17.3769 N   0  0  0  0  0  0  0  0  0  0  0  0
    4.7283    1.0389   17.5789 C   0  0  0  0  0  0  0  0  0  0  0  0
    4.2926    1.4213   18.8739 C   0  0  0  0  0  0  0  0  0  0  0  0
    3.1847    2.2705   19.0796 C   0  0  0  0  0  0  0  0  0  0  0  0
    2.5490    2.7200   17.9817 F   0  0  0  0  0  0  0  0  0  0  0  0
    2.7486    2.6355   20.3174 C   0  0  0  0  0  0  0  0  0  0  0  0
    3.4419    2.1379   21.4423 C   0  0  0  0  0  0  0  0  0  0  0  0
    4.5321    1.3202   21.2988 C   0  0  0  0  0  0  0  0  0  0  0  0
    4.9932    0.9423   20.0089 C   0  0  0  0  0  0  0  0  0  0  0  0
    5.0520    0.9478   22.1784 H   0  0  0  0  0  0  0  0  0  0  0  0
    3.0896    2.4149   22.4334 H   0  0  0  0  0  0  0  0  0  0  0  0
    1.8938    3.2946   20.4144 H   0  0  0  0  0  0  0  0  0  0  0  0
    4.1934    1.3988   16.7013 H   0  0  0  0  0  0  0  0  0  0  0  0
    7.2706   -0.8449   18.2369 H   0  0  0  0  0  0  0  0  0  0  0  0
    7.6544   -1.1707   20.5218 H   0  0  0  0  0  0  0  0  0  0  0  0
    6.3357   -0.9404   21.6642 H   0  0  0  0  0  0  0  0  0  0  0  0
    6.8153   -0.9848   24.4130 C   0  0  0  0  0  0  0  0  0  0  0  0
    6.6928   -2.2204   25.0708 C   0  0  0  0  0  0  0  0  0  0  0  0
    6.0141   -0.2540   24.4634 H   0  0  0  0  0  0  0  0  0  0  0  0
    9.8612   -1.4005   22.9633 H   0  0  0  0  0  0  0  0  0  0  0  0
    9.6383   -3.5846   24.1192 H   0  0  0  0  0  0  0  0  0  0  0  0
    8.5864   -4.8761   25.9266 H   0  0  0  0  0  0  0  0  0  0  0  0
    7.3470   -5.2814   24.7536 H   0  0  0  0  0  0  0  0  0  0  0  0
    6.3474   -5.6474   26.9380 H   0  0  0  0  0  0  0  0  0  0  0  0
    6.9115   -4.0820   27.5448 H   0  0  0  0  0  0  0  0  0  0  0  0
    4.5046   -3.9484   26.9308 H   0  0  0  0  0  0  0  0  0  0  0  0
    4.8724   -4.5049   25.2808 H   0  0  0  0  0  0  0  0  0  0  0  0
    2.9459   -2.6937   25.4931 H   0  0  0  0  0  0  0  0  0  0  0  0
    2.7527   -0.9364   25.5583 H   0  0  0  0  0  0  0  0  0  0  0  0
    2.6011   -0.9501   28.0329 H   0  0  0  0  0  0  0  0  0  0  0  0
    2.8037   -2.7165   28.0793 H   0  0  0  0  0  0  0  0  0  0  0  0
    1.3586   -2.0042   27.3337 H   0  0  0  0  0  0  0  0  0  0  0  0
  1  2  1  0
  2  3  1  0
  3  4  2  0
  3  5  1  0
  5  6  1  0
  6  7  1  0
  7  8  1  0
  8  9  1  0
  9 10  2  0
 10 11  1  0
 11 12  2  0
 12 13  1  0
 13 14  1  0
 14 15  1  0
 15 16  2  0
 16 17  1  0
 17 18  2  0
 18 19  1  0
 19 20  1  0
 19 21  2  0
 21 22  1  0
 18 23  1  0
 17 24  1  0
 16 25  1  0
 14 26  1  0
 14 27  1  0
 13 28  1  0
 28 29  2  0
 28 30  1  0
 30 31  1  0
 31 32  2  0
 32 33  1  0
 33 34  2  0
 34 35  1  0
 35 36  2  0
 36 37  1  0
 36 38  1  0
 38 39  2  0
 39 40  1  0
 40 41  2  0
 40 42  1  0
 39 43  1  0
 38 44  1  0
 34 45  1  0
 32 46  1  0
 30 47  1  0
 30 48  1  0
 12 49  1  0
 49 50  2  0
 49 51  1  0
 11 52  1  0
 10 53  1  0
  8 54  1  0
  8 55  1  0
  7 56  1  0
  7 57  1  0
  6 58  1  0
  6 59  1  0
  2 60  1  0
  2 61  1  0
  1 62  1  0
  1 63  1  0
  1 64  1  0
 50  5  1  0
 50  9  1  0
 21 15  1  0
 41 31  1  0
 41 35  1  0
M  END
>  <cnnaffinities>  (70) 
[6.75944]

>  <score>  (70) 
6.75944

>  <index>  (70) 
69

>  <Smiles>  (70) 
C(C(C(=O)N1C(C(C(c2c(c(c(N(C(c3c(c(c(c(Cl)c3[H])[H])[H])[H])([H])[H])C(=O)C(c3c(nc(c4c(F)c(c(c(c34)[H])[H])[H])[H])[H])([H])[H])c(c12)[H])[H])[H])([H])[H])([H])[H])([H])[H])([H])[H])([H])([H])[H]

>  <h>  (70) 
<NA>

>  <Training>  (70) 
True

>  <Success>  (70) 
True

>  <enamine_searched>  (70) 
False

>  <enamine_id>  (70) 
nan

$$$$

     RDKit          3D

 57 62  0  0  0  0  0  0  0  0999 V2000
    7.7877   -2.9910   23.3197 C   0  0  0  0  0  0  0  0  0  0  0  0
    8.0512   -1.8953   22.2781 C   0  0  1  0  0  0  0  0  0  0  0  0
    6.9243   -1.7892   21.2333 C   0  0  0  0  0  0  0  0  0  0  0  0
    6.9325   -0.3964   20.8333 N   0  0  0  0  0  0  0  0  0  0  0  0
    6.1424    0.1116   19.7722 C   0  0  0  0  0  0  0  0  0  0  0  0
    6.4428   -0.2223   18.4761 C   0  0  0  0  0  0  0  0  0  0  0  0
    5.7653    0.2285   17.3940 N   0  0  0  0  0  0  0  0  0  0  0  0
    4.7443    1.0213   17.5991 C   0  0  0  0  0  0  0  0  0  0  0  0
    4.2967    1.4178   18.8898 C   0  0  0  0  0  0  0  0  0  0  0  0
    3.1694    2.2687   19.0590 C   0  0  0  0  0  0  0  0  0  0  0  0
    2.7416    2.6129   20.3111 C   0  0  0  0  0  0  0  0  0  0  0  0
    3.4161    2.1113   21.4506 C   0  0  0  0  0  0  0  0  0  0  0  0
    4.5055    1.2921   21.3095 C   0  0  0  0  0  0  0  0  0  0  0  0
    4.9962    0.9409   20.0174 C   0  0  0  0  0  0  0  0  0  0  0  0
    5.0182    0.9152   22.1885 H   0  0  0  0  0  0  0  0  0  0  0  0
    3.0716    2.3917   22.4408 H   0  0  0  0  0  0  0  0  0  0  0  0
    1.8892    3.2742   20.4408 H   0  0  0  0  0  0  0  0  0  0  0  0
    2.6631    2.6385   18.1715 H   0  0  0  0  0  0  0  0  0  0  0  0
    4.2175    1.3843   16.7164 H   0  0  0  0  0  0  0  0  0  0  0  0
    7.2858   -0.8770   18.2604 H   0  0  0  0  0  0  0  0  0  0  0  0
    7.6406    0.4220   21.6799 C   0  0  0  0  0  0  0  0  0  0  0  0
    7.7420    1.6223   21.5453 O   0  0  0  0  0  0  0  0  0  0  0  0
    8.2450   -0.4431   22.8113 C   0  0  1  0  0  0  0  0  0  0  0  0
    7.4520   -0.1922   24.1175 C   0  0  0  0  0  0  0  0  0  0  0  0
    7.6738    1.1534   24.6093 N   0  0  0  0  0  0  0  0  0  0  0  0
    6.5519    1.9006   25.1536 C   0  0  0  0  0  0  0  0  0  0  0  0
    6.1161    1.4655   26.5185 C   0  0  0  0  0  0  0  0  0  0  0  0
    6.5636    2.0177   27.6684 N   0  0  0  0  0  0  0  0  0  0  0  0
    6.0096    1.3479   28.6379 N   0  0  0  0  0  0  0  0  0  0  0  0
    5.2469    0.4399   28.0727 N   0  0  0  0  0  0  0  0  0  0  0  0
    4.5342   -0.5601   28.8385 C   0  0  0  0  0  0  0  0  0  0  0  0
    3.6262   -0.8111   28.2892 H   0  0  0  0  0  0  0  0  0  0  0  0
    4.2914   -0.1237   29.8088 H   0  0  0  0  0  0  0  0  0  0  0  0
    5.1589   -1.4507   28.9716 H   0  0  0  0  0  0  0  0  0  0  0  0
    5.2696    0.4708   26.7505 N   0  0  0  0  0  0  0  0  0  0  0  0
    5.7138    1.7813   24.4526 H   0  0  0  0  0  0  0  0  0  0  0  0
    6.8480    2.9512   25.1873 H   0  0  0  0  0  0  0  0  0  0  0  0
    8.9499    1.5741   24.8620 C   0  0  0  0  0  0  0  0  0  0  0  0
    9.2162    2.4662   25.6580 O   0  0  0  0  0  0  0  0  0  0  0  0
   10.0055    0.8865   24.0487 C   0  0  0  0  0  0  0  0  0  0  0  0
   11.3210    1.2704   24.2784 C   0  0  0  0  0  0  0  0  0  0  0  0
   12.3382    0.8346   23.4564 C   0  0  0  0  0  0  0  0  0  0  0  0
   11.9901    0.0252   22.3791 C   0  0  0  0  0  0  0  0  0  0  0  0
   12.9473   -0.3206   21.5037 F   0  0  0  0  0  0  0  0  0  0  0  0
   10.7001   -0.4132   22.1580 C   0  0  0  0  0  0  0  0  0  0  0  0
    9.6825   -0.0255   23.0399 C   0  0  0  0  0  0  0  0  0  0  0  0
   10.5111   -1.0168   21.2763 H   0  0  0  0  0  0  0  0  0  0  0  0
   13.3728    1.1277   23.5867 H   0  0  0  0  0  0  0  0  0  0  0  0
   11.4597    1.9520   25.0998 H   0  0  0  0  0  0  0  0  0  0  0  0
    6.3797   -0.3081   23.9315 H   0  0  0  0  0  0  0  0  0  0  0  0
    7.7606   -0.9222   24.8811 H   0  0  0  0  0  0  0  0  0  0  0  0
    5.9536   -2.0795   21.6610 H   0  0  0  0  0  0  0  0  0  0  0  0
    7.0918   -2.4139   20.3578 H   0  0  0  0  0  0  0  0  0  0  0  0
    8.9774   -2.1475   21.7565 H   0  0  0  0  0  0  0  0  0  0  0  0
    6.8287   -2.8295   23.8281 H   0  0  0  0  0  0  0  0  0  0  0  0
    8.5671   -3.0285   24.0907 H   0  0  0  0  0  0  0  0  0  0  0  0
    7.7430   -3.9789   22.8463 H   0  0  0  0  0  0  0  0  0  0  0  0
  1  2  1  0
  2  3  1  0
  3  4  1  0
  4  5  1  0
  5  6  2  0
  6  7  1  0
  7  8  2  0
  8  9  1  0
  9 10  2  0
 10 11  1  0
 11 12  2  0
 12 13  1  0
 13 14  2  0
 13 15  1  0
 12 16  1  0
 11 17  1  0
 10 18  1  0
  8 19  1  0
  6 20  1  0
  4 21  1  0
 21 22  2  0
 21 23  1  0
 23 24  1  1
 24 25  1  0
 25 26  1  0
 26 27  1  0
 27 28  1  0
 28 29  2  0
 29 30  1  0
 30 31  1  0
 31 32  1  0
 31 33  1  0
 31 34  1  0
 30 35  1  0
 26 36  1  0
 26 37  1  0
 25 38  1  0
 38 39  2  0
 38 40  1  0
 40 41  2  0
 41 42  1  0
 42 43  2  0
 43 44  1  0
 43 45  1  0
 45 46  2  0
 45 47  1  0
 42 48  1  0
 41 49  1  0
 24 50  1  0
 24 51  1  0
  3 52  1  0
  3 53  1  0
  2 54  1  6
  1 55  1  0
  1 56  1  0
  1 57  1  0
 23  2  1  0
 35 27  2  0
 46 40  1  0
 14  5  1  0
 46 23  1  0
 14  9  1  0
M  END
>  <cnnaffinities>  (71) 
[6.62432, 6.66569, 6.56322, 6.75128, 6.70339]

>  <score>  (71) 
6.62432

>  <index>  (71) 
70

>  <Smiles>  (71) 
C([C@]1(C(N(c2c(nc(c3c(c(c(c(c23)[H])[H])[H])[H])[H])[H])C(=O)[C@]21C(N(C(c1nnn(C([H])([H])[H])n1)([H])[H])C(=O)c1c(c(c(F)c(c21)[H])[H])[H])([H])[H])([H])[H])[H])([H])([H])[H]

>  <h>  (71) 
<NA>

>  <Training>  (71) 
True

>  <Success>  (71) 
True

>  <enamine_searched>  (71) 
False

>  <enamine_id>  (71) 
nan

$$$$

     RDKit          3D

 59 64  0  0  0  0  0  0  0  0999 V2000
    7.6022   -2.9359   23.4411 C   0  0  0  0  0  0  0  0  0  0  0  0
    7.9383   -1.9018   22.3583 C   0  0  1  0  0  0  0  0  0  0  0  0
    6.8294   -1.7787   21.2943 C   0  0  0  0  0  0  0  0  0  0  0  0
    6.9327   -0.4100   20.8293 N   0  0  0  0  0  0  0  0  0  0  0  0
    6.1430    0.1103   19.7734 C   0  0  0  0  0  0  0  0  0  0  0  0
    6.4419   -0.2208   18.4749 C   0  0  0  0  0  0  0  0  0  0  0  0
    5.7639    0.2279   17.3953 N   0  0  0  0  0  0  0  0  0  0  0  0
    4.7423    1.0230   17.6002 C   0  0  0  0  0  0  0  0  0  0  0  0
    4.2969    1.4202   18.8930 C   0  0  0  0  0  0  0  0  0  0  0  0
    3.1704    2.2707   19.0632 C   0  0  0  0  0  0  0  0  0  0  0  0
    2.7479    2.6164   20.3196 C   0  0  0  0  0  0  0  0  0  0  0  0
    3.4246    2.1180   21.4552 C   0  0  0  0  0  0  0  0  0  0  0  0
    4.5156    1.2964   21.3143 C   0  0  0  0  0  0  0  0  0  0  0  0
    5.0007    0.9431   20.0197 C   0  0  0  0  0  0  0  0  0  0  0  0
    5.0215    0.9199   22.1981 H   0  0  0  0  0  0  0  0  0  0  0  0
    3.0908    2.3959   22.4513 H   0  0  0  0  0  0  0  0  0  0  0  0
    1.8945    3.2782   20.4456 H   0  0  0  0  0  0  0  0  0  0  0  0
    2.6617    2.6399   18.1778 H   0  0  0  0  0  0  0  0  0  0  0  0
    4.2176    1.3843   16.7180 H   0  0  0  0  0  0  0  0  0  0  0  0
    7.2835   -0.8777   18.2614 H   0  0  0  0  0  0  0  0  0  0  0  0
    7.6668    0.4060   21.6589 C   0  0  0  0  0  0  0  0  0  0  0  0
    7.8241    1.5958   21.4815 O   0  0  0  0  0  0  0  0  0  0  0  0
    8.2095   -0.4388   22.8364 C   0  0  1  0  0  0  0  0  0  0  0  0
    7.4230   -0.0868   24.1228 C   0  0  0  0  0  0  0  0  0  0  0  0
    7.7280    1.2497   24.5991 N   0  0  0  0  0  0  0  0  0  0  0  0
    6.6377    2.1967   24.7790 C   0  0  0  0  0  0  0  0  0  0  0  0
    5.5570    1.6993   25.6988 C   0  0  0  0  0  0  0  0  0  0  0  0
    4.3412    1.3666   25.3176 N   0  0  0  0  0  0  0  0  0  0  0  0
    3.7170    0.9125   26.4519 C   0  0  0  0  0  0  0  0  0  0  0  0
    4.5654    0.9795   27.5185 C   0  0  0  0  0  0  0  0  0  0  0  0
    5.7481    1.4924   27.0323 N   0  0  0  0  0  0  0  0  0  0  0  0
    6.9685    1.7086   27.7858 C   0  0  0  0  0  0  0  0  0  0  0  0
    7.3843    2.6992   27.5745 H   0  0  0  0  0  0  0  0  0  0  0  0
    6.7182    1.6480   28.8478 H   0  0  0  0  0  0  0  0  0  0  0  0
    7.7201    0.9488   27.5467 H   0  0  0  0  0  0  0  0  0  0  0  0
    4.4628    0.7077   28.5613 H   0  0  0  0  0  0  0  0  0  0  0  0
    2.6960    0.5470   26.4157 H   0  0  0  0  0  0  0  0  0  0  0  0
    7.0990    3.1205   25.1408 H   0  0  0  0  0  0  0  0  0  0  0  0
    6.1670    2.3916   23.8049 H   0  0  0  0  0  0  0  0  0  0  0  0
    9.0229    1.6240   24.8201 C   0  0  0  0  0  0  0  0  0  0  0  0
    9.3412    2.5441   25.5641 O   0  0  0  0  0  0  0  0  0  0  0  0
   10.0420    0.8358   24.0529 C   0  0  0  0  0  0  0  0  0  0  0  0
   11.3832    1.1366   24.2747 C   0  0  0  0  0  0  0  0  0  0  0  0
   12.3710    0.6095   23.4657 C   0  0  0  0  0  0  0  0  0  0  0  0
   11.9664   -0.1808   22.3975 C   0  0  0  0  0  0  0  0  0  0  0  0
   12.8657   -0.5320   21.4686 F   0  0  0  0  0  0  0  0  0  0  0  0
   10.6580   -0.5741   22.2144 C   0  0  0  0  0  0  0  0  0  0  0  0
    9.6659   -0.0964   23.0776 C   0  0  0  0  0  0  0  0  0  0  0  0
   10.4473   -1.2059   21.3611 H   0  0  0  0  0  0  0  0  0  0  0  0
   13.4219    0.8355   23.5940 H   0  0  0  0  0  0  0  0  0  0  0  0
   11.5805    1.8438   25.0614 H   0  0  0  0  0  0  0  0  0  0  0  0
    7.6755   -0.8171   24.9065 H   0  0  0  0  0  0  0  0  0  0  0  0
    6.3508   -0.1271   23.9247 H   0  0  0  0  0  0  0  0  0  0  0  0
    5.8387   -1.9878   21.7291 H   0  0  0  0  0  0  0  0  0  0  0  0
    6.9608   -2.4649   20.4547 H   0  0  0  0  0  0  0  0  0  0  0  0
    8.8506   -2.2330   21.8542 H   0  0  0  0  0  0  0  0  0  0  0  0
    7.5003   -3.9394   23.0089 H   0  0  0  0  0  0  0  0  0  0  0  0
    6.6521   -2.6945   23.9358 H   0  0  0  0  0  0  0  0  0  0  0  0
    8.3749   -2.9853   24.2187 H   0  0  0  0  0  0  0  0  0  0  0  0
  1  2  1  0
  2  3  1  0
  3  4  1  0
  4  5  1  0
  5  6  2  0
  6  7  1  0
  7  8  2  0
  8  9  1  0
  9 10  2  0
 10 11  1  0
 11 12  2  0
 12 13  1  0
 13 14  2  0
 13 15  1  0
 12 16  1  0
 11 17  1  0
 10 18  1  0
  8 19  1  0
  6 20  1  0
  4 21  1  0
 21 22  2  0
 21 23  1  0
 23 24  1  1
 24 25  1  0
 25 26  1  0
 26 27  1  0
 27 28  2  0
 28 29  1  0
 29 30  2  0
 30 31  1  0
 31 32  1  0
 32 33  1  0
 32 34  1  0
 32 35  1  0
 30 36  1  0
 29 37  1  0
 26 38  1  0
 26 39  1  0
 25 40  1  0
 40 41  2  0
 40 42  1  0
 42 43  2  0
 43 44  1  0
 44 45  2  0
 45 46  1  0
 45 47  1  0
 47 48  2  0
 47 49  1  0
 44 50  1  0
 43 51  1  0
 24 52  1  0
 24 53  1  0
  3 54  1  0
  3 55  1  0
  2 56  1  6
  1 57  1  0
  1 58  1  0
  1 59  1  0
 23  2  1  0
 31 27  1  0
 48 42  1  0
 14  5  1  0
 48 23  1  0
 14  9  1  0
M  END
>  <cnnaffinities>  (72) 
[6.70533]

>  <score>  (72) 
6.70533

>  <index>  (72) 
71

>  <Smiles>  (72) 
C([C@]1(C(N(c2c(nc(c3c(c(c(c(c23)[H])[H])[H])[H])[H])[H])C(=O)[C@]21C(N(C(c1nc(c(n1C([H])([H])[H])[H])[H])([H])[H])C(=O)c1c(c(c(F)c(c21)[H])[H])[H])([H])[H])([H])[H])[H])([H])([H])[H]

>  <h>  (72) 
<NA>

>  <Training>  (72) 
True

>  <Success>  (72) 
True

>  <enamine_searched>  (72) 
False

>  <enamine_id>  (72) 
nan

$$$$

     RDKit          3D

 60 64  0  0  0  0  0  0  0  0999 V2000
    6.4818    4.4338   22.5841 C   0  0  0  0  0  0  0  0  0  0  0  0
    7.1782    3.6367   23.5781 N   0  0  0  0  0  0  0  0  0  0  0  0
    6.5158    2.6825   24.2697 C   0  0  0  0  0  0  0  0  0  0  0  0
    5.2992    2.5617   24.2356 O   0  0  0  0  0  0  0  0  0  0  0  0
    7.3742    1.7728   25.1577 C   0  0  0  0  0  0  0  0  0  0  0  0
    8.3882    1.0300   24.4453 N   0  0  0  0  0  0  0  0  0  0  0  0
    8.0534   -0.2762   23.9075 C   0  0  0  0  0  0  0  0  0  0  0  0
    8.6568   -0.4873   22.4976 C   0  0  2  0  0  0  0  0  0  0  0  0
    7.8745    0.3900   21.4880 C   0  0  0  0  0  0  0  0  0  0  0  0
    8.0073    1.5809   21.2996 O   0  0  0  0  0  0  0  0  0  0  0  0
    6.9504   -0.3996   20.8382 N   0  0  0  0  0  0  0  0  0  0  0  0
    6.1529    0.0992   19.7746 C   0  0  0  0  0  0  0  0  0  0  0  0
    6.4550   -0.2268   18.4738 C   0  0  0  0  0  0  0  0  0  0  0  0
    5.7761    0.2277   17.3926 N   0  0  0  0  0  0  0  0  0  0  0  0
    4.7546    1.0162   17.6073 C   0  0  0  0  0  0  0  0  0  0  0  0
    4.3129    1.4149   18.8996 C   0  0  0  0  0  0  0  0  0  0  0  0
    3.1846    2.2626   19.0726 C   0  0  0  0  0  0  0  0  0  0  0  0
    2.7597    2.6134   20.3233 C   0  0  0  0  0  0  0  0  0  0  0  0
    3.4493    2.1309   21.4610 C   0  0  0  0  0  0  0  0  0  0  0  0
    4.5461    1.3153   21.3205 C   0  0  0  0  0  0  0  0  0  0  0  0
    5.0200    0.9383   20.0307 C   0  0  0  0  0  0  0  0  0  0  0  0
    5.0511    0.9637   22.2156 H   0  0  0  0  0  0  0  0  0  0  0  0
    3.1360    2.4234   22.4586 H   0  0  0  0  0  0  0  0  0  0  0  0
    1.9017    3.2698   20.4477 H   0  0  0  0  0  0  0  0  0  0  0  0
    2.6777    2.6270   18.1825 H   0  0  0  0  0  0  0  0  0  0  0  0
    4.2144    1.3782   16.7319 H   0  0  0  0  0  0  0  0  0  0  0  0
    7.3006   -0.8790   18.2546 H   0  0  0  0  0  0  0  0  0  0  0  0
    6.9794   -1.7884   21.2392 C   0  0  0  0  0  0  0  0  0  0  0  0
    8.3433   -1.9218   21.9601 C   0  0  2  0  0  0  0  0  0  0  0  0
    8.3524   -2.9729   22.9815 N   0  0  0  0  0  0  0  0  0  0  0  0
    7.8071   -4.2266   22.8197 C   0  0  0  0  0  0  0  0  0  0  0  0
    7.3695   -4.6338   21.7564 O   0  0  0  0  0  0  0  0  0  0  0  0
    7.7586   -5.0951   24.0691 C   0  0  0  0  0  0  0  0  0  0  0  0
    7.1639   -4.6049   24.8543 H   0  0  0  0  0  0  0  0  0  0  0  0
    8.7601   -5.3051   24.4765 H   0  0  0  0  0  0  0  0  0  0  0  0
    7.2606   -6.0279   23.7790 H   0  0  0  0  0  0  0  0  0  0  0  0
    8.9561   -2.8331   23.7813 H   0  0  0  0  0  0  0  0  0  0  0  0
    9.0907   -2.1637   21.1981 H   0  0  0  0  0  0  0  0  0  0  0  0
    6.8801   -2.4472   20.3747 H   0  0  0  0  0  0  0  0  0  0  0  0
    6.1663   -2.0312   21.9337 H   0  0  0  0  0  0  0  0  0  0  0  0
   10.1315   -0.1181   22.5651 C   0  0  0  0  0  0  0  0  0  0  0  0
   11.0355   -0.5808   21.5998 C   0  0  0  0  0  0  0  0  0  0  0  0
   12.3621   -0.1663   21.6390 C   0  0  0  0  0  0  0  0  0  0  0  0
   13.4555   -0.5497   20.3085 Cl  0  0  0  0  0  0  0  0  0  0  0  0
   12.8277    0.7093   22.6154 C   0  0  0  0  0  0  0  0  0  0  0  0
   11.9397    1.2024   23.5490 C   0  0  0  0  0  0  0  0  0  0  0  0
   10.6049    0.8033   23.5151 C   0  0  0  0  0  0  0  0  0  0  0  0
    9.6750    1.4873   24.4608 C   0  0  0  0  0  0  0  0  0  0  0  0
   10.0363    2.4306   25.1579 O   0  0  0  0  0  0  0  0  0  0  0  0
   12.2255    1.9514   24.2811 H   0  0  0  0  0  0  0  0  0  0  0  0
   13.8539    1.0490   22.5659 H   0  0  0  0  0  0  0  0  0  0  0  0
   10.6881   -1.1706   20.7570 H   0  0  0  0  0  0  0  0  0  0  0  0
    8.4219   -1.0637   24.5747 H   0  0  0  0  0  0  0  0  0  0  0  0
    6.9626   -0.3389   23.8571 H   0  0  0  0  0  0  0  0  0  0  0  0
    6.6801    1.0882   25.6551 H   0  0  0  0  0  0  0  0  0  0  0  0
    7.9212    2.3819   25.8822 H   0  0  0  0  0  0  0  0  0  0  0  0
    8.1866    3.6346   23.5698 H   0  0  0  0  0  0  0  0  0  0  0  0
    6.0170    3.7860   21.8285 H   0  0  0  0  0  0  0  0  0  0  0  0
    5.6843    5.0173   23.0550 H   0  0  0  0  0  0  0  0  0  0  0  0
    7.1984    5.1067   22.1048 H   0  0  0  0  0  0  0  0  0  0  0  0
  1  2  1  0
  2  3  1  0
  3  4  2  0
  3  5  1  0
  5  6  1  0
  6  7  1  0
  8  7  1  1
  8  9  1  0
  9 10  2  0
  9 11  1  0
 11 12  1  0
 12 13  2  0
 13 14  1  0
 14 15  2  0
 15 16  1  0
 16 17  2  0
 17 18  1  0
 18 19  2  0
 19 20  1  0
 20 21  2  0
 20 22  1  0
 19 23  1  0
 18 24  1  0
 17 25  1  0
 15 26  1  0
 13 27  1  0
 11 28  1  0
 28 29  1  0
 29 30  1  0
 30 31  1  0
 31 32  2  0
 31 33  1  0
 33 34  1  0
 33 35  1  0
 33 36  1  0
 30 37  1  0
 29 38  1  6
 28 39  1  0
 28 40  1  0
  8 41  1  0
 41 42  2  0
 42 43  1  0
 43 44  1  0
 43 45  2  0
 45 46  1  0
 46 47  2  0
 47 48  1  0
 48 49  2  0
 46 50  1  0
 45 51  1  0
 42 52  1  0
  7 53  1  0
  7 54  1  0
  5 55  1  0
  5 56  1  0
  2 57  1  0
  1 58  1  0
  1 59  1  0
  1 60  1  0
 48  6  1  0
 29  8  1  0
 47 41  1  0
 21 12  1  0
 21 16  1  0
M  END
>  <cnnaffinities>  (73) 
[6.75167, 6.30201]

>  <score>  (73) 
6.75167

>  <index>  (73) 
72

>  <Smiles>  (73) 
C(N(C(=O)C(N1C([C@@]2(C(=O)N(c3c(nc(c4c(c(c(c(c34)[H])[H])[H])[H])[H])[H])C([C@@]2(N(C(=O)C([H])([H])[H])[H])[H])([H])[H])c2c(c(Cl)c(c(c2C1=O)[H])[H])[H])([H])[H])([H])[H])[H])([H])([H])[H]

>  <h>  (73) 
<NA>

>  <Training>  (73) 
True

>  <Success>  (73) 
True

>  <enamine_searched>  (73) 
False

>  <enamine_id>  (73) 
nan

$$$$

     RDKit          3D

 56 61  0  0  0  0  0  0  0  0999 V2000
    9.7569   -1.9559   21.8517 C   0  0  0  0  0  0  0  0  0  0  0  0
    8.6672   -0.9739   22.3201 C   0  0  1  0  0  0  0  0  0  0  0  0
    8.2198   -0.0745   21.1426 C   0  0  0  0  0  0  0  0  0  0  0  0
    6.8638   -0.4859   20.8431 N   0  0  0  0  0  0  0  0  0  0  0  0
    6.1038    0.0597   19.7752 C   0  0  0  0  0  0  0  0  0  0  0  0
    6.4432   -0.2210   18.4767 C   0  0  0  0  0  0  0  0  0  0  0  0
    5.7783    0.2458   17.3922 N   0  0  0  0  0  0  0  0  0  0  0  0
    4.7477    1.0245   17.6018 C   0  0  0  0  0  0  0  0  0  0  0  0
    4.2937    1.4152   18.8919 C   0  0  0  0  0  0  0  0  0  0  0  0
    3.1789    2.2796   19.0603 C   0  0  0  0  0  0  0  0  0  0  0  0
    2.7819    2.6598   20.3105 C   0  0  0  0  0  0  0  0  0  0  0  0
    3.4881    2.2009   21.4476 C   0  0  0  0  0  0  0  0  0  0  0  0
    4.5690    1.3673   21.3143 C   0  0  0  0  0  0  0  0  0  0  0  0
    4.9924    0.9327   20.0243 C   0  0  0  0  0  0  0  0  0  0  0  0
    5.1053    1.0292   22.2020 H   0  0  0  0  0  0  0  0  0  0  0  0
    3.1645    2.5117   22.4354 H   0  0  0  0  0  0  0  0  0  0  0  0
    1.9308    3.3221   20.4400 H   0  0  0  0  0  0  0  0  0  0  0  0
    2.6615    2.6340   18.1711 H   0  0  0  0  0  0  0  0  0  0  0  0
    4.2154    1.3842   16.7204 H   0  0  0  0  0  0  0  0  0  0  0  0
    7.2891   -0.8725   18.2637 H   0  0  0  0  0  0  0  0  0  0  0  0
    6.3246   -1.3761   21.7428 C   0  0  0  0  0  0  0  0  0  0  0  0
    5.2118   -1.8554   21.6508 O   0  0  0  0  0  0  0  0  0  0  0  0
    7.3502   -1.6214   22.8741 C   0  0  1  0  0  0  0  0  0  0  0  0
    7.4854   -3.1355   23.1502 C   0  0  0  0  0  0  0  0  0  0  0  0
    6.2859   -3.6833   23.7486 N   0  0  0  0  0  0  0  0  0  0  0  0
    5.6549   -4.8417   23.1458 C   0  0  0  0  0  0  0  0  0  0  0  0
    4.0988   -4.8394   23.0416 C   0  0  0  0  0  0  0  0  0  0  0  0
    3.9991   -6.0522   23.9644 N   0  0  0  0  0  4  0  0  0  0  0  0
    5.5236   -6.1263   24.0188 C   0  0  0  0  0  0  0  0  0  0  0  0
    5.8914   -7.0518   23.5834 H   0  0  0  0  0  0  0  0  0  0  0  0
    5.8928   -6.0341   25.0357 H   0  0  0  0  0  0  0  0  0  0  0  0
    3.5182   -6.8861   23.5771 H   0  0  0  0  0  0  0  0  0  0  0  0
    3.6142   -5.7847   24.8927 H   0  0  0  0  0  0  0  0  0  0  0  0
    3.6076   -3.9663   23.4611 H   0  0  0  0  0  0  0  0  0  0  0  0
    3.6757   -5.0439   22.0616 H   0  0  0  0  0  0  0  0  0  0  0  0
    6.1681   -4.9695   22.1854 H   0  0  0  0  0  0  0  0  0  0  0  0
    5.7551   -3.1256   24.8796 C   0  0  0  0  0  0  0  0  0  0  0  0
    4.9862   -3.7493   25.6137 O   0  0  0  0  0  0  0  0  0  0  0  0
    6.1113   -1.6813   25.1098 C   0  0  0  0  0  0  0  0  0  0  0  0
    5.6298   -1.0429   26.2554 C   0  0  0  0  0  0  0  0  0  0  0  0
    5.8244    0.3132   26.4446 C   0  0  0  0  0  0  0  0  0  0  0  0
    6.4962    1.0433   25.4662 C   0  0  0  0  0  0  0  0  0  0  0  0
    6.7036    2.7593   25.6817 Cl  0  0  0  0  0  0  0  0  0  0  0  0
    6.9934    0.4287   24.3298 C   0  0  0  0  0  0  0  0  0  0  0  0
    6.8364   -0.9541   24.1513 C   0  0  0  0  0  0  0  0  0  0  0  0
    7.4871    1.0504   23.5868 H   0  0  0  0  0  0  0  0  0  0  0  0
    5.4487    0.8179   27.3270 H   0  0  0  0  0  0  0  0  0  0  0  0
    5.0812   -1.6397   26.9773 H   0  0  0  0  0  0  0  0  0  0  0  0
    7.6706   -3.6562   22.2092 H   0  0  0  0  0  0  0  0  0  0  0  0
    8.3418   -3.2910   23.8238 H   0  0  0  0  0  0  0  0  0  0  0  0
    8.2587    0.9973   21.3878 H   0  0  0  0  0  0  0  0  0  0  0  0
    8.8638   -0.2336   20.2757 H   0  0  0  0  0  0  0  0  0  0  0  0
    9.1205   -0.3690   23.1158 H   0  0  0  0  0  0  0  0  0  0  0  0
   10.6194   -1.4008   21.4657 H   0  0  0  0  0  0  0  0  0  0  0  0
    9.3984   -2.6101   21.0484 H   0  0  0  0  0  0  0  0  0  0  0  0
   10.1191   -2.5831   22.6710 H   0  0  0  0  0  0  0  0  0  0  0  0
  1  2  1  0
  2  3  1  0
  3  4  1  0
  4  5  1  0
  5  6  2  0
  6  7  1  0
  7  8  2  0
  8  9  1  0
  9 10  2  0
 10 11  1  0
 11 12  2  0
 12 13  1  0
 13 14  2  0
 13 15  1  0
 12 16  1  0
 11 17  1  0
 10 18  1  0
  8 19  1  0
  6 20  1  0
  4 21  1  0
 21 22  2  0
 21 23  1  0
 23 24  1  1
 24 25  1  0
 25 26  1  0
 26 27  1  0
 27 28  1  0
 28 29  1  0
 29 30  1  0
 29 31  1  0
 28 32  1  0
 28 33  1  0
 27 34  1  0
 27 35  1  0
 26 36  1  0
 25 37  1  0
 37 38  2  0
 37 39  1  0
 39 40  2  0
 40 41  1  0
 41 42  2  0
 42 43  1  0
 42 44  1  0
 44 45  2  0
 44 46  1  0
 41 47  1  0
 40 48  1  0
 24 49  1  0
 24 50  1  0
  3 51  1  0
  3 52  1  0
  2 53  1  1
  1 54  1  0
  1 55  1  0
  1 56  1  0
 23  2  1  0
 29 26  1  0
 45 39  1  0
 14  5  1  0
 45 23  1  0
 14  9  1  0
M  CHG  1  28   1
M  END
>  <cnnaffinities>  (74) 
[6.44809, 6.44643]

>  <score>  (74) 
6.44809

>  <index>  (74) 
73

>  <Smiles>  (74) 
C([C@]1(C(N(c2c(nc(c3c(c(c(c(c23)[H])[H])[H])[H])[H])[H])C(=O)[C@]21C(N(C1(C([N+](C1([H])[H])([H])[H])([H])[H])[H])C(=O)c1c(c(c(Cl)c(c21)[H])[H])[H])([H])[H])([H])[H])[H])([H])([H])[H]

>  <h>  (74) 
<NA>

>  <Training>  (74) 
True

>  <Success>  (74) 
True

>  <enamine_searched>  (74) 
False

>  <enamine_id>  (74) 
nan

$$$$

     RDKit          3D

 55 60  0  0  0  0  0  0  0  0999 V2000
    7.7839   -2.9952   23.3194 C   0  0  0  0  0  0  0  0  0  0  0  0
    8.0518   -1.9011   22.2780 C   0  0  1  0  0  0  0  0  0  0  0  0
    6.9251   -1.7914   21.2317 C   0  0  0  0  0  0  0  0  0  0  0  0
    6.9321   -0.3985   20.8335 N   0  0  0  0  0  0  0  0  0  0  0  0
    6.1421    0.1110   19.7723 C   0  0  0  0  0  0  0  0  0  0  0  0
    6.4419   -0.2210   18.4757 C   0  0  0  0  0  0  0  0  0  0  0  0
    5.7646    0.2294   17.3937 N   0  0  0  0  0  0  0  0  0  0  0  0
    4.7436    1.0222   17.5980 C   0  0  0  0  0  0  0  0  0  0  0  0
    4.2945    1.4189   18.8878 C   0  0  0  0  0  0  0  0  0  0  0  0
    3.1681    2.2693   19.0591 C   0  0  0  0  0  0  0  0  0  0  0  0
    2.7418    2.6127   20.3120 C   0  0  0  0  0  0  0  0  0  0  0  0
    3.4156    2.1109   21.4493 C   0  0  0  0  0  0  0  0  0  0  0  0
    4.5055    1.2909   21.3070 C   0  0  0  0  0  0  0  0  0  0  0  0
    4.9964    0.9398   20.0173 C   0  0  0  0  0  0  0  0  0  0  0  0
    5.0184    0.9125   22.1870 H   0  0  0  0  0  0  0  0  0  0  0  0
    3.0722    2.3901   22.4405 H   0  0  0  0  0  0  0  0  0  0  0  0
    1.8888    3.2732   20.4418 H   0  0  0  0  0  0  0  0  0  0  0  0
    2.6605    2.6397   18.1716 H   0  0  0  0  0  0  0  0  0  0  0  0
    4.2165    1.3855   16.7152 H   0  0  0  0  0  0  0  0  0  0  0  0
    7.2850   -0.8754   18.2596 H   0  0  0  0  0  0  0  0  0  0  0  0
    7.6416    0.4192   21.6814 C   0  0  0  0  0  0  0  0  0  0  0  0
    7.7424    1.6197   21.5523 O   0  0  0  0  0  0  0  0  0  0  0  0
    8.2476   -0.4495   22.8117 C   0  0  1  0  0  0  0  0  0  0  0  0
    7.4499   -0.1965   24.1136 C   0  0  0  0  0  0  0  0  0  0  0  0
    7.6677    1.1516   24.5905 N   0  0  0  0  0  0  0  0  0  0  0  0
    6.5370    1.8985   25.1086 C   0  0  0  0  0  0  0  0  0  0  0  0
    6.0925    1.4613   26.4814 C   0  0  0  0  0  0  0  0  0  0  0  0
    6.5716    1.9486   27.7329 C   0  0  0  0  0  0  0  0  0  0  0  0
    5.8987    1.2015   28.6351 C   0  0  0  0  0  0  0  0  0  0  0  0
    5.0681    0.3574   28.0095 O   0  0  0  0  0  0  0  0  0  0  0  0
    5.1926    0.5290   26.6477 N   0  0  0  0  0  0  0  0  0  0  0  0
    5.8984    1.1280   29.7145 H   0  0  0  0  0  0  0  0  0  0  0  0
    7.3027    2.7301   27.8721 H   0  0  0  0  0  0  0  0  0  0  0  0
    6.8345    2.9484   25.1423 H   0  0  0  0  0  0  0  0  0  0  0  0
    5.7115    1.7940   24.3909 H   0  0  0  0  0  0  0  0  0  0  0  0
    8.9416    1.5658   24.8671 C   0  0  0  0  0  0  0  0  0  0  0  0
    9.1925    2.4399   25.6893 O   0  0  0  0  0  0  0  0  0  0  0  0
   10.0043    0.8890   24.0558 C   0  0  0  0  0  0  0  0  0  0  0  0
   11.3228    1.2689   24.2813 C   0  0  0  0  0  0  0  0  0  0  0  0
   12.3409    0.8315   23.4594 C   0  0  0  0  0  0  0  0  0  0  0  0
   11.9937    0.0228   22.3829 C   0  0  0  0  0  0  0  0  0  0  0  0
   12.9493   -0.3257   21.5091 F   0  0  0  0  0  0  0  0  0  0  0  0
   10.7020   -0.4118   22.1625 C   0  0  0  0  0  0  0  0  0  0  0  0
    9.6847   -0.0252   23.0447 C   0  0  0  0  0  0  0  0  0  0  0  0
   10.5114   -1.0124   21.2793 H   0  0  0  0  0  0  0  0  0  0  0  0
   13.3763    1.1235   23.5912 H   0  0  0  0  0  0  0  0  0  0  0  0
   11.4687    1.9491   25.1022 H   0  0  0  0  0  0  0  0  0  0  0  0
    7.7540   -0.9237   24.8849 H   0  0  0  0  0  0  0  0  0  0  0  0
    6.3791   -0.3148   23.9272 H   0  0  0  0  0  0  0  0  0  0  0  0
    7.0958   -2.4151   20.3566 H   0  0  0  0  0  0  0  0  0  0  0  0
    5.9535   -2.0845   21.6574 H   0  0  0  0  0  0  0  0  0  0  0  0
    8.9775   -2.1566   21.7561 H   0  0  0  0  0  0  0  0  0  0  0  0
    6.8251   -2.8319   23.8275 H   0  0  0  0  0  0  0  0  0  0  0  0
    8.5633   -3.0326   24.0901 H   0  0  0  0  0  0  0  0  0  0  0  0
    7.7392   -3.9823   22.8445 H   0  0  0  0  0  0  0  0  0  0  0  0
  1  2  1  0
  2  3  1  0
  3  4  1  0
  4  5  1  0
  5  6  2  0
  6  7  1  0
  7  8  2  0
  8  9  1  0
  9 10  2  0
 10 11  1  0
 11 12  2  0
 12 13  1  0
 13 14  2  0
 13 15  1  0
 12 16  1  0
 11 17  1  0
 10 18  1  0
  8 19  1  0
  6 20  1  0
  4 21  1  0
 21 22  2  0
 21 23  1  0
 23 24  1  1
 24 25  1  0
 25 26  1  0
 26 27  1  0
 27 28  1  0
 28 29  2  0
 29 30  1  0
 30 31  1  0
 29 32  1  0
 28 33  1  0
 26 34  1  0
 26 35  1  0
 25 36  1  0
 36 37  2  0
 36 38  1  0
 38 39  2  0
 39 40  1  0
 40 41  2  0
 41 42  1  0
 41 43  1  0
 43 44  2  0
 43 45  1  0
 40 46  1  0
 39 47  1  0
 24 48  1  0
 24 49  1  0
  3 50  1  0
  3 51  1  0
  2 52  1  6
  1 53  1  0
  1 54  1  0
  1 55  1  0
 23  2  1  0
 31 27  2  0
 44 38  1  0
 14  5  1  0
 44 23  1  0
 14  9  1  0
M  END
>  <cnnaffinities>  (75) 
[6.59703, 6.25274, 6.59331, 6.62627]

>  <score>  (75) 
6.59703

>  <index>  (75) 
74

>  <Smiles>  (75) 
C([C@]1(C(N(c2c(nc(c3c(c(c(c(c23)[H])[H])[H])[H])[H])[H])C(=O)[C@]21C(N(C(c1c(c(on1)[H])[H])([H])[H])C(=O)c1c(c(c(F)c(c21)[H])[H])[H])([H])[H])([H])[H])[H])([H])([H])[H]

>  <h>  (75) 
<NA>

>  <Training>  (75) 
True

>  <Success>  (75) 
True

>  <enamine_searched>  (75) 
False

>  <enamine_id>  (75) 
nan

$$$$

     RDKit          3D

 70 75  0  0  0  0  0  0  0  0999 V2000
   11.3746    5.7138   26.0163 C   0  0  0  0  0  0  0  0  0  0  0  0
   11.7597    5.0772   24.8244 O   0  0  0  0  0  0  0  0  0  0  0  0
   10.7753    4.7309   23.9572 C   0  0  0  0  0  0  0  0  0  0  0  0
   11.2112    4.0744   22.8052 C   0  0  0  0  0  0  0  0  0  0  0  0
   10.2877    3.7058   21.8480 C   0  0  0  0  0  0  0  0  0  0  0  0
    8.9344    3.9577   22.0304 C   0  0  0  0  0  0  0  0  0  0  0  0
    8.4949    4.6047   23.1759 C   0  0  0  0  0  0  0  0  0  0  0  0
    7.0024    4.6764   23.4345 C   0  0  0  0  0  0  0  0  0  0  0  0
    6.5485    3.3654   23.8722 N   0  0  0  0  0  0  0  0  0  0  0  0
    6.3675    3.1176   25.1976 C   0  0  0  0  0  0  0  0  0  0  0  0
    6.1437    3.9888   26.0286 O   0  0  0  0  0  0  0  0  0  0  0  0
    6.4531    1.6364   25.5896 C   0  0  0  0  0  0  0  0  0  0  0  0
    7.5106    0.9440   24.8675 N   0  0  0  0  0  0  0  0  0  0  0  0
    7.2616   -0.2862   24.1234 C   0  0  0  0  0  0  0  0  0  0  0  0
    8.1062   -0.4008   22.8130 C   0  0  2  0  0  0  0  0  0  0  0  0
    7.4060    0.4012   21.6877 C   0  0  0  0  0  0  0  0  0  0  0  0
    7.3199    1.6108   21.6211 O   0  0  0  0  0  0  0  0  0  0  0  0
    6.8090   -0.4605   20.7984 N   0  0  0  0  0  0  0  0  0  0  0  0
    5.9964    0.0024   19.7305 C   0  0  0  0  0  0  0  0  0  0  0  0
    6.2762   -0.3612   18.4371 C   0  0  0  0  0  0  0  0  0  0  0  0
    5.6293    0.1306   17.3533 N   0  0  0  0  0  0  0  0  0  0  0  0
    4.6629    0.9922   17.5535 C   0  0  0  0  0  0  0  0  0  0  0  0
    4.2233    1.3994   18.8430 C   0  0  0  0  0  0  0  0  0  0  0  0
    3.1607    2.3248   19.0226 C   0  0  0  0  0  0  0  0  0  0  0  0
    2.7460    2.6731   20.2795 C   0  0  0  0  0  0  0  0  0  0  0  0
    3.3468    2.0789   21.4130 C   0  0  0  0  0  0  0  0  0  0  0  0
    4.3539    1.1619   21.2604 C   0  0  0  0  0  0  0  0  0  0  0  0
    4.8690    0.8517   19.9709 C   0  0  0  0  0  0  0  0  0  0  0  0
    4.7746    0.6621   22.1258 H   0  0  0  0  0  0  0  0  0  0  0  0
    3.0217    2.3584   22.4101 H   0  0  0  0  0  0  0  0  0  0  0  0
    1.9569    3.4075   20.4163 H   0  0  0  0  0  0  0  0  0  0  0  0
    2.6858    2.7465   18.1409 H   0  0  0  0  0  0  0  0  0  0  0  0
    4.1670    1.3985   16.6705 H   0  0  0  0  0  0  0  0  0  0  0  0
    7.0880   -1.0582   18.2301 H   0  0  0  0  0  0  0  0  0  0  0  0
    6.7639   -1.8092   21.3317 C   0  0  0  0  0  0  0  0  0  0  0  0
    8.0241   -1.8384   22.2035 C   0  0  2  0  0  0  0  0  0  0  0  0
    8.1295   -2.9959   23.1862 C   0  0  0  0  0  0  0  0  0  0  0  0
    7.2595   -3.0456   23.8489 H   0  0  0  0  0  0  0  0  0  0  0  0
    8.1962   -3.9557   22.6646 H   0  0  0  0  0  0  0  0  0  0  0  0
    9.0233   -2.8838   23.8113 H   0  0  0  0  0  0  0  0  0  0  0  0
    8.8633   -1.9151   21.5084 H   0  0  0  0  0  0  0  0  0  0  0  0
    6.7537   -2.5436   20.5284 H   0  0  0  0  0  0  0  0  0  0  0  0
    5.8580   -1.9745   21.9376 H   0  0  0  0  0  0  0  0  0  0  0  0
    9.5286    0.0725   23.0952 C   0  0  0  0  0  0  0  0  0  0  0  0
   10.5771   -0.1877   22.1947 C   0  0  0  0  0  0  0  0  0  0  0  0
   11.8758    0.1699   22.5112 C   0  0  0  0  0  0  0  0  0  0  0  0
   13.1668   -0.0330   21.3592 Cl  0  0  0  0  0  0  0  0  0  0  0  0
   12.1980    0.7416   23.7398 C   0  0  0  0  0  0  0  0  0  0  0  0
   11.1668    1.0726   24.5887 C   0  0  0  0  0  0  0  0  0  0  0  0
    9.8473    0.7926   24.2528 C   0  0  0  0  0  0  0  0  0  0  0  0
    8.7872    1.3646   25.1322 C   0  0  0  0  0  0  0  0  0  0  0  0
    9.0356    2.2008   25.9941 O   0  0  0  0  0  0  0  0  0  0  0  0
   11.3539    1.5928   25.5163 H   0  0  0  0  0  0  0  0  0  0  0  0
   13.2317    0.9565   23.9895 H   0  0  0  0  0  0  0  0  0  0  0  0
   10.3902   -0.6534   21.2346 H   0  0  0  0  0  0  0  0  0  0  0  0
    7.4848   -1.1438   24.7741 H   0  0  0  0  0  0  0  0  0  0  0  0
    6.1964   -0.3207   23.8673 H   0  0  0  0  0  0  0  0  0  0  0  0
    5.5058    1.1362   25.3595 H   0  0  0  0  0  0  0  0  0  0  0  0
    6.6127    1.5988   26.6739 H   0  0  0  0  0  0  0  0  0  0  0  0
    6.8544    2.5916   23.2835 H   0  0  0  0  0  0  0  0  0  0  0  0
    6.4390    4.9406   22.5297 H   0  0  0  0  0  0  0  0  0  0  0  0
    6.7533    5.3901   24.2239 H   0  0  0  0  0  0  0  0  0  0  0  0
    9.4179    4.9957   24.1474 C   0  0  0  0  0  0  0  0  0  0  0  0
    9.0599    5.4921   25.0447 H   0  0  0  0  0  0  0  0  0  0  0  0
    8.2089    3.6168   21.3011 H   0  0  0  0  0  0  0  0  0  0  0  0
   10.6383    3.2042   20.9547 H   0  0  0  0  0  0  0  0  0  0  0  0
   12.2650    3.8506   22.6770 H   0  0  0  0  0  0  0  0  0  0  0  0
   12.3006    6.0577   26.4712 H   0  0  0  0  0  0  0  0  0  0  0  0
   10.7308    6.5812   25.8278 H   0  0  0  0  0  0  0  0  0  0  0  0
   10.8621    5.0087   26.6846 H   0  0  0  0  0  0  0  0  0  0  0  0
  1  2  1  0
  2  3  1  0
  3  4  2  0
  4  5  1  0
  5  6  2  0
  6  7  1  0
  7  8  1  0
  8  9  1  0
  9 10  1  0
 10 11  2  0
 10 12  1  0
 12 13  1  0
 13 14  1  0
 15 14  1  1
 15 16  1  0
 16 17  2  0
 16 18  1  0
 18 19  1  0
 19 20  2  0
 20 21  1  0
 21 22  2  0
 22 23  1  0
 23 24  2  0
 24 25  1  0
 25 26  2  0
 26 27  1  0
 27 28  2  0
 27 29  1  0
 26 30  1  0
 25 31  1  0
 24 32  1  0
 22 33  1  0
 20 34  1  0
 18 35  1  0
 35 36  1  0
 36 37  1  0
 37 38  1  0
 37 39  1  0
 37 40  1  0
 36 41  1  6
 35 42  1  0
 35 43  1  0
 15 44  1  0
 44 45  2  0
 45 46  1  0
 46 47  1  0
 46 48  2  0
 48 49  1  0
 49 50  2  0
 50 51  1  0
 51 52  2  0
 49 53  1  0
 48 54  1  0
 45 55  1  0
 14 56  1  0
 14 57  1  0
 12 58  1  0
 12 59  1  0
  9 60  1  0
  8 61  1  0
  8 62  1  0
  7 63  2  0
 63 64  1  0
  6 65  1  0
  5 66  1  0
  4 67  1  0
  1 68  1  0
  1 69  1  0
  1 70  1  0
 63  3  1  0
 51 13  1  0
 36 15  1  0
 50 44  1  0
 28 19  1  0
 28 23  1  0
M  END
>  <cnnaffinities>  (76) 
[6.88736]

>  <score>  (76) 
6.88736

>  <index>  (76) 
75

>  <Smiles>  (76) 
C(Oc1c(c(c(c(C(N(C(=O)C(N2C([C@@]3(C(=O)N(c4c(nc(c5c(c(c(c(c45)[H])[H])[H])[H])[H])[H])C([C@@]3(C([H])([H])[H])[H])([H])[H])c3c(c(Cl)c(c(c3C2=O)[H])[H])[H])([H])[H])([H])[H])[H])([H])[H])c1[H])[H])[H])[H])([H])([H])[H]

>  <h>  (76) 
<NA>

>  <Training>  (76) 
True

>  <Success>  (76) 
True

>  <enamine_searched>  (76) 
False

>  <enamine_id>  (76) 
nan

$$$$

     RDKit          3D

 61 65  0  0  0  0  0  0  0  0999 V2000
    7.1175   -2.5010   23.4315 C   0  0  0  0  0  0  0  0  0  0  0  0
    8.0057   -1.7991   22.3926 C   0  0  1  0  0  0  0  0  0  0  0  0
    7.3077   -1.7235   21.0148 C   0  0  0  0  0  0  0  0  0  0  0  0
    6.9274   -0.3335   20.8656 N   0  0  0  0  0  0  0  0  0  0  0  0
    6.1421    0.1230   19.7845 C   0  0  0  0  0  0  0  0  0  0  0  0
    6.4446   -0.2258   18.4894 C   0  0  0  0  0  0  0  0  0  0  0  0
    5.7713    0.2190   17.4041 N   0  0  0  0  0  0  0  0  0  0  0  0
    4.7520    1.0166   17.6069 C   0  0  0  0  0  0  0  0  0  0  0  0
    4.3033    1.4227   18.8952 C   0  0  0  0  0  0  0  0  0  0  0  0
    3.1788    2.2765   19.0609 C   0  0  0  0  0  0  0  0  0  0  0  0
    2.7503    2.6215   20.3153 C   0  0  0  0  0  0  0  0  0  0  0  0
    3.4158    2.1205   21.4556 C   0  0  0  0  0  0  0  0  0  0  0  0
    4.5099    1.3016   21.3193 C   0  0  0  0  0  0  0  0  0  0  0  0
    4.9992    0.9505   20.0260 C   0  0  0  0  0  0  0  0  0  0  0  0
    5.0148    0.9204   22.1998 H   0  0  0  0  0  0  0  0  0  0  0  0
    3.0698    2.4016   22.4479 H   0  0  0  0  0  0  0  0  0  0  0  0
    1.9002    3.2880   20.4384 H   0  0  0  0  0  0  0  0  0  0  0  0
    2.6785    2.6454   18.1703 H   0  0  0  0  0  0  0  0  0  0  0  0
    4.2251    1.3764   16.7258 H   0  0  0  0  0  0  0  0  0  0  0  0
    7.2899   -0.8782   18.2751 H   0  0  0  0  0  0  0  0  0  0  0  0
    7.6130    0.5156   21.7061 C   0  0  0  0  0  0  0  0  0  0  0  0
    7.5721    1.7334   21.6497 O   0  0  0  0  0  0  0  0  0  0  0  0
    8.4260   -0.3265   22.7172 C   0  0  1  0  0  0  0  0  0  0  0  0
    8.0908    0.0984   24.1567 C   0  0  0  0  0  0  0  0  0  0  0  0
    8.5587    1.4395   24.4505 N   0  0  0  0  0  0  0  0  0  0  0  0
    7.7332    2.2571   25.3165 C   0  0  0  0  0  0  0  0  0  0  0  0
    6.7050    3.0760   24.5380 C   0  0  0  0  0  0  0  0  0  0  0  0
    7.3382    4.1385   23.6876 N   0  0  0  0  0  4  0  0  0  0  0  0
    7.8413    5.2855   24.5022 C   0  0  0  0  0  0  0  0  0  0  0  0
    8.6510    4.9704   25.1616 H   0  0  0  0  0  0  0  0  0  0  0  0
    7.0189    5.7026   25.1023 H   0  0  0  0  0  0  0  0  0  0  0  0
    8.2121    6.0711   23.8383 H   0  0  0  0  0  0  0  0  0  0  0  0
    6.3669    4.6534   22.6848 C   0  0  0  0  0  0  0  0  0  0  0  0
    6.8455    5.4214   22.0720 H   0  0  0  0  0  0  0  0  0  0  0  0
    6.0446    3.8268   22.0491 H   0  0  0  0  0  0  0  0  0  0  0  0
    5.4929    5.0910   23.1883 H   0  0  0  0  0  0  0  0  0  0  0  0
    8.1149    3.6897   23.1659 H   0  0  0  0  0  0  0  0  0  0  0  0
    6.1405    2.4227   23.8595 H   0  0  0  0  0  0  0  0  0  0  0  0
    6.0037    3.5547   25.2347 H   0  0  0  0  0  0  0  0  0  0  0  0
    8.4096    2.8986   25.8830 H   0  0  0  0  0  0  0  0  0  0  0  0
    7.2104    1.5932   26.0146 H   0  0  0  0  0  0  0  0  0  0  0  0
    9.8329    1.8353   24.1680 C   0  0  0  0  0  0  0  0  0  0  0  0
   10.3278    2.8568   24.6356 O   0  0  0  0  0  0  0  0  0  0  0  0
   10.5789    0.9530   23.2138 C   0  0  0  0  0  0  0  0  0  0  0  0
   11.9157    1.2420   22.9452 C   0  0  0  0  0  0  0  0  0  0  0  0
   12.6501    0.4418   22.0856 C   0  0  0  0  0  0  0  0  0  0  0  0
   11.9993   -0.6303   21.4731 C   0  0  0  0  0  0  0  0  0  0  0  0
   12.7260   -1.5346   20.1482 Cl  0  0  0  0  0  0  0  0  0  0  0  0
   10.6478   -0.8469   21.6296 C   0  0  0  0  0  0  0  0  0  0  0  0
    9.9183   -0.0864   22.5410 C   0  0  0  0  0  0  0  0  0  0  0  0
   10.1830   -1.5416   20.9391 H   0  0  0  0  0  0  0  0  0  0  0  0
   13.6720    0.6906   21.8252 H   0  0  0  0  0  0  0  0  0  0  0  0
   12.3345    2.1345   23.4091 H   0  0  0  0  0  0  0  0  0  0  0  0
    7.0071    0.0923   24.2960 H   0  0  0  0  0  0  0  0  0  0  0  0
    8.5625   -0.6363   24.8317 H   0  0  0  0  0  0  0  0  0  0  0  0
    6.4180   -2.3650   20.9655 H   0  0  0  0  0  0  0  0  0  0  0  0
    7.9913   -2.0116   20.2064 H   0  0  0  0  0  0  0  0  0  0  0  0
    8.9133   -2.4073   22.3109 H   0  0  0  0  0  0  0  0  0  0  0  0
    6.8938   -3.5199   23.0948 H   0  0  0  0  0  0  0  0  0  0  0  0
    7.6260   -2.5899   24.3985 H   0  0  0  0  0  0  0  0  0  0  0  0
    6.1643   -1.9767   23.5812 H   0  0  0  0  0  0  0  0  0  0  0  0
  1  2  1  0
  2  3  1  0
  3  4  1  0
  4  5  1  0
  5  6  2  0
  6  7  1  0
  7  8  2  0
  8  9  1  0
  9 10  2  0
 10 11  1  0
 11 12  2  0
 12 13  1  0
 13 14  2  0
 13 15  1  0
 12 16  1  0
 11 17  1  0
 10 18  1  0
  8 19  1  0
  6 20  1  0
  4 21  1  0
 21 22  2  0
 21 23  1  0
 23 24  1  1
 24 25  1  0
 25 26  1  0
 26 27  1  0
 27 28  1  0
 28 29  1  0
 29 30  1  0
 29 31  1  0
 29 32  1  0
 28 33  1  0
 33 34  1  0
 33 35  1  0
 33 36  1  0
 28 37  1  0
 27 38  1  0
 27 39  1  0
 26 40  1  0
 26 41  1  0
 25 42  1  0
 42 43  2  0
 42 44  1  0
 44 45  2  0
 45 46  1  0
 46 47  2  0
 47 48  1  0
 47 49  1  0
 49 50  2  0
 49 51  1  0
 46 52  1  0
 45 53  1  0
 24 54  1  0
 24 55  1  0
  3 56  1  0
  3 57  1  0
  2 58  1  6
  1 59  1  0
  1 60  1  0
  1 61  1  0
 23  2  1  0
 50 44  1  0
 14  5  1  0
 50 23  1  0
 14  9  1  0
M  CHG  1  28   1
M  END
>  <cnnaffinities>  (77) 
[6.61637, 6.64346]

>  <score>  (77) 
6.61637

>  <index>  (77) 
76

>  <Smiles>  (77) 
C([C@]1(C(N(c2c(nc(c3c(c(c(c(c23)[H])[H])[H])[H])[H])[H])C(=O)[C@]21C(N(C(C([N+](C([H])([H])[H])(C([H])([H])[H])[H])([H])[H])([H])[H])C(=O)c1c(c(c(Cl)c(c21)[H])[H])[H])([H])[H])([H])[H])[H])([H])([H])[H]

>  <h>  (77) 
<NA>

>  <Training>  (77) 
True

>  <Success>  (77) 
True

>  <enamine_searched>  (77) 
False

>  <enamine_id>  (77) 
nan

$$$$

     RDKit          3D

 57 60  0  0  0  0  0  0  0  0999 V2000
    3.7417   -7.7325   24.5203 C   0  0  0  0  0  0  0  0  0  0  0  0
    3.8233   -6.4721   25.4009 C   0  0  0  0  0  0  0  0  0  0  0  0
    4.5425   -6.8223   26.7232 C   0  0  0  0  0  0  0  0  0  0  0  0
    4.0219   -7.6408   27.2293 H   0  0  0  0  0  0  0  0  0  0  0  0
    5.5682   -7.1397   26.5135 H   0  0  0  0  0  0  0  0  0  0  0  0
    4.5822   -5.9612   27.3978 H   0  0  0  0  0  0  0  0  0  0  0  0
    2.4287   -6.0925   25.7366 C   0  0  0  0  0  0  0  0  0  0  0  0
    1.3346   -5.8317   26.0078 N   0  0  0  0  0  0  0  0  0  0  0  0
    4.5032   -5.2853   24.7059 C   0  0  0  0  0  0  0  0  0  0  0  0
    5.2886   -5.4360   23.5641 C   0  0  0  0  0  0  0  0  0  0  0  0
    5.9018   -4.3472   22.9616 C   0  0  0  0  0  0  0  0  0  0  0  0
    5.7570   -3.0769   23.5112 C   0  0  0  0  0  0  0  0  0  0  0  0
    6.3922   -1.9561   22.9006 N   0  0  0  0  0  0  0  0  0  0  0  0
    7.3255   -1.1651   23.6980 C   0  0  0  0  0  0  0  0  0  0  0  0
    8.7892   -1.3602   23.3337 C   0  0  0  0  0  0  0  0  0  0  0  0
    9.3574   -2.6117   23.5666 C   0  0  0  0  0  0  0  0  0  0  0  0
   10.7092   -2.8246   23.3510 C   0  0  0  0  0  0  0  0  0  0  0  0
   11.4971   -1.8301   22.7873 C   0  0  0  0  0  0  0  0  0  0  0  0
   10.9335   -0.5786   22.5664 C   0  0  0  0  0  0  0  0  0  0  0  0
   11.9270    0.6896   21.9053 Cl  0  0  0  0  0  0  0  0  0  0  0  0
    9.5984   -0.3210   22.8676 C   0  0  0  0  0  0  0  0  0  0  0  0
    9.1998    0.6783   22.6891 H   0  0  0  0  0  0  0  0  0  0  0  0
   12.5342   -2.0067   22.5278 H   0  0  0  0  0  0  0  0  0  0  0  0
   11.1474   -3.7707   23.6655 H   0  0  0  0  0  0  0  0  0  0  0  0
    8.7427   -3.4285   23.9431 H   0  0  0  0  0  0  0  0  0  0  0  0
    7.0532   -0.1026   23.6840 H   0  0  0  0  0  0  0  0  0  0  0  0
    7.1838   -1.5046   24.7267 H   0  0  0  0  0  0  0  0  0  0  0  0
    6.1060   -1.7083   21.5698 C   0  0  0  0  0  0  0  0  0  0  0  0
    5.3090   -2.3880   20.9470 O   0  0  0  0  0  0  0  0  0  0  0  0
    6.8369   -0.5362   20.9068 C   0  0  0  0  0  0  0  0  0  0  0  0
    6.0726    0.0630   19.7647 C   0  0  0  0  0  0  0  0  0  0  0  0
    6.4065   -0.2246   18.4691 C   0  0  0  0  0  0  0  0  0  0  0  0
    5.7616    0.2470   17.3700 N   0  0  0  0  0  0  0  0  0  0  0  0
    4.7355    1.0318   17.5748 C   0  0  0  0  0  0  0  0  0  0  0  0
    4.2728    1.4209   18.8616 C   0  0  0  0  0  0  0  0  0  0  0  0
    3.1579    2.2789   19.0335 C   0  0  0  0  0  0  0  0  0  0  0  0
    2.7412    2.6361   20.2860 C   0  0  0  0  0  0  0  0  0  0  0  0
    3.4231    2.1476   21.4241 C   0  0  0  0  0  0  0  0  0  0  0  0
    4.5025    1.3140   21.2842 C   0  0  0  0  0  0  0  0  0  0  0  0
    4.9599    0.9250   19.9962 C   0  0  0  0  0  0  0  0  0  0  0  0
    5.0095    0.9478   22.1728 H   0  0  0  0  0  0  0  0  0  0  0  0
    3.0901    2.4422   22.4152 H   0  0  0  0  0  0  0  0  0  0  0  0
    1.8912    3.2990   20.4159 H   0  0  0  0  0  0  0  0  0  0  0  0
    2.6484    2.6472   18.1461 H   0  0  0  0  0  0  0  0  0  0  0  0
    4.2112    1.4023   16.6923 H   0  0  0  0  0  0  0  0  0  0  0  0
    7.2567   -0.8743   18.2588 H   0  0  0  0  0  0  0  0  0  0  0  0
    7.7961   -0.9262   20.5396 H   0  0  0  0  0  0  0  0  0  0  0  0
    7.0595    0.2349   21.6486 H   0  0  0  0  0  0  0  0  0  0  0  0
    5.0213   -2.9180   24.6853 C   0  0  0  0  0  0  0  0  0  0  0  0
    4.3882   -4.0093   25.2620 C   0  0  0  0  0  0  0  0  0  0  0  0
    3.8088   -3.8638   26.1700 H   0  0  0  0  0  0  0  0  0  0  0  0
    4.9234   -1.9314   25.1325 H   0  0  0  0  0  0  0  0  0  0  0  0
    6.4828   -4.4776   22.0541 H   0  0  0  0  0  0  0  0  0  0  0  0
    5.4247   -6.4144   23.1148 H   0  0  0  0  0  0  0  0  0  0  0  0
    4.7406   -8.1399   24.3368 H   0  0  0  0  0  0  0  0  0  0  0  0
    3.2657   -7.5144   23.5594 H   0  0  0  0  0  0  0  0  0  0  0  0
    3.1535   -8.4994   25.0323 H   0  0  0  0  0  0  0  0  0  0  0  0
  1  2  1  0
  2  3  1  0
  3  4  1  0
  3  5  1  0
  3  6  1  0
  2  7  1  0
  7  8  3  0
  2  9  1  0
  9 10  2  0
 10 11  1  0
 11 12  2  0
 12 13  1  0
 13 14  1  0
 14 15  1  0
 15 16  2  0
 16 17  1  0
 17 18  2  0
 18 19  1  0
 19 20  1  0
 19 21  2  0
 21 22  1  0
 18 23  1  0
 17 24  1  0
 16 25  1  0
 14 26  1  0
 14 27  1  0
 13 28  1  0
 28 29  2  0
 28 30  1  0
 30 31  1  0
 31 32  2  0
 32 33  1  0
 33 34  2  0
 34 35  1  0
 35 36  2  0
 36 37  1  0
 37 38  2  0
 38 39  1  0
 39 40  2  0
 39 41  1  0
 38 42  1  0
 37 43  1  0
 36 44  1  0
 34 45  1  0
 32 46  1  0
 30 47  1  0
 30 48  1  0
 12 49  1  0
 49 50  2  0
 50 51  1  0
 49 52  1  0
 11 53  1  0
 10 54  1  0
  1 55  1  0
  1 56  1  0
  1 57  1  0
 50  9  1  0
 21 15  1  0
 40 31  1  0
 40 35  1  0
M  END
>  <cnnaffinities>  (78) 
[6.69092, 6.71063, 6.61246, 6.68658, 6.40782, 6.8167, 6.71216, 6.37963, 6.3373]

>  <score>  (78) 
6.69092

>  <index>  (78) 
77

>  <Smiles>  (78) 
C(C(C([H])([H])[H])(C#N)c1c(c(c(N(C(c2c(c(c(c(Cl)c2[H])[H])[H])[H])([H])[H])C(=O)C(c2c(nc(c3c(c(c(c(c23)[H])[H])[H])[H])[H])[H])([H])[H])c(c1[H])[H])[H])[H])([H])([H])[H]

>  <h>  (78) 
<NA>

>  <Training>  (78) 
True

>  <Success>  (78) 
True

>  <enamine_searched>  (78) 
False

>  <enamine_id>  (78) 
nan

$$$$

     RDKit          3D

 40 42  0  0  0  0  0  0  0  0999 V2000
    9.7767   -3.8244   24.7472 C   0  0  0  0  0  0  0  0  0  0  0  0
    8.2695   -3.6037   24.8966 C   0  0  0  0  0  0  0  0  0  0  0  0
    7.9084   -2.1151   24.9635 C   0  0  0  0  0  0  0  0  0  0  0  0
    7.7162   -1.4596   23.5969 C   0  0  0  0  0  0  0  0  0  0  0  0
    6.7472   -2.1833   22.7777 N   0  0  0  0  0  0  0  0  0  0  0  0
    6.2069   -1.6861   21.6114 C   0  0  0  0  0  0  0  0  0  0  0  0
    5.2169   -2.1870   21.1046 O   0  0  0  0  0  0  0  0  0  0  0  0
    6.9172   -0.4917   20.9201 C   0  0  0  0  0  0  0  0  0  0  0  0
    6.1128    0.0846   19.7764 C   0  0  0  0  0  0  0  0  0  0  0  0
    6.4217   -0.2153   18.4757 C   0  0  0  0  0  0  0  0  0  0  0  0
    5.7581    0.2418   17.3797 N   0  0  0  0  0  0  0  0  0  0  0  0
    4.7341    1.0298   17.5818 C   0  0  0  0  0  0  0  0  0  0  0  0
    4.2850    1.4212   18.8696 C   0  0  0  0  0  0  0  0  0  0  0  0
    3.1654    2.2739   19.0455 C   0  0  0  0  0  0  0  0  0  0  0  0
    2.7491    2.6257   20.3003 C   0  0  0  0  0  0  0  0  0  0  0  0
    3.4379    2.1367   21.4321 C   0  0  0  0  0  0  0  0  0  0  0  0
    4.5270    1.3128   21.2876 C   0  0  0  0  0  0  0  0  0  0  0  0
    4.9872    0.9330   20.0007 C   0  0  0  0  0  0  0  0  0  0  0  0
    5.0425    0.9421   22.1672 H   0  0  0  0  0  0  0  0  0  0  0  0
    3.1032    2.4215   22.4250 H   0  0  0  0  0  0  0  0  0  0  0  0
    1.8928    3.2823   20.4365 H   0  0  0  0  0  0  0  0  0  0  0  0
    2.6462    2.6427   18.1638 H   0  0  0  0  0  0  0  0  0  0  0  0
    4.2019    1.3966   16.7000 H   0  0  0  0  0  0  0  0  0  0  0  0
    7.2640   -0.8671   18.2450 H   0  0  0  0  0  0  0  0  0  0  0  0
    7.8758   -0.8564   20.5195 H   0  0  0  0  0  0  0  0  0  0  0  0
    7.1752    0.3013   21.6354 H   0  0  0  0  0  0  0  0  0  0  0  0
    6.3026   -3.4921   23.2627 C   0  0  0  0  0  0  0  0  0  0  0  0
    7.4892   -4.3049   23.7697 C   0  0  0  0  0  0  0  0  0  0  0  0
    7.1508   -5.2876   24.1108 H   0  0  0  0  0  0  0  0  0  0  0  0
    8.1488   -4.4984   22.9195 H   0  0  0  0  0  0  0  0  0  0  0  0
    5.8073   -4.0062   22.4412 H   0  0  0  0  0  0  0  0  0  0  0  0
    5.5537   -3.3782   24.0571 H   0  0  0  0  0  0  0  0  0  0  0  0
    7.3685   -0.4351   23.7653 H   0  0  0  0  0  0  0  0  0  0  0  0
    8.6803   -1.3810   23.0791 H   0  0  0  0  0  0  0  0  0  0  0  0
    8.6958   -1.5795   25.5009 H   0  0  0  0  0  0  0  0  0  0  0  0
    7.0051   -1.9734   25.5665 H   0  0  0  0  0  0  0  0  0  0  0  0
    7.9733   -4.0488   25.8537 H   0  0  0  0  0  0  0  0  0  0  0  0
   10.1591   -3.3621   23.8293 H   0  0  0  0  0  0  0  0  0  0  0  0
   10.0167   -4.8911   24.7091 H   0  0  0  0  0  0  0  0  0  0  0  0
   10.3310   -3.3961   25.5891 H   0  0  0  0  0  0  0  0  0  0  0  0
  1  2  1  0
  2  3  1  0
  3  4  1  0
  4  5  1  0
  5  6  1  0
  6  7  2  0
  6  8  1  0
  8  9  1  0
  9 10  2  0
 10 11  1  0
 11 12  2  0
 12 13  1  0
 13 14  2  0
 14 15  1  0
 15 16  2  0
 16 17  1  0
 17 18  2  0
 17 19  1  0
 16 20  1  0
 15 21  1  0
 14 22  1  0
 12 23  1  0
 10 24  1  0
  8 25  1  0
  8 26  1  0
  5 27  1  0
 27 28  1  0
 28 29  1  0
 28 30  1  0
 27 31  1  0
 27 32  1  0
  4 33  1  0
  4 34  1  0
  3 35  1  0
  3 36  1  0
  2 37  1  0
  1 38  1  0
  1 39  1  0
  1 40  1  0
 28  2  1  0
 18  9  1  0
 18 13  1  0
M  END
>  <cnnaffinities>  (79) 
[5.28445, 5.63859, 5.63824, 5.35762, 5.35754, 5.28701]

>  <score>  (79) 
5.28445

>  <index>  (79) 
79

>  <Smiles>  (79) 
C(C1(C(C(N(C(=O)C(c2c(nc(c3c(c(c(c(c23)[H])[H])[H])[H])[H])[H])([H])[H])C(C1([H])[H])([H])[H])([H])[H])([H])[H])[H])([H])([H])[H]

>  <h>  (79) 
<NA>

>  <Training>  (79) 
True

>  <Success>  (79) 
True

>  <enamine_searched>  (79) 
False

>  <enamine_id>  (79) 
nan

$$$$

     RDKit          3D

 59 64  0  0  0  0  0  0  0  0999 V2000
    7.7124   -2.9329   23.3984 C   0  0  0  0  0  0  0  0  0  0  0  0
    8.0088   -1.8741   22.3295 C   0  0  1  0  0  0  0  0  0  0  0  0
    6.8928   -1.7708   21.2722 C   0  0  0  0  0  0  0  0  0  0  0  0
    6.9415   -0.3911   20.8318 N   0  0  0  0  0  0  0  0  0  0  0  0
    6.1458    0.1150   19.7721 C   0  0  0  0  0  0  0  0  0  0  0  0
    6.4430   -0.2210   18.4762 C   0  0  0  0  0  0  0  0  0  0  0  0
    5.7637    0.2279   17.3951 N   0  0  0  0  0  0  0  0  0  0  0  0
    4.7433    1.0217   17.6004 C   0  0  0  0  0  0  0  0  0  0  0  0
    4.2967    1.4200   18.8911 C   0  0  0  0  0  0  0  0  0  0  0  0
    3.1706    2.2708   19.0633 C   0  0  0  0  0  0  0  0  0  0  0  0
    2.7456    2.6156   20.3166 C   0  0  0  0  0  0  0  0  0  0  0  0
    3.4206    2.1134   21.4538 C   0  0  0  0  0  0  0  0  0  0  0  0
    4.5094    1.2914   21.3121 C   0  0  0  0  0  0  0  0  0  0  0  0
    5.0002    0.9416   20.0206 C   0  0  0  0  0  0  0  0  0  0  0  0
    5.0160    0.9028   22.1911 H   0  0  0  0  0  0  0  0  0  0  0  0
    3.0787    2.3972   22.4462 H   0  0  0  0  0  0  0  0  0  0  0  0
    1.8931    3.2775   20.4439 H   0  0  0  0  0  0  0  0  0  0  0  0
    2.6622    2.6413   18.1760 H   0  0  0  0  0  0  0  0  0  0  0  0
    4.2158    1.3848   16.7169 H   0  0  0  0  0  0  0  0  0  0  0  0
    7.2861   -0.8759   18.2611 H   0  0  0  0  0  0  0  0  0  0  0  0
    7.6555    0.4342   21.6670 C   0  0  0  0  0  0  0  0  0  0  0  0
    7.7715    1.6327   21.5106 O   0  0  0  0  0  0  0  0  0  0  0  0
    8.2374   -0.4098   22.8249 C   0  0  1  0  0  0  0  0  0  0  0  0
    7.4417   -0.1028   24.1205 C   0  0  0  0  0  0  0  0  0  0  0  0
    7.6967    1.2362   24.6158 N   0  0  0  0  0  0  0  0  0  0  0  0
    6.5707    2.1274   24.8548 C   0  0  0  0  0  0  0  0  0  0  0  0
    5.5520    1.5724   25.8017 C   0  0  0  0  0  0  0  0  0  0  0  0
    4.2813    1.0870   25.5670 C   0  0  0  0  0  0  0  0  0  0  0  0
    3.8411    0.6126   26.8167 C   0  0  0  0  0  0  0  0  0  0  0  0
    4.7612    0.7990   27.7552 N   0  0  0  0  0  0  0  0  0  0  0  0
    5.7899    1.3862   27.1245 N   0  0  0  0  0  0  0  0  0  0  0  0
    6.9975    1.7033   27.8571 C   0  0  0  0  0  0  0  0  0  0  0  0
    7.3182    2.7277   27.6408 H   0  0  0  0  0  0  0  0  0  0  0  0
    6.7614    1.6032   28.9183 H   0  0  0  0  0  0  0  0  0  0  0  0
    7.8094    1.0168   27.5935 H   0  0  0  0  0  0  0  0  0  0  0  0
    2.9084    0.1271   27.0805 H   0  0  0  0  0  0  0  0  0  0  0  0
    3.7898    1.0492   24.6028 H   0  0  0  0  0  0  0  0  0  0  0  0
    6.0682    2.3156   23.8949 H   0  0  0  0  0  0  0  0  0  0  0  0
    6.9915    3.0722   25.2112 H   0  0  0  0  0  0  0  0  0  0  0  0
    8.9738    1.6591   24.8202 C   0  0  0  0  0  0  0  0  0  0  0  0
    9.2617    2.5879   25.5719 O   0  0  0  0  0  0  0  0  0  0  0  0
   10.0182    0.9210   24.0374 C   0  0  0  0  0  0  0  0  0  0  0  0
   11.3412    1.2795   24.2601 C   0  0  0  0  0  0  0  0  0  0  0  0
   12.3566    0.7866   23.4688 C   0  0  0  0  0  0  0  0  0  0  0  0
   11.9944   -0.0426   22.4139 C   0  0  0  0  0  0  0  0  0  0  0  0
   12.9380   -0.4132   21.5382 F   0  0  0  0  0  0  0  0  0  0  0  0
   10.6977   -0.4638   22.2009 C   0  0  0  0  0  0  0  0  0  0  0  0
    9.6824   -0.0194   23.0557 C   0  0  0  0  0  0  0  0  0  0  0  0
   10.5067   -1.0971   21.3409 H   0  0  0  0  0  0  0  0  0  0  0  0
   13.3980    1.0553   23.6017 H   0  0  0  0  0  0  0  0  0  0  0  0
   11.4872    1.9963   25.0469 H   0  0  0  0  0  0  0  0  0  0  0  0
    6.3726   -0.1888   23.9190 H   0  0  0  0  0  0  0  0  0  0  0  0
    7.7191   -0.8317   24.8964 H   0  0  0  0  0  0  0  0  0  0  0  0
    5.9125   -2.0258   21.7013 H   0  0  0  0  0  0  0  0  0  0  0  0
    7.0509   -2.4319   20.4209 H   0  0  0  0  0  0  0  0  0  0  0  0
    8.9302   -2.1658   21.8197 H   0  0  0  0  0  0  0  0  0  0  0  0
    8.4854   -2.9643   24.1754 H   0  0  0  0  0  0  0  0  0  0  0  0
    7.6495   -3.9322   22.9529 H   0  0  0  0  0  0  0  0  0  0  0  0
    6.7543   -2.7381   23.8954 H   0  0  0  0  0  0  0  0  0  0  0  0
  1  2  1  0
  2  3  1  0
  3  4  1  0
  4  5  1  0
  5  6  2  0
  6  7  1  0
  7  8  2  0
  8  9  1  0
  9 10  2  0
 10 11  1  0
 11 12  2  0
 12 13  1  0
 13 14  2  0
 13 15  1  0
 12 16  1  0
 11 17  1  0
 10 18  1  0
  8 19  1  0
  6 20  1  0
  4 21  1  0
 21 22  2  0
 21 23  1  0
 23 24  1  1
 24 25  1  0
 25 26  1  0
 26 27  1  0
 27 28  2  0
 28 29  1  0
 29 30  2  0
 30 31  1  0
 31 32  1  0
 32 33  1  0
 32 34  1  0
 32 35  1  0
 29 36  1  0
 28 37  1  0
 26 38  1  0
 26 39  1  0
 25 40  1  0
 40 41  2  0
 40 42  1  0
 42 43  2  0
 43 44  1  0
 44 45  2  0
 45 46  1  0
 45 47  1  0
 47 48  2  0
 47 49  1  0
 44 50  1  0
 43 51  1  0
 24 52  1  0
 24 53  1  0
  3 54  1  0
  3 55  1  0
  2 56  1  6
  1 57  1  0
  1 58  1  0
  1 59  1  0
 23  2  1  0
 31 27  1  0
 48 42  1  0
 14  5  1  0
 48 23  1  0
 14  9  1  0
M  END
>  <cnnaffinities>  (80) 
[6.61368, 6.71007, 6.63362]

>  <score>  (80) 
6.61368

>  <index>  (80) 
80

>  <Smiles>  (80) 
C([C@]1(C(N(c2c(nc(c3c(c(c(c(c23)[H])[H])[H])[H])[H])[H])C(=O)[C@]21C(N(C(c1c(c(nn1C([H])([H])[H])[H])[H])([H])[H])C(=O)c1c(c(c(F)c(c21)[H])[H])[H])([H])[H])([H])[H])[H])([H])([H])[H]

>  <h>  (80) 
<NA>

>  <Training>  (80) 
True

>  <Success>  (80) 
True

>  <enamine_searched>  (80) 
False

>  <enamine_id>  (80) 
nan

$$$$

     RDKit          3D

 58 63  0  0  0  0  0  0  0  0999 V2000
    5.4634    4.9487   21.4191 C   0  0  0  0  0  0  0  0  0  0  0  0
    6.4452    4.5446   22.4695 C   0  0  0  0  0  0  0  0  0  0  0  0
    6.3498    3.5872   23.3410 N   0  0  0  0  0  0  0  0  0  0  0  0
    7.5855    3.5746   23.9907 C   0  0  0  0  0  0  0  0  0  0  0  0
    7.9680    2.5269   24.9935 C   0  0  0  0  0  0  0  0  0  0  0  0
    8.7147    1.4126   24.4157 N   0  0  0  0  0  0  0  0  0  0  0  0
    8.0576    0.1466   24.1616 C   0  0  0  0  0  0  0  0  0  0  0  0
    8.3537   -0.4115   22.7485 C   0  0  2  0  0  0  0  0  0  0  0  0
    7.6812    0.4407   21.6350 C   0  0  0  0  0  0  0  0  0  0  0  0
    7.8480    1.6186   21.4155 O   0  0  0  0  0  0  0  0  0  0  0  0
    6.8751   -0.3814   20.8778 N   0  0  0  0  0  0  0  0  0  0  0  0
    6.1261    0.1076   19.7793 C   0  0  0  0  0  0  0  0  0  0  0  0
    6.4430   -0.2256   18.4855 C   0  0  0  0  0  0  0  0  0  0  0  0
    5.7706    0.2263   17.4006 N   0  0  0  0  0  0  0  0  0  0  0  0
    4.7479    1.0200   17.5996 C   0  0  0  0  0  0  0  0  0  0  0  0
    4.2915    1.4231   18.8851 C   0  0  0  0  0  0  0  0  0  0  0  0
    3.1624    2.2705   19.0608 C   0  0  0  0  0  0  0  0  0  0  0  0
    2.7327    2.6076   20.3162 C   0  0  0  0  0  0  0  0  0  0  0  0
    3.4132    2.1128   21.4513 C   0  0  0  0  0  0  0  0  0  0  0  0
    4.5106    1.3034   21.3060 C   0  0  0  0  0  0  0  0  0  0  0  0
    4.9920    0.9485   20.0149 C   0  0  0  0  0  0  0  0  0  0  0  0
    5.0220    0.9260   22.1840 H   0  0  0  0  0  0  0  0  0  0  0  0
    3.0797    2.3912   22.4481 H   0  0  0  0  0  0  0  0  0  0  0  0
    1.8745    3.2614   20.4452 H   0  0  0  0  0  0  0  0  0  0  0  0
    2.6560    2.6396   18.1749 H   0  0  0  0  0  0  0  0  0  0  0  0
    4.2241    1.3808   16.7156 H   0  0  0  0  0  0  0  0  0  0  0  0
    7.2882   -0.8749   18.2605 H   0  0  0  0  0  0  0  0  0  0  0  0
    7.0645   -1.7890   21.1444 C   0  0  0  0  0  0  0  0  0  0  0  0
    7.7426   -1.8409   22.5335 C   0  0  2  0  0  0  0  0  0  0  0  0
    6.7483   -2.3347   23.6002 C   0  0  0  0  0  0  0  0  0  0  0  0
    7.2136   -2.4129   24.5879 H   0  0  0  0  0  0  0  0  0  0  0  0
    5.8762   -1.6746   23.6825 H   0  0  0  0  0  0  0  0  0  0  0  0
    6.3836   -3.3346   23.3349 H   0  0  0  0  0  0  0  0  0  0  0  0
    8.5643   -2.5667   22.5194 H   0  0  0  0  0  0  0  0  0  0  0  0
    6.0955   -2.3030   21.1328 H   0  0  0  0  0  0  0  0  0  0  0  0
    7.7077   -2.2358   20.3820 H   0  0  0  0  0  0  0  0  0  0  0  0
    9.8629   -0.3527   22.5425 C   0  0  0  0  0  0  0  0  0  0  0  0
   10.4648   -1.1751   21.5841 C   0  0  0  0  0  0  0  0  0  0  0  0
   11.8212   -1.0734   21.3644 C   0  0  0  0  0  0  0  0  0  0  0  0
   12.3758   -1.8432   20.4123 F   0  0  0  0  0  0  0  0  0  0  0  0
   12.6176   -0.1508   22.0306 C   0  0  0  0  0  0  0  0  0  0  0  0
   12.0178    0.6972   22.9401 C   0  0  0  0  0  0  0  0  0  0  0  0
   10.6486    0.6089   23.1938 C   0  0  0  0  0  0  0  0  0  0  0  0
   10.0350    1.6156   24.1240 C   0  0  0  0  0  0  0  0  0  0  0  0
   10.6551    2.5737   24.5679 O   0  0  0  0  0  0  0  0  0  0  0  0
   12.5828    1.4599   23.4641 H   0  0  0  0  0  0  0  0  0  0  0  0
   13.6709   -0.0916   21.7870 H   0  0  0  0  0  0  0  0  0  0  0  0
    9.9076   -1.8593   20.9527 H   0  0  0  0  0  0  0  0  0  0  0  0
    6.9849    0.3215   24.2558 H   0  0  0  0  0  0  0  0  0  0  0  0
    8.3762   -0.6065   24.9013 H   0  0  0  0  0  0  0  0  0  0  0  0
    7.0594    2.1272   25.4546 H   0  0  0  0  0  0  0  0  0  0  0  0
    8.6028    2.9748   25.7639 H   0  0  0  0  0  0  0  0  0  0  0  0
    8.3347    4.5874   23.5088 C   0  0  0  0  0  0  0  0  0  0  0  0
    7.6242    5.2173   22.5300 O   0  0  0  0  0  0  0  0  0  0  0  0
    9.3147    4.9747   23.7408 H   0  0  0  0  0  0  0  0  0  0  0  0
    5.6743    5.9519   21.0402 H   0  0  0  0  0  0  0  0  0  0  0  0
    4.4576    4.9171   21.8402 H   0  0  0  0  0  0  0  0  0  0  0  0
    5.4774    4.2348   20.5869 H   0  0  0  0  0  0  0  0  0  0  0  0
  1  2  1  0
  2  3  2  0
  3  4  1  0
  4  5  1  0
  5  6  1  0
  6  7  1  0
  8  7  1  1
  8  9  1  0
  9 10  2  0
  9 11  1  0
 11 12  1  0
 12 13  2  0
 13 14  1  0
 14 15  2  0
 15 16  1  0
 16 17  2  0
 17 18  1  0
 18 19  2  0
 19 20  1  0
 20 21  2  0
 20 22  1  0
 19 23  1  0
 18 24  1  0
 17 25  1  0
 15 26  1  0
 13 27  1  0
 11 28  1  0
 28 29  1  0
 29 30  1  0
 30 31  1  0
 30 32  1  0
 30 33  1  0
 29 34  1  6
 28 35  1  0
 28 36  1  0
  8 37  1  0
 37 38  2  0
 38 39  1  0
 39 40  1  0
 39 41  2  0
 41 42  1  0
 42 43  2  0
 43 44  1  0
 44 45  2  0
 42 46  1  0
 41 47  1  0
 38 48  1  0
  7 49  1  0
  7 50  1  0
  5 51  1  0
  5 52  1  0
  4 53  2  0
 53 54  1  0
 53 55  1  0
  1 56  1  0
  1 57  1  0
  1 58  1  0
 54  2  1  0
 44  6  1  0
 29  8  1  0
 43 37  1  0
 21 12  1  0
 21 16  1  0
M  END
>  <cnnaffinities>  (81) 
[6.47786]

>  <score>  (81) 
6.47786

>  <index>  (81) 
81

>  <Smiles>  (81) 
C(c1nc(C(N2C([C@@]3(C(=O)N(c4c(nc(c5c(c(c(c(c45)[H])[H])[H])[H])[H])[H])C([C@@]3(C([H])([H])[H])[H])([H])[H])c3c(c(F)c(c(c3C2=O)[H])[H])[H])([H])[H])([H])[H])c(o1)[H])([H])([H])[H]

>  <h>  (81) 
<NA>

>  <Training>  (81) 
True

>  <Success>  (81) 
True

>  <enamine_searched>  (81) 
False

>  <enamine_id>  (81) 
nan

$$$$

     RDKit          3D

 55 60  0  0  0  0  0  0  0  0999 V2000
    7.5443   -2.8599   23.5169 C   0  0  0  0  0  0  0  0  0  0  0  0
    7.9146   -1.9026   22.3759 C   0  0  1  0  0  0  0  0  0  0  0  0
    6.7781   -1.7569   21.3411 C   0  0  0  0  0  0  0  0  0  0  0  0
    6.9274   -0.4091   20.8315 N   0  0  0  0  0  0  0  0  0  0  0  0
    6.1391    0.1079   19.7677 C   0  0  0  0  0  0  0  0  0  0  0  0
    6.4427   -0.2206   18.4725 C   0  0  0  0  0  0  0  0  0  0  0  0
    5.7647    0.2294   17.3891 N   0  0  0  0  0  0  0  0  0  0  0  0
    4.7431    1.0223   17.5924 C   0  0  0  0  0  0  0  0  0  0  0  0
    4.2918    1.4199   18.8809 C   0  0  0  0  0  0  0  0  0  0  0  0
    3.1645    2.2688   19.0573 C   0  0  0  0  0  0  0  0  0  0  0  0
    2.7382    2.6058   20.3115 C   0  0  0  0  0  0  0  0  0  0  0  0
    3.4112    2.0986   21.4462 C   0  0  0  0  0  0  0  0  0  0  0  0
    4.5068    1.2827   21.2988 C   0  0  0  0  0  0  0  0  0  0  0  0
    4.9937    0.9374   20.0102 C   0  0  0  0  0  0  0  0  0  0  0  0
    5.0268    0.9070   22.1755 H   0  0  0  0  0  0  0  0  0  0  0  0
    3.0832    2.3851   22.4406 H   0  0  0  0  0  0  0  0  0  0  0  0
    1.8864    3.2689   20.4424 H   0  0  0  0  0  0  0  0  0  0  0  0
    2.6563    2.6429   18.1724 H   0  0  0  0  0  0  0  0  0  0  0  0
    4.2164    1.3846   16.7096 H   0  0  0  0  0  0  0  0  0  0  0  0
    7.2845   -0.8769   18.2590 H   0  0  0  0  0  0  0  0  0  0  0  0
    7.7326    0.4008   21.6020 C   0  0  0  0  0  0  0  0  0  0  0  0
    7.9347    1.5728   21.3788 O   0  0  0  0  0  0  0  0  0  0  0  0
    8.3118   -0.4398   22.7741 C   0  0  1  0  0  0  0  0  0  0  0  0
    7.6611    0.0001   24.1064 C   0  0  0  0  0  0  0  0  0  0  0  0
    8.1094    1.3175   24.5219 N   0  0  0  0  0  0  0  0  0  0  0  0
    7.1525    2.3226   24.9265 C   0  0  0  0  0  0  0  0  0  0  0  0
    6.8870    3.3432   23.8548 C   0  0  0  0  0  0  0  0  0  0  0  0
    5.7346    3.6353   23.3477 N   0  0  0  0  0  0  0  0  0  0  0  0
    6.0181    4.6104   22.3970 C   0  0  0  0  0  0  0  0  0  0  0  0
    7.3423    4.8723   22.4250 C   0  0  0  0  0  0  0  0  0  0  0  0
    7.9113    4.0594   23.3618 O   0  0  0  0  0  0  0  0  0  0  0  0
    8.0059    5.5512   21.9148 H   0  0  0  0  0  0  0  0  0  0  0  0
    5.2512    5.0251   21.7557 H   0  0  0  0  0  0  0  0  0  0  0  0
    6.2009    1.8381   25.1472 H   0  0  0  0  0  0  0  0  0  0  0  0
    7.5269    2.8089   25.8311 H   0  0  0  0  0  0  0  0  0  0  0  0
    9.4451    1.6138   24.6171 C   0  0  0  0  0  0  0  0  0  0  0  0
    9.8664    2.5384   25.2970 O   0  0  0  0  0  0  0  0  0  0  0  0
   10.3419    0.7486   23.7807 C   0  0  0  0  0  0  0  0  0  0  0  0
   11.7204    0.9621   23.8384 C   0  0  0  0  0  0  0  0  0  0  0  0
   12.5709    0.3481   22.9394 C   0  0  0  0  0  0  0  0  0  0  0  0
   12.0026   -0.4385   21.9462 C   0  0  0  0  0  0  0  0  0  0  0  0
   12.7647   -0.9018   20.9457 F   0  0  0  0  0  0  0  0  0  0  0  0
   10.6608   -0.7398   21.9242 C   0  0  0  0  0  0  0  0  0  0  0  0
    9.8057   -0.1829   22.8784 C   0  0  0  0  0  0  0  0  0  0  0  0
   10.3148   -1.3751   21.1190 H   0  0  0  0  0  0  0  0  0  0  0  0
   13.6420    0.4938   22.9656 H   0  0  0  0  0  0  0  0  0  0  0  0
   12.0924    1.6711   24.5663 H   0  0  0  0  0  0  0  0  0  0  0  0
    7.9128   -0.7443   24.8775 H   0  0  0  0  0  0  0  0  0  0  0  0
    6.5738    0.0284   23.9681 H   0  0  0  0  0  0  0  0  0  0  0  0
    6.8502   -2.4787   20.5213 H   0  0  0  0  0  0  0  0  0  0  0  0
    5.7944   -1.9044   21.8144 H   0  0  0  0  0  0  0  0  0  0  0  0
    8.7803   -2.3275   21.8625 H   0  0  0  0  0  0  0  0  0  0  0  0
    6.6401   -2.5240   24.0396 H   0  0  0  0  0  0  0  0  0  0  0  0
    8.3464   -2.9447   24.2598 H   0  0  0  0  0  0  0  0  0  0  0  0
    7.3426   -3.8667   23.1316 H   0  0  0  0  0  0  0  0  0  0  0  0
  1  2  1  0
  2  3  1  0
  3  4  1  0
  4  5  1  0
  5  6  2  0
  6  7  1  0
  7  8  2  0
  8  9  1  0
  9 10  2  0
 10 11  1  0
 11 12  2  0
 12 13  1  0
 13 14  2  0
 13 15  1  0
 12 16  1  0
 11 17  1  0
 10 18  1  0
  8 19  1  0
  6 20  1  0
  4 21  1  0
 21 22  2  0
 21 23  1  0
 23 24  1  1
 24 25  1  0
 25 26  1  0
 26 27  1  0
 27 28  2  0
 28 29  1  0
 29 30  2  0
 30 31  1  0
 30 32  1  0
 29 33  1  0
 26 34  1  0
 26 35  1  0
 25 36  1  0
 36 37  2  0
 36 38  1  0
 38 39  2  0
 39 40  1  0
 40 41  2  0
 41 42  1  0
 41 43  1  0
 43 44  2  0
 43 45  1  0
 40 46  1  0
 39 47  1  0
 24 48  1  0
 24 49  1  0
  3 50  1  0
  3 51  1  0
  2 52  1  6
  1 53  1  0
  1 54  1  0
  1 55  1  0
 23  2  1  0
 31 27  1  0
 44 38  1  0
 14  5  1  0
 44 23  1  0
 14  9  1  0
M  END
>  <cnnaffinities>  (82) 
[6.69837, 6.57381, 6.59656]

>  <score>  (82) 
6.69837

>  <index>  (82) 
82

>  <Smiles>  (82) 
C([C@]1(C(N(c2c(nc(c3c(c(c(c(c23)[H])[H])[H])[H])[H])[H])C(=O)[C@]21C(N(C(c1nc(c(o1)[H])[H])([H])[H])C(=O)c1c(c(c(F)c(c21)[H])[H])[H])([H])[H])([H])[H])[H])([H])([H])[H]

>  <h>  (82) 
<NA>

>  <Training>  (82) 
True

>  <Success>  (82) 
True

>  <enamine_searched>  (82) 
False

>  <enamine_id>  (82) 
nan

$$$$

     RDKit          3D

 72 77  0  0  0  0  0  0  0  0999 V2000
    9.5864    5.8461   23.8194 C   0  0  0  0  0  0  0  0  0  0  0  0
    8.4676    5.9750   22.7875 C   0  0  2  0  0  0  0  0  0  0  0  0
    7.7957    7.3373   22.8789 C   0  0  0  0  0  0  0  0  0  0  0  0
    7.1049    7.4833   24.1037 O   0  0  0  0  0  0  0  0  0  0  0  0
    6.0071    6.5961   24.1460 C   0  0  0  0  0  0  0  0  0  0  0  0
    6.4207    5.1291   24.1000 C   0  0  1  0  0  0  0  0  0  0  0  0
    5.1929    4.2375   23.9441 C   0  0  0  0  0  0  0  0  0  0  0  0
    4.6766    4.5098   23.0136 H   0  0  0  0  0  0  0  0  0  0  0  0
    4.5011    4.3710   24.7827 H   0  0  0  0  0  0  0  0  0  0  0  0
    5.4337    3.1703   23.8772 H   0  0  0  0  0  0  0  0  0  0  0  0
    7.3678    4.9258   22.9277 N   0  0  0  0  0  4  0  0  0  0  0  0
    7.8681    3.5283   22.7747 C   0  0  0  0  0  0  0  0  0  0  0  0
    8.2208    2.8498   24.1023 C   0  0  0  0  0  0  0  0  0  0  0  0
    8.8795    1.5874   23.8624 N   0  0  0  0  0  0  0  0  0  0  0  0
    8.1355    0.3512   23.7644 C   0  0  0  0  0  0  0  0  0  0  0  0
    8.5322   -0.4722   22.5116 C   0  0  2  0  0  0  0  0  0  0  0  0
    8.0443    0.1984   21.2083 C   0  0  0  0  0  0  0  0  0  0  0  0
    8.5693    1.1218   20.6100 O   0  0  0  0  0  0  0  0  0  0  0  0
    6.8926   -0.4317   20.8037 N   0  0  0  0  0  0  0  0  0  0  0  0
    6.1145    0.0934   19.7481 C   0  0  0  0  0  0  0  0  0  0  0  0
    6.4492   -0.1989   18.4519 C   0  0  0  0  0  0  0  0  0  0  0  0
    5.7629    0.2452   17.3729 N   0  0  0  0  0  0  0  0  0  0  0  0
    4.7285    1.0165   17.5923 C   0  0  0  0  0  0  0  0  0  0  0  0
    4.2889    1.4146   18.8867 C   0  0  0  0  0  0  0  0  0  0  0  0
    3.1751    2.2721   19.0665 C   0  0  0  0  0  0  0  0  0  0  0  0
    2.7839    2.6433   20.3216 C   0  0  0  0  0  0  0  0  0  0  0  0
    3.4881    2.1810   21.4555 C   0  0  0  0  0  0  0  0  0  0  0  0
    4.5759    1.3540   21.3126 C   0  0  0  0  0  0  0  0  0  0  0  0
    4.9975    0.9431   20.0147 C   0  0  0  0  0  0  0  0  0  0  0  0
    5.1135    1.0208   22.1973 H   0  0  0  0  0  0  0  0  0  0  0  0
    3.1742    2.4986   22.4457 H   0  0  0  0  0  0  0  0  0  0  0  0
    1.9295    3.2976   20.4548 H   0  0  0  0  0  0  0  0  0  0  0  0
    2.6533    2.6238   18.1822 H   0  0  0  0  0  0  0  0  0  0  0  0
    4.1807    1.3737   16.7208 H   0  0  0  0  0  0  0  0  0  0  0  0
    7.3134   -0.8295   18.2540 H   0  0  0  0  0  0  0  0  0  0  0  0
    6.4964   -1.5447   21.6416 C   0  0  0  0  0  0  0  0  0  0  0  0
    7.7745   -1.8305   22.4496 C   0  0  2  0  0  0  0  0  0  0  0  0
    7.5030   -2.5181   23.7819 C   0  0  0  0  0  0  0  0  0  0  0  0
    6.8367   -1.9140   24.4108 H   0  0  0  0  0  0  0  0  0  0  0  0
    7.0211   -3.4905   23.6287 H   0  0  0  0  0  0  0  0  0  0  0  0
    8.4348   -2.6839   24.3341 H   0  0  0  0  0  0  0  0  0  0  0  0
    8.3758   -2.5107   21.8393 H   0  0  0  0  0  0  0  0  0  0  0  0
    5.6469   -1.2957   22.3008 H   0  0  0  0  0  0  0  0  0  0  0  0
    6.1924   -2.3990   21.0252 H   0  0  0  0  0  0  0  0  0  0  0  0
   10.0382   -0.5524   22.4649 C   0  0  0  0  0  0  0  0  0  0  0  0
   10.6507   -1.4789   21.6195 C   0  0  0  0  0  0  0  0  0  0  0  0
   11.9966   -1.3751   21.3432 C   0  0  0  0  0  0  0  0  0  0  0  0
   12.6476   -2.4091   20.0990 Cl  0  0  0  0  0  0  0  0  0  0  0  0
   12.7975   -0.4170   21.9698 C   0  0  0  0  0  0  0  0  0  0  0  0
   12.2120    0.4471   22.8615 C   0  0  0  0  0  0  0  0  0  0  0  0
   10.8370    0.4345   23.0482 C   0  0  0  0  0  0  0  0  0  0  0  0
   10.2330    1.6105   23.7344 C   0  0  0  0  0  0  0  0  0  0  0  0
   10.9084    2.5761   24.0823 O   0  0  0  0  0  0  0  0  0  0  0  0
   12.7918    1.1820   23.4007 H   0  0  0  0  0  0  0  0  0  0  0  0
   13.8496   -0.3319   21.7288 H   0  0  0  0  0  0  0  0  0  0  0  0
   10.0818   -2.2716   21.1521 H   0  0  0  0  0  0  0  0  0  0  0  0
    8.3486   -0.2619   24.6497 H   0  0  0  0  0  0  0  0  0  0  0  0
    7.0612    0.5734   23.7658 H   0  0  0  0  0  0  0  0  0  0  0  0
    8.9068    3.4737   24.6783 H   0  0  0  0  0  0  0  0  0  0  0  0
    7.3299    2.6978   24.7206 H   0  0  0  0  0  0  0  0  0  0  0  0
    7.1212    2.9313   22.2338 H   0  0  0  0  0  0  0  0  0  0  0  0
    8.7568    3.5525   22.1346 H   0  0  0  0  0  0  0  0  0  0  0  0
    6.7616    5.0890   22.0958 H   0  0  0  0  0  0  0  0  0  0  0  0
    6.9607    4.8899   25.0200 H   0  0  0  0  0  0  0  0  0  0  0  0
    5.4558    6.8012   25.0700 H   0  0  0  0  0  0  0  0  0  0  0  0
    5.3371    6.7888   23.2898 H   0  0  0  0  0  0  0  0  0  0  0  0
    7.0995    7.4542   22.0318 H   0  0  0  0  0  0  0  0  0  0  0  0
    8.5409    8.1373   22.8262 H   0  0  0  0  0  0  0  0  0  0  0  0
    8.8905    5.8512   21.7813 H   0  0  0  0  0  0  0  0  0  0  0  0
   10.2508    6.7144   23.7442 H   0  0  0  0  0  0  0  0  0  0  0  0
    9.1802    5.8354   24.8361 H   0  0  0  0  0  0  0  0  0  0  0  0
   10.1930    4.9469   23.6650 H   0  0  0  0  0  0  0  0  0  0  0  0
  1  2  1  0
  2  3  1  0
  3  4  1  0
  4  5  1  0
  5  6  1  0
  6  7  1  0
  7  8  1  0
  7  9  1  0
  7 10  1  0
  6 11  1  0
 11 12  1  0
 12 13  1  0
 13 14  1  0
 14 15  1  0
 16 15  1  1
 16 17  1  0
 17 18  2  0
 17 19  1  0
 19 20  1  0
 20 21  2  0
 21 22  1  0
 22 23  2  0
 23 24  1  0
 24 25  2  0
 25 26  1  0
 26 27  2  0
 27 28  1  0
 28 29  2  0
 28 30  1  0
 27 31  1  0
 26 32  1  0
 25 33  1  0
 23 34  1  0
 21 35  1  0
 19 36  1  0
 36 37  1  0
 37 38  1  0
 38 39  1  0
 38 40  1  0
 38 41  1  0
 37 42  1  6
 36 43  1  0
 36 44  1  0
 16 45  1  0
 45 46  2  0
 46 47  1  0
 47 48  1  0
 47 49  2  0
 49 50  1  0
 50 51  2  0
 51 52  1  0
 52 53  2  0
 50 54  1  0
 49 55  1  0
 46 56  1  0
 15 57  1  0
 15 58  1  0
 13 59  1  0
 13 60  1  0
 12 61  1  0
 12 62  1  0
 11 63  1  0
  6 64  1  1
  5 65  1  0
  5 66  1  0
  3 67  1  0
  3 68  1  0
  2 69  1  6
  1 70  1  0
  1 71  1  0
  1 72  1  0
 11  2  1  0
 52 14  1  0
 37 16  1  0
 51 45  1  0
 29 20  1  0
 29 24  1  0
M  CHG  1  11   1
M  END
>  <cnnaffinities>  (83) 
[7.1797, 6.6385]

>  <score>  (83) 
7.1797

>  <index>  (83) 
83

>  <Smiles>  (83) 
C([C@@]1(C(OC([C@@](C([H])([H])[H])([N+]1(C(C(N1C([C@@]2(C(=O)N(c3c(nc(c4c(c(c(c(c34)[H])[H])[H])[H])[H])[H])C([C@@]2(C([H])([H])[H])[H])([H])[H])c2c(c(Cl)c(c(c2C1=O)[H])[H])[H])([H])[H])([H])[H])([H])[H])[H])[H])([H])[H])([H])[H])[H])([H])([H])[H]

>  <h>  (83) 
<NA>

>  <Training>  (83) 
True

>  <Success>  (83) 
True

>  <enamine_searched>  (83) 
False

>  <enamine_id>  (83) 
nan

$$$$

     RDKit          3D

 60 65  0  0  0  0  0  0  0  0999 V2000
    7.9367   -6.6464   25.9936 C   0  0  0  0  0  0  0  0  0  0  0  0
    7.2328   -5.7586   25.0871 N   0  0  0  0  0  0  0  0  0  0  0  0
    6.1388   -6.0152   24.3287 C   0  0  0  0  0  0  0  0  0  0  0  0
    5.4731   -7.0362   24.3338 O   0  0  0  0  0  0  0  0  0  0  0  0
    5.7674   -4.8688   23.4065 C   0  0  0  0  0  0  0  0  0  0  0  0
    6.2569   -3.5666   23.7574 N   0  0  0  0  0  0  0  0  0  0  0  0
    7.4750   -3.0460   23.1896 C   0  0  0  0  0  0  0  0  0  0  0  0
    7.3184   -1.5428   22.8781 C   0  0  2  0  0  0  0  0  0  0  0  0
    6.3630   -1.3727   21.6774 C   0  0  0  0  0  0  0  0  0  0  0  0
    5.3016   -1.9316   21.4766 O   0  0  0  0  0  0  0  0  0  0  0  0
    6.8961   -0.4488   20.8193 N   0  0  0  0  0  0  0  0  0  0  0  0
    6.1253    0.0875   19.7625 C   0  0  0  0  0  0  0  0  0  0  0  0
    6.4691   -0.1905   18.4665 C   0  0  0  0  0  0  0  0  0  0  0  0
    5.7947    0.2671   17.3875 N   0  0  0  0  0  0  0  0  0  0  0  0
    4.7530    1.0279   17.6073 C   0  0  0  0  0  0  0  0  0  0  0  0
    4.3022    1.4120   18.9003 C   0  0  0  0  0  0  0  0  0  0  0  0
    3.1840    2.2677   19.0677 C   0  0  0  0  0  0  0  0  0  0  0  0
    2.7920    2.6523   20.3177 C   0  0  0  0  0  0  0  0  0  0  0  0
    3.4958    2.1908   21.4564 C   0  0  0  0  0  0  0  0  0  0  0  0
    4.5742    1.3512   21.3264 C   0  0  0  0  0  0  0  0  0  0  0  0
    5.0029    0.9338   20.0296 C   0  0  0  0  0  0  0  0  0  0  0  0
    5.1016    0.9982   22.2155 H   0  0  0  0  0  0  0  0  0  0  0  0
    3.1715    2.5088   22.4425 H   0  0  0  0  0  0  0  0  0  0  0  0
    1.9463    3.3231   20.4440 H   0  0  0  0  0  0  0  0  0  0  0  0
    2.6675    2.6137   18.1756 H   0  0  0  0  0  0  0  0  0  0  0  0
    4.2093    1.3848   16.7332 H   0  0  0  0  0  0  0  0  0  0  0  0
    7.3268   -0.8290   18.2587 H   0  0  0  0  0  0  0  0  0  0  0  0
    8.2027    0.0400   21.1879 C   0  0  0  0  0  0  0  0  0  0  0  0
    8.6363   -0.8765   22.3568 C   0  0  2  0  0  0  0  0  0  0  0  0
    9.7238   -1.8505   21.8712 C   0  0  0  0  0  0  0  0  0  0  0  0
   10.5923   -1.2944   21.4958 H   0  0  0  0  0  0  0  0  0  0  0  0
   10.0759   -2.4988   22.6779 H   0  0  0  0  0  0  0  0  0  0  0  0
    9.3657   -2.4915   21.0572 H   0  0  0  0  0  0  0  0  0  0  0  0
    9.0828   -0.2856   23.1647 H   0  0  0  0  0  0  0  0  0  0  0  0
    8.8893   -0.0499   20.3442 H   0  0  0  0  0  0  0  0  0  0  0  0
    8.1700    1.1031   21.4663 H   0  0  0  0  0  0  0  0  0  0  0  0
    6.7490   -0.8454   24.1205 C   0  0  0  0  0  0  0  0  0  0  0  0
    6.9168    0.5350   24.3250 C   0  0  0  0  0  0  0  0  0  0  0  0
    6.3890    1.1371   25.4589 C   0  0  0  0  0  0  0  0  0  0  0  0
    6.6377    2.8419   25.7112 Cl  0  0  0  0  0  0  0  0  0  0  0  0
    5.6824    0.4155   26.4232 C   0  0  0  0  0  0  0  0  0  0  0  0
    5.4893   -0.9350   26.2122 C   0  0  0  0  0  0  0  0  0  0  0  0
    5.9986   -1.5564   25.0675 C   0  0  0  0  0  0  0  0  0  0  0  0
    5.6769   -2.9890   24.8582 C   0  0  0  0  0  0  0  0  0  0  0  0
    4.9438   -3.6243   25.6029 O   0  0  0  0  0  0  0  0  0  0  0  0
    4.9339   -1.5298   26.9324 H   0  0  0  0  0  0  0  0  0  0  0  0
    5.2976    0.9181   27.3090 H   0  0  0  0  0  0  0  0  0  0  0  0
    7.4600    1.1568   23.6138 H   0  0  0  0  0  0  0  0  0  0  0  0
    7.6803   -3.6181   22.2906 H   0  0  0  0  0  0  0  0  0  0  0  0
    8.3330   -3.1679   23.8709 H   0  0  0  0  0  0  0  0  0  0  0  0
    5.5524   -5.1262   21.9318 C   0  0  0  0  0  0  0  0  0  0  0  0
    4.3811   -4.9386   22.8301 C   0  0  0  0  0  0  0  0  0  0  0  0
    3.7964   -5.8139   23.0925 H   0  0  0  0  0  0  0  0  0  0  0  0
    3.8664   -3.9899   22.7747 H   0  0  0  0  0  0  0  0  0  0  0  0
    5.7815   -4.2663   21.3097 H   0  0  0  0  0  0  0  0  0  0  0  0
    5.7700   -6.1067   21.5185 H   0  0  0  0  0  0  0  0  0  0  0  0
    7.5251   -4.8004   25.0884 H   0  0  0  0  0  0  0  0  0  0  0  0
    7.2630   -7.4066   26.4012 H   0  0  0  0  0  0  0  0  0  0  0  0
    8.7843   -7.1379   25.4941 H   0  0  0  0  0  0  0  0  0  0  0  0
    8.3209   -6.0299   26.8125 H   0  0  0  0  0  0  0  0  0  0  0  0
  1  2  1  0
  2  3  1  0
  3  4  2  0
  3  5  1  0
  5  6  1  0
  6  7  1  0
  8  7  1  1
  8  9  1  0
  9 10  2  0
  9 11  1  0
 11 12  1  0
 12 13  2  0
 13 14  1  0
 14 15  2  0
 15 16  1  0
 16 17  2  0
 17 18  1  0
 18 19  2  0
 19 20  1  0
 20 21  2  0
 20 22  1  0
 19 23  1  0
 18 24  1  0
 17 25  1  0
 15 26  1  0
 13 27  1  0
 11 28  1  0
 28 29  1  0
 29 30  1  0
 30 31  1  0
 30 32  1  0
 30 33  1  0
 29 34  1  1
 28 35  1  0
 28 36  1  0
  8 37  1  0
 37 38  2  0
 38 39  1  0
 39 40  1  0
 39 41  2  0
 41 42  1  0
 42 43  2  0
 43 44  1  0
 44 45  2  0
 42 46  1  0
 41 47  1  0
 38 48  1  0
  7 49  1  0
  7 50  1  0
  5 51  1  0
 51 52  1  0
 52 53  1  0
 52 54  1  0
 51 55  1  0
 51 56  1  0
  2 57  1  0
  1 58  1  0
  1 59  1  0
  1 60  1  0
 52  5  1  0
 44  6  1  0
 29  8  1  0
 43 37  1  0
 21 12  1  0
 21 16  1  0
M  END
>  <cnnaffinities>  (84) 
[6.71874]

>  <score>  (84) 
6.71874

>  <index>  (84) 
84

>  <Smiles>  (84) 
C(N(C(=O)C1(N2C([C@@]3(C(=O)N(c4c(nc(c5c(c(c(c(c45)[H])[H])[H])[H])[H])[H])C([C@@]3(C([H])([H])[H])[H])([H])[H])c3c(c(Cl)c(c(c3C2=O)[H])[H])[H])([H])[H])C(C1([H])[H])([H])[H])[H])([H])([H])[H]

>  <h>  (84) 
<NA>

>  <Training>  (84) 
True

>  <Success>  (84) 
True

>  <enamine_searched>  (84) 
False

>  <enamine_id>  (84) 
nan

$$$$

     RDKit          3D

 55 60  0  0  0  0  0  0  0  0999 V2000
    7.3029   -2.5635   23.7953 C   0  0  0  0  0  0  0  0  0  0  0  0
    7.7175   -1.8444   22.5139 C   0  0  1  0  0  0  0  0  0  0  0  0
    6.5435   -1.6464   21.5415 C   0  0  0  0  0  0  0  0  0  0  0  0
    6.8826   -0.4344   20.8308 N   0  0  0  0  0  0  0  0  0  0  0  0
    6.1150    0.0935   19.7641 C   0  0  0  0  0  0  0  0  0  0  0  0
    6.4468   -0.2101   18.4700 C   0  0  0  0  0  0  0  0  0  0  0  0
    5.7723    0.2400   17.3839 N   0  0  0  0  0  0  0  0  0  0  0  0
    4.7418    1.0204   17.5912 C   0  0  0  0  0  0  0  0  0  0  0  0
    4.2910    1.4158   18.8832 C   0  0  0  0  0  0  0  0  0  0  0  0
    3.1699    2.2695   19.0559 C   0  0  0  0  0  0  0  0  0  0  0  0
    2.7557    2.6190   20.3118 C   0  0  0  0  0  0  0  0  0  0  0  0
    3.4394    2.1363   21.4488 C   0  0  0  0  0  0  0  0  0  0  0  0
    4.5303    1.3114   21.3066 C   0  0  0  0  0  0  0  0  0  0  0  0
    4.9884    0.9356   20.0117 C   0  0  0  0  0  0  0  0  0  0  0  0
    5.0538    0.9522   22.1872 H   0  0  0  0  0  0  0  0  0  0  0  0
    3.0976    2.4257   22.4384 H   0  0  0  0  0  0  0  0  0  0  0  0
    1.9028    3.2768   20.4445 H   0  0  0  0  0  0  0  0  0  0  0  0
    2.6599    2.6346   18.1711 H   0  0  0  0  0  0  0  0  0  0  0  0
    4.2044    1.3818   16.7149 H   0  0  0  0  0  0  0  0  0  0  0  0
    7.3060   -0.8471   18.2728 H   0  0  0  0  0  0  0  0  0  0  0  0
    7.8708    0.3187   21.4194 C   0  0  0  0  0  0  0  0  0  0  0  0
    8.2621    1.3786   20.9837 O   0  0  0  0  0  0  0  0  0  0  0  0
    8.3768   -0.4360   22.6745 C   0  0  1  0  0  0  0  0  0  0  0  0
    7.9202    0.2589   23.9743 C   0  0  0  0  0  0  0  0  0  0  0  0
    8.6280    1.5038   24.2089 N   0  0  0  0  0  0  0  0  0  0  0  0
    7.8820    2.6861   24.5910 C   0  0  0  0  0  0  0  0  0  0  0  0
    7.5281    3.6061   23.4630 C   0  0  0  0  0  0  0  0  0  0  0  0
    6.3576    3.8219   22.8193 C   0  0  0  0  0  0  0  0  0  0  0  0
    6.5295    4.8255   21.9205 O   0  0  0  0  0  0  0  0  0  0  0  0
    7.8199    5.1749   22.0584 C   0  0  0  0  0  0  0  0  0  0  0  0
    8.4659    4.4912   22.9445 N   0  0  0  0  0  0  0  0  0  0  0  0
    8.1709    5.9876   21.4359 H   0  0  0  0  0  0  0  0  0  0  0  0
    5.3858    3.3720   22.7831 H   0  0  0  0  0  0  0  0  0  0  0  0
    6.9793    2.3663   25.1181 H   0  0  0  0  0  0  0  0  0  0  0  0
    8.4961    3.2605   25.2833 H   0  0  0  0  0  0  0  0  0  0  0  0
   10.0002    1.5636   24.1791 C   0  0  0  0  0  0  0  0  0  0  0  0
   10.6339    2.4535   24.7252 O   0  0  0  0  0  0  0  0  0  0  0  0
   10.6576    0.4800   23.3815 C   0  0  0  0  0  0  0  0  0  0  0  0
   12.0515    0.4587   23.2998 C   0  0  0  0  0  0  0  0  0  0  0  0
   12.6934   -0.3944   22.4233 C   0  0  0  0  0  0  0  0  0  0  0  0
   11.9030   -1.2123   21.6159 C   0  0  0  0  0  0  0  0  0  0  0  0
   12.4358   -1.9769   20.6489 F   0  0  0  0  0  0  0  0  0  0  0  0
   10.5354   -1.2515   21.7269 C   0  0  0  0  0  0  0  0  0  0  0  0
    9.8879   -0.4321   22.6472 C   0  0  0  0  0  0  0  0  0  0  0  0
   10.0009   -1.9157   21.0581 H   0  0  0  0  0  0  0  0  0  0  0  0
   13.7735   -0.4012   22.3427 H   0  0  0  0  0  0  0  0  0  0  0  0
   12.6169    1.1548   23.9111 H   0  0  0  0  0  0  0  0  0  0  0  0
    8.0848   -0.4285   24.8169 H   0  0  0  0  0  0  0  0  0  0  0  0
    6.8478    0.4737   23.9122 H   0  0  0  0  0  0  0  0  0  0  0  0
    5.5868   -1.5470   22.0797 H   0  0  0  0  0  0  0  0  0  0  0  0
    6.4414   -2.4847   20.8426 H   0  0  0  0  0  0  0  0  0  0  0  0
    8.4481   -2.4855   22.0159 H   0  0  0  0  0  0  0  0  0  0  0  0
    8.1509   -2.6885   24.4773 H   0  0  0  0  0  0  0  0  0  0  0  0
    6.9132   -3.5581   23.5584 H   0  0  0  0  0  0  0  0  0  0  0  0
    6.5156   -2.0149   24.3252 H   0  0  0  0  0  0  0  0  0  0  0  0
  1  2  1  0
  2  3  1  0
  3  4  1  0
  4  5  1  0
  5  6  2  0
  6  7  1  0
  7  8  2  0
  8  9  1  0
  9 10  2  0
 10 11  1  0
 11 12  2  0
 12 13  1  0
 13 14  2  0
 13 15  1  0
 12 16  1  0
 11 17  1  0
 10 18  1  0
  8 19  1  0
  6 20  1  0
  4 21  1  0
 21 22  2  0
 21 23  1  0
 23 24  1  1
 24 25  1  0
 25 26  1  0
 26 27  1  0
 27 28  2  0
 28 29  1  0
 29 30  1  0
 30 31  2  0
 30 32  1  0
 28 33  1  0
 26 34  1  0
 26 35  1  0
 25 36  1  0
 36 37  2  0
 36 38  1  0
 38 39  2  0
 39 40  1  0
 40 41  2  0
 41 42  1  0
 41 43  1  0
 43 44  2  0
 43 45  1  0
 40 46  1  0
 39 47  1  0
 24 48  1  0
 24 49  1  0
  3 50  1  0
  3 51  1  0
  2 52  1  6
  1 53  1  0
  1 54  1  0
  1 55  1  0
 23  2  1  0
 31 27  1  0
 44 38  1  0
 14  5  1  0
 44 23  1  0
 14  9  1  0
M  END
>  <cnnaffinities>  (85) 
[6.19682, 6.56371]

>  <score>  (85) 
6.19682

>  <index>  (85) 
85

>  <Smiles>  (85) 
C([C@]1(C(N(c2c(nc(c3c(c(c(c(c23)[H])[H])[H])[H])[H])[H])C(=O)[C@]21C(N(C(c1c(oc(n1)[H])[H])([H])[H])C(=O)c1c(c(c(F)c(c21)[H])[H])[H])([H])[H])([H])[H])[H])([H])([H])[H]

>  <h>  (85) 
<NA>

>  <Training>  (85) 
True

>  <Success>  (85) 
True

>  <enamine_searched>  (85) 
False

>  <enamine_id>  (85) 
nan

$$$$

     RDKit          3D

 65 70  0  0  0  0  0  0  0  0999 V2000
    2.3237   -4.5468   22.5146 C   0  0  0  0  0  0  0  0  0  0  0  0
    3.5030   -4.9524   23.2511 N   0  0  0  0  0  0  0  0  0  0  0  0
    4.6930   -5.0331   22.5912 C   0  0  0  0  0  0  0  0  0  0  0  0
    4.7846   -5.0485   21.3738 O   0  0  0  0  0  0  0  0  0  0  0  0
    5.9393   -5.0832   23.4878 C   0  0  0  0  0  0  0  0  0  0  0  0
    6.3475   -3.7200   23.8181 N   0  0  0  0  0  0  0  0  0  0  0  0
    7.5017   -3.1322   23.1512 C   0  0  0  0  0  0  0  0  0  0  0  0
    7.3343   -1.6193   22.8632 C   0  0  2  0  0  0  0  0  0  0  0  0
    6.3267   -1.4035   21.7159 C   0  0  0  0  0  0  0  0  0  0  0  0
    5.2337   -1.9072   21.5942 O   0  0  0  0  0  0  0  0  0  0  0  0
    6.8634   -0.4892   20.8443 N   0  0  0  0  0  0  0  0  0  0  0  0
    6.1091    0.0648   19.7871 C   0  0  0  0  0  0  0  0  0  0  0  0
    6.4627   -0.2092   18.4914 C   0  0  0  0  0  0  0  0  0  0  0  0
    5.7991    0.2488   17.4053 N   0  0  0  0  0  0  0  0  0  0  0  0
    4.7611    1.0176   17.6179 C   0  0  0  0  0  0  0  0  0  0  0  0
    4.3080    1.4044   18.9103 C   0  0  0  0  0  0  0  0  0  0  0  0
    3.1905    2.2625   19.0669 C   0  0  0  0  0  0  0  0  0  0  0  0
    2.7901    2.6534   20.3127 C   0  0  0  0  0  0  0  0  0  0  0  0
    3.4896    2.2057   21.4581 C   0  0  0  0  0  0  0  0  0  0  0  0
    4.5731    1.3706   21.3391 C   0  0  0  0  0  0  0  0  0  0  0  0
    5.0004    0.9327   20.0469 C   0  0  0  0  0  0  0  0  0  0  0  0
    5.1062    1.0476   22.2363 H   0  0  0  0  0  0  0  0  0  0  0  0
    3.1632    2.5343   22.4404 H   0  0  0  0  0  0  0  0  0  0  0  0
    1.9416    3.3211   20.4311 H   0  0  0  0  0  0  0  0  0  0  0  0
    2.6801    2.6078   18.1720 H   0  0  0  0  0  0  0  0  0  0  0  0
    4.2233    1.3843   16.7434 H   0  0  0  0  0  0  0  0  0  0  0  0
    7.3172   -0.8570   18.2970 H   0  0  0  0  0  0  0  0  0  0  0  0
    8.2026   -0.0554   21.1600 C   0  0  0  0  0  0  0  0  0  0  0  0
    8.6348   -0.9520   22.3328 C   0  0  2  0  0  0  0  0  0  0  0  0
    9.7597   -1.9102   21.8970 C   0  0  0  0  0  0  0  0  0  0  0  0
   10.9228   -1.1699   21.4506 N   0  0  0  0  0  0  0  0  0  0  0  0
   11.8088   -0.6080   22.3007 C   0  0  0  0  0  0  0  0  0  0  0  0
   12.8357    0.0723   21.7474 N   0  0  0  0  0  0  0  0  0  0  0  0
   13.6800    0.5746   22.6266 C   0  0  0  0  0  0  0  0  0  0  0  0
   13.6051    0.4885   23.9588 N   0  0  0  0  0  0  0  0  0  0  0  0
   12.5398   -0.1848   24.3798 C   0  0  0  0  0  0  0  0  0  0  0  0
   11.5984   -0.7382   23.6270 N   0  0  0  0  0  0  0  0  0  0  0  0
   12.4318   -0.2777   25.4605 H   0  0  0  0  0  0  0  0  0  0  0  0
   14.5308    1.1233   22.2233 H   0  0  0  0  0  0  0  0  0  0  0  0
   11.2174   -1.2463   20.4910 H   0  0  0  0  0  0  0  0  0  0  0  0
    9.4145   -2.5617   21.0865 H   0  0  0  0  0  0  0  0  0  0  0  0
   10.0734   -2.5284   22.7416 H   0  0  0  0  0  0  0  0  0  0  0  0
    9.0753   -0.3539   23.1337 H   0  0  0  0  0  0  0  0  0  0  0  0
    8.2224    1.0129   21.4127 H   0  0  0  0  0  0  0  0  0  0  0  0
    8.8482   -0.1793   20.2943 H   0  0  0  0  0  0  0  0  0  0  0  0
    6.7900   -0.9339   24.1152 C   0  0  0  0  0  0  0  0  0  0  0  0
    6.9623    0.4388   24.3363 C   0  0  0  0  0  0  0  0  0  0  0  0
    6.4311    1.0391   25.4668 C   0  0  0  0  0  0  0  0  0  0  0  0
    6.6773    2.7468   25.7241 Cl  0  0  0  0  0  0  0  0  0  0  0  0
    5.6979    0.3091   26.4007 C   0  0  0  0  0  0  0  0  0  0  0  0
    5.4807   -1.0319   26.1632 C   0  0  0  0  0  0  0  0  0  0  0  0
    5.9999   -1.6426   25.0224 C   0  0  0  0  0  0  0  0  0  0  0  0
    5.6335   -3.0667   24.7688 C   0  0  0  0  0  0  0  0  0  0  0  0
    4.7154   -3.6141   25.3858 O   0  0  0  0  0  0  0  0  0  0  0  0
    4.8976   -1.6359   26.8492 H   0  0  0  0  0  0  0  0  0  0  0  0
    5.2924    0.7945   27.2806 H   0  0  0  0  0  0  0  0  0  0  0  0
    7.5064    1.0632   23.6344 H   0  0  0  0  0  0  0  0  0  0  0  0
    8.3835   -3.2776   23.7883 H   0  0  0  0  0  0  0  0  0  0  0  0
    7.6474   -3.6661   22.2077 H   0  0  0  0  0  0  0  0  0  0  0  0
    6.7411   -5.5629   22.9172 H   0  0  0  0  0  0  0  0  0  0  0  0
    5.7683   -5.6548   24.4113 H   0  0  0  0  0  0  0  0  0  0  0  0
    3.5679   -4.6262   24.2092 H   0  0  0  0  0  0  0  0  0  0  0  0
    1.5655   -4.2109   23.2249 H   0  0  0  0  0  0  0  0  0  0  0  0
    2.5733   -3.7151   21.8540 H   0  0  0  0  0  0  0  0  0  0  0  0
    1.8902   -5.3421   21.9019 H   0  0  0  0  0  0  0  0  0  0  0  0
  1  2  1  0
  2  3  1  0
  3  4  2  0
  3  5  1  0
  5  6  1  0
  6  7  1  0
  8  7  1  1
  8  9  1  0
  9 10  2  0
  9 11  1  0
 11 12  1  0
 12 13  2  0
 13 14  1  0
 14 15  2  0
 15 16  1  0
 16 17  2  0
 17 18  1  0
 18 19  2  0
 19 20  1  0
 20 21  2  0
 20 22  1  0
 19 23  1  0
 18 24  1  0
 17 25  1  0
 15 26  1  0
 13 27  1  0
 11 28  1  0
 28 29  1  0
 29 30  1  0
 30 31  1  0
 31 32  1  0
 32 33  2  0
 33 34  1  0
 34 35  2  0
 35 36  1  0
 36 37  2  0
 36 38  1  0
 34 39  1  0
 31 40  1  0
 30 41  1  0
 30 42  1  0
 29 43  1  1
 28 44  1  0
 28 45  1  0
  8 46  1  0
 46 47  2  0
 47 48  1  0
 48 49  1  0
 48 50  2  0
 50 51  1  0
 51 52  2  0
 52 53  1  0
 53 54  2  0
 51 55  1  0
 50 56  1  0
 47 57  1  0
  7 58  1  0
  7 59  1  0
  5 60  1  0
  5 61  1  0
  2 62  1  0
  1 63  1  0
  1 64  1  0
  1 65  1  0
 53  6  1  0
 29  8  1  0
 37 32  1  0
 52 46  1  0
 21 12  1  0
 21 16  1  0
M  END
>  <cnnaffinities>  (86) 
[7.5522]

>  <score>  (86) 
7.5522

>  <index>  (86) 
86

>  <Smiles>  (86) 
C(N(C(=O)C(N1C([C@@]2(C(=O)N(c3c(nc(c4c(c(c(c(c34)[H])[H])[H])[H])[H])[H])C([C@@]2(C(N(c2nc(nc(n2)[H])[H])[H])([H])[H])[H])([H])[H])c2c(c(Cl)c(c(c2C1=O)[H])[H])[H])([H])[H])([H])[H])[H])([H])([H])[H]

>  <h>  (86) 
<NA>

>  <Training>  (86) 
True

>  <Success>  (86) 
True

>  <enamine_searched>  (86) 
False

>  <enamine_id>  (86) 
nan

$$$$

     RDKit          3D

 63 68  0  0  0  0  0  0  0  0999 V2000
    6.1414    4.5321   22.5320 C   0  0  0  0  0  0  0  0  0  0  0  0
    6.5538    3.5946   23.5599 N   0  0  0  0  0  0  0  0  0  0  0  0
    7.8341    3.6472   24.0120 C   0  0  0  0  0  0  0  0  0  0  0  0
    8.5697    4.5812   23.7505 O   0  0  0  0  0  0  0  0  0  0  0  0
    8.2814    2.4955   24.9220 C   0  0  0  0  0  0  0  0  0  0  0  0
    8.9373    1.4133   24.2192 N   0  0  0  0  0  0  0  0  0  0  0  0
    8.2882    0.1230   24.0640 C   0  0  0  0  0  0  0  0  0  0  0  0
    8.4651   -0.4353   22.6407 C   0  0  2  0  0  0  0  0  0  0  0  0
    7.7091    0.4386   21.6181 C   0  0  0  0  0  0  0  0  0  0  0  0
    7.7963    1.6411   21.4758 O   0  0  0  0  0  0  0  0  0  0  0  0
    6.8839   -0.3661   20.8749 N   0  0  0  0  0  0  0  0  0  0  0  0
    6.1248    0.1187   19.7880 C   0  0  0  0  0  0  0  0  0  0  0  0
    6.4390   -0.2266   18.4963 C   0  0  0  0  0  0  0  0  0  0  0  0
    5.7720    0.2259   17.4078 N   0  0  0  0  0  0  0  0  0  0  0  0
    4.7512    1.0215   17.6064 C   0  0  0  0  0  0  0  0  0  0  0  0
    4.2995    1.4248   18.8949 C   0  0  0  0  0  0  0  0  0  0  0  0
    3.1727    2.2717   19.0620 C   0  0  0  0  0  0  0  0  0  0  0  0
    2.7395    2.6127   20.3146 C   0  0  0  0  0  0  0  0  0  0  0  0
    3.4074    2.1204   21.4592 C   0  0  0  0  0  0  0  0  0  0  0  0
    4.5063    1.3097   21.3246 C   0  0  0  0  0  0  0  0  0  0  0  0
    4.9928    0.9559   20.0309 C   0  0  0  0  0  0  0  0  0  0  0  0
    5.0044    0.9176   22.2052 H   0  0  0  0  0  0  0  0  0  0  0  0
    3.0546    2.4002   22.4508 H   0  0  0  0  0  0  0  0  0  0  0  0
    1.8821    3.2671   20.4448 H   0  0  0  0  0  0  0  0  0  0  0  0
    2.6654    2.6364   18.1746 H   0  0  0  0  0  0  0  0  0  0  0  0
    4.2208    1.3791   16.7243 H   0  0  0  0  0  0  0  0  0  0  0  0
    7.2906   -0.8768   18.2858 H   0  0  0  0  0  0  0  0  0  0  0  0
    7.0621   -1.7740   21.1185 C   0  0  0  0  0  0  0  0  0  0  0  0
    7.8287   -1.8466   22.4486 C   0  0  2  0  0  0  0  0  0  0  0  0
    6.9188   -2.3589   23.5806 C   0  0  0  0  0  0  0  0  0  0  0  0
    6.4519   -3.7088   23.3418 N   0  0  0  0  0  0  0  0  0  0  0  0
    7.1532   -4.8553   23.4922 C   0  0  0  0  0  0  0  0  0  0  0  0
    6.2699   -5.8855   23.2483 C   0  0  0  0  0  0  0  0  0  0  0  0
    5.0597   -5.2404   22.9198 C   0  0  0  0  0  0  0  0  0  0  0  0
    5.1859   -3.9219   22.9715 N   0  0  0  0  0  0  0  0  0  0  0  0
    4.0935   -5.6553   22.6467 H   0  0  0  0  0  0  0  0  0  0  0  0
    6.4269   -6.9500   23.3247 H   0  0  0  0  0  0  0  0  0  0  0  0
    8.2129   -4.8247   23.7365 H   0  0  0  0  0  0  0  0  0  0  0  0
    6.0189   -1.7542   23.6824 H   0  0  0  0  0  0  0  0  0  0  0  0
    7.4575   -2.3430   24.5315 H   0  0  0  0  0  0  0  0  0  0  0  0
    8.6370   -2.5818   22.3967 H   0  0  0  0  0  0  0  0  0  0  0  0
    7.6438   -2.2164   20.3111 H   0  0  0  0  0  0  0  0  0  0  0  0
    6.0966   -2.2804   21.1592 H   0  0  0  0  0  0  0  0  0  0  0  0
    9.9631   -0.4015   22.3477 C   0  0  0  0  0  0  0  0  0  0  0  0
   10.5370   -1.2783   21.4207 C   0  0  0  0  0  0  0  0  0  0  0  0
   11.9006   -1.2378   21.1830 C   0  0  0  0  0  0  0  0  0  0  0  0
   12.5690   -2.4052   20.0618 Cl  0  0  0  0  0  0  0  0  0  0  0  0
   12.7065   -0.2265   21.7180 C   0  0  0  0  0  0  0  0  0  0  0  0
   12.1331    0.6793   22.5887 C   0  0  0  0  0  0  0  0  0  0  0  0
   10.7901    0.5638   22.9329 C   0  0  0  0  0  0  0  0  0  0  0  0
   10.2515    1.5742   23.8911 C   0  0  0  0  0  0  0  0  0  0  0  0
   10.9429    2.4827   24.3399 O   0  0  0  0  0  0  0  0  0  0  0  0
   12.6802    1.5030   23.0351 H   0  0  0  0  0  0  0  0  0  0  0  0
   13.7505   -0.1422   21.4386 H   0  0  0  0  0  0  0  0  0  0  0  0
    9.9423   -1.9843   20.8457 H   0  0  0  0  0  0  0  0  0  0  0  0
    8.7265   -0.6061   24.7607 H   0  0  0  0  0  0  0  0  0  0  0  0
    7.2278    0.2345   24.2924 H   0  0  0  0  0  0  0  0  0  0  0  0
    9.0079    2.9193   25.6184 H   0  0  0  0  0  0  0  0  0  0  0  0
    7.4283    2.0708   25.4585 H   0  0  0  0  0  0  0  0  0  0  0  0
    6.0316    2.7368   23.6373 H   0  0  0  0  0  0  0  0  0  0  0  0
    6.8098    4.4756   21.6696 H   0  0  0  0  0  0  0  0  0  0  0  0
    5.1218    4.2989   22.2172 H   0  0  0  0  0  0  0  0  0  0  0  0
    6.1838    5.5541   22.9133 H   0  0  0  0  0  0  0  0  0  0  0  0
  1  2  1  0
  2  3  1  0
  3  4  2  0
  3  5  1  0
  5  6  1  0
  6  7  1  0
  8  7  1  1
  8  9  1  0
  9 10  2  0
  9 11  1  0
 11 12  1  0
 12 13  2  0
 13 14  1  0
 14 15  2  0
 15 16  1  0
 16 17  2  0
 17 18  1  0
 18 19  2  0
 19 20  1  0
 20 21  2  0
 20 22  1  0
 19 23  1  0
 18 24  1  0
 17 25  1  0
 15 26  1  0
 13 27  1  0
 11 28  1  0
 28 29  1  0
 29 30  1  0
 30 31  1  0
 31 32  1  0
 32 33  2  0
 33 34  1  0
 34 35  2  0
 34 36  1  0
 33 37  1  0
 32 38  1  0
 30 39  1  0
 30 40  1  0
 29 41  1  6
 28 42  1  0
 28 43  1  0
  8 44  1  0
 44 45  2  0
 45 46  1  0
 46 47  1  0
 46 48  2  0
 48 49  1  0
 49 50  2  0
 50 51  1  0
 51 52  2  0
 49 53  1  0
 48 54  1  0
 45 55  1  0
  7 56  1  0
  7 57  1  0
  5 58  1  0
  5 59  1  0
  2 60  1  0
  1 61  1  0
  1 62  1  0
  1 63  1  0
 51  6  1  0
 29  8  1  0
 35 31  1  0
 50 44  1  0
 21 12  1  0
 21 16  1  0
M  END
>  <cnnaffinities>  (87) 
[6.95314]

>  <score>  (87) 
6.95314

>  <index>  (87) 
87

>  <Smiles>  (87) 
C(N(C(=O)C(N1C([C@@]2(C(=O)N(c3c(nc(c4c(c(c(c(c34)[H])[H])[H])[H])[H])[H])C([C@@]2(C(n2c(c(c(n2)[H])[H])[H])([H])[H])[H])([H])[H])c2c(c(Cl)c(c(c2C1=O)[H])[H])[H])([H])[H])([H])[H])[H])([H])([H])[H]

>  <h>  (87) 
<NA>

>  <Training>  (87) 
True

>  <Success>  (87) 
True

>  <enamine_searched>  (87) 
False

>  <enamine_id>  (87) 
nan

$$$$

     RDKit          3D

 64 68  0  0  0  0  0  0  0  0999 V2000
    1.2713   -2.6180   26.5685 C   0  0  0  0  0  0  0  0  0  0  0  0
    2.7701   -2.3943   26.2718 C   0  0  0  0  0  0  0  0  0  0  0  0
    3.6360   -3.3437   27.1015 C   0  0  0  0  0  0  0  0  0  0  0  0
    3.4887   -3.3258   28.3170 O   0  0  0  0  0  0  0  0  0  0  0  0
    4.1924   -4.4700   26.5139 N   0  0  0  0  0  0  0  0  0  0  0  0
    4.0036   -5.7594   27.1844 C   0  0  0  0  0  0  0  0  0  0  0  0
    3.4617   -6.7689   26.1725 C   0  0  0  0  0  0  0  0  0  0  0  0
    4.5080   -6.9741   25.0796 C   0  0  0  0  0  0  0  0  0  0  0  0
    4.9619   -5.6470   24.5223 C   0  0  0  0  0  0  0  0  0  0  0  0
    5.6029   -5.6356   23.2797 C   0  0  0  0  0  0  0  0  0  0  0  0
    6.0782   -4.4343   22.7492 C   0  0  0  0  0  0  0  0  0  0  0  0
    5.9391   -3.2405   23.4611 C   0  0  0  0  0  0  0  0  0  0  0  0
    6.4553   -2.0599   22.9171 N   0  0  0  0  0  0  0  0  0  0  0  0
    7.3204   -1.2080   23.7371 C   0  0  0  0  0  0  0  0  0  0  0  0
    8.7753   -1.3102   23.2914 C   0  0  0  0  0  0  0  0  0  0  0  0
    9.5120   -2.5022   23.4500 C   0  0  0  0  0  0  0  0  0  0  0  0
   10.8738   -2.5407   23.1163 C   0  0  0  0  0  0  0  0  0  0  0  0
   11.5118   -1.3996   22.6619 C   0  0  0  0  0  0  0  0  0  0  0  0
   10.8197   -0.2077   22.4951 C   0  0  0  0  0  0  0  0  0  0  0  0
   11.8366    1.3644   22.0839 Br  0  0  0  0  0  0  0  0  0  0  0  0
    9.4416   -0.1779   22.7664 C   0  0  0  0  0  0  0  0  0  0  0  0
    8.9139    0.7476   22.5870 H   0  0  0  0  0  0  0  0  0  0  0  0
   12.5725   -1.4463   22.4642 H   0  0  0  0  0  0  0  0  0  0  0  0
   11.4828   -3.4236   23.2282 H   0  0  0  0  0  0  0  0  0  0  0  0
    9.0557   -3.3889   23.8748 H   0  0  0  0  0  0  0  0  0  0  0  0
    7.2272   -1.4788   24.7986 H   0  0  0  0  0  0  0  0  0  0  0  0
    6.9814   -0.1699   23.6734 H   0  0  0  0  0  0  0  0  0  0  0  0
    6.2069   -1.7416   21.5794 C   0  0  0  0  0  0  0  0  0  0  0  0
    5.4320   -2.4271   20.9171 O   0  0  0  0  0  0  0  0  0  0  0  0
    6.8725   -0.5223   20.9104 C   0  0  0  0  0  0  0  0  0  0  0  0
    6.0856    0.0761   19.7362 C   0  0  0  0  0  0  0  0  0  0  0  0
    6.4461   -0.1960   18.4022 C   0  0  0  0  0  0  0  0  0  0  0  0
    5.7890    0.2976   17.3380 N   0  0  0  0  0  0  0  0  0  0  0  0
    4.7262    1.0866   17.5556 C   0  0  0  0  0  0  0  0  0  0  0  0
    4.2850    1.4254   18.8372 C   0  0  0  0  0  0  0  0  0  0  0  0
    3.1767    2.2692   19.0207 C   0  0  0  0  0  0  0  0  0  0  0  0
    2.7685    2.6083   20.3140 C   0  0  0  0  0  0  0  0  0  0  0  0
    3.4574    2.1034   21.4223 C   0  0  0  0  0  0  0  0  0  0  0  0
    4.5558    1.2541   21.2384 C   0  0  0  0  0  0  0  0  0  0  0  0
    4.9794    0.9125   19.9501 C   0  0  0  0  0  0  0  0  0  0  0  0
    5.0967    0.8581   22.0920 H   0  0  0  0  0  0  0  0  0  0  0  0
    3.1422    2.3799   22.4238 H   0  0  0  0  0  0  0  0  0  0  0  0
    1.9212    3.2724   20.4586 H   0  0  0  0  0  0  0  0  0  0  0  0
    2.6364    2.6700   18.1659 H   0  0  0  0  0  0  0  0  0  0  0  0
    4.1922    1.4844   16.6971 H   0  0  0  0  0  0  0  0  0  0  0  0
    7.2965   -0.8455   18.2224 H   0  0  0  0  0  0  0  0  0  0  0  0
    7.8615   -0.8405   20.5675 H   0  0  0  0  0  0  0  0  0  0  0  0
    7.0111    0.2561   21.6686 H   0  0  0  0  0  0  0  0  0  0  0  0
    5.2867   -3.2488   24.6999 C   0  0  0  0  0  0  0  0  0  0  0  0
    4.7900   -4.4444   25.2411 C   0  0  0  0  0  0  0  0  0  0  0  0
    5.1720   -2.3170   25.2401 H   0  0  0  0  0  0  0  0  0  0  0  0
    6.5806   -4.4107   21.7867 H   0  0  0  0  0  0  0  0  0  0  0  0
    5.7295   -6.5719   22.7430 H   0  0  0  0  0  0  0  0  0  0  0  0
    5.3735   -7.4939   25.5010 H   0  0  0  0  0  0  0  0  0  0  0  0
    4.0963   -7.6001   24.2811 H   0  0  0  0  0  0  0  0  0  0  0  0
    3.2440   -7.7217   26.6636 H   0  0  0  0  0  0  0  0  0  0  0  0
    2.5310   -6.3909   25.7333 H   0  0  0  0  0  0  0  0  0  0  0  0
    4.9456   -6.1154   27.6171 H   0  0  0  0  0  0  0  0  0  0  0  0
    3.2771   -5.6556   27.9967 H   0  0  0  0  0  0  0  0  0  0  0  0
    2.9659   -2.5742   25.2136 H   0  0  0  0  0  0  0  0  0  0  0  0
    3.0481   -1.3662   26.5154 H   0  0  0  0  0  0  0  0  0  0  0  0
    0.6430   -1.9369   25.9839 H   0  0  0  0  0  0  0  0  0  0  0  0
    0.9759   -3.6442   26.3264 H   0  0  0  0  0  0  0  0  0  0  0  0
    1.0651   -2.4494   27.6311 H   0  0  0  0  0  0  0  0  0  0  0  0
  1  2  1  0
  2  3  1  0
  3  4  2  0
  3  5  1  0
  5  6  1  0
  6  7  1  0
  7  8  1  0
  8  9  1  0
  9 10  2  0
 10 11  1  0
 11 12  2  0
 12 13  1  0
 13 14  1  0
 14 15  1  0
 15 16  2  0
 16 17  1  0
 17 18  2  0
 18 19  1  0
 19 20  1  0
 19 21  2  0
 21 22  1  0
 18 23  1  0
 17 24  1  0
 16 25  1  0
 14 26  1  0
 14 27  1  0
 13 28  1  0
 28 29  2  0
 28 30  1  0
 30 31  1  0
 31 32  2  0
 32 33  1  0
 33 34  2  0
 34 35  1  0
 35 36  2  0
 36 37  1  0
 37 38  2  0
 38 39  1  0
 39 40  2  0
 39 41  1  0
 38 42  1  0
 37 43  1  0
 36 44  1  0
 34 45  1  0
 32 46  1  0
 30 47  1  0
 30 48  1  0
 12 49  1  0
 49 50  2  0
 49 51  1  0
 11 52  1  0
 10 53  1  0
  8 54  1  0
  8 55  1  0
  7 56  1  0
  7 57  1  0
  6 58  1  0
  6 59  1  0
  2 60  1  0
  2 61  1  0
  1 62  1  0
  1 63  1  0
  1 64  1  0
 50  5  1  0
 50  9  1  0
 21 15  1  0
 40 31  1  0
 40 35  1  0
M  END
>  <cnnaffinities>  (88) 
[6.86798]

>  <score>  (88) 
6.86798

>  <index>  (88) 
88

>  <Smiles>  (88) 
C(C(C(=O)N1C(C(C(c2c(c(c(N(C(c3c(c(c(c(Br)c3[H])[H])[H])[H])([H])[H])C(=O)C(c3c(nc(c4c(c(c(c(c34)[H])[H])[H])[H])[H])[H])([H])[H])c(c12)[H])[H])[H])([H])[H])([H])[H])([H])[H])([H])[H])([H])([H])[H]

>  <h>  (88) 
<NA>

>  <Training>  (88) 
True

>  <Success>  (88) 
True

>  <enamine_searched>  (88) 
False

>  <enamine_id>  (88) 
nan

$$$$

     RDKit          3D

 38 40  0  0  0  0  0  0  0  0999 V2000
    8.0559    1.6762   20.9667 O   0  0  0  0  0  0  0  0  0  0  0  0
    7.8875    0.6108   21.5298 C   0  0  0  0  0  0  0  0  0  0  0  0
    6.9518   -0.4560   20.9125 C   0  0  0  0  0  0  0  0  0  0  0  0
    6.1170    0.0872   19.7738 C   0  0  0  0  0  0  0  0  0  0  0  0
    6.4280   -0.2070   18.4723 C   0  0  0  0  0  0  0  0  0  0  0  0
    5.7614    0.2472   17.3779 N   0  0  0  0  0  0  0  0  0  0  0  0
    4.7332    1.0296   17.5809 C   0  0  0  0  0  0  0  0  0  0  0  0
    4.2886    1.4252   18.8695 C   0  0  0  0  0  0  0  0  0  0  0  0
    3.1709    2.2813   19.0444 C   0  0  0  0  0  0  0  0  0  0  0  0
    2.7667    2.6480   20.2991 C   0  0  0  0  0  0  0  0  0  0  0  0
    3.4671    2.1725   21.4303 C   0  0  0  0  0  0  0  0  0  0  0  0
    4.5537    1.3439   21.2871 C   0  0  0  0  0  0  0  0  0  0  0  0
    4.9980    0.9456   19.9996 C   0  0  0  0  0  0  0  0  0  0  0  0
    5.0844    0.9932   22.1668 H   0  0  0  0  0  0  0  0  0  0  0  0
    3.1421    2.4728   22.4220 H   0  0  0  0  0  0  0  0  0  0  0  0
    1.9138    3.3097   20.4352 H   0  0  0  0  0  0  0  0  0  0  0  0
    2.6465    2.6452   18.1633 H   0  0  0  0  0  0  0  0  0  0  0  0
    4.2000    1.3962   16.7000 H   0  0  0  0  0  0  0  0  0  0  0  0
    7.2732   -0.8555   18.2430 H   0  0  0  0  0  0  0  0  0  0  0  0
    6.2996   -0.8844   21.6866 H   0  0  0  0  0  0  0  0  0  0  0  0
    7.5687   -1.2878   20.5383 H   0  0  0  0  0  0  0  0  0  0  0  0
    8.4981    0.3264   22.7416 N   0  0  0  0  0  0  0  0  0  0  0  0
    8.8165   -1.0454   23.1443 C   0  0  0  0  0  0  0  0  0  0  0  0
    9.9943   -1.6535   22.4088 C   0  0  0  0  0  0  0  0  0  0  0  0
   11.2169   -1.1280   22.4432 C   0  0  0  0  0  0  0  0  0  0  0  0
   11.5862    0.1014   23.2437 C   0  0  0  0  0  0  0  0  0  0  0  0
   10.8024    1.3663   22.8580 C   0  0  0  0  0  0  0  0  0  0  0  0
    9.3454    1.3709   23.3253 C   0  0  0  0  0  0  0  0  0  0  0  0
    9.3347    1.2317   24.4110 H   0  0  0  0  0  0  0  0  0  0  0  0
    8.8846    2.3376   23.1149 H   0  0  0  0  0  0  0  0  0  0  0  0
   10.8163    1.4877   21.7738 H   0  0  0  0  0  0  0  0  0  0  0  0
   11.3145    2.2484   23.2720 H   0  0  0  0  0  0  0  0  0  0  0  0
   12.6583    0.2941   23.1282 H   0  0  0  0  0  0  0  0  0  0  0  0
   11.4270   -0.0911   24.3147 H   0  0  0  0  0  0  0  0  0  0  0  0
   11.9981   -1.5801   21.8310 H   0  0  0  0  0  0  0  0  0  0  0  0
    9.8138   -2.5473   21.8086 H   0  0  0  0  0  0  0  0  0  0  0  0
    9.0349   -1.0189   24.2174 H   0  0  0  0  0  0  0  0  0  0  0  0
    7.9273   -1.6684   23.0337 H   0  0  0  0  0  0  0  0  0  0  0  0
  1  2  2  0
  2  3  1  0
  3  4  1  0
  4  5  2  0
  5  6  1  0
  6  7  2  0
  7  8  1  0
  8  9  2  0
  9 10  1  0
 10 11  2  0
 11 12  1  0
 12 13  2  0
 12 14  1  0
 11 15  1  0
 10 16  1  0
  9 17  1  0
  7 18  1  0
  5 19  1  0
  3 20  1  0
  3 21  1  0
  2 22  1  0
 22 23  1  0
 23 24  1  0
 24 25  2  0
 25 26  1  0
 26 27  1  0
 27 28  1  0
 28 29  1  0
 28 30  1  0
 27 31  1  0
 27 32  1  0
 26 33  1  0
 26 34  1  0
 25 35  1  0
 24 36  1  0
 23 37  1  0
 23 38  1  0
 13  4  1  0
 28 22  1  0
 13  8  1  0
M  END
>  <cnnaffinities>  (89) 
[5.83828, 5.72612]

>  <score>  (89) 
5.83828

>  <index>  (89) 
89

>  <Smiles>  (89) 
O=C(C(c1c(nc(c2c(c(c(c(c12)[H])[H])[H])[H])[H])[H])([H])[H])N1C(C(=C(C(C(C1([H])[H])([H])[H])([H])[H])[H])[H])([H])[H]

>  <h>  (89) 
<NA>

>  <Training>  (89) 
True

>  <Success>  (89) 
True

>  <enamine_searched>  (89) 
False

>  <enamine_id>  (89) 
nan

$$$$

     RDKit          3D

 62 67  0  0  0  0  0  0  0  0999 V2000
    7.9536   -2.9609   23.2708 C   0  0  0  0  0  0  0  0  0  0  0  0
    8.1477   -1.8286   22.2524 C   0  0  1  0  0  0  0  0  0  0  0  0
    7.0084   -1.7615   21.2163 C   0  0  0  0  0  0  0  0  0  0  0  0
    6.9420   -0.3617   20.8437 N   0  0  0  0  0  0  0  0  0  0  0  0
    6.1473    0.1188   19.7733 C   0  0  0  0  0  0  0  0  0  0  0  0
    6.4442   -0.2199   18.4762 C   0  0  0  0  0  0  0  0  0  0  0  0
    5.7637    0.2263   17.3952 N   0  0  0  0  0  0  0  0  0  0  0  0
    4.7442    1.0216   17.6012 C   0  0  0  0  0  0  0  0  0  0  0  0
    4.2998    1.4225   18.8915 C   0  0  0  0  0  0  0  0  0  0  0  0
    3.1756    2.2760   19.0629 C   0  0  0  0  0  0  0  0  0  0  0  0
    2.7535    2.6213   20.3175 C   0  0  0  0  0  0  0  0  0  0  0  0
    3.4263    2.1160   21.4521 C   0  0  0  0  0  0  0  0  0  0  0  0
    4.5131    1.2909   21.3118 C   0  0  0  0  0  0  0  0  0  0  0  0
    5.0027    0.9455   20.0192 C   0  0  0  0  0  0  0  0  0  0  0  0
    5.0176    0.9002   22.1895 H   0  0  0  0  0  0  0  0  0  0  0  0
    3.0810    2.3961   22.4439 H   0  0  0  0  0  0  0  0  0  0  0  0
    1.9030    3.2862   20.4444 H   0  0  0  0  0  0  0  0  0  0  0  0
    2.6682    2.6462   18.1760 H   0  0  0  0  0  0  0  0  0  0  0  0
    4.2157    1.3848   16.7206 H   0  0  0  0  0  0  0  0  0  0  0  0
    7.2882   -0.8739   18.2590 H   0  0  0  0  0  0  0  0  0  0  0  0
    7.6310    0.4735   21.6886 C   0  0  0  0  0  0  0  0  0  0  0  0
    7.7076    1.6787   21.5596 O   0  0  0  0  0  0  0  0  0  0  0  0
    8.2674   -0.3750   22.8159 C   0  0  1  0  0  0  0  0  0  0  0  0
    7.4388   -0.2089   24.1175 C   0  0  0  0  0  0  0  0  0  0  0  0
    7.6407    1.0833   24.7524 N   0  0  0  0  0  0  0  0  0  0  0  0
    6.5072    1.8033   25.3198 C   0  0  0  0  0  0  0  0  0  0  0  0
    6.0011    2.9522   24.4550 C   0  0  0  0  0  0  0  0  0  0  0  0
    6.7686    4.2142   24.6923 N   0  0  0  0  0  4  0  0  0  0  0  0
    8.0800    4.4070   23.8865 C   0  0  0  0  0  0  0  0  0  0  0  0
    7.5197    5.6703   23.1692 C   0  0  0  0  0  0  0  0  0  0  0  0
    6.2236    5.4789   24.0205 C   0  0  0  0  0  0  0  0  0  0  0  0
    5.3132    5.2390   23.4724 H   0  0  0  0  0  0  0  0  0  0  0  0
    6.0043    6.2401   24.7634 H   0  0  0  0  0  0  0  0  0  0  0  0
    7.3809    5.5463   22.0886 H   0  0  0  0  0  0  0  0  0  0  0  0
    8.0679    6.6059   23.3209 H   0  0  0  0  0  0  0  0  0  0  0  0
    8.2457    3.5342   23.2599 H   0  0  0  0  0  0  0  0  0  0  0  0
    8.9042    4.5551   24.5782 H   0  0  0  0  0  0  0  0  0  0  0  0
    6.9168    4.3139   25.7137 H   0  0  0  0  0  0  0  0  0  0  0  0
    6.0823    2.7028   23.3925 H   0  0  0  0  0  0  0  0  0  0  0  0
    4.9592    3.1783   24.6915 H   0  0  0  0  0  0  0  0  0  0  0  0
    5.7050    1.0690   25.4304 H   0  0  0  0  0  0  0  0  0  0  0  0
    6.7877    2.1731   26.3121 H   0  0  0  0  0  0  0  0  0  0  0  0
    8.9072    1.4917   25.0392 C   0  0  0  0  0  0  0  0  0  0  0  0
    9.1639    2.3008   25.9247 O   0  0  0  0  0  0  0  0  0  0  0  0
    9.9794    0.9373   24.1341 C   0  0  0  0  0  0  0  0  0  0  0  0
   11.2808    1.3634   24.3615 C   0  0  0  0  0  0  0  0  0  0  0  0
   12.2943    1.0330   23.4853 C   0  0  0  0  0  0  0  0  0  0  0  0
   11.9858    0.2800   22.3528 C   0  0  0  0  0  0  0  0  0  0  0  0
   13.2671   -0.0547   21.2235 Cl  0  0  0  0  0  0  0  0  0  0  0  0
   10.7007   -0.1807   22.1219 C   0  0  0  0  0  0  0  0  0  0  0  0
    9.6851    0.0999   23.0536 C   0  0  0  0  0  0  0  0  0  0  0  0
   10.4920   -0.7269   21.2051 H   0  0  0  0  0  0  0  0  0  0  0  0
   13.3151    1.3621   23.6309 H   0  0  0  0  0  0  0  0  0  0  0  0
   11.4099    1.9730   25.2398 H   0  0  0  0  0  0  0  0  0  0  0  0
    7.7211   -1.0148   24.8142 H   0  0  0  0  0  0  0  0  0  0  0  0
    6.3766   -0.3004   23.8712 H   0  0  0  0  0  0  0  0  0  0  0  0
    7.2085   -2.3607   20.3296 H   0  0  0  0  0  0  0  0  0  0  0  0
    6.0558   -2.1082   21.6465 H   0  0  0  0  0  0  0  0  0  0  0  0
    9.0816   -2.0246   21.7188 H   0  0  0  0  0  0  0  0  0  0  0  0
    6.9836   -2.8761   23.7788 H   0  0  0  0  0  0  0  0  0  0  0  0
    7.9752   -3.9391   22.7751 H   0  0  0  0  0  0  0  0  0  0  0  0
    8.7352   -2.9619   24.0420 H   0  0  0  0  0  0  0  0  0  0  0  0
  1  2  1  0
  2  3  1  0
  3  4  1  0
  4  5  1  0
  5  6  2  0
  6  7  1  0
  7  8  2  0
  8  9  1  0
  9 10  2  0
 10 11  1  0
 11 12  2  0
 12 13  1  0
 13 14  2  0
 13 15  1  0
 12 16  1  0
 11 17  1  0
 10 18  1  0
  8 19  1  0
  6 20  1  0
  4 21  1  0
 21 22  2  0
 21 23  1  0
 23 24  1  1
 24 25  1  0
 25 26  1  0
 26 27  1  0
 27 28  1  0
 28 29  1  0
 29 30  1  0
 30 31  1  0
 31 32  1  0
 31 33  1  0
 30 34  1  0
 30 35  1  0
 29 36  1  0
 29 37  1  0
 28 38  1  0
 27 39  1  0
 27 40  1  0
 26 41  1  0
 26 42  1  0
 25 43  1  0
 43 44  2  0
 43 45  1  0
 45 46  2  0
 46 47  1  0
 47 48  2  0
 48 49  1  0
 48 50  1  0
 50 51  2  0
 50 52  1  0
 47 53  1  0
 46 54  1  0
 24 55  1  0
 24 56  1  0
  3 57  1  0
  3 58  1  0
  2 59  1  6
  1 60  1  0
  1 61  1  0
  1 62  1  0
 23  2  1  0
 31 28  1  0
 51 45  1  0
 14  5  1  0
 51 23  1  0
 14  9  1  0
M  CHG  1  28   1
M  END
>  <cnnaffinities>  (90) 
[6.64944]

>  <score>  (90) 
6.64944

>  <index>  (90) 
90

>  <Smiles>  (90) 
C([C@]1(C(N(c2c(nc(c3c(c(c(c(c23)[H])[H])[H])[H])[H])[H])C(=O)[C@]21C(N(C(C([N+]1(C(C(C1([H])[H])([H])[H])([H])[H])[H])([H])[H])([H])[H])C(=O)c1c(c(c(Cl)c(c21)[H])[H])[H])([H])[H])([H])[H])[H])([H])([H])[H]

>  <h>  (90) 
<NA>

>  <Training>  (90) 
True

>  <Success>  (90) 
True

>  <enamine_searched>  (90) 
False

>  <enamine_id>  (90) 
nan

$$$$

     RDKit          3D

 56 61  0  0  0  0  0  0  0  0999 V2000
    7.0663   -2.4161   23.5074 C   0  0  0  0  0  0  0  0  0  0  0  0
    7.9524   -1.8411   22.3972 C   0  0  1  0  0  0  0  0  0  0  0  0
    7.2068   -1.7543   21.0501 C   0  0  0  0  0  0  0  0  0  0  0  0
    6.8772   -0.3537   20.9070 N   0  0  0  0  0  0  0  0  0  0  0  0
    6.1222    0.1139   19.8035 C   0  0  0  0  0  0  0  0  0  0  0  0
    6.4438   -0.2284   18.5125 C   0  0  0  0  0  0  0  0  0  0  0  0
    5.7800    0.2201   17.4191 N   0  0  0  0  0  0  0  0  0  0  0  0
    4.7547    1.0116   17.6116 C   0  0  0  0  0  0  0  0  0  0  0  0
    4.2945    1.4128   18.8966 C   0  0  0  0  0  0  0  0  0  0  0  0
    3.1732    2.2663   19.0633 C   0  0  0  0  0  0  0  0  0  0  0  0
    2.7507    2.6208   20.3139 C   0  0  0  0  0  0  0  0  0  0  0  0
    3.4209    2.1313   21.4588 C   0  0  0  0  0  0  0  0  0  0  0  0
    4.4958    1.2898   21.3245 C   0  0  0  0  0  0  0  0  0  0  0  0
    4.9796    0.9396   20.0348 C   0  0  0  0  0  0  0  0  0  0  0  0
    4.9924    0.8798   22.1998 H   0  0  0  0  0  0  0  0  0  0  0  0
    3.0947    2.4421   22.4478 H   0  0  0  0  0  0  0  0  0  0  0  0
    1.8962    3.2807   20.4325 H   0  0  0  0  0  0  0  0  0  0  0  0
    2.6710    2.6350   18.1735 H   0  0  0  0  0  0  0  0  0  0  0  0
    4.2292    1.3732   16.7277 H   0  0  0  0  0  0  0  0  0  0  0  0
    7.2960   -0.8761   18.3064 H   0  0  0  0  0  0  0  0  0  0  0  0
    7.7303    0.4672   21.6277 C   0  0  0  0  0  0  0  0  0  0  0  0
    7.8443    1.6597   21.4593 O   0  0  0  0  0  0  0  0  0  0  0  0
    8.5245   -0.4056   22.6376 C   0  0  1  0  0  0  0  0  0  0  0  0
    8.3312    0.0736   24.0949 C   0  0  0  0  0  0  0  0  0  0  0  0
    8.9582    1.3522   24.3627 N   0  0  0  0  0  0  0  0  0  0  0  0
    8.2072    2.3728   25.0792 C   0  0  0  0  0  0  0  0  0  0  0  0
    7.4135    3.3138   24.1882 C   0  0  0  0  0  0  0  0  0  0  0  0
    6.0321    3.3073   23.8584 C   0  0  0  0  0  0  0  0  0  0  0  0
    5.6981    4.2929   23.0344 N   0  0  0  0  0  0  0  0  0  0  0  0
    6.8500    4.9465   22.8302 N   0  0  0  0  0  0  0  0  0  0  0  0
    7.8998    4.3978   23.4895 C   0  0  0  0  0  0  0  0  0  0  0  0
    8.8934    4.8186   23.4146 H   0  0  0  0  0  0  0  0  0  0  0  0
    6.8865    5.6820   22.1416 H   0  0  0  0  0  0  0  0  0  0  0  0
    5.2551    2.6083   24.1505 H   0  0  0  0  0  0  0  0  0  0  0  0
    8.9465    2.9288   25.6641 H   0  0  0  0  0  0  0  0  0  0  0  0
    7.5412    1.8569   25.7812 H   0  0  0  0  0  0  0  0  0  0  0  0
   10.1766    1.7053   23.8582 C   0  0  0  0  0  0  0  0  0  0  0  0
   10.7432    2.7426   24.1895 O   0  0  0  0  0  0  0  0  0  0  0  0
   10.7785    0.7447   22.8983 C   0  0  0  0  0  0  0  0  0  0  0  0
   12.1255    0.9014   22.5706 C   0  0  0  0  0  0  0  0  0  0  0  0
   12.7476   -0.0250   21.7570 C   0  0  0  0  0  0  0  0  0  0  0  0
   11.9896   -1.0841   21.2605 C   0  0  0  0  0  0  0  0  0  0  0  0
   12.5249   -1.9789   20.4104 F   0  0  0  0  0  0  0  0  0  0  0  0
   10.6388   -1.1891   21.4930 C   0  0  0  0  0  0  0  0  0  0  0  0
   10.0185   -0.2998   22.3626 C   0  0  0  0  0  0  0  0  0  0  0  0
   10.0846   -1.9167   20.9148 H   0  0  0  0  0  0  0  0  0  0  0  0
   13.7863    0.0748   21.4697 H   0  0  0  0  0  0  0  0  0  0  0  0
   12.6360    1.7773   22.9585 H   0  0  0  0  0  0  0  0  0  0  0  0
    8.7693   -0.6884   24.7506 H   0  0  0  0  0  0  0  0  0  0  0  0
    7.2700    0.1619   24.3350 H   0  0  0  0  0  0  0  0  0  0  0  0
    6.2948   -2.3602   21.0272 H   0  0  0  0  0  0  0  0  0  0  0  0
    7.8585   -2.0819   20.2319 H   0  0  0  0  0  0  0  0  0  0  0  0
    8.7866   -2.5420   22.3216 H   0  0  0  0  0  0  0  0  0  0  0  0
    7.6156   -2.5018   24.4503 H   0  0  0  0  0  0  0  0  0  0  0  0
    6.1722   -1.8104   23.6841 H   0  0  0  0  0  0  0  0  0  0  0  0
    6.7427   -3.4271   23.2388 H   0  0  0  0  0  0  0  0  0  0  0  0
  1  2  1  0
  2  3  1  0
  3  4  1  0
  4  5  1  0
  5  6  2  0
  6  7  1  0
  7  8  2  0
  8  9  1  0
  9 10  2  0
 10 11  1  0
 11 12  2  0
 12 13  1  0
 13 14  2  0
 13 15  1  0
 12 16  1  0
 11 17  1  0
 10 18  1  0
  8 19  1  0
  6 20  1  0
  4 21  1  0
 21 22  2  0
 21 23  1  0
 23 24  1  1
 24 25  1  0
 25 26  1  0
 26 27  1  0
 27 28  1  0
 28 29  2  0
 29 30  1  0
 30 31  1  0
 31 32  1  0
 30 33  1  0
 28 34  1  0
 26 35  1  0
 26 36  1  0
 25 37  1  0
 37 38  2  0
 37 39  1  0
 39 40  2  0
 40 41  1  0
 41 42  2  0
 42 43  1  0
 42 44  1  0
 44 45  2  0
 44 46  1  0
 41 47  1  0
 40 48  1  0
 24 49  1  0
 24 50  1  0
  3 51  1  0
  3 52  1  0
  2 53  1  6
  1 54  1  0
  1 55  1  0
  1 56  1  0
 23  2  1  0
 31 27  2  0
 45 39  1  0
 14  5  1  0
 45 23  1  0
 14  9  1  0
M  END
>  <cnnaffinities>  (91) 
[6.65751, 6.50793, 6.48054, 6.67284]

>  <score>  (91) 
6.65751

>  <index>  (91) 
91

>  <Smiles>  (91) 
C([C@]1(C(N(c2c(nc(c3c(c(c(c(c23)[H])[H])[H])[H])[H])[H])C(=O)[C@]21C(N(C(c1c(nn(c1[H])[H])[H])([H])[H])C(=O)c1c(c(c(F)c(c21)[H])[H])[H])([H])[H])([H])[H])[H])([H])([H])[H]

>  <h>  (91) 
<NA>

>  <Training>  (91) 
True

>  <Success>  (91) 
True

>  <enamine_searched>  (91) 
False

>  <enamine_id>  (91) 
nan

$$$$

     RDKit          3D

 47 50  0  0  0  0  0  0  0  0999 V2000
    8.1895    1.5306   20.6002 O   0  0  0  0  0  0  0  0  0  0  0  0
    7.9425    0.5306   21.2454 C   0  0  0  0  0  0  0  0  0  0  0  0
    6.8507   -0.4570   20.8181 C   0  0  0  0  0  0  0  0  0  0  0  0
    6.0336    0.0817   19.6942 C   0  0  0  0  0  0  0  0  0  0  0  0
    6.3709   -0.1821   18.3941 C   0  0  0  0  0  0  0  0  0  0  0  0
    5.7147    0.3012   17.3110 N   0  0  0  0  0  0  0  0  0  0  0  0
    4.6869    1.0810   17.5356 C   0  0  0  0  0  0  0  0  0  0  0  0
    4.2361    1.4517   18.8310 C   0  0  0  0  0  0  0  0  0  0  0  0
    3.1289    2.3116   19.0306 C   0  0  0  0  0  0  0  0  0  0  0  0
    2.7433    2.6655   20.2937 C   0  0  0  0  0  0  0  0  0  0  0  0
    3.4554    2.1833   21.4170 C   0  0  0  0  0  0  0  0  0  0  0  0
    4.5314    1.3488   21.2515 C   0  0  0  0  0  0  0  0  0  0  0  0
    4.9394    0.9536   19.9484 C   0  0  0  0  0  0  0  0  0  0  0  0
    5.0846    0.9985   22.1195 H   0  0  0  0  0  0  0  0  0  0  0  0
    3.1540    2.4781   22.4191 H   0  0  0  0  0  0  0  0  0  0  0  0
    1.9018    3.3356   20.4441 H   0  0  0  0  0  0  0  0  0  0  0  0
    2.6084    2.6899   18.1555 H   0  0  0  0  0  0  0  0  0  0  0  0
    4.1561    1.4667   16.6637 H   0  0  0  0  0  0  0  0  0  0  0  0
    7.2283   -0.8192   18.1787 H   0  0  0  0  0  0  0  0  0  0  0  0
    7.3573   -1.3809   20.4971 H   0  0  0  0  0  0  0  0  0  0  0  0
    6.2196   -0.7151   21.6782 H   0  0  0  0  0  0  0  0  0  0  0  0
    8.7091    0.2256   22.3855 N   0  0  0  0  0  0  0  0  0  0  0  0
    9.9556    0.9183   22.3973 C   0  0  0  0  0  0  0  0  0  0  0  0
   10.3209    1.8350   23.3165 C   0  0  0  0  0  0  0  0  0  0  0  0
    9.8074    1.7783   24.6842 C   0  0  0  0  0  0  0  0  0  0  0  0
    9.1795    0.6830   25.1128 C   0  0  0  0  0  0  0  0  0  0  0  0
   10.0438   -0.9820   24.4582 C   0  0  0  0  0  0  0  0  0  0  0  0
    9.8540   -1.0135   24.6928 C   0  0  0  0  0  0  0  0  0  0  0  0
    8.3709   -0.8947   23.2749 C   0  0  1  0  0  0  0  0  0  0  0  0
    7.1359   -0.7432   24.1024 C   0  0  0  0  0  0  0  0  0  0  0  0
    6.4976    0.4863   24.2664 C   0  0  0  0  0  0  0  0  0  0  0  0
    5.3255    0.6066   25.0127 C   0  0  0  0  0  0  0  0  0  0  0  0
    4.7380   -0.5270   25.5692 C   0  0  0  0  0  0  0  0  0  0  0  0
    5.3221   -1.7736   25.3554 C   0  0  0  0  0  0  0  0  0  0  0  0
    6.5029   -1.8778   24.6236 C   0  0  0  0  0  0  0  0  0  0  0  0
    6.9267   -2.8661   24.4612 H   0  0  0  0  0  0  0  0  0  0  0  0
    4.8708   -2.6753   25.7636 H   0  0  0  0  0  0  0  0  0  0  0  0
    3.8290   -0.4341   26.1611 H   0  0  0  0  0  0  0  0  0  0  0  0
    4.8958    1.5906   25.1805 H   0  0  0  0  0  0  0  0  0  0  0  0
    6.9651    1.3587   23.8215 H   0  0  0  0  0  0  0  0  0  0  0  0
    8.2026   -1.7792   22.6253 H   0  0  0  0  0  0  0  0  0  0  0  0
    9.9700   -2.1451   24.2026 H   0  0  0  0  0  0  0  0  0  0  0  0
   10.9724   -0.7978   25.1815 H   0  0  0  0  0  0  0  0  0  0  0  0
    8.3839    0.7337   25.8613 H   0  0  0  0  0  0  0  0  0  0  0  0
    9.9221    2.6615   25.3184 H   0  0  0  0  0  0  0  0  0  0  0  0
   11.0147    2.6279   23.0645 H   0  0  0  0  0  0  0  0  0  0  0  0
   10.5659    0.7348   21.5171 H   0  0  0  0  0  0  0  0  0  0  0  0
  1  2  2  0
  2  3  1  0
  3  4  1  0
  4  5  2  0
  5  6  1  0
  6  7  2  0
  7  8  1  0
  8  9  2  0
  9 10  1  0
 10 11  2  0
 11 12  1  0
 12 13  2  0
 12 14  1  0
 11 15  1  0
 10 16  1  0
  9 17  1  0
  7 18  1  0
  5 19  1  0
  3 20  1  0
  3 21  1  0
  2 22  1  0
 22 23  1  0
 23 24  2  3
 24 25  1  0
 25 26  2  3
 26 27  1  0
 27 28  2  3
 28 29  1  0
 29 30  1  0
 30 31  2  0
 31 32  1  0
 32 33  2  0
 33 34  1  0
 34 35  2  0
 35 36  1  0
 34 37  1  0
 33 38  1  0
 32 39  1  0
 31 40  1  0
 29 41  1  6
 28 42  1  0
 27 43  1  0
 26 44  1  0
 25 45  1  0
 24 46  1  0
 23 47  1  0
 13  4  1  0
 29 22  1  0
 35 30  1  0
 13  8  1  0
M  END
>  <cnnaffinities>  (92) 
[6.16379]

>  <score>  (92) 
6.16379

>  <index>  (92) 
92

>  <Smiles>  (92) 
O=C(C(c1c(nc(c2c(c(c(c(c12)[H])[H])[H])[H])[H])[H])([H])[H])N1C(=C(C(=C(C(=C([C@]1(c1c(c(c(c(c1[H])[H])[H])[H])[H])[H])[H])[H])[H])[H])[H])[H]

>  <h>  (92) 
<NA>

>  <Training>  (92) 
True

>  <Success>  (92) 
True

>  <enamine_searched>  (92) 
False

>  <enamine_id>  (92) 
nan

$$$$

     RDKit          3D

 58 62  0  0  0  0  0  0  0  0999 V2000
    6.5440    4.4916   21.3821 C   0  0  0  0  0  0  0  0  0  0  0  0
    6.9198    3.5012   22.3959 N   0  0  0  0  0  4  0  0  0  0  0  0
    7.9233    3.9586   23.3817 C   0  0  0  0  0  0  0  0  0  0  0  0
    8.1036    2.9280   24.4986 C   0  0  0  0  0  0  0  0  0  0  0  0
    8.7189    1.6999   24.0097 N   0  0  0  0  0  0  0  0  0  0  0  0
    7.9778    0.4558   23.8783 C   0  0  0  0  0  0  0  0  0  0  0  0
    8.3720   -0.3469   22.6105 C   0  0  2  0  0  0  0  0  0  0  0  0
    7.7932    0.3625   21.3789 C   0  0  0  0  0  0  0  0  0  0  0  0
    8.0316    1.5106   21.0193 O   0  0  0  0  0  0  0  0  0  0  0  0
    6.8737   -0.4444   20.7777 N   0  0  0  0  0  0  0  0  0  0  0  0
    6.0963    0.0944   19.7233 C   0  0  0  0  0  0  0  0  0  0  0  0
    6.4413   -0.1901   18.4305 C   0  0  0  0  0  0  0  0  0  0  0  0
    5.7548    0.2620   17.3576 N   0  0  0  0  0  0  0  0  0  0  0  0
    4.7244    1.0367   17.5870 C   0  0  0  0  0  0  0  0  0  0  0  0
    4.2989    1.4456   18.8828 C   0  0  0  0  0  0  0  0  0  0  0  0
    3.1961    2.3191   19.0715 C   0  0  0  0  0  0  0  0  0  0  0  0
    2.8162    2.6999   20.3290 C   0  0  0  0  0  0  0  0  0  0  0  0
    3.5208    2.2308   21.4582 C   0  0  0  0  0  0  0  0  0  0  0  0
    4.5977    1.3887   21.3029 C   0  0  0  0  0  0  0  0  0  0  0  0
    5.0119    0.9700   20.0033 C   0  0  0  0  0  0  0  0  0  0  0  0
    5.1234    1.0249   22.1831 H   0  0  0  0  0  0  0  0  0  0  0  0
    3.2090    2.5422   22.4522 H   0  0  0  0  0  0  0  0  0  0  0  0
    1.9717    3.3694   20.4646 H   0  0  0  0  0  0  0  0  0  0  0  0
    2.6719    2.6696   18.1878 H   0  0  0  0  0  0  0  0  0  0  0  0
    4.1672    1.3920   16.7191 H   0  0  0  0  0  0  0  0  0  0  0  0
    7.3153   -0.8078   18.2306 H   0  0  0  0  0  0  0  0  0  0  0  0
    6.4316   -1.5264   21.6418 C   0  0  0  0  0  0  0  0  0  0  0  0
    7.6634   -1.7314   22.5308 C   0  0  2  0  0  0  0  0  0  0  0  0
    7.3982   -2.4204   23.8577 C   0  0  0  0  0  0  0  0  0  0  0  0
    6.9627   -3.4112   23.6996 H   0  0  0  0  0  0  0  0  0  0  0  0
    8.3315   -2.5376   24.4200 H   0  0  0  0  0  0  0  0  0  0  0  0
    6.7016   -1.8422   24.4730 H   0  0  0  0  0  0  0  0  0  0  0  0
    8.3154   -2.3782   21.9470 H   0  0  0  0  0  0  0  0  0  0  0  0
    6.1827   -2.4138   21.0515 H   0  0  0  0  0  0  0  0  0  0  0  0
    5.5443   -1.2441   22.2299 H   0  0  0  0  0  0  0  0  0  0  0  0
    9.8841   -0.4164   22.5185 C   0  0  0  0  0  0  0  0  0  0  0  0
   10.5150   -1.3691   21.7084 C   0  0  0  0  0  0  0  0  0  0  0  0
   11.8737   -1.3149   21.5011 C   0  0  0  0  0  0  0  0  0  0  0  0
   12.3890   -2.1830   20.6089 F   0  0  0  0  0  0  0  0  0  0  0  0
   12.6736   -0.3725   22.1476 C   0  0  0  0  0  0  0  0  0  0  0  0
   12.0659    0.5446   22.9789 C   0  0  0  0  0  0  0  0  0  0  0  0
   10.6773    0.5683   23.1205 C   0  0  0  0  0  0  0  0  0  0  0  0
   10.0755    1.7283   23.8518 C   0  0  0  0  0  0  0  0  0  0  0  0
   10.7692    2.6555   24.2521 O   0  0  0  0  0  0  0  0  0  0  0  0
   12.6694    1.2770   23.5078 H   0  0  0  0  0  0  0  0  0  0  0  0
   13.7447   -0.3371   21.9903 H   0  0  0  0  0  0  0  0  0  0  0  0
    9.9821   -2.1572   21.1901 H   0  0  0  0  0  0  0  0  0  0  0  0
    8.1690   -0.1631   24.7636 H   0  0  0  0  0  0  0  0  0  0  0  0
    6.9058    0.6725   23.8302 H   0  0  0  0  0  0  0  0  0  0  0  0
    7.1414    2.6830   24.9608 H   0  0  0  0  0  0  0  0  0  0  0  0
    8.7708    3.3279   25.2658 H   0  0  0  0  0  0  0  0  0  0  0  0
    8.8899    4.1022   22.8860 H   0  0  0  0  0  0  0  0  0  0  0  0
    7.6201    4.9248   23.8006 H   0  0  0  0  0  0  0  0  0  0  0  0
    6.0547    3.2205   22.8875 H   0  0  0  0  0  0  0  0  0  0  0  0
    7.2959    2.6622   21.9167 H   0  0  0  0  0  0  0  0  0  0  0  0
    5.6512    4.1453   20.8527 H   0  0  0  0  0  0  0  0  0  0  0  0
    7.3544    4.6294   20.6631 H   0  0  0  0  0  0  0  0  0  0  0  0
    6.3292    5.4592   21.8470 H   0  0  0  0  0  0  0  0  0  0  0  0
  1  2  1  0
  2  3  1  0
  3  4  1  0
  4  5  1  0
  5  6  1  0
  7  6  1  1
  7  8  1  0
  8  9  2  0
  8 10  1  0
 10 11  1  0
 11 12  2  0
 12 13  1  0
 13 14  2  0
 14 15  1  0
 15 16  2  0
 16 17  1  0
 17 18  2  0
 18 19  1  0
 19 20  2  0
 19 21  1  0
 18 22  1  0
 17 23  1  0
 16 24  1  0
 14 25  1  0
 12 26  1  0
 10 27  1  0
 27 28  1  0
 28 29  1  0
 29 30  1  0
 29 31  1  0
 29 32  1  0
 28 33  1  6
 27 34  1  0
 27 35  1  0
  7 36  1  0
 36 37  2  0
 37 38  1  0
 38 39  1  0
 38 40  2  0
 40 41  1  0
 41 42  2  0
 42 43  1  0
 43 44  2  0
 41 45  1  0
 40 46  1  0
 37 47  1  0
  6 48  1  0
  6 49  1  0
  4 50  1  0
  4 51  1  0
  3 52  1  0
  3 53  1  0
  2 54  1  0
  2 55  1  0
  1 56  1  0
  1 57  1  0
  1 58  1  0
 43  5  1  0
 28  7  1  0
 42 36  1  0
 20 11  1  0
 20 15  1  0
M  CHG  1   2   1
M  END
>  <cnnaffinities>  (93) 
[6.38771]

>  <score>  (93) 
6.38771

>  <index>  (93) 
93

>  <Smiles>  (93) 
C([N+](C(C(N1C([C@@]2(C(=O)N(c3c(nc(c4c(c(c(c(c34)[H])[H])[H])[H])[H])[H])C([C@@]2(C([H])([H])[H])[H])([H])[H])c2c(c(F)c(c(c2C1=O)[H])[H])[H])([H])[H])([H])[H])([H])[H])([H])[H])([H])([H])[H]

>  <h>  (93) 
<NA>

>  <Training>  (93) 
True

>  <Success>  (93) 
True

>  <enamine_searched>  (93) 
False

>  <enamine_id>  (93) 
nan

$$$$

     RDKit          3D

 65 69  0  0  0  0  0  0  0  0999 V2000
    9.9944    7.3252   26.6599 C   0  0  0  0  0  0  0  0  0  0  0  0
    8.7379    7.3752   25.7745 C   0  0  0  0  0  0  0  0  0  0  0  0
    8.3936    5.9758   25.3329 C   0  0  0  0  0  0  0  0  0  0  0  0
    8.0103    5.1248   26.0889 O   0  0  0  0  0  0  0  0  0  0  0  0
    8.5277    5.6622   23.8400 N   0  0  2  0  0  4  0  0  0  0  0  0
    7.1872    5.8587   23.0713 C   0  0  0  0  0  0  0  0  0  0  0  0
    6.2873    4.6671   23.3549 C   0  0  0  0  0  0  0  0  0  0  0  0
    6.9195    3.3661   22.8454 C   0  0  0  0  0  0  0  0  0  0  0  0
    8.3926    3.2013   23.1931 C   0  0  0  0  0  0  0  0  0  0  0  0
    9.0488    1.9534   23.1107 C   0  0  0  0  0  0  0  0  0  0  0  0
    8.3275    0.7733   22.7148 N   0  0  0  0  0  0  0  0  0  0  0  0
    8.0837   -0.2491   23.7298 C   0  0  0  0  0  0  0  0  0  0  0  0
    6.9218    0.0864   24.6457 C   0  0  0  0  0  0  0  0  0  0  0  0
    5.6836   -0.5444   24.5230 C   0  0  0  0  0  0  0  0  0  0  0  0
    4.6074   -0.1763   25.3262 C   0  0  0  0  0  0  0  0  0  0  0  0
    4.7459    0.8277   26.2753 C   0  0  0  0  0  0  0  0  0  0  0  0
    5.9872    1.4350   26.4125 C   0  0  0  0  0  0  0  0  0  0  0  0
    6.1787    2.6959   27.5981 Cl  0  0  0  0  0  0  0  0  0  0  0  0
    7.0723    1.0716   25.6229 C   0  0  0  0  0  0  0  0  0  0  0  0
    8.0206    1.5915   25.7455 H   0  0  0  0  0  0  0  0  0  0  0  0
    3.9171    1.1379   26.9041 H   0  0  0  0  0  0  0  0  0  0  0  0
    3.6522   -0.6767   25.2036 H   0  0  0  0  0  0  0  0  0  0  0  0
    5.5460   -1.3391   23.7934 H   0  0  0  0  0  0  0  0  0  0  0  0
    7.9236   -1.2136   23.2374 H   0  0  0  0  0  0  0  0  0  0  0  0
    8.9957   -0.3213   24.3343 H   0  0  0  0  0  0  0  0  0  0  0  0
    7.9912    0.6819   21.3709 C   0  0  0  0  0  0  0  0  0  0  0  0
    8.4944    1.4311   20.5547 O   0  0  0  0  0  0  0  0  0  0  0  0
    6.9799   -0.3918   20.9162 C   0  0  0  0  0  0  0  0  0  0  0  0
    6.1216    0.0968   19.7739 C   0  0  0  0  0  0  0  0  0  0  0  0
    6.4299   -0.2065   18.4703 C   0  0  0  0  0  0  0  0  0  0  0  0
    5.7583    0.2427   17.3799 N   0  0  0  0  0  0  0  0  0  0  0  0
    4.7339    1.0294   17.5837 C   0  0  0  0  0  0  0  0  0  0  0  0
    4.2875    1.4246   18.8741 C   0  0  0  0  0  0  0  0  0  0  0  0
    3.1768    2.2881   19.0487 C   0  0  0  0  0  0  0  0  0  0  0  0
    2.7751    2.6558   20.3031 C   0  0  0  0  0  0  0  0  0  0  0  0
    3.4670    2.1698   21.4347 C   0  0  0  0  0  0  0  0  0  0  0  0
    4.5413    1.3232   21.2931 C   0  0  0  0  0  0  0  0  0  0  0  0
    4.9918    0.9377   20.0025 C   0  0  0  0  0  0  0  0  0  0  0  0
    5.0471    0.9575   22.1858 H   0  0  0  0  0  0  0  0  0  0  0  0
    3.1544    2.4791   22.4279 H   0  0  0  0  0  0  0  0  0  0  0  0
    1.9301    3.3240   20.4343 H   0  0  0  0  0  0  0  0  0  0  0  0
    2.6646    2.6527   18.1628 H   0  0  0  0  0  0  0  0  0  0  0  0
    4.2034    1.3922   16.7013 H   0  0  0  0  0  0  0  0  0  0  0  0
    7.2721   -0.8563   18.2346 H   0  0  0  0  0  0  0  0  0  0  0  0
    6.3723   -0.7390   21.7595 H   0  0  0  0  0  0  0  0  0  0  0  0
    7.5701   -1.2495   20.5659 H   0  0  0  0  0  0  0  0  0  0  0  0
   10.4038    1.8341   23.4162 C   0  0  0  0  0  0  0  0  0  0  0  0
   11.1493    2.9524   23.7833 C   0  0  0  0  0  0  0  0  0  0  0  0
   10.5174    4.1849   23.8738 C   0  0  0  0  0  0  0  0  0  0  0  0
    9.1569    4.2944   23.5914 C   0  0  0  0  0  0  0  0  0  0  0  0
   11.0609    5.0779   24.1666 H   0  0  0  0  0  0  0  0  0  0  0  0
   12.2118    2.8521   23.9930 H   0  0  0  0  0  0  0  0  0  0  0  0
   10.8737    0.8534   23.3432 H   0  0  0  0  0  0  0  0  0  0  0  0
    6.8313    3.3308   21.7534 H   0  0  0  0  0  0  0  0  0  0  0  0
    6.3568    2.5100   23.2293 H   0  0  0  0  0  0  0  0  0  0  0  0
    5.3170    4.8212   22.8684 H   0  0  0  0  0  0  0  0  0  0  0  0
    6.1138    4.6083   24.4366 H   0  0  0  0  0  0  0  0  0  0  0  0
    7.4188    5.9208   22.0058 H   0  0  0  0  0  0  0  0  0  0  0  0
    6.7215    6.8002   23.3842 H   0  0  0  0  0  0  0  0  0  0  0  0
    9.2023    6.3471   23.4532 H   0  0  0  0  0  0  0  0  0  0  0  0
    7.8717    7.7356   26.3406 H   0  0  0  0  0  0  0  0  0  0  0  0
    8.8679    8.0273   24.9056 H   0  0  0  0  0  0  0  0  0  0  0  0
   10.8489    6.9432   26.0857 H   0  0  0  0  0  0  0  0  0  0  0  0
   10.2556    8.3106   27.0625 H   0  0  0  0  0  0  0  0  0  0  0  0
    9.8287    6.6314   27.4903 H   0  0  0  0  0  0  0  0  0  0  0  0
  1  2  1  0
  2  3  1  0
  3  4  2  0
  3  5  1  0
  5  6  1  0
  6  7  1  0
  7  8  1  0
  8  9  1  0
  9 10  2  0
 10 11  1  0
 11 12  1  0
 12 13  1  0
 13 14  2  0
 14 15  1  0
 15 16  2  0
 16 17  1  0
 17 18  1  0
 17 19  2  0
 19 20  1  0
 16 21  1  0
 15 22  1  0
 14 23  1  0
 12 24  1  0
 12 25  1  0
 11 26  1  0
 26 27  2  0
 26 28  1  0
 28 29  1  0
 29 30  2  0
 30 31  1  0
 31 32  2  0
 32 33  1  0
 33 34  2  0
 34 35  1  0
 35 36  2  0
 36 37  1  0
 37 38  2  0
 37 39  1  0
 36 40  1  0
 35 41  1  0
 34 42  1  0
 32 43  1  0
 30 44  1  0
 28 45  1  0
 28 46  1  0
 10 47  1  0
 47 48  2  0
 48 49  1  0
 49 50  2  0
 49 51  1  0
 48 52  1  0
 47 53  1  0
  8 54  1  0
  8 55  1  0
  7 56  1  0
  7 57  1  0
  6 58  1  0
  6 59  1  0
  5 60  1  6
  2 61  1  0
  2 62  1  0
  1 63  1  0
  1 64  1  0
  1 65  1  0
 50  5  1  0
 50  9  1  0
 19 13  1  0
 38 29  1  0
 38 33  1  0
M  CHG  1   5   1
M  END
>  <cnnaffinities>  (94) 
[6.91495, 6.7581]

>  <score>  (94) 
6.91495

>  <index>  (94) 
94

>  <Smiles>  (94) 
C(C(C(=O)[N@@+]1(C(C(C(c2c(N(C(c3c(c(c(c(Cl)c3[H])[H])[H])[H])([H])[H])C(=O)C(c3c(nc(c4c(c(c(c(c34)[H])[H])[H])[H])[H])[H])([H])[H])c(c(c(c12)[H])[H])[H])([H])[H])([H])[H])([H])[H])[H])([H])[H])([H])([H])[H]

>  <h>  (94) 
<NA>

>  <Training>  (94) 
True

>  <Success>  (94) 
True

>  <enamine_searched>  (94) 
False

>  <enamine_id>  (94) 
nan

$$$$

     RDKit          3D

 67 71  0  0  0  0  0  0  0  0999 V2000
    7.0561    3.6863   21.4656 C   0  0  0  0  0  0  0  0  0  0  0  0
    7.4576    3.2109   22.7792 N   0  0  0  0  0  0  0  0  0  0  0  0
    8.7790    3.1008   23.0886 C   0  0  0  0  0  0  0  0  0  0  0  0
    9.6596    3.5995   22.4096 O   0  0  0  0  0  0  0  0  0  0  0  0
    9.1081    2.2542   24.3243 C   0  0  0  0  0  0  0  0  0  0  0  0
    9.4298    0.9041   23.9160 N   0  0  0  0  0  0  0  0  0  0  0  0
    8.3342   -0.0617   23.7870 C   0  0  0  0  0  0  0  0  0  0  0  0
    8.3568   -0.8708   22.4260 C   0  0  2  0  0  0  0  0  0  0  0  0
    7.6667    0.0593   21.3627 C   0  0  0  0  0  0  0  0  0  0  0  0
    8.1581    1.0367   20.8293 O   0  0  0  0  0  0  0  0  0  0  0  0
    6.4071   -0.3999   21.0964 N   0  0  0  0  0  0  0  0  0  0  0  0
    5.7050    0.0860   19.9617 C   0  0  0  0  0  0  0  0  0  0  0  0
    6.1288   -0.2344   18.6950 C   0  0  0  0  0  0  0  0  0  0  0  0
    5.5440    0.2280   17.5659 N   0  0  0  0  0  0  0  0  0  0  0  0
    4.5369    1.0551   17.6925 C   0  0  0  0  0  0  0  0  0  0  0  0
    4.0037    1.4778   18.9437 C   0  0  0  0  0  0  0  0  0  0  0  0
    2.9416    2.4159   19.0509 C   0  0  0  0  0  0  0  0  0  0  0  0
    2.4549    2.7755   20.2773 C   0  0  0  0  0  0  0  0  0  0  0  0
    2.9987    2.2177   21.4554 C   0  0  0  0  0  0  0  0  0  0  0  0
    4.0402    1.3231   21.3808 C   0  0  0  0  0  0  0  0  0  0  0  0
    4.5793    0.9468   20.1229 C   0  0  0  0  0  0  0  0  0  0  0  0
    4.4723    0.9119   22.2887 H   0  0  0  0  0  0  0  0  0  0  0  0
    2.6040    2.5051   22.4241 H   0  0  0  0  0  0  0  0  0  0  0  0
    1.6476    3.4992   20.3566 H   0  0  0  0  0  0  0  0  0  0  0  0
    2.5389    2.8490   18.1396 H   0  0  0  0  0  0  0  0  0  0  0  0
    4.0905    1.4348   16.7726 H   0  0  0  0  0  0  0  0  0  0  0  0
    6.9783   -0.9010   18.5546 H   0  0  0  0  0  0  0  0  0  0  0  0
    6.0078   -1.5372   21.8903 C   0  0  0  0  0  0  0  0  0  0  0  0
    7.3364   -2.0703   22.4485 C   0  0  2  0  0  0  0  0  0  0  0  0
    7.2042   -2.7826   23.7939 C   0  0  0  0  0  0  0  0  0  0  0  0
    6.4605   -4.4004   23.5999 S   0  0  0  0  0  0  0  0  0  0  0  0
    5.0532   -4.2089   23.2880 O   0  0  0  0  0  0  0  0  0  0  0  0
    7.3236   -5.1707   22.7163 O   0  0  0  0  0  0  0  0  0  0  0  0
    6.5541   -5.0840   25.1152 N   0  0  0  0  0  0  0  0  0  0  0  0
    5.8704   -4.3850   26.1947 C   0  0  0  0  0  0  0  0  0  0  0  0
    4.8867   -4.0544   25.8582 H   0  0  0  0  0  0  0  0  0  0  0  0
    6.4371   -3.5204   26.5728 H   0  0  0  0  0  0  0  0  0  0  0  0
    5.7302   -5.0869   27.0202 H   0  0  0  0  0  0  0  0  0  0  0  0
    7.8222   -5.7000   25.4831 C   0  0  0  0  0  0  0  0  0  0  0  0
    8.1764   -6.3038   24.6503 H   0  0  0  0  0  0  0  0  0  0  0  0
    8.5971   -4.9680   25.7554 H   0  0  0  0  0  0  0  0  0  0  0  0
    7.6461   -6.3576   26.3378 H   0  0  0  0  0  0  0  0  0  0  0  0
    8.1830   -2.9437   24.2580 H   0  0  0  0  0  0  0  0  0  0  0  0
    6.5767   -2.2040   24.4806 H   0  0  0  0  0  0  0  0  0  0  0  0
    7.7500   -2.7885   21.7314 H   0  0  0  0  0  0  0  0  0  0  0  0
    5.4888   -2.2815   21.2799 H   0  0  0  0  0  0  0  0  0  0  0  0
    5.3229   -1.2379   22.6972 H   0  0  0  0  0  0  0  0  0  0  0  0
    9.7847   -1.2226   22.1326 C   0  0  0  0  0  0  0  0  0  0  0  0
   10.4944   -2.2284   21.0553 C   0  0  0  0  0  0  0  0  0  0  0  0
   11.8678   -2.1113   21.0259 C   0  0  0  0  0  0  0  0  0  0  0  0
   13.3498   -4.1246   20.6878 F   0  0  0  0  0  0  0  0  0  0  0  0
   11.9636   -1.7861   20.9130 C   0  0  0  0  0  0  0  0  0  0  0  0
   12.2952   -1.0054   22.0024 C   0  0  0  0  0  0  0  0  0  0  0  0
   10.8926   -0.4957   22.6602 C   0  0  0  0  0  0  0  0  0  0  0  0
   10.7495    0.6252   23.5691 C   0  0  0  0  0  0  0  0  0  0  0  0
   11.6882    1.2996   23.9710 O   0  0  0  0  0  0  0  0  0  0  0  0
   12.9231   -0.1498   21.7925 H   0  0  0  0  0  0  0  0  0  0  0  0
   13.6837   -3.7119   19.9233 H   0  0  0  0  0  0  0  0  0  0  0  0
   10.0430   -3.1885   21.0941 H   0  0  0  0  0  0  0  0  0  0  0  0
    7.3977    0.4962   23.8403 H   0  0  0  0  0  0  0  0  0  0  0  0
    8.3865   -0.7614   24.6283 H   0  0  0  0  0  0  0  0  0  0  0  0
   10.0000    2.6598   24.8058 H   0  0  0  0  0  0  0  0  0  0  0  0
    8.2827    2.2319   25.0448 H   0  0  0  0  0  0  0  0  0  0  0  0
    6.7764    2.7266   23.3402 H   0  0  0  0  0  0  0  0  0  0  0  0
    6.0771    3.2600   21.2175 H   0  0  0  0  0  0  0  0  0  0  0  0
    7.0020    4.7802   21.4330 H   0  0  0  0  0  0  0  0  0  0  0  0
    7.7922    3.3360   20.7404 H   0  0  0  0  0  0  0  0  0  0  0  0
  1  2  1  0
  2  3  1  0
  3  4  2  0
  3  5  1  0
  5  6  1  0
  6  7  1  0
  8  7  1  1
  8  9  1  0
  9 10  2  0
  9 11  1  0
 11 12  1  0
 12 13  2  0
 13 14  1  0
 14 15  2  0
 15 16  1  0
 16 17  2  0
 17 18  1  0
 18 19  2  0
 19 20  1  0
 20 21  2  0
 20 22  1  0
 19 23  1  0
 18 24  1  0
 17 25  1  0
 15 26  1  0
 13 27  1  0
 11 28  1  0
 28 29  1  0
 29 30  1  0
 30 31  1  0
 31 32  2  0
 31 33  2  0
 31 34  1  0
 34 35  1  0
 35 36  1  0
 35 37  1  0
 35 38  1  0
 34 39  1  0
 39 40  1  0
 39 41  1  0
 39 42  1  0
 30 43  1  0
 30 44  1  0
 29 45  1  6
 28 46  1  0
 28 47  1  0
  8 48  1  0
 48 49  2  0
 49 50  1  0
 50 51  1  0
 50 52  2  0
 52 53  1  0
 53 54  2  0
 54 55  1  0
 55 56  2  0
 53 57  1  0
 52 58  1  0
 49 59  1  0
  7 60  1  0
  7 61  1  0
  5 62  1  0
  5 63  1  0
  2 64  1  0
  1 65  1  0
  1 66  1  0
  1 67  1  0
 55  6  1  0
 29  8  1  0
 54 48  1  0
 21 12  1  0
 21 16  1  0
M  END
>  <cnnaffinities>  (95) 
[7.00617, 6.94201]

>  <score>  (95) 
7.00617

>  <index>  (95) 
95

>  <Smiles>  (95) 
C(N(C(=O)C(N1C([C@@]2(C(=O)N(c3c(nc(c4c(c(c(c(c34)[H])[H])[H])[H])[H])[H])C([C@@]2(C(S(=O)(=O)N(C([H])([H])[H])C([H])([H])[H])([H])[H])[H])([H])[H])c2c(c(F)c(c(c2C1=O)[H])[H])[H])([H])[H])([H])[H])[H])([H])([H])[H]

>  <h>  (95) 
<NA>

>  <Training>  (95) 
True

>  <Success>  (95) 
True

>  <enamine_searched>  (95) 
False

>  <enamine_id>  (95) 
nan

$$$$

     RDKit          3D

 37 39  0  0  0  0  0  0  0  0999 V2000
    8.7107    1.1961   20.6669 O   0  0  0  0  0  0  0  0  0  0  0  0
    7.9012    0.6632   21.4079 C   0  0  0  0  0  0  0  0  0  0  0  0
    6.9457   -0.4182   20.9046 C   0  0  0  0  0  0  0  0  0  0  0  0
    6.0968    0.0886   19.7691 C   0  0  0  0  0  0  0  0  0  0  0  0
    6.4240   -0.2053   18.4725 C   0  0  0  0  0  0  0  0  0  0  0  0
    5.7629    0.2486   17.3783 N   0  0  0  0  0  0  0  0  0  0  0  0
    4.7339    1.0295   17.5831 C   0  0  0  0  0  0  0  0  0  0  0  0
    4.2777    1.4218   18.8694 C   0  0  0  0  0  0  0  0  0  0  0  0
    3.1651    2.2812   19.0420 C   0  0  0  0  0  0  0  0  0  0  0  0
    2.7620    2.6480   20.2976 C   0  0  0  0  0  0  0  0  0  0  0  0
    3.4561    2.1718   21.4331 C   0  0  0  0  0  0  0  0  0  0  0  0
    4.5380    1.3404   21.2900 C   0  0  0  0  0  0  0  0  0  0  0  0
    4.9784    0.9424   20.0002 C   0  0  0  0  0  0  0  0  0  0  0  0
    5.0712    0.9912   22.1694 H   0  0  0  0  0  0  0  0  0  0  0  0
    3.1288    2.4699   22.4256 H   0  0  0  0  0  0  0  0  0  0  0  0
    1.9139    3.3124   20.4286 H   0  0  0  0  0  0  0  0  0  0  0  0
    2.6530    2.6434   18.1540 H   0  0  0  0  0  0  0  0  0  0  0  0
    4.2049    1.3902   16.7003 H   0  0  0  0  0  0  0  0  0  0  0  0
    7.2705   -0.8570   18.2526 H   0  0  0  0  0  0  0  0  0  0  0  0
    7.5702   -1.2416   20.5372 H   0  0  0  0  0  0  0  0  0  0  0  0
    6.3393   -0.8255   21.7223 H   0  0  0  0  0  0  0  0  0  0  0  0
    7.7946    0.9985   22.7232 N   0  0  0  0  0  0  0  0  0  0  0  0
    8.7227    1.9658   23.2881 C   0  0  0  0  0  0  0  0  0  0  0  0
   10.1438    1.4526   23.4440 C   0  0  0  0  0  0  0  0  0  0  0  0
   10.3983    0.4698   24.3857 C   0  0  0  0  0  0  0  0  0  0  0  0
   11.6817   -0.0360   24.5455 C   0  0  0  0  0  0  0  0  0  0  0  0
   12.7377    0.4390   23.7923 C   0  0  0  0  0  0  0  0  0  0  0  0
   12.4942    1.4931   22.9296 C   0  0  0  0  0  0  0  0  0  0  0  0
   13.9056    2.3173   22.3191 Cl  0  0  0  0  0  0  0  0  0  0  0  0
   11.2000    1.9582   22.6817 C   0  0  0  0  0  0  0  0  0  0  0  0
   10.9983    2.6616   21.8773 H   0  0  0  0  0  0  0  0  0  0  0  0
   13.7309   -0.0050   23.8512 H   0  0  0  0  0  0  0  0  0  0  0  0
   11.8785   -0.7797   25.2959 H   0  0  0  0  0  0  0  0  0  0  0  0
    9.5753    0.1363   25.0116 H   0  0  0  0  0  0  0  0  0  0  0  0
    8.3159    2.2472   24.2619 H   0  0  0  0  0  0  0  0  0  0  0  0
    8.7286    2.8541   22.6561 H   0  0  0  0  0  0  0  0  0  0  0  0
    7.1805    0.4755   23.3273 H   0  0  0  0  0  0  0  0  0  0  0  0
  1  2  2  0
  2  3  1  0
  3  4  1  0
  4  5  2  0
  5  6  1  0
  6  7  2  0
  7  8  1  0
  8  9  2  0
  9 10  1  0
 10 11  2  0
 11 12  1  0
 12 13  2  0
 12 14  1  0
 11 15  1  0
 10 16  1  0
  9 17  1  0
  7 18  1  0
  5 19  1  0
  3 20  1  0
  3 21  1  0
  2 22  1  0
 22 23  1  0
 23 24  1  0
 24 25  2  0
 25 26  1  0
 26 27  2  0
 27 28  1  0
 28 29  1  0
 28 30  2  0
 30 31  1  0
 27 32  1  0
 26 33  1  0
 25 34  1  0
 23 35  1  0
 23 36  1  0
 22 37  1  0
 13  4  1  0
 30 24  1  0
 13  8  1  0
M  END
>  <cnnaffinities>  (96) 
[5.46583]

>  <score>  (96) 
5.46583

>  <index>  (96) 
96

>  <Smiles>  (96) 
O=C(C(c1c(nc(c2c(c(c(c(c12)[H])[H])[H])[H])[H])[H])([H])[H])N(C(c1c(c(c(c(Cl)c1[H])[H])[H])[H])([H])[H])[H]

>  <h>  (96) 
<NA>

>  <Training>  (96) 
True

>  <Success>  (96) 
True

>  <enamine_searched>  (96) 
False

>  <enamine_id>  (96) 
nan

$$$$
