
     RDKit          3D

 63 69  0  0  0  0  0  0  0  0999 V2000
    9.5809    2.4457   25.4794 O   0  0  0  0  0  0  0  0  0  0  0  0
    9.2112    1.5638   24.7192 C   0  0  0  0  0  0  0  0  0  0  0  0
   10.1729    0.7831   23.8867 C   0  0  0  0  0  0  0  0  0  0  0  0
   11.5201    1.0771   24.0560 C   0  0  0  0  0  0  0  0  0  0  0  0
   12.4737    0.4941   23.2492 C   0  0  0  0  0  0  0  0  0  0  0  0
   12.0379   -0.3790   22.2524 C   0  0  0  0  0  0  0  0  0  0  0  0
   13.2066   -1.1131   21.1964 Cl  0  0  0  0  0  0  0  0  0  0  0  0
   10.7009   -0.6861   22.0755 C   0  0  0  0  0  0  0  0  0  0  0  0
    9.7404   -0.1437   22.9344 C   0  0  0  0  0  0  0  0  0  0  0  0
    8.2720   -0.4592   22.7435 C   0  0  1  0  0  0  0  0  0  0  0  0
    7.5282   -0.0853   24.0525 C   0  0  0  0  0  0  0  0  0  0  0  0
    7.8957    1.2342   24.5281 N   0  0  0  0  0  0  0  0  0  0  0  0
    6.8987    2.1723   24.9665 C   0  0  0  0  0  0  0  0  0  0  0  0
    6.6454    3.2459   23.9533 C   0  0  0  0  0  0  0  0  0  0  0  0
    5.5002    3.7636   23.6499 N   0  0  0  0  0  0  0  0  0  0  0  0
    5.7600    4.7664   22.7190 N   0  0  0  0  0  0  0  0  0  0  0  0
    7.0346    4.7639   22.5472 C   0  0  0  0  0  0  0  0  0  0  0  0
    7.6685    3.8317   23.2959 O   0  0  0  0  0  0  0  0  0  0  0  0
    7.6064    5.4089   21.8952 H   0  0  0  0  0  0  0  0  0  0  0  0
    7.2477    2.6240   25.9012 H   0  0  0  0  0  0  0  0  0  0  0  0
    5.9572    1.6527   25.1552 H   0  0  0  0  0  0  0  0  0  0  0  0
    7.7936   -0.8248   24.8177 H   0  0  0  0  0  0  0  0  0  0  0  0
    6.4418   -0.1226   23.8958 H   0  0  0  0  0  0  0  0  0  0  0  0
    7.7089    0.3732   21.5735 C   0  0  0  0  0  0  0  0  0  0  0  0
    7.9065    1.5441   21.3519 O   0  0  0  0  0  0  0  0  0  0  0  0
    6.9091   -0.4428   20.8080 N   0  0  0  0  0  0  0  0  0  0  0  0
    6.1178    0.0691   19.7580 C   0  0  0  0  0  0  0  0  0  0  0  0
    6.4425   -0.2481   18.4651 C   0  0  0  0  0  0  0  0  0  0  0  0
    5.7867    0.2082   17.3707 N   0  0  0  0  0  0  0  0  0  0  0  0
    4.7592    0.9972   17.5853 C   0  0  0  0  0  0  0  0  0  0  0  0
    4.3007    1.3802   18.8783 C   0  0  0  0  0  0  0  0  0  0  0  0
    3.1722    2.2256   19.0456 C   0  0  0  0  0  0  0  0  0  0  0  0
    2.7375    2.5691   20.2937 C   0  0  0  0  0  0  0  0  0  0  0  0
    3.4092    2.0880   21.4413 C   0  0  0  0  0  0  0  0  0  0  0  0
    4.5121    1.2799   21.3102 C   0  0  0  0  0  0  0  0  0  0  0  0
    4.9887    0.9077   20.0170 C   0  0  0  0  0  0  0  0  0  0  0  0
    5.0169    0.9183   22.2038 H   0  0  0  0  0  0  0  0  0  0  0  0
    3.0501    2.3675   22.4285 H   0  0  0  0  0  0  0  0  0  0  0  0
    1.8741    3.2168   20.4098 H   0  0  0  0  0  0  0  0  0  0  0  0
    2.6776    2.6018   18.1543 H   0  0  0  0  0  0  0  0  0  0  0  0
    4.2204    1.3709   16.7139 H   0  0  0  0  0  0  0  0  0  0  0  0
    7.3022   -0.8910   18.2832 H   0  0  0  0  0  0  0  0  0  0  0  0
    6.7700   -1.7868   21.3147 C   0  0  0  0  0  0  0  0  0  0  0  0
    7.9574   -1.9190   22.2860 C   0  0  2  0  0  0  0  0  0  0  0  0
    7.6810   -2.9472   23.4001 C   0  0  0  0  0  0  0  0  0  0  0  0
    7.4731   -4.2934   22.8874 N   0  0  0  0  0  0  0  0  0  0  0  0
    6.2613   -4.8731   22.7352 C   0  0  0  0  0  0  0  0  0  0  0  0
    5.1490   -4.1808   23.0670 N   0  0  0  0  0  0  0  0  0  0  0  0
    4.0079   -4.7705   22.7195 C   0  0  0  0  0  0  0  0  0  0  0  0
    3.8744   -5.9520   22.1208 N   0  0  0  0  0  0  0  0  0  0  0  0
    5.0405   -6.5739   21.9091 C   0  0  0  0  0  0  0  0  0  0  0  0
    6.2442   -6.1194   22.2124 N   0  0  0  0  0  0  0  0  0  0  0  0
    4.9930   -7.5425   21.4022 H   0  0  0  0  0  0  0  0  0  0  0  0
    3.0835   -4.2257   22.9159 H   0  0  0  0  0  0  0  0  0  0  0  0
    8.2620   -4.8954   22.7082 H   0  0  0  0  0  0  0  0  0  0  0  0
    6.7456   -2.6972   23.9003 H   0  0  0  0  0  0  0  0  0  0  0  0
    8.4848   -2.9585   24.1522 H   0  0  0  0  0  0  0  0  0  0  0  0
    8.8183   -2.2864   21.7194 H   0  0  0  0  0  0  0  0  0  0  0  0
    6.8034   -2.5016   20.4886 H   0  0  0  0  0  0  0  0  0  0  0  0
    5.8057   -1.9120   21.8310 H   0  0  0  0  0  0  0  0  0  0  0  0
   10.4174   -1.3384   21.2560 H   0  0  0  0  0  0  0  0  0  0  0  0
   13.5280    0.7228   23.3644 H   0  0  0  0  0  0  0  0  0  0  0  0
   11.7636    1.7893   24.8288 H   0  0  0  0  0  0  0  0  0  0  0  0
  1  2  2  0
  2  3  1  0
  3  4  2  0
  4  5  1  0
  5  6  2  0
  6  7  1  0
  6  8  1  0
  8  9  2  0
  9 10  1  0
 10 11  1  1
 11 12  1  0
 12 13  1  0
 13 14  1  0
 14 15  2  0
 15 16  1  0
 16 17  2  0
 17 18  1  0
 17 19  1  0
 13 20  1  0
 13 21  1  0
 11 22  1  0
 11 23  1  0
 10 24  1  0
 24 25  2  0
 24 26  1  0
 26 27  1  0
 27 28  2  0
 28 29  1  0
 29 30  2  0
 30 31  1  0
 31 32  2  0
 32 33  1  0
 33 34  2  0
 34 35  1  0
 35 36  2  0
 35 37  1  0
 34 38  1  0
 33 39  1  0
 32 40  1  0
 30 41  1  0
 28 42  1  0
 26 43  1  0
 43 44  1  0
 44 45  1  0
 45 46  1  0
 46 47  1  0
 47 48  2  0
 48 49  1  0
 49 50  2  0
 50 51  1  0
 51 52  2  0
 51 53  1  0
 49 54  1  0
 46 55  1  0
 45 56  1  0
 45 57  1  0
 44 58  1  6
 43 59  1  0
 43 60  1  0
  8 61  1  0
  5 62  1  0
  4 63  1  0
 12  2  1  0
 18 14  1  0
 36 27  1  0
 52 47  1  0
  9  3  1  0
 44 10  1  0
 36 31  1  0
M  END
>  <cnnaffinities>  (1) 
[6.62007, 6.71167]

>  <score>  (1) 
6.62007

>  <index>  (1) 
0

>  <Smiles>  (1) 
O=C1c2c(c(c(Cl)c(c2[C@@]2(C(N1C(c1nnc(o1)[H])([H])[H])([H])[H])C(=O)N(c1c(nc(c3c(c(c(c(c13)[H])[H])[H])[H])[H])[H])C([C@@]2(C(N(c1nc(nc(n1)[H])[H])[H])([H])[H])[H])([H])[H])[H])[H])[H]

>  <h>  (1) 
<NA>

>  <Training>  (1) 
True

>  <Success>  (1) 
True

>  <enamine_searched>  (1) 
False

>  <enamine_id>  (1) 
nan

$$$$

     RDKit          3D

 51 54  0  0  0  0  0  0  0  0999 V2000
   12.6028   -0.5894   24.9102 C   0  0  0  0  0  0  0  0  0  0  0  0
   12.2353   -1.5441   23.9492 O   0  0  0  0  0  0  0  0  0  0  0  0
   10.9354   -1.6448   23.5679 C   0  0  0  0  0  0  0  0  0  0  0  0
   10.7579   -2.5452   22.5218 C   0  0  0  0  0  0  0  0  0  0  0  0
    9.5066   -2.8443   22.0356 C   0  0  0  0  0  0  0  0  0  0  0  0
    8.3908   -2.2154   22.5715 C   0  0  0  0  0  0  0  0  0  0  0  0
    7.0986   -2.5998   22.1046 N   0  0  0  0  0  0  0  0  0  0  0  0
    6.5844   -3.9049   22.4864 C   0  0  0  0  0  0  0  0  0  0  0  0
    6.0249   -3.8533   23.8870 C   0  0  0  0  0  0  0  0  0  0  0  0
    6.8840   -3.7882   24.9837 C   0  0  0  0  0  0  0  0  0  0  0  0
    6.3646   -3.7088   26.2706 C   0  0  0  0  0  0  0  0  0  0  0  0
    4.9870   -3.6353   26.4637 C   0  0  0  0  0  0  0  0  0  0  0  0
    4.1461   -3.6594   25.3631 C   0  0  0  0  0  0  0  0  0  0  0  0
    2.4335   -3.4973   25.5832 Cl  0  0  0  0  0  0  0  0  0  0  0  0
    4.6523   -3.7882   24.0798 C   0  0  0  0  0  0  0  0  0  0  0  0
    3.9771   -3.7979   23.2299 H   0  0  0  0  0  0  0  0  0  0  0  0
    4.5698   -3.5848   27.4629 H   0  0  0  0  0  0  0  0  0  0  0  0
    7.0318   -3.6959   27.1292 H   0  0  0  0  0  0  0  0  0  0  0  0
    7.9659   -3.7911   24.8287 H   0  0  0  0  0  0  0  0  0  0  0  0
    5.8017   -4.1359   21.7598 H   0  0  0  0  0  0  0  0  0  0  0  0
    7.3949   -4.6456   22.4238 H   0  0  0  0  0  0  0  0  0  0  0  0
    6.2602   -1.7696   21.4007 C   0  0  0  0  0  0  0  0  0  0  0  0
    5.0958   -2.0523   21.1747 O   0  0  0  0  0  0  0  0  0  0  0  0
    6.9208   -0.4986   20.8693 C   0  0  0  0  0  0  0  0  0  0  0  0
    6.1309    0.0859   19.7470 C   0  0  0  0  0  0  0  0  0  0  0  0
    6.4443   -0.2246   18.4512 C   0  0  0  0  0  0  0  0  0  0  0  0
    5.7796    0.2179   17.3514 N   0  0  0  0  0  0  0  0  0  0  0  0
    4.7465    0.9978   17.5710 C   0  0  0  0  0  0  0  0  0  0  0  0
    4.2894    1.3761   18.8625 C   0  0  0  0  0  0  0  0  0  0  0  0
    3.1711    2.2287   19.0410 C   0  0  0  0  0  0  0  0  0  0  0  0
    2.7642    2.5846   20.2975 C   0  0  0  0  0  0  0  0  0  0  0  0
    3.4449    2.0946   21.4295 C   0  0  0  0  0  0  0  0  0  0  0  0
    4.5256    1.2601   21.2870 C   0  0  0  0  0  0  0  0  0  0  0  0
    4.9861    0.8938   19.9924 C   0  0  0  0  0  0  0  0  0  0  0  0
    5.0284    0.8768   22.1684 H   0  0  0  0  0  0  0  0  0  0  0  0
    3.1182    2.3942   22.4213 H   0  0  0  0  0  0  0  0  0  0  0  0
    1.9193    3.2549   20.4273 H   0  0  0  0  0  0  0  0  0  0  0  0
    2.6679    2.6133   18.1585 H   0  0  0  0  0  0  0  0  0  0  0  0
    4.2104    1.3760   16.6986 H   0  0  0  0  0  0  0  0  0  0  0  0
    7.2972   -0.8711   18.2433 H   0  0  0  0  0  0  0  0  0  0  0  0
    7.0354    0.2161   21.6974 H   0  0  0  0  0  0  0  0  0  0  0  0
    7.9368   -0.7540   20.5371 H   0  0  0  0  0  0  0  0  0  0  0  0
    8.5730   -1.2660   23.5747 C   0  0  0  0  0  0  0  0  0  0  0  0
    9.8362   -0.9801   24.1001 C   0  0  0  0  0  0  0  0  0  0  0  0
    9.9338   -0.2643   24.9113 H   0  0  0  0  0  0  0  0  0  0  0  0
    7.7039   -0.7905   24.0156 H   0  0  0  0  0  0  0  0  0  0  0  0
    9.4036   -3.5652   21.2323 H   0  0  0  0  0  0  0  0  0  0  0  0
   11.6506   -3.0077   22.1368 H   0  0  0  0  0  0  0  0  0  0  0  0
   12.3366    0.4205   24.5776 H   0  0  0  0  0  0  0  0  0  0  0  0
   13.6887   -0.6667   25.0118 H   0  0  0  0  0  0  0  0  0  0  0  0
   12.1303   -0.7946   25.8785 H   0  0  0  0  0  0  0  0  0  0  0  0
  1  2  1  0
  2  3  1  0
  3  4  2  0
  4  5  1  0
  5  6  2  0
  6  7  1  0
  7  8  1  0
  8  9  1  0
  9 10  2  0
 10 11  1  0
 11 12  2  0
 12 13  1  0
 13 14  1  0
 13 15  2  0
 15 16  1  0
 12 17  1  0
 11 18  1  0
 10 19  1  0
  8 20  1  0
  8 21  1  0
  7 22  1  0
 22 23  2  0
 22 24  1  0
 24 25  1  0
 25 26  2  0
 26 27  1  0
 27 28  2  0
 28 29  1  0
 29 30  2  0
 30 31  1  0
 31 32  2  0
 32 33  1  0
 33 34  2  0
 33 35  1  0
 32 36  1  0
 31 37  1  0
 30 38  1  0
 28 39  1  0
 26 40  1  0
 24 41  1  0
 24 42  1  0
  6 43  1  0
 43 44  2  0
 44 45  1  0
 43 46  1  0
  5 47  1  0
  4 48  1  0
  1 49  1  0
  1 50  1  0
  1 51  1  0
 44  3  1  0
 15  9  1  0
 34 25  1  0
 34 29  1  0
M  END
>  <cnnaffinities>  (2) 
[5.44583, 5.0409, 5.7162, 5.05324, 5.65518]

>  <score>  (2) 
5.44583

>  <index>  (2) 
1

>  <Smiles>  (2) 
C(Oc1c(c(c(N(C(c2c(c(c(c(Cl)c2[H])[H])[H])[H])([H])[H])C(=O)C(c2c(nc(c3c(c(c(c(c23)[H])[H])[H])[H])[H])[H])([H])[H])c(c1[H])[H])[H])[H])([H])([H])[H]

>  <h>  (2) 
<NA>

>  <Training>  (2) 
True

>  <Success>  (2) 
True

>  <enamine_searched>  (2) 
False

>  <enamine_id>  (2) 
nan

$$$$

     RDKit          3D

 56 60  0  0  0  0  0  0  0  0999 V2000
    6.7293    4.4682   21.3321 C   0  0  0  0  0  0  0  0  0  0  0  0
    7.6002    4.0590   22.4204 N   0  0  0  0  0  0  0  0  0  0  0  0
    7.0381    3.3780   23.4467 C   0  0  0  0  0  0  0  0  0  0  0  0
    5.8253    3.2355   23.5479 O   0  0  0  0  0  0  0  0  0  0  0  0
    7.9854    2.8028   24.5131 C   0  0  0  0  0  0  0  0  0  0  0  0
    8.7321    1.6377   24.0736 N   0  0  0  0  0  0  0  0  0  0  0  0
    8.0287    0.3747   23.9370 C   0  0  0  0  0  0  0  0  0  0  0  0
    8.4676   -0.3759   22.6571 C   0  0  2  0  0  0  0  0  0  0  0  0
    7.9347    0.3547   21.3939 C   0  0  0  0  0  0  0  0  0  0  0  0
    8.3193    1.4107   20.9435 O   0  0  0  0  0  0  0  0  0  0  0  0
    6.9343   -0.4035   20.8288 N   0  0  0  0  0  0  0  0  0  0  0  0
    6.1478    0.1114   19.7613 C   0  0  0  0  0  0  0  0  0  0  0  0
    6.4566   -0.2118   18.4662 C   0  0  0  0  0  0  0  0  0  0  0  0
    5.7707    0.2247   17.3785 N   0  0  0  0  0  0  0  0  0  0  0  0
    4.7454    1.0142   17.5916 C   0  0  0  0  0  0  0  0  0  0  0  0
    4.2939    1.4148   18.8808 C   0  0  0  0  0  0  0  0  0  0  0  0
    3.1692    2.2668   19.0645 C   0  0  0  0  0  0  0  0  0  0  0  0
    2.7624    2.6310   20.3187 C   0  0  0  0  0  0  0  0  0  0  0  0
    3.4586    2.1538   21.4526 C   0  0  0  0  0  0  0  0  0  0  0  0
    4.5494    1.3307   21.3011 C   0  0  0  0  0  0  0  0  0  0  0  0
    5.0101    0.9464   20.0110 C   0  0  0  0  0  0  0  0  0  0  0  0
    5.0777    0.9772   22.1824 H   0  0  0  0  0  0  0  0  0  0  0  0
    3.1527    2.4565   22.4484 H   0  0  0  0  0  0  0  0  0  0  0  0
    1.9164    3.3008   20.4450 H   0  0  0  0  0  0  0  0  0  0  0  0
    2.6627    2.6445   18.1800 H   0  0  0  0  0  0  0  0  0  0  0  0
    4.2164    1.3798   16.7111 H   0  0  0  0  0  0  0  0  0  0  0  0
    7.2994   -0.8657   18.2539 H   0  0  0  0  0  0  0  0  0  0  0  0
    6.6086   -1.6164   21.5489 C   0  0  0  0  0  0  0  0  0  0  0  0
    7.7854   -1.7748   22.5315 C   0  0  2  0  0  0  0  0  0  0  0  0
    7.3283   -2.3900   23.8414 N   0  0  0  0  0  4  0  0  0  0  0  0
    6.5985   -1.8008   24.2785 H   0  0  0  0  0  0  0  0  0  0  0  0
    8.1174   -2.4837   24.5007 H   0  0  0  0  0  0  0  0  0  0  0  0
    6.9378   -3.3338   23.6758 H   0  0  0  0  0  0  0  0  0  0  0  0
    8.5176   -2.4577   22.1159 H   0  0  0  0  0  0  0  0  0  0  0  0
    5.6575   -1.5228   22.0969 H   0  0  0  0  0  0  0  0  0  0  0  0
    6.5051   -2.4524   20.8483 H   0  0  0  0  0  0  0  0  0  0  0  0
    9.9850   -0.3942   22.6037 C   0  0  0  0  0  0  0  0  0  0  0  0
   10.6482   -1.2634   21.7256 C   0  0  0  0  0  0  0  0  0  0  0  0
   12.0291   -1.2464   21.6556 C   0  0  0  0  0  0  0  0  0  0  0  0
   12.8609   -2.2802   20.5321 Cl  0  0  0  0  0  0  0  0  0  0  0  0
   12.7916   -0.3756   22.4329 C   0  0  0  0  0  0  0  0  0  0  0  0
   12.1416    0.5364   23.2371 C   0  0  0  0  0  0  0  0  0  0  0  0
   10.7481    0.5550   23.2976 C   0  0  0  0  0  0  0  0  0  0  0  0
   10.0991    1.6831   24.0405 C   0  0  0  0  0  0  0  0  0  0  0  0
   10.7482    2.5933   24.5393 O   0  0  0  0  0  0  0  0  0  0  0  0
   12.6828    1.2799   23.8126 H   0  0  0  0  0  0  0  0  0  0  0  0
   13.8725   -0.4019   22.3616 H   0  0  0  0  0  0  0  0  0  0  0  0
   10.1041   -1.9172   21.0538 H   0  0  0  0  0  0  0  0  0  0  0  0
    8.1964   -0.2644   24.8173 H   0  0  0  0  0  0  0  0  0  0  0  0
    6.9694    0.6355   23.8673 H   0  0  0  0  0  0  0  0  0  0  0  0
    7.3366    2.5546   25.3635 H   0  0  0  0  0  0  0  0  0  0  0  0
    8.7425    3.5223   24.8408 H   0  0  0  0  0  0  0  0  0  0  0  0
    8.6035    4.0191   22.3021 H   0  0  0  0  0  0  0  0  0  0  0  0
    5.9748    5.1706   21.7034 H   0  0  0  0  0  0  0  0  0  0  0  0
    7.3107    4.9783   20.5670 H   0  0  0  0  0  0  0  0  0  0  0  0
    6.2106    3.5926   20.9106 H   0  0  0  0  0  0  0  0  0  0  0  0
  1  2  1  0
  2  3  1  0
  3  4  2  0
  3  5  1  0
  5  6  1  0
  6  7  1  0
  8  7  1  1
  8  9  1  0
  9 10  2  0
  9 11  1  0
 11 12  1  0
 12 13  2  0
 13 14  1  0
 14 15  2  0
 15 16  1  0
 16 17  2  0
 17 18  1  0
 18 19  2  0
 19 20  1  0
 20 21  2  0
 20 22  1  0
 19 23  1  0
 18 24  1  0
 17 25  1  0
 15 26  1  0
 13 27  1  0
 11 28  1  0
 28 29  1  0
 29 30  1  0
 30 31  1  0
 30 32  1  0
 30 33  1  0
 29 34  1  6
 28 35  1  0
 28 36  1  0
  8 37  1  0
 37 38  2  0
 38 39  1  0
 39 40  1  0
 39 41  2  0
 41 42  1  0
 42 43  2  0
 43 44  1  0
 44 45  2  0
 42 46  1  0
 41 47  1  0
 38 48  1  0
  7 49  1  0
  7 50  1  0
  5 51  1  0
  5 52  1  0
  2 53  1  0
  1 54  1  0
  1 55  1  0
  1 56  1  0
 44  6  1  0
 29  8  1  0
 43 37  1  0
 21 12  1  0
 21 16  1  0
M  CHG  1  30   1
M  END
>  <cnnaffinities>  (3) 
[6.1846]

>  <score>  (3) 
6.1846

>  <index>  (3) 
2

>  <Smiles>  (3) 
C(N(C(=O)C(N1C([C@@]2(C(=O)N(c3c(nc(c4c(c(c(c(c34)[H])[H])[H])[H])[H])[H])C([C@@]2([N+]([H])([H])[H])[H])([H])[H])c2c(c(Cl)c(c(c2C1=O)[H])[H])[H])([H])[H])([H])[H])[H])([H])([H])[H]

>  <h>  (3) 
<NA>

>  <Training>  (3) 
True

>  <Success>  (3) 
True

>  <enamine_searched>  (3) 
False

>  <enamine_id>  (3) 
nan

$$$$

     RDKit          3D

 67 73  0  0  0  0  0  0  0  0999 V2000
    9.4690    2.6132   25.3870 O   0  0  0  0  0  0  0  0  0  0  0  0
    9.1178    1.6792   24.6765 C   0  0  0  0  0  0  0  0  0  0  0  0
   10.0978    0.7987   23.9596 C   0  0  0  0  0  0  0  0  0  0  0  0
   11.4488    1.0285   24.1935 C   0  0  0  0  0  0  0  0  0  0  0  0
   12.4200    0.3692   23.4688 C   0  0  0  0  0  0  0  0  0  0  0  0
   12.0089   -0.5298   22.4857 C   0  0  0  0  0  0  0  0  0  0  0  0
   13.2047   -1.3413   21.5148 Cl  0  0  0  0  0  0  0  0  0  0  0  0
   10.6703   -0.7973   22.2612 C   0  0  0  0  0  0  0  0  0  0  0  0
    9.6845   -0.1657   23.0297 C   0  0  0  0  0  0  0  0  0  0  0  0
    8.2123   -0.4372   22.7882 C   0  0  1  0  0  0  0  0  0  0  0  0
    7.4349    0.0291   24.0494 C   0  0  0  0  0  0  0  0  0  0  0  0
    7.8105    1.3792   24.4290 N   0  0  0  0  0  0  0  0  0  0  0  0
    6.7791    2.3730   24.6682 C   0  0  0  0  0  0  0  0  0  0  0  0
    5.9640    2.0955   25.9091 C   0  0  0  0  0  0  0  0  0  0  0  0
    6.4684    2.3471   27.1651 C   0  0  0  0  0  0  0  0  0  0  0  0
    5.6608    2.0177   28.2505 C   0  0  0  0  0  0  0  0  0  0  0  0
    4.4542    1.4690   28.1401 N   0  0  0  0  0  0  0  0  0  0  0  0
    3.9638    1.2209   26.9354 N   0  0  0  0  0  0  0  0  0  0  0  0
    4.6894    1.5242   25.8632 C   0  0  0  0  0  0  0  0  0  0  0  0
    4.2215    1.2892   24.9090 H   0  0  0  0  0  0  0  0  0  0  0  0
    6.0006    2.2015   29.2668 H   0  0  0  0  0  0  0  0  0  0  0  0
    7.4579    2.7827   27.3022 H   0  0  0  0  0  0  0  0  0  0  0  0
    6.1360    2.4086   23.7765 H   0  0  0  0  0  0  0  0  0  0  0  0
    7.2841    3.3383   24.7662 H   0  0  0  0  0  0  0  0  0  0  0  0
    7.6501   -0.6554   24.8831 H   0  0  0  0  0  0  0  0  0  0  0  0
    6.3543    0.0079   23.8762 H   0  0  0  0  0  0  0  0  0  0  0  0
    7.7078    0.3656   21.5717 C   0  0  0  0  0  0  0  0  0  0  0  0
    7.9228    1.5302   21.3076 O   0  0  0  0  0  0  0  0  0  0  0  0
    6.9147   -0.4593   20.8105 N   0  0  0  0  0  0  0  0  0  0  0  0
    6.1292    0.0662   19.7617 C   0  0  0  0  0  0  0  0  0  0  0  0
    6.4455   -0.2539   18.4681 C   0  0  0  0  0  0  0  0  0  0  0  0
    5.7798    0.2004   17.3791 N   0  0  0  0  0  0  0  0  0  0  0  0
    4.7582    0.9943   17.5975 C   0  0  0  0  0  0  0  0  0  0  0  0
    4.3124    1.3889   18.8907 C   0  0  0  0  0  0  0  0  0  0  0  0
    3.1884    2.2386   19.0585 C   0  0  0  0  0  0  0  0  0  0  0  0
    2.7628    2.5929   20.3081 C   0  0  0  0  0  0  0  0  0  0  0  0
    3.4404    2.1096   21.4493 C   0  0  0  0  0  0  0  0  0  0  0  0
    4.5337    1.2908   21.3167 C   0  0  0  0  0  0  0  0  0  0  0  0
    5.0068    0.9137   20.0230 C   0  0  0  0  0  0  0  0  0  0  0  0
    5.0421    0.9243   22.2044 H   0  0  0  0  0  0  0  0  0  0  0  0
    3.0876    2.3951   22.4367 H   0  0  0  0  0  0  0  0  0  0  0  0
    1.9048    3.2477   20.4270 H   0  0  0  0  0  0  0  0  0  0  0  0
    2.6878    2.6074   18.1679 H   0  0  0  0  0  0  0  0  0  0  0  0
    4.2209    1.3651   16.7245 H   0  0  0  0  0  0  0  0  0  0  0  0
    7.2993   -0.9026   18.2764 H   0  0  0  0  0  0  0  0  0  0  0  0
    6.6943   -1.7687   21.3851 C   0  0  0  0  0  0  0  0  0  0  0  0
    7.8534   -1.9006   22.3807 C   0  0  2  0  0  0  0  0  0  0  0  0
    7.5664   -2.8401   23.5643 C   0  0  0  0  0  0  0  0  0  0  0  0
    7.3633   -4.2342   23.2218 N   0  0  0  0  0  0  0  0  0  0  0  0
    6.1646   -4.7814   22.8769 C   0  0  0  0  0  0  0  0  0  0  0  0
    4.9304   -4.1210   23.0915 C   0  0  0  0  0  0  0  0  0  0  0  0
    3.7897   -4.7993   22.7257 C   0  0  0  0  0  0  0  0  0  0  0  0
    3.7904   -6.0061   22.1497 N   0  0  0  0  0  0  0  0  0  0  0  0
    5.0007   -6.5419   22.0222 C   0  0  0  0  0  0  0  0  0  0  0  0
    6.1771   -6.0227   22.3594 N   0  0  0  0  0  0  0  0  0  0  0  0
    5.0040   -7.5257   21.5612 H   0  0  0  0  0  0  0  0  0  0  0  0
    2.8057   -4.3641   22.9062 H   0  0  0  0  0  0  0  0  0  0  0  0
    4.8687   -3.1183   23.5055 H   0  0  0  0  0  0  0  0  0  0  0  0
    8.1663   -4.7960   22.9691 H   0  0  0  0  0  0  0  0  0  0  0  0
    8.4022   -2.7790   24.2685 H   0  0  0  0  0  0  0  0  0  0  0  0
    6.6793   -2.4858   24.1009 H   0  0  0  0  0  0  0  0  0  0  0  0
    8.7051   -2.3040   21.8270 H   0  0  0  0  0  0  0  0  0  0  0  0
    5.7176   -1.8239   21.8884 H   0  0  0  0  0  0  0  0  0  0  0  0
    6.7025   -2.5380   20.6090 H   0  0  0  0  0  0  0  0  0  0  0  0
   10.4118   -1.4922   21.4705 H   0  0  0  0  0  0  0  0  0  0  0  0
   13.4746    0.5560   23.6382 H   0  0  0  0  0  0  0  0  0  0  0  0
   11.6929    1.7582   24.9481 H   0  0  0  0  0  0  0  0  0  0  0  0
  1  2  2  0
  2  3  1  0
  3  4  2  0
  4  5  1  0
  5  6  2  0
  6  7  1  0
  6  8  1  0
  8  9  2  0
  9 10  1  0
 10 11  1  1
 11 12  1  0
 12 13  1  0
 13 14  1  0
 14 15  2  0
 15 16  1  0
 16 17  2  0
 17 18  1  0
 18 19  2  0
 19 20  1  0
 16 21  1  0
 15 22  1  0
 13 23  1  0
 13 24  1  0
 11 25  1  0
 11 26  1  0
 10 27  1  0
 27 28  2  0
 27 29  1  0
 29 30  1  0
 30 31  2  0
 31 32  1  0
 32 33  2  0
 33 34  1  0
 34 35  2  0
 35 36  1  0
 36 37  2  0
 37 38  1  0
 38 39  2  0
 38 40  1  0
 37 41  1  0
 36 42  1  0
 35 43  1  0
 33 44  1  0
 31 45  1  0
 29 46  1  0
 46 47  1  0
 47 48  1  0
 48 49  1  0
 49 50  1  0
 50 51  2  0
 51 52  1  0
 52 53  2  0
 53 54  1  0
 54 55  2  0
 54 56  1  0
 52 57  1  0
 51 58  1  0
 49 59  1  0
 48 60  1  0
 48 61  1  0
 47 62  1  6
 46 63  1  0
 46 64  1  0
  8 65  1  0
  5 66  1  0
  4 67  1  0
 12  2  1  0
 19 14  1  0
 39 30  1  0
 55 50  1  0
  9  3  1  0
 47 10  1  0
 39 34  1  0
M  END
>  <cnnaffinities>  (4) 
[6.92702]

>  <score>  (4) 
6.92702

>  <index>  (4) 
3

>  <Smiles>  (4) 
O=C1c2c(c(c(Cl)c(c2[C@@]2(C(N1C(c1c(c(nnc1[H])[H])[H])([H])[H])([H])[H])C(=O)N(c1c(nc(c3c(c(c(c(c13)[H])[H])[H])[H])[H])[H])C([C@@]2(C(N(c1c(c(nc(n1)[H])[H])[H])[H])([H])[H])[H])([H])[H])[H])[H])[H]

>  <h>  (4) 
<NA>

>  <Training>  (4) 
True

>  <Success>  (4) 
True

>  <enamine_searched>  (4) 
False

>  <enamine_id>  (4) 
nan

$$$$

     RDKit          3D

 41 44  0  0  0  0  0  0  0  0999 V2000
   10.0964   -2.1707   21.6899 C   0  0  0  0  0  0  0  0  0  0  0  0
    9.2508   -1.2724   22.6040 C   0  0  1  0  0  0  0  0  0  0  0  0
    9.8311   -1.2489   23.9977 C   0  0  0  0  0  0  0  0  0  0  0  0
    9.8757   -2.3651   24.9001 C   0  0  0  0  0  0  0  0  0  0  0  0
   10.5871   -2.0839   26.0261 C   0  0  0  0  0  0  0  0  0  0  0  0
   11.2859   -0.5190   25.9517 S   0  0  0  0  0  0  0  0  0  0  0  0
   10.4956   -0.1512   24.4599 C   0  0  0  0  0  0  0  0  0  0  0  0
   10.5097    1.2017   23.7823 C   0  0  0  0  0  0  0  0  0  0  0  0
   10.2535    0.9873   22.2902 C   0  0  0  0  0  0  0  0  0  0  0  0
    9.1198    0.0915   22.0856 N   0  0  0  0  0  0  0  0  0  0  0  0
    8.0380    0.5705   21.3849 C   0  0  0  0  0  0  0  0  0  0  0  0
    7.9170    1.7574   21.1329 O   0  0  0  0  0  0  0  0  0  0  0  0
    6.9821   -0.4428   20.9024 C   0  0  0  0  0  0  0  0  0  0  0  0
    6.1288    0.0866   19.7755 C   0  0  0  0  0  0  0  0  0  0  0  0
    6.4409   -0.2120   18.4727 C   0  0  0  0  0  0  0  0  0  0  0  0
    5.7737    0.2355   17.3742 N   0  0  0  0  0  0  0  0  0  0  0  0
    4.7458    1.0201   17.5856 C   0  0  0  0  0  0  0  0  0  0  0  0
    4.2929    1.4094   18.8756 C   0  0  0  0  0  0  0  0  0  0  0  0
    3.1720    2.2602   19.0479 C   0  0  0  0  0  0  0  0  0  0  0  0
    2.7701    2.6335   20.3001 C   0  0  0  0  0  0  0  0  0  0  0  0
    3.4737    2.1703   21.4347 C   0  0  0  0  0  0  0  0  0  0  0  0
    4.5641    1.3475   21.2919 C   0  0  0  0  0  0  0  0  0  0  0  0
    5.0042    0.9400   20.0043 C   0  0  0  0  0  0  0  0  0  0  0  0
    5.1114    1.0155   22.1678 H   0  0  0  0  0  0  0  0  0  0  0  0
    3.1494    2.4786   22.4240 H   0  0  0  0  0  0  0  0  0  0  0  0
    1.9245    3.3033   20.4226 H   0  0  0  0  0  0  0  0  0  0  0  0
    2.6638    2.6259   18.1584 H   0  0  0  0  0  0  0  0  0  0  0  0
    4.2113    1.3846   16.7065 H   0  0  0  0  0  0  0  0  0  0  0  0
    7.2823   -0.8667   18.2429 H   0  0  0  0  0  0  0  0  0  0  0  0
    6.3675   -0.7597   21.7570 H   0  0  0  0  0  0  0  0  0  0  0  0
    7.5040   -1.3443   20.5611 H   0  0  0  0  0  0  0  0  0  0  0  0
   10.0039    1.9190   21.7778 H   0  0  0  0  0  0  0  0  0  0  0  0
   11.1518    0.5481   21.8291 H   0  0  0  0  0  0  0  0  0  0  0  0
   11.4730    1.7075   23.9310 H   0  0  0  0  0  0  0  0  0  0  0  0
    9.7301    1.8659   24.1980 H   0  0  0  0  0  0  0  0  0  0  0  0
   10.7127   -2.6779   26.9201 H   0  0  0  0  0  0  0  0  0  0  0  0
    9.4323   -3.3338   24.6756 H   0  0  0  0  0  0  0  0  0  0  0  0
    8.2330   -1.6827   22.6720 H   0  0  0  0  0  0  0  0  0  0  0  0
   10.0919   -3.1818   22.1053 H   0  0  0  0  0  0  0  0  0  0  0  0
   11.1398   -1.8296   21.6469 H   0  0  0  0  0  0  0  0  0  0  0  0
    9.6875   -2.1983   20.6770 H   0  0  0  0  0  0  0  0  0  0  0  0
  1  2  1  0
  2  3  1  0
  3  4  1  0
  4  5  2  0
  5  6  1  0
  6  7  1  0
  7  8  1  0
  8  9  1  0
  9 10  1  0
 10 11  1  0
 11 12  2  0
 11 13  1  0
 13 14  1  0
 14 15  2  0
 15 16  1  0
 16 17  2  0
 17 18  1  0
 18 19  2  0
 19 20  1  0
 20 21  2  0
 21 22  1  0
 22 23  2  0
 22 24  1  0
 21 25  1  0
 20 26  1  0
 19 27  1  0
 17 28  1  0
 15 29  1  0
 13 30  1  0
 13 31  1  0
  9 32  1  0
  9 33  1  0
  8 34  1  0
  8 35  1  0
  5 36  1  0
  4 37  1  0
  2 38  1  1
  1 39  1  0
  1 40  1  0
  1 41  1  0
 10  2  1  0
 23 14  1  0
  7  3  2  0
 23 18  1  0
M  END
>  <cnnaffinities>  (5) 
[5.53505, 5.8122]

>  <score>  (5) 
5.53505

>  <index>  (5) 
4

>  <Smiles>  (5) 
C([C@]1(c2c(c(sc2C(C(N1C(=O)C(c1c(nc(c2c(c(c(c(c12)[H])[H])[H])[H])[H])[H])([H])[H])([H])[H])([H])[H])[H])[H])[H])([H])([H])[H]

>  <h>  (5) 
<NA>

>  <Training>  (5) 
True

>  <Success>  (5) 
True

>  <enamine_searched>  (5) 
False

>  <enamine_id>  (5) 
nan

$$$$

     RDKit          3D

 50 54  0  0  0  0  0  0  0  0999 V2000
   10.0026   -1.5112   22.4562 C   0  0  0  0  0  0  0  0  0  0  0  0
    8.6120   -0.8803   22.3844 C   0  0  1  0  0  0  0  0  0  0  0  0
    8.3247   -0.3439   20.9673 C   0  0  0  0  0  0  0  0  0  0  0  0
    6.8813   -0.4211   20.8594 N   0  0  0  0  0  0  0  0  0  0  0  0
    6.1409    0.1008   19.7809 C   0  0  0  0  0  0  0  0  0  0  0  0
    6.4795   -0.2068   18.4858 C   0  0  0  0  0  0  0  0  0  0  0  0
    5.8062    0.2237   17.3906 N   0  0  0  0  0  0  0  0  0  0  0  0
    4.7661    0.9972   17.5976 C   0  0  0  0  0  0  0  0  0  0  0  0
    4.3140    1.3962   18.8866 C   0  0  0  0  0  0  0  0  0  0  0  0
    3.1836    2.2383   19.0447 C   0  0  0  0  0  0  0  0  0  0  0  0
    2.7802    2.6330   20.2902 C   0  0  0  0  0  0  0  0  0  0  0  0
    3.4829    2.2003   21.4361 C   0  0  0  0  0  0  0  0  0  0  0  0
    4.5767    1.3822   21.3110 C   0  0  0  0  0  0  0  0  0  0  0  0
    5.0153    0.9501   20.0241 C   0  0  0  0  0  0  0  0  0  0  0  0
    5.1004    1.0530   22.2024 H   0  0  0  0  0  0  0  0  0  0  0  0
    3.1589    2.5257   22.4209 H   0  0  0  0  0  0  0  0  0  0  0  0
    1.9305    3.2989   20.4051 H   0  0  0  0  0  0  0  0  0  0  0  0
    2.6690    2.5836   18.1529 H   0  0  0  0  0  0  0  0  0  0  0  0
    4.2212    1.3538   16.7229 H   0  0  0  0  0  0  0  0  0  0  0  0
    7.3234   -0.8682   18.2923 H   0  0  0  0  0  0  0  0  0  0  0  0
    6.3162   -1.3077   21.7536 C   0  0  0  0  0  0  0  0  0  0  0  0
    5.1587   -1.6589   21.7323 O   0  0  0  0  0  0  0  0  0  0  0  0
    7.4017   -1.7992   22.7348 C   0  0  1  0  0  0  0  0  0  0  0  0
    7.6851   -3.2730   22.3993 C   0  0  0  0  0  0  0  0  0  0  0  0
    6.4968   -4.0804   22.6465 N   0  0  0  0  0  0  0  0  0  0  0  0
    6.1165   -5.0662   21.7281 C   0  0  0  0  0  0  0  0  0  0  0  0
    4.6038   -5.0663   21.4464 C   0  0  0  0  0  0  0  0  0  0  0  0
    4.6337   -5.0851   21.4080 N   0  0  0  0  0  0  0  0  0  0  0  0
    6.4271   -6.0600   22.0082 H   0  0  0  0  0  0  0  0  0  0  0  0
    6.4908   -4.7902   20.7840 H   0  0  0  0  0  0  0  0  0  0  0  0
    5.9461   -4.1031   23.8958 C   0  0  0  0  0  0  0  0  0  0  0  0
    5.2439   -5.0109   24.2967 O   0  0  0  0  0  0  0  0  0  0  0  0
    6.2644   -2.9067   24.7241 C   0  0  0  0  0  0  0  0  0  0  0  0
    5.8731   -2.9234   26.0610 C   0  0  0  0  0  0  0  0  0  0  0  0
    5.9331   -1.7764   26.8242 C   0  0  0  0  0  0  0  0  0  0  0  0
    6.3979   -0.6151   26.2127 C   0  0  0  0  0  0  0  0  0  0  0  0
    6.3822    0.5296   26.9194 F   0  0  0  0  0  0  0  0  0  0  0  0
    6.8748   -0.5939   24.9150 C   0  0  0  0  0  0  0  0  0  0  0  0
    6.8743   -1.7728   24.1614 C   0  0  0  0  0  0  0  0  0  0  0  0
    7.2321    0.3490   24.5126 H   0  0  0  0  0  0  0  0  0  0  0  0
    5.6018   -1.7547   27.8584 H   0  0  0  0  0  0  0  0  0  0  0  0
    5.4917   -3.8500   26.4708 H   0  0  0  0  0  0  0  0  0  0  0  0
    7.9477   -3.3677   21.3435 H   0  0  0  0  0  0  0  0  0  0  0  0
    8.5204   -3.6341   23.0089 H   0  0  0  0  0  0  0  0  0  0  0  0
    8.8300   -0.9558   20.2049 H   0  0  0  0  0  0  0  0  0  0  0  0
    8.6709    0.6869   20.8420 H   0  0  0  0  0  0  0  0  0  0  0  0
    8.5826   -0.0217   23.0596 H   0  0  0  0  0  0  0  0  0  0  0  0
   10.2024   -1.9609   23.4342 H   0  0  0  0  0  0  0  0  0  0  0  0
   10.7713   -0.7541   22.2660 H   0  0  0  0  0  0  0  0  0  0  0  0
   10.1187   -2.2929   21.6947 H   0  0  0  0  0  0  0  0  0  0  0  0
  1  2  1  0
  2  3  1  0
  3  4  1  0
  4  5  1  0
  5  6  2  0
  6  7  1  0
  7  8  2  0
  8  9  1  0
  9 10  2  0
 10 11  1  0
 11 12  2  0
 12 13  1  0
 13 14  2  0
 13 15  1  0
 12 16  1  0
 11 17  1  0
 10 18  1  0
  8 19  1  0
  6 20  1  0
  4 21  1  0
 21 22  2  0
 21 23  1  0
 23 24  1  6
 24 25  1  0
 25 26  1  0
 26 27  1  0
 27 28  3  0
 26 29  1  0
 26 30  1  0
 25 31  1  0
 31 32  2  0
 31 33  1  0
 33 34  2  0
 34 35  1  0
 35 36  2  0
 36 37  1  0
 36 38  1  0
 38 39  2  0
 38 40  1  0
 35 41  1  0
 34 42  1  0
 24 43  1  0
 24 44  1  0
  3 45  1  0
  3 46  1  0
  2 47  1  1
  1 48  1  0
  1 49  1  0
  1 50  1  0
 23  2  1  0
 39 33  1  0
 14  5  1  0
 39 23  1  0
 14  9  1  0
M  END
>  <cnnaffinities>  (6) 
[5.54191]

>  <score>  (6) 
5.54191

>  <index>  (6) 
5

>  <Smiles>  (6) 
C([C@]1(C(N(c2c(nc(c3c(c(c(c(c23)[H])[H])[H])[H])[H])[H])C(=O)[C@]21C(N(C(C#N)([H])[H])C(=O)c1c(c(c(F)c(c21)[H])[H])[H])([H])[H])([H])[H])[H])([H])([H])[H]

>  <h>  (6) 
<NA>

>  <Training>  (6) 
True

>  <Success>  (6) 
True

>  <enamine_searched>  (6) 
False

>  <enamine_id>  (6) 
nan

$$$$

     RDKit          3D

 65 69  0  0  0  0  0  0  0  0999 V2000
    7.5683   -5.4242   28.2296 C   0  0  0  0  0  0  0  0  0  0  0  0
    6.6940   -4.1995   28.5054 C   0  0  0  0  0  0  0  0  0  0  0  0
    7.3210   -3.0236   27.7966 C   0  0  0  0  0  0  0  0  0  0  0  0
    8.3789   -2.5457   28.0976 O   0  0  0  0  0  0  0  0  0  0  0  0
    6.5314   -2.4382   26.6665 N   0  0  1  0  0  4  0  0  0  0  0  0
    5.7389   -1.2186   27.1499 C   0  0  0  0  0  0  0  0  0  0  0  0
    5.2489   -0.4301   25.9624 C   0  0  0  0  0  0  0  0  0  0  0  0
    6.4357    0.1226   25.1946 C   0  0  0  0  0  0  0  0  0  0  0  0
    7.2891   -1.0215   24.6883 C   0  0  0  0  0  0  0  0  0  0  0  0
    8.0684   -0.8963   23.5243 C   0  0  0  0  0  0  0  0  0  0  0  0
    8.2429    0.3969   22.9271 N   0  0  0  0  0  0  0  0  0  0  0  0
    9.1516    1.2845   23.6573 C   0  0  0  0  0  0  0  0  0  0  0  0
   10.5773    0.7559   23.6374 C   0  0  0  0  0  0  0  0  0  0  0  0
   11.3437    0.7688   22.4717 C   0  0  0  0  0  0  0  0  0  0  0  0
   12.5687    0.1124   22.4257 C   0  0  0  0  0  0  0  0  0  0  0  0
   13.0721   -0.5450   23.5480 C   0  0  0  0  0  0  0  0  0  0  0  0
   12.3146   -0.5235   24.7140 C   0  0  0  0  0  0  0  0  0  0  0  0
   12.8803   -1.3729   26.1294 Cl  0  0  0  0  0  0  0  0  0  0  0  0
   11.0913    0.1280   24.7731 C   0  0  0  0  0  0  0  0  0  0  0  0
   10.5236    0.0932   25.7020 H   0  0  0  0  0  0  0  0  0  0  0  0
   14.0058   -1.0994   23.5360 H   0  0  0  0  0  0  0  0  0  0  0  0
   13.1136    0.0991   21.4849 H   0  0  0  0  0  0  0  0  0  0  0  0
   10.9878    1.2957   21.5903 H   0  0  0  0  0  0  0  0  0  0  0  0
    9.0478    2.2882   23.2308 H   0  0  0  0  0  0  0  0  0  0  0  0
    8.8077    1.3053   24.6964 H   0  0  0  0  0  0  0  0  0  0  0  0
    7.9725    0.6715   21.6002 C   0  0  0  0  0  0  0  0  0  0  0  0
    8.4024    1.6580   21.0251 O   0  0  0  0  0  0  0  0  0  0  0  0
    7.0828   -0.3512   20.8887 C   0  0  0  0  0  0  0  0  0  0  0  0
    6.2618    0.1816   19.7529 C   0  0  0  0  0  0  0  0  0  0  0  0
    6.6000   -0.1119   18.4602 C   0  0  0  0  0  0  0  0  0  0  0  0
    5.9034    0.2657   17.3557 N   0  0  0  0  0  0  0  0  0  0  0  0
    4.8249    0.9822   17.5635 C   0  0  0  0  0  0  0  0  0  0  0  0
    4.3618    1.3839   18.8461 C   0  0  0  0  0  0  0  0  0  0  0  0
    3.2010    2.1831   19.0104 C   0  0  0  0  0  0  0  0  0  0  0  0
    2.7765    2.5464   20.2595 C   0  0  0  0  0  0  0  0  0  0  0  0
    3.4930    2.1256   21.4030 C   0  0  0  0  0  0  0  0  0  0  0  0
    4.6241    1.3584   21.2680 C   0  0  0  0  0  0  0  0  0  0  0  0
    5.0944    0.9685   19.9828 C   0  0  0  0  0  0  0  0  0  0  0  0
    5.1691    1.0505   22.1559 H   0  0  0  0  0  0  0  0  0  0  0  0
    3.1438    2.4200   22.3902 H   0  0  0  0  0  0  0  0  0  0  0  0
    1.8973    3.1733   20.3789 H   0  0  0  0  0  0  0  0  0  0  0  0
    2.6748    2.5219   18.1206 H   0  0  0  0  0  0  0  0  0  0  0  0
    4.2619    1.2896   16.6823 H   0  0  0  0  0  0  0  0  0  0  0  0
    7.4919   -0.7073   18.2628 H   0  0  0  0  0  0  0  0  0  0  0  0
    7.7506   -1.1313   20.4962 H   0  0  0  0  0  0  0  0  0  0  0  0
    6.4351   -0.8228   21.6343 H   0  0  0  0  0  0  0  0  0  0  0  0
    8.7511   -1.9932   23.0109 C   0  0  0  0  0  0  0  0  0  0  0  0
    8.7422   -3.2075   23.6910 C   0  0  0  0  0  0  0  0  0  0  0  0
    8.0308   -3.3327   24.8798 C   0  0  0  0  0  0  0  0  0  0  0  0
    7.3174   -2.2371   25.3691 C   0  0  0  0  0  0  0  0  0  0  0  0
    8.0682   -4.2624   25.4429 H   0  0  0  0  0  0  0  0  0  0  0  0
    9.2977   -4.0545   23.2978 H   0  0  0  0  0  0  0  0  0  0  0  0
    9.3142   -1.8849   22.0864 H   0  0  0  0  0  0  0  0  0  0  0  0
    6.1020    0.7423   24.3548 H   0  0  0  0  0  0  0  0  0  0  0  0
    7.0336    0.7665   25.8594 H   0  0  0  0  0  0  0  0  0  0  0  0
    4.6568   -1.0625   25.2891 H   0  0  0  0  0  0  0  0  0  0  0  0
    4.5985    0.3712   26.3149 H   0  0  0  0  0  0  0  0  0  0  0  0
    4.9081   -1.5534   27.7786 H   0  0  0  0  0  0  0  0  0  0  0  0
    6.4281   -0.6214   27.7552 H   0  0  0  0  0  0  0  0  0  0  0  0
    5.8163   -3.1681   26.4357 H   0  0  0  0  0  0  0  0  0  0  0  0
    6.6432   -3.9623   29.5710 H   0  0  0  0  0  0  0  0  0  0  0  0
    5.6748   -4.3511   28.1399 H   0  0  0  0  0  0  0  0  0  0  0  0
    8.5772   -5.2719   28.6259 H   0  0  0  0  0  0  0  0  0  0  0  0
    7.6569   -5.5340   27.1480 H   0  0  0  0  0  0  0  0  0  0  0  0
    7.1518   -6.3503   28.6412 H   0  0  0  0  0  0  0  0  0  0  0  0
  1  2  1  0
  2  3  1  0
  3  4  2  0
  3  5  1  0
  5  6  1  0
  6  7  1  0
  7  8  1  0
  8  9  1  0
  9 10  2  0
 10 11  1  0
 11 12  1  0
 12 13  1  0
 13 14  2  0
 14 15  1  0
 15 16  2  0
 16 17  1  0
 17 18  1  0
 17 19  2  0
 19 20  1  0
 16 21  1  0
 15 22  1  0
 14 23  1  0
 12 24  1  0
 12 25  1  0
 11 26  1  0
 26 27  2  0
 26 28  1  0
 28 29  1  0
 29 30  2  0
 30 31  1  0
 31 32  2  0
 32 33  1  0
 33 34  2  0
 34 35  1  0
 35 36  2  0
 36 37  1  0
 37 38  2  0
 37 39  1  0
 36 40  1  0
 35 41  1  0
 34 42  1  0
 32 43  1  0
 30 44  1  0
 28 45  1  0
 28 46  1  0
 10 47  1  0
 47 48  2  0
 48 49  1  0
 49 50  2  0
 49 51  1  0
 48 52  1  0
 47 53  1  0
  8 54  1  0
  8 55  1  0
  7 56  1  0
  7 57  1  0
  6 58  1  0
  6 59  1  0
  5 60  1  6
  2 61  1  0
  2 62  1  0
  1 63  1  0
  1 64  1  0
  1 65  1  0
 50  5  1  0
 50  9  1  0
 19 13  1  0
 38 29  1  0
 38 33  1  0
M  CHG  1   5   1
M  END
>  <cnnaffinities>  (7) 
[6.68405, 6.70858]

>  <score>  (7) 
6.68405

>  <index>  (7) 
6

>  <Smiles>  (7) 
C(C(C(=O)[N@+]1(C(C(C(c2c(N(C(c3c(c(c(c(Cl)c3[H])[H])[H])[H])([H])[H])C(=O)C(c3c(nc(c4c(c(c(c(c34)[H])[H])[H])[H])[H])[H])([H])[H])c(c(c(c12)[H])[H])[H])([H])[H])([H])[H])([H])[H])[H])([H])[H])([H])([H])[H]

>  <h>  (7) 
<NA>

>  <Training>  (7) 
True

>  <Success>  (7) 
True

>  <enamine_searched>  (7) 
False

>  <enamine_id>  (7) 
nan

$$$$

     RDKit          3D

 37 39  0  0  0  0  0  0  0  0999 V2000
    8.5356    1.3337   20.7083 O   0  0  0  0  0  0  0  0  0  0  0  0
    7.8658    0.6713   21.4759 C   0  0  0  0  0  0  0  0  0  0  0  0
    6.9468   -0.4391   20.9149 C   0  0  0  0  0  0  0  0  0  0  0  0
    6.1075    0.0809   19.7657 C   0  0  0  0  0  0  0  0  0  0  0  0
    6.4270   -0.2094   18.4649 C   0  0  0  0  0  0  0  0  0  0  0  0
    5.7635    0.2421   17.3644 N   0  0  0  0  0  0  0  0  0  0  0  0
    4.7346    1.0269   17.5768 C   0  0  0  0  0  0  0  0  0  0  0  0
    4.2848    1.4169   18.8666 C   0  0  0  0  0  0  0  0  0  0  0  0
    3.1668    2.2707   19.0453 C   0  0  0  0  0  0  0  0  0  0  0  0
    2.7632    2.6429   20.2989 C   0  0  0  0  0  0  0  0  0  0  0  0
    3.4625    2.1679   21.4316 C   0  0  0  0  0  0  0  0  0  0  0  0
    4.5459    1.3364   21.2872 C   0  0  0  0  0  0  0  0  0  0  0  0
    4.9890    0.9372   19.9975 C   0  0  0  0  0  0  0  0  0  0  0  0
    5.0683    0.9828   22.1728 H   0  0  0  0  0  0  0  0  0  0  0  0
    3.1366    2.4671   22.4233 H   0  0  0  0  0  0  0  0  0  0  0  0
    1.9148    3.3108   20.4317 H   0  0  0  0  0  0  0  0  0  0  0  0
    2.6523    2.6470   18.1648 H   0  0  0  0  0  0  0  0  0  0  0  0
    4.2009    1.3963   16.6986 H   0  0  0  0  0  0  0  0  0  0  0  0
    7.2745   -0.8566   18.2414 H   0  0  0  0  0  0  0  0  0  0  0  0
    6.3092   -0.8800   21.6929 H   0  0  0  0  0  0  0  0  0  0  0  0
    7.5997   -1.2349   20.5347 H   0  0  0  0  0  0  0  0  0  0  0  0
    7.8820    0.9003   22.8475 N   0  0  0  0  0  0  0  0  0  0  0  0
    7.5939   -0.1158   23.8481 C   0  0  0  0  0  0  0  0  0  0  0  0
    8.4589    0.0761   25.0945 C   0  0  0  0  0  0  0  0  0  0  0  0
    8.3470    1.4929   25.6402 C   0  0  0  0  0  0  0  0  0  0  0  0
    8.7021    2.4949   24.5490 C   0  0  0  0  0  0  0  0  0  0  0  0
    7.8409    2.2857   23.3127 C   0  0  0  0  0  0  0  0  0  0  0  0
    6.8026    2.5849   23.5412 H   0  0  0  0  0  0  0  0  0  0  0  0
    8.1795    2.9109   22.4872 H   0  0  0  0  0  0  0  0  0  0  0  0
    8.5811    3.5205   24.9148 H   0  0  0  0  0  0  0  0  0  0  0  0
    9.7560    2.3880   24.2753 H   0  0  0  0  0  0  0  0  0  0  0  0
    7.3222    1.6737   25.9909 H   0  0  0  0  0  0  0  0  0  0  0  0
    8.9988    1.6256   26.5112 H   0  0  0  0  0  0  0  0  0  0  0  0
    9.5028   -0.1404   24.8477 H   0  0  0  0  0  0  0  0  0  0  0  0
    8.1670   -0.6537   25.8554 H   0  0  0  0  0  0  0  0  0  0  0  0
    6.5318   -0.1114   24.1464 H   0  0  0  0  0  0  0  0  0  0  0  0
    7.8021   -1.0919   23.4107 H   0  0  0  0  0  0  0  0  0  0  0  0
  1  2  2  0
  2  3  1  0
  3  4  1  0
  4  5  2  0
  5  6  1  0
  6  7  2  0
  7  8  1  0
  8  9  2  0
  9 10  1  0
 10 11  2  0
 11 12  1  0
 12 13  2  0
 12 14  1  0
 11 15  1  0
 10 16  1  0
  9 17  1  0
  7 18  1  0
  5 19  1  0
  3 20  1  0
  3 21  1  0
  2 22  1  0
 22 23  1  0
 23 24  1  0
 24 25  1  0
 25 26  1  0
 26 27  1  0
 27 28  1  0
 27 29  1  0
 26 30  1  0
 26 31  1  0
 25 32  1  0
 25 33  1  0
 24 34  1  0
 24 35  1  0
 23 36  1  0
 23 37  1  0
 13  4  1  0
 27 22  1  0
 13  8  1  0
M  END
>  <cnnaffinities>  (8) 
[4.71699, 4.72115, 4.53965, 4.57214, 4.57236]

>  <score>  (8) 
4.71699

>  <index>  (8) 
7

>  <Smiles>  (8) 
O=C(C(c1c(nc(c2c(c(c(c(c12)[H])[H])[H])[H])[H])[H])([H])[H])N1C(C(C(C(C1([H])[H])([H])[H])([H])[H])([H])[H])([H])[H]

>  <h>  (8) 
<NA>

>  <Training>  (8) 
True

>  <Success>  (8) 
True

>  <enamine_searched>  (8) 
False

>  <enamine_id>  (8) 
nan

$$$$

     RDKit          3D

 66 71  0  0  0  0  0  0  0  0999 V2000
    7.7719   -2.8608   23.3705 C   0  0  0  0  0  0  0  0  0  0  0  0
    8.0657   -1.8501   22.2675 C   0  0  1  0  0  0  0  0  0  0  0  0
    6.8989   -1.7382   21.2786 C   0  0  0  0  0  0  0  0  0  0  0  0
    6.9558   -0.3728   20.8208 N   0  0  0  0  0  0  0  0  0  0  0  0
    6.1439    0.1005   19.7677 C   0  0  0  0  0  0  0  0  0  0  0  0
    6.4500   -0.2452   18.4764 C   0  0  0  0  0  0  0  0  0  0  0  0
    5.7850    0.1963   17.3825 N   0  0  0  0  0  0  0  0  0  0  0  0
    4.7609    0.9903   17.5965 C   0  0  0  0  0  0  0  0  0  0  0  0
    4.3086    1.3815   18.8884 C   0  0  0  0  0  0  0  0  0  0  0  0
    3.1801    2.2259   19.0527 C   0  0  0  0  0  0  0  0  0  0  0  0
    2.7559    2.5809   20.3014 C   0  0  0  0  0  0  0  0  0  0  0  0
    3.4324    2.1091   21.4480 C   0  0  0  0  0  0  0  0  0  0  0  0
    4.5260    1.2897   21.3181 C   0  0  0  0  0  0  0  0  0  0  0  0
    5.0032    0.9193   20.0272 C   0  0  0  0  0  0  0  0  0  0  0  0
    5.0354    0.9423   22.2124 H   0  0  0  0  0  0  0  0  0  0  0  0
    3.0943    2.4089   22.4344 H   0  0  0  0  0  0  0  0  0  0  0  0
    1.8941    3.2295   20.4168 H   0  0  0  0  0  0  0  0  0  0  0  0
    2.6813    2.5959   18.1608 H   0  0  0  0  0  0  0  0  0  0  0  0
    4.2177    1.3610   16.7261 H   0  0  0  0  0  0  0  0  0  0  0  0
    7.3057   -0.8930   18.2926 H   0  0  0  0  0  0  0  0  0  0  0  0
    7.7423    0.4553   21.5786 C   0  0  0  0  0  0  0  0  0  0  0  0
    7.8691    1.6499   21.3764 O   0  0  0  0  0  0  0  0  0  0  0  0
    8.3976   -0.3809   22.7037 C   0  0  1  0  0  0  0  0  0  0  0  0
    7.7411   -0.0450   24.0678 C   0  0  0  0  0  0  0  0  0  0  0  0
    8.1947    1.2106   24.6364 N   0  0  0  0  0  0  0  0  0  0  0  0
    7.2370    2.1791   25.1382 C   0  0  0  0  0  0  0  0  0  0  0  0
    6.8948    3.1899   24.0438 C   0  0  0  0  0  0  0  0  0  0  0  0
    5.7954    3.2356   23.5177 O   0  0  0  0  0  0  0  0  0  0  0  0
    7.9257    4.0012   23.6990 N   0  0  0  0  0  0  0  0  0  0  0  0
    7.7833    4.9151   22.5849 C   0  0  0  0  0  0  0  0  0  0  0  0
    9.0308    5.7251   22.3876 C   0  0  0  0  0  0  0  0  0  0  0  0
    9.2837    7.0812   22.4912 C   0  0  0  0  0  0  0  0  0  0  0  0
   10.6355    7.2250   22.1127 C   0  0  0  0  0  0  0  0  0  0  0  0
   11.1860    6.0569   21.8232 N   0  0  0  0  0  0  0  0  0  0  0  0
   10.2074    5.1539   22.0009 N   0  0  0  0  0  0  0  0  0  0  0  0
   10.5283    3.7744   21.6813 C   0  0  0  0  0  0  0  0  0  0  0  0
   11.5596    3.8233   21.3315 H   0  0  0  0  0  0  0  0  0  0  0  0
   10.4712    3.1328   22.5663 H   0  0  0  0  0  0  0  0  0  0  0  0
    9.8680    3.3744   20.9048 H   0  0  0  0  0  0  0  0  0  0  0  0
   11.2487    8.1162   22.0249 H   0  0  0  0  0  0  0  0  0  0  0  0
    8.6017    7.8435   22.8517 H   0  0  0  0  0  0  0  0  0  0  0  0
    7.5409    4.3386   21.6796 H   0  0  0  0  0  0  0  0  0  0  0  0
    6.9240    5.5652   22.7700 H   0  0  0  0  0  0  0  0  0  0  0  0
    8.7886    4.0110   24.2309 H   0  0  0  0  0  0  0  0  0  0  0  0
    7.6946    2.6878   25.9915 H   0  0  0  0  0  0  0  0  0  0  0  0
    6.3335    1.6556   25.4611 H   0  0  0  0  0  0  0  0  0  0  0  0
    9.5088    1.5521   24.6604 C   0  0  0  0  0  0  0  0  0  0  0  0
    9.9147    2.5256   25.3001 O   0  0  0  0  0  0  0  0  0  0  0  0
   10.4184    0.7672   23.7755 C   0  0  0  0  0  0  0  0  0  0  0  0
   11.7853    1.0356   23.8373 C   0  0  0  0  0  0  0  0  0  0  0  0
   12.6545    0.4694   22.9249 C   0  0  0  0  0  0  0  0  0  0  0  0
   12.1311   -0.3491   21.9242 C   0  0  0  0  0  0  0  0  0  0  0  0
   10.7695   -0.5844   21.8439 C   0  0  0  0  0  0  0  0  0  0  0  0
    9.8844   -0.0772   22.7965 C   0  0  0  0  0  0  0  0  0  0  0  0
   10.3902   -1.1734   21.0141 H   0  0  0  0  0  0  0  0  0  0  0  0
   12.7761   -0.8229   21.1944 H   0  0  0  0  0  0  0  0  0  0  0  0
   13.7165    0.6897   22.9788 H   0  0  0  0  0  0  0  0  0  0  0  0
   12.1288    1.7434   24.5774 H   0  0  0  0  0  0  0  0  0  0  0  0
    7.9922   -0.8466   24.7694 H   0  0  0  0  0  0  0  0  0  0  0  0
    6.6508   -0.0080   23.9564 H   0  0  0  0  0  0  0  0  0  0  0  0
    7.0097   -2.4196   20.4334 H   0  0  0  0  0  0  0  0  0  0  0  0
    5.9335   -1.9575   21.7584 H   0  0  0  0  0  0  0  0  0  0  0  0
    8.9314   -2.2243   21.7166 H   0  0  0  0  0  0  0  0  0  0  0  0
    8.5925   -2.9328   24.0904 H   0  0  0  0  0  0  0  0  0  0  0  0
    6.8578   -2.5992   23.9148 H   0  0  0  0  0  0  0  0  0  0  0  0
    7.6223   -3.8510   22.9323 H   0  0  0  0  0  0  0  0  0  0  0  0
  1  2  1  0
  2  3  1  0
  3  4  1  0
  4  5  1  0
  5  6  2  0
  6  7  1  0
  7  8  2  0
  8  9  1  0
  9 10  2  0
 10 11  1  0
 11 12  2  0
 12 13  1  0
 13 14  2  0
 13 15  1  0
 12 16  1  0
 11 17  1  0
 10 18  1  0
  8 19  1  0
  6 20  1  0
  4 21  1  0
 21 22  2  0
 21 23  1  0
 23 24  1  1
 24 25  1  0
 25 26  1  0
 26 27  1  0
 27 28  2  0
 27 29  1  0
 29 30  1  0
 30 31  1  0
 31 32  2  0
 32 33  1  0
 33 34  2  0
 34 35  1  0
 35 36  1  0
 36 37  1  0
 36 38  1  0
 36 39  1  0
 33 40  1  0
 32 41  1  0
 30 42  1  0
 30 43  1  0
 29 44  1  0
 26 45  1  0
 26 46  1  0
 25 47  1  0
 47 48  2  0
 47 49  1  0
 49 50  2  0
 50 51  1  0
 51 52  2  0
 52 53  1  0
 53 54  2  0
 53 55  1  0
 52 56  1  0
 51 57  1  0
 50 58  1  0
 24 59  1  0
 24 60  1  0
  3 61  1  0
  3 62  1  0
  2 63  1  6
  1 64  1  0
  1 65  1  0
  1 66  1  0
 23  2  1  0
 35 31  1  0
 54 49  1  0
 14  5  1  0
 54 23  1  0
 14  9  1  0
M  END
>  <cnnaffinities>  (9) 
[6.55153, 6.43296]

>  <score>  (9) 
6.55153

>  <index>  (9) 
8

>  <Smiles>  (9) 
C([C@]1(C(N(c2c(nc(c3c(c(c(c(c23)[H])[H])[H])[H])[H])[H])C(=O)[C@]21C(N(C(C(=O)N(C(c1c(c(nn1C([H])([H])[H])[H])[H])([H])[H])[H])([H])[H])C(=O)c1c(c(c(c(c21)[H])[H])[H])[H])([H])[H])([H])[H])[H])([H])([H])[H]

>  <h>  (9) 
<NA>

>  <Training>  (9) 
True

>  <Success>  (9) 
True

>  <enamine_searched>  (9) 
False

>  <enamine_id>  (9) 
nan

$$$$

     RDKit          3D

 58 63  0  0  0  0  0  0  0  0999 V2000
    6.1767    2.7017   29.8103 C   0  0  0  0  0  0  0  0  0  0  0  0
    6.0814    2.3668   28.3552 C   0  0  0  0  0  0  0  0  0  0  0  0
    6.8783    2.9238   27.3161 C   0  0  0  0  0  0  0  0  0  0  0  0
    6.4247    2.3118   26.1974 C   0  0  0  0  0  0  0  0  0  0  0  0
    6.8716    2.4245   24.7706 C   0  0  0  0  0  0  0  0  0  0  0  0
    7.9079    1.4876   24.3957 N   0  0  0  0  0  0  0  0  0  0  0  0
    7.5496    0.1248   24.0795 C   0  0  0  0  0  0  0  0  0  0  0  0
    8.2757   -0.3417   22.7969 C   0  0  2  0  0  0  0  0  0  0  0  0
    7.7177    0.4527   21.5925 C   0  0  0  0  0  0  0  0  0  0  0  0
    7.8897    1.6271   21.3484 O   0  0  0  0  0  0  0  0  0  0  0  0
    6.9508   -0.3906   20.8214 N   0  0  0  0  0  0  0  0  0  0  0  0
    6.1476    0.1127   19.7644 C   0  0  0  0  0  0  0  0  0  0  0  0
    6.4466   -0.2231   18.4704 C   0  0  0  0  0  0  0  0  0  0  0  0
    5.7660    0.2168   17.3825 N   0  0  0  0  0  0  0  0  0  0  0  0
    4.7449    1.0128   17.5948 C   0  0  0  0  0  0  0  0  0  0  0  0
    4.2979    1.4129   18.8852 C   0  0  0  0  0  0  0  0  0  0  0  0
    3.1697    2.2602   19.0609 C   0  0  0  0  0  0  0  0  0  0  0  0
    2.7528    2.6165   20.3136 C   0  0  0  0  0  0  0  0  0  0  0  0
    3.4354    2.1285   21.4512 C   0  0  0  0  0  0  0  0  0  0  0  0
    4.5266    1.3086   21.3072 C   0  0  0  0  0  0  0  0  0  0  0  0
    5.0062    0.9446   20.0150 C   0  0  0  0  0  0  0  0  0  0  0  0
    5.0408    0.9340   22.1875 H   0  0  0  0  0  0  0  0  0  0  0  0
    3.1004    2.4186   22.4426 H   0  0  0  0  0  0  0  0  0  0  0  0
    1.9052    3.2854   20.4399 H   0  0  0  0  0  0  0  0  0  0  0  0
    2.6635    2.6376   18.1759 H   0  0  0  0  0  0  0  0  0  0  0  0
    4.2167    1.3797   16.7137 H   0  0  0  0  0  0  0  0  0  0  0  0
    7.2907   -0.8787   18.2631 H   0  0  0  0  0  0  0  0  0  0  0  0
    6.8171   -1.7277   21.3648 C   0  0  0  0  0  0  0  0  0  0  0  0
    7.9287   -1.8188   22.4316 C   0  0  2  0  0  0  0  0  0  0  0  0
    7.5499   -2.7506   23.5916 C   0  0  0  0  0  0  0  0  0  0  0  0
    6.6190   -2.4270   24.0748 H   0  0  0  0  0  0  0  0  0  0  0  0
    8.3266   -2.7866   24.3647 H   0  0  0  0  0  0  0  0  0  0  0  0
    7.3925   -3.7742   23.2322 H   0  0  0  0  0  0  0  0  0  0  0  0
    8.8227   -2.2266   21.9541 H   0  0  0  0  0  0  0  0  0  0  0  0
    5.8243   -1.8810   21.8160 H   0  0  0  0  0  0  0  0  0  0  0  0
    6.9307   -2.4698   20.5688 H   0  0  0  0  0  0  0  0  0  0  0  0
    9.7561   -0.0324   22.9552 C   0  0  0  0  0  0  0  0  0  0  0  0
   10.7037   -0.6230   22.1087 C   0  0  0  0  0  0  0  0  0  0  0  0
   12.0418   -0.3166   22.2592 C   0  0  0  0  0  0  0  0  0  0  0  0
   12.9364   -0.9085   21.4502 F   0  0  0  0  0  0  0  0  0  0  0  0
   12.4964    0.5890   23.2110 C   0  0  0  0  0  0  0  0  0  0  0  0
   11.5535    1.2312   23.9867 C   0  0  0  0  0  0  0  0  0  0  0  0
   10.1953    0.9553   23.8481 C   0  0  0  0  0  0  0  0  0  0  0  0
    9.2212    1.8149   24.5972 C   0  0  0  0  0  0  0  0  0  0  0  0
    9.5698    2.7560   25.2990 O   0  0  0  0  0  0  0  0  0  0  0  0
   11.8245    1.9946   24.6940 H   0  0  0  0  0  0  0  0  0  0  0  0
   13.5564    0.7957   23.2988 H   0  0  0  0  0  0  0  0  0  0  0  0
   10.4216   -1.2920   21.3033 H   0  0  0  0  0  0  0  0  0  0  0  0
    7.8155   -0.5359   24.9205 H   0  0  0  0  0  0  0  0  0  0  0  0
    6.4647    0.0919   23.9391 H   0  0  0  0  0  0  0  0  0  0  0  0
    7.2822    3.4251   24.6310 H   0  0  0  0  0  0  0  0  0  0  0  0
    6.0206    2.2928   24.0907 H   0  0  0  0  0  0  0  0  0  0  0  0
    5.4350    1.4691   26.5117 O   0  0  0  0  0  0  0  0  0  0  0  0
    5.2175    1.5032   27.8788 N   0  0  0  0  0  0  0  0  0  0  0  0
    7.6831    3.6412   27.3886 H   0  0  0  0  0  0  0  0  0  0  0  0
    7.2244    2.8778   30.0734 H   0  0  0  0  0  0  0  0  0  0  0  0
    5.7766    1.9075   30.4470 H   0  0  0  0  0  0  0  0  0  0  0  0
    5.6303    3.6286   30.0166 H   0  0  0  0  0  0  0  0  0  0  0  0
  1  2  1  0
  2  3  1  0
  3  4  2  0
  4  5  1  0
  5  6  1  0
  6  7  1  0
  8  7  1  1
  8  9  1  0
  9 10  2  0
  9 11  1  0
 11 12  1  0
 12 13  2  0
 13 14  1  0
 14 15  2  0
 15 16  1  0
 16 17  2  0
 17 18  1  0
 18 19  2  0
 19 20  1  0
 20 21  2  0
 20 22  1  0
 19 23  1  0
 18 24  1  0
 17 25  1  0
 15 26  1  0
 13 27  1  0
 11 28  1  0
 28 29  1  0
 29 30  1  0
 30 31  1  0
 30 32  1  0
 30 33  1  0
 29 34  1  6
 28 35  1  0
 28 36  1  0
  8 37  1  0
 37 38  2  0
 38 39  1  0
 39 40  1  0
 39 41  2  0
 41 42  1  0
 42 43  2  0
 43 44  1  0
 44 45  2  0
 42 46  1  0
 41 47  1  0
 38 48  1  0
  7 49  1  0
  7 50  1  0
  5 51  1  0
  5 52  1  0
  4 53  1  0
 53 54  1  0
  3 55  1  0
  1 56  1  0
  1 57  1  0
  1 58  1  0
 54  2  2  0
 44  6  1  0
 29  8  1  0
 43 37  1  0
 21 12  1  0
 21 16  1  0
M  END
>  <cnnaffinities>  (10) 
[6.5309, 6.50226, 6.66762]

>  <score>  (10) 
6.5309

>  <index>  (10) 
9

>  <Smiles>  (10) 
C(c1c(c(C(N2C([C@@]3(C(=O)N(c4c(nc(c5c(c(c(c(c45)[H])[H])[H])[H])[H])[H])C([C@@]3(C([H])([H])[H])[H])([H])[H])c3c(c(F)c(c(c3C2=O)[H])[H])[H])([H])[H])([H])[H])on1)[H])([H])([H])[H]

>  <h>  (10) 
<NA>

>  <Training>  (10) 
True

>  <Success>  (10) 
True

>  <enamine_searched>  (10) 
False

>  <enamine_id>  (10) 
nan

$$$$

     RDKit          3D

 72 77  0  0  0  0  0  0  0  0999 V2000
    7.4910    8.3781   24.7298 C   0  0  0  0  0  0  0  0  0  0  0  0
    6.7340    7.3396   23.9199 C   0  0  1  0  0  0  0  0  0  0  0  0
    7.4721    6.0064   23.9194 C   0  0  0  0  0  0  0  0  0  0  0  0
    6.6888    4.9784   23.1606 N   0  0  0  0  0  4  0  0  0  0  0  0
    7.3982    3.6659   23.0022 C   0  0  0  0  0  0  0  0  0  0  0  0
    7.5754    2.8442   24.2882 C   0  0  0  0  0  0  0  0  0  0  0  0
    8.4264    1.6776   24.0714 N   0  0  0  0  0  0  0  0  0  0  0  0
    7.8528    0.3587   23.9239 C   0  0  0  0  0  0  0  0  0  0  0  0
    8.4244   -0.3939   22.6916 C   0  0  2  0  0  0  0  0  0  0  0  0
    7.9559    0.3073   21.3938 C   0  0  0  0  0  0  0  0  0  0  0  0
    8.3860    1.3465   20.9284 O   0  0  0  0  0  0  0  0  0  0  0  0
    6.9328   -0.4201   20.8323 N   0  0  0  0  0  0  0  0  0  0  0  0
    6.1437    0.1070   19.7675 C   0  0  0  0  0  0  0  0  0  0  0  0
    6.4470   -0.2132   18.4693 C   0  0  0  0  0  0  0  0  0  0  0  0
    5.7636    0.2287   17.3829 N   0  0  0  0  0  0  0  0  0  0  0  0
    4.7392    1.0207   17.5863 C   0  0  0  0  0  0  0  0  0  0  0  0
    4.2893    1.4135   18.8788 C   0  0  0  0  0  0  0  0  0  0  0  0
    3.1630    2.2630   19.0570 C   0  0  0  0  0  0  0  0  0  0  0  0
    2.7538    2.6176   20.3132 C   0  0  0  0  0  0  0  0  0  0  0  0
    3.4463    2.1356   21.4442 C   0  0  0  0  0  0  0  0  0  0  0  0
    4.5440    1.3221   21.2987 C   0  0  0  0  0  0  0  0  0  0  0  0
    5.0025    0.9414   20.0073 C   0  0  0  0  0  0  0  0  0  0  0  0
    5.0710    0.9681   22.1777 H   0  0  0  0  0  0  0  0  0  0  0  0
    3.1137    2.4145   22.4410 H   0  0  0  0  0  0  0  0  0  0  0  0
    1.9004    3.2786   20.4533 H   0  0  0  0  0  0  0  0  0  0  0  0
    2.6496    2.6449   18.1788 H   0  0  0  0  0  0  0  0  0  0  0  0
    4.2091    1.3893   16.7052 H   0  0  0  0  0  0  0  0  0  0  0  0
    7.2915   -0.8657   18.2548 H   0  0  0  0  0  0  0  0  0  0  0  0
    6.5788   -1.6082   21.5861 C   0  0  0  0  0  0  0  0  0  0  0  0
    7.7737   -1.8053   22.5428 C   0  0  2  0  0  0  0  0  0  0  0  0
    7.3693   -2.5273   23.8336 C   0  0  0  0  0  0  0  0  0  0  0  0
    6.5588   -2.0049   24.3578 H   0  0  0  0  0  0  0  0  0  0  0  0
    7.0124   -3.5444   23.6252 H   0  0  0  0  0  0  0  0  0  0  0  0
    8.2076   -2.6104   24.5344 H   0  0  0  0  0  0  0  0  0  0  0  0
    8.5004   -2.4394   22.0279 H   0  0  0  0  0  0  0  0  0  0  0  0
    6.4392   -2.4587   20.9137 H   0  0  0  0  0  0  0  0  0  0  0  0
    5.6311   -1.4886   22.1368 H   0  0  0  0  0  0  0  0  0  0  0  0
    9.9405   -0.3406   22.7719 C   0  0  0  0  0  0  0  0  0  0  0  0
   10.7419   -1.2349   22.0498 C   0  0  0  0  0  0  0  0  0  0  0  0
   12.1223   -1.1388   22.1150 C   0  0  0  0  0  0  0  0  0  0  0  0
   13.1128   -2.2530   21.2214 Cl  0  0  0  0  0  0  0  0  0  0  0  0
   12.7580   -0.1517   22.8626 C   0  0  0  0  0  0  0  0  0  0  0  0
   11.9704    0.7777   23.5095 C   0  0  0  0  0  0  0  0  0  0  0  0
   10.5768    0.7113   23.4499 C   0  0  0  0  0  0  0  0  0  0  0  0
    9.7816    1.8435   24.0607 C   0  0  0  0  0  0  0  0  0  0  0  0
   10.3153    2.8569   24.4858 O   0  0  0  0  0  0  0  0  0  0  0  0
   12.4400    1.5840   24.0547 H   0  0  0  0  0  0  0  0  0  0  0  0
   13.8453   -0.1188   22.8961 H   0  0  0  0  0  0  0  0  0  0  0  0
   10.3071   -1.9894   21.4027 H   0  0  0  0  0  0  0  0  0  0  0  0
    8.0382   -0.2283   24.8363 H   0  0  0  0  0  0  0  0  0  0  0  0
    6.7739    0.4723   23.8114 H   0  0  0  0  0  0  0  0  0  0  0  0
    6.5986    2.4963   24.6335 H   0  0  0  0  0  0  0  0  0  0  0  0
    8.0087    3.4530   25.0866 H   0  0  0  0  0  0  0  0  0  0  0  0
    6.8345    3.0721   22.2753 H   0  0  0  0  0  0  0  0  0  0  0  0
    8.3843    3.8757   22.5817 H   0  0  0  0  0  0  0  0  0  0  0  0
    5.3014    4.8787   23.7300 C   0  0  0  0  0  0  0  0  0  0  0  0
    4.6169    6.2448   23.8106 C   0  0  2  0  0  0  0  0  0  0  0  0
    4.1161    6.7515   22.4601 C   0  0  0  0  0  0  0  0  0  0  0  0
    3.3727    6.0558   22.0510 H   0  0  0  0  0  0  0  0  0  0  0  0
    4.9192    6.8452   21.7193 H   0  0  0  0  0  0  0  0  0  0  0  0
    3.6430    7.7318   22.5805 H   0  0  0  0  0  0  0  0  0  0  0  0
    5.4380    7.1943   24.4849 O   0  0  0  0  0  0  0  0  0  0  0  0
    3.7465    6.1349   24.4685 H   0  0  0  0  0  0  0  0  0  0  0  0
    5.3748    4.4763   24.7396 H   0  0  0  0  0  0  0  0  0  0  0  0
    4.7104    4.1875   23.1238 H   0  0  0  0  0  0  0  0  0  0  0  0
    6.5865    5.3413   22.1917 H   0  0  0  0  0  0  0  0  0  0  0  0
    8.4636    6.1201   23.4677 H   0  0  0  0  0  0  0  0  0  0  0  0
    7.5988    5.6762   24.9528 H   0  0  0  0  0  0  0  0  0  0  0  0
    6.6554    7.6860   22.8777 H   0  0  0  0  0  0  0  0  0  0  0  0
    7.5956    8.0512   25.7717 H   0  0  0  0  0  0  0  0  0  0  0  0
    6.9783    9.3460   24.7200 H   0  0  0  0  0  0  0  0  0  0  0  0
    8.4978    8.5182   24.3159 H   0  0  0  0  0  0  0  0  0  0  0  0
  1  2  1  0
  2  3  1  0
  3  4  1  0
  4  5  1  0
  5  6  1  0
  6  7  1  0
  7  8  1  0
  9  8  1  1
  9 10  1  0
 10 11  2  0
 10 12  1  0
 12 13  1  0
 13 14  2  0
 14 15  1  0
 15 16  2  0
 16 17  1  0
 17 18  2  0
 18 19  1  0
 19 20  2  0
 20 21  1  0
 21 22  2  0
 21 23  1  0
 20 24  1  0
 19 25  1  0
 18 26  1  0
 16 27  1  0
 14 28  1  0
 12 29  1  0
 29 30  1  0
 30 31  1  0
 31 32  1  0
 31 33  1  0
 31 34  1  0
 30 35  1  6
 29 36  1  0
 29 37  1  0
  9 38  1  0
 38 39  2  0
 39 40  1  0
 40 41  1  0
 40 42  2  0
 42 43  1  0
 43 44  2  0
 44 45  1  0
 45 46  2  0
 43 47  1  0
 42 48  1  0
 39 49  1  0
  8 50  1  0
  8 51  1  0
  6 52  1  0
  6 53  1  0
  5 54  1  0
  5 55  1  0
  4 56  1  0
 56 57  1  0
 57 58  1  0
 58 59  1  0
 58 60  1  0
 58 61  1  0
 57 62  1  0
 57 63  1  1
 56 64  1  0
 56 65  1  0
  4 66  1  0
  3 67  1  0
  3 68  1  0
  2 69  1  6
  1 70  1  0
  1 71  1  0
  1 72  1  0
 62  2  1  0
 45  7  1  0
 30  9  1  0
 44 38  1  0
 22 13  1  0
 22 17  1  0
M  CHG  1   4   1
M  END
>  <cnnaffinities>  (11) 
[7.33054]

>  <score>  (11) 
7.33054

>  <index>  (11) 
10

>  <Smiles>  (11) 
C([C@]1(C([N+](C(C(N2C([C@@]3(C(=O)N(c4c(nc(c5c(c(c(c(c45)[H])[H])[H])[H])[H])[H])C([C@@]3(C([H])([H])[H])[H])([H])[H])c3c(c(Cl)c(c(c3C2=O)[H])[H])[H])([H])[H])([H])[H])([H])[H])(C([C@](C([H])([H])[H])(O1)[H])([H])[H])[H])([H])[H])[H])([H])([H])[H]

>  <h>  (11) 
<NA>

>  <Training>  (11) 
True

>  <Success>  (11) 
True

>  <enamine_searched>  (11) 
False

>  <enamine_id>  (11) 
nan

$$$$

     RDKit          3D

 54 57  0  0  0  0  0  0  0  0999 V2000
    4.8800    1.9204   25.3042 C   0  0  0  0  0  0  0  0  0  0  0  0
    6.1345    1.9647   24.6601 O   0  0  0  0  0  0  0  0  0  0  0  0
    6.4399    2.9880   23.8097 C   0  0  0  0  0  0  0  0  0  0  0  0
    5.5512    4.0270   23.5131 C   0  0  0  0  0  0  0  0  0  0  0  0
    5.9382    5.0312   22.6254 C   0  0  0  0  0  0  0  0  0  0  0  0
    7.1969    5.0148   22.0454 C   0  0  0  0  0  0  0  0  0  0  0  0
    8.0718    3.9816   22.3661 C   0  0  0  0  0  0  0  0  0  0  0  0
    7.7270    2.9598   23.2370 C   0  0  0  0  0  0  0  0  0  0  0  0
    8.6566    1.7834   23.5085 C   0  0  2  0  0  0  0  0  0  0  0  0
   10.1647    2.0525   23.3432 C   0  0  0  0  0  0  0  0  0  0  0  0
   10.9920    0.8538   23.8299 C   0  0  2  0  0  0  0  0  0  0  0  0
   12.4877    1.0771   23.6130 C   0  0  0  0  0  0  0  0  0  0  0  0
   12.8386    1.9812   24.1210 H   0  0  0  0  0  0  0  0  0  0  0  0
   13.0861    0.2305   23.9710 H   0  0  0  0  0  0  0  0  0  0  0  0
   12.7015    1.1958   22.5459 H   0  0  0  0  0  0  0  0  0  0  0  0
   10.5195   -0.4276   23.1387 C   0  0  0  0  0  0  0  0  0  0  0  0
    8.9987   -0.6100   23.2632 C   0  0  0  0  0  0  0  0  0  0  0  0
    8.2621    0.5604   22.7855 N   0  0  0  0  0  0  0  0  0  0  0  0
    7.9291    0.6540   21.4234 C   0  0  0  0  0  0  0  0  0  0  0  0
    8.3470    1.5263   20.6924 O   0  0  0  0  0  0  0  0  0  0  0  0
    6.9749   -0.4302   20.8958 C   0  0  0  0  0  0  0  0  0  0  0  0
    6.1118    0.0827   19.7658 C   0  0  0  0  0  0  0  0  0  0  0  0
    6.4269   -0.2097   18.4648 C   0  0  0  0  0  0  0  0  0  0  0  0
    5.7626    0.2395   17.3646 N   0  0  0  0  0  0  0  0  0  0  0  0
    4.7349    1.0261   17.5767 C   0  0  0  0  0  0  0  0  0  0  0  0
    4.2871    1.4173   18.8662 C   0  0  0  0  0  0  0  0  0  0  0  0
    3.1687    2.2699   19.0450 C   0  0  0  0  0  0  0  0  0  0  0  0
    2.7638    2.6408   20.2983 C   0  0  0  0  0  0  0  0  0  0  0  0
    3.4646    2.1635   21.4317 C   0  0  0  0  0  0  0  0  0  0  0  0
    4.5484    1.3311   21.2899 C   0  0  0  0  0  0  0  0  0  0  0  0
    4.9932    0.9365   20.0001 C   0  0  0  0  0  0  0  0  0  0  0  0
    5.0716    0.9774   22.1747 H   0  0  0  0  0  0  0  0  0  0  0  0
    3.1373    2.4671   22.4238 H   0  0  0  0  0  0  0  0  0  0  0  0
    1.9142    3.3085   20.4256 H   0  0  0  0  0  0  0  0  0  0  0  0
    2.6557    2.6484   18.1639 H   0  0  0  0  0  0  0  0  0  0  0  0
    4.2018    1.3953   16.6976 H   0  0  0  0  0  0  0  0  0  0  0  0
    7.2749   -0.8537   18.2400 H   0  0  0  0  0  0  0  0  0  0  0  0
    6.3687   -0.8298   21.7211 H   0  0  0  0  0  0  0  0  0  0  0  0
    7.5885   -1.2632   20.5244 H   0  0  0  0  0  0  0  0  0  0  0  0
    8.6680   -1.4845   22.6992 H   0  0  0  0  0  0  0  0  0  0  0  0
    8.7397   -0.7774   24.3179 H   0  0  0  0  0  0  0  0  0  0  0  0
   10.7959   -0.3847   22.0781 H   0  0  0  0  0  0  0  0  0  0  0  0
   11.0493   -1.2958   23.5540 H   0  0  0  0  0  0  0  0  0  0  0  0
   10.8215    0.7374   24.9101 H   0  0  0  0  0  0  0  0  0  0  0  0
   10.4537    2.9449   23.9138 H   0  0  0  0  0  0  0  0  0  0  0  0
   10.3984    2.2599   22.2921 H   0  0  0  0  0  0  0  0  0  0  0  0
    8.5160    1.5181   24.5619 H   0  0  0  0  0  0  0  0  0  0  0  0
    9.0402    3.9595   21.8788 H   0  0  0  0  0  0  0  0  0  0  0  0
    7.5024    5.7838   21.3399 H   0  0  0  0  0  0  0  0  0  0  0  0
    5.2503    5.8350   22.3818 H   0  0  0  0  0  0  0  0  0  0  0  0
    4.5621    4.0696   23.9632 H   0  0  0  0  0  0  0  0  0  0  0  0
    4.6971    2.7761   25.9652 H   0  0  0  0  0  0  0  0  0  0  0  0
    4.9068    1.0237   25.9182 H   0  0  0  0  0  0  0  0  0  0  0  0
    4.0300    1.8268   24.6157 H   0  0  0  0  0  0  0  0  0  0  0  0
  1  2  1  0
  2  3  1  0
  3  4  2  0
  4  5  1  0
  5  6  2  0
  6  7  1  0
  7  8  2  0
  8  9  1  0
  9 10  1  0
 10 11  1  0
 11 12  1  0
 12 13  1  0
 12 14  1  0
 12 15  1  0
 11 16  1  0
 16 17  1  0
 17 18  1  0
 18 19  1  0
 19 20  2  0
 19 21  1  0
 21 22  1  0
 22 23  2  0
 23 24  1  0
 24 25  2  0
 25 26  1  0
 26 27  2  0
 27 28  1  0
 28 29  2  0
 29 30  1  0
 30 31  2  0
 30 32  1  0
 29 33  1  0
 28 34  1  0
 27 35  1  0
 25 36  1  0
 23 37  1  0
 21 38  1  0
 21 39  1  0
 17 40  1  0
 17 41  1  0
 16 42  1  0
 16 43  1  0
 11 44  1  1
 10 45  1  0
 10 46  1  0
  9 47  1  1
  7 48  1  0
  6 49  1  0
  5 50  1  0
  4 51  1  0
  1 52  1  0
  1 53  1  0
  1 54  1  0
  8  3  1  0
 18  9  1  0
 31 22  1  0
 31 26  1  0
M  END
>  <cnnaffinities>  (12) 
[5.77232]

>  <score>  (12) 
5.77232

>  <index>  (12) 
11

>  <Smiles>  (12) 
C(Oc1c(c(c(c(c1[C@@]1(C([C@](C([H])([H])[H])(C(C(N1C(=O)C(c1c(nc(c2c(c(c(c(c12)[H])[H])[H])[H])[H])[H])([H])[H])([H])[H])([H])[H])[H])([H])[H])[H])[H])[H])[H])[H])([H])([H])[H]

>  <h>  (12) 
<NA>

>  <Training>  (12) 
True

>  <Success>  (12) 
True

>  <enamine_searched>  (12) 
False

>  <enamine_id>  (12) 
nan

$$$$

     RDKit          3D

 47 50  0  0  0  0  0  0  0  0999 V2000
    8.4370    1.4091   20.7873 O   0  0  0  0  0  0  0  0  0  0  0  0
    7.8547    0.6350   21.5303 C   0  0  0  0  0  0  0  0  0  0  0  0
    6.9366   -0.4479   20.9191 C   0  0  0  0  0  0  0  0  0  0  0  0
    6.1115    0.0846   19.7690 C   0  0  0  0  0  0  0  0  0  0  0  0
    6.4274   -0.2069   18.4644 C   0  0  0  0  0  0  0  0  0  0  0  0
    5.7628    0.2408   17.3633 N   0  0  0  0  0  0  0  0  0  0  0  0
    4.7344    1.0279   17.5747 C   0  0  0  0  0  0  0  0  0  0  0  0
    4.2861    1.4201   18.8682 C   0  0  0  0  0  0  0  0  0  0  0  0
    3.1649    2.2732   19.0440 C   0  0  0  0  0  0  0  0  0  0  0  0
    2.7626    2.6434   20.3000 C   0  0  0  0  0  0  0  0  0  0  0  0
    3.4621    2.1688   21.4312 C   0  0  0  0  0  0  0  0  0  0  0  0
    4.5475    1.3388   21.2878 C   0  0  0  0  0  0  0  0  0  0  0  0
    4.9913    0.9418   19.9964 C   0  0  0  0  0  0  0  0  0  0  0  0
    5.0702    0.9874   22.1717 H   0  0  0  0  0  0  0  0  0  0  0  0
    3.1365    2.4667   22.4220 H   0  0  0  0  0  0  0  0  0  0  0  0
    1.9128    3.3063   20.4343 H   0  0  0  0  0  0  0  0  0  0  0  0
    2.6458    2.6486   18.1659 H   0  0  0  0  0  0  0  0  0  0  0  0
    4.1987    1.3986   16.6995 H   0  0  0  0  0  0  0  0  0  0  0  0
    7.2738   -0.8568   18.2478 H   0  0  0  0  0  0  0  0  0  0  0  0
    6.2907   -0.9316   21.6598 H   0  0  0  0  0  0  0  0  0  0  0  0
    7.5965   -1.2328   20.5284 H   0  0  0  0  0  0  0  0  0  0  0  0
    8.0102    0.6944   22.8868 N   0  0  0  0  0  0  0  0  0  0  0  0
    8.9011    1.6893   23.4880 C   0  0  0  0  0  0  0  0  0  0  0  0
    9.0872    1.2428   24.9460 C   0  0  2  0  0  0  0  0  0  0  0  0
   10.3531    0.4125   25.1358 C   0  0  0  0  0  0  0  0  0  0  0  0
   11.4665    1.1718   24.8041 F   0  0  0  0  0  0  0  0  0  0  0  0
   10.4758    0.0660   26.1660 H   0  0  0  0  0  0  0  0  0  0  0  0
   10.3465   -0.4720   24.4946 H   0  0  0  0  0  0  0  0  0  0  0  0
    7.7992    0.4519   25.2589 C   0  0  0  0  0  0  0  0  0  0  0  0
    6.6539    1.3674   25.7526 C   0  0  0  0  0  0  0  0  0  0  0  0
    5.6642    0.4692   26.5188 C   0  0  0  0  0  0  0  0  0  0  0  0
    6.4337   -0.8173   26.8704 C   0  0  0  0  0  0  0  0  0  0  0  0
    7.8731   -0.5837   26.3926 C   0  0  0  0  0  0  0  0  0  0  0  0
    8.3602   -1.5135   26.0833 H   0  0  0  0  0  0  0  0  0  0  0  0
    8.4637   -0.1839   27.2213 H   0  0  0  0  0  0  0  0  0  0  0  0
    5.9966   -1.6773   26.3551 H   0  0  0  0  0  0  0  0  0  0  0  0
    6.4001   -1.0377   27.9417 H   0  0  0  0  0  0  0  0  0  0  0  0
    4.7927    0.2390   25.9013 H   0  0  0  0  0  0  0  0  0  0  0  0
    5.2942    0.9791   27.4120 H   0  0  0  0  0  0  0  0  0  0  0  0
    6.1763    1.9001   24.9259 H   0  0  0  0  0  0  0  0  0  0  0  0
    7.0587    2.1315   26.4252 H   0  0  0  0  0  0  0  0  0  0  0  0
    7.4406   -0.1891   23.8951 C   0  0  0  0  0  0  0  0  0  0  0  0
    6.3564   -0.2769   23.7839 H   0  0  0  0  0  0  0  0  0  0  0  0
    7.8568   -1.2007   23.8108 H   0  0  0  0  0  0  0  0  0  0  0  0
    9.1859    2.1035   25.6145 H   0  0  0  0  0  0  0  0  0  0  0  0
    8.4545    2.6884   23.4454 H   0  0  0  0  0  0  0  0  0  0  0  0
    9.8597    1.7333   22.9708 H   0  0  0  0  0  0  0  0  0  0  0  0
  1  2  2  0
  2  3  1  0
  3  4  1  0
  4  5  2  0
  5  6  1  0
  6  7  2  0
  7  8  1  0
  8  9  2  0
  9 10  1  0
 10 11  2  0
 11 12  1  0
 12 13  2  0
 12 14  1  0
 11 15  1  0
 10 16  1  0
  9 17  1  0
  7 18  1  0
  5 19  1  0
  3 20  1  0
  3 21  1  0
  2 22  1  0
 22 23  1  0
 23 24  1  0
 24 25  1  0
 25 26  1  0
 25 27  1  0
 25 28  1  0
 24 29  1  0
 29 30  1  0
 30 31  1  0
 31 32  1  0
 32 33  1  0
 33 34  1  0
 33 35  1  0
 32 36  1  0
 32 37  1  0
 31 38  1  0
 31 39  1  0
 30 40  1  0
 30 41  1  0
 29 42  1  0
 42 43  1  0
 42 44  1  0
 24 45  1  1
 23 46  1  0
 23 47  1  0
 13  4  1  0
 42 22  1  0
 13  8  1  0
 33 29  1  0
M  END
>  <cnnaffinities>  (13) 
[5.34775, 5.22969, 5.01035, 5.38276, 5.60419, 4.87876]

>  <score>  (13) 
5.34775

>  <index>  (13) 
12

>  <Smiles>  (13) 
O=C(C(c1c(nc(c2c(c(c(c(c12)[H])[H])[H])[H])[H])[H])([H])[H])N1C([C@](C(F)([H])[H])(C2(C(C(C(C2([H])[H])([H])[H])([H])[H])([H])[H])C1([H])[H])[H])([H])[H]

>  <h>  (13) 
<NA>

>  <Training>  (13) 
True

>  <Success>  (13) 
True

>  <enamine_searched>  (13) 
False

>  <enamine_id>  (13) 
nan

$$$$

     RDKit          3D

 67 72  0  0  0  0  0  0  0  0999 V2000
    6.0388    1.6307   28.9816 C   0  0  0  0  0  0  0  0  0  0  0  0
    6.2904    2.0531   27.6123 N   0  0  0  0  0  0  0  0  0  0  0  0
    5.9315    1.2414   26.5858 C   0  0  0  0  0  0  0  0  0  0  0  0
    5.3087    0.2018   26.7521 O   0  0  0  0  0  0  0  0  0  0  0  0
    6.3266    1.7139   25.1783 C   0  0  0  0  0  0  0  0  0  0  0  0
    7.4885    1.0343   24.6409 N   0  0  0  0  0  0  0  0  0  0  0  0
    7.3606   -0.3056   24.0966 C   0  0  0  0  0  0  0  0  0  0  0  0
    8.2288   -0.4838   22.8191 C   0  0  2  0  0  0  0  0  0  0  0  0
    7.6431    0.3958   21.6899 C   0  0  0  0  0  0  0  0  0  0  0  0
    7.7579    1.5972   21.5627 O   0  0  0  0  0  0  0  0  0  0  0  0
    6.9255   -0.4112   20.8316 N   0  0  0  0  0  0  0  0  0  0  0  0
    6.1408    0.1047   19.7704 C   0  0  0  0  0  0  0  0  0  0  0  0
    6.4434   -0.2239   18.4720 C   0  0  0  0  0  0  0  0  0  0  0  0
    5.7703    0.2237   17.3840 N   0  0  0  0  0  0  0  0  0  0  0  0
    4.7465    1.0177   17.5935 C   0  0  0  0  0  0  0  0  0  0  0  0
    4.2938    1.4092   18.8846 C   0  0  0  0  0  0  0  0  0  0  0  0
    3.1636    2.2544   19.0586 C   0  0  0  0  0  0  0  0  0  0  0  0
    2.7375    2.5996   20.3119 C   0  0  0  0  0  0  0  0  0  0  0  0
    3.4133    2.1031   21.4491 C   0  0  0  0  0  0  0  0  0  0  0  0
    4.5058    1.2859   21.3051 C   0  0  0  0  0  0  0  0  0  0  0  0
    4.9951    0.9338   20.0147 C   0  0  0  0  0  0  0  0  0  0  0  0
    5.0173    0.9092   22.1857 H   0  0  0  0  0  0  0  0  0  0  0  0
    3.0708    2.3822   22.4409 H   0  0  0  0  0  0  0  0  0  0  0  0
    1.8858    3.2622   20.4389 H   0  0  0  0  0  0  0  0  0  0  0  0
    2.6602    2.6361   18.1744 H   0  0  0  0  0  0  0  0  0  0  0  0
    4.2186    1.3851   16.7137 H   0  0  0  0  0  0  0  0  0  0  0  0
    7.2891   -0.8782   18.2641 H   0  0  0  0  0  0  0  0  0  0  0  0
    6.9166   -1.8078   21.2215 C   0  0  0  0  0  0  0  0  0  0  0  0
    8.0885   -1.9124   22.2080 C   0  0  2  0  0  0  0  0  0  0  0  0
    7.9188   -3.0785   23.1915 C   0  0  0  0  0  0  0  0  0  0  0  0
    8.9347   -3.0992   24.1673 O   0  0  0  0  0  0  0  0  0  0  0  0
   10.0663   -3.8260   23.7583 C   0  0  0  0  0  0  0  0  0  0  0  0
   11.2045   -3.6059   24.7056 C   0  0  0  0  0  0  0  0  0  0  0  0
   11.3696   -2.3723   25.5352 C   0  0  0  0  0  0  0  0  0  0  0  0
   10.9731   -3.6862   26.1835 C   0  0  0  0  0  0  0  0  0  0  0  0
   11.6788   -4.2233   26.8158 H   0  0  0  0  0  0  0  0  0  0  0  0
    9.9408   -3.7765   26.5191 H   0  0  0  0  0  0  0  0  0  0  0  0
   10.6306   -1.5757   25.4214 H   0  0  0  0  0  0  0  0  0  0  0  0
   12.3963   -2.0440   25.6785 H   0  0  0  0  0  0  0  0  0  0  0  0
   12.1287   -3.9322   24.2497 H   0  0  0  0  0  0  0  0  0  0  0  0
   10.3856   -3.5219   22.7510 H   0  0  0  0  0  0  0  0  0  0  0  0
    9.8124   -4.8975   23.7018 H   0  0  0  0  0  0  0  0  0  0  0  0
    6.9708   -2.9747   23.7360 H   0  0  0  0  0  0  0  0  0  0  0  0
    7.8901   -4.0426   22.6478 H   0  0  0  0  0  0  0  0  0  0  0  0
    8.9988   -2.0899   21.6295 H   0  0  0  0  0  0  0  0  0  0  0  0
    7.0333   -2.4395   20.3400 H   0  0  0  0  0  0  0  0  0  0  0  0
    5.9652   -2.0898   21.7001 H   0  0  0  0  0  0  0  0  0  0  0  0
    9.6421   -0.0378   23.1586 C   0  0  0  0  0  0  0  0  0  0  0  0
   10.7475   -0.4504   22.3999 C   0  0  0  0  0  0  0  0  0  0  0  0
   12.0214   -0.0186   22.7341 C   0  0  0  0  0  0  0  0  0  0  0  0
   13.3903   -0.5743   21.8074 Cl  0  0  0  0  0  0  0  0  0  0  0  0
   12.2410    0.8541   23.7993 C   0  0  0  0  0  0  0  0  0  0  0  0
   11.1450    1.3090   24.5076 C   0  0  0  0  0  0  0  0  0  0  0  0
    9.8576    0.8978   24.1835 C   0  0  0  0  0  0  0  0  0  0  0  0
    8.7221    1.5364   24.9341 C   0  0  0  0  0  0  0  0  0  0  0  0
    8.8752    2.4526   25.7363 O   0  0  0  0  0  0  0  0  0  0  0  0
   11.2155    2.0110   25.3259 H   0  0  0  0  0  0  0  0  0  0  0  0
   13.2508    1.1702   24.0353 H   0  0  0  0  0  0  0  0  0  0  0  0
   10.6368   -1.0795   21.5224 H   0  0  0  0  0  0  0  0  0  0  0  0
    7.6735   -1.0407   24.8514 H   0  0  0  0  0  0  0  0  0  0  0  0
    6.3055   -0.4821   23.8629 H   0  0  0  0  0  0  0  0  0  0  0  0
    5.4778    1.4754   24.5306 H   0  0  0  0  0  0  0  0  0  0  0  0
    6.5075    2.7932   25.1327 H   0  0  0  0  0  0  0  0  0  0  0  0
    6.8674    2.8627   27.4231 H   0  0  0  0  0  0  0  0  0  0  0  0
    4.9623    1.5064   29.1620 H   0  0  0  0  0  0  0  0  0  0  0  0
    6.4354    2.3918   29.6593 H   0  0  0  0  0  0  0  0  0  0  0  0
    6.5214    0.6662   29.1953 H   0  0  0  0  0  0  0  0  0  0  0  0
  1  2  1  0
  2  3  1  0
  3  4  2  0
  3  5  1  0
  5  6  1  0
  6  7  1  0
  8  7  1  1
  8  9  1  0
  9 10  2  0
  9 11  1  0
 11 12  1  0
 12 13  2  0
 13 14  1  0
 14 15  2  0
 15 16  1  0
 16 17  2  0
 17 18  1  0
 18 19  2  0
 19 20  1  0
 20 21  2  0
 20 22  1  0
 19 23  1  0
 18 24  1  0
 17 25  1  0
 15 26  1  0
 13 27  1  0
 11 28  1  0
 28 29  1  0
 29 30  1  0
 30 31  1  0
 31 32  1  0
 32 33  1  0
 33 34  1  0
 34 35  1  0
 35 36  1  0
 35 37  1  0
 34 38  1  0
 34 39  1  0
 33 40  1  0
 32 41  1  0
 32 42  1  0
 30 43  1  0
 30 44  1  0
 29 45  1  6
 28 46  1  0
 28 47  1  0
  8 48  1  0
 48 49  2  0
 49 50  1  0
 50 51  1  0
 50 52  2  0
 52 53  1  0
 53 54  2  0
 54 55  1  0
 55 56  2  0
 53 57  1  0
 52 58  1  0
 49 59  1  0
  7 60  1  0
  7 61  1  0
  5 62  1  0
  5 63  1  0
  2 64  1  0
  1 65  1  0
  1 66  1  0
  1 67  1  0
 55  6  1  0
 29  8  1  0
 35 33  1  0
 54 48  1  0
 21 12  1  0
 21 16  1  0
M  END
>  <cnnaffinities>  (14) 
[6.58899, 6.16587]

>  <score>  (14) 
6.58899

>  <index>  (14) 
13

>  <Smiles>  (14) 
C(N(C(=O)C(N1C([C@@]2(C(=O)N(c3c(nc(c4c(c(c(c(c34)[H])[H])[H])[H])[H])[H])C([C@@]2(C(OC(C2(C(C2([H])[H])([H])[H])[H])([H])[H])([H])[H])[H])([H])[H])c2c(c(Cl)c(c(c2C1=O)[H])[H])[H])([H])[H])([H])[H])[H])([H])([H])[H]

>  <h>  (14) 
<NA>

>  <Training>  (14) 
True

>  <Success>  (14) 
True

>  <enamine_searched>  (14) 
False

>  <enamine_id>  (14) 
nan

$$$$

     RDKit          3D

 67 73  0  0  0  0  0  0  0  0999 V2000
    7.3907   -2.4021   23.9093 C   0  0  0  0  0  0  0  0  0  0  0  0
    7.7732   -1.7787   22.5582 C   0  0  1  0  0  0  0  0  0  0  0  0
    6.5385   -1.5409   21.6545 C   0  0  0  0  0  0  0  0  0  0  0  0
    6.9288   -0.4141   20.8285 N   0  0  0  0  0  0  0  0  0  0  0  0
    6.1449    0.1083   19.7621 C   0  0  0  0  0  0  0  0  0  0  0  0
    6.4595   -0.2094   18.4666 C   0  0  0  0  0  0  0  0  0  0  0  0
    5.7733    0.2263   17.3807 N   0  0  0  0  0  0  0  0  0  0  0  0
    4.7470    1.0135   17.5956 C   0  0  0  0  0  0  0  0  0  0  0  0
    4.2958    1.4157   18.8842 C   0  0  0  0  0  0  0  0  0  0  0  0
    3.1683    2.2621   19.0634 C   0  0  0  0  0  0  0  0  0  0  0  0
    2.7595    2.6248   20.3167 C   0  0  0  0  0  0  0  0  0  0  0  0
    3.4575    2.1544   21.4499 C   0  0  0  0  0  0  0  0  0  0  0  0
    4.5613    1.3467   21.3043 C   0  0  0  0  0  0  0  0  0  0  0  0
    5.0131    0.9508   20.0145 C   0  0  0  0  0  0  0  0  0  0  0  0
    5.0927    1.0014   22.1855 H   0  0  0  0  0  0  0  0  0  0  0  0
    3.1256    2.4452   22.4430 H   0  0  0  0  0  0  0  0  0  0  0  0
    1.9117    3.2959   20.4426 H   0  0  0  0  0  0  0  0  0  0  0  0
    2.6606    2.6341   18.1787 H   0  0  0  0  0  0  0  0  0  0  0  0
    4.2151    1.3787   16.7163 H   0  0  0  0  0  0  0  0  0  0  0  0
    7.3032   -0.8645   18.2607 H   0  0  0  0  0  0  0  0  0  0  0  0
    8.0592    0.2419   21.2638 C   0  0  0  0  0  0  0  0  0  0  0  0
    8.5645    1.1829   20.6869 O   0  0  0  0  0  0  0  0  0  0  0  0
    8.5359   -0.4137   22.5901 C   0  0  1  0  0  0  0  0  0  0  0  0
    8.0609    0.4490   23.7985 C   0  0  0  0  0  0  0  0  0  0  0  0
    8.7256    1.7340   23.8531 N   0  0  0  0  0  0  0  0  0  0  0  0
    7.9682    2.9649   24.0248 C   0  0  0  0  0  0  0  0  0  0  0  0
    7.7011    3.6459   22.6809 C   0  0  0  0  0  0  0  0  0  0  0  0
    6.9465    4.9299   22.8284 N   0  0  2  0  0  4  0  0  0  0  0  0
    5.4590    4.7686   23.2105 C   0  0  0  0  0  0  0  0  0  0  0  0
    4.7357    5.5057   22.0717 C   0  0  2  0  0  0  0  0  0  0  0  0
    5.5899    5.1319   20.8578 C   0  0  0  0  0  0  0  0  0  0  0  0
    6.8450    5.7182   21.5210 C   0  0  1  0  0  0  0  0  0  0  0  0
    6.3374    7.1154   21.8585 C   0  0  0  0  0  0  0  0  0  0  0  0
    4.9611    6.9119   22.2161 O   0  0  0  0  0  0  0  0  0  0  0  0
    6.8826    7.5661   22.6961 H   0  0  0  0  0  0  0  0  0  0  0  0
    6.3893    7.7950   20.9982 H   0  0  0  0  0  0  0  0  0  0  0  0
    7.7967    5.6878   21.0013 H   0  0  0  0  0  0  0  0  0  0  0  0
    5.6186    4.0519   20.6595 H   0  0  0  0  0  0  0  0  0  0  0  0
    5.2983    5.6730   19.9547 H   0  0  0  0  0  0  0  0  0  0  0  0
    3.6595    5.3435   22.0219 H   0  0  0  0  0  0  0  0  0  0  0  0
    5.2147    3.7031   23.2269 H   0  0  0  0  0  0  0  0  0  0  0  0
    5.2750    5.2150   24.1853 H   0  0  0  0  0  0  0  0  0  0  0  0
    7.4484    5.4980   23.5368 H   0  0  0  0  0  0  0  0  0  0  0  0
    8.6565    3.8529   22.1832 H   0  0  0  0  0  0  0  0  0  0  0  0
    7.1325    2.9666   22.0351 H   0  0  0  0  0  0  0  0  0  0  0  0
    8.5417    3.6255   24.6827 H   0  0  0  0  0  0  0  0  0  0  0  0
    7.0246    2.6988   24.5161 H   0  0  0  0  0  0  0  0  0  0  0  0
   10.0811    1.8151   23.7566 C   0  0  0  0  0  0  0  0  0  0  0  0
   10.7052    2.8218   24.0621 O   0  0  0  0  0  0  0  0  0  0  0  0
   10.7706    0.5933   23.2115 C   0  0  0  0  0  0  0  0  0  0  0  0
   12.1623    0.5972   23.2425 C   0  0  0  0  0  0  0  0  0  0  0  0
   12.8571   -0.4168   22.6234 C   0  0  0  0  0  0  0  0  0  0  0  0
   12.1748   -1.4032   21.9159 C   0  0  0  0  0  0  0  0  0  0  0  0
   13.1769   -2.4623   20.9584 Cl  0  0  0  0  0  0  0  0  0  0  0  0
   10.7888   -1.4629   21.9338 C   0  0  0  0  0  0  0  0  0  0  0  0
   10.0624   -0.4698   22.6213 C   0  0  0  0  0  0  0  0  0  0  0  0
   10.2676   -2.2452   21.3905 H   0  0  0  0  0  0  0  0  0  0  0  0
   13.9357   -0.4467   22.6190 H   0  0  0  0  0  0  0  0  0  0  0  0
   12.6699    1.4369   23.7122 H   0  0  0  0  0  0  0  0  0  0  0  0
    6.9860    0.6433   23.7121 H   0  0  0  0  0  0  0  0  0  0  0  0
    8.2502   -0.1192   24.7257 H   0  0  0  0  0  0  0  0  0  0  0  0
    6.3014   -2.4129   21.0314 H   0  0  0  0  0  0  0  0  0  0  0  0
    5.6367   -1.3180   22.2487 H   0  0  0  0  0  0  0  0  0  0  0  0
    8.4295   -2.4774   22.0331 H   0  0  0  0  0  0  0  0  0  0  0  0
    8.2587   -2.5120   24.5712 H   0  0  0  0  0  0  0  0  0  0  0  0
    6.9477   -3.3980   23.7749 H   0  0  0  0  0  0  0  0  0  0  0  0
    6.6476   -1.7889   24.4379 H   0  0  0  0  0  0  0  0  0  0  0  0
  1  2  1  0
  2  3  1  0
  3  4  1  0
  4  5  1  0
  5  6  2  0
  6  7  1  0
  7  8  2  0
  8  9  1  0
  9 10  2  0
 10 11  1  0
 11 12  2  0
 12 13  1  0
 13 14  2  0
 13 15  1  0
 12 16  1  0
 11 17  1  0
 10 18  1  0
  8 19  1  0
  6 20  1  0
  4 21  1  0
 21 22  2  0
 21 23  1  0
 23 24  1  1
 24 25  1  0
 25 26  1  0
 26 27  1  0
 27 28  1  0
 28 29  1  0
 29 30  1  0
 30 31  1  0
 31 32  1  0
 32 33  1  0
 33 34  1  0
 33 35  1  0
 33 36  1  0
 32 37  1  6
 31 38  1  0
 31 39  1  0
 30 40  1  6
 29 41  1  0
 29 42  1  0
 28 43  1  1
 27 44  1  0
 27 45  1  0
 26 46  1  0
 26 47  1  0
 25 48  1  0
 48 49  2  0
 48 50  1  0
 50 51  2  0
 51 52  1  0
 52 53  2  0
 53 54  1  0
 53 55  1  0
 55 56  2  0
 55 57  1  0
 52 58  1  0
 51 59  1  0
 24 60  1  0
 24 61  1  0
  3 62  1  0
  3 63  1  0
  2 64  1  6
  1 65  1  0
  1 66  1  0
  1 67  1  0
 23  2  1  0
 32 28  1  0
 56 50  1  0
 14  5  1  0
 56 23  1  0
 14  9  1  0
 34 30  1  0
M  CHG  1  28   1
M  END
>  <cnnaffinities>  (15) 
[7.05663, 6.52826, 7.27244]

>  <score>  (15) 
7.05663

>  <index>  (15) 
14

>  <Smiles>  (15) 
C([C@]1(C(N(c2c(nc(c3c(c(c(c(c23)[H])[H])[H])[H])[H])[H])C(=O)[C@]21C(N(C(C([N@@+]1(C([C@@]3(C([C@]1(C(O3)([H])[H])[H])([H])[H])[H])([H])[H])[H])([H])[H])([H])[H])C(=O)c1c(c(c(Cl)c(c21)[H])[H])[H])([H])[H])([H])[H])[H])([H])([H])[H]

>  <h>  (15) 
<NA>

>  <Training>  (15) 
True

>  <Success>  (15) 
True

>  <enamine_searched>  (15) 
False

>  <enamine_id>  (15) 
nan

$$$$

     RDKit          3D

 72 77  0  0  0  0  0  0  0  0999 V2000
    5.3311    6.1379   20.2291 C   0  0  0  0  0  0  0  0  0  0  0  0
    5.7131    5.4030   21.5084 C   0  0  1  0  0  0  0  0  0  0  0  0
    6.7966    4.3564   21.2095 C   0  0  0  0  0  0  0  0  0  0  0  0
    7.7735    4.1867   22.3378 N   0  0  2  0  0  4  0  0  0  0  0  0
    7.0966    3.4300   23.4473 C   0  0  0  0  0  0  0  0  0  0  0  0
    8.0748    2.8273   24.4422 C   0  0  0  0  0  0  0  0  0  0  0  0
    8.8002    1.7134   23.8639 N   0  0  0  0  0  0  0  0  0  0  0  0
    8.1311    0.4282   23.7820 C   0  0  0  0  0  0  0  0  0  0  0  0
    8.5715   -0.3575   22.5268 C   0  0  2  0  0  0  0  0  0  0  0  0
    8.0142    0.3629   21.2747 C   0  0  0  0  0  0  0  0  0  0  0  0
    8.3910    1.4213   20.8072 O   0  0  0  0  0  0  0  0  0  0  0  0
    6.9694   -0.3815   20.7859 N   0  0  0  0  0  0  0  0  0  0  0  0
    6.1603    0.1140   19.7377 C   0  0  0  0  0  0  0  0  0  0  0  0
    6.4928   -0.1910   18.4462 C   0  0  0  0  0  0  0  0  0  0  0  0
    5.8038    0.2335   17.3618 N   0  0  0  0  0  0  0  0  0  0  0  0
    4.7620    0.9991   17.5875 C   0  0  0  0  0  0  0  0  0  0  0  0
    4.3078    1.3906   18.8799 C   0  0  0  0  0  0  0  0  0  0  0  0
    3.1891    2.2420   19.0616 C   0  0  0  0  0  0  0  0  0  0  0  0
    2.7853    2.6116   20.3150 C   0  0  0  0  0  0  0  0  0  0  0  0
    3.4775    2.1381   21.4526 C   0  0  0  0  0  0  0  0  0  0  0  0
    4.5661    1.3103   21.3078 C   0  0  0  0  0  0  0  0  0  0  0  0
    5.0194    0.9245   20.0112 C   0  0  0  0  0  0  0  0  0  0  0  0
    5.0881    0.9643   22.1976 H   0  0  0  0  0  0  0  0  0  0  0  0
    3.1448    2.4419   22.4411 H   0  0  0  0  0  0  0  0  0  0  0  0
    1.9333    3.2735   20.4413 H   0  0  0  0  0  0  0  0  0  0  0  0
    2.6808    2.6118   18.1758 H   0  0  0  0  0  0  0  0  0  0  0  0
    4.2113    1.3550   16.7176 H   0  0  0  0  0  0  0  0  0  0  0  0
    7.3676   -0.8115   18.2614 H   0  0  0  0  0  0  0  0  0  0  0  0
    6.6115   -1.5196   21.6036 C   0  0  0  0  0  0  0  0  0  0  0  0
    7.8688   -1.7481   22.4565 C   0  0  2  0  0  0  0  0  0  0  0  0
    7.5437   -2.4259   23.7842 C   0  0  0  0  0  0  0  0  0  0  0  0
    7.1051   -3.4141   23.6144 H   0  0  0  0  0  0  0  0  0  0  0  0
    8.4340   -2.5512   24.4082 H   0  0  0  0  0  0  0  0  0  0  0  0
    6.8131   -1.8401   24.3534 H   0  0  0  0  0  0  0  0  0  0  0  0
    8.5225   -2.4118   21.8872 H   0  0  0  0  0  0  0  0  0  0  0  0
    6.3598   -2.3826   20.9794 H   0  0  0  0  0  0  0  0  0  0  0  0
    5.7325   -1.3118   22.2337 H   0  0  0  0  0  0  0  0  0  0  0  0
   10.0890   -0.3745   22.4919 C   0  0  0  0  0  0  0  0  0  0  0  0
   10.7884   -1.3069   21.7191 C   0  0  0  0  0  0  0  0  0  0  0  0
   12.1673   -1.2364   21.6271 C   0  0  0  0  0  0  0  0  0  0  0  0
   12.9882   -2.2972   20.5168 Cl  0  0  0  0  0  0  0  0  0  0  0  0
   12.9048   -0.3000   22.3537 C   0  0  0  0  0  0  0  0  0  0  0  0
   12.2212    0.6365   23.0991 C   0  0  0  0  0  0  0  0  0  0  0  0
   10.8305    0.6360   23.1191 C   0  0  0  0  0  0  0  0  0  0  0  0
   10.1569    1.8007   23.7696 C   0  0  0  0  0  0  0  0  0  0  0  0
   10.7953    2.7751   24.1579 O   0  0  0  0  0  0  0  0  0  0  0  0
   12.7290    1.4138   23.6590 H   0  0  0  0  0  0  0  0  0  0  0  0
   13.9868   -0.2912   22.3059 H   0  0  0  0  0  0  0  0  0  0  0  0
   10.2724   -2.0799   21.1612 H   0  0  0  0  0  0  0  0  0  0  0  0
    8.3633   -0.1707   24.6736 H   0  0  0  0  0  0  0  0  0  0  0  0
    7.0483    0.5928   23.7576 H   0  0  0  0  0  0  0  0  0  0  0  0
    7.5279    2.4940   25.3346 H   0  0  0  0  0  0  0  0  0  0  0  0
    8.8322    3.5512   24.7475 H   0  0  0  0  0  0  0  0  0  0  0  0
    6.3984    4.1022   23.9507 H   0  0  0  0  0  0  0  0  0  0  0  0
    6.5124    2.6312   22.9790 H   0  0  0  0  0  0  0  0  0  0  0  0
    8.3544    5.5476   22.8168 C   0  0  1  0  0  0  0  0  0  0  0  0
    9.8292    5.7760   22.5105 C   0  0  0  0  0  0  0  0  0  0  0  0
   10.1334    6.7506   22.9147 H   0  0  0  0  0  0  0  0  0  0  0  0
   10.0456    5.7935   21.4364 H   0  0  0  0  0  0  0  0  0  0  0  0
   10.4414    5.0101   22.9891 H   0  0  0  0  0  0  0  0  0  0  0  0
    7.4832    6.6828   22.2934 C   0  0  0  0  0  0  0  0  0  0  0  0
    6.1236    6.3541   22.4859 O   0  0  0  0  0  0  0  0  0  0  0  0
    7.6544    7.6106   22.8406 H   0  0  0  0  0  0  0  0  0  0  0  0
    7.7263    6.8714   21.2361 H   0  0  0  0  0  0  0  0  0  0  0  0
    8.2229    5.5281   23.8994 H   0  0  0  0  0  0  0  0  0  0  0  0
    8.5368    3.6029   21.9490 H   0  0  0  0  0  0  0  0  0  0  0  0
    7.3653    4.6536   20.3283 H   0  0  0  0  0  0  0  0  0  0  0  0
    6.2951    3.4085   20.9712 H   0  0  0  0  0  0  0  0  0  0  0  0
    4.8460    4.8801   21.9326 H   0  0  0  0  0  0  0  0  0  0  0  0
    5.5087    5.4977   19.3714 H   0  0  0  0  0  0  0  0  0  0  0  0
    4.2965    6.4829   20.2198 H   0  0  0  0  0  0  0  0  0  0  0  0
    5.9646    7.0199   20.1158 H   0  0  0  0  0  0  0  0  0  0  0  0
  1  2  1  0
  2  3  1  0
  3  4  1  0
  4  5  1  0
  5  6  1  0
  6  7  1  0
  7  8  1  0
  9  8  1  1
  9 10  1  0
 10 11  2  0
 10 12  1  0
 12 13  1  0
 13 14  2  0
 14 15  1  0
 15 16  2  0
 16 17  1  0
 17 18  2  0
 18 19  1  0
 19 20  2  0
 20 21  1  0
 21 22  2  0
 21 23  1  0
 20 24  1  0
 19 25  1  0
 18 26  1  0
 16 27  1  0
 14 28  1  0
 12 29  1  0
 29 30  1  0
 30 31  1  0
 31 32  1  0
 31 33  1  0
 31 34  1  0
 30 35  1  6
 29 36  1  0
 29 37  1  0
  9 38  1  0
 38 39  2  0
 39 40  1  0
 40 41  1  0
 40 42  2  0
 42 43  1  0
 43 44  2  0
 44 45  1  0
 45 46  2  0
 43 47  1  0
 42 48  1  0
 39 49  1  0
  8 50  1  0
  8 51  1  0
  6 52  1  0
  6 53  1  0
  5 54  1  0
  5 55  1  0
  4 56  1  0
 56 57  1  0
 57 58  1  0
 57 59  1  0
 57 60  1  0
 56 61  1  0
 61 62  1  0
 61 63  1  0
 61 64  1  0
 56 65  1  1
  4 66  1  6
  3 67  1  0
  3 68  1  0
  2 69  1  1
  1 70  1  0
  1 71  1  0
  1 72  1  0
 62  2  1  0
 45  7  1  0
 30  9  1  0
 44 38  1  0
 22 13  1  0
 22 17  1  0
M  CHG  1   4   1
M  END
>  <cnnaffinities>  (16) 
[6.6721]

>  <score>  (16) 
6.6721

>  <index>  (16) 
15

>  <Smiles>  (16) 
C([C@]1(C([N@+](C(C(N2C([C@@]3(C(=O)N(c4c(nc(c5c(c(c(c(c45)[H])[H])[H])[H])[H])[H])C([C@@]3(C([H])([H])[H])[H])([H])[H])c3c(c(Cl)c(c(c3C2=O)[H])[H])[H])([H])[H])([H])[H])([H])[H])([C@@](C([H])([H])[H])(C(O1)([H])[H])[H])[H])([H])[H])[H])([H])([H])[H]

>  <h>  (16) 
<NA>

>  <Training>  (16) 
True

>  <Success>  (16) 
True

>  <enamine_searched>  (16) 
False

>  <enamine_id>  (16) 
nan

$$$$

     RDKit          3D

 47 50  0  0  0  0  0  0  0  0999 V2000
    8.6453   -4.5043   23.9859 C   0  0  0  0  0  0  0  0  0  0  0  0
    7.3900   -3.7454   24.3950 C   0  0  1  0  0  0  0  0  0  0  0  0
    7.6954   -2.3486   24.9328 C   0  0  0  0  0  0  0  0  0  0  0  0
    7.4151   -1.3723   23.7809 C   0  0  2  0  0  0  0  0  0  0  0  0
    6.6538   -0.1523   24.2661 C   0  0  0  0  0  0  0  0  0  0  0  0
    5.3227   -0.2579   24.6737 C   0  0  0  0  0  0  0  0  0  0  0  0
    4.6276    0.8567   25.1252 C   0  0  0  0  0  0  0  0  0  0  0  0
    5.2618    2.0949   25.1894 C   0  0  0  0  0  0  0  0  0  0  0  0
    6.5973    2.2042   24.8139 C   0  0  0  0  0  0  0  0  0  0  0  0
    7.2888    1.0840   24.3620 C   0  0  0  0  0  0  0  0  0  0  0  0
    8.3343    1.1729   24.0729 H   0  0  0  0  0  0  0  0  0  0  0  0
    7.1000    3.1645   24.8558 H   0  0  0  0  0  0  0  0  0  0  0  0
    4.7172    2.9694   25.5298 H   0  0  0  0  0  0  0  0  0  0  0  0
    3.5885    0.7609   25.4282 H   0  0  0  0  0  0  0  0  0  0  0  0
    4.8169   -1.2196   24.6469 H   0  0  0  0  0  0  0  0  0  0  0  0
    6.6898   -2.1590   22.7867 N   0  0  0  0  0  0  0  0  0  0  0  0
    6.2469   -1.7339   21.5609 C   0  0  0  0  0  0  0  0  0  0  0  0
    5.3964   -2.3587   20.9462 O   0  0  0  0  0  0  0  0  0  0  0  0
    6.9146   -0.4909   20.9187 C   0  0  0  0  0  0  0  0  0  0  0  0
    6.1140    0.0849   19.7722 C   0  0  0  0  0  0  0  0  0  0  0  0
    6.4204   -0.2152   18.4673 C   0  0  0  0  0  0  0  0  0  0  0  0
    5.7595    0.2371   17.3653 N   0  0  0  0  0  0  0  0  0  0  0  0
    4.7353    1.0293   17.5757 C   0  0  0  0  0  0  0  0  0  0  0  0
    4.2851    1.4192   18.8699 C   0  0  0  0  0  0  0  0  0  0  0  0
    3.1615    2.2673   19.0451 C   0  0  0  0  0  0  0  0  0  0  0  0
    2.7504    2.6251   20.2997 C   0  0  0  0  0  0  0  0  0  0  0  0
    3.4450    2.1364   21.4302 C   0  0  0  0  0  0  0  0  0  0  0  0
    4.5340    1.3101   21.2962 C   0  0  0  0  0  0  0  0  0  0  0  0
    4.9879    0.9350   20.0010 C   0  0  0  0  0  0  0  0  0  0  0  0
    5.0472    0.9469   22.1872 H   0  0  0  0  0  0  0  0  0  0  0  0
    3.1089    2.4260   22.4193 H   0  0  0  0  0  0  0  0  0  0  0  0
    1.8971    3.2850   20.4373 H   0  0  0  0  0  0  0  0  0  0  0  0
    2.6451    2.6464   18.1662 H   0  0  0  0  0  0  0  0  0  0  0  0
    4.1998    1.3988   16.6987 H   0  0  0  0  0  0  0  0  0  0  0  0
    7.2648   -0.8670   18.2469 H   0  0  0  0  0  0  0  0  0  0  0  0
    7.1488    0.2873   21.6560 H   0  0  0  0  0  0  0  0  0  0  0  0
    7.8822   -0.8265   20.5192 H   0  0  0  0  0  0  0  0  0  0  0  0
    6.4191   -3.5196   23.2340 C   0  0  0  0  0  0  0  0  0  0  0  0
    5.3701   -3.6606   23.5325 H   0  0  0  0  0  0  0  0  0  0  0  0
    6.6002   -4.2135   22.4121 H   0  0  0  0  0  0  0  0  0  0  0  0
    8.3622   -1.0496   23.3413 H   0  0  0  0  0  0  0  0  0  0  0  0
    7.0690   -2.1294   25.8038 H   0  0  0  0  0  0  0  0  0  0  0  0
    8.7240   -2.2729   25.2919 H   0  0  0  0  0  0  0  0  0  0  0  0
    6.8958   -4.2859   25.1855 H   0  0  0  0  0  0  0  0  0  0  0  0
    9.1850   -3.9552   23.2129 H   0  0  0  0  0  0  0  0  0  0  0  0
    8.4119   -5.4920   23.5840 H   0  0  0  0  0  0  0  0  0  0  0  0
    9.3236   -4.6414   24.8335 H   0  0  0  0  0  0  0  0  0  0  0  0
  1  2  1  0
  2  3  1  0
  3  4  1  0
  4  5  1  0
  5  6  2  0
  6  7  1  0
  7  8  2  0
  8  9  1  0
  9 10  2  0
 10 11  1  0
  9 12  1  0
  8 13  1  0
  7 14  1  0
  6 15  1  0
  4 16  1  0
 16 17  1  0
 17 18  2  0
 17 19  1  0
 19 20  1  0
 20 21  2  0
 21 22  1  0
 22 23  2  0
 23 24  1  0
 24 25  2  0
 25 26  1  0
 26 27  2  0
 27 28  1  0
 28 29  2  0
 28 30  1  0
 27 31  1  0
 26 32  1  0
 25 33  1  0
 23 34  1  0
 21 35  1  0
 19 36  1  0
 19 37  1  0
 16 38  1  0
 38 39  1  0
 38 40  1  0
  4 41  1  6
  3 42  1  0
  3 43  1  0
  2 44  1  1
  1 45  1  0
  1 46  1  0
  1 47  1  0
 38  2  1  0
 10  5  1  0
 29 20  1  0
 29 24  1  0
M  END
>  <cnnaffinities>  (17) 
[5.2762, 5.31747, 5.34632, 5.34712, 5.46244, 5.46044, 5.23052]

>  <score>  (17) 
5.2762

>  <index>  (17) 
16

>  <Smiles>  (17) 
C([C@]1(C([C@](c2c(c(c(c(c2[H])[H])[H])[H])[H])(N(C(=O)C(c2c(nc(c3c(c(c(c(c23)[H])[H])[H])[H])[H])[H])([H])[H])C1([H])[H])[H])([H])[H])[H])([H])([H])[H]

>  <h>  (17) 
<NA>

>  <Training>  (17) 
True

>  <Success>  (17) 
True

>  <enamine_searched>  (17) 
False

>  <enamine_id>  (17) 
nan

$$$$

     RDKit          3D

 58 63  0  0  0  0  0  0  0  0999 V2000
    7.3553   -2.4736   23.8616 C   0  0  0  0  0  0  0  0  0  0  0  0
    7.7760   -1.7634   22.5753 C   0  0  1  0  0  0  0  0  0  0  0  0
    6.6088   -1.6009   21.5820 C   0  0  0  0  0  0  0  0  0  0  0  0
    6.9449   -0.4047   20.8325 N   0  0  0  0  0  0  0  0  0  0  0  0
    6.1433    0.1110   19.7686 C   0  0  0  0  0  0  0  0  0  0  0  0
    6.4390   -0.2157   18.4706 C   0  0  0  0  0  0  0  0  0  0  0  0
    5.7595    0.2297   17.3807 N   0  0  0  0  0  0  0  0  0  0  0  0
    4.7354    1.0241   17.5811 C   0  0  0  0  0  0  0  0  0  0  0  0
    4.2878    1.4182   18.8758 C   0  0  0  0  0  0  0  0  0  0  0  0
    3.1676    2.2757   19.0558 C   0  0  0  0  0  0  0  0  0  0  0  0
    2.7762    2.6479   20.3133 C   0  0  0  0  0  0  0  0  0  0  0  0
    3.4742    2.1732   21.4465 C   0  0  0  0  0  0  0  0  0  0  0  0
    4.5530    1.3387   21.2973 C   0  0  0  0  0  0  0  0  0  0  0  0
    5.0001    0.9472   20.0051 C   0  0  0  0  0  0  0  0  0  0  0  0
    5.0880    0.9779   22.1707 H   0  0  0  0  0  0  0  0  0  0  0  0
    3.1640    2.4739   22.4425 H   0  0  0  0  0  0  0  0  0  0  0  0
    1.9303    3.3159   20.4512 H   0  0  0  0  0  0  0  0  0  0  0  0
    2.6456    2.6535   18.1788 H   0  0  0  0  0  0  0  0  0  0  0  0
    4.2021    1.3962   16.7006 H   0  0  0  0  0  0  0  0  0  0  0  0
    7.2853   -0.8647   18.2553 H   0  0  0  0  0  0  0  0  0  0  0  0
    7.9098    0.3694   21.4417 C   0  0  0  0  0  0  0  0  0  0  0  0
    8.2817    1.4446   21.0217 O   0  0  0  0  0  0  0  0  0  0  0  0
    8.3941   -0.3357   22.7286 C   0  0  1  0  0  0  0  0  0  0  0  0
    7.8019    0.4226   23.9502 C   0  0  0  0  0  0  0  0  0  0  0  0
    8.3633    1.7577   24.0811 N   0  0  0  0  0  0  0  0  0  0  0  0
    7.4593    2.9129   24.1037 C   0  0  0  0  0  0  0  0  0  0  0  0
    6.4583    2.8589   25.2186 C   0  0  0  0  0  0  0  0  0  0  0  0
    5.1774    2.6264   25.0768 N   0  0  0  0  0  0  0  0  0  0  0  0
    4.6186    2.5814   26.3298 N   0  0  0  0  0  0  0  0  0  0  0  0
    5.5793    2.7947   27.1846 C   0  0  0  0  0  0  0  0  0  0  0  0
    6.7686    2.9897   26.5415 N   0  0  0  0  0  0  0  0  0  0  0  0
    8.0766    3.1943   27.1287 C   0  0  0  0  0  0  0  0  0  0  0  0
    7.9596    3.4292   28.1861 H   0  0  0  0  0  0  0  0  0  0  0  0
    8.6978    2.3022   27.0401 H   0  0  0  0  0  0  0  0  0  0  0  0
    8.5986    4.0280   26.6575 H   0  0  0  0  0  0  0  0  0  0  0  0
    5.4765    2.8175   28.2635 H   0  0  0  0  0  0  0  0  0  0  0  0
    8.0612    3.8269   24.1757 H   0  0  0  0  0  0  0  0  0  0  0  0
    6.8939    2.9633   23.1638 H   0  0  0  0  0  0  0  0  0  0  0  0
    9.7242    1.9205   24.1228 C   0  0  0  0  0  0  0  0  0  0  0  0
   10.2578    2.9122   24.6031 O   0  0  0  0  0  0  0  0  0  0  0  0
   10.5383    0.8005   23.5090 C   0  0  0  0  0  0  0  0  0  0  0  0
   11.9361    0.8813   23.5689 C   0  0  0  0  0  0  0  0  0  0  0  0
   12.7422   -0.0186   22.8991 C   0  0  0  0  0  0  0  0  0  0  0  0
   12.1082   -0.9865   22.1312 C   0  0  0  0  0  0  0  0  0  0  0  0
   12.8691   -1.8385   21.4244 F   0  0  0  0  0  0  0  0  0  0  0  0
   10.7319   -1.1044   22.0560 C   0  0  0  0  0  0  0  0  0  0  0  0
    9.9147   -0.2463   22.8050 C   0  0  0  0  0  0  0  0  0  0  0  0
   10.3236   -1.8456   21.3765 H   0  0  0  0  0  0  0  0  0  0  0  0
   13.8307    0.0278   22.9292 H   0  0  0  0  0  0  0  0  0  0  0  0
   12.4049    1.6782   24.1296 H   0  0  0  0  0  0  0  0  0  0  0  0
    6.7198    0.5075   23.8519 H   0  0  0  0  0  0  0  0  0  0  0  0
    7.9892   -0.1405   24.8747 H   0  0  0  0  0  0  0  0  0  0  0  0
    6.5186   -2.4594   20.9142 H   0  0  0  0  0  0  0  0  0  0  0  0
    5.6454   -1.5094   22.1067 H   0  0  0  0  0  0  0  0  0  0  0  0
    8.5259   -2.3954   22.0925 H   0  0  0  0  0  0  0  0  0  0  0  0
    8.1791   -2.5337   24.5782 H   0  0  0  0  0  0  0  0  0  0  0  0
    7.0258   -3.4958   23.6527 H   0  0  0  0  0  0  0  0  0  0  0  0
    6.5256   -1.9626   24.3603 H   0  0  0  0  0  0  0  0  0  0  0  0
  1  2  1  0
  2  3  1  0
  3  4  1  0
  4  5  1  0
  5  6  2  0
  6  7  1  0
  7  8  2  0
  8  9  1  0
  9 10  2  0
 10 11  1  0
 11 12  2  0
 12 13  1  0
 13 14  2  0
 13 15  1  0
 12 16  1  0
 11 17  1  0
 10 18  1  0
  8 19  1  0
  6 20  1  0
  4 21  1  0
 21 22  2  0
 21 23  1  0
 23 24  1  1
 24 25  1  0
 25 26  1  0
 26 27  1  0
 27 28  2  0
 28 29  1  0
 29 30  2  0
 30 31  1  0
 31 32  1  0
 32 33  1  0
 32 34  1  0
 32 35  1  0
 30 36  1  0
 26 37  1  0
 26 38  1  0
 25 39  1  0
 39 40  2  0
 39 41  1  0
 41 42  2  0
 42 43  1  0
 43 44  2  0
 44 45  1  0
 44 46  1  0
 46 47  2  0
 46 48  1  0
 43 49  1  0
 42 50  1  0
 24 51  1  0
 24 52  1  0
  3 53  1  0
  3 54  1  0
  2 55  1  6
  1 56  1  0
  1 57  1  0
  1 58  1  0
 23  2  1  0
 31 27  1  0
 47 41  1  0
 14  5  1  0
 47 23  1  0
 14  9  1  0
M  END
>  <cnnaffinities>  (18) 
[6.7414, 6.54149]

>  <score>  (18) 
6.7414

>  <index>  (18) 
17

>  <Smiles>  (18) 
C([C@]1(C(N(c2c(nc(c3c(c(c(c(c23)[H])[H])[H])[H])[H])[H])C(=O)[C@]21C(N(C(c1nnc(n1C([H])([H])[H])[H])([H])[H])C(=O)c1c(c(c(F)c(c21)[H])[H])[H])([H])[H])([H])[H])[H])([H])([H])[H]

>  <h>  (18) 
<NA>

>  <Training>  (18) 
True

>  <Success>  (18) 
True

>  <enamine_searched>  (18) 
False

>  <enamine_id>  (18) 
nan

$$$$

     RDKit          3D

 50 53  0  0  0  0  0  0  0  0999 V2000
    6.1511    0.0036   28.7103 C   0  0  0  0  0  0  0  0  0  0  0  0
    5.8035   -0.5659   27.3357 C   0  0  1  0  0  0  0  0  0  0  0  0
    5.4435    0.5371   26.3295 C   0  0  0  0  0  0  0  0  0  0  0  0
    6.6580    1.3236   25.8234 C   0  0  0  0  0  0  0  0  0  0  0  0
    7.8021    0.4387   25.2769 C   0  0  2  0  0  0  0  0  0  0  0  0
    9.0349    1.2990   24.9422 C   0  0  0  0  0  0  0  0  0  0  0  0
    8.8939    1.7146   23.4760 C   0  0  0  0  0  0  0  0  0  0  0  0
    8.0116    0.7055   22.8901 N   0  0  0  0  0  0  0  0  0  0  0  0
    7.8597    0.6346   21.5340 C   0  0  0  0  0  0  0  0  0  0  0  0
    8.4516    1.4009   20.7882 O   0  0  0  0  0  0  0  0  0  0  0  0
    6.9373   -0.4465   20.9217 C   0  0  0  0  0  0  0  0  0  0  0  0
    6.1117    0.0851   19.7698 C   0  0  0  0  0  0  0  0  0  0  0  0
    6.4273   -0.2068   18.4654 C   0  0  0  0  0  0  0  0  0  0  0  0
    5.7629    0.2410   17.3638 N   0  0  0  0  0  0  0  0  0  0  0  0
    4.7346    1.0276   17.5751 C   0  0  0  0  0  0  0  0  0  0  0  0
    4.2858    1.4198   18.8682 C   0  0  0  0  0  0  0  0  0  0  0  0
    3.1649    2.2726   19.0442 C   0  0  0  0  0  0  0  0  0  0  0  0
    2.7624    2.6429   20.2996 C   0  0  0  0  0  0  0  0  0  0  0  0
    3.4623    2.1684   21.4310 C   0  0  0  0  0  0  0  0  0  0  0  0
    4.5478    1.3389   21.2883 C   0  0  0  0  0  0  0  0  0  0  0  0
    4.9911    0.9416   19.9972 C   0  0  0  0  0  0  0  0  0  0  0  0
    5.0716    0.9879   22.1722 H   0  0  0  0  0  0  0  0  0  0  0  0
    3.1359    2.4667   22.4214 H   0  0  0  0  0  0  0  0  0  0  0  0
    1.9124    3.3061   20.4342 H   0  0  0  0  0  0  0  0  0  0  0  0
    2.6461    2.6481   18.1657 H   0  0  0  0  0  0  0  0  0  0  0  0
    4.1990    1.3983   16.6994 H   0  0  0  0  0  0  0  0  0  0  0  0
    7.2737   -0.8567   18.2475 H   0  0  0  0  0  0  0  0  0  0  0  0
    6.2912   -0.9286   21.6638 H   0  0  0  0  0  0  0  0  0  0  0  0
    7.5944   -1.2334   20.5292 H   0  0  0  0  0  0  0  0  0  0  0  0
    7.4382   -0.1720   23.8994 C   0  0  0  0  0  0  0  0  0  0  0  0
    6.3540   -0.2505   23.7748 H   0  0  0  0  0  0  0  0  0  0  0  0
    7.8436   -1.1861   23.7994 H   0  0  0  0  0  0  0  0  0  0  0  0
    9.8596    1.7238   22.9693 H   0  0  0  0  0  0  0  0  0  0  0  0
    8.4649    2.7175   23.3786 H   0  0  0  0  0  0  0  0  0  0  0  0
    9.9492    0.7149   25.0915 H   0  0  0  0  0  0  0  0  0  0  0  0
    9.1174    2.1592   25.6112 H   0  0  0  0  0  0  0  0  0  0  0  0
    8.1390   -0.6474   26.3130 C   0  0  0  0  0  0  0  0  0  0  0  0
    6.9243   -1.4524   26.7760 C   0  0  0  0  0  0  0  0  0  0  0  0
    6.5455   -2.0282   25.9232 H   0  0  0  0  0  0  0  0  0  0  0  0
    7.2253   -2.1888   27.5316 H   0  0  0  0  0  0  0  0  0  0  0  0
    8.6072   -0.1775   27.1810 H   0  0  0  0  0  0  0  0  0  0  0  0
    8.9044   -1.3199   25.9080 H   0  0  0  0  0  0  0  0  0  0  0  0
    7.0445    1.9389   26.6468 H   0  0  0  0  0  0  0  0  0  0  0  0
    6.3508    2.0369   25.0498 H   0  0  0  0  0  0  0  0  0  0  0  0
    4.9222    0.0919   25.4738 H   0  0  0  0  0  0  0  0  0  0  0  0
    4.7253    1.2275   26.7891 H   0  0  0  0  0  0  0  0  0  0  0  0
    4.9167   -1.1969   27.4725 H   0  0  0  0  0  0  0  0  0  0  0  0
    7.0100    0.6777   28.6820 H   0  0  0  0  0  0  0  0  0  0  0  0
    5.3131    0.5721   29.1222 H   0  0  0  0  0  0  0  0  0  0  0  0
    6.3917   -0.7940   29.4185 H   0  0  0  0  0  0  0  0  0  0  0  0
  1  2  1  0
  2  3  1  0
  3  4  1  0
  5  4  1  1
  5  6  1  0
  6  7  1  0
  7  8  1  0
  8  9  1  0
  9 10  2  0
  9 11  1  0
 11 12  1  0
 12 13  2  0
 13 14  1  0
 14 15  2  0
 15 16  1  0
 16 17  2  0
 17 18  1  0
 18 19  2  0
 19 20  1  0
 20 21  2  0
 20 22  1  0
 19 23  1  0
 18 24  1  0
 17 25  1  0
 15 26  1  0
 13 27  1  0
 11 28  1  0
 11 29  1  0
  8 30  1  0
 30 31  1  0
 30 32  1  0
  7 33  1  0
  7 34  1  0
  6 35  1  0
  6 36  1  0
  5 37  1  0
 37 38  1  0
 38 39  1  0
 38 40  1  0
 37 41  1  0
 37 42  1  0
  4 43  1  0
  4 44  1  0
  3 45  1  0
  3 46  1  0
  2 47  1  1
  1 48  1  0
  1 49  1  0
  1 50  1  0
 38  2  1  0
 30  5  1  0
 21 12  1  0
 21 16  1  0
M  END
>  <cnnaffinities>  (19) 
[5.54499, 5.60812, 5.33544]

>  <score>  (19) 
5.54499

>  <index>  (19) 
18

>  <Smiles>  (19) 
C([C@]1(C(C([C@@]2(C(C(N(C(=O)C(c3c(nc(c4c(c(c(c(c34)[H])[H])[H])[H])[H])[H])([H])[H])C2([H])[H])([H])[H])([H])[H])C(C1([H])[H])([H])[H])([H])[H])([H])[H])[H])([H])([H])[H]

>  <h>  (19) 
<NA>

>  <Training>  (19) 
True

>  <Success>  (19) 
True

>  <enamine_searched>  (19) 
False

>  <enamine_id>  (19) 
nan

$$$$

     RDKit          3D

 67 71  0  0  0  0  0  0  0  0999 V2000
    3.5473   -5.2578   21.8455 O   0  0  0  0  0  0  0  0  0  0  0  0
    4.1352   -5.8358   22.7489 C   0  0  0  0  0  0  0  0  0  0  0  0
    5.6460   -5.6793   22.8021 C   0  0  0  0  0  0  0  0  0  0  0  0
    5.8832   -4.2083   22.7513 N   0  0  1  0  0  4  0  0  0  0  0  0
    5.1817   -3.5972   23.9414 C   0  0  0  0  0  0  0  0  0  0  0  0
    5.5224   -2.1616   24.2418 C   0  0  0  0  0  0  0  0  0  0  0  0
    4.7290   -1.4538   25.1486 C   0  0  0  0  0  0  0  0  0  0  0  0
    5.0732   -0.1721   25.5530 C   0  0  0  0  0  0  0  0  0  0  0  0
    6.2413    0.3949   25.0490 C   0  0  0  0  0  0  0  0  0  0  0  0
    6.7109    1.9939   25.5641 Cl  0  0  0  0  0  0  0  0  0  0  0  0
    7.0200   -0.2806   24.1199 C   0  0  0  0  0  0  0  0  0  0  0  0
    6.6394   -1.5534   23.6843 C   0  0  0  0  0  0  0  0  0  0  0  0
    7.3457   -2.2434   22.5370 C   0  0  2  0  0  0  0  0  0  0  0  0
    6.6501   -1.8542   21.2236 C   0  0  0  0  0  0  0  0  0  0  0  0
    5.9747   -2.6477   20.5824 O   0  0  0  0  0  0  0  0  0  0  0  0
    6.8170   -0.5469   20.8327 N   0  0  0  0  0  0  0  0  0  0  0  0
    6.0936    0.0213   19.7563 C   0  0  0  0  0  0  0  0  0  0  0  0
    6.4362   -0.2663   18.4620 C   0  0  0  0  0  0  0  0  0  0  0  0
    5.7926    0.2221   17.3708 N   0  0  0  0  0  0  0  0  0  0  0  0
    4.7680    1.0137   17.5836 C   0  0  0  0  0  0  0  0  0  0  0  0
    4.3111    1.4029   18.8766 C   0  0  0  0  0  0  0  0  0  0  0  0
    3.1878    2.2504   19.0531 C   0  0  0  0  0  0  0  0  0  0  0  0
    2.7762    2.5987   20.3106 C   0  0  0  0  0  0  0  0  0  0  0  0
    3.4605    2.1111   21.4447 C   0  0  0  0  0  0  0  0  0  0  0  0
    4.5455    1.2815   21.3036 C   0  0  0  0  0  0  0  0  0  0  0  0
    4.9966    0.9098   20.0049 C   0  0  0  0  0  0  0  0  0  0  0  0
    5.0458    0.8962   22.1882 H   0  0  0  0  0  0  0  0  0  0  0  0
    3.1217    2.4015   22.4352 H   0  0  0  0  0  0  0  0  0  0  0  0
    1.9235    3.2569   20.4422 H   0  0  0  0  0  0  0  0  0  0  0  0
    2.6773    2.6236   18.1722 H   0  0  0  0  0  0  0  0  0  0  0  0
    4.2380    1.3899   16.7090 H   0  0  0  0  0  0  0  0  0  0  0  0
    7.2828   -0.9227   18.2769 H   0  0  0  0  0  0  0  0  0  0  0  0
    7.1737    0.1085   21.5163 H   0  0  0  0  0  0  0  0  0  0  0  0
    7.3065   -3.7673   22.6830 C   0  0  0  0  0  0  0  0  0  0  0  0
    7.8009   -4.2299   21.8272 H   0  0  0  0  0  0  0  0  0  0  0  0
    7.8403   -4.0839   23.5855 H   0  0  0  0  0  0  0  0  0  0  0  0
    8.3827   -1.8904   22.4969 H   0  0  0  0  0  0  0  0  0  0  0  0
    7.9243    0.1883   23.7432 H   0  0  0  0  0  0  0  0  0  0  0  0
    4.4601    0.3778   26.2609 H   0  0  0  0  0  0  0  0  0  0  0  0
    3.8296   -1.9137   25.5550 H   0  0  0  0  0  0  0  0  0  0  0  0
    5.4149   -4.2103   24.8207 H   0  0  0  0  0  0  0  0  0  0  0  0
    4.1042   -3.6718   23.7833 H   0  0  0  0  0  0  0  0  0  0  0  0
    5.4198   -3.8720   21.8756 H   0  0  0  0  0  0  0  0  0  0  0  0
    6.0524   -6.1007   23.7181 H   0  0  0  0  0  0  0  0  0  0  0  0
    6.0917   -6.1826   21.9404 H   0  0  0  0  0  0  0  0  0  0  0  0
    3.5059   -6.4765   23.7581 N   0  0  0  0  0  0  0  0  0  0  0  0
    2.0674   -6.7007   23.6923 C   0  0  0  0  0  0  0  0  0  0  0  0
    1.2805   -5.3801   23.6184 C   0  0  0  0  0  0  0  0  0  0  0  0
   -0.2116   -5.5740   23.5806 C   0  0  0  0  0  0  0  0  0  0  0  0
   -0.9406   -5.6136   24.7691 C   0  0  0  0  0  0  0  0  0  0  0  0
   -2.3136   -5.8313   24.7572 C   0  0  0  0  0  0  0  0  0  0  0  0
   -2.9851   -6.0138   23.5525 C   0  0  0  0  0  0  0  0  0  0  0  0
   -4.4643   -6.2483   23.5375 C   0  0  0  0  0  0  0  0  0  0  0  0
   -5.0855   -5.3337   22.7374 F   0  0  0  0  0  0  0  0  0  0  0  0
   -4.7397   -7.4767   23.0100 F   0  0  0  0  0  0  0  0  0  0  0  0
   -4.9144   -6.1938   24.5361 H   0  0  0  0  0  0  0  0  0  0  0  0
   -2.2655   -5.9779   22.3585 C   0  0  0  0  0  0  0  0  0  0  0  0
   -0.8925   -5.7572   22.3728 C   0  0  0  0  0  0  0  0  0  0  0  0
   -0.3526   -5.7130   21.4262 H   0  0  0  0  0  0  0  0  0  0  0  0
   -2.7867   -6.1076   21.4144 H   0  0  0  0  0  0  0  0  0  0  0  0
   -2.8609   -5.8421   25.6986 H   0  0  0  0  0  0  0  0  0  0  0  0
   -0.4238   -5.4615   25.7152 H   0  0  0  0  0  0  0  0  0  0  0  0
    1.5561   -4.7465   24.4737 H   0  0  0  0  0  0  0  0  0  0  0  0
    1.6186   -4.8638   22.7192 H   0  0  0  0  0  0  0  0  0  0  0  0
    1.7632   -7.2919   24.5591 H   0  0  0  0  0  0  0  0  0  0  0  0
    1.8321   -7.2969   22.8004 H   0  0  0  0  0  0  0  0  0  0  0  0
    4.0261   -6.7678   24.5716 H   0  0  0  0  0  0  0  0  0  0  0  0
  1  2  2  0
  2  3  1  0
  3  4  1  0
  4  5  1  0
  5  6  1  0
  6  7  2  0
  7  8  1  0
  8  9  2  0
  9 10  1  0
  9 11  1  0
 11 12  2  0
 12 13  1  0
 13 14  1  0
 14 15  2  0
 14 16  1  0
 16 17  1  0
 17 18  2  0
 18 19  1  0
 19 20  2  0
 20 21  1  0
 21 22  2  0
 22 23  1  0
 23 24  2  0
 24 25  1  0
 25 26  2  0
 25 27  1  0
 24 28  1  0
 23 29  1  0
 22 30  1  0
 20 31  1  0
 18 32  1  0
 16 33  1  0
 13 34  1  0
 34 35  1  0
 34 36  1  0
 13 37  1  6
 11 38  1  0
  8 39  1  0
  7 40  1  0
  5 41  1  0
  5 42  1  0
  4 43  1  6
  3 44  1  0
  3 45  1  0
  2 46  1  0
 46 47  1  0
 47 48  1  0
 48 49  1  0
 49 50  2  0
 50 51  1  0
 51 52  2  0
 52 53  1  0
 53 54  1  0
 53 55  1  0
 53 56  1  0
 52 57  1  0
 57 58  2  0
 58 59  1  0
 57 60  1  0
 51 61  1  0
 50 62  1  0
 48 63  1  0
 48 64  1  0
 47 65  1  0
 47 66  1  0
 46 67  1  0
 34  4  1  0
 58 49  1  0
 12  6  1  0
 26 17  1  0
 26 21  1  0
M  CHG  1   4   1
M  END
>  <cnnaffinities>  (20) 
[5.35403]

>  <score>  (20) 
5.35403

>  <index>  (20) 
19

>  <Smiles>  (20) 
O=C(C([N@+]1(C(c2c(c(c(Cl)c(c2[C@](C(=O)N(c2c(nc(c3c(c(c(c(c23)[H])[H])[H])[H])[H])[H])[H])(C1([H])[H])[H])[H])[H])[H])([H])[H])[H])([H])[H])N(C(C(c1c(c(c(C(F)(F)[H])c(c1[H])[H])[H])[H])([H])[H])([H])[H])[H]

>  <h>  (20) 
<NA>

>  <Training>  (20) 
True

>  <Success>  (20) 
True

>  <enamine_searched>  (20) 
False

>  <enamine_id>  (20) 
nan

$$$$

     RDKit          3D

 66 70  0  0  0  0  0  0  0  0999 V2000
    4.1903    6.0278   20.6154 C   0  0  0  0  0  0  0  0  0  0  0  0
    5.2995    5.0203   20.9410 C   0  0  0  0  0  0  0  0  0  0  0  0
    6.5986    5.8141   20.7945 C   0  0  0  0  0  0  0  0  0  0  0  0
    6.7577    6.5075   19.8090 O   0  0  0  0  0  0  0  0  0  0  0  0
    7.5109    5.8858   21.8477 N   0  0  0  0  0  0  0  0  0  0  0  0
    8.1808    7.1787   22.0315 C   0  0  0  0  0  0  0  0  0  0  0  0
    8.1096    7.5192   23.5088 C   0  0  0  0  0  0  0  0  0  0  0  0
    8.9208    6.4905   24.2870 C   0  0  0  0  0  0  0  0  0  0  0  0
    8.5420    5.0760   23.9003 C   0  0  0  0  0  0  0  0  0  0  0  0
    8.9027    3.9962   24.7045 C   0  0  0  0  0  0  0  0  0  0  0  0
    8.6590    2.6879   24.3262 C   0  0  0  0  0  0  0  0  0  0  0  0
    8.0555    2.4422   23.0904 C   0  0  0  0  0  0  0  0  0  0  0  0
    7.7842    1.1114   22.6952 N   0  0  0  0  0  0  0  0  0  0  0  0
    7.8190    0.7747   21.3385 C   0  0  0  0  0  0  0  0  0  0  0  0
    8.4982    1.4031   20.5569 O   0  0  0  0  0  0  0  0  0  0  0  0
    6.9542   -0.3934   20.8876 C   0  0  0  0  0  0  0  0  0  0  0  0
    6.1045    0.0741   19.7485 C   0  0  0  0  0  0  0  0  0  0  0  0
    6.4390   -0.2237   18.4557 C   0  0  0  0  0  0  0  0  0  0  0  0
    5.7817    0.2295   17.3595 N   0  0  0  0  0  0  0  0  0  0  0  0
    4.7564    1.0203   17.5778 C   0  0  0  0  0  0  0  0  0  0  0  0
    4.3000    1.4176   18.8634 C   0  0  0  0  0  0  0  0  0  0  0  0
    3.1691    2.2524   19.0467 C   0  0  0  0  0  0  0  0  0  0  0  0
    2.7662    2.6190   20.3022 C   0  0  0  0  0  0  0  0  0  0  0  0
    3.4829    2.1779   21.4343 C   0  0  0  0  0  0  0  0  0  0  0  0
    4.5905    1.3773   21.2847 C   0  0  0  0  0  0  0  0  0  0  0  0
    5.0111    0.9515   19.9929 C   0  0  0  0  0  0  0  0  0  0  0  0
    5.1426    1.0704   22.1688 H   0  0  0  0  0  0  0  0  0  0  0  0
    3.1589    2.4838   22.4267 H   0  0  0  0  0  0  0  0  0  0  0  0
    1.9034    3.2668   20.4315 H   0  0  0  0  0  0  0  0  0  0  0  0
    2.6453    2.6155   18.1700 H   0  0  0  0  0  0  0  0  0  0  0  0
    4.2282    1.3942   16.7004 H   0  0  0  0  0  0  0  0  0  0  0  0
    7.2962   -0.8655   18.2505 H   0  0  0  0  0  0  0  0  0  0  0  0
    6.3606   -0.7541   21.7276 H   0  0  0  0  0  0  0  0  0  0  0  0
    7.6274   -1.2011   20.5808 H   0  0  0  0  0  0  0  0  0  0  0  0
    7.5365    0.1624   23.6665 N   0  0  0  0  0  0  0  0  0  0  0  0
    6.3822    0.3203   24.5200 C   0  0  0  0  0  0  0  0  0  0  0  0
    6.6256   -0.0331   25.5227 H   0  0  0  0  0  0  0  0  0  0  0  0
    5.5036   -0.2451   24.1792 H   0  0  0  0  0  0  0  0  0  0  0  0
    6.0921    1.3722   24.6017 H   0  0  0  0  0  0  0  0  0  0  0  0
    8.4154   -0.9112   23.8151 C   0  0  0  0  0  0  0  0  0  0  0  0
    9.7406   -0.8292   23.3656 C   0  0  0  0  0  0  0  0  0  0  0  0
   10.5701   -1.9369   23.4520 C   0  0  0  0  0  0  0  0  0  0  0  0
   10.1314   -3.1263   24.0268 C   0  0  0  0  0  0  0  0  0  0  0  0
    8.8396   -3.1600   24.5284 C   0  0  0  0  0  0  0  0  0  0  0  0
    8.2815   -4.5596   25.3902 Cl  0  0  0  0  0  0  0  0  0  0  0  0
    7.9614   -2.0926   24.4093 C   0  0  0  0  0  0  0  0  0  0  0  0
    6.9379   -2.2094   24.7547 H   0  0  0  0  0  0  0  0  0  0  0  0
   10.7719   -4.0033   24.0756 H   0  0  0  0  0  0  0  0  0  0  0  0
   11.5827   -1.8780   23.0656 H   0  0  0  0  0  0  0  0  0  0  0  0
   10.1106    0.1059   22.9491 H   0  0  0  0  0  0  0  0  0  0  0  0
    7.6761    3.4942   22.2676 C   0  0  0  0  0  0  0  0  0  0  0  0
    7.8887    4.8106   22.6840 C   0  0  0  0  0  0  0  0  0  0  0  0
    7.2169    3.3098   21.3035 H   0  0  0  0  0  0  0  0  0  0  0  0
    8.9172    1.8592   24.9770 H   0  0  0  0  0  0  0  0  0  0  0  0
    9.4064    4.1840   25.6492 H   0  0  0  0  0  0  0  0  0  0  0  0
    8.8052    6.6369   25.3686 H   0  0  0  0  0  0  0  0  0  0  0  0
    9.9917    6.6394   24.0729 H   0  0  0  0  0  0  0  0  0  0  0  0
    8.4805    8.5308   23.6957 H   0  0  0  0  0  0  0  0  0  0  0  0
    7.0592    7.4756   23.8227 H   0  0  0  0  0  0  0  0  0  0  0  0
    9.2226    7.1362   21.6782 H   0  0  0  0  0  0  0  0  0  0  0  0
    7.6626    7.9178   21.4157 H   0  0  0  0  0  0  0  0  0  0  0  0
    5.2731    4.1569   20.2584 H   0  0  0  0  0  0  0  0  0  0  0  0
    5.1911    4.6101   21.9496 H   0  0  0  0  0  0  0  0  0  0  0  0
    4.2537    6.8618   21.3208 H   0  0  0  0  0  0  0  0  0  0  0  0
    4.3642    6.4421   19.6203 H   0  0  0  0  0  0  0  0  0  0  0  0
    3.1788    5.6155   20.6480 H   0  0  0  0  0  0  0  0  0  0  0  0
  1  2  1  0
  2  3  1  0
  3  4  2  0
  3  5  1  0
  5  6  1  0
  6  7  1  0
  7  8  1  0
  8  9  1  0
  9 10  2  0
 10 11  1  0
 11 12  2  0
 12 13  1  0
 13 14  1  0
 14 15  2  0
 14 16  1  0
 16 17  1  0
 17 18  2  0
 18 19  1  0
 19 20  2  0
 20 21  1  0
 21 22  2  0
 22 23  1  0
 23 24  2  0
 24 25  1  0
 25 26  2  0
 25 27  1  0
 24 28  1  0
 23 29  1  0
 22 30  1  0
 20 31  1  0
 18 32  1  0
 16 33  1  0
 16 34  1  0
 13 35  1  0
 35 36  1  0
 36 37  1  0
 36 38  1  0
 36 39  1  0
 35 40  1  0
 40 41  2  0
 41 42  1  0
 42 43  2  0
 43 44  1  0
 44 45  1  0
 44 46  2  0
 46 47  1  0
 43 48  1  0
 42 49  1  0
 41 50  1  0
 12 51  1  0
 51 52  2  0
 51 53  1  0
 11 54  1  0
 10 55  1  0
  8 56  1  0
  8 57  1  0
  7 58  1  0
  7 59  1  0
  6 60  1  0
  6 61  1  0
  2 62  1  0
  2 63  1  0
  1 64  1  0
  1 65  1  0
  1 66  1  0
 52  5  1  0
 52  9  1  0
 26 17  1  0
 46 40  1  0
 26 21  1  0
M  END
>  <cnnaffinities>  (21) 
[7.14445]

>  <score>  (21) 
7.14445

>  <index>  (21) 
20

>  <Smiles>  (21) 
C(C(C(=O)N1C(C(C(c2c(c(c(N(C(=O)C(c3c(nc(c4c(c(c(c(c34)[H])[H])[H])[H])[H])[H])([H])[H])N(C([H])([H])[H])c3c(c(c(c(Cl)c3[H])[H])[H])[H])c(c12)[H])[H])[H])([H])[H])([H])[H])([H])[H])([H])[H])([H])([H])[H]

>  <h>  (21) 
<NA>

>  <Training>  (21) 
True

>  <Success>  (21) 
True

>  <enamine_searched>  (21) 
False

>  <enamine_id>  (21) 
nan

$$$$

     RDKit          3D

 59 64  0  0  0  0  0  0  0  0999 V2000
    7.0706   -2.4006   23.5159 C   0  0  0  0  0  0  0  0  0  0  0  0
    7.9445   -1.8350   22.3905 C   0  0  1  0  0  0  0  0  0  0  0  0
    7.1970   -1.7468   21.0473 C   0  0  0  0  0  0  0  0  0  0  0  0
    6.8811   -0.3460   20.8995 N   0  0  0  0  0  0  0  0  0  0  0  0
    6.1236    0.1132   19.7970 C   0  0  0  0  0  0  0  0  0  0  0  0
    6.4491   -0.2343   18.5079 C   0  0  0  0  0  0  0  0  0  0  0  0
    5.7898    0.2016   17.4050 N   0  0  0  0  0  0  0  0  0  0  0  0
    4.7596    0.9916   17.5989 C   0  0  0  0  0  0  0  0  0  0  0  0
    4.2911    1.3897   18.8834 C   0  0  0  0  0  0  0  0  0  0  0  0
    3.1632    2.2356   19.0466 C   0  0  0  0  0  0  0  0  0  0  0  0
    2.7367    2.5931   20.2950 C   0  0  0  0  0  0  0  0  0  0  0  0
    3.4081    2.1188   21.4437 C   0  0  0  0  0  0  0  0  0  0  0  0
    4.4931    1.2894   21.3153 C   0  0  0  0  0  0  0  0  0  0  0  0
    4.9753    0.9290   20.0265 C   0  0  0  0  0  0  0  0  0  0  0  0
    4.9989    0.9004   22.1953 H   0  0  0  0  0  0  0  0  0  0  0  0
    3.0788    2.4335   22.4307 H   0  0  0  0  0  0  0  0  0  0  0  0
    1.8810    3.2525   20.4064 H   0  0  0  0  0  0  0  0  0  0  0  0
    2.6707    2.6128   18.1551 H   0  0  0  0  0  0  0  0  0  0  0  0
    4.2366    1.3570   16.7153 H   0  0  0  0  0  0  0  0  0  0  0  0
    7.3046   -0.8805   18.3110 H   0  0  0  0  0  0  0  0  0  0  0  0
    7.7366    0.4759   21.6157 C   0  0  0  0  0  0  0  0  0  0  0  0
    7.8316    1.6709   21.4575 O   0  0  0  0  0  0  0  0  0  0  0  0
    8.5356   -0.4056   22.6155 C   0  0  1  0  0  0  0  0  0  0  0  0
    8.3641    0.0772   24.0759 C   0  0  0  0  0  0  0  0  0  0  0  0
    8.9954    1.3585   24.3252 N   0  0  0  0  0  0  0  0  0  0  0  0
    8.2574    2.3812   25.0499 C   0  0  0  0  0  0  0  0  0  0  0  0
    7.4029    3.2686   24.1738 C   0  0  0  0  0  0  0  0  0  0  0  0
    6.0040    3.2477   23.9680 C   0  0  0  0  0  0  0  0  0  0  0  0
    5.6124    4.1773   23.1048 N   0  0  0  0  0  0  0  0  0  0  0  0
    6.7399    4.7995   22.7415 N   0  0  0  0  0  0  0  0  0  0  0  0
    6.7011    5.8741   21.7768 C   0  0  0  0  0  0  0  0  0  0  0  0
    7.6069    5.8406   21.1657 H   0  0  0  0  0  0  0  0  0  0  0  0
    6.6335    6.8496   22.2713 H   0  0  0  0  0  0  0  0  0  0  0  0
    5.8227    5.7151   21.1466 H   0  0  0  0  0  0  0  0  0  0  0  0
    7.8316    4.3018   23.3660 C   0  0  0  0  0  0  0  0  0  0  0  0
    8.8164    4.7235   23.1744 H   0  0  0  0  0  0  0  0  0  0  0  0
    5.2476    2.5849   24.3767 H   0  0  0  0  0  0  0  0  0  0  0  0
    7.6385    1.8764   25.8001 H   0  0  0  0  0  0  0  0  0  0  0  0
    9.0170    2.9676   25.5756 H   0  0  0  0  0  0  0  0  0  0  0  0
   10.1983    1.7151   23.7844 C   0  0  0  0  0  0  0  0  0  0  0  0
   10.7504    2.7761   24.0508 O   0  0  0  0  0  0  0  0  0  0  0  0
   10.8125    0.6934   22.8871 C   0  0  0  0  0  0  0  0  0  0  0  0
   12.1861    0.7610   22.6585 C   0  0  0  0  0  0  0  0  0  0  0  0
   12.8186   -0.1899   21.8826 C   0  0  0  0  0  0  0  0  0  0  0  0
   12.0326   -1.1945   21.3279 C   0  0  0  0  0  0  0  0  0  0  0  0
   12.6177   -2.1783   20.6213 F   0  0  0  0  0  0  0  0  0  0  0  0
   10.6630   -1.2416   21.4813 C   0  0  0  0  0  0  0  0  0  0  0  0
   10.0334   -0.3281   22.3294 C   0  0  0  0  0  0  0  0  0  0  0  0
   10.1092   -1.9746   20.9098 H   0  0  0  0  0  0  0  0  0  0  0  0
   13.8859   -0.1660   21.6951 H   0  0  0  0  0  0  0  0  0  0  0  0
   12.7302    1.5871   23.1065 H   0  0  0  0  0  0  0  0  0  0  0  0
    8.8059   -0.6876   24.7278 H   0  0  0  0  0  0  0  0  0  0  0  0
    7.3081    0.1645   24.3340 H   0  0  0  0  0  0  0  0  0  0  0  0
    7.8469   -2.0748   20.2281 H   0  0  0  0  0  0  0  0  0  0  0  0
    6.2780   -2.3416   21.0212 H   0  0  0  0  0  0  0  0  0  0  0  0
    8.7747   -2.5399   22.3079 H   0  0  0  0  0  0  0  0  0  0  0  0
    6.7493   -3.4139   23.2589 H   0  0  0  0  0  0  0  0  0  0  0  0
    7.6393   -2.4802   24.4470 H   0  0  0  0  0  0  0  0  0  0  0  0
    6.1750   -1.8019   23.7111 H   0  0  0  0  0  0  0  0  0  0  0  0
  1  2  1  0
  2  3  1  0
  3  4  1  0
  4  5  1  0
  5  6  2  0
  6  7  1  0
  7  8  2  0
  8  9  1  0
  9 10  2  0
 10 11  1  0
 11 12  2  0
 12 13  1  0
 13 14  2  0
 13 15  1  0
 12 16  1  0
 11 17  1  0
 10 18  1  0
  8 19  1  0
  6 20  1  0
  4 21  1  0
 21 22  2  0
 21 23  1  0
 23 24  1  1
 24 25  1  0
 25 26  1  0
 26 27  1  0
 27 28  1  0
 28 29  2  0
 29 30  1  0
 30 31  1  0
 31 32  1  0
 31 33  1  0
 31 34  1  0
 30 35  1  0
 35 36  1  0
 28 37  1  0
 26 38  1  0
 26 39  1  0
 25 40  1  0
 40 41  2  0
 40 42  1  0
 42 43  2  0
 43 44  1  0
 44 45  2  0
 45 46  1  0
 45 47  1  0
 47 48  2  0
 47 49  1  0
 44 50  1  0
 43 51  1  0
 24 52  1  0
 24 53  1  0
  3 54  1  0
  3 55  1  0
  2 56  1  6
  1 57  1  0
  1 58  1  0
  1 59  1  0
 23  2  1  0
 35 27  2  0
 48 42  1  0
 14  5  1  0
 48 23  1  0
 14  9  1  0
M  END
>  <cnnaffinities>  (22) 
[6.49363, 6.68143, 6.31486]

>  <score>  (22) 
6.49363

>  <index>  (22) 
21

>  <Smiles>  (22) 
C([C@]1(C(N(c2c(nc(c3c(c(c(c(c23)[H])[H])[H])[H])[H])[H])C(=O)[C@]21C(N(C(c1c(nn(C([H])([H])[H])c1[H])[H])([H])[H])C(=O)c1c(c(c(F)c(c21)[H])[H])[H])([H])[H])([H])[H])[H])([H])([H])[H]

>  <h>  (22) 
<NA>

>  <Training>  (22) 
True

>  <Success>  (22) 
True

>  <enamine_searched>  (22) 
False

>  <enamine_id>  (22) 
nan

$$$$

     RDKit          3D

 41 44  0  0  0  0  0  0  0  0999 V2000
    8.3249    1.5097   20.7984 O   0  0  0  0  0  0  0  0  0  0  0  0
    7.9117    0.5989   21.4860 C   0  0  0  0  0  0  0  0  0  0  0  0
    6.9284   -0.4441   20.9113 C   0  0  0  0  0  0  0  0  0  0  0  0
    6.1054    0.0900   19.7697 C   0  0  0  0  0  0  0  0  0  0  0  0
    6.4274   -0.2059   18.4693 C   0  0  0  0  0  0  0  0  0  0  0  0
    5.7654    0.2417   17.3669 N   0  0  0  0  0  0  0  0  0  0  0  0
    4.7354    1.0268   17.5771 C   0  0  0  0  0  0  0  0  0  0  0  0
    4.2855    1.4190   18.8655 C   0  0  0  0  0  0  0  0  0  0  0  0
    3.1660    2.2687   19.0449 C   0  0  0  0  0  0  0  0  0  0  0  0
    2.7618    2.6407   20.2988 C   0  0  0  0  0  0  0  0  0  0  0  0
    3.4624    2.1688   21.4321 C   0  0  0  0  0  0  0  0  0  0  0  0
    4.5483    1.3412   21.2882 C   0  0  0  0  0  0  0  0  0  0  0  0
    4.9904    0.9447   19.9983 C   0  0  0  0  0  0  0  0  0  0  0  0
    5.0721    0.9884   22.1717 H   0  0  0  0  0  0  0  0  0  0  0  0
    3.1380    2.4675   22.4229 H   0  0  0  0  0  0  0  0  0  0  0  0
    1.9133    3.3066   20.4317 H   0  0  0  0  0  0  0  0  0  0  0  0
    2.6517    2.6437   18.1648 H   0  0  0  0  0  0  0  0  0  0  0  0
    4.2024    1.3944   16.6983 H   0  0  0  0  0  0  0  0  0  0  0  0
    7.2728   -0.8552   18.2465 H   0  0  0  0  0  0  0  0  0  0  0  0
    7.5589   -1.2571   20.5228 H   0  0  0  0  0  0  0  0  0  0  0  0
    6.3112   -0.9053   21.6919 H   0  0  0  0  0  0  0  0  0  0  0  0
    8.4072    0.3642   22.7695 N   0  0  0  0  0  0  0  0  0  0  0  0
    7.5969    0.1002   23.9448 C   0  0  0  0  0  0  0  0  0  0  0  0
    8.2190   -1.0228   24.7555 C   0  0  0  0  0  0  0  0  0  0  0  0
    9.6829   -0.7791   25.0225 C   0  0  0  0  0  0  0  0  0  0  0  0
   10.3642   -1.4453   26.0447 C   0  0  0  0  0  0  0  0  0  0  0  0
    9.5060   -2.5719   27.0600 Cl  0  0  0  0  0  0  0  0  0  0  0  0
   11.7161   -1.2651   26.2898 C   0  0  0  0  0  0  0  0  0  0  0  0
   12.4185   -0.3831   25.4822 C   0  0  0  0  0  0  0  0  0  0  0  0
   11.7679    0.2876   24.4555 C   0  0  0  0  0  0  0  0  0  0  0  0
   10.4061    0.0988   24.2120 C   0  0  0  0  0  0  0  0  0  0  0  0
    9.7429    0.8513   23.0717 C   0  0  0  0  0  0  0  0  0  0  0  0
    9.7593    1.9305   23.2833 H   0  0  0  0  0  0  0  0  0  0  0  0
   10.3455    0.7423   22.1709 H   0  0  0  0  0  0  0  0  0  0  0  0
   12.3389    0.9615   23.8269 H   0  0  0  0  0  0  0  0  0  0  0  0
   13.4776   -0.2396   25.6633 H   0  0  0  0  0  0  0  0  0  0  0  0
   12.2046   -1.8205   27.0855 H   0  0  0  0  0  0  0  0  0  0  0  0
    7.6770   -1.1529   25.6943 H   0  0  0  0  0  0  0  0  0  0  0  0
    8.1036   -1.9620   24.2080 H   0  0  0  0  0  0  0  0  0  0  0  0
    6.5784   -0.1514   23.6494 H   0  0  0  0  0  0  0  0  0  0  0  0
    7.5247    1.0032   24.5756 H   0  0  0  0  0  0  0  0  0  0  0  0
  1  2  2  0
  2  3  1  0
  3  4  1  0
  4  5  2  0
  5  6  1  0
  6  7  2  0
  7  8  1  0
  8  9  2  0
  9 10  1  0
 10 11  2  0
 11 12  1  0
 12 13  2  0
 12 14  1  0
 11 15  1  0
 10 16  1  0
  9 17  1  0
  7 18  1  0
  5 19  1  0
  3 20  1  0
  3 21  1  0
  2 22  1  0
 22 23  1  0
 23 24  1  0
 24 25  1  0
 25 26  2  0
 26 27  1  0
 26 28  1  0
 28 29  2  0
 29 30  1  0
 30 31  2  0
 31 32  1  0
 32 33  1  0
 32 34  1  0
 30 35  1  0
 29 36  1  0
 28 37  1  0
 24 38  1  0
 24 39  1  0
 23 40  1  0
 23 41  1  0
 13  4  1  0
 32 22  1  0
 13  8  1  0
 31 25  1  0
M  END
>  <cnnaffinities>  (23) 
[5.46374]

>  <score>  (23) 
5.46374

>  <index>  (23) 
22

>  <Smiles>  (23) 
O=C(C(c1c(nc(c2c(c(c(c(c12)[H])[H])[H])[H])[H])[H])([H])[H])N1C(C(c2c(Cl)c(c(c(c2C1([H])[H])[H])[H])[H])([H])[H])([H])[H]

>  <h>  (23) 
<NA>

>  <Training>  (23) 
True

>  <Success>  (23) 
True

>  <enamine_searched>  (23) 
False

>  <enamine_id>  (23) 
nan

$$$$

     RDKit          3D

 69 74  0  0  0  0  0  0  0  0999 V2000
    8.7749    7.6174   24.3188 C   0  0  0  0  0  0  0  0  0  0  0  0
    8.3127    6.3934   23.5468 C   0  0  1  0  0  0  0  0  0  0  0  0
    7.8241    5.2642   24.4517 C   0  0  0  0  0  0  0  0  0  0  0  0
    7.2654    4.0988   23.6583 N   0  0  1  0  0  4  0  0  0  0  0  0
    6.6825    3.0469   24.5414 C   0  0  0  0  0  0  0  0  0  0  0  0
    7.7517    2.2762   25.3112 C   0  0  0  0  0  0  0  0  0  0  0  0
    8.5693    1.4538   24.4500 N   0  0  0  0  0  0  0  0  0  0  0  0
    8.0926    0.1199   24.1522 C   0  0  0  0  0  0  0  0  0  0  0  0
    8.4368   -0.3030   22.7108 C   0  0  2  0  0  0  0  0  0  0  0  0
    7.6236    0.5639   21.7209 C   0  0  0  0  0  0  0  0  0  0  0  0
    7.5729    1.7805   21.7058 O   0  0  0  0  0  0  0  0  0  0  0  0
    6.9529   -0.2807   20.8666 N   0  0  0  0  0  0  0  0  0  0  0  0
    6.1573    0.1520   19.7911 C   0  0  0  0  0  0  0  0  0  0  0  0
    6.4519   -0.2312   18.5047 C   0  0  0  0  0  0  0  0  0  0  0  0
    5.7795    0.1921   17.4088 N   0  0  0  0  0  0  0  0  0  0  0  0
    4.7614    0.9955   17.6102 C   0  0  0  0  0  0  0  0  0  0  0  0
    4.3108    1.4064   18.8975 C   0  0  0  0  0  0  0  0  0  0  0  0
    3.1846    2.2543   19.0586 C   0  0  0  0  0  0  0  0  0  0  0  0
    2.7507    2.6056   20.3076 C   0  0  0  0  0  0  0  0  0  0  0  0
    3.4097    2.1151   21.4568 C   0  0  0  0  0  0  0  0  0  0  0  0
    4.5099    1.3049   21.3294 C   0  0  0  0  0  0  0  0  0  0  0  0
    5.0050    0.9560   20.0369 C   0  0  0  0  0  0  0  0  0  0  0  0
    5.0139    0.9394   22.2186 H   0  0  0  0  0  0  0  0  0  0  0  0
    3.0553    2.4012   22.4439 H   0  0  0  0  0  0  0  0  0  0  0  0
    1.8997    3.2700   20.4215 H   0  0  0  0  0  0  0  0  0  0  0  0
    2.6942    2.6306   18.1667 H   0  0  0  0  0  0  0  0  0  0  0  0
    4.2297    1.3563   16.7305 H   0  0  0  0  0  0  0  0  0  0  0  0
    7.2949   -0.8942   18.3126 H   0  0  0  0  0  0  0  0  0  0  0  0
    7.3348   -1.6717   21.0014 C   0  0  0  0  0  0  0  0  0  0  0  0
    8.0009   -1.7652   22.3854 C   0  0  2  0  0  0  0  0  0  0  0  0
    7.1260   -2.4675   23.4269 C   0  0  0  0  0  0  0  0  0  0  0  0
    7.6495   -2.5407   24.3844 H   0  0  0  0  0  0  0  0  0  0  0  0
    6.1702   -1.9636   23.5948 H   0  0  0  0  0  0  0  0  0  0  0  0
    6.9186   -3.4901   23.1011 H   0  0  0  0  0  0  0  0  0  0  0  0
    8.8942   -2.3901   22.3239 H   0  0  0  0  0  0  0  0  0  0  0  0
    6.4484   -2.3066   20.9097 H   0  0  0  0  0  0  0  0  0  0  0  0
    8.0416   -1.9490   20.2098 H   0  0  0  0  0  0  0  0  0  0  0  0
    9.9323   -0.0804   22.5307 C   0  0  0  0  0  0  0  0  0  0  0  0
   10.7176   -0.9098   21.7303 C   0  0  0  0  0  0  0  0  0  0  0  0
   12.0875   -0.7468   21.6612 C   0  0  0  0  0  0  0  0  0  0  0  0
   12.9867   -1.8428   20.6476 Cl  0  0  0  0  0  0  0  0  0  0  0  0
   12.7257    0.3008   22.3252 C   0  0  0  0  0  0  0  0  0  0  0  0
   11.9429    1.1784   23.0561 C   0  0  0  0  0  0  0  0  0  0  0  0
   10.5704    0.9800   23.1783 C   0  0  0  0  0  0  0  0  0  0  0  0
    9.8119    1.8845   24.0955 C   0  0  0  0  0  0  0  0  0  0  0  0
   10.3014    2.9325   24.5046 O   0  0  0  0  0  0  0  0  0  0  0  0
   12.3617    2.0571   23.5379 H   0  0  0  0  0  0  0  0  0  0  0  0
   13.8006    0.4331   22.2626 H   0  0  0  0  0  0  0  0  0  0  0  0
   10.2558   -1.6783   21.1286 H   0  0  0  0  0  0  0  0  0  0  0  0
    8.5404   -0.6002   24.8501 H   0  0  0  0  0  0  0  0  0  0  0  0
    7.0106    0.0994   24.3005 H   0  0  0  0  0  0  0  0  0  0  0  0
    7.2765    1.6220   26.0465 H   0  0  0  0  0  0  0  0  0  0  0  0
    8.4357    2.9467   25.8259 H   0  0  0  0  0  0  0  0  0  0  0  0
    5.9777    3.5112   25.2430 H   0  0  0  0  0  0  0  0  0  0  0  0
    6.1113    2.3588   23.9051 H   0  0  0  0  0  0  0  0  0  0  0  0
    6.2494    4.6097   22.6712 C   0  0  0  0  0  0  0  0  0  0  0  0
    6.8309    5.7613   21.8664 C   0  0  0  0  0  0  0  0  0  0  0  0
    7.2613    6.8184   22.6937 O   0  0  0  0  0  0  0  0  0  0  0  0
    6.0880    6.1695   21.1744 H   0  0  0  0  0  0  0  0  0  0  0  0
    7.6790    5.3839   21.2767 H   0  0  0  0  0  0  0  0  0  0  0  0
    5.9742    3.7863   22.0072 H   0  0  0  0  0  0  0  0  0  0  0  0
    5.3599    4.9417   23.2191 H   0  0  0  0  0  0  0  0  0  0  0  0
    8.0053    3.6342   23.0985 H   0  0  0  0  0  0  0  0  0  0  0  0
    7.0266    5.6526   25.0989 H   0  0  0  0  0  0  0  0  0  0  0  0
    8.6483    4.9175   25.0765 H   0  0  0  0  0  0  0  0  0  0  0  0
    9.1402    6.0070   22.9249 H   0  0  0  0  0  0  0  0  0  0  0  0
    9.5916    7.3809   25.0100 H   0  0  0  0  0  0  0  0  0  0  0  0
    9.1241    8.3846   23.6213 H   0  0  0  0  0  0  0  0  0  0  0  0
    7.9380    8.0329   24.8899 H   0  0  0  0  0  0  0  0  0  0  0  0
  1  2  1  0
  2  3  1  0
  3  4  1  0
  4  5  1  0
  5  6  1  0
  6  7  1  0
  7  8  1  0
  9  8  1  1
  9 10  1  0
 10 11  2  0
 10 12  1  0
 12 13  1  0
 13 14  2  0
 14 15  1  0
 15 16  2  0
 16 17  1  0
 17 18  2  0
 18 19  1  0
 19 20  2  0
 20 21  1  0
 21 22  2  0
 21 23  1  0
 20 24  1  0
 19 25  1  0
 18 26  1  0
 16 27  1  0
 14 28  1  0
 12 29  1  0
 29 30  1  0
 30 31  1  0
 31 32  1  0
 31 33  1  0
 31 34  1  0
 30 35  1  6
 29 36  1  0
 29 37  1  0
  9 38  1  0
 38 39  2  0
 39 40  1  0
 40 41  1  0
 40 42  2  0
 42 43  1  0
 43 44  2  0
 44 45  1  0
 45 46  2  0
 43 47  1  0
 42 48  1  0
 39 49  1  0
  8 50  1  0
  8 51  1  0
  6 52  1  0
  6 53  1  0
  5 54  1  0
  5 55  1  0
  4 56  1  0
 56 57  1  0
 57 58  1  0
 57 59  1  0
 57 60  1  0
 56 61  1  0
 56 62  1  0
  4 63  1  6
  3 64  1  0
  3 65  1  0
  2 66  1  6
  1 67  1  0
  1 68  1  0
  1 69  1  0
 58  2  1  0
 45  7  1  0
 30  9  1  0
 44 38  1  0
 22 13  1  0
 22 17  1  0
M  CHG  1   4   1
M  END
>  <cnnaffinities>  (24) 
[6.78768]

>  <score>  (24) 
6.78768

>  <index>  (24) 
23

>  <Smiles>  (24) 
C([C@]1(C([N@@+](C(C(N2C([C@@]3(C(=O)N(c4c(nc(c5c(c(c(c(c45)[H])[H])[H])[H])[H])[H])C([C@@]3(C([H])([H])[H])[H])([H])[H])c3c(c(Cl)c(c(c3C2=O)[H])[H])[H])([H])[H])([H])[H])([H])[H])(C(C(O1)([H])[H])([H])[H])[H])([H])[H])[H])([H])([H])[H]

>  <h>  (24) 
<NA>

>  <Training>  (24) 
True

>  <Success>  (24) 
True

>  <enamine_searched>  (24) 
False

>  <enamine_id>  (24) 
nan

$$$$

     RDKit          3D

 70 75  0  0  0  0  0  0  0  0999 V2000
    3.7813    2.6481   26.0606 C   0  0  0  0  0  0  0  0  0  0  0  0
    5.0720    2.7929   26.7715 N   0  0  0  0  0  4  0  0  0  0  0  0
    6.1138    1.8099   26.3266 C   0  0  0  0  0  0  0  0  0  0  0  0
    6.6766    2.1304   24.9351 C   0  0  0  0  0  0  0  0  0  0  0  0
    7.7412    1.2248   24.5493 N   0  0  0  0  0  0  0  0  0  0  0  0
    7.4224   -0.0992   24.0581 C   0  0  0  0  0  0  0  0  0  0  0  0
    8.2244   -0.4464   22.7750 C   0  0  2  0  0  0  0  0  0  0  0  0
    7.6750    0.3670   21.5875 C   0  0  0  0  0  0  0  0  0  0  0  0
    7.8666    1.5377   21.3439 O   0  0  0  0  0  0  0  0  0  0  0  0
    6.8942   -0.4588   20.8175 N   0  0  0  0  0  0  0  0  0  0  0  0
    6.1129    0.0591   19.7594 C   0  0  0  0  0  0  0  0  0  0  0  0
    6.4306   -0.2615   18.4654 C   0  0  0  0  0  0  0  0  0  0  0  0
    5.7711    0.1978   17.3744 N   0  0  0  0  0  0  0  0  0  0  0  0
    4.7530    0.9982   17.5866 C   0  0  0  0  0  0  0  0  0  0  0  0
    4.3004    1.3892   18.8784 C   0  0  0  0  0  0  0  0  0  0  0  0
    3.1786    2.2446   19.0448 C   0  0  0  0  0  0  0  0  0  0  0  0
    2.7515    2.5975   20.2954 C   0  0  0  0  0  0  0  0  0  0  0  0
    3.4227    2.1068   21.4376 C   0  0  0  0  0  0  0  0  0  0  0  0
    4.5128    1.2837   21.3052 C   0  0  0  0  0  0  0  0  0  0  0  0
    4.9906    0.9093   20.0127 C   0  0  0  0  0  0  0  0  0  0  0  0
    5.0215    0.9219   22.1937 H   0  0  0  0  0  0  0  0  0  0  0  0
    3.0676    2.3901   22.4250 H   0  0  0  0  0  0  0  0  0  0  0  0
    1.8999    3.2608   20.4163 H   0  0  0  0  0  0  0  0  0  0  0  0
    2.6828    2.6249   18.1556 H   0  0  0  0  0  0  0  0  0  0  0  0
    4.2243    1.3755   16.7105 H   0  0  0  0  0  0  0  0  0  0  0  0
    7.2821   -0.9121   18.2707 H   0  0  0  0  0  0  0  0  0  0  0  0
    6.7819   -1.8090   21.3246 C   0  0  0  0  0  0  0  0  0  0  0  0
    7.9514   -1.9191   22.3230 C   0  0  2  0  0  0  0  0  0  0  0  0
    7.6425   -2.9560   23.4153 C   0  0  0  0  0  0  0  0  0  0  0  0
    8.6601   -3.1169   24.3759 O   0  0  0  0  0  0  0  0  0  0  0  0
    9.6878   -4.0009   23.9957 C   0  0  0  0  0  0  0  0  0  0  0  0
   10.6370   -4.2018   25.2618 C   0  0  0  0  0  0  0  0  0  0  0  0
   10.4456   -4.0553   25.3085 C   0  0  0  0  0  0  0  0  0  0  0  0
   12.5333   -2.7908   24.8258 O   0  0  0  0  0  0  0  0  0  0  0  0
   11.2373   -2.7335   25.5214 C   0  0  0  0  0  0  0  0  0  0  0  0
   11.4200   -2.5044   26.5902 H   0  0  0  0  0  0  0  0  0  0  0  0
   10.6802   -1.8435   25.1627 H   0  0  0  0  0  0  0  0  0  0  0  0
   12.4023   -3.7153   24.5041 H   0  0  0  0  0  0  0  0  0  0  0  0
   11.4434   -5.4583   25.3368 H   0  0  0  0  0  0  0  0  0  0  0  0
   10.1647   -4.5119   26.3874 H   0  0  0  0  0  0  0  0  0  0  0  0
   10.2661   -3.6208   23.1345 H   0  0  0  0  0  0  0  0  0  0  0  0
    9.2542   -4.9660   23.6651 H   0  0  0  0  0  0  0  0  0  0  0  0
    7.4211   -3.9301   22.9485 H   0  0  0  0  0  0  0  0  0  0  0  0
    6.7341   -2.6498   23.9497 H   0  0  0  0  0  0  0  0  0  0  0  0
    8.8341   -2.2640   21.7749 H   0  0  0  0  0  0  0  0  0  0  0  0
    6.8439   -2.5285   20.5041 H   0  0  0  0  0  0  0  0  0  0  0  0
    5.8145   -1.9707   21.8266 H   0  0  0  0  0  0  0  0  0  0  0  0
    9.6800   -0.0801   22.9966 C   0  0  0  0  0  0  0  0  0  0  0  0
   10.6754   -0.5597   22.1336 C   0  0  0  0  0  0  0  0  0  0  0  0
   12.0098   -0.3045   22.4037 C   0  0  0  0  0  0  0  0  0  0  0  0
   13.2405   -1.0073   21.3900 Cl  0  0  0  0  0  0  0  0  0  0  0  0
   12.3959    0.4848   23.4886 C   0  0  0  0  0  0  0  0  0  0  0  0
   11.4071    1.0387   24.2774 C   0  0  0  0  0  0  0  0  0  0  0  0
   10.0609    0.7942   24.0252 C   0  0  0  0  0  0  0  0  0  0  0  0
    9.0366    1.5559   24.8258 C   0  0  0  0  0  0  0  0  0  0  0  0
    9.3425    2.4310   25.6241 O   0  0  0  0  0  0  0  0  0  0  0  0
   11.6416    1.6829   25.1096 H   0  0  0  0  0  0  0  0  0  0  0  0
   13.4488    0.6653   23.6870 H   0  0  0  0  0  0  0  0  0  0  0  0
   10.4236   -1.1393   21.2506 H   0  0  0  0  0  0  0  0  0  0  0  0
    6.3473   -0.1508   23.8511 H   0  0  0  0  0  0  0  0  0  0  0  0
    7.6557   -0.8468   24.8281 H   0  0  0  0  0  0  0  0  0  0  0  0
    7.0980    3.1399   24.9199 H   0  0  0  0  0  0  0  0  0  0  0  0
    5.8987    2.0742   24.1577 H   0  0  0  0  0  0  0  0  0  0  0  0
    6.9214    1.8210   27.0513 H   0  0  0  0  0  0  0  0  0  0  0  0
    5.6651    0.8137   26.3218 H   0  0  0  0  0  0  0  0  0  0  0  0
    5.4515    3.7497   26.5752 H   0  0  0  0  0  0  0  0  0  0  0  0
    4.8953    2.6907   27.7923 H   0  0  0  0  0  0  0  0  0  0  0  0
    3.0190    3.2575   26.5409 H   0  0  0  0  0  0  0  0  0  0  0  0
    3.8652    2.9538   25.0162 H   0  0  0  0  0  0  0  0  0  0  0  0
    3.4585    1.6049   26.0704 H   0  0  0  0  0  0  0  0  0  0  0  0
  1  2  1  0
  2  3  1  0
  3  4  1  0
  4  5  1  0
  5  6  1  0
  7  6  1  1
  7  8  1  0
  8  9  2  0
  8 10  1  0
 10 11  1  0
 11 12  2  0
 12 13  1  0
 13 14  2  0
 14 15  1  0
 15 16  2  0
 16 17  1  0
 17 18  2  0
 18 19  1  0
 19 20  2  0
 19 21  1  0
 18 22  1  0
 17 23  1  0
 16 24  1  0
 14 25  1  0
 12 26  1  0
 10 27  1  0
 27 28  1  0
 28 29  1  0
 29 30  1  0
 30 31  1  0
 31 32  1  0
 32 33  1  0
 33 34  1  0
 34 35  1  0
 35 36  1  0
 35 37  1  0
 33 38  1  0
 33 39  1  0
 32 40  1  0
 31 41  1  0
 31 42  1  0
 29 43  1  0
 29 44  1  0
 28 45  1  6
 27 46  1  0
 27 47  1  0
  7 48  1  0
 48 49  2  0
 49 50  1  0
 50 51  1  0
 50 52  2  0
 52 53  1  0
 53 54  2  0
 54 55  1  0
 55 56  2  0
 53 57  1  0
 52 58  1  0
 49 59  1  0
  6 60  1  0
  6 61  1  0
  4 62  1  0
  4 63  1  0
  3 64  1  0
  3 65  1  0
  2 66  1  0
  2 67  1  0
  1 68  1  0
  1 69  1  0
  1 70  1  0
 55  5  1  0
 28  7  1  0
 35 32  1  0
 54 48  1  0
 20 11  1  0
 20 15  1  0
M  CHG  1   2   1
M  END
>  <cnnaffinities>  (25) 
[6.58876]

>  <score>  (25) 
6.58876

>  <index>  (25) 
24

>  <Smiles>  (25) 
C([N+](C(C(N1C([C@@]2(C(=O)N(c3c(nc(c4c(c(c(c(c34)[H])[H])[H])[H])[H])[H])C([C@@]2(C(OC(C2(C(OC2([H])[H])([H])[H])[H])([H])[H])([H])[H])[H])([H])[H])c2c(c(Cl)c(c(c2C1=O)[H])[H])[H])([H])[H])([H])[H])([H])[H])([H])[H])([H])([H])[H]

>  <h>  (25) 
<NA>

>  <Training>  (25) 
True

>  <Success>  (25) 
True

>  <enamine_searched>  (25) 
False

>  <enamine_id>  (25) 
nan

$$$$

     RDKit          3D

 68 73  0  0  0  0  0  0  0  0999 V2000
    6.5792    4.3470   21.3983 C   0  0  0  0  0  0  0  0  0  0  0  0
    7.5833    3.9059   22.3553 N   0  0  0  0  0  0  0  0  0  0  0  0
    7.1724    3.2367   23.4702 C   0  0  0  0  0  0  0  0  0  0  0  0
    5.9901    3.0339   23.7036 O   0  0  0  0  0  0  0  0  0  0  0  0
    8.2769    2.7535   24.4249 C   0  0  0  0  0  0  0  0  0  0  0  0
    8.9225    1.5596   23.9034 N   0  0  0  0  0  0  0  0  0  0  0  0
    8.1281    0.3465   23.7737 C   0  0  0  0  0  0  0  0  0  0  0  0
    8.5451   -0.4943   22.5396 C   0  0  2  0  0  0  0  0  0  0  0  0
    8.0599    0.2105   21.2507 C   0  0  0  0  0  0  0  0  0  0  0  0
    8.5646    1.1706   20.7002 O   0  0  0  0  0  0  0  0  0  0  0  0
    6.9315   -0.4300   20.8002 N   0  0  0  0  0  0  0  0  0  0  0  0
    6.1603    0.0979   19.7437 C   0  0  0  0  0  0  0  0  0  0  0  0
    6.4996   -0.2036   18.4523 C   0  0  0  0  0  0  0  0  0  0  0  0
    5.8078    0.2196   17.3686 N   0  0  0  0  0  0  0  0  0  0  0  0
    4.7598    0.9781   17.5885 C   0  0  0  0  0  0  0  0  0  0  0  0
    4.3028    1.3687   18.8792 C   0  0  0  0  0  0  0  0  0  0  0  0
    3.1798    2.2176   19.0621 C   0  0  0  0  0  0  0  0  0  0  0  0
    2.7886    2.6004   20.3159 C   0  0  0  0  0  0  0  0  0  0  0  0
    3.5019    2.1514   21.4514 C   0  0  0  0  0  0  0  0  0  0  0  0
    4.5895    1.3229   21.3039 C   0  0  0  0  0  0  0  0  0  0  0  0
    5.0206    0.9141   20.0091 C   0  0  0  0  0  0  0  0  0  0  0  0
    5.1549    1.0206   22.1819 H   0  0  0  0  0  0  0  0  0  0  0  0
    3.2114    2.4874   22.4436 H   0  0  0  0  0  0  0  0  0  0  0  0
    1.9413    3.2705   20.4420 H   0  0  0  0  0  0  0  0  0  0  0  0
    2.6658    2.5800   18.1768 H   0  0  0  0  0  0  0  0  0  0  0  0
    4.2151    1.3328   16.7136 H   0  0  0  0  0  0  0  0  0  0  0  0
    7.3731   -0.8231   18.2585 H   0  0  0  0  0  0  0  0  0  0  0  0
    6.5147   -1.5532   21.6028 C   0  0  0  0  0  0  0  0  0  0  0  0
    7.7511   -1.8456   22.4585 C   0  0  2  0  0  0  0  0  0  0  0  0
    7.3387   -2.5108   23.7673 C   0  0  0  0  0  0  0  0  0  0  0  0
    8.5005   -2.9845   24.4694 N   0  0  0  0  0  0  0  0  0  0  0  0
    8.3969   -3.4398   25.7807 C   0  0  0  0  0  0  0  0  0  0  0  0
    7.2664   -3.7646   26.5730 C   0  0  0  0  0  0  0  0  0  0  0  0
    7.6312   -4.2761   27.7467 N   0  0  0  0  0  0  0  0  0  0  0  0
    8.9671   -4.2597   27.7334 N   0  0  0  0  0  0  0  0  0  0  0  0
    9.7151   -4.8106   28.8321 C   0  0  0  0  0  0  0  0  0  0  0  0
    9.2325   -4.5337   29.7648 H   0  0  0  0  0  0  0  0  0  0  0  0
    9.7530   -5.9001   28.7792 H   0  0  0  0  0  0  0  0  0  0  0  0
   10.7337   -4.4191   28.8226 H   0  0  0  0  0  0  0  0  0  0  0  0
    9.4711   -3.7681   26.5768 C   0  0  0  0  0  0  0  0  0  0  0  0
   10.5349   -3.6660   26.4046 H   0  0  0  0  0  0  0  0  0  0  0  0
    6.2091   -3.6623   26.3464 H   0  0  0  0  0  0  0  0  0  0  0  0
    9.3636   -2.4874   24.2839 H   0  0  0  0  0  0  0  0  0  0  0  0
    6.6735   -3.3606   23.5659 H   0  0  0  0  0  0  0  0  0  0  0  0
    6.7320   -1.8024   24.3593 H   0  0  0  0  0  0  0  0  0  0  0  0
    8.3794   -2.5592   21.9170 H   0  0  0  0  0  0  0  0  0  0  0  0
    5.6460   -1.2990   22.2315 H   0  0  0  0  0  0  0  0  0  0  0  0
    6.2238   -2.4067   20.9772 H   0  0  0  0  0  0  0  0  0  0  0  0
   10.0637   -0.5935   22.5024 C   0  0  0  0  0  0  0  0  0  0  0  0
   10.6847   -1.4750   21.6042 C   0  0  0  0  0  0  0  0  0  0  0  0
   12.0657   -1.4862   21.4848 C   0  0  0  0  0  0  0  0  0  0  0  0
   12.8382   -2.4530   20.2558 Cl  0  0  0  0  0  0  0  0  0  0  0  0
   12.8681   -0.6683   22.2822 C   0  0  0  0  0  0  0  0  0  0  0  0
   12.2657    0.2170   23.1537 C   0  0  0  0  0  0  0  0  0  0  0  0
   10.8753    0.3167   23.2013 C   0  0  0  0  0  0  0  0  0  0  0  0
   10.2926    1.5014   23.9138 C   0  0  0  0  0  0  0  0  0  0  0  0
   10.9899    2.3682   24.4222 O   0  0  0  0  0  0  0  0  0  0  0  0
   12.8535    0.8703   23.7930 H   0  0  0  0  0  0  0  0  0  0  0  0
   13.9446   -0.6876   22.1638 H   0  0  0  0  0  0  0  0  0  0  0  0
   10.0892   -2.0973   20.9455 H   0  0  0  0  0  0  0  0  0  0  0  0
    8.2183   -0.2522   24.6935 H   0  0  0  0  0  0  0  0  0  0  0  0
    7.0823    0.6467   23.6671 H   0  0  0  0  0  0  0  0  0  0  0  0
    9.0764    3.4914   24.5488 H   0  0  0  0  0  0  0  0  0  0  0  0
    7.8411    2.5723   25.4212 H   0  0  0  0  0  0  0  0  0  0  0  0
    8.5124    3.6900   22.0154 H   0  0  0  0  0  0  0  0  0  0  0  0
    6.1643    3.4990   20.8373 H   0  0  0  0  0  0  0  0  0  0  0  0
    7.0142    5.0738   20.7083 H   0  0  0  0  0  0  0  0  0  0  0  0
    5.7591    4.8308   21.9353 H   0  0  0  0  0  0  0  0  0  0  0  0
  1  2  1  0
  2  3  1  0
  3  4  2  0
  3  5  1  0
  5  6  1  0
  6  7  1  0
  8  7  1  1
  8  9  1  0
  9 10  2  0
  9 11  1  0
 11 12  1  0
 12 13  2  0
 13 14  1  0
 14 15  2  0
 15 16  1  0
 16 17  2  0
 17 18  1  0
 18 19  2  0
 19 20  1  0
 20 21  2  0
 20 22  1  0
 19 23  1  0
 18 24  1  0
 17 25  1  0
 15 26  1  0
 13 27  1  0
 11 28  1  0
 28 29  1  0
 29 30  1  0
 30 31  1  0
 31 32  1  0
 32 33  1  0
 33 34  2  0
 34 35  1  0
 35 36  1  0
 36 37  1  0
 36 38  1  0
 36 39  1  0
 35 40  1  0
 40 41  1  0
 33 42  1  0
 31 43  1  0
 30 44  1  0
 30 45  1  0
 29 46  1  6
 28 47  1  0
 28 48  1  0
  8 49  1  0
 49 50  2  0
 50 51  1  0
 51 52  1  0
 51 53  2  0
 53 54  1  0
 54 55  2  0
 55 56  1  0
 56 57  2  0
 54 58  1  0
 53 59  1  0
 50 60  1  0
  7 61  1  0
  7 62  1  0
  5 63  1  0
  5 64  1  0
  2 65  1  0
  1 66  1  0
  1 67  1  0
  1 68  1  0
 56  6  1  0
 29  8  1  0
 40 32  2  0
 55 49  1  0
 21 12  1  0
 21 16  1  0
M  END
>  <cnnaffinities>  (26) 
[6.4485]

>  <score>  (26) 
6.4485

>  <index>  (26) 
25

>  <Smiles>  (26) 
C(N(C(=O)C(N1C([C@@]2(C(=O)N(c3c(nc(c4c(c(c(c(c34)[H])[H])[H])[H])[H])[H])C([C@@]2(C(N(c2c(nn(C([H])([H])[H])c2[H])[H])[H])([H])[H])[H])([H])[H])c2c(c(Cl)c(c(c2C1=O)[H])[H])[H])([H])[H])([H])[H])[H])([H])([H])[H]

>  <h>  (26) 
<NA>

>  <Training>  (26) 
True

>  <Success>  (26) 
True

>  <enamine_searched>  (26) 
False

>  <enamine_id>  (26) 
nan

$$$$

     RDKit          3D

 43 47  0  0  0  0  0  0  0  0999 V2000
    8.8667    0.6945   20.6774 O   0  0  0  0  0  0  0  0  0  0  0  0
    8.2266   -0.2574   21.0525 C   0  0  0  0  0  0  0  0  0  0  0  0
    8.6789   -1.3690   21.7253 N   0  0  0  0  0  0  0  0  0  0  0  0
    7.5840   -2.0589   22.3787 C   0  0  1  0  0  0  0  0  0  0  0  0
    7.5767   -3.5882   22.5040 C   0  0  0  0  0  0  0  0  0  0  0  0
    7.4137   -3.4607   24.0343 C   0  0  2  0  0  0  0  0  0  0  0  0
    6.1612   -4.0148   24.6603 C   0  0  0  0  0  0  0  0  0  0  0  0
    5.2624   -4.8628   24.0052 C   0  0  0  0  0  0  0  0  0  0  0  0
    4.2668   -5.5424   24.6966 C   0  0  0  0  0  0  0  0  0  0  0  0
    4.1231   -5.3534   26.0661 C   0  0  0  0  0  0  0  0  0  0  0  0
    4.9301   -4.4354   26.7293 C   0  0  0  0  0  0  0  0  0  0  0  0
    5.9281   -3.7750   26.0210 C   0  0  0  0  0  0  0  0  0  0  0  0
    6.9248   -2.6209   26.8720 Cl  0  0  0  0  0  0  0  0  0  0  0  0
    4.7822   -4.2211   27.7842 H   0  0  0  0  0  0  0  0  0  0  0  0
    3.3618   -5.8951   26.6200 H   0  0  0  0  0  0  0  0  0  0  0  0
    3.6214   -6.2430   24.1685 H   0  0  0  0  0  0  0  0  0  0  0  0
    5.3597   -5.0339   22.9383 H   0  0  0  0  0  0  0  0  0  0  0  0
    7.4796   -1.9169   23.9061 C   0  0  0  0  0  0  0  0  0  0  0  0
    8.3589   -1.4543   24.3643 H   0  0  0  0  0  0  0  0  0  0  0  0
    6.5726   -1.4011   24.2182 H   0  0  0  0  0  0  0  0  0  0  0  0
    8.2742   -3.8564   24.5850 H   0  0  0  0  0  0  0  0  0  0  0  0
    6.7125   -4.0047   21.9920 H   0  0  0  0  0  0  0  0  0  0  0  0
    8.4842   -4.0941   22.1744 H   0  0  0  0  0  0  0  0  0  0  0  0
    6.3774   -1.5166   21.6408 C   0  0  0  0  0  0  0  0  0  0  0  0
    5.2359   -1.9049   21.6898 O   0  0  0  0  0  0  0  0  0  0  0  0
    6.8474   -0.4464   20.8803 N   0  0  0  0  0  0  0  0  0  0  0  0
    6.1291    0.0987   19.7924 C   0  0  0  0  0  0  0  0  0  0  0  0
    6.4881   -0.2127   18.5064 C   0  0  0  0  0  0  0  0  0  0  0  0
    5.8229    0.2187   17.4090 N   0  0  0  0  0  0  0  0  0  0  0  0
    4.7829    0.9895   17.6170 C   0  0  0  0  0  0  0  0  0  0  0  0
    4.3202    1.3868   18.9016 C   0  0  0  0  0  0  0  0  0  0  0  0
    3.1970    2.2319   19.0587 C   0  0  0  0  0  0  0  0  0  0  0  0
    2.7988    2.6194   20.3064 C   0  0  0  0  0  0  0  0  0  0  0  0
    3.4953    2.1795   21.4532 C   0  0  0  0  0  0  0  0  0  0  0  0
    4.5824    1.3534   21.3306 C   0  0  0  0  0  0  0  0  0  0  0  0
    5.0116    0.9380   20.0396 C   0  0  0  0  0  0  0  0  0  0  0  0
    5.1184    1.0116   22.2115 H   0  0  0  0  0  0  0  0  0  0  0  0
    3.1727    2.5090   22.4348 H   0  0  0  0  0  0  0  0  0  0  0  0
    1.9520    3.2873   20.4187 H   0  0  0  0  0  0  0  0  0  0  0  0
    2.6942    2.5782   18.1625 H   0  0  0  0  0  0  0  0  0  0  0  0
    4.2491    1.3440   16.7380 H   0  0  0  0  0  0  0  0  0  0  0  0
    7.3414   -0.8611   18.3220 H   0  0  0  0  0  0  0  0  0  0  0  0
    9.5794   -1.2688   22.1720 H   0  0  0  0  0  0  0  0  0  0  0  0
  1  2  2  0
  2  3  1  0
  4  3  1  6
  4  5  1  0
  5  6  1  0
  6  7  1  0
  7  8  2  0
  8  9  1  0
  9 10  2  0
 10 11  1  0
 11 12  2  0
 12 13  1  0
 11 14  1  0
 10 15  1  0
  9 16  1  0
  8 17  1  0
  6 18  1  0
 18 19  1  0
 18 20  1  0
  6 21  1  1
  5 22  1  0
  5 23  1  0
  4 24  1  0
 24 25  2  0
 24 26  1  0
 26 27  1  0
 27 28  2  0
 28 29  1  0
 29 30  2  0
 30 31  1  0
 31 32  2  0
 32 33  1  0
 33 34  2  0
 34 35  1  0
 35 36  2  0
 35 37  1  0
 34 38  1  0
 33 39  1  0
 32 40  1  0
 30 41  1  0
 28 42  1  0
  3 43  1  0
 26  2  1  0
 36 27  1  0
 18  4  1  0
 36 31  1  0
 12  7  1  0
M  END
>  <cnnaffinities>  (27) 
[5.21137, 5.18689]

>  <score>  (27) 
5.21137

>  <index>  (27) 
26

>  <Smiles>  (27) 
O=C1N([C@]2(C([C@](c3c(c(c(c(c3Cl)[H])[H])[H])[H])(C2([H])[H])[H])([H])[H])C(=O)N1c1c(nc(c2c(c(c(c(c12)[H])[H])[H])[H])[H])[H])[H]

>  <h>  (27) 
<NA>

>  <Training>  (27) 
True

>  <Success>  (27) 
True

>  <enamine_searched>  (27) 
False

>  <enamine_id>  (27) 
nan

$$$$

     RDKit          3D

 46 48  0  0  0  0  0  0  0  0999 V2000
    6.8379    3.9208   21.4014 C   0  0  0  0  0  0  0  0  0  0  0  0
    7.1978    3.3919   22.7907 C   0  0  0  0  0  0  0  0  0  0  0  0
    8.4705    2.5058   22.7969 C   0  0  1  0  0  0  0  0  0  0  0  0
    9.3562    2.7115   24.0289 C   0  0  0  0  0  0  0  0  0  0  0  0
    8.9482    1.9496   25.2870 C   0  0  1  0  0  0  0  0  0  0  0  0
    7.8486    2.6004   26.1033 C   0  0  0  0  0  0  0  0  0  0  0  0
    7.7451    1.9929   27.3053 F   0  0  0  0  0  0  0  0  0  0  0  0
    6.6288    2.5315   25.5262 F   0  0  0  0  0  0  0  0  0  0  0  0
    8.1164    3.9017   26.3313 F   0  0  0  0  0  0  0  0  0  0  0  0
    8.6530    0.4950   24.9378 C   0  0  0  0  0  0  0  0  0  0  0  0
    7.6945    0.3321   23.7523 C   0  0  0  0  0  0  0  0  0  0  0  0
    8.1675    1.0831   22.6022 N   0  0  0  0  0  0  0  0  0  0  0  0
    8.0471    0.6519   21.2977 C   0  0  0  0  0  0  0  0  0  0  0  0
    8.7576    1.1077   20.4187 O   0  0  0  0  0  0  0  0  0  0  0  0
    6.9784   -0.3978   20.9158 C   0  0  0  0  0  0  0  0  0  0  0  0
    6.1168    0.0933   19.7710 C   0  0  0  0  0  0  0  0  0  0  0  0
    6.4318   -0.2112   18.4667 C   0  0  0  0  0  0  0  0  0  0  0  0
    5.7652    0.2358   17.3701 N   0  0  0  0  0  0  0  0  0  0  0  0
    4.7380    1.0229   17.5776 C   0  0  0  0  0  0  0  0  0  0  0  0
    4.2822    1.4161   18.8661 C   0  0  0  0  0  0  0  0  0  0  0  0
    3.1702    2.2760   19.0479 C   0  0  0  0  0  0  0  0  0  0  0  0
    2.7706    2.6551   20.3003 C   0  0  0  0  0  0  0  0  0  0  0  0
    3.4682    2.1836   21.4353 C   0  0  0  0  0  0  0  0  0  0  0  0
    4.5484    1.3442   21.2846 C   0  0  0  0  0  0  0  0  0  0  0  0
    4.9903    0.9371   19.9991 C   0  0  0  0  0  0  0  0  0  0  0  0
    5.0670    0.9930   22.1735 H   0  0  0  0  0  0  0  0  0  0  0  0
    3.1486    2.4851   22.4278 H   0  0  0  0  0  0  0  0  0  0  0  0
    1.9283    3.3281   20.4276 H   0  0  0  0  0  0  0  0  0  0  0  0
    2.6617    2.6511   18.1636 H   0  0  0  0  0  0  0  0  0  0  0  0
    4.2076    1.3905   16.6968 H   0  0  0  0  0  0  0  0  0  0  0  0
    7.2813   -0.8533   18.2406 H   0  0  0  0  0  0  0  0  0  0  0  0
    7.5262   -1.2813   20.5701 H   0  0  0  0  0  0  0  0  0  0  0  0
    6.3615   -0.7030   21.7692 H   0  0  0  0  0  0  0  0  0  0  0  0
    6.6756    0.6315   24.0392 H   0  0  0  0  0  0  0  0  0  0  0  0
    7.6764   -0.7183   23.4591 H   0  0  0  0  0  0  0  0  0  0  0  0
    8.2493   -0.0272   25.8088 H   0  0  0  0  0  0  0  0  0  0  0  0
    9.6024    0.0160   24.6688 H   0  0  0  0  0  0  0  0  0  0  0  0
    9.7934    1.9821   25.9849 H   0  0  0  0  0  0  0  0  0  0  0  0
    9.4120    3.7804   24.2526 H   0  0  0  0  0  0  0  0  0  0  0  0
   10.3666    2.3806   23.7601 H   0  0  0  0  0  0  0  0  0  0  0  0
    9.0744    2.7736   21.9257 H   0  0  0  0  0  0  0  0  0  0  0  0
    6.3542    2.8236   23.2024 H   0  0  0  0  0  0  0  0  0  0  0  0
    7.3724    4.2381   23.4718 H   0  0  0  0  0  0  0  0  0  0  0  0
    7.5803    4.6501   21.0838 H   0  0  0  0  0  0  0  0  0  0  0  0
    6.7924    3.1108   20.6615 H   0  0  0  0  0  0  0  0  0  0  0  0
    5.8806    4.4507   21.3892 H   0  0  0  0  0  0  0  0  0  0  0  0
  1  2  1  0
  2  3  1  0
  3  4  1  0
  4  5  1  0
  5  6  1  0
  6  7  1  0
  6  8  1  0
  6  9  1  0
  5 10  1  0
 10 11  1  0
 11 12  1  0
 12 13  1  0
 13 14  2  0
 13 15  1  0
 15 16  1  0
 16 17  2  0
 17 18  1  0
 18 19  2  0
 19 20  1  0
 20 21  2  0
 21 22  1  0
 22 23  2  0
 23 24  1  0
 24 25  2  0
 24 26  1  0
 23 27  1  0
 22 28  1  0
 21 29  1  0
 19 30  1  0
 17 31  1  0
 15 32  1  0
 15 33  1  0
 11 34  1  0
 11 35  1  0
 10 36  1  0
 10 37  1  0
  5 38  1  1
  4 39  1  0
  4 40  1  0
  3 41  1  6
  2 42  1  0
  2 43  1  0
  1 44  1  0
  1 45  1  0
  1 46  1  0
 12  3  1  0
 25 16  1  0
 25 20  1  0
M  END
>  <cnnaffinities>  (28) 
[5.62394, 5.62396, 5.5865, 5.58646, 5.58651, 5.58887]

>  <score>  (28) 
5.62394

>  <index>  (28) 
27

>  <Smiles>  (28) 
C(C([C@]1(C([C@@](C(F)(F)F)(C(C(N1C(=O)C(c1c(nc(c2c(c(c(c(c12)[H])[H])[H])[H])[H])[H])([H])[H])([H])[H])([H])[H])[H])([H])[H])[H])([H])[H])([H])([H])[H]

>  <h>  (28) 
<NA>

>  <Training>  (28) 
True

>  <Success>  (28) 
True

>  <enamine_searched>  (28) 
False

>  <enamine_id>  (28) 
nan

$$$$

     RDKit          3D

 70 75  0  0  0  0  0  0  0  0999 V2000
    9.4079    4.7870   22.4363 C   0  0  0  0  0  0  0  0  0  0  0  0
    8.5715    3.6366   22.0300 N   0  0  0  0  0  4  0  0  0  0  0  0
    7.5633    3.2624   23.0503 C   0  0  0  0  0  0  0  0  0  0  0  0
    8.1976    2.5878   24.2729 C   0  0  0  0  0  0  0  0  0  0  0  0
    8.9795    1.4134   23.9216 N   0  0  0  0  0  0  0  0  0  0  0  0
    8.2930    0.1534   23.7311 C   0  0  0  0  0  0  0  0  0  0  0  0
    8.6964   -0.5214   22.3964 C   0  0  2  0  0  0  0  0  0  0  0  0
    8.1588    0.3054   21.2034 C   0  0  0  0  0  0  0  0  0  0  0  0
    8.6255    1.3612   20.7955 O   0  0  0  0  0  0  0  0  0  0  0  0
    7.0503   -0.3077   20.6891 N   0  0  0  0  0  0  0  0  0  0  0  0
    6.2456    0.2354   19.6456 C   0  0  0  0  0  0  0  0  0  0  0  0
    6.5412   -0.0571   18.3376 C   0  0  0  0  0  0  0  0  0  0  0  0
    5.7922    0.3197   17.2707 N   0  0  0  0  0  0  0  0  0  0  0  0
    4.7179    1.0325   17.5058 C   0  0  0  0  0  0  0  0  0  0  0  0
    4.2948    1.4237   18.8076 C   0  0  0  0  0  0  0  0  0  0  0  0
    3.1343    2.2200   19.0079 C   0  0  0  0  0  0  0  0  0  0  0  0
    2.7481    2.5793   20.2693 C   0  0  0  0  0  0  0  0  0  0  0  0
    3.4917    2.1453   21.3897 C   0  0  0  0  0  0  0  0  0  0  0  0
    4.6180    1.3714   21.2192 C   0  0  0  0  0  0  0  0  0  0  0  0
    5.0646    1.0033   19.9196 C   0  0  0  0  0  0  0  0  0  0  0  0
    5.1790    1.0506   22.0913 H   0  0  0  0  0  0  0  0  0  0  0  0
    3.1779    2.4337   22.3885 H   0  0  0  0  0  0  0  0  0  0  0  0
    1.8724    3.2067   20.4195 H   0  0  0  0  0  0  0  0  0  0  0  0
    2.5787    2.5580   18.1352 H   0  0  0  0  0  0  0  0  0  0  0  0
    4.1201    1.3402   16.6446 H   0  0  0  0  0  0  0  0  0  0  0  0
    7.4244   -0.6481   18.1090 H   0  0  0  0  0  0  0  0  0  0  0  0
    6.6565   -1.4734   21.4548 C   0  0  0  0  0  0  0  0  0  0  0  0
    7.9534   -1.8721   22.1870 C   0  0  2  0  0  0  0  0  0  0  0  0
    7.6747   -2.7235   23.4244 C   0  0  0  0  0  0  0  0  0  0  0  0
    8.8831   -3.1187   24.0491 O   0  0  0  0  0  0  0  0  0  0  0  0
    8.7989   -3.3998   25.4304 C   0  0  0  0  0  0  0  0  0  0  0  0
    9.5640   -4.6707   25.7560 C   0  0  0  0  0  0  0  0  0  0  0  0
    9.1401   -5.7150   24.9725 F   0  0  0  0  0  0  0  0  0  0  0  0
   11.0783   -4.5378   25.8252 C   0  0  0  0  0  0  0  0  0  0  0  0
   11.0189   -4.4204   27.2519 O   0  0  0  0  0  0  0  0  0  0  0  0
    9.6940   -4.9808   27.2550 C   0  0  0  0  0  0  0  0  0  0  0  0
   11.5538   -5.4835   25.5381 H   0  0  0  0  0  0  0  0  0  0  0  0
    9.7048   -6.0608   27.4600 H   0  0  0  0  0  0  0  0  0  0  0  0
   11.5414   -3.6738   25.3368 H   0  0  0  0  0  0  0  0  0  0  0  0
    9.0586   -4.4897   27.9998 H   0  0  0  0  0  0  0  0  0  0  0  0
    9.2560   -2.5801   26.0105 H   0  0  0  0  0  0  0  0  0  0  0  0
    7.7585   -3.5128   25.7737 H   0  0  0  0  0  0  0  0  0  0  0  0
    7.1157   -3.6227   23.1312 H   0  0  0  0  0  0  0  0  0  0  0  0
    7.0313   -2.1716   24.1263 H   0  0  0  0  0  0  0  0  0  0  0  0
    8.5562   -2.4761   21.5074 H   0  0  0  0  0  0  0  0  0  0  0  0
    5.8645   -1.2233   22.1817 H   0  0  0  0  0  0  0  0  0  0  0  0
    6.2655   -2.2439   20.7840 H   0  0  0  0  0  0  0  0  0  0  0  0
   10.2096   -0.5743   22.3557 C   0  0  0  0  0  0  0  0  0  0  0  0
   10.8660   -1.4628   21.4971 C   0  0  0  0  0  0  0  0  0  0  0  0
   12.2466   -1.4696   21.4277 C   0  0  0  0  0  0  0  0  0  0  0  0
   13.0501   -2.4969   20.2758 Cl  0  0  0  0  0  0  0  0  0  0  0  0
   13.0213   -0.6210   22.2166 C   0  0  0  0  0  0  0  0  0  0  0  0
   12.3788    0.3082   23.0124 C   0  0  0  0  0  0  0  0  0  0  0  0
   10.9855    0.3586   23.0639 C   0  0  0  0  0  0  0  0  0  0  0  0
   10.3408    1.4806   23.8320 C   0  0  0  0  0  0  0  0  0  0  0  0
   10.9982    2.4079   24.2909 O   0  0  0  0  0  0  0  0  0  0  0  0
   12.9381    1.0342   23.5907 H   0  0  0  0  0  0  0  0  0  0  0  0
   14.1037   -0.6849   22.1736 H   0  0  0  0  0  0  0  0  0  0  0  0
   10.3062   -2.1342   20.8562 H   0  0  0  0  0  0  0  0  0  0  0  0
    8.5402   -0.5319   24.5553 H   0  0  0  0  0  0  0  0  0  0  0  0
    7.2144    0.3414   23.7543 H   0  0  0  0  0  0  0  0  0  0  0  0
    7.4042    2.2748   24.9610 H   0  0  0  0  0  0  0  0  0  0  0  0
    8.8649    3.2689   24.8017 H   0  0  0  0  0  0  0  0  0  0  0  0
    7.0164    4.1555   23.3695 H   0  0  0  0  0  0  0  0  0  0  0  0
    6.8387    2.5916   22.5820 H   0  0  0  0  0  0  0  0  0  0  0  0
    9.1211    2.7938   21.7948 H   0  0  0  0  0  0  0  0  0  0  0  0
    8.1053    3.8731   21.1389 H   0  0  0  0  0  0  0  0  0  0  0  0
    9.9405    5.1947   21.5767 H   0  0  0  0  0  0  0  0  0  0  0  0
   10.1358    4.4931   23.1931 H   0  0  0  0  0  0  0  0  0  0  0  0
    8.7701    5.5777   22.8532 H   0  0  0  0  0  0  0  0  0  0  0  0
  1  2  1  0
  2  3  1  0
  3  4  1  0
  4  5  1  0
  5  6  1  0
  7  6  1  1
  7  8  1  0
  8  9  2  0
  8 10  1  0
 10 11  1  0
 11 12  2  0
 12 13  1  0
 13 14  2  0
 14 15  1  0
 15 16  2  0
 16 17  1  0
 17 18  2  0
 18 19  1  0
 19 20  2  0
 19 21  1  0
 18 22  1  0
 17 23  1  0
 16 24  1  0
 14 25  1  0
 12 26  1  0
 10 27  1  0
 27 28  1  0
 28 29  1  0
 29 30  1  0
 30 31  1  0
 31 32  1  0
 32 33  1  0
 32 34  1  0
 34 35  1  0
 35 36  1  0
 36 37  1  0
 36 38  1  0
 34 39  1  0
 34 40  1  0
 31 41  1  0
 31 42  1  0
 29 43  1  0
 29 44  1  0
 28 45  1  6
 27 46  1  0
 27 47  1  0
  7 48  1  0
 48 49  2  0
 49 50  1  0
 50 51  1  0
 50 52  2  0
 52 53  1  0
 53 54  2  0
 54 55  1  0
 55 56  2  0
 53 57  1  0
 52 58  1  0
 49 59  1  0
  6 60  1  0
  6 61  1  0
  4 62  1  0
  4 63  1  0
  3 64  1  0
  3 65  1  0
  2 66  1  0
  2 67  1  0
  1 68  1  0
  1 69  1  0
  1 70  1  0
 55  5  1  0
 28  7  1  0
 36 32  1  0
 54 48  1  0
 20 11  1  0
 20 15  1  0
M  CHG  1   2   1
M  END
>  <cnnaffinities>  (29) 
[6.32938]

>  <score>  (29) 
6.32938

>  <index>  (29) 
28

>  <Smiles>  (29) 
C([N+](C(C(N1C([C@@]2(C(=O)N(c3c(nc(c4c(c(c(c(c34)[H])[H])[H])[H])[H])[H])C([C@@]2(C(OC(C2(F)C(OC2([H])[H])([H])[H])([H])[H])([H])[H])[H])([H])[H])c2c(c(Cl)c(c(c2C1=O)[H])[H])[H])([H])[H])([H])[H])([H])[H])([H])[H])([H])([H])[H]

>  <h>  (29) 
<NA>

>  <Training>  (29) 
True

>  <Success>  (29) 
True

>  <enamine_searched>  (29) 
False

>  <enamine_id>  (29) 
nan

$$$$

     RDKit          3D

 67 72  0  0  0  0  0  0  0  0999 V2000
    6.6371    4.3747   21.3248 C   0  0  0  0  0  0  0  0  0  0  0  0
    7.0199    3.3648   22.3162 N   0  0  0  0  0  4  0  0  0  0  0  0
    8.0859    3.7997   23.2478 C   0  0  0  0  0  0  0  0  0  0  0  0
    8.3260    2.7636   24.3465 C   0  0  0  0  0  0  0  0  0  0  0  0
    8.9673    1.5484   23.8656 N   0  0  0  0  0  0  0  0  0  0  0  0
    8.2395    0.2941   23.7757 C   0  0  0  0  0  0  0  0  0  0  0  0
    8.6100   -0.5082   22.4957 C   0  0  2  0  0  0  0  0  0  0  0  0
    7.9786    0.2612   21.3107 C   0  0  0  0  0  0  0  0  0  0  0  0
    8.2403    1.4101   20.9613 O   0  0  0  0  0  0  0  0  0  0  0  0
    6.9409   -0.4619   20.7978 N   0  0  0  0  0  0  0  0  0  0  0  0
    6.1421    0.0733   19.7452 C   0  0  0  0  0  0  0  0  0  0  0  0
    6.4715   -0.2179   18.4456 C   0  0  0  0  0  0  0  0  0  0  0  0
    5.7856    0.2227   17.3638 N   0  0  0  0  0  0  0  0  0  0  0  0
    4.7535    0.9986   17.5950 C   0  0  0  0  0  0  0  0  0  0  0  0
    4.3205    1.4042   18.8902 C   0  0  0  0  0  0  0  0  0  0  0  0
    3.2061    2.2661   19.0756 C   0  0  0  0  0  0  0  0  0  0  0  0
    2.8288    2.6568   20.3308 C   0  0  0  0  0  0  0  0  0  0  0  0
    3.5360    2.1979   21.4608 C   0  0  0  0  0  0  0  0  0  0  0  0
    4.6145    1.3548   21.3087 C   0  0  0  0  0  0  0  0  0  0  0  0
    5.0361    0.9335   20.0149 C   0  0  0  0  0  0  0  0  0  0  0  0
    5.1349    0.9936   22.1917 H   0  0  0  0  0  0  0  0  0  0  0  0
    3.2253    2.5193   22.4510 H   0  0  0  0  0  0  0  0  0  0  0  0
    1.9842    3.3269   20.4591 H   0  0  0  0  0  0  0  0  0  0  0  0
    2.6775    2.6196   18.1954 H   0  0  0  0  0  0  0  0  0  0  0  0
    4.2015    1.3553   16.7267 H   0  0  0  0  0  0  0  0  0  0  0  0
    7.3400   -0.8429   18.2504 H   0  0  0  0  0  0  0  0  0  0  0  0
    6.5535   -1.5745   21.6443 C   0  0  0  0  0  0  0  0  0  0  0  0
    7.8437   -1.8718   22.4300 C   0  0  2  0  0  0  0  0  0  0  0  0
    7.5293   -2.5784   23.7628 C   0  0  0  0  0  0  0  0  0  0  0  0
    6.9298   -3.8840   23.5569 N   0  0  0  0  0  0  0  0  0  0  0  0
    5.6343   -4.2072   23.7361 C   0  0  0  0  0  0  0  0  0  0  0  0
    5.2617   -5.4047   23.2187 N   0  0  0  0  0  0  0  0  0  0  0  0
    3.9908   -5.7039   23.4179 C   0  0  0  0  0  0  0  0  0  0  0  0
    3.0935   -4.9796   24.0919 N   0  0  0  0  0  0  0  0  0  0  0  0
    3.5776   -3.8290   24.5527 C   0  0  0  0  0  0  0  0  0  0  0  0
    4.8168   -3.3717   24.4090 N   0  0  0  0  0  0  0  0  0  0  0  0
    2.8810   -3.1969   25.1030 H   0  0  0  0  0  0  0  0  0  0  0  0
    3.6349   -6.6495   23.0062 H   0  0  0  0  0  0  0  0  0  0  0  0
    7.4979   -4.6152   23.1611 H   0  0  0  0  0  0  0  0  0  0  0  0
    6.7953   -2.0027   24.3307 H   0  0  0  0  0  0  0  0  0  0  0  0
    8.4406   -2.6818   24.3680 H   0  0  0  0  0  0  0  0  0  0  0  0
    8.4456   -2.5558   21.8247 H   0  0  0  0  0  0  0  0  0  0  0  0
    5.7338   -1.2983   22.3313 H   0  0  0  0  0  0  0  0  0  0  0  0
    6.2059   -2.4196   21.0444 H   0  0  0  0  0  0  0  0  0  0  0  0
   10.1329   -0.5787   22.3876 C   0  0  0  0  0  0  0  0  0  0  0  0
   10.7926   -1.5196   21.5761 C   0  0  0  0  0  0  0  0  0  0  0  0
   12.1776   -1.5018   21.4859 C   0  0  0  0  0  0  0  0  0  0  0  0
   13.0364   -2.5529   20.3941 Cl  0  0  0  0  0  0  0  0  0  0  0  0
   12.9499   -0.6127   22.2260 C   0  0  0  0  0  0  0  0  0  0  0  0
   12.3156    0.3291   22.9969 C   0  0  0  0  0  0  0  0  0  0  0  0
   10.9225    0.3862   23.0307 C   0  0  0  0  0  0  0  0  0  0  0  0
   10.3184    1.5904   23.6815 C   0  0  0  0  0  0  0  0  0  0  0  0
   11.0082    2.5525   24.0000 O   0  0  0  0  0  0  0  0  0  0  0  0
   12.8796    1.0674   23.5553 H   0  0  0  0  0  0  0  0  0  0  0  0
   14.0303   -0.6584   22.1445 H   0  0  0  0  0  0  0  0  0  0  0  0
   10.2394   -2.2436   20.9916 H   0  0  0  0  0  0  0  0  0  0  0  0
    7.1629    0.5086   23.7571 H   0  0  0  0  0  0  0  0  0  0  0  0
    8.4603   -0.3209   24.6565 H   0  0  0  0  0  0  0  0  0  0  0  0
    7.3771    2.4857   24.8156 H   0  0  0  0  0  0  0  0  0  0  0  0
    8.9704    3.1877   25.1190 H   0  0  0  0  0  0  0  0  0  0  0  0
    9.0154    3.9579   22.6921 H   0  0  0  0  0  0  0  0  0  0  0  0
    7.8075    4.7554   23.7066 H   0  0  0  0  0  0  0  0  0  0  0  0
    6.1704    3.1158   22.8570 H   0  0  0  0  0  0  0  0  0  0  0  0
    7.3419    2.5193   21.8112 H   0  0  0  0  0  0  0  0  0  0  0  0
    6.4865    5.3496   21.7972 H   0  0  0  0  0  0  0  0  0  0  0  0
    5.7129    4.0675   20.8289 H   0  0  0  0  0  0  0  0  0  0  0  0
    7.4250    4.4786   20.5786 H   0  0  0  0  0  0  0  0  0  0  0  0
  1  2  1  0
  2  3  1  0
  3  4  1  0
  4  5  1  0
  5  6  1  0
  7  6  1  1
  7  8  1  0
  8  9  2  0
  8 10  1  0
 10 11  1  0
 11 12  2  0
 12 13  1  0
 13 14  2  0
 14 15  1  0
 15 16  2  0
 16 17  1  0
 17 18  2  0
 18 19  1  0
 19 20  2  0
 19 21  1  0
 18 22  1  0
 17 23  1  0
 16 24  1  0
 14 25  1  0
 12 26  1  0
 10 27  1  0
 27 28  1  0
 28 29  1  0
 29 30  1  0
 30 31  1  0
 31 32  2  0
 32 33  1  0
 33 34  2  0
 34 35  1  0
 35 36  2  0
 35 37  1  0
 33 38  1  0
 30 39  1  0
 29 40  1  0
 29 41  1  0
 28 42  1  6
 27 43  1  0
 27 44  1  0
  7 45  1  0
 45 46  2  0
 46 47  1  0
 47 48  1  0
 47 49  2  0
 49 50  1  0
 50 51  2  0
 51 52  1  0
 52 53  2  0
 50 54  1  0
 49 55  1  0
 46 56  1  0
  6 57  1  0
  6 58  1  0
  4 59  1  0
  4 60  1  0
  3 61  1  0
  3 62  1  0
  2 63  1  0
  2 64  1  0
  1 65  1  0
  1 66  1  0
  1 67  1  0
 52  5  1  0
 28  7  1  0
 36 31  1  0
 51 45  1  0
 20 11  1  0
 20 15  1  0
M  CHG  1   2   1
M  END
>  <cnnaffinities>  (30) 
[6.27276, 6.2714]

>  <score>  (30) 
6.27276

>  <index>  (30) 
29

>  <Smiles>  (30) 
C([N+](C(C(N1C([C@@]2(C(=O)N(c3c(nc(c4c(c(c(c(c34)[H])[H])[H])[H])[H])[H])C([C@@]2(C(N(c2nc(nc(n2)[H])[H])[H])([H])[H])[H])([H])[H])c2c(c(Cl)c(c(c2C1=O)[H])[H])[H])([H])[H])([H])[H])([H])[H])([H])[H])([H])([H])[H]

>  <h>  (30) 
<NA>

>  <Training>  (30) 
True

>  <Success>  (30) 
True

>  <enamine_searched>  (30) 
False

>  <enamine_id>  (30) 
nan

$$$$

     RDKit          3D

 66 71  0  0  0  0  0  0  0  0999 V2000
    6.0530    1.0504   28.9965 C   0  0  0  0  0  0  0  0  0  0  0  0
    6.3300    1.6143   27.6887 N   0  0  0  0  0  0  0  0  0  0  0  0
    5.9264    0.9538   26.5805 C   0  0  0  0  0  0  0  0  0  0  0  0
    5.2432   -0.0624   26.6230 O   0  0  0  0  0  0  0  0  0  0  0  0
    6.3481    1.5638   25.2424 C   0  0  0  0  0  0  0  0  0  0  0  0
    7.5249    0.9551   24.6691 N   0  0  0  0  0  0  0  0  0  0  0  0
    7.4219   -0.3552   24.0530 C   0  0  0  0  0  0  0  0  0  0  0  0
    8.2846   -0.4564   22.7654 C   0  0  2  0  0  0  0  0  0  0  0  0
    7.6467    0.4240   21.6642 C   0  0  0  0  0  0  0  0  0  0  0  0
    7.7347    1.6261   21.5349 O   0  0  0  0  0  0  0  0  0  0  0  0
    6.9284   -0.3981   20.8271 N   0  0  0  0  0  0  0  0  0  0  0  0
    6.1432    0.1055   19.7676 C   0  0  0  0  0  0  0  0  0  0  0  0
    6.4474   -0.2245   18.4700 C   0  0  0  0  0  0  0  0  0  0  0  0
    5.7735    0.2206   17.3816 N   0  0  0  0  0  0  0  0  0  0  0  0
    4.7489    1.0128   17.5961 C   0  0  0  0  0  0  0  0  0  0  0  0
    4.2979    1.4063   18.8889 C   0  0  0  0  0  0  0  0  0  0  0  0
    3.1676    2.2525   19.0606 C   0  0  0  0  0  0  0  0  0  0  0  0
    2.7403    2.5996   20.3123 C   0  0  0  0  0  0  0  0  0  0  0  0
    3.4141    2.1049   21.4514 C   0  0  0  0  0  0  0  0  0  0  0  0
    4.5078    1.2892   21.3102 C   0  0  0  0  0  0  0  0  0  0  0  0
    4.9988    0.9334   20.0187 C   0  0  0  0  0  0  0  0  0  0  0  0
    5.0193    0.9177   22.1935 H   0  0  0  0  0  0  0  0  0  0  0  0
    3.0712    2.3898   22.4412 H   0  0  0  0  0  0  0  0  0  0  0  0
    1.8924    3.2669   20.4341 H   0  0  0  0  0  0  0  0  0  0  0  0
    2.6695    2.6327   18.1726 H   0  0  0  0  0  0  0  0  0  0  0  0
    4.2210    1.3815   16.7174 H   0  0  0  0  0  0  0  0  0  0  0  0
    7.2939   -0.8780   18.2629 H   0  0  0  0  0  0  0  0  0  0  0  0
    6.9864   -1.7989   21.1924 C   0  0  0  0  0  0  0  0  0  0  0  0
    8.2095   -1.8762   22.1187 C   0  0  2  0  0  0  0  0  0  0  0  0
    8.1965   -3.1016   23.0581 C   0  0  0  0  0  0  0  0  0  0  0  0
    9.4432   -3.2192   23.9140 C   0  0  0  0  0  0  0  0  0  0  0  0
   10.6734   -3.3229   23.2682 C   0  0  0  0  0  0  0  0  0  0  0  0
   11.8582   -3.4297   23.9853 C   0  0  0  0  0  0  0  0  0  0  0  0
   11.8396   -3.4141   25.3786 C   0  0  0  0  0  0  0  0  0  0  0  0
   10.6219   -3.2812   26.0396 C   0  0  0  0  0  0  0  0  0  0  0  0
    9.4337   -3.1906   25.3123 C   0  0  0  0  0  0  0  0  0  0  0  0
    8.4905   -3.0616   25.8472 H   0  0  0  0  0  0  0  0  0  0  0  0
   10.5902   -3.2248   27.1276 H   0  0  0  0  0  0  0  0  0  0  0  0
   12.7699   -3.5007   25.9384 H   0  0  0  0  0  0  0  0  0  0  0  0
   12.7994   -3.5195   23.4445 H   0  0  0  0  0  0  0  0  0  0  0  0
   10.6876   -3.2684   22.1800 H   0  0  0  0  0  0  0  0  0  0  0  0
    7.3068   -3.0651   23.6961 H   0  0  0  0  0  0  0  0  0  0  0  0
    8.0938   -4.0034   22.4376 H   0  0  0  0  0  0  0  0  0  0  0  0
    9.0945   -1.9470   21.4822 H   0  0  0  0  0  0  0  0  0  0  0  0
    6.0721   -2.1122   21.7178 H   0  0  0  0  0  0  0  0  0  0  0  0
    7.0724   -2.4033   20.2896 H   0  0  0  0  0  0  0  0  0  0  0  0
    9.6750    0.0436   23.1130 C   0  0  0  0  0  0  0  0  0  0  0  0
   10.7721   -0.2733   22.3021 C   0  0  0  0  0  0  0  0  0  0  0  0
   12.0364    0.1538   22.6660 C   0  0  0  0  0  0  0  0  0  0  0  0
   13.4148   -0.3775   21.7423 Cl  0  0  0  0  0  0  0  0  0  0  0  0
   12.2416    0.9714   23.7776 C   0  0  0  0  0  0  0  0  0  0  0  0
   11.1531    1.3496   24.5348 C   0  0  0  0  0  0  0  0  0  0  0  0
    9.8815    0.9111   24.1954 C   0  0  0  0  0  0  0  0  0  0  0  0
    8.7424    1.4601   24.9972 C   0  0  0  0  0  0  0  0  0  0  0  0
    8.8882    2.3209   25.8649 O   0  0  0  0  0  0  0  0  0  0  0  0
   11.1908    2.0014   25.3992 H   0  0  0  0  0  0  0  0  0  0  0  0
   13.2419    1.3032   24.0125 H   0  0  0  0  0  0  0  0  0  0  0  0
   10.6655   -0.8700   21.4006 H   0  0  0  0  0  0  0  0  0  0  0  0
    6.3661   -0.5369   23.8245 H   0  0  0  0  0  0  0  0  0  0  0  0
    7.7689   -1.1071   24.7736 H   0  0  0  0  0  0  0  0  0  0  0  0
    6.5465    2.6350   25.3197 H   0  0  0  0  0  0  0  0  0  0  0  0
    5.5186    1.3916   24.5506 H   0  0  0  0  0  0  0  0  0  0  0  0
    6.9724    2.3864   27.5813 H   0  0  0  0  0  0  0  0  0  0  0  0
    6.4969    1.6988   29.7565 H   0  0  0  0  0  0  0  0  0  0  0  0
    4.9713    0.9680   29.1664 H   0  0  0  0  0  0  0  0  0  0  0  0
    6.4708    0.0383   29.0839 H   0  0  0  0  0  0  0  0  0  0  0  0
  1  2  1  0
  2  3  1  0
  3  4  2  0
  3  5  1  0
  5  6  1  0
  6  7  1  0
  8  7  1  1
  8  9  1  0
  9 10  2  0
  9 11  1  0
 11 12  1  0
 12 13  2  0
 13 14  1  0
 14 15  2  0
 15 16  1  0
 16 17  2  0
 17 18  1  0
 18 19  2  0
 19 20  1  0
 20 21  2  0
 20 22  1  0
 19 23  1  0
 18 24  1  0
 17 25  1  0
 15 26  1  0
 13 27  1  0
 11 28  1  0
 28 29  1  0
 29 30  1  0
 30 31  1  0
 31 32  2  0
 32 33  1  0
 33 34  2  0
 34 35  1  0
 35 36  2  0
 36 37  1  0
 35 38  1  0
 34 39  1  0
 33 40  1  0
 32 41  1  0
 30 42  1  0
 30 43  1  0
 29 44  1  6
 28 45  1  0
 28 46  1  0
  8 47  1  0
 47 48  2  0
 48 49  1  0
 49 50  1  0
 49 51  2  0
 51 52  1  0
 52 53  2  0
 53 54  1  0
 54 55  2  0
 52 56  1  0
 51 57  1  0
 48 58  1  0
  7 59  1  0
  7 60  1  0
  5 61  1  0
  5 62  1  0
  2 63  1  0
  1 64  1  0
  1 65  1  0
  1 66  1  0
 54  6  1  0
 29  8  1  0
 36 31  1  0
 53 47  1  0
 21 12  1  0
 21 16  1  0
M  END
>  <cnnaffinities>  (31) 
[6.72291, 6.76592, 6.8249]

>  <score>  (31) 
6.72291

>  <index>  (31) 
30

>  <Smiles>  (31) 
C(N(C(=O)C(N1C([C@@]2(C(=O)N(c3c(nc(c4c(c(c(c(c34)[H])[H])[H])[H])[H])[H])C([C@@]2(C(c2c(c(c(c(c2[H])[H])[H])[H])[H])([H])[H])[H])([H])[H])c2c(c(Cl)c(c(c2C1=O)[H])[H])[H])([H])[H])([H])[H])[H])([H])([H])[H]

>  <h>  (31) 
<NA>

>  <Training>  (31) 
True

>  <Success>  (31) 
True

>  <enamine_searched>  (31) 
False

>  <enamine_id>  (31) 
nan

$$$$

     RDKit          3D

 64 70  0  0  0  0  0  0  0  0999 V2000
   10.4430    2.6754   24.6371 O   0  0  0  0  0  0  0  0  0  0  0  0
    9.8751    1.7202   24.1271 C   0  0  0  0  0  0  0  0  0  0  0  0
   10.6182    0.6279   23.4335 C   0  0  0  0  0  0  0  0  0  0  0  0
   12.0085    0.6980   23.4804 C   0  0  0  0  0  0  0  0  0  0  0  0
   12.7680   -0.2072   22.7700 C   0  0  0  0  0  0  0  0  0  0  0  0
   12.1104   -1.1573   21.9867 C   0  0  0  0  0  0  0  0  0  0  0  0
   13.0654   -2.2238   20.9932 Cl  0  0  0  0  0  0  0  0  0  0  0  0
   10.7289   -1.2504   21.9487 C   0  0  0  0  0  0  0  0  0  0  0  0
    9.9491   -0.3734   22.7115 C   0  0  0  0  0  0  0  0  0  0  0  0
    8.4304   -0.4210   22.6476 C   0  0  1  0  0  0  0  0  0  0  0  0
    7.8893    0.2890   23.9098 C   0  0  0  0  0  0  0  0  0  0  0  0
    8.5139    1.5828   24.1084 N   0  0  0  0  0  0  0  0  0  0  0  0
    7.7156    2.7553   24.3804 C   0  0  0  0  0  0  0  0  0  0  0  0
    7.5121    3.6392   23.1826 C   0  0  0  0  0  0  0  0  0  0  0  0
    8.1514    4.7076   22.8517 N   0  0  0  0  0  0  0  0  0  0  0  0
    7.5110    5.2238   21.7315 N   0  0  0  0  0  0  0  0  0  0  0  0
    6.5453    4.4173   21.4725 C   0  0  0  0  0  0  0  0  0  0  0  0
    6.4812    3.3796   22.3456 O   0  0  0  0  0  0  0  0  0  0  0  0
    5.7817    4.5080   20.7090 H   0  0  0  0  0  0  0  0  0  0  0  0
    8.2424    3.3364   25.1408 H   0  0  0  0  0  0  0  0  0  0  0  0
    6.7486    2.4194   24.7649 H   0  0  0  0  0  0  0  0  0  0  0  0
    8.0766   -0.3587   24.7763 H   0  0  0  0  0  0  0  0  0  0  0  0
    6.8080    0.4447   23.8151 H   0  0  0  0  0  0  0  0  0  0  0  0
    7.9303    0.3187   21.3789 C   0  0  0  0  0  0  0  0  0  0  0  0
    8.3319    1.3651   20.9211 O   0  0  0  0  0  0  0  0  0  0  0  0
    6.9061   -0.4194   20.8301 N   0  0  0  0  0  0  0  0  0  0  0  0
    6.1248    0.0889   19.7620 C   0  0  0  0  0  0  0  0  0  0  0  0
    6.4584   -0.2210   18.4704 C   0  0  0  0  0  0  0  0  0  0  0  0
    5.7859    0.2250   17.3789 N   0  0  0  0  0  0  0  0  0  0  0  0
    4.7582    1.0109   17.5914 C   0  0  0  0  0  0  0  0  0  0  0  0
    4.3037    1.4094   18.8818 C   0  0  0  0  0  0  0  0  0  0  0  0
    3.1830    2.2624   19.0620 C   0  0  0  0  0  0  0  0  0  0  0  0
    2.7690    2.6148   20.3151 C   0  0  0  0  0  0  0  0  0  0  0  0
    3.4471    2.1254   21.4540 C   0  0  0  0  0  0  0  0  0  0  0  0
    4.5358    1.2986   21.3094 C   0  0  0  0  0  0  0  0  0  0  0  0
    4.9950    0.9258   20.0144 C   0  0  0  0  0  0  0  0  0  0  0  0
    5.0657    0.9578   22.1951 H   0  0  0  0  0  0  0  0  0  0  0  0
    3.1154    2.4223   22.4452 H   0  0  0  0  0  0  0  0  0  0  0  0
    1.9226    3.2854   20.4433 H   0  0  0  0  0  0  0  0  0  0  0  0
    2.6762    2.6382   18.1771 H   0  0  0  0  0  0  0  0  0  0  0  0
    4.2139    1.3720   16.7174 H   0  0  0  0  0  0  0  0  0  0  0  0
    7.3220   -0.8563   18.2782 H   0  0  0  0  0  0  0  0  0  0  0  0
    6.5585   -1.6073   21.5732 C   0  0  0  0  0  0  0  0  0  0  0  0
    7.7857   -1.8353   22.4725 C   0  0  2  0  0  0  0  0  0  0  0  0
    7.4340   -2.6283   23.7524 C   0  0  0  0  0  0  0  0  0  0  0  0
    7.0410   -4.0034   23.5129 N   0  0  0  0  0  0  0  0  0  0  0  0
    5.8118   -4.4602   23.1614 C   0  0  0  0  0  0  0  0  0  0  0  0
    4.6103   -3.8055   23.4770 C   0  0  0  0  0  0  0  0  0  0  0  0
    3.4565   -4.4431   23.0663 C   0  0  0  0  0  0  0  0  0  0  0  0
    3.4349   -5.5837   22.3692 N   0  0  0  0  0  0  0  0  0  0  0  0
    4.6311   -6.1086   22.1355 C   0  0  0  0  0  0  0  0  0  0  0  0
    5.8084   -5.6370   22.5125 N   0  0  0  0  0  0  0  0  0  0  0  0
    4.6796   -7.0361   21.5666 H   0  0  0  0  0  0  0  0  0  0  0  0
    2.4810   -4.0266   23.2995 H   0  0  0  0  0  0  0  0  0  0  0  0
    4.5961   -2.8571   24.0099 H   0  0  0  0  0  0  0  0  0  0  0  0
    7.7722   -4.6661   23.3047 H   0  0  0  0  0  0  0  0  0  0  0  0
    6.6177   -2.1220   24.2742 H   0  0  0  0  0  0  0  0  0  0  0  0
    8.2870   -2.6443   24.4427 H   0  0  0  0  0  0  0  0  0  0  0  0
    8.5023   -2.4340   21.9082 H   0  0  0  0  0  0  0  0  0  0  0  0
    6.3628   -2.4355   20.8859 H   0  0  0  0  0  0  0  0  0  0  0  0
    5.6470   -1.4460   22.1720 H   0  0  0  0  0  0  0  0  0  0  0  0
   10.2688   -1.9957   21.3074 H   0  0  0  0  0  0  0  0  0  0  0  0
   13.8518   -0.1797   22.7867 H   0  0  0  0  0  0  0  0  0  0  0  0
   12.4560    1.4966   24.0649 H   0  0  0  0  0  0  0  0  0  0  0  0
  1  2  2  0
  2  3  1  0
  3  4  2  0
  4  5  1  0
  5  6  2  0
  6  7  1  0
  6  8  1  0
  8  9  2  0
  9 10  1  0
 10 11  1  1
 11 12  1  0
 12 13  1  0
 13 14  1  0
 14 15  2  0
 15 16  1  0
 16 17  2  0
 17 18  1  0
 17 19  1  0
 13 20  1  0
 13 21  1  0
 11 22  1  0
 11 23  1  0
 10 24  1  0
 24 25  2  0
 24 26  1  0
 26 27  1  0
 27 28  2  0
 28 29  1  0
 29 30  2  0
 30 31  1  0
 31 32  2  0
 32 33  1  0
 33 34  2  0
 34 35  1  0
 35 36  2  0
 35 37  1  0
 34 38  1  0
 33 39  1  0
 32 40  1  0
 30 41  1  0
 28 42  1  0
 26 43  1  0
 43 44  1  0
 44 45  1  0
 45 46  1  0
 46 47  1  0
 47 48  2  0
 48 49  1  0
 49 50  2  0
 50 51  1  0
 51 52  2  0
 51 53  1  0
 49 54  1  0
 48 55  1  0
 46 56  1  0
 45 57  1  0
 45 58  1  0
 44 59  1  6
 43 60  1  0
 43 61  1  0
  8 62  1  0
  5 63  1  0
  4 64  1  0
 12  2  1  0
 18 14  1  0
 36 27  1  0
 52 47  1  0
  9  3  1  0
 44 10  1  0
 36 31  1  0
M  END
>  <cnnaffinities>  (32) 
[7.06745]

>  <score>  (32) 
7.06745

>  <index>  (32) 
31

>  <Smiles>  (32) 
O=C1c2c(c(c(Cl)c(c2[C@@]2(C(N1C(c1nnc(o1)[H])([H])[H])([H])[H])C(=O)N(c1c(nc(c3c(c(c(c(c13)[H])[H])[H])[H])[H])[H])C([C@@]2(C(N(c1c(c(nc(n1)[H])[H])[H])[H])([H])[H])[H])([H])[H])[H])[H])[H]

>  <h>  (32) 
<NA>

>  <Training>  (32) 
True

>  <Success>  (32) 
True

>  <enamine_searched>  (32) 
False

>  <enamine_id>  (32) 
nan

$$$$

     RDKit          3D

 72 77  0  0  0  0  0  0  0  0999 V2000
    7.6866   -2.7696   23.5090 C   0  0  0  0  0  0  0  0  0  0  0  0
    7.9010   -1.9868   22.2206 C   0  0  1  0  0  0  0  0  0  0  0  0
    6.5693   -1.5544   21.5915 C   0  0  0  0  0  0  0  0  0  0  0  0
    6.9518   -0.4202   20.7818 N   0  0  0  0  0  0  0  0  0  0  0  0
    6.1637    0.0899   19.7259 C   0  0  0  0  0  0  0  0  0  0  0  0
    6.5123   -0.1835   18.4276 C   0  0  0  0  0  0  0  0  0  0  0  0
    5.8157    0.2459   17.3486 N   0  0  0  0  0  0  0  0  0  0  0  0
    4.7612    0.9926   17.5774 C   0  0  0  0  0  0  0  0  0  0  0  0
    4.2997    1.3595   18.8746 C   0  0  0  0  0  0  0  0  0  0  0  0
    3.1923    2.2272   19.0647 C   0  0  0  0  0  0  0  0  0  0  0  0
    2.8034    2.5998   20.3239 C   0  0  0  0  0  0  0  0  0  0  0  0
    3.4815    2.1031   21.4571 C   0  0  0  0  0  0  0  0  0  0  0  0
    4.5419    1.2359   21.2995 C   0  0  0  0  0  0  0  0  0  0  0  0
    5.0014    0.8697   19.9999 C   0  0  0  0  0  0  0  0  0  0  0  0
    5.0721    0.8817   22.1794 H   0  0  0  0  0  0  0  0  0  0  0  0
    3.1763    2.4224   22.4506 H   0  0  0  0  0  0  0  0  0  0  0  0
    1.9785    3.2959   20.4556 H   0  0  0  0  0  0  0  0  0  0  0  0
    2.6906    2.6156   18.1836 H   0  0  0  0  0  0  0  0  0  0  0  0
    4.2080    1.3579   16.7109 H   0  0  0  0  0  0  0  0  0  0  0  0
    7.3953   -0.7856   18.2230 H   0  0  0  0  0  0  0  0  0  0  0  0
    8.1350    0.1612   21.1612 C   0  0  0  0  0  0  0  0  0  0  0  0
    8.5981    1.1902   20.6937 O   0  0  0  0  0  0  0  0  0  0  0  0
    8.7275   -0.6642   22.3306 C   0  0  1  0  0  0  0  0  0  0  0  0
    8.4318    0.0717   23.6598 C   0  0  0  0  0  0  0  0  0  0  0  0
    9.1643    1.3178   23.7750 N   0  0  0  0  0  0  0  0  0  0  0  0
    8.5497    2.4233   24.4883 C   0  0  0  0  0  0  0  0  0  0  0  0
    7.4306    3.0653   23.6664 C   0  0  0  0  0  0  0  0  0  0  0  0
    7.9892    3.6539   22.3945 N   0  0  1  0  0  4  0  0  0  0  0  0
    7.0395    3.7321   21.2283 C   0  0  0  0  0  0  0  0  0  0  0  0
    6.1727    4.9762   21.2077 C   0  0  0  0  0  0  0  0  0  0  0  0
    6.9612    6.1435   21.2693 O   0  0  0  0  0  0  0  0  0  0  0  0
    7.7149    6.2342   22.4825 C   0  0  0  0  0  0  0  0  0  0  0  0
    8.5537    7.5008   22.3386 C   0  0  0  0  0  0  0  0  0  0  0  0
    9.3553    7.3585   21.6063 H   0  0  0  0  0  0  0  0  0  0  0  0
    8.9936    7.8049   23.2960 H   0  0  0  0  0  0  0  0  0  0  0  0
    7.9166    8.3158   21.9827 H   0  0  0  0  0  0  0  0  0  0  0  0
    6.7773    6.3838   23.6847 C   0  0  0  0  0  0  0  0  0  0  0  0
    6.1213    5.5228   23.8206 H   0  0  0  0  0  0  0  0  0  0  0  0
    6.1359    7.2616   23.5570 H   0  0  0  0  0  0  0  0  0  0  0  0
    7.3602    6.5106   24.6031 H   0  0  0  0  0  0  0  0  0  0  0  0
    8.6538    5.0078   22.6028 C   0  0  0  0  0  0  0  0  0  0  0  0
    9.1207    5.0290   23.5915 H   0  0  0  0  0  0  0  0  0  0  0  0
    9.4521    5.1023   21.8580 H   0  0  0  0  0  0  0  0  0  0  0  0
    5.6143    5.0259   20.2649 H   0  0  0  0  0  0  0  0  0  0  0  0
    5.4325    4.9509   22.0208 H   0  0  0  0  0  0  0  0  0  0  0  0
    7.6523    3.7075   20.3244 H   0  0  0  0  0  0  0  0  0  0  0  0
    6.4236    2.8373   21.2193 H   0  0  0  0  0  0  0  0  0  0  0  0
    8.6982    2.9743   22.0719 H   0  0  0  0  0  0  0  0  0  0  0  0
    6.6640    2.3299   23.3912 H   0  0  0  0  0  0  0  0  0  0  0  0
    6.9366    3.8309   24.2616 H   0  0  0  0  0  0  0  0  0  0  0  0
    8.1791    2.0800   25.4612 H   0  0  0  0  0  0  0  0  0  0  0  0
    9.3564    3.1348   24.6718 H   0  0  0  0  0  0  0  0  0  0  0  0
   10.5180    1.3367   23.5830 C   0  0  0  0  0  0  0  0  0  0  0  0
   11.2268    2.2691   23.9391 O   0  0  0  0  0  0  0  0  0  0  0  0
   11.0763    0.1585   22.8342 C   0  0  0  0  0  0  0  0  0  0  0  0
   12.4625    0.0807   22.6980 C   0  0  0  0  0  0  0  0  0  0  0  0
   13.0319   -0.8182   21.8204 C   0  0  0  0  0  0  0  0  0  0  0  0
   12.1907   -1.6831   21.1247 C   0  0  0  0  0  0  0  0  0  0  0  0
   12.9202   -2.7093   19.9330 Cl  0  0  0  0  0  0  0  0  0  0  0  0
   10.8247   -1.7106   21.3438 C   0  0  0  0  0  0  0  0  0  0  0  0
   10.2352   -0.7780   22.2062 C   0  0  0  0  0  0  0  0  0  0  0  0
   10.2268   -2.4537   20.8278 H   0  0  0  0  0  0  0  0  0  0  0  0
   14.1038   -0.8522   21.6474 H   0  0  0  0  0  0  0  0  0  0  0  0
   13.0824    0.7610   23.2702 H   0  0  0  0  0  0  0  0  0  0  0  0
    8.7068   -0.5853   24.4927 H   0  0  0  0  0  0  0  0  0  0  0  0
    7.3593    0.2621   23.7364 H   0  0  0  0  0  0  0  0  0  0  0  0
    5.8497   -1.2712   22.3760 H   0  0  0  0  0  0  0  0  0  0  0  0
    6.1067   -2.3367   20.9804 H   0  0  0  0  0  0  0  0  0  0  0  0
    8.3926   -2.6330   21.4877 H   0  0  0  0  0  0  0  0  0  0  0  0
    7.1072   -3.6784   23.3180 H   0  0  0  0  0  0  0  0  0  0  0  0
    7.1121   -2.1692   24.2229 H   0  0  0  0  0  0  0  0  0  0  0  0
    8.6319   -3.0538   23.9818 H   0  0  0  0  0  0  0  0  0  0  0  0
  1  2  1  0
  2  3  1  0
  3  4  1  0
  4  5  1  0
  5  6  2  0
  6  7  1  0
  7  8  2  0
  8  9  1  0
  9 10  2  0
 10 11  1  0
 11 12  2  0
 12 13  1  0
 13 14  2  0
 13 15  1  0
 12 16  1  0
 11 17  1  0
 10 18  1  0
  8 19  1  0
  6 20  1  0
  4 21  1  0
 21 22  2  0
 21 23  1  0
 23 24  1  1
 24 25  1  0
 25 26  1  0
 26 27  1  0
 27 28  1  0
 28 29  1  0
 29 30  1  0
 30 31  1  0
 31 32  1  0
 32 33  1  0
 33 34  1  0
 33 35  1  0
 33 36  1  0
 32 37  1  0
 37 38  1  0
 37 39  1  0
 37 40  1  0
 32 41  1  0
 41 42  1  0
 41 43  1  0
 30 44  1  0
 30 45  1  0
 29 46  1  0
 29 47  1  0
 28 48  1  6
 27 49  1  0
 27 50  1  0
 26 51  1  0
 26 52  1  0
 25 53  1  0
 53 54  2  0
 53 55  1  0
 55 56  2  0
 56 57  1  0
 57 58  2  0
 58 59  1  0
 58 60  1  0
 60 61  2  0
 60 62  1  0
 57 63  1  0
 56 64  1  0
 24 65  1  0
 24 66  1  0
  3 67  1  0
  3 68  1  0
  2 69  1  6
  1 70  1  0
  1 71  1  0
  1 72  1  0
 23  2  1  0
 41 28  1  0
 61 55  1  0
 14  5  1  0
 61 23  1  0
 14  9  1  0
M  CHG  1  28   1
M  END
>  <cnnaffinities>  (33) 
[6.79733]

>  <score>  (33) 
6.79733

>  <index>  (33) 
32

>  <Smiles>  (33) 
C([C@]1(C(N(c2c(nc(c3c(c(c(c(c23)[H])[H])[H])[H])[H])[H])C(=O)[C@]21C(N(C(C([N@+]1(C(C(OC(C([H])([H])[H])(C([H])([H])[H])C1([H])[H])([H])[H])([H])[H])[H])([H])[H])([H])[H])C(=O)c1c(c(c(Cl)c(c21)[H])[H])[H])([H])[H])([H])[H])[H])([H])([H])[H]

>  <h>  (33) 
<NA>

>  <Training>  (33) 
True

>  <Success>  (33) 
True

>  <enamine_searched>  (33) 
False

>  <enamine_id>  (33) 
nan

$$$$

     RDKit          3D

 44 47  0  0  0  0  0  0  0  0999 V2000
    8.5170    1.3893   20.7359 O   0  0  0  0  0  0  0  0  0  0  0  0
    7.8662    0.6918   21.5025 C   0  0  0  0  0  0  0  0  0  0  0  0
    6.9515   -0.4139   20.9248 C   0  0  0  0  0  0  0  0  0  0  0  0
    6.1120    0.0889   19.7687 C   0  0  0  0  0  0  0  0  0  0  0  0
    6.4280   -0.2068   18.4674 C   0  0  0  0  0  0  0  0  0  0  0  0
    5.7613    0.2406   17.3644 N   0  0  0  0  0  0  0  0  0  0  0  0
    4.7350    1.0266   17.5774 C   0  0  0  0  0  0  0  0  0  0  0  0
    4.2844    1.4195   18.8669 C   0  0  0  0  0  0  0  0  0  0  0  0
    3.1677    2.2744   19.0489 C   0  0  0  0  0  0  0  0  0  0  0  0
    2.7626    2.6485   20.2993 C   0  0  0  0  0  0  0  0  0  0  0  0
    3.4655    2.1679   21.4310 C   0  0  0  0  0  0  0  0  0  0  0  0
    4.5443    1.3338   21.2899 C   0  0  0  0  0  0  0  0  0  0  0  0
    4.9897    0.9379   20.0015 C   0  0  0  0  0  0  0  0  0  0  0  0
    5.0711    0.9833   22.1776 H   0  0  0  0  0  0  0  0  0  0  0  0
    3.1344    2.4718   22.4192 H   0  0  0  0  0  0  0  0  0  0  0  0
    1.9144    3.3158   20.4311 H   0  0  0  0  0  0  0  0  0  0  0  0
    2.6541    2.6527   18.1660 H   0  0  0  0  0  0  0  0  0  0  0  0
    4.2004    1.3975   16.6983 H   0  0  0  0  0  0  0  0  0  0  0  0
    7.2748   -0.8550   18.2445 H   0  0  0  0  0  0  0  0  0  0  0  0
    7.6146   -1.1971   20.5374 H   0  0  0  0  0  0  0  0  0  0  0  0
    6.3223   -0.8898   21.6865 H   0  0  0  0  0  0  0  0  0  0  0  0
    7.9419    0.8589   22.8615 N   0  0  0  0  0  0  0  0  0  0  0  0
    7.4849   -0.0759   23.8813 C   0  0  0  0  0  0  0  0  0  0  0  0
    7.8299    0.5800   25.2246 C   0  0  0  0  0  0  0  0  0  0  0  0
    8.7635    1.7536   24.9051 C   0  0  0  0  0  0  0  0  0  0  0  0
    8.5929    2.0503   23.4074 C   0  0  2  0  0  0  0  0  0  0  0  0
    7.7990    3.3157   23.1417 C   0  0  0  0  0  0  0  0  0  0  0  0
    8.3960    4.4132   22.5247 C   0  0  0  0  0  0  0  0  0  0  0  0
    7.6646    5.5689   22.2702 C   0  0  0  0  0  0  0  0  0  0  0  0
    6.3281    5.6585   22.6334 C   0  0  0  0  0  0  0  0  0  0  0  0
    5.7667    4.5614   23.2649 C   0  0  0  0  0  0  0  0  0  0  0  0
    4.4686    4.6176   23.6156 F   0  0  0  0  0  0  0  0  0  0  0  0
    6.4669    3.3987   23.5347 C   0  0  0  0  0  0  0  0  0  0  0  0
    5.9553    2.5759   24.0302 H   0  0  0  0  0  0  0  0  0  0  0  0
    5.7337    6.5451   22.4340 H   0  0  0  0  0  0  0  0  0  0  0  0
    8.1389    6.4022   21.7677 H   0  0  0  0  0  0  0  0  0  0  0  0
    9.4402    4.3574   22.2276 H   0  0  0  0  0  0  0  0  0  0  0  0
    9.5678    2.1695   22.9357 H   0  0  0  0  0  0  0  0  0  0  0  0
    8.5348    2.6290   25.5171 H   0  0  0  0  0  0  0  0  0  0  0  0
    9.8014    1.5011   25.1369 H   0  0  0  0  0  0  0  0  0  0  0  0
    8.3007   -0.1282   25.9067 H   0  0  0  0  0  0  0  0  0  0  0  0
    6.9277    0.9271   25.7328 H   0  0  0  0  0  0  0  0  0  0  0  0
    7.9972   -1.0338   23.7589 H   0  0  0  0  0  0  0  0  0  0  0  0
    6.4092   -0.2700   23.8094 H   0  0  0  0  0  0  0  0  0  0  0  0
  1  2  2  0
  2  3  1  0
  3  4  1  0
  4  5  2  0
  5  6  1  0
  6  7  2  0
  7  8  1  0
  8  9  2  0
  9 10  1  0
 10 11  2  0
 11 12  1  0
 12 13  2  0
 12 14  1  0
 11 15  1  0
 10 16  1  0
  9 17  1  0
  7 18  1  0
  5 19  1  0
  3 20  1  0
  3 21  1  0
  2 22  1  0
 22 23  1  0
 23 24  1  0
 24 25  1  0
 25 26  1  0
 26 27  1  0
 27 28  2  0
 28 29  1  0
 29 30  2  0
 30 31  1  0
 31 32  1  0
 31 33  2  0
 33 34  1  0
 30 35  1  0
 29 36  1  0
 28 37  1  0
 26 38  1  6
 25 39  1  0
 25 40  1  0
 24 41  1  0
 24 42  1  0
 23 43  1  0
 23 44  1  0
 13  4  1  0
 26 22  1  0
 33 27  1  0
 13  8  1  0
M  END
>  <cnnaffinities>  (34) 
[5.20793, 5.71287]

>  <score>  (34) 
5.20793

>  <index>  (34) 
33

>  <Smiles>  (34) 
O=C(C(c1c(nc(c2c(c(c(c(c12)[H])[H])[H])[H])[H])[H])([H])[H])N1C(C(C([C@@]1(c1c(c(c(c(F)c1[H])[H])[H])[H])[H])([H])[H])([H])[H])([H])[H]

>  <h>  (34) 
<NA>

>  <Training>  (34) 
True

>  <Success>  (34) 
True

>  <enamine_searched>  (34) 
False

>  <enamine_id>  (34) 
nan

$$$$

     RDKit          3D

 58 63  0  0  0  0  0  0  0  0999 V2000
    6.6996   -2.3077   23.6201 C   0  0  0  0  0  0  0  0  0  0  0  0
    7.7076   -1.8391   22.5536 C   0  0  1  0  0  0  0  0  0  0  0  0
    7.0349   -1.7951   21.1607 C   0  0  0  0  0  0  0  0  0  0  0  0
    6.8782   -0.3892   20.8714 N   0  0  0  0  0  0  0  0  0  0  0  0
    6.1293    0.1068   19.7754 C   0  0  0  0  0  0  0  0  0  0  0  0
    6.4450   -0.2279   18.4828 C   0  0  0  0  0  0  0  0  0  0  0  0
    5.7740    0.2190   17.3909 N   0  0  0  0  0  0  0  0  0  0  0  0
    4.7515    1.0158   17.5962 C   0  0  0  0  0  0  0  0  0  0  0  0
    4.2950    1.4198   18.8816 C   0  0  0  0  0  0  0  0  0  0  0  0
    3.1616    2.2594   19.0620 C   0  0  0  0  0  0  0  0  0  0  0  0
    2.7345    2.6026   20.3151 C   0  0  0  0  0  0  0  0  0  0  0  0
    3.4169    2.1150   21.4531 C   0  0  0  0  0  0  0  0  0  0  0  0
    4.5150    1.3076   21.3044 C   0  0  0  0  0  0  0  0  0  0  0  0
    4.9985    0.9503   20.0150 C   0  0  0  0  0  0  0  0  0  0  0  0
    5.0214    0.9237   22.1838 H   0  0  0  0  0  0  0  0  0  0  0  0
    3.0806    2.3939   22.4488 H   0  0  0  0  0  0  0  0  0  0  0  0
    1.8763    3.2564   20.4412 H   0  0  0  0  0  0  0  0  0  0  0  0
    2.6560    2.6353   18.1773 H   0  0  0  0  0  0  0  0  0  0  0  0
    4.2257    1.3798   16.7135 H   0  0  0  0  0  0  0  0  0  0  0  0
    7.2913   -0.8778   18.2629 H   0  0  0  0  0  0  0  0  0  0  0  0
    7.6845    0.4310   21.6287 C   0  0  0  0  0  0  0  0  0  0  0  0
    7.8673    1.6031   21.3980 O   0  0  0  0  0  0  0  0  0  0  0  0
    8.3386   -0.4177   22.7565 C   0  0  1  0  0  0  0  0  0  0  0  0
    8.0385    0.1647   24.1605 C   0  0  0  0  0  0  0  0  0  0  0  0
    8.7089    1.4272   24.4007 N   0  0  0  0  0  0  0  0  0  0  0  0
    7.9599    2.5635   24.9400 C   0  0  0  0  0  0  0  0  0  0  0  0
    7.5787    3.5947   23.9064 C   0  0  0  0  0  0  0  0  0  0  0  0
    8.3683    4.6239   23.3793 C   0  0  0  0  0  0  0  0  0  0  0  0
    7.6916    5.2374   22.4151 N   0  0  0  0  0  0  0  0  0  0  0  0
    6.5382    4.6037   22.3898 N   0  0  0  0  0  0  0  0  0  0  0  0
    5.5346    4.8799   21.3764 C   0  0  0  0  0  0  0  0  0  0  0  0
    4.5612    4.8481   21.8699 H   0  0  0  0  0  0  0  0  0  0  0  0
    5.7449    5.8785   20.9796 H   0  0  0  0  0  0  0  0  0  0  0  0
    5.5615    4.1185   20.5831 H   0  0  0  0  0  0  0  0  0  0  0  0
    6.3981    3.6257   23.2773 N   0  0  0  0  0  0  0  0  0  0  0  0
    9.3702    4.9277   23.6546 H   0  0  0  0  0  0  0  0  0  0  0  0
    8.5891    3.0310   25.7025 H   0  0  0  0  0  0  0  0  0  0  0  0
    7.0526    2.1781   25.4171 H   0  0  0  0  0  0  0  0  0  0  0  0
   10.0400    1.5922   24.1346 C   0  0  0  0  0  0  0  0  0  0  0  0
   10.6857    2.5292   24.5904 O   0  0  0  0  0  0  0  0  0  0  0  0
   10.6442    0.5697   23.2132 C   0  0  0  0  0  0  0  0  0  0  0  0
   12.0171    0.6364   22.9722 C   0  0  0  0  0  0  0  0  0  0  0  0
   12.6177   -0.2276   22.0786 C   0  0  0  0  0  0  0  0  0  0  0  0
   11.8173   -1.1461   21.4117 C   0  0  0  0  0  0  0  0  0  0  0  0
   12.3940   -1.9387   20.4927 F   0  0  0  0  0  0  0  0  0  0  0  0
   10.4541   -1.2219   21.6112 C   0  0  0  0  0  0  0  0  0  0  0  0
    9.8515   -0.3833   22.5582 C   0  0  0  0  0  0  0  0  0  0  0  0
    9.8832   -1.8950   20.9795 H   0  0  0  0  0  0  0  0  0  0  0  0
   13.6733   -0.1819   21.8409 H   0  0  0  0  0  0  0  0  0  0  0  0
   12.5859    1.3956   23.4971 H   0  0  0  0  0  0  0  0  0  0  0  0
    8.3386   -0.5814   24.9148 H   0  0  0  0  0  0  0  0  0  0  0  0
    6.9680    0.3567   24.2476 H   0  0  0  0  0  0  0  0  0  0  0  0
    6.0549   -2.2881   21.1540 H   0  0  0  0  0  0  0  0  0  0  0  0
    7.6656   -2.2727   20.4073 H   0  0  0  0  0  0  0  0  0  0  0  0
    8.5190   -2.5758   22.5534 H   0  0  0  0  0  0  0  0  0  0  0  0
    5.8366   -1.6347   23.6918 H   0  0  0  0  0  0  0  0  0  0  0  0
    6.3211   -3.3047   23.3623 H   0  0  0  0  0  0  0  0  0  0  0  0
    7.1573   -2.3827   24.6113 H   0  0  0  0  0  0  0  0  0  0  0  0
  1  2  1  0
  2  3  1  0
  3  4  1  0
  4  5  1  0
  5  6  2  0
  6  7  1  0
  7  8  2  0
  8  9  1  0
  9 10  2  0
 10 11  1  0
 11 12  2  0
 12 13  1  0
 13 14  2  0
 13 15  1  0
 12 16  1  0
 11 17  1  0
 10 18  1  0
  8 19  1  0
  6 20  1  0
  4 21  1  0
 21 22  2  0
 21 23  1  0
 23 24  1  1
 24 25  1  0
 25 26  1  0
 26 27  1  0
 27 28  1  0
 28 29  2  0
 29 30  1  0
 30 31  1  0
 31 32  1  0
 31 33  1  0
 31 34  1  0
 30 35  1  0
 28 36  1  0
 26 37  1  0
 26 38  1  0
 25 39  1  0
 39 40  2  0
 39 41  1  0
 41 42  2  0
 42 43  1  0
 43 44  2  0
 44 45  1  0
 44 46  1  0
 46 47  2  0
 46 48  1  0
 43 49  1  0
 42 50  1  0
 24 51  1  0
 24 52  1  0
  3 53  1  0
  3 54  1  0
  2 55  1  6
  1 56  1  0
  1 57  1  0
  1 58  1  0
 23  2  1  0
 35 27  2  0
 47 41  1  0
 14  5  1  0
 47 23  1  0
 14  9  1  0
M  END
>  <cnnaffinities>  (35) 
[6.57259, 6.40168, 6.31435, 6.27937, 6.38547, 6.41217]

>  <score>  (35) 
6.57259

>  <index>  (35) 
34

>  <Smiles>  (35) 
C([C@]1(C(N(c2c(nc(c3c(c(c(c(c23)[H])[H])[H])[H])[H])[H])C(=O)[C@]21C(N(C(c1c(nn(C([H])([H])[H])n1)[H])([H])[H])C(=O)c1c(c(c(F)c(c21)[H])[H])[H])([H])[H])([H])[H])[H])([H])([H])[H]

>  <h>  (35) 
<NA>

>  <Training>  (35) 
True

>  <Success>  (35) 
True

>  <enamine_searched>  (35) 
False

>  <enamine_id>  (35) 
nan

$$$$

     RDKit          3D

 51 54  0  0  0  0  0  0  0  0999 V2000
   13.7157    0.0699   22.3256 N   0  0  0  0  0  0  0  0  0  0  0  0
   13.1546   -0.5998   23.0831 C   0  0  0  0  0  0  0  0  0  0  0  0
   12.3893   -1.5168   23.9461 C   0  0  0  0  0  0  0  0  0  0  0  0
   10.9563   -1.6524   23.4466 C   0  0  0  0  0  0  0  0  0  0  0  0
    9.8244   -1.0939   24.0482 C   0  0  0  0  0  0  0  0  0  0  0  0
    8.5512   -1.3528   23.5301 C   0  0  0  0  0  0  0  0  0  0  0  0
    8.3936   -2.2421   22.4584 C   0  0  0  0  0  0  0  0  0  0  0  0
    7.1028   -2.6358   21.9837 N   0  0  0  0  0  0  0  0  0  0  0  0
    6.5759   -3.9459   22.3583 C   0  0  0  0  0  0  0  0  0  0  0  0
    6.0681   -3.9352   23.7759 C   0  0  0  0  0  0  0  0  0  0  0  0
    4.7067   -3.8942   24.0498 C   0  0  0  0  0  0  0  0  0  0  0  0
    4.2540   -3.8230   25.3623 C   0  0  0  0  0  0  0  0  0  0  0  0
    5.1595   -3.7286   26.4115 C   0  0  0  0  0  0  0  0  0  0  0  0
    6.5216   -3.7287   26.1310 C   0  0  0  0  0  0  0  0  0  0  0  0
    7.6753   -3.7242   27.4379 Cl  0  0  0  0  0  0  0  0  0  0  0  0
    6.9815   -3.8188   24.8251 C   0  0  0  0  0  0  0  0  0  0  0  0
    8.0411   -3.7632   24.6200 H   0  0  0  0  0  0  0  0  0  0  0  0
    4.8149   -3.6605   27.4352 H   0  0  0  0  0  0  0  0  0  0  0  0
    3.1873   -3.7673   25.5589 H   0  0  0  0  0  0  0  0  0  0  0  0
    4.0067   -3.8748   23.2227 H   0  0  0  0  0  0  0  0  0  0  0  0
    5.7805   -4.1944   21.6520 H   0  0  0  0  0  0  0  0  0  0  0  0
    7.3896   -4.6744   22.2625 H   0  0  0  0  0  0  0  0  0  0  0  0
    6.2498   -1.7661   21.3522 C   0  0  0  0  0  0  0  0  0  0  0  0
    5.0760   -2.0338   21.1681 O   0  0  0  0  0  0  0  0  0  0  0  0
    6.8998   -0.4796   20.8489 C   0  0  0  0  0  0  0  0  0  0  0  0
    6.1199    0.1098   19.7312 C   0  0  0  0  0  0  0  0  0  0  0  0
    6.4369   -0.2120   18.4403 C   0  0  0  0  0  0  0  0  0  0  0  0
    5.7709    0.2276   17.3440 N   0  0  0  0  0  0  0  0  0  0  0  0
    4.7377    1.0078   17.5617 C   0  0  0  0  0  0  0  0  0  0  0  0
    4.2797    1.3922   18.8510 C   0  0  0  0  0  0  0  0  0  0  0  0
    3.1600    2.2384   19.0349 C   0  0  0  0  0  0  0  0  0  0  0  0
    2.7549    2.5911   20.2927 C   0  0  0  0  0  0  0  0  0  0  0  0
    3.4395    2.1003   21.4257 C   0  0  0  0  0  0  0  0  0  0  0  0
    4.5225    1.2722   21.2769 C   0  0  0  0  0  0  0  0  0  0  0  0
    4.9793    0.9159   19.9796 C   0  0  0  0  0  0  0  0  0  0  0  0
    5.0245    0.8776   22.1550 H   0  0  0  0  0  0  0  0  0  0  0  0
    3.1112    2.3929   22.4183 H   0  0  0  0  0  0  0  0  0  0  0  0
    1.9106    3.2605   20.4252 H   0  0  0  0  0  0  0  0  0  0  0  0
    2.6536    2.6203   18.1534 H   0  0  0  0  0  0  0  0  0  0  0  0
    4.2075    1.3756   16.6832 H   0  0  0  0  0  0  0  0  0  0  0  0
    7.2868   -0.8659   18.2396 H   0  0  0  0  0  0  0  0  0  0  0  0
    7.0135    0.2137   21.6908 H   0  0  0  0  0  0  0  0  0  0  0  0
    7.9165   -0.7251   20.5276 H   0  0  0  0  0  0  0  0  0  0  0  0
    9.5234   -2.7802   21.8515 C   0  0  0  0  0  0  0  0  0  0  0  0
   10.7844   -2.4216   22.2981 C   0  0  0  0  0  0  0  0  0  0  0  0
   11.6653   -2.7327   21.7489 H   0  0  0  0  0  0  0  0  0  0  0  0
    9.4242   -3.4720   21.0189 H   0  0  0  0  0  0  0  0  0  0  0  0
    7.6671   -0.9266   24.0158 H   0  0  0  0  0  0  0  0  0  0  0  0
    9.9073   -0.4692   24.9367 H   0  0  0  0  0  0  0  0  0  0  0  0
   12.8761   -2.4991   23.8553 H   0  0  0  0  0  0  0  0  0  0  0  0
   12.4545   -1.2196   24.9990 H   0  0  0  0  0  0  0  0  0  0  0  0
  1  2  3  0
  2  3  1  0
  3  4  1  0
  4  5  2  0
  5  6  1  0
  6  7  2  0
  7  8  1  0
  8  9  1  0
  9 10  1  0
 10 11  2  0
 11 12  1  0
 12 13  2  0
 13 14  1  0
 14 15  1  0
 14 16  2  0
 16 17  1  0
 13 18  1  0
 12 19  1  0
 11 20  1  0
  9 21  1  0
  9 22  1  0
  8 23  1  0
 23 24  2  0
 23 25  1  0
 25 26  1  0
 26 27  2  0
 27 28  1  0
 28 29  2  0
 29 30  1  0
 30 31  2  0
 31 32  1  0
 32 33  2  0
 33 34  1  0
 34 35  2  0
 34 36  1  0
 33 37  1  0
 32 38  1  0
 31 39  1  0
 29 40  1  0
 27 41  1  0
 25 42  1  0
 25 43  1  0
  7 44  1  0
 44 45  2  0
 45 46  1  0
 44 47  1  0
  6 48  1  0
  5 49  1  0
  3 50  1  0
  3 51  1  0
 45  4  1  0
 16 10  1  0
 35 26  1  0
 35 30  1  0
M  END
>  <cnnaffinities>  (36) 
[6.16416, 6.02842, 5.37498, 5.3785]

>  <score>  (36) 
6.16416

>  <index>  (36) 
35

>  <Smiles>  (36) 
N#CC(c1c(c(c(N(C(c2c(c(c(c(Cl)c2[H])[H])[H])[H])([H])[H])C(=O)C(c2c(nc(c3c(c(c(c(c23)[H])[H])[H])[H])[H])[H])([H])[H])c(c1[H])[H])[H])[H])([H])[H]

>  <h>  (36) 
<NA>

>  <Training>  (36) 
True

>  <Success>  (36) 
True

>  <enamine_searched>  (36) 
False

>  <enamine_id>  (36) 
nan

$$$$

     RDKit          3D

 59 64  0  0  0  0  0  0  0  0999 V2000
    7.7427   -3.0266   23.2814 C   0  0  0  0  0  0  0  0  0  0  0  0
    7.9987   -1.9269   22.2645 C   0  0  1  0  0  0  0  0  0  0  0  0
    6.8560   -1.7806   21.2536 C   0  0  0  0  0  0  0  0  0  0  0  0
    6.9534   -0.3966   20.8410 N   0  0  0  0  0  0  0  0  0  0  0  0
    6.1595    0.1187   19.7895 C   0  0  0  0  0  0  0  0  0  0  0  0
    6.4588   -0.2320   18.4984 C   0  0  0  0  0  0  0  0  0  0  0  0
    5.7911    0.2023   17.4030 N   0  0  0  0  0  0  0  0  0  0  0  0
    4.7688    0.9971   17.6103 C   0  0  0  0  0  0  0  0  0  0  0  0
    4.3164    1.3954   18.8979 C   0  0  0  0  0  0  0  0  0  0  0  0
    3.1842    2.2354   19.0532 C   0  0  0  0  0  0  0  0  0  0  0  0
    2.7479    2.5872   20.2976 C   0  0  0  0  0  0  0  0  0  0  0  0
    3.4125    2.1066   21.4473 C   0  0  0  0  0  0  0  0  0  0  0  0
    4.5149    1.2967   21.3243 C   0  0  0  0  0  0  0  0  0  0  0  0
    5.0106    0.9352   20.0395 C   0  0  0  0  0  0  0  0  0  0  0  0
    5.0148    0.9425   22.2203 H   0  0  0  0  0  0  0  0  0  0  0  0
    3.0470    2.3842   22.4294 H   0  0  0  0  0  0  0  0  0  0  0  0
    1.8863    3.2379   20.4088 H   0  0  0  0  0  0  0  0  0  0  0  0
    2.6892    2.6003   18.1570 H   0  0  0  0  0  0  0  0  0  0  0  0
    4.2311    1.3580   16.7332 H   0  0  0  0  0  0  0  0  0  0  0  0
    7.3042   -0.8910   18.3109 H   0  0  0  0  0  0  0  0  0  0  0  0
    7.6884    0.3979   21.6953 C   0  0  0  0  0  0  0  0  0  0  0  0
    7.8372    1.5961   21.5590 O   0  0  0  0  0  0  0  0  0  0  0  0
    8.2357   -0.4801   22.8399 C   0  0  1  0  0  0  0  0  0  0  0  0
    7.4050   -0.1131   24.0991 C   0  0  0  0  0  0  0  0  0  0  0  0
    7.9862   -0.5820   25.3504 N   0  0  0  0  0  0  0  0  0  0  0  0
    7.1391   -0.8487   26.5002 C   0  0  0  0  0  0  0  0  0  0  0  0
    6.8864   -2.3108   26.7056 C   0  0  0  0  0  0  0  0  0  0  0  0
    7.7401   -3.3182   27.2098 C   0  0  0  0  0  0  0  0  0  0  0  0
    6.9502   -4.4414   27.2527 C   0  0  0  0  0  0  0  0  0  0  0  0
    5.7437   -4.0914   26.7619 N   0  0  0  0  0  0  0  0  0  0  0  0
    4.5932   -4.9231   26.4872 C   0  0  0  0  0  0  0  0  0  0  0  0
    4.5276   -5.1081   25.4114 H   0  0  0  0  0  0  0  0  0  0  0  0
    4.7085   -5.8715   27.0188 H   0  0  0  0  0  0  0  0  0  0  0  0
    3.6976   -4.3836   26.8156 H   0  0  0  0  0  0  0  0  0  0  0  0
    5.6858   -2.7979   26.4236 N   0  0  0  0  0  0  0  0  0  0  0  0
    7.1376   -5.4725   27.5455 H   0  0  0  0  0  0  0  0  0  0  0  0
    8.7838   -3.2199   27.4893 H   0  0  0  0  0  0  0  0  0  0  0  0
    7.6547   -0.4366   27.3735 H   0  0  0  0  0  0  0  0  0  0  0  0
    6.1931   -0.3129   26.3680 H   0  0  0  0  0  0  0  0  0  0  0  0
    9.3281   -0.6228   25.5902 C   0  0  0  0  0  0  0  0  0  0  0  0
    9.7959   -0.9319   26.6812 O   0  0  0  0  0  0  0  0  0  0  0  0
   10.2024   -0.2844   24.4482 C   0  0  0  0  0  0  0  0  0  0  0  0
   11.5580   -0.1171   24.7256 C   0  0  0  0  0  0  0  0  0  0  0  0
   12.4615    0.0862   23.7055 C   0  0  0  0  0  0  0  0  0  0  0  0
   11.9688    0.0883   22.4074 C   0  0  0  0  0  0  0  0  0  0  0  0
   12.8566    0.1252   21.4091 F   0  0  0  0  0  0  0  0  0  0  0  0
   10.6185   -0.0032   22.1178 C   0  0  0  0  0  0  0  0  0  0  0  0
    9.7002   -0.2087   23.1479 C   0  0  0  0  0  0  0  0  0  0  0  0
   10.2565    0.0850   21.1051 H   0  0  0  0  0  0  0  0  0  0  0  0
   13.5224    0.2175   23.8865 H   0  0  0  0  0  0  0  0  0  0  0  0
   11.8832   -0.1919   25.7572 H   0  0  0  0  0  0  0  0  0  0  0  0
    7.3168    0.9828   24.1210 H   0  0  0  0  0  0  0  0  0  0  0  0
    6.3921   -0.5292   24.0121 H   0  0  0  0  0  0  0  0  0  0  0  0
    6.9616   -2.4358   20.3866 H   0  0  0  0  0  0  0  0  0  0  0  0
    5.8752   -2.0062   21.7060 H   0  0  0  0  0  0  0  0  0  0  0  0
    8.9113   -2.1646   21.6964 H   0  0  0  0  0  0  0  0  0  0  0  0
    7.7051   -4.0013   22.7819 H   0  0  0  0  0  0  0  0  0  0  0  0
    6.7859   -2.8572   23.7875 H   0  0  0  0  0  0  0  0  0  0  0  0
    8.5329   -3.0413   24.0377 H   0  0  0  0  0  0  0  0  0  0  0  0
  1  2  1  0
  2  3  1  0
  3  4  1  0
  4  5  1  0
  5  6  2  0
  6  7  1  0
  7  8  2  0
  8  9  1  0
  9 10  2  0
 10 11  1  0
 11 12  2  0
 12 13  1  0
 13 14  2  0
 13 15  1  0
 12 16  1  0
 11 17  1  0
 10 18  1  0
  8 19  1  0
  6 20  1  0
  4 21  1  0
 21 22  2  0
 21 23  1  0
 23 24  1  1
 24 25  1  0
 25 26  1  0
 26 27  1  0
 27 28  1  0
 28 29  2  0
 29 30  1  0
 30 31  1  0
 31 32  1  0
 31 33  1  0
 31 34  1  0
 30 35  1  0
 29 36  1  0
 28 37  1  0
 26 38  1  0
 26 39  1  0
 25 40  1  0
 40 41  2  0
 40 42  1  0
 42 43  2  0
 43 44  1  0
 44 45  2  0
 45 46  1  0
 45 47  1  0
 47 48  2  0
 47 49  1  0
 44 50  1  0
 43 51  1  0
 24 52  1  0
 24 53  1  0
  3 54  1  0
  3 55  1  0
  2 56  1  6
  1 57  1  0
  1 58  1  0
  1 59  1  0
 23  2  1  0
 35 27  2  0
 48 42  1  0
 14  5  1  0
 48 23  1  0
 14  9  1  0
M  END
>  <cnnaffinities>  (37) 
[6.45597, 6.37984, 6.13662]

>  <score>  (37) 
6.45597

>  <index>  (37) 
36

>  <Smiles>  (37) 
C([C@]1(C(N(c2c(nc(c3c(c(c(c(c23)[H])[H])[H])[H])[H])[H])C(=O)[C@]21C(N(C(c1c(c(n(C([H])([H])[H])n1)[H])[H])([H])[H])C(=O)c1c(c(c(F)c(c21)[H])[H])[H])([H])[H])([H])[H])[H])([H])([H])[H]

>  <h>  (37) 
<NA>

>  <Training>  (37) 
True

>  <Success>  (37) 
True

>  <enamine_searched>  (37) 
False

>  <enamine_id>  (37) 
nan

$$$$

     RDKit          3D

 48 51  0  0  0  0  0  0  0  0999 V2000
   13.3773   -1.3215   24.3369 N   0  0  0  0  0  0  0  0  0  0  0  0
   12.2503   -1.3910   24.0762 C   0  0  0  0  0  0  0  0  0  0  0  0
   10.8969   -1.5879   23.6211 C   0  0  0  0  0  0  0  0  0  0  0  0
    9.7541   -0.9648   24.1283 C   0  0  0  0  0  0  0  0  0  0  0  0
    8.5125   -1.2673   23.5756 C   0  0  0  0  0  0  0  0  0  0  0  0
    8.3864   -2.2227   22.5612 C   0  0  0  0  0  0  0  0  0  0  0  0
    7.1114   -2.6230   22.0694 N   0  0  0  0  0  0  0  0  0  0  0  0
    6.5774   -3.9116   22.4810 C   0  0  0  0  0  0  0  0  0  0  0  0
    6.0188   -3.8434   23.8803 C   0  0  0  0  0  0  0  0  0  0  0  0
    6.8800   -3.7986   24.9750 C   0  0  0  0  0  0  0  0  0  0  0  0
    6.3629   -3.7203   26.2588 C   0  0  0  0  0  0  0  0  0  0  0  0
    4.9888   -3.6409   26.4610 C   0  0  0  0  0  0  0  0  0  0  0  0
    4.1457   -3.6474   25.3597 C   0  0  0  0  0  0  0  0  0  0  0  0
    2.4292   -3.4985   25.5889 Cl  0  0  0  0  0  0  0  0  0  0  0  0
    4.6442   -3.7718   24.0729 C   0  0  0  0  0  0  0  0  0  0  0  0
    3.9616   -3.8017   23.2267 H   0  0  0  0  0  0  0  0  0  0  0  0
    4.5698   -3.6074   27.4596 H   0  0  0  0  0  0  0  0  0  0  0  0
    7.0328   -3.7094   27.1118 H   0  0  0  0  0  0  0  0  0  0  0  0
    7.9591   -3.8377   24.8160 H   0  0  0  0  0  0  0  0  0  0  0  0
    7.3803   -4.6573   22.4134 H   0  0  0  0  0  0  0  0  0  0  0  0
    5.7940   -4.1390   21.7571 H   0  0  0  0  0  0  0  0  0  0  0  0
    6.2605   -1.7807   21.3956 C   0  0  0  0  0  0  0  0  0  0  0  0
    5.0883   -2.0570   21.2003 O   0  0  0  0  0  0  0  0  0  0  0  0
    6.9139   -0.5055   20.8661 C   0  0  0  0  0  0  0  0  0  0  0  0
    6.1237    0.0829   19.7465 C   0  0  0  0  0  0  0  0  0  0  0  0
    6.4407   -0.2216   18.4494 C   0  0  0  0  0  0  0  0  0  0  0  0
    5.7769    0.2209   17.3509 N   0  0  0  0  0  0  0  0  0  0  0  0
    4.7448    1.0018   17.5702 C   0  0  0  0  0  0  0  0  0  0  0  0
    4.2882    1.3783   18.8620 C   0  0  0  0  0  0  0  0  0  0  0  0
    3.1709    2.2303   19.0409 C   0  0  0  0  0  0  0  0  0  0  0  0
    2.7610    2.5881   20.2963 C   0  0  0  0  0  0  0  0  0  0  0  0
    3.4433    2.0986   21.4317 C   0  0  0  0  0  0  0  0  0  0  0  0
    4.5243    1.2639   21.2877 C   0  0  0  0  0  0  0  0  0  0  0  0
    4.9838    0.8976   19.9922 C   0  0  0  0  0  0  0  0  0  0  0  0
    5.0303    0.8816   22.1695 H   0  0  0  0  0  0  0  0  0  0  0  0
    3.1163    2.3991   22.4236 H   0  0  0  0  0  0  0  0  0  0  0  0
    1.9157    3.2584   20.4275 H   0  0  0  0  0  0  0  0  0  0  0  0
    2.6687    2.6162   18.1588 H   0  0  0  0  0  0  0  0  0  0  0  0
    4.2081    1.3805   16.7000 H   0  0  0  0  0  0  0  0  0  0  0  0
    7.2921   -0.8692   18.2413 H   0  0  0  0  0  0  0  0  0  0  0  0
    7.9231   -0.7802   20.5295 H   0  0  0  0  0  0  0  0  0  0  0  0
    7.0333    0.2052   21.6998 H   0  0  0  0  0  0  0  0  0  0  0  0
    9.5255   -2.8317   22.0591 C   0  0  0  0  0  0  0  0  0  0  0  0
   10.7634   -2.4944   22.5703 C   0  0  0  0  0  0  0  0  0  0  0  0
   11.6560   -2.9387   22.1680 H   0  0  0  0  0  0  0  0  0  0  0  0
    9.4437   -3.5633   21.2639 H   0  0  0  0  0  0  0  0  0  0  0  0
    7.6193   -0.8049   23.9887 H   0  0  0  0  0  0  0  0  0  0  0  0
    9.8326   -0.2403   24.9320 H   0  0  0  0  0  0  0  0  0  0  0  0
  1  2  3  0
  2  3  1  0
  3  4  2  0
  4  5  1  0
  5  6  2  0
  6  7  1  0
  7  8  1  0
  8  9  1  0
  9 10  2  0
 10 11  1  0
 11 12  2  0
 12 13  1  0
 13 14  1  0
 13 15  2  0
 15 16  1  0
 12 17  1  0
 11 18  1  0
 10 19  1  0
  8 20  1  0
  8 21  1  0
  7 22  1  0
 22 23  2  0
 22 24  1  0
 24 25  1  0
 25 26  2  0
 26 27  1  0
 27 28  2  0
 28 29  1  0
 29 30  2  0
 30 31  1  0
 31 32  2  0
 32 33  1  0
 33 34  2  0
 33 35  1  0
 32 36  1  0
 31 37  1  0
 30 38  1  0
 28 39  1  0
 26 40  1  0
 24 41  1  0
 24 42  1  0
  6 43  1  0
 43 44  2  0
 44 45  1  0
 43 46  1  0
  5 47  1  0
  4 48  1  0
 44  3  1  0
 15  9  1  0
 34 25  1  0
 34 29  1  0
M  END
>  <cnnaffinities>  (38) 
[5.67051, 6.10294, 5.10709]

>  <score>  (38) 
5.67051

>  <index>  (38) 
37

>  <Smiles>  (38) 
N#Cc1c(c(c(N(C(c2c(c(c(c(Cl)c2[H])[H])[H])[H])([H])[H])C(=O)C(c2c(nc(c3c(c(c(c(c23)[H])[H])[H])[H])[H])[H])([H])[H])c(c1[H])[H])[H])[H]

>  <h>  (38) 
<NA>

>  <Training>  (38) 
True

>  <Success>  (38) 
True

>  <enamine_searched>  (38) 
False

>  <enamine_id>  (38) 
nan

$$$$

     RDKit          3D

 72 77  0  0  0  0  0  0  0  0999 V2000
    4.8740   -7.1458   19.8787 C   0  0  0  0  0  0  0  0  0  0  0  0
    5.0289   -5.6525   19.7499 N   0  0  0  0  0  4  0  0  0  0  0  0
    5.0194   -4.9221   21.0783 C   0  0  0  0  0  0  0  0  0  0  0  0
    6.2182   -5.2297   21.9930 C   0  0  0  0  0  0  0  0  0  0  0  0
    6.4654   -4.1240   22.8827 N   0  0  0  0  0  0  0  0  0  0  0  0
    7.5538   -3.2354   22.5503 C   0  0  0  0  0  0  0  0  0  0  0  0
    7.2025   -1.7582   22.8159 C   0  0  2  0  0  0  0  0  0  0  0  0
    6.1406   -1.3040   21.7868 C   0  0  0  0  0  0  0  0  0  0  0  0
    4.9856   -1.6784   21.7271 O   0  0  0  0  0  0  0  0  0  0  0  0
    6.7163   -0.4350   20.8861 N   0  0  0  0  0  0  0  0  0  0  0  0
    6.0164    0.0974   19.7829 C   0  0  0  0  0  0  0  0  0  0  0  0
    6.4181   -0.1781   18.4991 C   0  0  0  0  0  0  0  0  0  0  0  0
    5.7748    0.2428   17.3821 N   0  0  0  0  0  0  0  0  0  0  0  0
    4.7092    0.9894   17.5509 C   0  0  0  0  0  0  0  0  0  0  0  0
    4.2132    1.3914   18.8227 C   0  0  0  0  0  0  0  0  0  0  0  0
    3.0741    2.2297   18.9453 C   0  0  0  0  0  0  0  0  0  0  0  0
    2.6545    2.6526   20.1761 C   0  0  0  0  0  0  0  0  0  0  0  0
    3.3504    2.2567   21.3401 C   0  0  0  0  0  0  0  0  0  0  0  0
    4.4448    1.4336   21.2502 C   0  0  0  0  0  0  0  0  0  0  0  0
    4.8909    0.9607   19.9823 C   0  0  0  0  0  0  0  0  0  0  0  0
    4.9764    1.1340   22.1484 H   0  0  0  0  0  0  0  0  0  0  0  0
    3.0161    2.6118   22.3108 H   0  0  0  0  0  0  0  0  0  0  0  0
    1.7945    3.3104   20.2650 H   0  0  0  0  0  0  0  0  0  0  0  0
    2.5658    2.5487   18.0398 H   0  0  0  0  0  0  0  0  0  0  0  0
    4.1858    1.3226   16.6542 H   0  0  0  0  0  0  0  0  0  0  0  0
    7.2940   -0.8013   18.3251 H   0  0  0  0  0  0  0  0  0  0  0  0
    8.1530   -0.3259   21.0297 C   0  0  0  0  0  0  0  0  0  0  0  0
    8.4066   -0.8537   22.4546 C   0  0  2  0  0  0  0  0  0  0  0  0
    9.7904   -1.4963   22.5815 C   0  0  0  0  0  0  0  0  0  0  0  0
   10.7921   -0.5253   22.5127 O   0  0  0  0  0  0  0  0  0  0  0  0
   11.1750   -0.0777   23.7905 C   0  0  0  0  0  0  0  0  0  0  0  0
   11.7478    1.2314   23.4737 C   0  0  0  0  0  0  0  0  0  0  0  0
   10.7196    2.2866   23.1566 C   0  0  0  0  0  0  0  0  0  0  0  0
   10.3315    3.7938   24.0937 S   0  0  0  0  0  0  0  0  0  0  0  0
   11.4227    4.7609   24.0547 O   0  0  0  0  0  0  0  0  0  0  0  0
    9.6185    3.4706   25.3266 O   0  0  0  0  0  0  0  0  0  0  0  0
   11.9689    1.3809   23.7761 C   0  0  0  0  0  0  0  0  0  0  0  0
   13.1400    2.1602   24.0121 H   0  0  0  0  0  0  0  0  0  0  0  0
   11.8917    1.5539   24.9700 H   0  0  0  0  0  0  0  0  0  0  0  0
   10.8961    2.6329   22.1324 H   0  0  0  0  0  0  0  0  0  0  0  0
    9.7565    1.7667   23.0884 H   0  0  0  0  0  0  0  0  0  0  0  0
   12.4930    1.1315   22.6321 H   0  0  0  0  0  0  0  0  0  0  0  0
   10.2704   -0.0268   24.4191 H   0  0  0  0  0  0  0  0  0  0  0  0
   11.8719   -0.8261   24.2261 H   0  0  0  0  0  0  0  0  0  0  0  0
    9.9477   -2.2033   21.7526 H   0  0  0  0  0  0  0  0  0  0  0  0
    9.8826   -2.0729   23.5182 H   0  0  0  0  0  0  0  0  0  0  0  0
    8.3683    0.0067   23.1260 H   0  0  0  0  0  0  0  0  0  0  0  0
    8.4702    0.7154   20.9114 H   0  0  0  0  0  0  0  0  0  0  0  0
    8.6800   -0.9275   20.2739 H   0  0  0  0  0  0  0  0  0  0  0  0
    6.7185   -1.6884   24.2565 C   0  0  0  0  0  0  0  0  0  0  0  0
    6.9241   -0.5690   25.0716 C   0  0  0  0  0  0  0  0  0  0  0  0
    6.5972   -0.6242   26.4144 C   0  0  0  0  0  0  0  0  0  0  0  0
    7.0114    0.7300   27.4281 Cl  0  0  0  0  0  0  0  0  0  0  0  0
    5.9754   -1.7302   26.9874 C   0  0  0  0  0  0  0  0  0  0  0  0
    5.6682   -2.7955   26.1653 C   0  0  0  0  0  0  0  0  0  0  0  0
    6.0424   -2.7817   24.8246 C   0  0  0  0  0  0  0  0  0  0  0  0
    5.7166   -3.9900   24.0058 C   0  0  0  0  0  0  0  0  0  0  0  0
    4.8637   -4.8088   24.3276 O   0  0  0  0  0  0  0  0  0  0  0  0
    5.1435   -3.6694   26.5361 H   0  0  0  0  0  0  0  0  0  0  0  0
    5.7387   -1.7397   28.0464 H   0  0  0  0  0  0  0  0  0  0  0  0
    7.3063    0.3633   24.6750 H   0  0  0  0  0  0  0  0  0  0  0  0
    8.4477   -3.5054   23.1264 H   0  0  0  0  0  0  0  0  0  0  0  0
    7.7760   -3.3490   21.4873 H   0  0  0  0  0  0  0  0  0  0  0  0
    7.1706   -5.3147   21.4581 H   0  0  0  0  0  0  0  0  0  0  0  0
    6.0725   -6.1431   22.5837 H   0  0  0  0  0  0  0  0  0  0  0  0
    4.1051   -5.1659   21.6211 H   0  0  0  0  0  0  0  0  0  0  0  0
    5.0046   -3.8635   20.8511 H   0  0  0  0  0  0  0  0  0  0  0  0
    5.9606   -5.4473   19.3230 H   0  0  0  0  0  0  0  0  0  0  0  0
    4.2767   -5.2801   19.1463 H   0  0  0  0  0  0  0  0  0  0  0  0
    4.7285   -7.4105   20.9285 H   0  0  0  0  0  0  0  0  0  0  0  0
    4.0101   -7.4924   19.3169 H   0  0  0  0  0  0  0  0  0  0  0  0
    5.7393   -7.6749   19.4897 H   0  0  0  0  0  0  0  0  0  0  0  0
  1  2  1  0
  2  3  1  0
  3  4  1  0
  4  5  1  0
  5  6  1  0
  7  6  1  6
  7  8  1  0
  8  9  2  0
  8 10  1  0
 10 11  1  0
 11 12  2  0
 12 13  1  0
 13 14  2  0
 14 15  1  0
 15 16  2  0
 16 17  1  0
 17 18  2  0
 18 19  1  0
 19 20  2  0
 19 21  1  0
 18 22  1  0
 17 23  1  0
 16 24  1  0
 14 25  1  0
 12 26  1  0
 10 27  1  0
 27 28  1  0
 28 29  1  0
 29 30  1  0
 30 31  1  0
 31 32  1  0
 32 33  1  0
 33 34  1  0
 34 35  2  0
 34 36  2  0
 34 37  1  0
 37 38  1  0
 37 39  1  0
 33 40  1  0
 33 41  1  0
 32 42  1  0
 31 43  1  0
 31 44  1  0
 29 45  1  0
 29 46  1  0
 28 47  1  1
 27 48  1  0
 27 49  1  0
  7 50  1  0
 50 51  2  0
 51 52  1  0
 52 53  1  0
 52 54  2  0
 54 55  1  0
 55 56  2  0
 56 57  1  0
 57 58  2  0
 55 59  1  0
 54 60  1  0
 51 61  1  0
  6 62  1  0
  6 63  1  0
  4 64  1  0
  4 65  1  0
  3 66  1  0
  3 67  1  0
  2 68  1  0
  2 69  1  0
  1 70  1  0
  1 71  1  0
  1 72  1  0
 57  5  1  0
 28  7  1  0
 37 32  1  0
 56 50  1  0
 20 11  1  0
 20 15  1  0
M  CHG  1   2   1
M  END
>  <cnnaffinities>  (39) 
[6.31418]

>  <score>  (39) 
6.31418

>  <index>  (39) 
38

>  <Smiles>  (39) 
C([N+](C(C(N1C([C@@]2(C(=O)N(c3c(nc(c4c(c(c(c(c34)[H])[H])[H])[H])[H])[H])C([C@@]2(C(OC(C2(C(S(=O)(=O)C2([H])[H])([H])[H])[H])([H])[H])([H])[H])[H])([H])[H])c2c(c(Cl)c(c(c2C1=O)[H])[H])[H])([H])[H])([H])[H])([H])[H])([H])[H])([H])([H])[H]

>  <h>  (39) 
<NA>

>  <Training>  (39) 
True

>  <Success>  (39) 
True

>  <enamine_searched>  (39) 
False

>  <enamine_id>  (39) 
nan

$$$$

     RDKit          3D

 60 64  0  0  0  0  0  0  0  0999 V2000
    8.1759   -4.5260   24.1465 C   0  0  0  0  0  0  0  0  0  0  0  0
    8.2984   -3.0463   24.4676 C   0  0  0  0  0  0  0  0  0  0  0  0
    7.3147   -2.3257   23.7361 O   0  0  0  0  0  0  0  0  0  0  0  0
    7.7826   -1.7840   22.5208 C   0  0  1  0  0  0  0  0  0  0  0  0
    6.6006   -1.6141   21.5632 C   0  0  0  0  0  0  0  0  0  0  0  0
    6.9254   -0.4069   20.8346 N   0  0  0  0  0  0  0  0  0  0  0  0
    6.1453    0.1091   19.7623 C   0  0  0  0  0  0  0  0  0  0  0  0
    6.4576   -0.2125   18.4674 C   0  0  0  0  0  0  0  0  0  0  0  0
    5.7722    0.2244   17.3789 N   0  0  0  0  0  0  0  0  0  0  0  0
    4.7466    1.0135   17.5918 C   0  0  0  0  0  0  0  0  0  0  0  0
    4.2955    1.4156   18.8806 C   0  0  0  0  0  0  0  0  0  0  0  0
    3.1691    2.2653   19.0645 C   0  0  0  0  0  0  0  0  0  0  0  0
    2.7608    2.6287   20.3183 C   0  0  0  0  0  0  0  0  0  0  0  0
    3.4577    2.1530   21.4525 C   0  0  0  0  0  0  0  0  0  0  0  0
    4.5498    1.3320   21.3011 C   0  0  0  0  0  0  0  0  0  0  0  0
    5.0109    0.9476   20.0112 C   0  0  0  0  0  0  0  0  0  0  0  0
    5.0768    0.9783   22.1834 H   0  0  0  0  0  0  0  0  0  0  0  0
    3.1521    2.4552   22.4486 H   0  0  0  0  0  0  0  0  0  0  0  0
    1.9138    3.2976   20.4441 H   0  0  0  0  0  0  0  0  0  0  0  0
    2.6621    2.6416   18.1795 H   0  0  0  0  0  0  0  0  0  0  0  0
    4.2171    1.3780   16.7107 H   0  0  0  0  0  0  0  0  0  0  0  0
    7.2996   -0.8673   18.2542 H   0  0  0  0  0  0  0  0  0  0  0  0
    7.9312    0.3469   21.3962 C   0  0  0  0  0  0  0  0  0  0  0  0
    8.3111    1.4072   20.9496 O   0  0  0  0  0  0  0  0  0  0  0  0
    8.4660   -0.3896   22.6508 C   0  0  1  0  0  0  0  0  0  0  0  0
    8.0108    0.3266   23.9481 C   0  0  0  0  0  0  0  0  0  0  0  0
    8.6949    1.5942   24.1327 N   0  0  0  0  0  0  0  0  0  0  0  0
    7.9261    2.7375   24.5892 C   0  0  0  0  0  0  0  0  0  0  0  0
    6.9971    3.3384   23.5208 C   0  0  0  0  0  0  0  0  0  0  0  0
    5.7813    3.2101   23.6047 O   0  0  0  0  0  0  0  0  0  0  0  0
    7.5823    4.0261   22.5125 N   0  0  0  0  0  0  0  0  0  0  0  0
    6.7395    4.4676   21.4152 C   0  0  0  0  0  0  0  0  0  0  0  0
    6.2207    3.6089   20.9606 H   0  0  0  0  0  0  0  0  0  0  0  0
    7.3509    4.9846   20.6799 H   0  0  0  0  0  0  0  0  0  0  0  0
    5.9844    5.1699   21.7862 H   0  0  0  0  0  0  0  0  0  0  0  0
    8.5867    3.9778   22.4127 H   0  0  0  0  0  0  0  0  0  0  0  0
    7.2583    2.4524   25.4119 H   0  0  0  0  0  0  0  0  0  0  0  0
    8.6693    3.4529   24.9556 H   0  0  0  0  0  0  0  0  0  0  0  0
   10.0629    1.6650   24.0921 C   0  0  0  0  0  0  0  0  0  0  0  0
   10.6985    2.5797   24.5986 O   0  0  0  0  0  0  0  0  0  0  0  0
   10.7288    0.5545   23.3321 C   0  0  0  0  0  0  0  0  0  0  0  0
   12.1221    0.5463   23.2829 C   0  0  0  0  0  0  0  0  0  0  0  0
   12.7855   -0.3568   22.4781 C   0  0  0  0  0  0  0  0  0  0  0  0
   12.0420   -1.2347   21.6909 C   0  0  0  0  0  0  0  0  0  0  0  0
   12.8922   -2.2622   20.5747 Cl  0  0  0  0  0  0  0  0  0  0  0  0
   10.6609   -1.2618   21.7483 C   0  0  0  0  0  0  0  0  0  0  0  0
    9.9835   -0.3950   22.6167 C   0  0  0  0  0  0  0  0  0  0  0  0
   10.1233   -1.9187   21.0731 H   0  0  0  0  0  0  0  0  0  0  0  0
   13.8666   -0.3707   22.4164 H   0  0  0  0  0  0  0  0  0  0  0  0
   12.6488    1.2908   23.8701 H   0  0  0  0  0  0  0  0  0  0  0  0
    8.1759   -0.3464   24.8043 H   0  0  0  0  0  0  0  0  0  0  0  0
    6.9424    0.5401   23.8765 H   0  0  0  0  0  0  0  0  0  0  0  0
    6.4927   -2.4593   20.8754 H   0  0  0  0  0  0  0  0  0  0  0  0
    5.6687   -1.5266   22.1381 H   0  0  0  0  0  0  0  0  0  0  0  0
    8.5109   -2.4711   22.0794 H   0  0  0  0  0  0  0  0  0  0  0  0
    8.0782   -2.8729   25.5295 H   0  0  0  0  0  0  0  0  0  0  0  0
    9.3062   -2.6443   24.2586 H   0  0  0  0  0  0  0  0  0  0  0  0
    8.3816   -4.7331   23.0912 H   0  0  0  0  0  0  0  0  0  0  0  0
    8.8518   -5.1352   24.7561 H   0  0  0  0  0  0  0  0  0  0  0  0
    7.1391   -4.8016   24.3446 H   0  0  0  0  0  0  0  0  0  0  0  0
  1  2  1  0
  2  3  1  0
  3  4  1  0
  4  5  1  0
  5  6  1  0
  6  7  1  0
  7  8  2  0
  8  9  1  0
  9 10  2  0
 10 11  1  0
 11 12  2  0
 12 13  1  0
 13 14  2  0
 14 15  1  0
 15 16  2  0
 15 17  1  0
 14 18  1  0
 13 19  1  0
 12 20  1  0
 10 21  1  0
  8 22  1  0
  6 23  1  0
 23 24  2  0
 23 25  1  0
 25 26  1  1
 26 27  1  0
 27 28  1  0
 28 29  1  0
 29 30  2  0
 29 31  1  0
 31 32  1  0
 32 33  1  0
 32 34  1  0
 32 35  1  0
 31 36  1  0
 28 37  1  0
 28 38  1  0
 27 39  1  0
 39 40  2  0
 39 41  1  0
 41 42  2  0
 42 43  1  0
 43 44  2  0
 44 45  1  0
 44 46  1  0
 46 47  2  0
 46 48  1  0
 43 49  1  0
 42 50  1  0
 26 51  1  0
 26 52  1  0
  5 53  1  0
  5 54  1  0
  4 55  1  6
  2 56  1  0
  2 57  1  0
  1 58  1  0
  1 59  1  0
  1 60  1  0
 25  4  1  0
 47 41  1  0
 16  7  1  0
 47 25  1  0
 16 11  1  0
M  END
>  <cnnaffinities>  (40) 
[6.47792, 6.25721]

>  <score>  (40) 
6.47792

>  <index>  (40) 
39

>  <Smiles>  (40) 
C(C(O[C@]1(C(N(c2c(nc(c3c(c(c(c(c23)[H])[H])[H])[H])[H])[H])C(=O)[C@]21C(N(C(C(=O)N(C([H])([H])[H])[H])([H])[H])C(=O)c1c(c(c(Cl)c(c21)[H])[H])[H])([H])[H])([H])[H])[H])([H])[H])([H])([H])[H]

>  <h>  (40) 
<NA>

>  <Training>  (40) 
True

>  <Success>  (40) 
True

>  <enamine_searched>  (40) 
False

>  <enamine_id>  (40) 
nan

$$$$

     RDKit          3D

 57 61  0  0  0  0  0  0  0  0999 V2000
    6.7365    4.3856   21.2905 C   0  0  0  0  0  0  0  0  0  0  0  0
    7.6752    3.9991   22.3278 N   0  0  0  0  0  0  0  0  0  0  0  0
    7.1496    3.3313   23.3866 C   0  0  0  0  0  0  0  0  0  0  0  0
    5.9402    3.1958   23.5156 O   0  0  0  0  0  0  0  0  0  0  0  0
    8.0975    2.7676   24.4310 C   0  0  0  0  0  0  0  0  0  0  0  0
    8.8185    1.5976   23.9813 N   0  0  0  0  0  0  0  0  0  0  0  0
    8.1005    0.3424   23.8477 C   0  0  0  0  0  0  0  0  0  0  0  0
    8.5292   -0.4263   22.5767 C   0  0  2  0  0  0  0  0  0  0  0  0
    8.0011    0.2893   21.3145 C   0  0  0  0  0  0  0  0  0  0  0  0
    8.4395    1.3013   20.8071 O   0  0  0  0  0  0  0  0  0  0  0  0
    6.9209   -0.4117   20.8281 N   0  0  0  0  0  0  0  0  0  0  0  0
    6.1340    0.0969   19.7601 C   0  0  0  0  0  0  0  0  0  0  0  0
    6.4630   -0.2140   18.4643 C   0  0  0  0  0  0  0  0  0  0  0  0
    5.7845    0.2272   17.3772 N   0  0  0  0  0  0  0  0  0  0  0  0
    4.7522    1.0088   17.5916 C   0  0  0  0  0  0  0  0  0  0  0  0
    4.2987    1.4062   18.8810 C   0  0  0  0  0  0  0  0  0  0  0  0
    3.1782    2.2601   19.0625 C   0  0  0  0  0  0  0  0  0  0  0  0
    2.7737    2.6279   20.3178 C   0  0  0  0  0  0  0  0  0  0  0  0
    3.4708    2.1579   21.4548 C   0  0  0  0  0  0  0  0  0  0  0  0
    4.5590    1.3299   21.3066 C   0  0  0  0  0  0  0  0  0  0  0  0
    5.0045    0.9351   20.0137 C   0  0  0  0  0  0  0  0  0  0  0  0
    5.0996    0.9992   22.1885 H   0  0  0  0  0  0  0  0  0  0  0  0
    3.1661    2.4731   22.4486 H   0  0  0  0  0  0  0  0  0  0  0  0
    1.9254    3.2985   20.4430 H   0  0  0  0  0  0  0  0  0  0  0  0
    2.6647    2.6323   18.1799 H   0  0  0  0  0  0  0  0  0  0  0  0
    4.2127    1.3696   16.7154 H   0  0  0  0  0  0  0  0  0  0  0  0
    7.3214   -0.8548   18.2661 H   0  0  0  0  0  0  0  0  0  0  0  0
    6.5799   -1.5894   21.5974 C   0  0  0  0  0  0  0  0  0  0  0  0
    7.8157   -1.8094   22.4895 C   0  0  2  0  0  0  0  0  0  0  0  0
    7.4557   -2.4967   23.8255 C   0  0  0  0  0  0  0  0  0  0  0  0
    6.9150   -3.8404   23.5811 C   0  0  0  0  0  0  0  0  0  0  0  0
    6.4734   -4.8821   23.3477 N   0  0  0  0  0  0  0  0  0  0  0  0
    8.3312   -2.5855   24.4794 H   0  0  0  0  0  0  0  0  0  0  0  0
    6.6910   -1.9261   24.3656 H   0  0  0  0  0  0  0  0  0  0  0  0
    8.4957   -2.4887   21.9716 H   0  0  0  0  0  0  0  0  0  0  0  0
    6.3836   -2.4430   20.9378 H   0  0  0  0  0  0  0  0  0  0  0  0
    5.6782   -1.4124   22.2028 H   0  0  0  0  0  0  0  0  0  0  0  0
   10.0502   -0.4691   22.5319 C   0  0  0  0  0  0  0  0  0  0  0  0
   10.7102   -1.3645   21.6773 C   0  0  0  0  0  0  0  0  0  0  0  0
   12.0932   -1.3435   21.5932 C   0  0  0  0  0  0  0  0  0  0  0  0
   12.9177   -2.3557   20.4338 Cl  0  0  0  0  0  0  0  0  0  0  0  0
   12.8562   -0.4723   22.3749 C   0  0  0  0  0  0  0  0  0  0  0  0
   12.2165    0.4571   23.1702 C   0  0  0  0  0  0  0  0  0  0  0  0
   10.8231    0.4825   23.2132 C   0  0  0  0  0  0  0  0  0  0  0  0
   10.1873    1.6327   23.9315 C   0  0  0  0  0  0  0  0  0  0  0  0
   10.8581    2.5451   24.3977 O   0  0  0  0  0  0  0  0  0  0  0  0
   12.7548    1.2137   23.7379 H   0  0  0  0  0  0  0  0  0  0  0  0
   13.9357   -0.5122   22.3116 H   0  0  0  0  0  0  0  0  0  0  0  0
   10.1489   -2.0544   21.0549 H   0  0  0  0  0  0  0  0  0  0  0  0
    7.0304    0.5756   23.8114 H   0  0  0  0  0  0  0  0  0  0  0  0
    8.3023   -0.2950   24.7214 H   0  0  0  0  0  0  0  0  0  0  0  0
    7.4576    2.5179   25.2797 H   0  0  0  0  0  0  0  0  0  0  0  0
    8.8625    3.4871   24.7235 H   0  0  0  0  0  0  0  0  0  0  0  0
    8.6525    3.9171   22.0866 H   0  0  0  0  0  0  0  0  0  0  0  0
    5.9733    5.0383   21.7122 H   0  0  0  0  0  0  0  0  0  0  0  0
    7.2405    4.8848   20.4698 H   0  0  0  0  0  0  0  0  0  0  0  0
    6.1963    3.5113   20.9196 H   0  0  0  0  0  0  0  0  0  0  0  0
  1  2  1  0
  2  3  1  0
  3  4  2  0
  3  5  1  0
  5  6  1  0
  6  7  1  0
  8  7  1  1
  8  9  1  0
  9 10  2  0
  9 11  1  0
 11 12  1  0
 12 13  2  0
 13 14  1  0
 14 15  2  0
 15 16  1  0
 16 17  2  0
 17 18  1  0
 18 19  2  0
 19 20  1  0
 20 21  2  0
 20 22  1  0
 19 23  1  0
 18 24  1  0
 17 25  1  0
 15 26  1  0
 13 27  1  0
 11 28  1  0
 28 29  1  0
 29 30  1  0
 30 31  1  0
 31 32  3  0
 30 33  1  0
 30 34  1  0
 29 35  1  6
 28 36  1  0
 28 37  1  0
  8 38  1  0
 38 39  2  0
 39 40  1  0
 40 41  1  0
 40 42  2  0
 42 43  1  0
 43 44  2  0
 44 45  1  0
 45 46  2  0
 43 47  1  0
 42 48  1  0
 39 49  1  0
  7 50  1  0
  7 51  1  0
  5 52  1  0
  5 53  1  0
  2 54  1  0
  1 55  1  0
  1 56  1  0
  1 57  1  0
 45  6  1  0
 29  8  1  0
 44 38  1  0
 21 12  1  0
 21 16  1  0
M  END
>  <cnnaffinities>  (41) 
[6.4693]

>  <score>  (41) 
6.4693

>  <index>  (41) 
40

>  <Smiles>  (41) 
C(N(C(=O)C(N1C([C@@]2(C(=O)N(c3c(nc(c4c(c(c(c(c34)[H])[H])[H])[H])[H])[H])C([C@@]2(C(C#N)([H])[H])[H])([H])[H])c2c(c(Cl)c(c(c2C1=O)[H])[H])[H])([H])[H])([H])[H])[H])([H])([H])[H]

>  <h>  (41) 
<NA>

>  <Training>  (41) 
True

>  <Success>  (41) 
True

>  <enamine_searched>  (41) 
False

>  <enamine_id>  (41) 
nan

$$$$

     RDKit          3D

 68 73  0  0  0  0  0  0  0  0999 V2000
    7.1018   -2.4542   23.4493 C   0  0  0  0  0  0  0  0  0  0  0  0
    7.9837   -1.7757   22.3970 C   0  0  1  0  0  0  0  0  0  0  0  0
    7.3089   -1.6907   21.0160 C   0  0  0  0  0  0  0  0  0  0  0  0
    6.9443   -0.2979   20.8710 N   0  0  0  0  0  0  0  0  0  0  0  0
    6.1547    0.1450   19.7947 C   0  0  0  0  0  0  0  0  0  0  0  0
    6.4527   -0.2319   18.5081 C   0  0  0  0  0  0  0  0  0  0  0  0
    5.7820    0.1940   17.4119 N   0  0  0  0  0  0  0  0  0  0  0  0
    4.7637    0.9968   17.6147 C   0  0  0  0  0  0  0  0  0  0  0  0
    4.3128    1.4075   18.9016 C   0  0  0  0  0  0  0  0  0  0  0  0
    3.1855    2.2540   19.0617 C   0  0  0  0  0  0  0  0  0  0  0  0
    2.7497    2.6057   20.3094 C   0  0  0  0  0  0  0  0  0  0  0  0
    3.4115    2.1206   21.4595 C   0  0  0  0  0  0  0  0  0  0  0  0
    4.5127    1.3116   21.3332 C   0  0  0  0  0  0  0  0  0  0  0  0
    5.0075    0.9565   20.0419 C   0  0  0  0  0  0  0  0  0  0  0  0
    5.0172    0.9485   22.2238 H   0  0  0  0  0  0  0  0  0  0  0  0
    3.0596    2.4121   22.4464 H   0  0  0  0  0  0  0  0  0  0  0  0
    1.8961    3.2669   20.4226 H   0  0  0  0  0  0  0  0  0  0  0  0
    2.6955    2.6287   18.1687 H   0  0  0  0  0  0  0  0  0  0  0  0
    4.2314    1.3572   16.7351 H   0  0  0  0  0  0  0  0  0  0  0  0
    7.2975   -0.8930   18.3165 H   0  0  0  0  0  0  0  0  0  0  0  0
    7.6534    0.5478   21.6923 C   0  0  0  0  0  0  0  0  0  0  0  0
    7.6480    1.7623   21.6243 O   0  0  0  0  0  0  0  0  0  0  0  0
    8.4437   -0.3158   22.7043 C   0  0  1  0  0  0  0  0  0  0  0  0
    8.0989    0.1291   24.1398 C   0  0  0  0  0  0  0  0  0  0  0  0
    8.5986    1.4570   24.4311 N   0  0  0  0  0  0  0  0  0  0  0  0
    7.7743    2.3159   25.2518 C   0  0  0  0  0  0  0  0  0  0  0  0
    6.7405    3.0823   24.4329 C   0  0  0  0  0  0  0  0  0  0  0  0
    7.3661    4.1466   23.5782 N   0  0  0  0  0  4  0  0  0  0  0  0
    7.9323    5.2723   24.4330 C   0  0  0  0  0  0  0  0  0  0  0  0
    8.0272    6.6054   23.7006 C   0  0  0  0  0  0  0  0  0  0  0  0
    6.4075    7.2489   23.2607 S   0  0  0  0  0  0  0  0  0  0  0  0
    5.8247    7.8717   24.4473 O   0  0  0  0  0  0  0  0  0  0  0  0
    6.5438    8.0045   22.0190 O   0  0  0  0  0  0  0  0  0  0  0  0
    5.4952    5.7399   22.9199 C   0  0  0  0  0  0  0  0  0  0  0  0
    6.4357    4.6233   22.4814 C   0  0  0  0  0  0  0  0  0  0  0  0
    5.8581    3.7628   22.1415 H   0  0  0  0  0  0  0  0  0  0  0  0
    7.0514    4.9458   21.6385 H   0  0  0  0  0  0  0  0  0  0  0  0
    4.7793    6.0095   22.1417 H   0  0  0  0  0  0  0  0  0  0  0  0
    4.9514    5.4868   23.8346 H   0  0  0  0  0  0  0  0  0  0  0  0
    8.6068    6.5356   22.7764 H   0  0  0  0  0  0  0  0  0  0  0  0
    8.4615    7.3842   24.3313 H   0  0  0  0  0  0  0  0  0  0  0  0
    7.2987    5.3874   25.3179 H   0  0  0  0  0  0  0  0  0  0  0  0
    8.9292    4.9777   24.7642 H   0  0  0  0  0  0  0  0  0  0  0  0
    8.1509    3.6899   23.0813 H   0  0  0  0  0  0  0  0  0  0  0  0
    6.2165    2.3932   23.7618 H   0  0  0  0  0  0  0  0  0  0  0  0
    5.9991    3.5361   25.0990 H   0  0  0  0  0  0  0  0  0  0  0  0
    8.4553    2.9862   25.7737 H   0  0  0  0  0  0  0  0  0  0  0  0
    7.2706    1.6835   25.9872 H   0  0  0  0  0  0  0  0  0  0  0  0
    9.8539    1.8532   24.0923 C   0  0  0  0  0  0  0  0  0  0  0  0
   10.3600    2.8987   24.4955 O   0  0  0  0  0  0  0  0  0  0  0  0
   10.6018    0.9312   23.1813 C   0  0  0  0  0  0  0  0  0  0  0  0
   11.9712    1.1235   23.0412 C   0  0  0  0  0  0  0  0  0  0  0  0
   12.7347    0.2487   22.2846 C   0  0  0  0  0  0  0  0  0  0  0  0
   12.0751   -0.7829   21.6152 C   0  0  0  0  0  0  0  0  0  0  0  0
   12.9611   -1.8744   20.5818 Cl  0  0  0  0  0  0  0  0  0  0  0  0
   10.7049   -0.9438   21.7061 C   0  0  0  0  0  0  0  0  0  0  0  0
    9.9427   -0.1135   22.5290 C   0  0  0  0  0  0  0  0  0  0  0  0
   10.2268   -1.7125   21.1185 H   0  0  0  0  0  0  0  0  0  0  0  0
   13.8073    0.3710   22.1896 H   0  0  0  0  0  0  0  0  0  0  0  0
   12.3940    1.9963   23.5302 H   0  0  0  0  0  0  0  0  0  0  0  0
    8.5345   -0.5925   24.8439 H   0  0  0  0  0  0  0  0  0  0  0  0
    7.0161    0.1296   24.2866 H   0  0  0  0  0  0  0  0  0  0  0  0
    6.4138   -2.3150   20.9362 H   0  0  0  0  0  0  0  0  0  0  0  0
    8.0077   -1.9850   20.2237 H   0  0  0  0  0  0  0  0  0  0  0  0
    8.8676   -2.4134   22.3373 H   0  0  0  0  0  0  0  0  0  0  0  0
    7.6272   -2.5283   24.4062 H   0  0  0  0  0  0  0  0  0  0  0  0
    6.8737   -3.4762   23.1330 H   0  0  0  0  0  0  0  0  0  0  0  0
    6.1558   -1.9306   23.6153 H   0  0  0  0  0  0  0  0  0  0  0  0
  1  2  1  0
  2  3  1  0
  3  4  1  0
  4  5  1  0
  5  6  2  0
  6  7  1  0
  7  8  2  0
  8  9  1  0
  9 10  2  0
 10 11  1  0
 11 12  2  0
 12 13  1  0
 13 14  2  0
 13 15  1  0
 12 16  1  0
 11 17  1  0
 10 18  1  0
  8 19  1  0
  6 20  1  0
  4 21  1  0
 21 22  2  0
 21 23  1  0
 23 24  1  1
 24 25  1  0
 25 26  1  0
 26 27  1  0
 27 28  1  0
 28 29  1  0
 29 30  1  0
 30 31  1  0
 31 32  2  0
 31 33  2  0
 31 34  1  0
 34 35  1  0
 35 36  1  0
 35 37  1  0
 34 38  1  0
 34 39  1  0
 30 40  1  0
 30 41  1  0
 29 42  1  0
 29 43  1  0
 28 44  1  0
 27 45  1  0
 27 46  1  0
 26 47  1  0
 26 48  1  0
 25 49  1  0
 49 50  2  0
 49 51  1  0
 51 52  2  0
 52 53  1  0
 53 54  2  0
 54 55  1  0
 54 56  1  0
 56 57  2  0
 56 58  1  0
 53 59  1  0
 52 60  1  0
 24 61  1  0
 24 62  1  0
  3 63  1  0
  3 64  1  0
  2 65  1  6
  1 66  1  0
  1 67  1  0
  1 68  1  0
 23  2  1  0
 35 28  1  0
 57 51  1  0
 14  5  1  0
 57 23  1  0
 14  9  1  0
M  CHG  1  28   1
M  END
>  <cnnaffinities>  (42) 
[6.79053, 7.31708]

>  <score>  (42) 
6.79053

>  <index>  (42) 
41

>  <Smiles>  (42) 
C([C@]1(C(N(c2c(nc(c3c(c(c(c(c23)[H])[H])[H])[H])[H])[H])C(=O)[C@]21C(N(C(C([N+]1(C(C(S(=O)(=O)C(C1([H])[H])([H])[H])([H])[H])([H])[H])[H])([H])[H])([H])[H])C(=O)c1c(c(c(Cl)c(c21)[H])[H])[H])([H])[H])([H])[H])[H])([H])([H])[H]

>  <h>  (42) 
<NA>

>  <Training>  (42) 
True

>  <Success>  (42) 
True

>  <enamine_searched>  (42) 
False

>  <enamine_id>  (42) 
nan

$$$$

     RDKit          3D

 60 65  0  0  0  0  0  0  0  0999 V2000
    6.6934    4.3710   21.3001 C   0  0  0  0  0  0  0  0  0  0  0  0
    7.6657    3.9935   22.3062 N   0  0  0  0  0  0  0  0  0  0  0  0
    7.1771    3.3252   23.3868 C   0  0  0  0  0  0  0  0  0  0  0  0
    5.9759    3.1603   23.5372 O   0  0  0  0  0  0  0  0  0  0  0  0
    8.1589    2.7912   24.4196 C   0  0  0  0  0  0  0  0  0  0  0  0
    8.8533    1.6172   23.9362 N   0  0  0  0  0  0  0  0  0  0  0  0
    8.1172    0.3727   23.8133 C   0  0  0  0  0  0  0  0  0  0  0  0
    8.5427   -0.4237   22.5611 C   0  0  2  0  0  0  0  0  0  0  0  0
    8.0136    0.2624   21.2839 C   0  0  0  0  0  0  0  0  0  0  0  0
    8.4625    1.2569   20.7509 O   0  0  0  0  0  0  0  0  0  0  0  0
    6.9208   -0.4407   20.8269 N   0  0  0  0  0  0  0  0  0  0  0  0
    6.1256    0.0683   19.7699 C   0  0  0  0  0  0  0  0  0  0  0  0
    6.4648   -0.2252   18.4743 C   0  0  0  0  0  0  0  0  0  0  0  0
    5.7972    0.2232   17.3831 N   0  0  0  0  0  0  0  0  0  0  0  0
    4.7610    1.0014   17.5930 C   0  0  0  0  0  0  0  0  0  0  0  0
    4.3025    1.3911   18.8840 C   0  0  0  0  0  0  0  0  0  0  0  0
    3.1844    2.2484   19.0611 C   0  0  0  0  0  0  0  0  0  0  0  0
    2.7836    2.6223   20.3151 C   0  0  0  0  0  0  0  0  0  0  0  0
    3.4795    2.1605   21.4549 C   0  0  0  0  0  0  0  0  0  0  0  0
    4.5629    1.3255   21.3125 C   0  0  0  0  0  0  0  0  0  0  0  0
    5.0002    0.9134   20.0211 C   0  0  0  0  0  0  0  0  0  0  0  0
    5.1123    1.0108   22.1961 H   0  0  0  0  0  0  0  0  0  0  0  0
    3.1726    2.4811   22.4463 H   0  0  0  0  0  0  0  0  0  0  0  0
    1.9317    3.2846   20.4410 H   0  0  0  0  0  0  0  0  0  0  0  0
    2.6674    2.6157   18.1786 H   0  0  0  0  0  0  0  0  0  0  0  0
    4.2132    1.3607   16.7196 H   0  0  0  0  0  0  0  0  0  0  0  0
    7.3350   -0.8505   18.2849 H   0  0  0  0  0  0  0  0  0  0  0  0
    6.5778   -1.5893   21.6336 C   0  0  0  0  0  0  0  0  0  0  0  0
    7.8220   -1.7899   22.5110 C   0  0  2  0  0  0  0  0  0  0  0  0
    7.4541   -2.4945   23.8238 C   0  0  0  0  0  0  0  0  0  0  0  0
    6.8536   -3.8053   23.4325 C   0  0  0  0  0  0  0  0  0  0  0  0
    5.5777   -4.1221   23.5840 N   0  0  0  0  0  0  0  0  0  0  0  0
    5.4532   -5.3166   23.0115 N   0  0  0  0  0  0  0  0  0  0  0  0
    6.6099   -5.6940   22.5327 N   0  0  0  0  0  2  0  0  0  0  0  0
    7.5146   -4.7500   22.7764 N   0  0  0  0  0  0  0  0  0  0  0  0
    6.7088   -1.9351   24.3966 H   0  0  0  0  0  0  0  0  0  0  0  0
    8.3318   -2.6399   24.4603 H   0  0  0  0  0  0  0  0  0  0  0  0
    8.4772   -2.4956   21.9952 H   0  0  0  0  0  0  0  0  0  0  0  0
    6.3755   -2.4844   21.0357 H   0  0  0  0  0  0  0  0  0  0  0  0
    5.6820   -1.3952   22.2447 H   0  0  0  0  0  0  0  0  0  0  0  0
   10.0585   -0.4785   22.5146 C   0  0  0  0  0  0  0  0  0  0  0  0
   10.7181   -1.3735   21.6638 C   0  0  0  0  0  0  0  0  0  0  0  0
   12.1010   -1.3530   21.5707 C   0  0  0  0  0  0  0  0  0  0  0  0
   12.8789   -2.3663   20.3880 Cl  0  0  0  0  0  0  0  0  0  0  0  0
   12.8831   -0.4999   22.3544 C   0  0  0  0  0  0  0  0  0  0  0  0
   12.2347    0.4176   23.1548 C   0  0  0  0  0  0  0  0  0  0  0  0
   10.8419    0.4613   23.1942 C   0  0  0  0  0  0  0  0  0  0  0  0
   10.2199    1.6251   23.8987 C   0  0  0  0  0  0  0  0  0  0  0  0
   10.8905    2.5338   24.3647 O   0  0  0  0  0  0  0  0  0  0  0  0
   12.7794    1.1572   23.7321 H   0  0  0  0  0  0  0  0  0  0  0  0
   13.9679   -0.5423   22.3074 H   0  0  0  0  0  0  0  0  0  0  0  0
   10.1595   -2.0826   21.0607 H   0  0  0  0  0  0  0  0  0  0  0  0
    7.0441    0.5876   23.7839 H   0  0  0  0  0  0  0  0  0  0  0  0
    8.3071   -0.2494   24.6957 H   0  0  0  0  0  0  0  0  0  0  0  0
    7.5543    2.5460   25.3016 H   0  0  0  0  0  0  0  0  0  0  0  0
    8.9172    3.5377   24.6733 H   0  0  0  0  0  0  0  0  0  0  0  0
    8.6177    3.8858   21.9844 H   0  0  0  0  0  0  0  0  0  0  0  0
    6.1931    3.4908   20.8778 H   0  0  0  0  0  0  0  0  0  0  0  0
    5.9357    5.0122   21.7504 H   0  0  0  0  0  0  0  0  0  0  0  0
    7.1767    4.9197   20.4974 H   0  0  0  0  0  0  0  0  0  0  0  0
  1  2  1  0
  2  3  1  0
  3  4  2  0
  3  5  1  0
  5  6  1  0
  6  7  1  0
  8  7  1  1
  8  9  1  0
  9 10  2  0
  9 11  1  0
 11 12  1  0
 12 13  2  0
 13 14  1  0
 14 15  2  0
 15 16  1  0
 16 17  2  0
 17 18  1  0
 18 19  2  0
 19 20  1  0
 20 21  2  0
 20 22  1  0
 19 23  1  0
 18 24  1  0
 17 25  1  0
 15 26  1  0
 13 27  1  0
 11 28  1  0
 28 29  1  0
 29 30  1  0
 30 31  1  0
 31 32  1  0
 32 33  2  0
 33 34  1  0
 34 35  1  0
 30 36  1  0
 30 37  1  0
 29 38  1  6
 28 39  1  0
 28 40  1  0
  8 41  1  0
 41 42  2  0
 42 43  1  0
 43 44  1  0
 43 45  2  0
 45 46  1  0
 46 47  2  0
 47 48  1  0
 48 49  2  0
 46 50  1  0
 45 51  1  0
 42 52  1  0
  7 53  1  0
  7 54  1  0
  5 55  1  0
  5 56  1  0
  2 57  1  0
  1 58  1  0
  1 59  1  0
  1 60  1  0
 48  6  1  0
 29  8  1  0
 35 31  2  0
 47 41  1  0
 21 12  1  0
 21 16  1  0
M  CHG  1  34  -1
M  END
>  <cnnaffinities>  (43) 
[6.95268, 6.95225]

>  <score>  (43) 
6.95268

>  <index>  (43) 
42

>  <Smiles>  (43) 
C(N(C(=O)C(N1C([C@@]2(C(=O)N(c3c(nc(c4c(c(c(c(c34)[H])[H])[H])[H])[H])[H])C([C@@]2(C(c2nn[n-]n2)([H])[H])[H])([H])[H])c2c(c(Cl)c(c(c2C1=O)[H])[H])[H])([H])[H])([H])[H])[H])([H])([H])[H]

>  <h>  (43) 
<NA>

>  <Training>  (43) 
True

>  <Success>  (43) 
True

>  <enamine_searched>  (43) 
False

>  <enamine_id>  (43) 
nan

$$$$

     RDKit          3D

 62 67  0  0  0  0  0  0  0  0999 V2000
    4.5216    3.3907   24.9954 C   0  0  0  0  0  0  0  0  0  0  0  0
    5.6626    4.3189   25.4204 C   0  0  0  0  0  0  0  0  0  0  0  0
    6.7133    3.6353   26.1666 N   0  0  0  0  0  0  0  0  0  0  0  0
    6.6134    3.5819   27.5050 N   0  0  0  0  0  0  0  0  0  0  0  0
    7.6378    2.8454   27.9073 C   0  0  0  0  0  0  0  0  0  0  0  0
    8.4110    2.4095   26.8140 C   0  0  0  0  0  0  0  0  0  0  0  0
    7.7812    2.9248   25.7043 C   0  0  0  0  0  0  0  0  0  0  0  0
    8.1802    2.8070   24.2561 C   0  0  0  0  0  0  0  0  0  0  0  0
    8.8544    1.5680   23.9417 N   0  0  0  0  0  0  0  0  0  0  0  0
    8.0900    0.3443   23.8767 C   0  0  0  0  0  0  0  0  0  0  0  0
    8.4681   -0.4820   22.6263 C   0  0  2  0  0  0  0  0  0  0  0  0
    7.9650    0.2552   21.3600 C   0  0  0  0  0  0  0  0  0  0  0  0
    8.3872    1.2974   20.8997 O   0  0  0  0  0  0  0  0  0  0  0  0
    6.9100   -0.4460   20.8253 N   0  0  0  0  0  0  0  0  0  0  0  0
    6.1364    0.0991   19.7620 C   0  0  0  0  0  0  0  0  0  0  0  0
    6.4550   -0.2124   18.4685 C   0  0  0  0  0  0  0  0  0  0  0  0
    5.7711    0.2277   17.3812 N   0  0  0  0  0  0  0  0  0  0  0  0
    4.7443    1.0119   17.5947 C   0  0  0  0  0  0  0  0  0  0  0  0
    4.2923    1.4088   18.8846 C   0  0  0  0  0  0  0  0  0  0  0  0
    3.1661    2.2569   19.0642 C   0  0  0  0  0  0  0  0  0  0  0  0
    2.7603    2.6231   20.3163 C   0  0  0  0  0  0  0  0  0  0  0  0
    3.4613    2.1536   21.4530 C   0  0  0  0  0  0  0  0  0  0  0  0
    4.5533    1.3344   21.3057 C   0  0  0  0  0  0  0  0  0  0  0  0
    5.0042    0.9409   20.0141 C   0  0  0  0  0  0  0  0  0  0  0  0
    5.0863    0.9803   22.1842 H   0  0  0  0  0  0  0  0  0  0  0  0
    3.1370    2.4515   22.4471 H   0  0  0  0  0  0  0  0  0  0  0  0
    1.9097    3.2881   20.4409 H   0  0  0  0  0  0  0  0  0  0  0  0
    2.6559    2.6305   18.1791 H   0  0  0  0  0  0  0  0  0  0  0  0
    4.2153    1.3785   16.7128 H   0  0  0  0  0  0  0  0  0  0  0  0
    7.3004   -0.8642   18.2588 H   0  0  0  0  0  0  0  0  0  0  0  0
    6.5130   -1.6098   21.5929 C   0  0  0  0  0  0  0  0  0  0  0  0
    7.6913   -1.8422   22.5655 C   0  0  2  0  0  0  0  0  0  0  0  0
    7.2209   -2.4472   23.8981 C   0  0  0  0  0  0  0  0  0  0  0  0
    6.7427   -3.4224   23.7358 H   0  0  0  0  0  0  0  0  0  0  0  0
    8.0496   -2.5989   24.6005 H   0  0  0  0  0  0  0  0  0  0  0  0
    6.4823   -1.8022   24.3929 H   0  0  0  0  0  0  0  0  0  0  0  0
    8.3763   -2.5562   22.1007 H   0  0  0  0  0  0  0  0  0  0  0  0
    5.5740   -1.4304   22.1398 H   0  0  0  0  0  0  0  0  0  0  0  0
    6.3393   -2.4621   20.9254 H   0  0  0  0  0  0  0  0  0  0  0  0
    9.9868   -0.5919   22.5803 C   0  0  0  0  0  0  0  0  0  0  0  0
   10.6010   -1.5209   21.7304 C   0  0  0  0  0  0  0  0  0  0  0  0
   11.9785   -1.5604   21.6589 C   0  0  0  0  0  0  0  0  0  0  0  0
   12.5753   -2.3854   20.7841 F   0  0  0  0  0  0  0  0  0  0  0  0
   12.7933   -0.7464   22.4362 C   0  0  0  0  0  0  0  0  0  0  0  0
   12.1975    0.2201   23.2179 C   0  0  0  0  0  0  0  0  0  0  0  0
   10.8061    0.3308   23.2510 C   0  0  0  0  0  0  0  0  0  0  0  0
   10.2190    1.5247   23.9439 C   0  0  0  0  0  0  0  0  0  0  0  0
   10.9069    2.4023   24.4456 O   0  0  0  0  0  0  0  0  0  0  0  0
   12.7841    0.9414   23.7776 H   0  0  0  0  0  0  0  0  0  0  0  0
   13.8671   -0.8689   22.3610 H   0  0  0  0  0  0  0  0  0  0  0  0
   10.0325   -2.1809   21.0839 H   0  0  0  0  0  0  0  0  0  0  0  0
    8.2657   -0.2655   24.7791 H   0  0  0  0  0  0  0  0  0  0  0  0
    7.0346    0.6189   23.8371 H   0  0  0  0  0  0  0  0  0  0  0  0
    7.3064    2.8814   23.5926 H   0  0  0  0  0  0  0  0  0  0  0  0
    8.8788    3.6088   23.9928 H   0  0  0  0  0  0  0  0  0  0  0  0
    9.3152    1.8203   26.7921 H   0  0  0  0  0  0  0  0  0  0  0  0
    7.7743    2.6597   28.9682 H   0  0  0  0  0  0  0  0  0  0  0  0
    5.2954    5.1115   26.0832 H   0  0  0  0  0  0  0  0  0  0  0  0
    6.1296    4.7949   24.5501 H   0  0  0  0  0  0  0  0  0  0  0  0
    3.7780    3.9550   24.4213 H   0  0  0  0  0  0  0  0  0  0  0  0
    4.8876    2.5751   24.3568 H   0  0  0  0  0  0  0  0  0  0  0  0
    4.0276    2.9559   25.8715 H   0  0  0  0  0  0  0  0  0  0  0  0
  1  2  1  0
  2  3  1  0
  3  4  1  0
  4  5  2  0
  5  6  1  0
  6  7  2  0
  7  8  1  0
  8  9  1  0
  9 10  1  0
 11 10  1  1
 11 12  1  0
 12 13  2  0
 12 14  1  0
 14 15  1  0
 15 16  2  0
 16 17  1  0
 17 18  2  0
 18 19  1  0
 19 20  2  0
 20 21  1  0
 21 22  2  0
 22 23  1  0
 23 24  2  0
 23 25  1  0
 22 26  1  0
 21 27  1  0
 20 28  1  0
 18 29  1  0
 16 30  1  0
 14 31  1  0
 31 32  1  0
 32 33  1  0
 33 34  1  0
 33 35  1  0
 33 36  1  0
 32 37  1  6
 31 38  1  0
 31 39  1  0
 11 40  1  0
 40 41  2  0
 41 42  1  0
 42 43  1  0
 42 44  2  0
 44 45  1  0
 45 46  2  0
 46 47  1  0
 47 48  2  0
 45 49  1  0
 44 50  1  0
 41 51  1  0
 10 52  1  0
 10 53  1  0
  8 54  1  0
  8 55  1  0
  6 56  1  0
  5 57  1  0
  2 58  1  0
  2 59  1  0
  1 60  1  0
  1 61  1  0
  1 62  1  0
  7  3  1  0
 47  9  1  0
 32 11  1  0
 46 40  1  0
 24 15  1  0
 24 19  1  0
M  END
>  <cnnaffinities>  (44) 
[6.33562, 6.70985, 6.8215, 6.35701, 6.83623, 6.65815]

>  <score>  (44) 
6.33562

>  <index>  (44) 
43

>  <Smiles>  (44) 
C(C(n1nc(c(c1C(N1C([C@@]2(C(=O)N(c3c(nc(c4c(c(c(c(c34)[H])[H])[H])[H])[H])[H])C([C@@]2(C([H])([H])[H])[H])([H])[H])c2c(c(F)c(c(c2C1=O)[H])[H])[H])([H])[H])([H])[H])[H])[H])([H])[H])([H])([H])[H]

>  <h>  (44) 
<NA>

>  <Training>  (44) 
True

>  <Success>  (44) 
True

>  <enamine_searched>  (44) 
False

>  <enamine_id>  (44) 
nan

$$$$

     RDKit          3D

 56 60  0  0  0  0  0  0  0  0999 V2000
    6.6988    4.3564   21.2855 C   0  0  0  0  0  0  0  0  0  0  0  0
    7.6921    3.9791   22.2775 N   0  0  0  0  0  0  0  0  0  0  0  0
    7.2083    3.3078   23.3613 C   0  0  0  0  0  0  0  0  0  0  0  0
    6.0064    3.1550   23.5273 O   0  0  0  0  0  0  0  0  0  0  0  0
    8.1915    2.7533   24.3899 C   0  0  0  0  0  0  0  0  0  0  0  0
    8.8848    1.5820   23.8969 N   0  0  0  0  0  0  0  0  0  0  0  0
    8.1565    0.3276   23.7871 C   0  0  0  0  0  0  0  0  0  0  0  0
    8.5704   -0.4610   22.5245 C   0  0  2  0  0  0  0  0  0  0  0  0
    8.0442    0.2496   21.2592 C   0  0  0  0  0  0  0  0  0  0  0  0
    8.5107    1.2330   20.7212 O   0  0  0  0  0  0  0  0  0  0  0  0
    6.9256   -0.4175   20.8218 N   0  0  0  0  0  0  0  0  0  0  0  0
    6.1366    0.0919   19.7623 C   0  0  0  0  0  0  0  0  0  0  0  0
    6.4688   -0.2139   18.4684 C   0  0  0  0  0  0  0  0  0  0  0  0
    5.7926    0.2255   17.3798 N   0  0  0  0  0  0  0  0  0  0  0  0
    4.7569    1.0038   17.5908 C   0  0  0  0  0  0  0  0  0  0  0  0
    4.3012    1.3956   18.8817 C   0  0  0  0  0  0  0  0  0  0  0  0
    3.1825    2.2513   19.0613 C   0  0  0  0  0  0  0  0  0  0  0  0
    2.7823    2.6254   20.3152 C   0  0  0  0  0  0  0  0  0  0  0  0
    3.4786    2.1616   21.4548 C   0  0  0  0  0  0  0  0  0  0  0  0
    4.5627    1.3280   21.3096 C   0  0  0  0  0  0  0  0  0  0  0  0
    5.0033    0.9234   20.0172 C   0  0  0  0  0  0  0  0  0  0  0  0
    5.1123    1.0130   22.1928 H   0  0  0  0  0  0  0  0  0  0  0  0
    3.1742    2.4821   22.4473 H   0  0  0  0  0  0  0  0  0  0  0  0
    1.9333    3.2914   20.4415 H   0  0  0  0  0  0  0  0  0  0  0  0
    2.6681    2.6219   18.1790 H   0  0  0  0  0  0  0  0  0  0  0  0
    4.2104    1.3622   16.7165 H   0  0  0  0  0  0  0  0  0  0  0  0
    7.3331   -0.8465   18.2746 H   0  0  0  0  0  0  0  0  0  0  0  0
    6.5668   -1.5668   21.6201 C   0  0  0  0  0  0  0  0  0  0  0  0
    7.8399   -1.8322   22.4447 C   0  0  2  0  0  0  0  0  0  0  0  0
    7.4724   -2.5428   23.7433 C   0  0  0  0  0  0  0  0  0  0  0  0
    8.8920   -3.0326   24.7087 Cl  0  0  0  0  0  0  0  0  0  0  0  0
    6.8494   -1.9123   24.3828 H   0  0  0  0  0  0  0  0  0  0  0  0
    6.9154   -3.4576   23.5361 H   0  0  0  0  0  0  0  0  0  0  0  0
    8.4771   -2.5087   21.8748 H   0  0  0  0  0  0  0  0  0  0  0  0
    5.7026   -1.3571   22.2706 H   0  0  0  0  0  0  0  0  0  0  0  0
    6.3058   -2.4136   20.9783 H   0  0  0  0  0  0  0  0  0  0  0  0
   10.0848   -0.5142   22.4840 C   0  0  0  0  0  0  0  0  0  0  0  0
   10.7493   -1.4093   21.6381 C   0  0  0  0  0  0  0  0  0  0  0  0
   12.1313   -1.3776   21.5433 C   0  0  0  0  0  0  0  0  0  0  0  0
   12.9099   -2.3830   20.3555 Cl  0  0  0  0  0  0  0  0  0  0  0  0
   12.9108   -0.5190   22.3221 C   0  0  0  0  0  0  0  0  0  0  0  0
   12.2579    0.3994   23.1158 C   0  0  0  0  0  0  0  0  0  0  0  0
   10.8679    0.4339   23.1555 C   0  0  0  0  0  0  0  0  0  0  0  0
   10.2480    1.6002   23.8473 C   0  0  0  0  0  0  0  0  0  0  0  0
   10.9171    2.5253   24.3004 O   0  0  0  0  0  0  0  0  0  0  0  0
   12.7907    1.1488   23.6891 H   0  0  0  0  0  0  0  0  0  0  0  0
   13.9949   -0.5598   22.2770 H   0  0  0  0  0  0  0  0  0  0  0  0
   10.2006   -2.1319   21.0423 H   0  0  0  0  0  0  0  0  0  0  0  0
    7.0838    0.5501   23.7719 H   0  0  0  0  0  0  0  0  0  0  0  0
    8.3667   -0.2922   24.6667 H   0  0  0  0  0  0  0  0  0  0  0  0
    7.5785    2.5093   25.2701 H   0  0  0  0  0  0  0  0  0  0  0  0
    8.9598    3.4921   24.6445 H   0  0  0  0  0  0  0  0  0  0  0  0
    8.6422    3.8494   21.9598 H   0  0  0  0  0  0  0  0  0  0  0  0
    5.9524    4.9984   21.7632 H   0  0  0  0  0  0  0  0  0  0  0  0
    7.1782    4.9011   20.4827 H   0  0  0  0  0  0  0  0  0  0  0  0
    6.1971    3.4626   20.8879 H   0  0  0  0  0  0  0  0  0  0  0  0
  1  2  1  0
  2  3  1  0
  3  4  2  0
  3  5  1  0
  5  6  1  0
  6  7  1  0
  8  7  1  1
  8  9  1  0
  9 10  2  0
  9 11  1  0
 11 12  1  0
 12 13  2  0
 13 14  1  0
 14 15  2  0
 15 16  1  0
 16 17  2  0
 17 18  1  0
 18 19  2  0
 19 20  1  0
 20 21  2  0
 20 22  1  0
 19 23  1  0
 18 24  1  0
 17 25  1  0
 15 26  1  0
 13 27  1  0
 11 28  1  0
 28 29  1  0
 29 30  1  0
 30 31  1  0
 30 32  1  0
 30 33  1  0
 29 34  1  6
 28 35  1  0
 28 36  1  0
  8 37  1  0
 37 38  2  0
 38 39  1  0
 39 40  1  0
 39 41  2  0
 41 42  1  0
 42 43  2  0
 43 44  1  0
 44 45  2  0
 42 46  1  0
 41 47  1  0
 38 48  1  0
  7 49  1  0
  7 50  1  0
  5 51  1  0
  5 52  1  0
  2 53  1  0
  1 54  1  0
  1 55  1  0
  1 56  1  0
 44  6  1  0
 29  8  1  0
 43 37  1  0
 21 12  1  0
 21 16  1  0
M  END
>  <cnnaffinities>  (45) 
[6.87637]

>  <score>  (45) 
6.87637

>  <index>  (45) 
44

>  <Smiles>  (45) 
C(N(C(=O)C(N1C([C@@]2(C(=O)N(c3c(nc(c4c(c(c(c(c34)[H])[H])[H])[H])[H])[H])C([C@@]2(C(Cl)([H])[H])[H])([H])[H])c2c(c(Cl)c(c(c2C1=O)[H])[H])[H])([H])[H])([H])[H])[H])([H])([H])[H]

>  <h>  (45) 
<NA>

>  <Training>  (45) 
True

>  <Success>  (45) 
True

>  <enamine_searched>  (45) 
False

>  <enamine_id>  (45) 
nan

$$$$

     RDKit          3D

 60 64  0  0  0  0  0  0  0  0999 V2000
    6.5118    4.4023   21.4363 C   0  0  0  0  0  0  0  0  0  0  0  0
    7.4714    4.0078   22.4539 N   0  0  0  0  0  0  0  0  0  0  0  0
    7.0109    3.3376   23.5512 C   0  0  0  0  0  0  0  0  0  0  0  0
    5.8219    3.1134   23.7366 O   0  0  0  0  0  0  0  0  0  0  0  0
    8.1055    2.8774   24.5268 C   0  0  0  0  0  0  0  0  0  0  0  0
    8.8462    1.7677   23.9423 N   0  0  0  0  0  0  0  0  0  0  0  0
    8.1197    0.5236   23.7369 C   0  0  0  0  0  0  0  0  0  0  0  0
    8.5776   -0.2413   22.4702 C   0  0  2  0  0  0  0  0  0  0  0  0
    8.0517    0.4604   21.1900 C   0  0  0  0  0  0  0  0  0  0  0  0
    8.4656    1.4722   20.6630 O   0  0  0  0  0  0  0  0  0  0  0  0
    6.9940   -0.2697   20.7073 N   0  0  0  0  0  0  0  0  0  0  0  0
    6.1695    0.1989   19.6666 C   0  0  0  0  0  0  0  0  0  0  0  0
    6.4695   -0.1500   18.3800 C   0  0  0  0  0  0  0  0  0  0  0  0
    5.7488    0.2406   17.3042 N   0  0  0  0  0  0  0  0  0  0  0  0
    4.7025    1.0016   17.5300 C   0  0  0  0  0  0  0  0  0  0  0  0
    4.2599    1.3981   18.8271 C   0  0  0  0  0  0  0  0  0  0  0  0
    3.1311    2.2372   19.0306 C   0  0  0  0  0  0  0  0  0  0  0  0
    2.7513    2.6064   20.2939 C   0  0  0  0  0  0  0  0  0  0  0  0
    3.4738    2.1522   21.4212 C   0  0  0  0  0  0  0  0  0  0  0  0
    4.5709    1.3397   21.2540 C   0  0  0  0  0  0  0  0  0  0  0  0
    5.0023    0.9650   19.9473 C   0  0  0  0  0  0  0  0  0  0  0  0
    5.1465    1.0249   22.1212 H   0  0  0  0  0  0  0  0  0  0  0  0
    3.1919    2.4776   22.4198 H   0  0  0  0  0  0  0  0  0  0  0  0
    1.9007    3.2689   20.4365 H   0  0  0  0  0  0  0  0  0  0  0  0
    2.6040    2.6053   18.1567 H   0  0  0  0  0  0  0  0  0  0  0  0
    4.1453    1.3459   16.6584 H   0  0  0  0  0  0  0  0  0  0  0  0
    7.3417   -0.7735   18.1897 H   0  0  0  0  0  0  0  0  0  0  0  0
    6.6385   -1.4276   21.4773 C   0  0  0  0  0  0  0  0  0  0  0  0
    7.8717   -1.6349   22.3619 C   0  0  2  0  0  0  0  0  0  0  0  0
    7.4363   -2.3119   23.6494 C   0  0  0  0  0  0  0  0  0  0  0  0
    6.6772   -3.4420   23.2992 O   0  0  0  0  0  0  0  0  0  0  0  0
    6.2272   -4.1094   24.4428 C   0  0  0  0  0  0  0  0  0  0  0  0
    7.0877   -4.3724   25.0768 H   0  0  0  0  0  0  0  0  0  0  0  0
    5.7110   -5.0155   24.1168 H   0  0  0  0  0  0  0  0  0  0  0  0
    5.5327   -3.5055   25.0532 H   0  0  0  0  0  0  0  0  0  0  0  0
    8.2987   -2.5800   24.2826 H   0  0  0  0  0  0  0  0  0  0  0  0
    6.8005   -1.6371   24.2447 H   0  0  0  0  0  0  0  0  0  0  0  0
    8.5454   -2.3120   21.8327 H   0  0  0  0  0  0  0  0  0  0  0  0
    6.4285   -2.2783   20.8234 H   0  0  0  0  0  0  0  0  0  0  0  0
    5.7304   -1.2584   22.0761 H   0  0  0  0  0  0  0  0  0  0  0  0
   10.0944   -0.2748   22.4696 C   0  0  0  0  0  0  0  0  0  0  0  0
   10.7707   -1.1841   21.6467 C   0  0  0  0  0  0  0  0  0  0  0  0
   12.1517   -1.1857   21.5980 C   0  0  0  0  0  0  0  0  0  0  0  0
   12.9434   -2.2432   20.4626 Cl  0  0  0  0  0  0  0  0  0  0  0  0
   12.9078   -0.3366   22.4049 C   0  0  0  0  0  0  0  0  0  0  0  0
   12.2494    0.5700   23.2118 C   0  0  0  0  0  0  0  0  0  0  0  0
   10.8574    0.6473   23.2054 C   0  0  0  0  0  0  0  0  0  0  0  0
   10.2162    1.7707   23.9740 C   0  0  0  0  0  0  0  0  0  0  0  0
   10.8665    2.6292   24.5505 O   0  0  0  0  0  0  0  0  0  0  0  0
   12.7998    1.2438   23.8584 H   0  0  0  0  0  0  0  0  0  0  0  0
   13.9895   -0.3797   22.3758 H   0  0  0  0  0  0  0  0  0  0  0  0
   10.2382   -1.8993   21.0285 H   0  0  0  0  0  0  0  0  0  0  0  0
    7.0549    0.7639   23.6625 H   0  0  0  0  0  0  0  0  0  0  0  0
    8.2722   -0.1291   24.6076 H   0  0  0  0  0  0  0  0  0  0  0  0
    8.8372    3.6590   24.7677 H   0  0  0  0  0  0  0  0  0  0  0  0
    7.6192    2.5866   25.4642 H   0  0  0  0  0  0  0  0  0  0  0  0
    8.3980    3.7784   22.1205 H   0  0  0  0  0  0  0  0  0  0  0  0
    5.6819    4.9331   21.9020 H   0  0  0  0  0  0  0  0  0  0  0  0
    6.0807    3.5406   20.9112 H   0  0  0  0  0  0  0  0  0  0  0  0
    6.9845    5.0645   20.7099 H   0  0  0  0  0  0  0  0  0  0  0  0
  1  2  1  0
  2  3  1  0
  3  4  2  0
  3  5  1  0
  5  6  1  0
  6  7  1  0
  8  7  1  1
  8  9  1  0
  9 10  2  0
  9 11  1  0
 11 12  1  0
 12 13  2  0
 13 14  1  0
 14 15  2  0
 15 16  1  0
 16 17  2  0
 17 18  1  0
 18 19  2  0
 19 20  1  0
 20 21  2  0
 20 22  1  0
 19 23  1  0
 18 24  1  0
 17 25  1  0
 15 26  1  0
 13 27  1  0
 11 28  1  0
 28 29  1  0
 29 30  1  0
 30 31  1  0
 31 32  1  0
 32 33  1  0
 32 34  1  0
 32 35  1  0
 30 36  1  0
 30 37  1  0
 29 38  1  6
 28 39  1  0
 28 40  1  0
  8 41  1  0
 41 42  2  0
 42 43  1  0
 43 44  1  0
 43 45  2  0
 45 46  1  0
 46 47  2  0
 47 48  1  0
 48 49  2  0
 46 50  1  0
 45 51  1  0
 42 52  1  0
  7 53  1  0
  7 54  1  0
  5 55  1  0
  5 56  1  0
  2 57  1  0
  1 58  1  0
  1 59  1  0
  1 60  1  0
 48  6  1  0
 29  8  1  0
 47 41  1  0
 21 12  1  0
 21 16  1  0
M  END
>  <cnnaffinities>  (46) 
[6.48925, 6.70808]

>  <score>  (46) 
6.48925

>  <index>  (46) 
45

>  <Smiles>  (46) 
C(N(C(=O)C(N1C([C@@]2(C(=O)N(c3c(nc(c4c(c(c(c(c34)[H])[H])[H])[H])[H])[H])C([C@@]2(C(OC([H])([H])[H])([H])[H])[H])([H])[H])c2c(c(Cl)c(c(c2C1=O)[H])[H])[H])([H])[H])([H])[H])[H])([H])([H])[H]

>  <h>  (46) 
<NA>

>  <Training>  (46) 
True

>  <Success>  (46) 
True

>  <enamine_searched>  (46) 
False

>  <enamine_id>  (46) 
nan

$$$$

     RDKit          3D

 64 68  0  0  0  0  0  0  0  0999 V2000
    5.9385   -3.6710   26.1449 C   0  0  0  0  0  0  0  0  0  0  0  0
    5.4451   -4.0958   24.7671 C   0  0  0  0  0  0  0  0  0  0  0  0
    6.6837   -3.9231   23.4738 S   0  0  0  0  0  0  0  0  0  0  0  0
    6.0806   -4.3956   22.2293 O   0  0  0  0  0  0  0  0  0  0  0  0
    7.9126   -4.5387   23.9430 O   0  0  0  0  0  0  0  0  0  0  0  0
    6.9693   -2.2548   23.3888 N   0  0  0  0  0  0  0  0  0  0  0  0
    7.9384   -1.8226   22.3445 C   0  0  1  0  0  0  0  0  0  0  0  0
    7.3000   -1.7202   20.9457 C   0  0  0  0  0  0  0  0  0  0  0  0
    6.9351   -0.3205   20.8413 N   0  0  0  0  0  0  0  0  0  0  0  0
    6.1394    0.1523   19.7746 C   0  0  0  0  0  0  0  0  0  0  0  0
    6.4261   -0.2188   18.4833 C   0  0  0  0  0  0  0  0  0  0  0  0
    5.7502    0.2059   17.3901 N   0  0  0  0  0  0  0  0  0  0  0  0
    4.7291    1.0039   17.5930 C   0  0  0  0  0  0  0  0  0  0  0  0
    4.2868    1.4212   18.8808 C   0  0  0  0  0  0  0  0  0  0  0  0
    3.1505    2.2589   19.0427 C   0  0  0  0  0  0  0  0  0  0  0  0
    2.7291    2.6289   20.2901 C   0  0  0  0  0  0  0  0  0  0  0  0
    3.4218    2.1754   21.4336 C   0  0  0  0  0  0  0  0  0  0  0  0
    4.5263    1.3695   21.3060 C   0  0  0  0  0  0  0  0  0  0  0  0
    4.9978    0.9799   20.0187 C   0  0  0  0  0  0  0  0  0  0  0  0
    5.0467    1.0518   22.2032 H   0  0  0  0  0  0  0  0  0  0  0  0
    3.0922    2.4717   22.4255 H   0  0  0  0  0  0  0  0  0  0  0  0
    1.8651    3.2766   20.4065 H   0  0  0  0  0  0  0  0  0  0  0  0
    2.6372    2.6108   18.1527 H   0  0  0  0  0  0  0  0  0  0  0  0
    4.1876    1.3510   16.7136 H   0  0  0  0  0  0  0  0  0  0  0  0
    7.2716   -0.8757   18.2848 H   0  0  0  0  0  0  0  0  0  0  0  0
    7.7538    0.4879   21.6121 C   0  0  0  0  0  0  0  0  0  0  0  0
    7.8318    1.6962   21.5145 O   0  0  0  0  0  0  0  0  0  0  0  0
    8.5099   -0.4080   22.6342 C   0  0  1  0  0  0  0  0  0  0  0  0
    8.1702    0.0653   24.0737 C   0  0  0  0  0  0  0  0  0  0  0  0
    8.7806    1.3465   24.4005 N   0  0  0  0  0  0  0  0  0  0  0  0
    7.9863    2.3021   25.1516 C   0  0  0  0  0  0  0  0  0  0  0  0
    6.9128    2.9215   24.2573 C   0  0  0  0  0  0  0  0  0  0  0  0
    5.7735    2.4725   24.2113 O   0  0  0  0  0  0  0  0  0  0  0  0
    7.3253    3.9847   23.5234 N   0  0  0  0  0  0  0  0  0  0  0  0
    6.4449    4.5260   22.5030 C   0  0  0  0  0  0  0  0  0  0  0  0
    6.1816    3.7575   21.7643 H   0  0  0  0  0  0  0  0  0  0  0  0
    6.9445    5.3542   21.9967 H   0  0  0  0  0  0  0  0  0  0  0  0
    5.5281    4.9017   22.9683 H   0  0  0  0  0  0  0  0  0  0  0  0
    8.3208    4.1172   23.4070 H   0  0  0  0  0  0  0  0  0  0  0  0
    7.4908    1.8000   25.9887 H   0  0  0  0  0  0  0  0  0  0  0  0
    8.6644    3.0653   25.5356 H   0  0  0  0  0  0  0  0  0  0  0  0
   10.0229    1.7155   23.9713 C   0  0  0  0  0  0  0  0  0  0  0  0
   10.5351    2.7865   24.2772 O   0  0  0  0  0  0  0  0  0  0  0  0
   10.7366    0.7022   23.1293 C   0  0  0  0  0  0  0  0  0  0  0  0
   12.1243    0.8039   23.0279 C   0  0  0  0  0  0  0  0  0  0  0  0
   12.8440   -0.1227   22.2996 C   0  0  0  0  0  0  0  0  0  0  0  0
   12.1468   -1.1333   21.6395 C   0  0  0  0  0  0  0  0  0  0  0  0
   13.0667   -2.2811   20.7075 Cl  0  0  0  0  0  0  0  0  0  0  0  0
   10.7658   -1.2381   21.7104 C   0  0  0  0  0  0  0  0  0  0  0  0
   10.0303   -0.3228   22.4836 C   0  0  0  0  0  0  0  0  0  0  0  0
   10.2689   -2.0316   21.1600 H   0  0  0  0  0  0  0  0  0  0  0  0
   13.9264   -0.0713   22.2133 H   0  0  0  0  0  0  0  0  0  0  0  0
   12.6245    1.6221   23.5343 H   0  0  0  0  0  0  0  0  0  0  0  0
    7.0915    0.2010   24.1637 H   0  0  0  0  0  0  0  0  0  0  0  0
    8.5068   -0.7052   24.7774 H   0  0  0  0  0  0  0  0  0  0  0  0
    8.0503   -1.9743   20.1860 H   0  0  0  0  0  0  0  0  0  0  0  0
    6.4309   -2.3752   20.8380 H   0  0  0  0  0  0  0  0  0  0  0  0
    8.7330   -2.5663   22.3697 H   0  0  0  0  0  0  0  0  0  0  0  0
    6.0999   -1.7304   23.2890 H   0  0  0  0  0  0  0  0  0  0  0  0
    4.5715   -3.5210   24.4476 H   0  0  0  0  0  0  0  0  0  0  0  0
    5.1731   -5.1575   24.7148 H   0  0  0  0  0  0  0  0  0  0  0  0
    5.2596   -4.0648   26.9104 H   0  0  0  0  0  0  0  0  0  0  0  0
    6.9521   -4.0409   26.3278 H   0  0  0  0  0  0  0  0  0  0  0  0
    5.9399   -2.5798   26.2249 H   0  0  0  0  0  0  0  0  0  0  0  0
  1  2  1  0
  2  3  1  0
  3  4  2  0
  3  5  2  0
  3  6  1  0
  6  7  1  0
  7  8  1  0
  8  9  1  0
  9 10  1  0
 10 11  2  0
 11 12  1  0
 12 13  2  0
 13 14  1  0
 14 15  2  0
 15 16  1  0
 16 17  2  0
 17 18  1  0
 18 19  2  0
 18 20  1  0
 17 21  1  0
 16 22  1  0
 15 23  1  0
 13 24  1  0
 11 25  1  0
  9 26  1  0
 26 27  2  0
 26 28  1  0
 28 29  1  1
 29 30  1  0
 30 31  1  0
 31 32  1  0
 32 33  2  0
 32 34  1  0
 34 35  1  0
 35 36  1  0
 35 37  1  0
 35 38  1  0
 34 39  1  0
 31 40  1  0
 31 41  1  0
 30 42  1  0
 42 43  2  0
 42 44  1  0
 44 45  2  0
 45 46  1  0
 46 47  2  0
 47 48  1  0
 47 49  1  0
 49 50  2  0
 49 51  1  0
 46 52  1  0
 45 53  1  0
 29 54  1  0
 29 55  1  0
  8 56  1  0
  8 57  1  0
  7 58  1  6
  6 59  1  0
  2 60  1  0
  2 61  1  0
  1 62  1  0
  1 63  1  0
  1 64  1  0
 28  7  1  0
 50 44  1  0
 19 10  1  0
 50 28  1  0
 19 14  1  0
M  END
>  <cnnaffinities>  (47) 
[6.38861, 6.42706]

>  <score>  (47) 
6.38861

>  <index>  (47) 
46

>  <Smiles>  (47) 
C(C(S(=O)(=O)N([C@]1(C(N(c2c(nc(c3c(c(c(c(c23)[H])[H])[H])[H])[H])[H])C(=O)[C@]21C(N(C(C(=O)N(C([H])([H])[H])[H])([H])[H])C(=O)c1c(c(c(Cl)c(c21)[H])[H])[H])([H])[H])([H])[H])[H])[H])([H])[H])([H])([H])[H]

>  <h>  (47) 
<NA>

>  <Training>  (47) 
True

>  <Success>  (47) 
True

>  <enamine_searched>  (47) 
False

>  <enamine_id>  (47) 
nan

$$$$

     RDKit          3D

 56 60  0  0  0  0  0  0  0  0999 V2000
    6.7411    4.4462   21.3066 C   0  0  0  0  0  0  0  0  0  0  0  0
    7.6244    4.0371   22.3876 N   0  0  0  0  0  0  0  0  0  0  0  0
    7.0649    3.3706   23.4215 C   0  0  0  0  0  0  0  0  0  0  0  0
    5.8537    3.2379   23.5309 O   0  0  0  0  0  0  0  0  0  0  0  0
    8.0077    2.7961   24.4920 C   0  0  0  0  0  0  0  0  0  0  0  0
    8.7552    1.6287   24.0577 N   0  0  0  0  0  0  0  0  0  0  0  0
    8.0509    0.3662   23.9172 C   0  0  0  0  0  0  0  0  0  0  0  0
    8.4796   -0.3971   22.6392 C   0  0  2  0  0  0  0  0  0  0  0  0
    7.9513    0.3318   21.3747 C   0  0  0  0  0  0  0  0  0  0  0  0
    8.3523    1.3772   20.9079 O   0  0  0  0  0  0  0  0  0  0  0  0
    6.9295   -0.4085   20.8298 N   0  0  0  0  0  0  0  0  0  0  0  0
    6.1448    0.1088   19.7620 C   0  0  0  0  0  0  0  0  0  0  0  0
    6.4579   -0.2116   18.4667 C   0  0  0  0  0  0  0  0  0  0  0  0
    5.7737    0.2252   17.3803 N   0  0  0  0  0  0  0  0  0  0  0  0
    4.7464    1.0129   17.5911 C   0  0  0  0  0  0  0  0  0  0  0  0
    4.2943    1.4129   18.8814 C   0  0  0  0  0  0  0  0  0  0  0  0
    3.1698    2.2655   19.0640 C   0  0  0  0  0  0  0  0  0  0  0  0
    2.7653    2.6303   20.3187 C   0  0  0  0  0  0  0  0  0  0  0  0
    3.4621    2.1550   21.4518 C   0  0  0  0  0  0  0  0  0  0  0  0
    4.5521    1.3310   21.3019 C   0  0  0  0  0  0  0  0  0  0  0  0
    5.0089    0.9445   20.0105 C   0  0  0  0  0  0  0  0  0  0  0  0
    5.0845    0.9808   22.1812 H   0  0  0  0  0  0  0  0  0  0  0  0
    3.1564    2.4600   22.4481 H   0  0  0  0  0  0  0  0  0  0  0  0
    1.9181    3.3011   20.4454 H   0  0  0  0  0  0  0  0  0  0  0  0
    2.6614    2.6424   18.1803 H   0  0  0  0  0  0  0  0  0  0  0  0
    4.2165    1.3780   16.7110 H   0  0  0  0  0  0  0  0  0  0  0  0
    7.3029   -0.8641   18.2573 H   0  0  0  0  0  0  0  0  0  0  0  0
    6.5911   -1.6048   21.5733 C   0  0  0  0  0  0  0  0  0  0  0  0
    7.7811   -1.7966   22.5402 C   0  0  2  0  0  0  0  0  0  0  0  0
    7.3517   -2.4688   23.8518 C   0  0  0  0  0  0  0  0  0  0  0  0
    6.9343   -3.4640   23.6598 H   0  0  0  0  0  0  0  0  0  0  0  0
    6.5756   -1.8867   24.3638 H   0  0  0  0  0  0  0  0  0  0  0  0
    8.1883   -2.5909   24.5489 H   0  0  0  0  0  0  0  0  0  0  0  0
    8.5046   -2.4541   22.0531 H   0  0  0  0  0  0  0  0  0  0  0  0
    5.6449   -1.4808   22.1241 H   0  0  0  0  0  0  0  0  0  0  0  0
    6.4588   -2.4539   20.8924 H   0  0  0  0  0  0  0  0  0  0  0  0
   10.0001   -0.4147   22.5869 C   0  0  0  0  0  0  0  0  0  0  0  0
   10.6623   -1.3009   21.7277 C   0  0  0  0  0  0  0  0  0  0  0  0
   12.0401   -1.2890   21.6702 C   0  0  0  0  0  0  0  0  0  0  0  0
   12.6623   -2.1501   20.8491 F   0  0  0  0  0  0  0  0  0  0  0  0
   12.8132   -0.4090   22.4182 C   0  0  0  0  0  0  0  0  0  0  0  0
   12.1634    0.5172   23.2079 C   0  0  0  0  0  0  0  0  0  0  0  0
   10.7692    0.5401   23.2695 C   0  0  0  0  0  0  0  0  0  0  0  0
   10.1216    1.6766   24.0061 C   0  0  0  0  0  0  0  0  0  0  0  0
   10.7772    2.5920   24.4875 O   0  0  0  0  0  0  0  0  0  0  0  0
   12.7045    1.2651   23.7785 H   0  0  0  0  0  0  0  0  0  0  0  0
   13.8924   -0.4506   22.3400 H   0  0  0  0  0  0  0  0  0  0  0  0
   10.1318   -1.9796   21.0698 H   0  0  0  0  0  0  0  0  0  0  0  0
    6.9853    0.6002   23.8610 H   0  0  0  0  0  0  0  0  0  0  0  0
    8.2322   -0.2767   24.7944 H   0  0  0  0  0  0  0  0  0  0  0  0
    7.3559    2.5456   25.3375 H   0  0  0  0  0  0  0  0  0  0  0  0
    8.7622    3.5170   24.8205 H   0  0  0  0  0  0  0  0  0  0  0  0
    8.6248    3.9923   22.2571 H   0  0  0  0  0  0  0  0  0  0  0  0
    7.3033    4.9515   20.5265 H   0  0  0  0  0  0  0  0  0  0  0  0
    6.2152    3.5699   20.9041 H   0  0  0  0  0  0  0  0  0  0  0  0
    5.9921    5.1443   21.6891 H   0  0  0  0  0  0  0  0  0  0  0  0
  1  2  1  0
  2  3  1  0
  3  4  2  0
  3  5  1  0
  5  6  1  0
  6  7  1  0
  8  7  1  1
  8  9  1  0
  9 10  2  0
  9 11  1  0
 11 12  1  0
 12 13  2  0
 13 14  1  0
 14 15  2  0
 15 16  1  0
 16 17  2  0
 17 18  1  0
 18 19  2  0
 19 20  1  0
 20 21  2  0
 20 22  1  0
 19 23  1  0
 18 24  1  0
 17 25  1  0
 15 26  1  0
 13 27  1  0
 11 28  1  0
 28 29  1  0
 29 30  1  0
 30 31  1  0
 30 32  1  0
 30 33  1  0
 29 34  1  6
 28 35  1  0
 28 36  1  0
  8 37  1  0
 37 38  2  0
 38 39  1  0
 39 40  1  0
 39 41  2  0
 41 42  1  0
 42 43  2  0
 43 44  1  0
 44 45  2  0
 42 46  1  0
 41 47  1  0
 38 48  1  0
  7 49  1  0
  7 50  1  0
  5 51  1  0
  5 52  1  0
  2 53  1  0
  1 54  1  0
  1 55  1  0
  1 56  1  0
 44  6  1  0
 29  8  1  0
 43 37  1  0
 21 12  1  0
 21 16  1  0
M  END
>  <cnnaffinities>  (48) 
[6.53778]

>  <score>  (48) 
6.53778

>  <index>  (48) 
47

>  <Smiles>  (48) 
C(N(C(=O)C(N1C([C@@]2(C(=O)N(c3c(nc(c4c(c(c(c(c34)[H])[H])[H])[H])[H])[H])C([C@@]2(C([H])([H])[H])[H])([H])[H])c2c(c(F)c(c(c2C1=O)[H])[H])[H])([H])[H])([H])[H])[H])([H])([H])[H]

>  <h>  (48) 
<NA>

>  <Training>  (48) 
True

>  <Success>  (48) 
True

>  <enamine_searched>  (48) 
False

>  <enamine_id>  (48) 
nan

$$$$

     RDKit          3D

 41 43  0  0  0  0  0  0  0  0999 V2000
   12.3433   -1.3460   22.1011 C   0  0  0  0  0  0  0  0  0  0  0  0
   11.0294   -0.6331   22.3481 C   0  0  1  0  0  0  0  0  0  0  0  0
    9.9031   -1.6112   22.6939 C   0  0  0  0  0  0  0  0  0  0  0  0
    8.6663   -0.9409   23.3219 C   0  0  0  0  0  0  0  0  0  0  0  0
    8.3528    0.3964   22.8165 N   0  0  0  0  0  0  0  0  0  0  0  0
    7.8704    0.6134   21.5381 C   0  0  0  0  0  0  0  0  0  0  0  0
    8.1309    1.6327   20.9230 O   0  0  0  0  0  0  0  0  0  0  0  0
    6.9466   -0.4552   20.9116 C   0  0  0  0  0  0  0  0  0  0  0  0
    6.1144    0.0836   19.7698 C   0  0  0  0  0  0  0  0  0  0  0  0
    6.4269   -0.2076   18.4661 C   0  0  0  0  0  0  0  0  0  0  0  0
    5.7632    0.2407   17.3652 N   0  0  0  0  0  0  0  0  0  0  0  0
    4.7348    1.0275   17.5758 C   0  0  0  0  0  0  0  0  0  0  0  0
    4.2882    1.4210   18.8681 C   0  0  0  0  0  0  0  0  0  0  0  0
    3.1663    2.2731   19.0444 C   0  0  0  0  0  0  0  0  0  0  0  0
    2.7644    2.6443   20.2997 C   0  0  0  0  0  0  0  0  0  0  0  0
    3.4650    2.1709   21.4310 C   0  0  0  0  0  0  0  0  0  0  0  0
    4.5510    1.3408   21.2875 C   0  0  0  0  0  0  0  0  0  0  0  0
    4.9964    0.9440   19.9978 C   0  0  0  0  0  0  0  0  0  0  0  0
    5.0811    0.9906   22.1679 H   0  0  0  0  0  0  0  0  0  0  0  0
    3.1406    2.4709   22.4223 H   0  0  0  0  0  0  0  0  0  0  0  0
    1.9140    3.3079   20.4343 H   0  0  0  0  0  0  0  0  0  0  0  0
    2.6459    2.6479   18.1659 H   0  0  0  0  0  0  0  0  0  0  0  0
    4.1989    1.3982   16.6999 H   0  0  0  0  0  0  0  0  0  0  0  0
    7.2737   -0.8552   18.2445 H   0  0  0  0  0  0  0  0  0  0  0  0
    6.2914   -0.8955   21.6753 H   0  0  0  0  0  0  0  0  0  0  0  0
    7.5766   -1.2740   20.5362 H   0  0  0  0  0  0  0  0  0  0  0  0
    9.0758    1.4952   23.4621 C   0  0  0  0  0  0  0  0  0  0  0  0
   10.5753    1.5635   23.1569 C   0  0  0  0  0  0  0  0  0  0  0  0
   11.2442    0.3370   23.3655 O   0  0  0  0  0  0  0  0  0  0  0  0
   11.0613    2.2957   23.8207 H   0  0  0  0  0  0  0  0  0  0  0  0
   10.7287    1.9066   22.1237 H   0  0  0  0  0  0  0  0  0  0  0  0
    8.9597    1.3717   24.5431 H   0  0  0  0  0  0  0  0  0  0  0  0
    8.6040    2.4416   23.1862 H   0  0  0  0  0  0  0  0  0  0  0  0
    8.8276   -0.8428   24.3967 H   0  0  0  0  0  0  0  0  0  0  0  0
    7.7905   -1.5821   23.2013 H   0  0  0  0  0  0  0  0  0  0  0  0
   10.2853   -2.3824   23.3759 H   0  0  0  0  0  0  0  0  0  0  0  0
    9.6149   -2.1342   21.7720 H   0  0  0  0  0  0  0  0  0  0  0  0
   10.7363   -0.0996   21.4425 H   0  0  0  0  0  0  0  0  0  0  0  0
   13.1158   -0.6286   21.8107 H   0  0  0  0  0  0  0  0  0  0  0  0
   12.2327   -2.0796   21.2970 H   0  0  0  0  0  0  0  0  0  0  0  0
   12.6715   -1.8600   23.0087 H   0  0  0  0  0  0  0  0  0  0  0  0
  1  2  1  0
  2  3  1  0
  3  4  1  0
  4  5  1  0
  5  6  1  0
  6  7  2  0
  6  8  1  0
  8  9  1  0
  9 10  2  0
 10 11  1  0
 11 12  2  0
 12 13  1  0
 13 14  2  0
 14 15  1  0
 15 16  2  0
 16 17  1  0
 17 18  2  0
 17 19  1  0
 16 20  1  0
 15 21  1  0
 14 22  1  0
 12 23  1  0
 10 24  1  0
  8 25  1  0
  8 26  1  0
  5 27  1  0
 27 28  1  0
 28 29  1  0
 28 30  1  0
 28 31  1  0
 27 32  1  0
 27 33  1  0
  4 34  1  0
  4 35  1  0
  3 36  1  0
  3 37  1  0
  2 38  1  6
  1 39  1  0
  1 40  1  0
  1 41  1  0
 29  2  1  0
 18  9  1  0
 18 13  1  0
M  END
>  <cnnaffinities>  (49) 
[5.43462, 5.37311, 4.73615, 5.38391]

>  <score>  (49) 
5.43462

>  <index>  (49) 
48

>  <Smiles>  (49) 
C([C@]1(C(C(N(C(=O)C(c2c(nc(c3c(c(c(c(c23)[H])[H])[H])[H])[H])[H])([H])[H])C(C(O1)([H])[H])([H])[H])([H])[H])([H])[H])[H])([H])([H])[H]

>  <h>  (49) 
<NA>

>  <Training>  (49) 
True

>  <Success>  (49) 
True

>  <enamine_searched>  (49) 
False

>  <enamine_id>  (49) 
nan

$$$$

     RDKit          3D

 42 45  0  0  0  0  0  0  0  0999 V2000
    6.7965   -4.3187   21.6176 C   0  0  0  0  0  0  0  0  0  0  0  0
    7.3863   -3.1851   22.3114 N   0  0  0  0  0  0  0  0  0  0  0  0
    8.6947   -2.7201   21.8910 C   0  0  0  0  0  0  0  0  0  0  0  0
    8.8765   -1.2175   22.0742 C   0  0  1  0  0  0  0  0  0  0  0  0
    8.1970   -0.3185   21.0345 C   0  0  0  0  0  0  0  0  0  0  0  0
    8.8140    0.5604   20.4570 O   0  0  0  0  0  0  0  0  0  0  0  0
    6.8545   -0.5065   20.8598 N   0  0  0  0  0  0  0  0  0  0  0  0
    6.1303    0.0455   19.7819 C   0  0  0  0  0  0  0  0  0  0  0  0
    6.4836   -0.2344   18.4902 C   0  0  0  0  0  0  0  0  0  0  0  0
    5.8145    0.2112   17.3994 N   0  0  0  0  0  0  0  0  0  0  0  0
    4.7708    0.9755   17.6130 C   0  0  0  0  0  0  0  0  0  0  0  0
    4.3014    1.3510   18.8991 C   0  0  0  0  0  0  0  0  0  0  0  0
    3.1840    2.2048   19.0709 C   0  0  0  0  0  0  0  0  0  0  0  0
    2.7926    2.5814   20.3230 C   0  0  0  0  0  0  0  0  0  0  0  0
    3.4936    2.1208   21.4603 C   0  0  0  0  0  0  0  0  0  0  0  0
    4.5759    1.2832   21.3245 C   0  0  0  0  0  0  0  0  0  0  0  0
    4.9981    0.8785   20.0327 C   0  0  0  0  0  0  0  0  0  0  0  0
    5.1225    0.9378   22.1995 H   0  0  0  0  0  0  0  0  0  0  0  0
    3.1837    2.4525   22.4451 H   0  0  0  0  0  0  0  0  0  0  0  0
    1.9601    3.2682   20.4485 H   0  0  0  0  0  0  0  0  0  0  0  0
    2.6826    2.5782   18.1835 H   0  0  0  0  0  0  0  0  0  0  0  0
    4.2511    1.3456   16.7316 H   0  0  0  0  0  0  0  0  0  0  0  0
    7.3515   -0.8605   18.2917 H   0  0  0  0  0  0  0  0  0  0  0  0
    6.3915   -1.2108   21.4124 H   0  0  0  0  0  0  0  0  0  0  0  0
    8.4617   -0.8604   23.4757 C   0  0  0  0  0  0  0  0  0  0  0  0
    8.9824    0.2826   24.0765 C   0  0  0  0  0  0  0  0  0  0  0  0
    8.5480    0.6424   25.3423 C   0  0  0  0  0  0  0  0  0  0  0  0
    9.1871    2.0789   26.0834 Cl  0  0  0  0  0  0  0  0  0  0  0  0
    7.6044   -0.1232   26.0270 C   0  0  0  0  0  0  0  0  0  0  0  0
    7.1076   -1.2713   25.4374 C   0  0  0  0  0  0  0  0  0  0  0  0
    7.5259   -1.6339   24.1624 C   0  0  0  0  0  0  0  0  0  0  0  0
    6.9018   -2.8550   23.5488 C   0  0  0  0  0  0  0  0  0  0  0  0
    6.0095   -3.4853   24.0934 O   0  0  0  0  0  0  0  0  0  0  0  0
    6.3685   -1.9060   25.9166 H   0  0  0  0  0  0  0  0  0  0  0  0
    7.2612    0.1723   27.0094 H   0  0  0  0  0  0  0  0  0  0  0  0
    9.6977    0.8901   23.5326 H   0  0  0  0  0  0  0  0  0  0  0  0
    9.9316   -1.0088   21.9015 H   0  0  0  0  0  0  0  0  0  0  0  0
    9.5096   -3.2328   22.4343 H   0  0  0  0  0  0  0  0  0  0  0  0
    8.7942   -2.9538   20.8409 H   0  0  0  0  0  0  0  0  0  0  0  0
    7.5823   -4.9054   21.1344 H   0  0  0  0  0  0  0  0  0  0  0  0
    6.2840   -4.9479   22.3431 H   0  0  0  0  0  0  0  0  0  0  0  0
    6.0635   -4.0169   20.8605 H   0  0  0  0  0  0  0  0  0  0  0  0
  1  2  1  0
  2  3  1  0
  3  4  1  0
  4  5  1  0
  5  6  2  0
  5  7  1  0
  7  8  1  0
  8  9  2  0
  9 10  1  0
 10 11  2  0
 11 12  1  0
 12 13  2  0
 13 14  1  0
 14 15  2  0
 15 16  1  0
 16 17  2  0
 16 18  1  0
 15 19  1  0
 14 20  1  0
 13 21  1  0
 11 22  1  0
  9 23  1  0
  7 24  1  0
  4 25  1  0
 25 26  2  0
 26 27  1  0
 27 28  1  0
 27 29  2  0
 29 30  1  0
 30 31  2  0
 31 32  1  0
 32 33  2  0
 30 34  1  0
 29 35  1  0
 26 36  1  0
  4 37  1  1
  3 38  1  0
  3 39  1  0
  1 40  1  0
  1 41  1  0
  1 42  1  0
 32  2  1  0
 17  8  1  0
 31 25  1  0
 17 12  1  0
M  END
>  <cnnaffinities>  (50) 
[5.35416]

>  <score>  (50) 
5.35416

>  <index>  (50) 
49

>  <Smiles>  (50) 
C(N1C([C@@](C(=O)N(c2c(nc(c3c(c(c(c(c23)[H])[H])[H])[H])[H])[H])[H])(c2c(c(Cl)c(c(c2C1=O)[H])[H])[H])[H])([H])[H])([H])([H])[H]

>  <h>  (50) 
<NA>

>  <Training>  (50) 
True

>  <Success>  (50) 
True

>  <enamine_searched>  (50) 
False

>  <enamine_id>  (50) 
nan

$$$$

     RDKit          3D

 38 41  0  0  0  0  0  0  0  0999 V2000
    7.8617    1.7417   21.1704 O   0  0  0  0  0  0  0  0  0  0  0  0
    8.0093    0.5587   21.4162 C   0  0  0  0  0  0  0  0  0  0  0  0
    6.9695   -0.4692   20.8963 C   0  0  0  0  0  0  0  0  0  0  0  0
    6.1153    0.0813   19.7725 C   0  0  0  0  0  0  0  0  0  0  0  0
    6.4243   -0.2091   18.4678 C   0  0  0  0  0  0  0  0  0  0  0  0
    5.7638    0.2414   17.3674 N   0  0  0  0  0  0  0  0  0  0  0  0
    4.7345    1.0282   17.5769 C   0  0  0  0  0  0  0  0  0  0  0  0
    4.2885    1.4210   18.8688 C   0  0  0  0  0  0  0  0  0  0  0  0
    3.1662    2.2738   19.0429 C   0  0  0  0  0  0  0  0  0  0  0  0
    2.7655    2.6485   20.2979 C   0  0  0  0  0  0  0  0  0  0  0  0
    3.4676    2.1790   21.4292 C   0  0  0  0  0  0  0  0  0  0  0  0
    4.5530    1.3477   21.2865 C   0  0  0  0  0  0  0  0  0  0  0  0
    4.9972    0.9448   19.9991 C   0  0  0  0  0  0  0  0  0  0  0  0
    5.0927    1.0133   22.1655 H   0  0  0  0  0  0  0  0  0  0  0  0
    3.1461    2.4843   22.4199 H   0  0  0  0  0  0  0  0  0  0  0  0
    1.9153    3.3123   20.4309 H   0  0  0  0  0  0  0  0  0  0  0  0
    2.6452    2.6465   18.1637 H   0  0  0  0  0  0  0  0  0  0  0  0
    4.1991    1.3982   16.7004 H   0  0  0  0  0  0  0  0  0  0  0  0
    7.2713   -0.8553   18.2448 H   0  0  0  0  0  0  0  0  0  0  0  0
    6.3239   -0.7871   21.7266 H   0  0  0  0  0  0  0  0  0  0  0  0
    7.4808   -1.3737   20.5359 H   0  0  0  0  0  0  0  0  0  0  0  0
    9.1027    0.1045   22.1279 N   0  0  0  0  0  0  0  0  0  0  0  0
   10.3117    0.9323   22.1977 C   0  0  0  0  0  0  0  0  0  0  0  0
   10.8630    1.0271   23.6160 C   0  0  0  0  0  0  0  0  0  0  0  0
   10.9270   -0.3393   24.2240 C   0  0  0  0  0  0  0  0  0  0  0  0
   11.9146   -0.7817   25.5761 S   0  0  0  0  0  0  0  0  0  0  0  0
   11.2732   -2.3843   25.5672 C   0  0  0  0  0  0  0  0  0  0  0  0
   10.3570   -2.5620   24.5722 C   0  0  0  0  0  0  0  0  0  0  0  0
   10.1618   -1.3780   23.7961 C   0  0  0  0  0  0  0  0  0  0  0  0
    9.2121   -1.2563   22.6326 C   0  0  0  0  0  0  0  0  0  0  0  0
    9.5232   -1.9674   21.8514 H   0  0  0  0  0  0  0  0  0  0  0  0
    8.2305   -1.6038   22.9702 H   0  0  0  0  0  0  0  0  0  0  0  0
    9.8382   -3.5028   24.4029 H   0  0  0  0  0  0  0  0  0  0  0  0
   11.6044   -3.1084   26.3012 H   0  0  0  0  0  0  0  0  0  0  0  0
   10.2078    1.6642   24.2185 H   0  0  0  0  0  0  0  0  0  0  0  0
   11.8476    1.5074   23.6138 H   0  0  0  0  0  0  0  0  0  0  0  0
   11.0934    0.4989   21.5683 H   0  0  0  0  0  0  0  0  0  0  0  0
   10.0854    1.9234   21.8029 H   0  0  0  0  0  0  0  0  0  0  0  0
  1  2  2  0
  2  3  1  0
  3  4  1  0
  4  5  2  0
  5  6  1  0
  6  7  2  0
  7  8  1  0
  8  9  2  0
  9 10  1  0
 10 11  2  0
 11 12  1  0
 12 13  2  0
 12 14  1  0
 11 15  1  0
 10 16  1  0
  9 17  1  0
  7 18  1  0
  5 19  1  0
  3 20  1  0
  3 21  1  0
  2 22  1  0
 22 23  1  0
 23 24  1  0
 24 25  1  0
 25 26  1  0
 26 27  1  0
 27 28  2  0
 28 29  1  0
 29 30  1  0
 30 31  1  0
 30 32  1  0
 28 33  1  0
 27 34  1  0
 24 35  1  0
 24 36  1  0
 23 37  1  0
 23 38  1  0
 13  4  1  0
 30 22  1  0
 13  8  1  0
 29 25  2  0
M  END
>  <cnnaffinities>  (51) 
[5.48271]

>  <score>  (51) 
5.48271

>  <index>  (51) 
50

>  <Smiles>  (51) 
O=C(C(c1c(nc(c2c(c(c(c(c12)[H])[H])[H])[H])[H])[H])([H])[H])N1C(C(c2sc(c(c2C1([H])[H])[H])[H])([H])[H])([H])[H]

>  <h>  (51) 
<NA>

>  <Training>  (51) 
True

>  <Success>  (51) 
True

>  <enamine_searched>  (51) 
False

>  <enamine_id>  (51) 
nan

$$$$

     RDKit          3D

 67 73  0  0  0  0  0  0  0  0999 V2000
    7.1797    3.3475   29.5767 C   0  0  0  0  0  0  0  0  0  0  0  0
    6.7435    2.7475   28.2870 C   0  0  0  0  0  0  0  0  0  0  0  0
    5.7861    1.9142   28.0599 N   0  0  0  0  0  0  0  0  0  0  0  0
    5.7839    1.6820   26.6868 N   0  0  0  0  0  0  0  0  0  0  0  0
    6.7422    2.3869   26.2011 C   0  0  0  0  0  0  0  0  0  0  0  0
    7.1370    2.5031   24.7609 C   0  0  0  0  0  0  0  0  0  0  0  0
    8.0680    1.4802   24.3463 N   0  0  0  0  0  0  0  0  0  0  0  0
    7.5954    0.1454   24.0324 C   0  0  0  0  0  0  0  0  0  0  0  0
    8.2789   -0.4023   22.7503 C   0  0  2  0  0  0  0  0  0  0  0  0
    7.7785    0.3732   21.5129 C   0  0  0  0  0  0  0  0  0  0  0  0
    8.0544    1.5061   21.1855 O   0  0  0  0  0  0  0  0  0  0  0  0
    6.9217   -0.4428   20.8113 N   0  0  0  0  0  0  0  0  0  0  0  0
    6.1308    0.0767   19.7634 C   0  0  0  0  0  0  0  0  0  0  0  0
    6.4487   -0.2428   18.4702 C   0  0  0  0  0  0  0  0  0  0  0  0
    5.7814    0.2049   17.3791 N   0  0  0  0  0  0  0  0  0  0  0  0
    4.7569    0.9961   17.5939 C   0  0  0  0  0  0  0  0  0  0  0  0
    4.3112    1.3923   18.8877 C   0  0  0  0  0  0  0  0  0  0  0  0
    3.1854    2.2400   19.0531 C   0  0  0  0  0  0  0  0  0  0  0  0
    2.7659    2.6018   20.3025 C   0  0  0  0  0  0  0  0  0  0  0  0
    3.4473    2.1320   21.4466 C   0  0  0  0  0  0  0  0  0  0  0  0
    4.5445    1.3158   21.3151 C   0  0  0  0  0  0  0  0  0  0  0  0
    5.0085    0.9252   20.0215 C   0  0  0  0  0  0  0  0  0  0  0  0
    5.0598    0.9729   22.2092 H   0  0  0  0  0  0  0  0  0  0  0  0
    3.0960    2.4224   22.4325 H   0  0  0  0  0  0  0  0  0  0  0  0
    1.9071    3.2553   20.4210 H   0  0  0  0  0  0  0  0  0  0  0  0
    2.6794    2.6027   18.1629 H   0  0  0  0  0  0  0  0  0  0  0  0
    4.2111    1.3608   16.7224 H   0  0  0  0  0  0  0  0  0  0  0  0
    7.3055   -0.8868   18.2822 H   0  0  0  0  0  0  0  0  0  0  0  0
    6.6537   -1.7119   21.4465 C   0  0  0  0  0  0  0  0  0  0  0  0
    7.8313   -1.8594   22.4187 C   0  0  2  0  0  0  0  0  0  0  0  0
    7.5124   -2.7435   23.6385 C   0  0  0  0  0  0  0  0  0  0  0  0
    7.2952   -4.1458   23.3432 N   0  0  0  0  0  0  0  0  0  0  0  0
    6.1098   -4.6871   22.9465 C   0  0  0  0  0  0  0  0  0  0  0  0
    4.8540   -4.0854   23.1623 C   0  0  0  0  0  0  0  0  0  0  0  0
    3.7479   -4.7682   22.7014 C   0  0  0  0  0  0  0  0  0  0  0  0
    3.8261   -5.9186   22.0338 N   0  0  0  0  0  0  0  0  0  0  0  0
    5.0509   -6.4024   21.9020 C   0  0  0  0  0  0  0  0  0  0  0  0
    6.1926   -5.8839   22.3405 N   0  0  0  0  0  0  0  0  0  0  0  0
    5.1003   -7.3395   21.3500 H   0  0  0  0  0  0  0  0  0  0  0  0
    2.7438   -4.3762   22.8640 H   0  0  0  0  0  0  0  0  0  0  0  0
    4.7367   -3.1105   23.6173 H   0  0  0  0  0  0  0  0  0  0  0  0
    8.0920   -4.6943   23.0443 H   0  0  0  0  0  0  0  0  0  0  0  0
    6.6257   -2.3565   24.1531 H   0  0  0  0  0  0  0  0  0  0  0  0
    8.3354   -2.6776   24.3574 H   0  0  0  0  0  0  0  0  0  0  0  0
    8.6490   -2.3319   21.8640 H   0  0  0  0  0  0  0  0  0  0  0  0
    5.6846   -1.7055   21.9721 H   0  0  0  0  0  0  0  0  0  0  0  0
    6.6122   -2.5058   20.6981 H   0  0  0  0  0  0  0  0  0  0  0  0
    9.7710   -0.2082   22.9172 C   0  0  0  0  0  0  0  0  0  0  0  0
   10.6733   -0.9189   22.1209 C   0  0  0  0  0  0  0  0  0  0  0  0
   12.0325   -0.7196   22.2692 C   0  0  0  0  0  0  0  0  0  0  0  0
   13.1209   -1.6169   21.2570 Cl  0  0  0  0  0  0  0  0  0  0  0  0
   12.5516    0.1864   23.1929 C   0  0  0  0  0  0  0  0  0  0  0  0
   11.6611    0.9266   23.9398 C   0  0  0  0  0  0  0  0  0  0  0  0
   10.2901    0.7591   23.7841 C   0  0  0  0  0  0  0  0  0  0  0  0
    9.4039    1.7187   24.5059 C   0  0  0  0  0  0  0  0  0  0  0  0
    9.8401    2.6621   25.1477 O   0  0  0  0  0  0  0  0  0  0  0  0
   11.9855    1.6764   24.6454 H   0  0  0  0  0  0  0  0  0  0  0  0
   13.6225    0.3227   23.2968 H   0  0  0  0  0  0  0  0  0  0  0  0
   10.3330   -1.6242   21.3716 H   0  0  0  0  0  0  0  0  0  0  0  0
    7.8185   -0.5339   24.8685 H   0  0  0  0  0  0  0  0  0  0  0  0
    6.5064    0.1747   23.9201 H   0  0  0  0  0  0  0  0  0  0  0  0
    7.5923    3.4758   24.5613 H   0  0  0  0  0  0  0  0  0  0  0  0
    6.2329    2.4052   24.1499 H   0  0  0  0  0  0  0  0  0  0  0  0
    7.4107    3.0834   27.1504 O   0  0  0  0  0  0  0  0  0  0  0  0
    7.7099    4.2865   29.4052 H   0  0  0  0  0  0  0  0  0  0  0  0
    6.3156    3.5243   30.2205 H   0  0  0  0  0  0  0  0  0  0  0  0
    7.8493    2.6581   30.0997 H   0  0  0  0  0  0  0  0  0  0  0  0
  1  2  1  0
  2  3  2  0
  3  4  1  0
  4  5  2  0
  5  6  1  0
  6  7  1  0
  7  8  1  0
  9  8  1  1
  9 10  1  0
 10 11  2  0
 10 12  1  0
 12 13  1  0
 13 14  2  0
 14 15  1  0
 15 16  2  0
 16 17  1  0
 17 18  2  0
 18 19  1  0
 19 20  2  0
 20 21  1  0
 21 22  2  0
 21 23  1  0
 20 24  1  0
 19 25  1  0
 18 26  1  0
 16 27  1  0
 14 28  1  0
 12 29  1  0
 29 30  1  0
 30 31  1  0
 31 32  1  0
 32 33  1  0
 33 34  2  0
 34 35  1  0
 35 36  2  0
 36 37  1  0
 37 38  2  0
 37 39  1  0
 35 40  1  0
 34 41  1  0
 32 42  1  0
 31 43  1  0
 31 44  1  0
 30 45  1  6
 29 46  1  0
 29 47  1  0
  9 48  1  0
 48 49  2  0
 49 50  1  0
 50 51  1  0
 50 52  2  0
 52 53  1  0
 53 54  2  0
 54 55  1  0
 55 56  2  0
 53 57  1  0
 52 58  1  0
 49 59  1  0
  8 60  1  0
  8 61  1  0
  6 62  1  0
  6 63  1  0
  5 64  1  0
  1 65  1  0
  1 66  1  0
  1 67  1  0
 64  2  1  0
 55  7  1  0
 30  9  1  0
 38 33  1  0
 54 48  1  0
 22 13  1  0
 22 17  1  0
M  END
>  <cnnaffinities>  (52) 
[6.84033, 6.53745]

>  <score>  (52) 
6.84033

>  <index>  (52) 
51

>  <Smiles>  (52) 
C(c1nnc(C(N2C([C@@]3(C(=O)N(c4c(nc(c5c(c(c(c(c45)[H])[H])[H])[H])[H])[H])C([C@@]3(C(N(c3c(c(nc(n3)[H])[H])[H])[H])([H])[H])[H])([H])[H])c3c(c(Cl)c(c(c3C2=O)[H])[H])[H])([H])[H])([H])[H])o1)([H])([H])[H]

>  <h>  (52) 
<NA>

>  <Training>  (52) 
True

>  <Success>  (52) 
True

>  <enamine_searched>  (52) 
False

>  <enamine_id>  (52) 
nan

$$$$

     RDKit          3D

 66 71  0  0  0  0  0  0  0  0999 V2000
    6.5736    4.3587   21.3815 C   0  0  0  0  0  0  0  0  0  0  0  0
    7.5738    3.9055   22.3390 N   0  0  0  0  0  0  0  0  0  0  0  0
    7.1523    3.2379   23.4528 C   0  0  0  0  0  0  0  0  0  0  0  0
    5.9703    3.0603   23.6881 O   0  0  0  0  0  0  0  0  0  0  0  0
    8.2338    2.7222   24.4116 C   0  0  0  0  0  0  0  0  0  0  0  0
    8.9021    1.5468   23.8848 N   0  0  0  0  0  0  0  0  0  0  0  0
    8.1569    0.2996   23.7697 C   0  0  0  0  0  0  0  0  0  0  0  0
    8.5764   -0.5042   22.5120 C   0  0  2  0  0  0  0  0  0  0  0  0
    8.0686    0.2174   21.2373 C   0  0  0  0  0  0  0  0  0  0  0  0
    8.5756    1.1657   20.6741 O   0  0  0  0  0  0  0  0  0  0  0  0
    6.9129   -0.4036   20.8271 N   0  0  0  0  0  0  0  0  0  0  0  0
    6.1479    0.1071   19.7542 C   0  0  0  0  0  0  0  0  0  0  0  0
    6.4926   -0.1993   18.4635 C   0  0  0  0  0  0  0  0  0  0  0  0
    5.8050    0.2207   17.3748 N   0  0  0  0  0  0  0  0  0  0  0  0
    4.7556    0.9808   17.5891 C   0  0  0  0  0  0  0  0  0  0  0  0
    4.2947    1.3792   18.8769 C   0  0  0  0  0  0  0  0  0  0  0  0
    3.1698    2.2266   19.0558 C   0  0  0  0  0  0  0  0  0  0  0  0
    2.7748    2.6088   20.3099 C   0  0  0  0  0  0  0  0  0  0  0  0
    3.4856    2.1623   21.4478 C   0  0  0  0  0  0  0  0  0  0  0  0
    4.5755    1.3369   21.3030 C   0  0  0  0  0  0  0  0  0  0  0  0
    5.0086    0.9278   20.0097 C   0  0  0  0  0  0  0  0  0  0  0  0
    5.1402    1.0341   22.1811 H   0  0  0  0  0  0  0  0  0  0  0  0
    3.1922    2.4966   22.4389 H   0  0  0  0  0  0  0  0  0  0  0  0
    1.9246    3.2741   20.4327 H   0  0  0  0  0  0  0  0  0  0  0  0
    2.6555    2.5863   18.1701 H   0  0  0  0  0  0  0  0  0  0  0  0
    4.2136    1.3305   16.7119 H   0  0  0  0  0  0  0  0  0  0  0  0
    7.3664   -0.8208   18.2734 H   0  0  0  0  0  0  0  0  0  0  0  0
    6.5306   -1.5612   21.6043 C   0  0  0  0  0  0  0  0  0  0  0  0
    7.8058   -1.8674   22.4111 C   0  0  2  0  0  0  0  0  0  0  0  0
    7.4807   -2.6142   23.7214 C   0  0  0  0  0  0  0  0  0  0  0  0
    7.0355   -3.9784   23.4996 N   0  0  0  0  0  0  0  0  0  0  0  0
    5.7633   -4.4327   23.3195 C   0  0  0  0  0  0  0  0  0  0  0  0
    4.6118   -3.8287   23.8762 C   0  0  0  0  0  0  0  0  0  0  0  0
    3.4223   -4.5014   23.6477 C   0  0  0  0  0  0  0  0  0  0  0  0
    3.3220   -5.6182   22.9213 N   0  0  0  0  0  0  0  0  0  0  0  0
    4.4633   -6.0851   22.4364 C   0  0  0  0  0  0  0  0  0  0  0  0
    5.6771   -5.5715   22.6027 N   0  0  0  0  0  0  0  0  0  0  0  0
    4.3942   -6.9963   21.8350 H   0  0  0  0  0  0  0  0  0  0  0  0
    2.4776   -4.1355   24.0483 H   0  0  0  0  0  0  0  0  0  0  0  0
    4.6433   -2.9079   24.4647 H   0  0  0  0  0  0  0  0  0  0  0  0
    7.7271   -4.6052   23.1096 H   0  0  0  0  0  0  0  0  0  0  0  0
    6.6985   -2.0645   24.2590 H   0  0  0  0  0  0  0  0  0  0  0  0
    8.3754   -2.6402   24.3587 H   0  0  0  0  0  0  0  0  0  0  0  0
    8.4239   -2.5281   21.7969 H   0  0  0  0  0  0  0  0  0  0  0  0
    6.2153   -2.3870   20.9552 H   0  0  0  0  0  0  0  0  0  0  0  0
    5.6814   -1.3355   22.2690 H   0  0  0  0  0  0  0  0  0  0  0  0
   10.0973   -0.5608   22.4696 C   0  0  0  0  0  0  0  0  0  0  0  0
   10.7523   -1.4488   21.6055 C   0  0  0  0  0  0  0  0  0  0  0  0
   12.1330   -1.4210   21.4908 C   0  0  0  0  0  0  0  0  0  0  0  0
   12.9084   -2.4055   20.2780 Cl  0  0  0  0  0  0  0  0  0  0  0  0
   12.9110   -0.5626   22.2711 C   0  0  0  0  0  0  0  0  0  0  0  0
   12.2777    0.3294   23.1129 C   0  0  0  0  0  0  0  0  0  0  0  0
   10.8844    0.3794   23.1524 C   0  0  0  0  0  0  0  0  0  0  0  0
   10.2706    1.5470   23.8567 C   0  0  0  0  0  0  0  0  0  0  0  0
   10.9509    2.4474   24.3328 O   0  0  0  0  0  0  0  0  0  0  0  0
   12.8289    1.0317   23.7339 H   0  0  0  0  0  0  0  0  0  0  0  0
   13.9911   -0.5690   22.1846 H   0  0  0  0  0  0  0  0  0  0  0  0
   10.1938   -2.1391   20.9837 H   0  0  0  0  0  0  0  0  0  0  0  0
    8.3237   -0.3196   24.6639 H   0  0  0  0  0  0  0  0  0  0  0  0
    7.0933    0.5490   23.7155 H   0  0  0  0  0  0  0  0  0  0  0  0
    9.0288    3.4563   24.5703 H   0  0  0  0  0  0  0  0  0  0  0  0
    7.7561    2.5154   25.3808 H   0  0  0  0  0  0  0  0  0  0  0  0
    8.4921    3.6865   21.9780 H   0  0  0  0  0  0  0  0  0  0  0  0
    5.7538    4.8399   21.9242 H   0  0  0  0  0  0  0  0  0  0  0  0
    7.0128    5.0858   20.6899 H   0  0  0  0  0  0  0  0  0  0  0  0
    6.1523    3.5142   20.8162 H   0  0  0  0  0  0  0  0  0  0  0  0
  1  2  1  0
  2  3  1  0
  3  4  2  0
  3  5  1  0
  5  6  1  0
  6  7  1  0
  8  7  1  1
  8  9  1  0
  9 10  2  0
  9 11  1  0
 11 12  1  0
 12 13  2  0
 13 14  1  0
 14 15  2  0
 15 16  1  0
 16 17  2  0
 17 18  1  0
 18 19  2  0
 19 20  1  0
 20 21  2  0
 20 22  1  0
 19 23  1  0
 18 24  1  0
 17 25  1  0
 15 26  1  0
 13 27  1  0
 11 28  1  0
 28 29  1  0
 29 30  1  0
 30 31  1  0
 31 32  1  0
 32 33  2  0
 33 34  1  0
 34 35  2  0
 35 36  1  0
 36 37  2  0
 36 38  1  0
 34 39  1  0
 33 40  1  0
 31 41  1  0
 30 42  1  0
 30 43  1  0
 29 44  1  6
 28 45  1  0
 28 46  1  0
  8 47  1  0
 47 48  2  0
 48 49  1  0
 49 50  1  0
 49 51  2  0
 51 52  1  0
 52 53  2  0
 53 54  1  0
 54 55  2  0
 52 56  1  0
 51 57  1  0
 48 58  1  0
  7 59  1  0
  7 60  1  0
  5 61  1  0
  5 62  1  0
  2 63  1  0
  1 64  1  0
  1 65  1  0
  1 66  1  0
 54  6  1  0
 29  8  1  0
 37 32  1  0
 53 47  1  0
 21 12  1  0
 21 16  1  0
M  END
>  <cnnaffinities>  (53) 
[6.91704, 6.54414]

>  <score>  (53) 
6.91704

>  <index>  (53) 
52

>  <Smiles>  (53) 
C(N(C(=O)C(N1C([C@@]2(C(=O)N(c3c(nc(c4c(c(c(c(c34)[H])[H])[H])[H])[H])[H])C([C@@]2(C(N(c2c(c(nc(n2)[H])[H])[H])[H])([H])[H])[H])([H])[H])c2c(c(Cl)c(c(c2C1=O)[H])[H])[H])([H])[H])([H])[H])[H])([H])([H])[H]

>  <h>  (53) 
<NA>

>  <Training>  (53) 
True

>  <Success>  (53) 
True

>  <enamine_searched>  (53) 
False

>  <enamine_id>  (53) 
nan

$$$$

     RDKit          3D

 77 84  0  0  0  0  0  0  0  0999 V2000
   10.2523    2.7352   24.9552 O   0  0  0  0  0  0  0  0  0  0  0  0
    9.7466    1.7820   24.3740 C   0  0  0  0  0  0  0  0  0  0  0  0
   10.5738    0.8352   23.5501 C   0  0  0  0  0  0  0  0  0  0  0  0
   11.9613    1.0013   23.5548 C   0  0  0  0  0  0  0  0  0  0  0  0
   12.7723    0.2324   22.7361 C   0  0  0  0  0  0  0  0  0  0  0  0
   12.1751   -0.7041   21.8920 C   0  0  0  0  0  0  0  0  0  0  0  0
   13.1520   -1.6286   20.7757 Cl  0  0  0  0  0  0  0  0  0  0  0  0
   10.8034   -0.8922   21.8900 C   0  0  0  0  0  0  0  0  0  0  0  0
    9.9770   -0.1527   22.7514 C   0  0  0  0  0  0  0  0  0  0  0  0
    8.4669   -0.3154   22.7131 C   0  0  1  0  0  0  0  0  0  0  0  0
    7.8546    0.2427   24.0226 C   0  0  0  0  0  0  0  0  0  0  0  0
    8.4039    1.5339   24.3799 N   0  0  0  0  0  0  0  0  0  0  0  0
    7.4875    2.5238   24.9167 C   0  0  0  0  0  0  0  0  0  0  0  0
    6.7305    3.2448   23.8072 C   0  0  0  0  0  0  0  0  0  0  0  0
    7.6752    4.1005   23.0215 N   0  0  0  0  0  4  0  0  0  0  0  0
    8.2806    5.3034   23.8018 C   0  0  0  0  0  0  0  0  0  0  0  0
    7.7385    6.3077   22.7658 C   0  0  0  0  0  0  0  0  0  0  0  0
    8.6481    7.3007   22.0570 C   0  0  0  0  0  0  0  0  0  0  0  0
    7.7161    8.3679   22.2537 O   0  0  0  0  0  0  0  0  0  0  0  0
    6.8399    7.5233   23.0056 C   0  0  0  0  0  0  0  0  0  0  0  0
    5.8581    7.4375   22.5236 H   0  0  0  0  0  0  0  0  0  0  0  0
    6.7042    7.8836   24.0327 H   0  0  0  0  0  0  0  0  0  0  0  0
    8.8172    7.0666   21.0012 H   0  0  0  0  0  0  0  0  0  0  0  0
    9.6091    7.5004   22.5507 H   0  0  0  0  0  0  0  0  0  0  0  0
    7.1248    5.1018   22.0305 C   0  0  0  0  0  0  0  0  0  0  0  0
    6.0365    5.0821   22.0009 H   0  0  0  0  0  0  0  0  0  0  0  0
    7.5316    4.9145   21.0412 H   0  0  0  0  0  0  0  0  0  0  0  0
    9.3576    5.1992   23.8944 H   0  0  0  0  0  0  0  0  0  0  0  0
    7.8278    5.3645   24.7884 H   0  0  0  0  0  0  0  0  0  0  0  0
    8.3409    3.4795   22.5292 H   0  0  0  0  0  0  0  0  0  0  0  0
    5.9214    3.8655   24.2079 H   0  0  0  0  0  0  0  0  0  0  0  0
    6.3023    2.5206   23.1159 H   0  0  0  0  0  0  0  0  0  0  0  0
    6.7853    2.0242   25.5910 H   0  0  0  0  0  0  0  0  0  0  0  0
    8.0832    3.2101   25.5182 H   0  0  0  0  0  0  0  0  0  0  0  0
    6.7727    0.3449   23.8726 H   0  0  0  0  0  0  0  0  0  0  0  0
    8.0145   -0.4636   24.8455 H   0  0  0  0  0  0  0  0  0  0  0  0
    7.8571    0.4846   21.5428 C   0  0  0  0  0  0  0  0  0  0  0  0
    8.0180    1.6743   21.3217 O   0  0  0  0  0  0  0  0  0  0  0  0
    7.0317   -0.3573   20.8324 N   0  0  0  0  0  0  0  0  0  0  0  0
    6.2028    0.1079   19.7872 C   0  0  0  0  0  0  0  0  0  0  0  0
    6.4935   -0.2607   18.4996 C   0  0  0  0  0  0  0  0  0  0  0  0
    5.8054    0.1574   17.4118 N   0  0  0  0  0  0  0  0  0  0  0  0
    4.7826    0.9523   17.6210 C   0  0  0  0  0  0  0  0  0  0  0  0
    4.3491    1.3663   18.9128 C   0  0  0  0  0  0  0  0  0  0  0  0
    3.2333    2.2271   19.0723 C   0  0  0  0  0  0  0  0  0  0  0  0
    2.8117    2.5962   20.3198 C   0  0  0  0  0  0  0  0  0  0  0  0
    3.4784    2.1103   21.4643 C   0  0  0  0  0  0  0  0  0  0  0  0
    4.5616    1.2702   21.3369 C   0  0  0  0  0  0  0  0  0  0  0  0
    5.0484    0.9078   20.0456 C   0  0  0  0  0  0  0  0  0  0  0  0
    5.0444    0.8816   22.2285 H   0  0  0  0  0  0  0  0  0  0  0  0
    3.1342    2.4075   22.4500 H   0  0  0  0  0  0  0  0  0  0  0  0
    1.9615    3.2636   20.4322 H   0  0  0  0  0  0  0  0  0  0  0  0
    2.7379    2.5896   18.1790 H   0  0  0  0  0  0  0  0  0  0  0  0
    4.2365    1.3099   16.7471 H   0  0  0  0  0  0  0  0  0  0  0  0
    7.3473   -0.9094   18.3105 H   0  0  0  0  0  0  0  0  0  0  0  0
    6.7864   -1.6272   21.4920 C   0  0  0  0  0  0  0  0  0  0  0  0
    7.9794   -1.7655   22.4323 C   0  0  2  0  0  0  0  0  0  0  0  0
    7.6521   -2.6125   23.6543 C   0  0  0  0  0  0  0  0  0  0  0  0
    8.8019   -2.7215   24.5227 N   0  0  0  0  0  0  0  0  0  0  0  0
    8.7781   -3.4332   25.6717 C   0  0  0  0  0  0  0  0  0  0  0  0
    9.9530   -3.5944   26.3117 N   0  0  0  0  0  0  0  0  0  0  0  0
    9.9140   -4.3720   27.3858 C   0  0  0  0  0  0  0  0  0  0  0  0
    8.7414   -4.9525   27.8588 C   0  0  0  0  0  0  0  0  0  0  0  0
    7.5852   -4.6367   27.1615 C   0  0  0  0  0  0  0  0  0  0  0  0
    7.5751   -3.8921   26.0611 N   0  0  0  0  0  0  0  0  0  0  0  0
    6.6195   -5.0127   27.4930 H   0  0  0  0  0  0  0  0  0  0  0  0
    8.7386   -5.6361   28.6964 H   0  0  0  0  0  0  0  0  0  0  0  0
   10.8642   -4.5468   27.8925 H   0  0  0  0  0  0  0  0  0  0  0  0
    9.7099   -2.4395   24.1897 H   0  0  0  0  0  0  0  0  0  0  0  0
    7.2980   -3.6015   23.3450 H   0  0  0  0  0  0  0  0  0  0  0  0
    6.8292   -2.1618   24.2187 H   0  0  0  0  0  0  0  0  0  0  0  0
    8.7704   -2.2803   21.8844 H   0  0  0  0  0  0  0  0  0  0  0  0
    5.8471   -1.6323   22.0692 H   0  0  0  0  0  0  0  0  0  0  0  0
    6.7279   -2.4511   20.7756 H   0  0  0  0  0  0  0  0  0  0  0  0
   10.3903   -1.5905   21.1717 H   0  0  0  0  0  0  0  0  0  0  0  0
   13.8488    0.3709   22.7185 H   0  0  0  0  0  0  0  0  0  0  0  0
   12.3888    1.7621   24.2004 H   0  0  0  0  0  0  0  0  0  0  0  0
  1  2  2  0
  2  3  1  0
  3  4  2  0
  4  5  1  0
  5  6  2  0
  6  7  1  0
  6  8  1  0
  8  9  2  0
  9 10  1  0
 10 11  1  1
 11 12  1  0
 12 13  1  0
 13 14  1  0
 14 15  1  0
 15 16  1  0
 16 17  1  0
 17 18  1  0
 18 19  1  0
 19 20  1  0
 20 21  1  0
 20 22  1  0
 18 23  1  0
 18 24  1  0
 17 25  1  0
 25 26  1  0
 25 27  1  0
 16 28  1  0
 16 29  1  0
 15 30  1  0
 14 31  1  0
 14 32  1  0
 13 33  1  0
 13 34  1  0
 11 35  1  0
 11 36  1  0
 10 37  1  0
 37 38  2  0
 37 39  1  0
 39 40  1  0
 40 41  2  0
 41 42  1  0
 42 43  2  0
 43 44  1  0
 44 45  2  0
 45 46  1  0
 46 47  2  0
 47 48  1  0
 48 49  2  0
 48 50  1  0
 47 51  1  0
 46 52  1  0
 45 53  1  0
 43 54  1  0
 41 55  1  0
 39 56  1  0
 56 57  1  0
 57 58  1  0
 58 59  1  0
 59 60  1  0
 60 61  2  0
 61 62  1  0
 62 63  2  0
 63 64  1  0
 64 65  2  0
 64 66  1  0
 63 67  1  0
 62 68  1  0
 59 69  1  0
 58 70  1  0
 58 71  1  0
 57 72  1  6
 56 73  1  0
 56 74  1  0
  8 75  1  0
  5 76  1  0
  4 77  1  0
 12  2  1  0
 25 15  1  0
 49 40  1  0
 65 60  1  0
  9  3  1  0
 57 10  1  0
 20 17  1  0
 49 44  1  0
M  CHG  1  15   1
M  END
>  <cnnaffinities>  (54) 
[6.4735]

>  <score>  (54) 
6.4735

>  <index>  (54) 
53

>  <Smiles>  (54) 
O=C1c2c(c(c(Cl)c(c2[C@@]2(C(N1C(C([N+]1(C(C3(C(OC3([H])[H])([H])[H])C1([H])[H])([H])[H])[H])([H])[H])([H])[H])([H])[H])C(=O)N(c1c(nc(c3c(c(c(c(c13)[H])[H])[H])[H])[H])[H])C([C@@]2(C(N(c1nc(c(c(n1)[H])[H])[H])[H])([H])[H])[H])([H])[H])[H])[H])[H]

>  <h>  (54) 
<NA>

>  <Training>  (54) 
True

>  <Success>  (54) 
True

>  <enamine_searched>  (54) 
False

>  <enamine_id>  (54) 
nan

$$$$

     RDKit          3D

 66 71  0  0  0  0  0  0  0  0999 V2000
    6.6918    4.3684   21.2740 C   0  0  0  0  0  0  0  0  0  0  0  0
    7.7201    4.0090   22.2399 N   0  0  0  0  0  0  0  0  0  0  0  0
    7.2824    3.3256   23.3375 C   0  0  0  0  0  0  0  0  0  0  0  0
    6.0909    3.1230   23.5333 O   0  0  0  0  0  0  0  0  0  0  0  0
    8.3086    2.8146   24.3434 C   0  0  0  0  0  0  0  0  0  0  0  0
    8.9494    1.6061   23.8706 N   0  0  0  0  0  0  0  0  0  0  0  0
    8.1649    0.3845   23.7835 C   0  0  0  0  0  0  0  0  0  0  0  0
    8.5571   -0.4598   22.5473 C   0  0  2  0  0  0  0  0  0  0  0  0
    8.0518    0.2399   21.2658 C   0  0  0  0  0  0  0  0  0  0  0  0
    8.5367    1.2137   20.7259 O   0  0  0  0  0  0  0  0  0  0  0  0
    6.9346   -0.4242   20.8182 N   0  0  0  0  0  0  0  0  0  0  0  0
    6.1453    0.0924   19.7642 C   0  0  0  0  0  0  0  0  0  0  0  0
    6.4764   -0.2120   18.4698 C   0  0  0  0  0  0  0  0  0  0  0  0
    5.7973    0.2205   17.3803 N   0  0  0  0  0  0  0  0  0  0  0  0
    4.7606    0.9968   17.5946 C   0  0  0  0  0  0  0  0  0  0  0  0
    4.3064    1.3911   18.8868 C   0  0  0  0  0  0  0  0  0  0  0  0
    3.1871    2.2476   19.0634 C   0  0  0  0  0  0  0  0  0  0  0  0
    2.7917    2.6282   20.3168 C   0  0  0  0  0  0  0  0  0  0  0  0
    3.4907    2.1708   21.4565 C   0  0  0  0  0  0  0  0  0  0  0  0
    4.5749    1.3357   21.3140 C   0  0  0  0  0  0  0  0  0  0  0  0
    5.0127    0.9244   20.0218 C   0  0  0  0  0  0  0  0  0  0  0  0
    5.1248    1.0267   22.1983 H   0  0  0  0  0  0  0  0  0  0  0  0
    3.1843    2.4948   22.4471 H   0  0  0  0  0  0  0  0  0  0  0  0
    1.9427    3.2938   20.4402 H   0  0  0  0  0  0  0  0  0  0  0  0
    2.6744    2.6151   18.1782 H   0  0  0  0  0  0  0  0  0  0  0  0
    4.2153    1.3569   16.7209 H   0  0  0  0  0  0  0  0  0  0  0  0
    7.3388   -0.8475   18.2847 H   0  0  0  0  0  0  0  0  0  0  0  0
    6.5475   -1.5549   21.6276 C   0  0  0  0  0  0  0  0  0  0  0  0
    7.7833   -1.8158   22.4955 C   0  0  2  0  0  0  0  0  0  0  0  0
    7.3674   -2.4647   23.8136 C   0  0  0  0  0  0  0  0  0  0  0  0
    8.5192   -2.8866   24.5672 N   0  0  0  0  0  0  0  0  0  0  0  0
    8.4099   -3.3489   25.8462 C   0  0  0  0  0  0  0  0  0  0  0  0
    9.5676   -3.5580   26.6262 C   0  0  0  0  0  0  0  0  0  0  0  0
    9.5036   -3.8497   27.9059 N   0  0  0  0  0  0  0  0  0  0  0  0
    8.2764   -4.0290   28.4185 C   0  0  0  0  0  0  0  0  0  0  0  0
    7.1520   -3.9537   27.6260 C   0  0  0  0  0  0  0  0  0  0  0  0
    7.1952   -3.6020   26.3357 N   0  0  0  0  0  0  0  0  0  0  0  0
    6.1720   -4.1533   28.0501 H   0  0  0  0  0  0  0  0  0  0  0  0
    8.1970   -4.2381   29.4764 H   0  0  0  0  0  0  0  0  0  0  0  0
   10.5507   -3.4865   26.1628 H   0  0  0  0  0  0  0  0  0  0  0  0
    9.4251   -2.5854   24.2421 H   0  0  0  0  0  0  0  0  0  0  0  0
    6.7488   -3.3485   23.6271 H   0  0  0  0  0  0  0  0  0  0  0  0
    6.7440   -1.7747   24.4044 H   0  0  0  0  0  0  0  0  0  0  0  0
    8.4251   -2.5378   21.9783 H   0  0  0  0  0  0  0  0  0  0  0  0
    6.2971   -2.4167   21.0021 H   0  0  0  0  0  0  0  0  0  0  0  0
    5.6611   -1.3318   22.2442 H   0  0  0  0  0  0  0  0  0  0  0  0
   10.0715   -0.5563   22.4909 C   0  0  0  0  0  0  0  0  0  0  0  0
   10.6978   -1.4572   21.6237 C   0  0  0  0  0  0  0  0  0  0  0  0
   12.0761   -1.4474   21.4864 C   0  0  0  0  0  0  0  0  0  0  0  0
   12.7908   -2.4315   20.2468 Cl  0  0  0  0  0  0  0  0  0  0  0  0
   12.8957   -0.6258   22.2623 C   0  0  0  0  0  0  0  0  0  0  0  0
   12.2785    0.2913   23.0858 C   0  0  0  0  0  0  0  0  0  0  0  0
   10.8900    0.3714   23.1472 C   0  0  0  0  0  0  0  0  0  0  0  0
   10.3133    1.5687   23.8250 C   0  0  0  0  0  0  0  0  0  0  0  0
   11.0173    2.4735   24.2584 O   0  0  0  0  0  0  0  0  0  0  0  0
   12.8434    1.0083   23.6681 H   0  0  0  0  0  0  0  0  0  0  0  0
   13.9787   -0.6807   22.1940 H   0  0  0  0  0  0  0  0  0  0  0  0
   10.1252   -2.1480   21.0160 H   0  0  0  0  0  0  0  0  0  0  0  0
    7.1043    0.6508   23.7376 H   0  0  0  0  0  0  0  0  0  0  0  0
    8.3187   -0.2134   24.6906 H   0  0  0  0  0  0  0  0  0  0  0  0
    9.1009    3.5459   24.5288 H   0  0  0  0  0  0  0  0  0  0  0  0
    7.7632    2.6186   25.2774 H   0  0  0  0  0  0  0  0  0  0  0  0
    8.6594    3.8613   21.8894 H   0  0  0  0  0  0  0  0  0  0  0  0
    7.1180    4.9840   20.4821 H   0  0  0  0  0  0  0  0  0  0  0  0
    5.9350    4.9655   21.7925 H   0  0  0  0  0  0  0  0  0  0  0  0
    6.2325    3.4600   20.8484 H   0  0  0  0  0  0  0  0  0  0  0  0
  1  2  1  0
  2  3  1  0
  3  4  2  0
  3  5  1  0
  5  6  1  0
  6  7  1  0
  8  7  1  1
  8  9  1  0
  9 10  2  0
  9 11  1  0
 11 12  1  0
 12 13  2  0
 13 14  1  0
 14 15  2  0
 15 16  1  0
 16 17  2  0
 17 18  1  0
 18 19  2  0
 19 20  1  0
 20 21  2  0
 20 22  1  0
 19 23  1  0
 18 24  1  0
 17 25  1  0
 15 26  1  0
 13 27  1  0
 11 28  1  0
 28 29  1  0
 29 30  1  0
 30 31  1  0
 31 32  1  0
 32 33  2  0
 33 34  1  0
 34 35  2  0
 35 36  1  0
 36 37  2  0
 36 38  1  0
 35 39  1  0
 33 40  1  0
 31 41  1  0
 30 42  1  0
 30 43  1  0
 29 44  1  6
 28 45  1  0
 28 46  1  0
  8 47  1  0
 47 48  2  0
 48 49  1  0
 49 50  1  0
 49 51  2  0
 51 52  1  0
 52 53  2  0
 53 54  1  0
 54 55  2  0
 52 56  1  0
 51 57  1  0
 48 58  1  0
  7 59  1  0
  7 60  1  0
  5 61  1  0
  5 62  1  0
  2 63  1  0
  1 64  1  0
  1 65  1  0
  1 66  1  0
 54  6  1  0
 29  8  1  0
 37 32  1  0
 53 47  1  0
 21 12  1  0
 21 16  1  0
M  END
>  <cnnaffinities>  (55) 
[6.51588, 6.24954]

>  <score>  (55) 
6.51588

>  <index>  (55) 
54

>  <Smiles>  (55) 
C(N(C(=O)C(N1C([C@@]2(C(=O)N(c3c(nc(c4c(c(c(c(c34)[H])[H])[H])[H])[H])[H])C([C@@]2(C(N(c2c(nc(c(n2)[H])[H])[H])[H])([H])[H])[H])([H])[H])c2c(c(Cl)c(c(c2C1=O)[H])[H])[H])([H])[H])([H])[H])[H])([H])([H])[H]

>  <h>  (55) 
<NA>

>  <Training>  (55) 
True

>  <Success>  (55) 
True

>  <enamine_searched>  (55) 
False

>  <enamine_id>  (55) 
nan

$$$$

     RDKit          3D

 56 61  0  0  0  0  0  0  0  0999 V2000
    5.5661    4.8329   21.4543 C   0  0  0  0  0  0  0  0  0  0  0  0
    6.5802    4.5696   22.4608 N   0  0  0  0  0  0  0  0  0  0  0  0
    7.7844    5.1691   22.5686 C   0  0  0  0  0  0  0  0  0  0  0  0
    8.4641    4.5279   23.5759 C   0  0  0  0  0  0  0  0  0  0  0  0
    7.5855    3.5109   24.0083 C   0  0  0  0  0  0  0  0  0  0  0  0
    7.8916    2.4343   25.0238 C   0  0  0  0  0  0  0  0  0  0  0  0
    8.6651    1.3120   24.4824 N   0  0  0  0  0  0  0  0  0  0  0  0
    8.0012    0.0703   24.1465 C   0  0  0  0  0  0  0  0  0  0  0  0
    8.3668   -0.4394   22.7306 C   0  0  1  0  0  0  0  0  0  0  0  0
    7.7339   -1.8342   22.5269 C   0  0  0  0  0  0  0  0  0  0  0  0
    6.9811   -1.8107   21.1830 C   0  0  0  0  0  0  0  0  0  0  0  0
    6.8703   -0.3987   20.8791 N   0  0  0  0  0  0  0  0  0  0  0  0
    6.1294    0.1058   19.7797 C   0  0  0  0  0  0  0  0  0  0  0  0
    6.4483   -0.2269   18.4876 C   0  0  0  0  0  0  0  0  0  0  0  0
    5.7778    0.2190   17.3947 N   0  0  0  0  0  0  0  0  0  0  0  0
    4.7536    1.0129   17.5997 C   0  0  0  0  0  0  0  0  0  0  0  0
    4.2945    1.4168   18.8837 C   0  0  0  0  0  0  0  0  0  0  0  0
    3.1599    2.2550   19.0629 C   0  0  0  0  0  0  0  0  0  0  0  0
    2.7336    2.5983   20.3151 C   0  0  0  0  0  0  0  0  0  0  0  0
    3.4176    2.1141   21.4535 C   0  0  0  0  0  0  0  0  0  0  0  0
    4.5191    1.3111   21.3080 C   0  0  0  0  0  0  0  0  0  0  0  0
    5.0001    0.9507   20.0184 C   0  0  0  0  0  0  0  0  0  0  0  0
    5.0271    0.9378   22.1917 H   0  0  0  0  0  0  0  0  0  0  0  0
    3.0812    2.3933   22.4490 H   0  0  0  0  0  0  0  0  0  0  0  0
    1.8753    3.2523   20.4414 H   0  0  0  0  0  0  0  0  0  0  0  0
    2.6553    2.6311   18.1776 H   0  0  0  0  0  0  0  0  0  0  0  0
    4.2290    1.3764   16.7163 H   0  0  0  0  0  0  0  0  0  0  0  0
    7.2922   -0.8808   18.2679 H   0  0  0  0  0  0  0  0  0  0  0  0
    7.7096    0.4136   21.6099 C   0  0  0  0  0  0  0  0  0  0  0  0
    7.9031    1.5810   21.3695 O   0  0  0  0  0  0  0  0  0  0  0  0
    5.9808   -2.2588   21.2400 H   0  0  0  0  0  0  0  0  0  0  0  0
    7.5407   -2.3262   20.4006 H   0  0  0  0  0  0  0  0  0  0  0  0
    8.4882   -2.6240   22.5684 H   0  0  0  0  0  0  0  0  0  0  0  0
    7.0279   -2.0331   23.3409 H   0  0  0  0  0  0  0  0  0  0  0  0
    9.8722   -0.3939   22.5771 C   0  0  0  0  0  0  0  0  0  0  0  0
   10.4973   -1.1966   21.6143 C   0  0  0  0  0  0  0  0  0  0  0  0
   11.8692   -1.1282   21.4515 C   0  0  0  0  0  0  0  0  0  0  0  0
   12.6696   -2.0916   20.2433 Cl  0  0  0  0  0  0  0  0  0  0  0  0
   12.6380   -0.2352   22.1939 C   0  0  0  0  0  0  0  0  0  0  0  0
   12.0195    0.5860   23.1143 C   0  0  0  0  0  0  0  0  0  0  0  0
   10.6420    0.5145   23.3142 C   0  0  0  0  0  0  0  0  0  0  0  0
   10.0106    1.4779   24.2831 C   0  0  0  0  0  0  0  0  0  0  0  0
   10.6450    2.3726   24.8274 O   0  0  0  0  0  0  0  0  0  0  0  0
   12.5784    1.3105   23.6949 H   0  0  0  0  0  0  0  0  0  0  0  0
   13.7010   -0.1740   21.9991 H   0  0  0  0  0  0  0  0  0  0  0  0
    9.9188   -1.8383   20.9552 H   0  0  0  0  0  0  0  0  0  0  0  0
    8.2559   -0.7227   24.8721 H   0  0  0  0  0  0  0  0  0  0  0  0
    6.9241    0.2592   24.1787 H   0  0  0  0  0  0  0  0  0  0  0  0
    6.9580    2.0343   25.4404 H   0  0  0  0  0  0  0  0  0  0  0  0
    8.4886    2.8655   25.8329 H   0  0  0  0  0  0  0  0  0  0  0  0
    6.4307    3.5662   23.3486 N   0  0  0  0  0  0  0  0  0  0  0  0
    9.4552    4.7093   23.9643 H   0  0  0  0  0  0  0  0  0  0  0  0
    8.0559    5.9780   21.9016 H   0  0  0  0  0  0  0  0  0  0  0  0
    4.5848    4.7737   21.9327 H   0  0  0  0  0  0  0  0  0  0  0  0
    5.7350    5.8449   21.0689 H   0  0  0  0  0  0  0  0  0  0  0  0
    5.6084    4.0964   20.6383 H   0  0  0  0  0  0  0  0  0  0  0  0
  1  2  1  0
  2  3  1  0
  3  4  2  0
  4  5  1  0
  5  6  1  0
  6  7  1  0
  7  8  1  0
  9  8  1  1
  9 10  1  0
 10 11  1  0
 11 12  1  0
 12 13  1  0
 13 14  2  0
 14 15  1  0
 15 16  2  0
 16 17  1  0
 17 18  2  0
 18 19  1  0
 19 20  2  0
 20 21  1  0
 21 22  2  0
 21 23  1  0
 20 24  1  0
 19 25  1  0
 18 26  1  0
 16 27  1  0
 14 28  1  0
 12 29  1  0
 29 30  2  0
 11 31  1  0
 11 32  1  0
 10 33  1  0
 10 34  1  0
  9 35  1  0
 35 36  2  0
 36 37  1  0
 37 38  1  0
 37 39  2  0
 39 40  1  0
 40 41  2  0
 41 42  1  0
 42 43  2  0
 40 44  1  0
 39 45  1  0
 36 46  1  0
  8 47  1  0
  8 48  1  0
  6 49  1  0
  6 50  1  0
  5 51  2  0
  4 52  1  0
  3 53  1  0
  1 54  1  0
  1 55  1  0
  1 56  1  0
 51  2  1  0
 42  7  1  0
 29  9  1  0
 41 35  1  0
 22 13  1  0
 22 17  1  0
M  END
>  <cnnaffinities>  (56) 
[6.41188]

>  <score>  (56) 
6.41188

>  <index>  (56) 
55

>  <Smiles>  (56) 
C(n1c(c(c(C(N2C([C@]3(C(C(N(c4c(nc(c5c(c(c(c(c45)[H])[H])[H])[H])[H])[H])C3=O)([H])[H])([H])[H])c3c(c(Cl)c(c(c3C2=O)[H])[H])[H])([H])[H])([H])[H])n1)[H])[H])([H])([H])[H]

>  <h>  (56) 
<NA>

>  <Training>  (56) 
True

>  <Success>  (56) 
True

>  <enamine_searched>  (56) 
False

>  <enamine_id>  (56) 
nan

$$$$

     RDKit          3D

 41 43  0  0  0  0  0  0  0  0999 V2000
    8.0658    1.6442   20.9620 O   0  0  0  0  0  0  0  0  0  0  0  0
    7.8795    0.5927   21.5447 C   0  0  0  0  0  0  0  0  0  0  0  0
    6.9429   -0.4655   20.9167 C   0  0  0  0  0  0  0  0  0  0  0  0
    6.1161    0.0849   19.7737 C   0  0  0  0  0  0  0  0  0  0  0  0
    6.4279   -0.2074   18.4682 C   0  0  0  0  0  0  0  0  0  0  0  0
    5.7644    0.2402   17.3675 N   0  0  0  0  0  0  0  0  0  0  0  0
    4.7348    1.0280   17.5765 C   0  0  0  0  0  0  0  0  0  0  0  0
    4.2893    1.4211   18.8689 C   0  0  0  0  0  0  0  0  0  0  0  0
    3.1672    2.2727   19.0441 C   0  0  0  0  0  0  0  0  0  0  0  0
    2.7655    2.6443   20.3009 C   0  0  0  0  0  0  0  0  0  0  0  0
    3.4667    2.1717   21.4312 C   0  0  0  0  0  0  0  0  0  0  0  0
    4.5547    1.3411   21.2890 C   0  0  0  0  0  0  0  0  0  0  0  0
    4.9983    0.9447   19.9991 C   0  0  0  0  0  0  0  0  0  0  0  0
    5.0814    0.9904   22.1729 H   0  0  0  0  0  0  0  0  0  0  0  0
    3.1431    2.4719   22.4220 H   0  0  0  0  0  0  0  0  0  0  0  0
    1.9145    3.3077   20.4344 H   0  0  0  0  0  0  0  0  0  0  0  0
    2.6456    2.6473   18.1663 H   0  0  0  0  0  0  0  0  0  0  0  0
    4.1989    1.3982   16.7004 H   0  0  0  0  0  0  0  0  0  0  0  0
    7.2735   -0.8559   18.2486 H   0  0  0  0  0  0  0  0  0  0  0  0
    6.2877   -0.8984   21.6809 H   0  0  0  0  0  0  0  0  0  0  0  0
    7.5723   -1.2813   20.5324 H   0  0  0  0  0  0  0  0  0  0  0  0
    8.5085    0.3433   22.7605 N   0  0  0  0  0  0  0  0  0  0  0  0
    9.4054    1.3975   23.2650 C   0  0  0  0  0  0  0  0  0  0  0  0
   10.7754    1.4403   22.5897 C   0  0  0  0  0  0  0  0  0  0  0  0
   11.7187    0.3340   23.0382 C   0  0  0  0  0  0  0  0  0  0  0  0
   11.1428   -1.3503   22.6988 S   0  0  0  0  0  0  0  0  0  0  0  0
    9.8361   -1.4440   23.9465 C   0  0  0  0  0  0  0  0  0  0  0  0
    8.4752   -0.9370   23.4462 C   0  0  1  0  0  0  0  0  0  0  0  0
    7.4686   -0.8741   24.5924 C   0  0  0  0  0  0  0  0  0  0  0  0
    6.2776   -0.4319   24.1562 F   0  0  0  0  0  0  0  0  0  0  0  0
    7.2802   -2.0835   25.1500 F   0  0  0  0  0  0  0  0  0  0  0  0
    7.8751   -0.0484   25.5771 F   0  0  0  0  0  0  0  0  0  0  0  0
    8.0953   -1.7003   22.7632 H   0  0  0  0  0  0  0  0  0  0  0  0
   10.1701   -0.9057   24.8357 H   0  0  0  0  0  0  0  0  0  0  0  0
    9.7514   -2.4947   24.2412 H   0  0  0  0  0  0  0  0  0  0  0  0
   11.9029    0.3997   24.1158 H   0  0  0  0  0  0  0  0  0  0  0  0
   12.6906    0.4361   22.5443 H   0  0  0  0  0  0  0  0  0  0  0  0
   11.2583    2.4078   22.7959 H   0  0  0  0  0  0  0  0  0  0  0  0
   10.6270    1.3795   21.5126 H   0  0  0  0  0  0  0  0  0  0  0  0
    9.5272    1.2715   24.3405 H   0  0  0  0  0  0  0  0  0  0  0  0
    8.8993    2.3530   23.1229 H   0  0  0  0  0  0  0  0  0  0  0  0
  1  2  2  0
  2  3  1  0
  3  4  1  0
  4  5  2  0
  5  6  1  0
  6  7  2  0
  7  8  1  0
  8  9  2  0
  9 10  1  0
 10 11  2  0
 11 12  1  0
 12 13  2  0
 12 14  1  0
 11 15  1  0
 10 16  1  0
  9 17  1  0
  7 18  1  0
  5 19  1  0
  3 20  1  0
  3 21  1  0
  2 22  1  0
 22 23  1  0
 23 24  1  0
 24 25  1  0
 25 26  1  0
 26 27  1  0
 27 28  1  0
 28 29  1  0
 29 30  1  0
 29 31  1  0
 29 32  1  0
 28 33  1  6
 27 34  1  0
 27 35  1  0
 25 36  1  0
 25 37  1  0
 24 38  1  0
 24 39  1  0
 23 40  1  0
 23 41  1  0
 13  4  1  0
 28 22  1  0
 13  8  1  0
M  END
>  <cnnaffinities>  (57) 
[5.78669, 5.78667, 5.78666]

>  <score>  (57) 
5.78669

>  <index>  (57) 
56

>  <Smiles>  (57) 
O=C(C(c1c(nc(c2c(c(c(c(c12)[H])[H])[H])[H])[H])[H])([H])[H])N1C(C(C(SC([C@]1(C(F)(F)F)[H])([H])[H])([H])[H])([H])[H])([H])[H]

>  <h>  (57) 
<NA>

>  <Training>  (57) 
True

>  <Success>  (57) 
True

>  <enamine_searched>  (57) 
False

>  <enamine_id>  (57) 
nan

$$$$

     RDKit          3D

 67 72  0  0  0  0  0  0  0  0999 V2000
    6.6260    4.4150   21.3380 C   0  0  0  0  0  0  0  0  0  0  0  0
    7.6967    3.9938   22.2257 N   0  0  0  0  0  0  0  0  0  0  0  0
    7.3717    3.2874   23.3408 C   0  0  0  0  0  0  0  0  0  0  0  0
    6.2081    3.0256   23.6161 O   0  0  0  0  0  0  0  0  0  0  0  0
    8.5131    2.8276   24.2528 C   0  0  0  0  0  0  0  0  0  0  0  0
    9.1383    1.6225   23.7363 N   0  0  0  0  0  0  0  0  0  0  0  0
    8.3572    0.3929   23.6772 C   0  0  0  0  0  0  0  0  0  0  0  0
    8.6835   -0.4364   22.4043 C   0  0  2  0  0  0  0  0  0  0  0  0
    8.1260    0.2912   21.1566 C   0  0  0  0  0  0  0  0  0  0  0  0
    8.5927    1.2587   20.5980 O   0  0  0  0  0  0  0  0  0  0  0  0
    6.9706   -0.3470   20.7658 N   0  0  0  0  0  0  0  0  0  0  0  0
    6.1742    0.1446   19.7165 C   0  0  0  0  0  0  0  0  0  0  0  0
    6.4888   -0.1890   18.4247 C   0  0  0  0  0  0  0  0  0  0  0  0
    5.7813    0.2167   17.3468 N   0  0  0  0  0  0  0  0  0  0  0  0
    4.7372    0.9807   17.5724 C   0  0  0  0  0  0  0  0  0  0  0  0
    4.2967    1.3836   18.8671 C   0  0  0  0  0  0  0  0  0  0  0  0
    3.1721    2.2294   19.0545 C   0  0  0  0  0  0  0  0  0  0  0  0
    2.7882    2.6114   20.3120 C   0  0  0  0  0  0  0  0  0  0  0  0
    3.5080    2.1677   21.4434 C   0  0  0  0  0  0  0  0  0  0  0  0
    4.6058    1.3512   21.2909 C   0  0  0  0  0  0  0  0  0  0  0  0
    5.0277    0.9456   19.9904 C   0  0  0  0  0  0  0  0  0  0  0  0
    5.1740    1.0501   22.1662 H   0  0  0  0  0  0  0  0  0  0  0  0
    3.2130    2.4938   22.4368 H   0  0  0  0  0  0  0  0  0  0  0  0
    1.9408    3.2788   20.4426 H   0  0  0  0  0  0  0  0  0  0  0  0
    2.6518    2.5880   18.1733 H   0  0  0  0  0  0  0  0  0  0  0  0
    4.1832    1.3276   16.7021 H   0  0  0  0  0  0  0  0  0  0  0  0
    7.3562   -0.8176   18.2326 H   0  0  0  0  0  0  0  0  0  0  0  0
    6.5868   -1.4700   21.5802 C   0  0  0  0  0  0  0  0  0  0  0  0
    7.8710   -1.7725   22.3466 C   0  0  2  0  0  0  0  0  0  0  0  0
    7.5557   -2.4417   23.6666 C   0  0  0  0  0  0  0  0  0  0  0  0
    8.7820   -2.8097   24.3057 N   0  0  0  0  0  0  0  0  0  0  0  0
    8.7706   -3.2204   25.6065 C   0  0  0  0  0  0  0  0  0  0  0  0
    7.6974   -3.5359   26.3831 C   0  0  0  0  0  0  0  0  0  0  0  0
    7.9767   -4.0501   27.6278 N   0  0  0  0  0  0  0  0  0  0  0  0
    9.2569   -4.1171   27.8039 C   0  0  0  0  0  0  0  0  0  0  0  0
    9.9400   -4.6996   28.9760 C   0  0  0  0  0  0  0  0  0  0  0  0
   10.8069   -4.0983   29.2533 H   0  0  0  0  0  0  0  0  0  0  0  0
   10.2877   -5.7103   28.7305 H   0  0  0  0  0  0  0  0  0  0  0  0
    9.2491   -4.7607   29.8130 H   0  0  0  0  0  0  0  0  0  0  0  0
   10.2372   -3.5147   26.4896 S   0  0  0  0  0  0  0  0  0  0  0  0
    6.6692   -3.4190   26.0691 H   0  0  0  0  0  0  0  0  0  0  0  0
    9.6591   -2.5131   23.8995 H   0  0  0  0  0  0  0  0  0  0  0  0
    6.9749   -1.7560   24.3031 H   0  0  0  0  0  0  0  0  0  0  0  0
    6.9173   -3.3222   23.5144 H   0  0  0  0  0  0  0  0  0  0  0  0
    8.4560   -2.4780   21.7526 H   0  0  0  0  0  0  0  0  0  0  0  0
    6.2527   -2.3182   20.9701 H   0  0  0  0  0  0  0  0  0  0  0  0
    5.7608   -1.2127   22.2625 H   0  0  0  0  0  0  0  0  0  0  0  0
   10.2008   -0.5636   22.3036 C   0  0  0  0  0  0  0  0  0  0  0  0
   10.7944   -1.5212   21.4668 C   0  0  0  0  0  0  0  0  0  0  0  0
   12.1668   -1.5300   21.2722 C   0  0  0  0  0  0  0  0  0  0  0  0
   12.8761   -2.5966   20.0899 Cl  0  0  0  0  0  0  0  0  0  0  0  0
   13.0009   -0.6412   21.9504 C   0  0  0  0  0  0  0  0  0  0  0  0
   12.4315    0.3100   22.7732 C   0  0  0  0  0  0  0  0  0  0  0  0
   11.0454    0.3913   22.8991 C   0  0  0  0  0  0  0  0  0  0  0  0
   10.4996    1.5950   23.6075 C   0  0  0  0  0  0  0  0  0  0  0  0
   11.2271    2.4969   24.0064 O   0  0  0  0  0  0  0  0  0  0  0  0
   13.0380    1.0331   23.3129 H   0  0  0  0  0  0  0  0  0  0  0  0
   14.0705   -0.6684   21.7907 H   0  0  0  0  0  0  0  0  0  0  0  0
   10.1926   -2.2303   20.9111 H   0  0  0  0  0  0  0  0  0  0  0  0
    8.5491   -0.2104   24.5802 H   0  0  0  0  0  0  0  0  0  0  0  0
    7.3008    0.6727   23.6686 H   0  0  0  0  0  0  0  0  0  0  0  0
    9.3109    3.5696   24.3327 H   0  0  0  0  0  0  0  0  0  0  0  0
    8.1116    2.6606   25.2633 H   0  0  0  0  0  0  0  0  0  0  0  0
    8.6174    3.8647   21.8326 H   0  0  0  0  0  0  0  0  0  0  0  0
    5.8226    4.8529   21.9315 H   0  0  0  0  0  0  0  0  0  0  0  0
    6.9916    5.1734   20.6429 H   0  0  0  0  0  0  0  0  0  0  0  0
    6.2017    3.5627   20.7925 H   0  0  0  0  0  0  0  0  0  0  0  0
  1  2  1  0
  2  3  1  0
  3  4  2  0
  3  5  1  0
  5  6  1  0
  6  7  1  0
  8  7  1  1
  8  9  1  0
  9 10  2  0
  9 11  1  0
 11 12  1  0
 12 13  2  0
 13 14  1  0
 14 15  2  0
 15 16  1  0
 16 17  2  0
 17 18  1  0
 18 19  2  0
 19 20  1  0
 20 21  2  0
 20 22  1  0
 19 23  1  0
 18 24  1  0
 17 25  1  0
 15 26  1  0
 13 27  1  0
 11 28  1  0
 28 29  1  0
 29 30  1  0
 30 31  1  0
 31 32  1  0
 32 33  2  0
 33 34  1  0
 34 35  2  0
 35 36  1  0
 36 37  1  0
 36 38  1  0
 36 39  1  0
 35 40  1  0
 33 41  1  0
 31 42  1  0
 30 43  1  0
 30 44  1  0
 29 45  1  6
 28 46  1  0
 28 47  1  0
  8 48  1  0
 48 49  2  0
 49 50  1  0
 50 51  1  0
 50 52  2  0
 52 53  1  0
 53 54  2  0
 54 55  1  0
 55 56  2  0
 53 57  1  0
 52 58  1  0
 49 59  1  0
  7 60  1  0
  7 61  1  0
  5 62  1  0
  5 63  1  0
  2 64  1  0
  1 65  1  0
  1 66  1  0
  1 67  1  0
 55  6  1  0
 29  8  1  0
 40 32  1  0
 54 48  1  0
 21 12  1  0
 21 16  1  0
M  END
>  <cnnaffinities>  (58) 
[6.49689, 6.86424]

>  <score>  (58) 
6.49689

>  <index>  (58) 
57

>  <Smiles>  (58) 
C(N(C(=O)C(N1C([C@@]2(C(=O)N(c3c(nc(c4c(c(c(c(c34)[H])[H])[H])[H])[H])[H])C([C@@]2(C(N(c2c(nc(C([H])([H])[H])s2)[H])[H])([H])[H])[H])([H])[H])c2c(c(Cl)c(c(c2C1=O)[H])[H])[H])([H])[H])([H])[H])[H])([H])([H])[H]

>  <h>  (58) 
<NA>

>  <Training>  (58) 
True

>  <Success>  (58) 
True

>  <enamine_searched>  (58) 
False

>  <enamine_id>  (58) 
nan

$$$$

     RDKit          3D

 57 62  0  0  0  0  0  0  0  0999 V2000
    7.0102   -2.2900   23.6158 C   0  0  0  0  0  0  0  0  0  0  0  0
    7.8737   -1.8727   22.4184 C   0  0  1  0  0  0  0  0  0  0  0  0
    7.0197   -1.7872   21.1407 C   0  0  0  0  0  0  0  0  0  0  0  0
    6.8849   -0.3800   20.8786 N   0  0  0  0  0  0  0  0  0  0  0  0
    6.1257    0.1065   19.7873 C   0  0  0  0  0  0  0  0  0  0  0  0
    6.4447   -0.2325   18.4952 C   0  0  0  0  0  0  0  0  0  0  0  0
    5.7822    0.2165   17.3987 N   0  0  0  0  0  0  0  0  0  0  0  0
    4.7560    1.0082   17.6024 C   0  0  0  0  0  0  0  0  0  0  0  0
    4.2945    1.4014   18.8913 C   0  0  0  0  0  0  0  0  0  0  0  0
    3.1643    2.2428   19.0582 C   0  0  0  0  0  0  0  0  0  0  0  0
    2.7263    2.5810   20.3076 C   0  0  0  0  0  0  0  0  0  0  0  0
    3.3912    2.0872   21.4533 C   0  0  0  0  0  0  0  0  0  0  0  0
    4.5054    1.2956   21.3228 C   0  0  0  0  0  0  0  0  0  0  0  0
    4.9884    0.9356   20.0332 C   0  0  0  0  0  0  0  0  0  0  0  0
    5.0289    0.9463   22.2091 H   0  0  0  0  0  0  0  0  0  0  0  0
    3.0280    2.3556   22.4423 H   0  0  0  0  0  0  0  0  0  0  0  0
    1.8724    3.2398   20.4350 H   0  0  0  0  0  0  0  0  0  0  0  0
    2.6665    2.6238   18.1700 H   0  0  0  0  0  0  0  0  0  0  0  0
    4.2257    1.3737   16.7210 H   0  0  0  0  0  0  0  0  0  0  0  0
    7.2986   -0.8779   18.2842 H   0  0  0  0  0  0  0  0  0  0  0  0
    7.8210    0.3988   21.5235 C   0  0  0  0  0  0  0  0  0  0  0  0
    7.9754    1.5793   21.3159 O   0  0  0  0  0  0  0  0  0  0  0  0
    8.6007   -0.4922   22.5236 C   0  0  1  0  0  0  0  0  0  0  0  0
    8.5280    0.1027   23.9439 C   0  0  0  0  0  0  0  0  0  0  0  0
    9.2934    1.3256   24.0869 N   0  0  0  0  0  0  0  0  0  0  0  0
    8.7115    2.4498   24.7936 C   0  0  0  0  0  0  0  0  0  0  0  0
    8.0427    3.4217   23.8580 C   0  0  0  0  0  0  0  0  0  0  0  0
    8.8021    4.3677   23.1734 C   0  0  0  0  0  0  0  0  0  0  0  0
    8.1028    5.2248   22.3407 C   0  0  0  0  0  0  0  0  0  0  0  0
    6.7743    5.1760   22.2055 N   0  0  0  0  0  0  0  0  0  0  0  0
    6.1675    4.2202   22.8977 C   0  0  0  0  0  0  0  0  0  0  0  0
    6.7169    3.3173   23.7043 N   0  0  0  0  0  0  0  0  0  0  0  0
    5.0892    4.1612   22.7880 H   0  0  0  0  0  0  0  0  0  0  0  0
    8.6126    5.9905   21.7620 H   0  0  0  0  0  0  0  0  0  0  0  0
    9.8830    4.4220   23.3113 H   0  0  0  0  0  0  0  0  0  0  0  0
    9.5321    2.9151   25.3441 H   0  0  0  0  0  0  0  0  0  0  0  0
    7.9819    2.0556   25.5014 H   0  0  0  0  0  0  0  0  0  0  0  0
   10.5671    1.4497   23.6232 C   0  0  0  0  0  0  0  0  0  0  0  0
   11.2983    2.3898   23.9293 O   0  0  0  0  0  0  0  0  0  0  0  0
   10.9991    0.3688   22.6917 C   0  0  0  0  0  0  0  0  0  0  0  0
   12.3401    0.3651   22.3203 C   0  0  0  0  0  0  0  0  0  0  0  0
   12.8470   -0.6235   21.4965 C   0  0  0  0  0  0  0  0  0  0  0  0
   11.9374   -1.5533   21.0038 C   0  0  0  0  0  0  0  0  0  0  0  0
   12.3926   -2.5200   20.1889 F   0  0  0  0  0  0  0  0  0  0  0  0
   10.5773   -1.4913   21.2535 C   0  0  0  0  0  0  0  0  0  0  0  0
   10.0851   -0.5578   22.1693 C   0  0  0  0  0  0  0  0  0  0  0  0
    9.9178   -2.1699   20.7201 H   0  0  0  0  0  0  0  0  0  0  0  0
   13.8907   -0.6677   21.1953 H   0  0  0  0  0  0  0  0  0  0  0  0
   12.9534    1.1530   22.7395 H   0  0  0  0  0  0  0  0  0  0  0  0
    7.4904    0.3373   24.1863 H   0  0  0  0  0  0  0  0  0  0  0  0
    8.9097   -0.6632   24.6328 H   0  0  0  0  0  0  0  0  0  0  0  0
    7.5043   -2.2736   20.2958 H   0  0  0  0  0  0  0  0  0  0  0  0
    6.0337   -2.2446   21.2660 H   0  0  0  0  0  0  0  0  0  0  0  0
    8.6319   -2.6529   22.3168 H   0  0  0  0  0  0  0  0  0  0  0  0
    6.1986   -1.5814   23.8078 H   0  0  0  0  0  0  0  0  0  0  0  0
    6.5555   -3.2659   23.4202 H   0  0  0  0  0  0  0  0  0  0  0  0
    7.5971   -2.3934   24.5320 H   0  0  0  0  0  0  0  0  0  0  0  0
  1  2  1  0
  2  3  1  0
  3  4  1  0
  4  5  1  0
  5  6  2  0
  6  7  1  0
  7  8  2  0
  8  9  1  0
  9 10  2  0
 10 11  1  0
 11 12  2  0
 12 13  1  0
 13 14  2  0
 13 15  1  0
 12 16  1  0
 11 17  1  0
 10 18  1  0
  8 19  1  0
  6 20  1  0
  4 21  1  0
 21 22  2  0
 21 23  1  0
 23 24  1  1
 24 25  1  0
 25 26  1  0
 26 27  1  0
 27 28  2  0
 28 29  1  0
 29 30  2  0
 30 31  1  0
 31 32  2  0
 31 33  1  0
 29 34  1  0
 28 35  1  0
 26 36  1  0
 26 37  1  0
 25 38  1  0
 38 39  2  0
 38 40  1  0
 40 41  2  0
 41 42  1  0
 42 43  2  0
 43 44  1  0
 43 45  1  0
 45 46  2  0
 45 47  1  0
 42 48  1  0
 41 49  1  0
 24 50  1  0
 24 51  1  0
  3 52  1  0
  3 53  1  0
  2 54  1  6
  1 55  1  0
  1 56  1  0
  1 57  1  0
 23  2  1  0
 32 27  1  0
 46 40  1  0
 14  5  1  0
 46 23  1  0
 14  9  1  0
M  END
>  <cnnaffinities>  (59) 
[6.38431, 6.43205]

>  <score>  (59) 
6.38431

>  <index>  (59) 
58

>  <Smiles>  (59) 
C([C@]1(C(N(c2c(nc(c3c(c(c(c(c23)[H])[H])[H])[H])[H])[H])C(=O)[C@]21C(N(C(c1c(c(nc(n1)[H])[H])[H])([H])[H])C(=O)c1c(c(c(F)c(c21)[H])[H])[H])([H])[H])([H])[H])[H])([H])([H])[H]

>  <h>  (59) 
<NA>

>  <Training>  (59) 
True

>  <Success>  (59) 
True

>  <enamine_searched>  (59) 
False

>  <enamine_id>  (59) 
nan

$$$$

     RDKit          3D

 60 65  0  0  0  0  0  0  0  0999 V2000
    7.5905   -5.1619   23.1439 C   0  0  0  0  0  0  0  0  0  0  0  0
    7.8841   -4.0159   22.4155 O   0  0  0  0  0  0  0  0  0  0  0  0
    7.8639   -2.8731   23.2317 C   0  0  0  0  0  0  0  0  0  0  0  0
    8.0420   -1.7244   22.2728 C   0  0  1  0  0  0  0  0  0  0  0  0
    6.8995   -1.6149   21.2732 C   0  0  0  0  0  0  0  0  0  0  0  0
    7.0120   -0.2384   20.8406 N   0  0  0  0  0  0  0  0  0  0  0  0
    6.1952    0.2281   19.7852 C   0  0  0  0  0  0  0  0  0  0  0  0
    6.4693   -0.1807   18.5045 C   0  0  0  0  0  0  0  0  0  0  0  0
    5.7801    0.2096   17.4062 N   0  0  0  0  0  0  0  0  0  0  0  0
    4.7541    1.0050   17.5977 C   0  0  0  0  0  0  0  0  0  0  0  0
    4.3038    1.4313   18.8804 C   0  0  0  0  0  0  0  0  0  0  0  0
    3.1556    2.2522   19.0359 C   0  0  0  0  0  0  0  0  0  0  0  0
    2.7153    2.5972   20.2831 C   0  0  0  0  0  0  0  0  0  0  0  0
    3.3807    2.1197   21.4329 C   0  0  0  0  0  0  0  0  0  0  0  0
    4.4968    1.3327   21.3085 C   0  0  0  0  0  0  0  0  0  0  0  0
    5.0130    1.0026   20.0233 C   0  0  0  0  0  0  0  0  0  0  0  0
    4.9903    0.9525   22.1967 H   0  0  0  0  0  0  0  0  0  0  0  0
    3.0121    2.3878   22.4177 H   0  0  0  0  0  0  0  0  0  0  0  0
    1.8520    3.2450   20.3966 H   0  0  0  0  0  0  0  0  0  0  0  0
    2.6527    2.6142   18.1433 H   0  0  0  0  0  0  0  0  0  0  0  0
    4.2163    1.3358   16.7091 H   0  0  0  0  0  0  0  0  0  0  0  0
    7.3061   -0.8569   18.3295 H   0  0  0  0  0  0  0  0  0  0  0  0
    7.7231    0.5676   21.7178 C   0  0  0  0  0  0  0  0  0  0  0  0
    7.8963    1.7588   21.5641 O   0  0  0  0  0  0  0  0  0  0  0  0
    8.2341   -0.3088   22.8793 C   0  0  1  0  0  0  0  0  0  0  0  0
    7.3627    0.0119   24.1216 C   0  0  0  0  0  0  0  0  0  0  0  0
    7.9158   -0.4657   25.3883 N   0  0  0  0  0  0  0  0  0  0  0  0
    7.0344   -0.7743   26.5056 C   0  0  0  0  0  0  0  0  0  0  0  0
    6.7510   -2.2385   26.7000 C   0  0  0  0  0  0  0  0  0  0  0  0
    5.5913   -2.8281   26.5043 N   0  0  0  0  0  0  0  0  0  0  0  0
    5.7876   -4.1398   26.8676 C   0  0  0  0  0  0  0  0  0  0  0  0
    7.0807   -4.3419   27.2757 C   0  0  0  0  0  0  0  0  0  0  0  0
    7.6890   -3.1123   27.1585 N   0  0  0  0  0  0  0  0  0  0  0  0
    8.6468   -2.8577   27.3633 H   0  0  0  0  0  0  0  0  0  0  0  0
    7.5998   -5.2264   27.6226 H   0  0  0  0  0  0  0  0  0  0  0  0
    4.9843   -4.8655   26.7946 H   0  0  0  0  0  0  0  0  0  0  0  0
    7.5292   -0.4035   27.4094 H   0  0  0  0  0  0  0  0  0  0  0  0
    6.0813   -0.2606   26.3805 H   0  0  0  0  0  0  0  0  0  0  0  0
    9.2495   -0.5865   25.6304 C   0  0  0  0  0  0  0  0  0  0  0  0
    9.6840   -1.0325   26.6971 O   0  0  0  0  0  0  0  0  0  0  0  0
   10.1551   -0.1843   24.5216 C   0  0  0  0  0  0  0  0  0  0  0  0
   11.5143   -0.0486   24.7987 C   0  0  0  0  0  0  0  0  0  0  0  0
   12.4613   -0.0589   23.7936 C   0  0  0  0  0  0  0  0  0  0  0  0
   12.0055   -0.1832   22.4781 C   0  0  0  0  0  0  0  0  0  0  0  0
   13.1611   -0.5681   21.2391 Cl  0  0  0  0  0  0  0  0  0  0  0  0
   10.6491   -0.1464   22.1755 C   0  0  0  0  0  0  0  0  0  0  0  0
    9.6963   -0.1229   23.2074 C   0  0  0  0  0  0  0  0  0  0  0  0
   10.3171   -0.1635   21.1420 H   0  0  0  0  0  0  0  0  0  0  0  0
   13.5288   -0.0360   24.0286 H   0  0  0  0  0  0  0  0  0  0  0  0
   11.8239    0.0147   25.8331 H   0  0  0  0  0  0  0  0  0  0  0  0
    6.3752   -0.4411   23.9865 H   0  0  0  0  0  0  0  0  0  0  0  0
    7.2078    1.0976   24.1379 H   0  0  0  0  0  0  0  0  0  0  0  0
    7.0196   -2.2850   20.4199 H   0  0  0  0  0  0  0  0  0  0  0  0
    5.9166   -1.8271   21.7313 H   0  0  0  0  0  0  0  0  0  0  0  0
    8.9516   -1.9404   21.6949 H   0  0  0  0  0  0  0  0  0  0  0  0
    6.9113   -2.8050   23.7811 H   0  0  0  0  0  0  0  0  0  0  0  0
    8.6719   -2.9057   23.9794 H   0  0  0  0  0  0  0  0  0  0  0  0
    8.3160   -5.2884   23.9672 H   0  0  0  0  0  0  0  0  0  0  0  0
    6.5701   -5.1121   23.5632 H   0  0  0  0  0  0  0  0  0  0  0  0
    7.6510   -6.0234   22.4725 H   0  0  0  0  0  0  0  0  0  0  0  0
  1  2  1  0
  2  3  1  0
  3  4  1  0
  4  5  1  0
  5  6  1  0
  6  7  1  0
  7  8  2  0
  8  9  1  0
  9 10  2  0
 10 11  1  0
 11 12  2  0
 12 13  1  0
 13 14  2  0
 14 15  1  0
 15 16  2  0
 15 17  1  0
 14 18  1  0
 13 19  1  0
 12 20  1  0
 10 21  1  0
  8 22  1  0
  6 23  1  0
 23 24  2  0
 23 25  1  0
 25 26  1  1
 26 27  1  0
 27 28  1  0
 28 29  1  0
 29 30  2  0
 30 31  1  0
 31 32  2  0
 32 33  1  0
 33 34  1  0
 32 35  1  0
 31 36  1  0
 28 37  1  0
 28 38  1  0
 27 39  1  0
 39 40  2  0
 39 41  1  0
 41 42  2  0
 42 43  1  0
 43 44  2  0
 44 45  1  0
 44 46  1  0
 46 47  2  0
 46 48  1  0
 43 49  1  0
 42 50  1  0
 26 51  1  0
 26 52  1  0
  5 53  1  0
  5 54  1  0
  4 55  1  6
  3 56  1  0
  3 57  1  0
  1 58  1  0
  1 59  1  0
  1 60  1  0
 25  4  1  0
 33 29  1  0
 47 41  1  0
 16  7  1  0
 47 25  1  0
 16 11  1  0
M  END
>  <cnnaffinities>  (60) 
[6.33629, 6.72128, 6.49403, 6.23015]

>  <score>  (60) 
6.33629

>  <index>  (60) 
59

>  <Smiles>  (60) 
C(OC([C@]1(C(N(c2c(nc(c3c(c(c(c(c23)[H])[H])[H])[H])[H])[H])C(=O)[C@]21C(N(C(c1nc(c(n1[H])[H])[H])([H])[H])C(=O)c1c(c(c(Cl)c(c21)[H])[H])[H])([H])[H])([H])[H])[H])([H])[H])([H])([H])[H]

>  <h>  (60) 
<NA>

>  <Training>  (60) 
True

>  <Success>  (60) 
True

>  <enamine_searched>  (60) 
False

>  <enamine_id>  (60) 
nan

$$$$

     RDKit          3D

 38 41  0  0  0  0  0  0  0  0999 V2000
    7.8617    1.7417   21.1704 O   0  0  0  0  0  0  0  0  0  0  0  0
    8.0093    0.5587   21.4162 C   0  0  0  0  0  0  0  0  0  0  0  0
    6.9695   -0.4692   20.8963 C   0  0  0  0  0  0  0  0  0  0  0  0
    6.1153    0.0813   19.7725 C   0  0  0  0  0  0  0  0  0  0  0  0
    6.4243   -0.2091   18.4678 C   0  0  0  0  0  0  0  0  0  0  0  0
    5.7638    0.2414   17.3674 N   0  0  0  0  0  0  0  0  0  0  0  0
    4.7345    1.0282   17.5769 C   0  0  0  0  0  0  0  0  0  0  0  0
    4.2885    1.4210   18.8688 C   0  0  0  0  0  0  0  0  0  0  0  0
    3.1662    2.2738   19.0429 C   0  0  0  0  0  0  0  0  0  0  0  0
    2.7655    2.6485   20.2979 C   0  0  0  0  0  0  0  0  0  0  0  0
    3.4676    2.1790   21.4292 C   0  0  0  0  0  0  0  0  0  0  0  0
    4.5530    1.3477   21.2865 C   0  0  0  0  0  0  0  0  0  0  0  0
    4.9972    0.9448   19.9991 C   0  0  0  0  0  0  0  0  0  0  0  0
    5.0927    1.0133   22.1655 H   0  0  0  0  0  0  0  0  0  0  0  0
    3.1461    2.4843   22.4199 H   0  0  0  0  0  0  0  0  0  0  0  0
    1.9153    3.3123   20.4309 H   0  0  0  0  0  0  0  0  0  0  0  0
    2.6452    2.6465   18.1637 H   0  0  0  0  0  0  0  0  0  0  0  0
    4.1991    1.3982   16.7004 H   0  0  0  0  0  0  0  0  0  0  0  0
    7.2713   -0.8553   18.2448 H   0  0  0  0  0  0  0  0  0  0  0  0
    6.3239   -0.7871   21.7266 H   0  0  0  0  0  0  0  0  0  0  0  0
    7.4808   -1.3737   20.5359 H   0  0  0  0  0  0  0  0  0  0  0  0
    9.1027    0.1045   22.1279 N   0  0  0  0  0  0  0  0  0  0  0  0
   10.3117    0.9323   22.1977 C   0  0  0  0  0  0  0  0  0  0  0  0
   10.8630    1.0271   23.6160 C   0  0  0  0  0  0  0  0  0  0  0  0
   10.9270   -0.3393   24.2240 C   0  0  0  0  0  0  0  0  0  0  0  0
   11.9146   -0.7817   25.5761 S   0  0  0  0  0  0  0  0  0  0  0  0
   11.2732   -2.3843   25.5672 C   0  0  0  0  0  0  0  0  0  0  0  0
   10.3570   -2.5620   24.5722 C   0  0  0  0  0  0  0  0  0  0  0  0
   10.1618   -1.3780   23.7961 C   0  0  0  0  0  0  0  0  0  0  0  0
    9.2121   -1.2563   22.6326 C   0  0  0  0  0  0  0  0  0  0  0  0
    9.5232   -1.9674   21.8514 H   0  0  0  0  0  0  0  0  0  0  0  0
    8.2305   -1.6038   22.9702 H   0  0  0  0  0  0  0  0  0  0  0  0
    9.8382   -3.5028   24.4029 H   0  0  0  0  0  0  0  0  0  0  0  0
   11.6044   -3.1084   26.3012 H   0  0  0  0  0  0  0  0  0  0  0  0
   10.2078    1.6642   24.2185 H   0  0  0  0  0  0  0  0  0  0  0  0
   11.8476    1.5074   23.6138 H   0  0  0  0  0  0  0  0  0  0  0  0
   11.0934    0.4989   21.5683 H   0  0  0  0  0  0  0  0  0  0  0  0
   10.0854    1.9234   21.8029 H   0  0  0  0  0  0  0  0  0  0  0  0
  1  2  2  0
  2  3  1  0
  3  4  1  0
  4  5  2  0
  5  6  1  0
  6  7  2  0
  7  8  1  0
  8  9  2  0
  9 10  1  0
 10 11  2  0
 11 12  1  0
 12 13  2  0
 12 14  1  0
 11 15  1  0
 10 16  1  0
  9 17  1  0
  7 18  1  0
  5 19  1  0
  3 20  1  0
  3 21  1  0
  2 22  1  0
 22 23  1  0
 23 24  1  0
 24 25  1  0
 25 26  1  0
 26 27  1  0
 27 28  2  0
 28 29  1  0
 29 30  1  0
 30 31  1  0
 30 32  1  0
 28 33  1  0
 27 34  1  0
 24 35  1  0
 24 36  1  0
 23 37  1  0
 23 38  1  0
 13  4  1  0
 30 22  1  0
 13  8  1  0
 29 25  2  0
M  END
>  <cnnaffinities>  (61) 
[5.48271]

>  <score>  (61) 
5.48271

>  <index>  (61) 
60

>  <Smiles>  (61) 
O=C(C(c1c(nc(c2c(c(c(c(c12)[H])[H])[H])[H])[H])[H])([H])[H])N1C(C(c2sc(c(c2C1([H])[H])[H])[H])([H])[H])([H])[H]

>  <h>  (61) 
<NA>

>  <Training>  (61) 
True

>  <Success>  (61) 
True

>  <enamine_searched>  (61) 
False

>  <enamine_id>  (61) 
nan

$$$$

     RDKit          3D

 64 70  0  0  0  0  0  0  0  0999 V2000
    9.3780    2.5884   25.5151 O   0  0  0  0  0  0  0  0  0  0  0  0
    9.0627    1.6778   24.7604 C   0  0  0  0  0  0  0  0  0  0  0  0
   10.0775    0.8633   24.0087 C   0  0  0  0  0  0  0  0  0  0  0  0
   11.4192    1.1501   24.2262 C   0  0  0  0  0  0  0  0  0  0  0  0
   12.4066    0.5680   23.4583 C   0  0  0  0  0  0  0  0  0  0  0  0
   12.0236   -0.3032   22.4379 C   0  0  0  0  0  0  0  0  0  0  0  0
   13.2495   -0.9991   21.4140 Cl  0  0  0  0  0  0  0  0  0  0  0  0
   10.6930   -0.6209   22.2223 C   0  0  0  0  0  0  0  0  0  0  0  0
    9.6958   -0.0859   23.0517 C   0  0  0  0  0  0  0  0  0  0  0  0
    8.2287   -0.4144   22.8245 C   0  0  1  0  0  0  0  0  0  0  0  0
    7.4409   -0.0076   24.0988 C   0  0  0  0  0  0  0  0  0  0  0  0
    7.7663    1.3434   24.4997 N   0  0  0  0  0  0  0  0  0  0  0  0
    6.6851    2.2684   24.7869 C   0  0  0  0  0  0  0  0  0  0  0  0
    5.8688    1.8849   26.0070 C   0  0  0  0  0  0  0  0  0  0  0  0
    6.3548    2.0868   27.2804 C   0  0  0  0  0  0  0  0  0  0  0  0
    5.5621    1.6576   28.3438 C   0  0  0  0  0  0  0  0  0  0  0  0
    4.3763    1.0736   28.1925 N   0  0  0  0  0  0  0  0  0  0  0  0
    3.8925    0.8904   26.9737 N   0  0  0  0  0  0  0  0  0  0  0  0
    4.6061    1.2832   25.9215 C   0  0  0  0  0  0  0  0  0  0  0  0
    4.1259    1.0921   24.9616 H   0  0  0  0  0  0  0  0  0  0  0  0
    5.8865    1.7764   29.3766 H   0  0  0  0  0  0  0  0  0  0  0  0
    7.3250    2.5615   27.4395 H   0  0  0  0  0  0  0  0  0  0  0  0
    7.1533    3.2454   24.9362 H   0  0  0  0  0  0  0  0  0  0  0  0
    6.0364    2.3166   23.8981 H   0  0  0  0  0  0  0  0  0  0  0  0
    7.6781   -0.6975   24.9257 H   0  0  0  0  0  0  0  0  0  0  0  0
    6.3632   -0.0488   23.9100 H   0  0  0  0  0  0  0  0  0  0  0  0
    7.6911    0.4113   21.6308 C   0  0  0  0  0  0  0  0  0  0  0  0
    7.8725    1.5886   21.4227 O   0  0  0  0  0  0  0  0  0  0  0  0
    6.9253   -0.4128   20.8338 N   0  0  0  0  0  0  0  0  0  0  0  0
    6.1406    0.1031   19.7691 C   0  0  0  0  0  0  0  0  0  0  0  0
    6.4455   -0.2248   18.4734 C   0  0  0  0  0  0  0  0  0  0  0  0
    5.7690    0.2206   17.3858 N   0  0  0  0  0  0  0  0  0  0  0  0
    4.7464    1.0154   17.5962 C   0  0  0  0  0  0  0  0  0  0  0  0
    4.2968    1.4120   18.8872 C   0  0  0  0  0  0  0  0  0  0  0  0
    3.1671    2.2589   19.0631 C   0  0  0  0  0  0  0  0  0  0  0  0
    2.7472    2.6079   20.3173 C   0  0  0  0  0  0  0  0  0  0  0  0
    3.4270    2.1145   21.4521 C   0  0  0  0  0  0  0  0  0  0  0  0
    4.5191    1.2957   21.3086 C   0  0  0  0  0  0  0  0  0  0  0  0
    5.0013    0.9383   20.0155 C   0  0  0  0  0  0  0  0  0  0  0  0
    5.0319    0.9096   22.1836 H   0  0  0  0  0  0  0  0  0  0  0  0
    3.0853    2.3997   22.4437 H   0  0  0  0  0  0  0  0  0  0  0  0
    1.8971    3.2733   20.4425 H   0  0  0  0  0  0  0  0  0  0  0  0
    2.6622    2.6384   18.1788 H   0  0  0  0  0  0  0  0  0  0  0  0
    4.2186    1.3828   16.7159 H   0  0  0  0  0  0  0  0  0  0  0  0
    7.2901   -0.8796   18.2642 H   0  0  0  0  0  0  0  0  0  0  0  0
    6.7890   -1.7647   21.3403 C   0  0  0  0  0  0  0  0  0  0  0  0
    7.9180   -1.8767   22.3803 C   0  0  2  0  0  0  0  0  0  0  0  0
    7.5810   -2.8829   23.5012 C   0  0  0  0  0  0  0  0  0  0  0  0
    7.4530   -4.2417   23.0156 N   0  0  0  0  0  0  0  0  0  0  0  0
    6.2503   -4.8337   22.8321 C   0  0  0  0  0  0  0  0  0  0  0  0
    5.0888   -4.2323   22.8224 N   0  0  0  0  0  0  0  0  0  0  0  0
    4.0822   -5.0482   22.3734 N   0  0  0  0  0  0  0  0  0  0  0  0
    4.4847   -6.2481   22.1300 C   0  0  0  0  0  0  0  0  0  0  0  0
    6.1541   -6.5331   22.4692 S   0  0  0  0  0  0  0  0  0  0  0  0
    3.8662   -6.9919   21.6512 H   0  0  0  0  0  0  0  0  0  0  0  0
    8.2837   -4.7435   22.7393 H   0  0  0  0  0  0  0  0  0  0  0  0
    6.6246   -2.6318   23.9786 H   0  0  0  0  0  0  0  0  0  0  0  0
    8.3757   -2.8802   24.2553 H   0  0  0  0  0  0  0  0  0  0  0  0
    8.8183   -2.2401   21.8743 H   0  0  0  0  0  0  0  0  0  0  0  0
    5.8079   -1.9314   21.8103 H   0  0  0  0  0  0  0  0  0  0  0  0
    6.8831   -2.4897   20.5275 H   0  0  0  0  0  0  0  0  0  0  0  0
   10.4446   -1.2582   21.3795 H   0  0  0  0  0  0  0  0  0  0  0  0
   13.4535    0.7994   23.6158 H   0  0  0  0  0  0  0  0  0  0  0  0
   11.6234    1.8674   25.0011 H   0  0  0  0  0  0  0  0  0  0  0  0
  1  2  2  0
  2  3  1  0
  3  4  2  0
  4  5  1  0
  5  6  2  0
  6  7  1  0
  6  8  1  0
  8  9  2  0
  9 10  1  0
 10 11  1  1
 11 12  1  0
 12 13  1  0
 13 14  1  0
 14 15  2  0
 15 16  1  0
 16 17  2  0
 17 18  1  0
 18 19  2  0
 19 20  1  0
 16 21  1  0
 15 22  1  0
 13 23  1  0
 13 24  1  0
 11 25  1  0
 11 26  1  0
 10 27  1  0
 27 28  2  0
 27 29  1  0
 29 30  1  0
 30 31  2  0
 31 32  1  0
 32 33  2  0
 33 34  1  0
 34 35  2  0
 35 36  1  0
 36 37  2  0
 37 38  1  0
 38 39  2  0
 38 40  1  0
 37 41  1  0
 36 42  1  0
 35 43  1  0
 33 44  1  0
 31 45  1  0
 29 46  1  0
 46 47  1  0
 47 48  1  0
 48 49  1  0
 49 50  1  0
 50 51  2  0
 51 52  1  0
 52 53  2  0
 53 54  1  0
 53 55  1  0
 49 56  1  0
 48 57  1  0
 48 58  1  0
 47 59  1  6
 46 60  1  0
 46 61  1  0
  8 62  1  0
  5 63  1  0
  4 64  1  0
 12  2  1  0
 19 14  1  0
 39 30  1  0
 54 50  1  0
  9  3  1  0
 47 10  1  0
 39 34  1  0
M  END
>  <cnnaffinities>  (62) 
[6.70589, 6.91369, 6.74704, 6.83974, 6.11569]

>  <score>  (62) 
6.70589

>  <index>  (62) 
61

>  <Smiles>  (62) 
O=C1c2c(c(c(Cl)c(c2[C@@]2(C(N1C(c1c(c(nnc1[H])[H])[H])([H])[H])([H])[H])C(=O)N(c1c(nc(c3c(c(c(c(c13)[H])[H])[H])[H])[H])[H])C([C@@]2(C(N(c1nnc(s1)[H])[H])([H])[H])[H])([H])[H])[H])[H])[H]

>  <h>  (62) 
<NA>

>  <Training>  (62) 
True

>  <Success>  (62) 
True

>  <enamine_searched>  (62) 
False

>  <enamine_id>  (62) 
nan

$$$$

     RDKit          3D

 70 76  0  0  0  0  0  0  0  0999 V2000
    7.5586   -2.5232   23.7847 C   0  0  0  0  0  0  0  0  0  0  0  0
    7.8924   -1.7159   22.5228 C   0  0  1  0  0  0  0  0  0  0  0  0
    6.6926   -1.6079   21.5552 C   0  0  0  0  0  0  0  0  0  0  0  0
    6.9558   -0.3793   20.8260 N   0  0  0  0  0  0  0  0  0  0  0  0
    6.1467    0.1112   19.7599 C   0  0  0  0  0  0  0  0  0  0  0  0
    6.4548   -0.2150   18.4664 C   0  0  0  0  0  0  0  0  0  0  0  0
    5.7655    0.2200   17.3800 N   0  0  0  0  0  0  0  0  0  0  0  0
    4.7447    1.0118   17.5946 C   0  0  0  0  0  0  0  0  0  0  0  0
    4.2962    1.4168   18.8822 C   0  0  0  0  0  0  0  0  0  0  0  0
    3.1743    2.2711   19.0644 C   0  0  0  0  0  0  0  0  0  0  0  0
    2.7634    2.6375   20.3147 C   0  0  0  0  0  0  0  0  0  0  0  0
    3.4535    2.1558   21.4510 C   0  0  0  0  0  0  0  0  0  0  0  0
    4.5395    1.3275   21.3011 C   0  0  0  0  0  0  0  0  0  0  0  0
    5.0099    0.9456   20.0131 C   0  0  0  0  0  0  0  0  0  0  0  0
    5.0516    0.9555   22.1837 H   0  0  0  0  0  0  0  0  0  0  0  0
    3.1334    2.4591   22.4448 H   0  0  0  0  0  0  0  0  0  0  0  0
    1.9170    3.3103   20.4367 H   0  0  0  0  0  0  0  0  0  0  0  0
    2.6693    2.6494   18.1788 H   0  0  0  0  0  0  0  0  0  0  0  0
    4.2150    1.3798   16.7129 H   0  0  0  0  0  0  0  0  0  0  0  0
    7.3000   -0.8668   18.2522 H   0  0  0  0  0  0  0  0  0  0  0  0
    7.9053    0.4248   21.4144 C   0  0  0  0  0  0  0  0  0  0  0  0
    8.2812    1.4846   20.9461 O   0  0  0  0  0  0  0  0  0  0  0  0
    8.3775   -0.2444   22.7294 C   0  0  1  0  0  0  0  0  0  0  0  0
    7.6659    0.4057   23.9469 C   0  0  0  0  0  0  0  0  0  0  0  0
    8.0537    1.7888   24.1190 N   0  0  0  0  0  0  0  0  0  0  0  0
    7.0472    2.8294   24.2868 C   0  0  0  0  0  0  0  0  0  0  0  0
    6.8584    3.6508   23.0060 C   0  0  0  0  0  0  0  0  0  0  0  0
    5.7179    4.6474   23.1227 N   0  0  2  0  0  4  0  0  0  0  0  0
    5.2627    5.1683   21.7779 C   0  0  0  0  0  0  0  0  0  0  0  0
    6.1412    6.3959   21.4759 C   0  0  0  0  0  0  0  0  0  0  0  0
    6.6680    6.8916   22.8302 C   0  0  0  0  0  0  0  0  0  0  0  0
    6.5085    8.3835   23.1782 C   0  0  0  0  0  0  0  0  0  0  0  0
    7.9274    8.5821   23.2396 O   0  0  0  0  0  0  0  0  0  0  0  0
    8.1757    7.2104   22.9099 C   0  0  0  0  0  0  0  0  0  0  0  0
    8.7279    6.6897   23.7069 H   0  0  0  0  0  0  0  0  0  0  0  0
    8.7348    7.1023   21.9690 H   0  0  0  0  0  0  0  0  0  0  0  0
    6.0329    9.0004   22.4024 H   0  0  0  0  0  0  0  0  0  0  0  0
    6.0224    8.5961   24.1409 H   0  0  0  0  0  0  0  0  0  0  0  0
    6.1126    5.9107   23.8711 C   0  0  0  0  0  0  0  0  0  0  0  0
    6.8492    5.6502   24.6320 H   0  0  0  0  0  0  0  0  0  0  0  0
    5.2271    6.3168   24.3678 H   0  0  0  0  0  0  0  0  0  0  0  0
    6.9798    6.1213   20.8244 H   0  0  0  0  0  0  0  0  0  0  0  0
    5.5741    7.1781   20.9581 H   0  0  0  0  0  0  0  0  0  0  0  0
    4.2074    5.4287   21.8589 H   0  0  0  0  0  0  0  0  0  0  0  0
    5.3559    4.3619   21.0475 H   0  0  0  0  0  0  0  0  0  0  0  0
    4.9313    4.1640   23.5863 H   0  0  0  0  0  0  0  0  0  0  0  0
    7.7784    4.1963   22.7702 H   0  0  0  0  0  0  0  0  0  0  0  0
    6.6392    2.9833   22.1695 H   0  0  0  0  0  0  0  0  0  0  0  0
    6.1031    2.3372   24.5485 H   0  0  0  0  0  0  0  0  0  0  0  0
    7.3528    3.4641   25.1246 H   0  0  0  0  0  0  0  0  0  0  0  0
    9.3723    2.1441   24.1320 C   0  0  0  0  0  0  0  0  0  0  0  0
    9.7559    3.2333   24.5365 O   0  0  0  0  0  0  0  0  0  0  0  0
   10.3307    1.1191   23.5800 C   0  0  0  0  0  0  0  0  0  0  0  0
   11.6945    1.3749   23.6963 C   0  0  0  0  0  0  0  0  0  0  0  0
   12.6208    0.5210   23.1352 C   0  0  0  0  0  0  0  0  0  0  0  0
   12.1639   -0.5847   22.4190 C   0  0  0  0  0  0  0  0  0  0  0  0
   13.3256   -1.6274   21.6523 Cl  0  0  0  0  0  0  0  0  0  0  0  0
   10.8130   -0.8564   22.2924 C   0  0  0  0  0  0  0  0  0  0  0  0
    9.8699   -0.0245   22.9066 C   0  0  0  0  0  0  0  0  0  0  0  0
   10.5139   -1.7066   21.6874 H   0  0  0  0  0  0  0  0  0  0  0  0
   13.6856    0.7068   23.2234 H   0  0  0  0  0  0  0  0  0  0  0  0
   11.9960    2.2746   24.2183 H   0  0  0  0  0  0  0  0  0  0  0  0
    7.9188   -0.1762   24.8496 H   0  0  0  0  0  0  0  0  0  0  0  0
    6.5821    0.3777   23.7961 H   0  0  0  0  0  0  0  0  0  0  0  0
    6.6257   -2.4557   20.8649 H   0  0  0  0  0  0  0  0  0  0  0  0
    5.7392   -1.5626   22.1076 H   0  0  0  0  0  0  0  0  0  0  0  0
    8.6922   -2.2307   21.9831 H   0  0  0  0  0  0  0  0  0  0  0  0
    8.3937   -2.5383   24.4959 H   0  0  0  0  0  0  0  0  0  0  0  0
    7.3148   -3.5641   23.5346 H   0  0  0  0  0  0  0  0  0  0  0  0
    6.6866   -2.1049   24.3062 H   0  0  0  0  0  0  0  0  0  0  0  0
  1  2  1  0
  2  3  1  0
  3  4  1  0
  4  5  1  0
  5  6  2  0
  6  7  1  0
  7  8  2  0
  8  9  1  0
  9 10  2  0
 10 11  1  0
 11 12  2  0
 12 13  1  0
 13 14  2  0
 13 15  1  0
 12 16  1  0
 11 17  1  0
 10 18  1  0
  8 19  1  0
  6 20  1  0
  4 21  1  0
 21 22  2  0
 21 23  1  0
 23 24  1  1
 24 25  1  0
 25 26  1  0
 26 27  1  0
 27 28  1  0
 28 29  1  0
 29 30  1  0
 30 31  1  0
 31 32  1  0
 32 33  1  0
 33 34  1  0
 34 35  1  0
 34 36  1  0
 32 37  1  0
 32 38  1  0
 31 39  1  0
 39 40  1  0
 39 41  1  0
 30 42  1  0
 30 43  1  0
 29 44  1  0
 29 45  1  0
 28 46  1  1
 27 47  1  0
 27 48  1  0
 26 49  1  0
 26 50  1  0
 25 51  1  0
 51 52  2  0
 51 53  1  0
 53 54  2  0
 54 55  1  0
 55 56  2  0
 56 57  1  0
 56 58  1  0
 58 59  2  0
 58 60  1  0
 55 61  1  0
 54 62  1  0
 24 63  1  0
 24 64  1  0
  3 65  1  0
  3 66  1  0
  2 67  1  6
  1 68  1  0
  1 69  1  0
  1 70  1  0
 23  2  1  0
 39 28  1  0
 59 53  1  0
 14  5  1  0
 59 23  1  0
 14  9  1  0
 34 31  1  0
M  CHG  1  28   1
M  END
>  <cnnaffinities>  (63) 
[7.33613]

>  <score>  (63) 
7.33613

>  <index>  (63) 
62

>  <Smiles>  (63) 
C([C@]1(C(N(c2c(nc(c3c(c(c(c(c23)[H])[H])[H])[H])[H])[H])C(=O)[C@]21C(N(C(C([N@@+]1(C(C(C3(C(OC3([H])[H])([H])[H])C1([H])[H])([H])[H])([H])[H])[H])([H])[H])([H])[H])C(=O)c1c(c(c(Cl)c(c21)[H])[H])[H])([H])[H])([H])[H])[H])([H])([H])[H]

>  <h>  (63) 
<NA>

>  <Training>  (63) 
True

>  <Success>  (63) 
True

>  <enamine_searched>  (63) 
False

>  <enamine_id>  (63) 
nan

$$$$

     RDKit          3D

 56 61  0  0  0  0  0  0  0  0999 V2000
    5.5661    4.8329   21.4543 C   0  0  0  0  0  0  0  0  0  0  0  0
    6.5802    4.5697   22.4608 N   0  0  0  0  0  0  0  0  0  0  0  0
    7.7844    5.1691   22.5686 C   0  0  0  0  0  0  0  0  0  0  0  0
    8.4641    4.5279   23.5759 C   0  0  0  0  0  0  0  0  0  0  0  0
    7.5855    3.5109   24.0083 C   0  0  0  0  0  0  0  0  0  0  0  0
    7.8916    2.4343   25.0238 C   0  0  0  0  0  0  0  0  0  0  0  0
    8.6651    1.3120   24.4824 N   0  0  0  0  0  0  0  0  0  0  0  0
    8.0012    0.0703   24.1465 C   0  0  0  0  0  0  0  0  0  0  0  0
    8.3668   -0.4394   22.7306 C   0  0  1  0  0  0  0  0  0  0  0  0
    7.7339   -1.8342   22.5269 C   0  0  0  0  0  0  0  0  0  0  0  0
    6.9811   -1.8107   21.1830 C   0  0  0  0  0  0  0  0  0  0  0  0
    6.8703   -0.3987   20.8791 N   0  0  0  0  0  0  0  0  0  0  0  0
    6.1294    0.1058   19.7797 C   0  0  0  0  0  0  0  0  0  0  0  0
    6.4483   -0.2269   18.4876 C   0  0  0  0  0  0  0  0  0  0  0  0
    5.7778    0.2190   17.3947 N   0  0  0  0  0  0  0  0  0  0  0  0
    4.7536    1.0130   17.5997 C   0  0  0  0  0  0  0  0  0  0  0  0
    4.2945    1.4168   18.8837 C   0  0  0  0  0  0  0  0  0  0  0  0
    3.1599    2.2550   19.0629 C   0  0  0  0  0  0  0  0  0  0  0  0
    2.7336    2.5983   20.3151 C   0  0  0  0  0  0  0  0  0  0  0  0
    3.4176    2.1141   21.4535 C   0  0  0  0  0  0  0  0  0  0  0  0
    4.5191    1.3111   21.3080 C   0  0  0  0  0  0  0  0  0  0  0  0
    5.0001    0.9507   20.0184 C   0  0  0  0  0  0  0  0  0  0  0  0
    5.0271    0.9378   22.1917 H   0  0  0  0  0  0  0  0  0  0  0  0
    3.0812    2.3933   22.4490 H   0  0  0  0  0  0  0  0  0  0  0  0
    1.8753    3.2523   20.4414 H   0  0  0  0  0  0  0  0  0  0  0  0
    2.6553    2.6311   18.1776 H   0  0  0  0  0  0  0  0  0  0  0  0
    4.2290    1.3764   16.7163 H   0  0  0  0  0  0  0  0  0  0  0  0
    7.2922   -0.8808   18.2679 H   0  0  0  0  0  0  0  0  0  0  0  0
    7.7096    0.4136   21.6099 C   0  0  0  0  0  0  0  0  0  0  0  0
    7.9031    1.5810   21.3695 O   0  0  0  0  0  0  0  0  0  0  0  0
    5.9808   -2.2588   21.2400 H   0  0  0  0  0  0  0  0  0  0  0  0
    7.5407   -2.3262   20.4006 H   0  0  0  0  0  0  0  0  0  0  0  0
    8.4882   -2.6240   22.5684 H   0  0  0  0  0  0  0  0  0  0  0  0
    7.0279   -2.0331   23.3409 H   0  0  0  0  0  0  0  0  0  0  0  0
    9.8722   -0.3939   22.5771 C   0  0  0  0  0  0  0  0  0  0  0  0
   10.4973   -1.1966   21.6143 C   0  0  0  0  0  0  0  0  0  0  0  0
   11.8692   -1.1282   21.4515 C   0  0  0  0  0  0  0  0  0  0  0  0
   12.6696   -2.0916   20.2433 Cl  0  0  0  0  0  0  0  0  0  0  0  0
   12.6380   -0.2352   22.1939 C   0  0  0  0  0  0  0  0  0  0  0  0
   12.0195    0.5860   23.1143 C   0  0  0  0  0  0  0  0  0  0  0  0
   10.6420    0.5145   23.3142 C   0  0  0  0  0  0  0  0  0  0  0  0
   10.0106    1.4779   24.2831 C   0  0  0  0  0  0  0  0  0  0  0  0
   10.6450    2.3726   24.8274 O   0  0  0  0  0  0  0  0  0  0  0  0
   12.5784    1.3104   23.6949 H   0  0  0  0  0  0  0  0  0  0  0  0
   13.7010   -0.1740   21.9991 H   0  0  0  0  0  0  0  0  0  0  0  0
    9.9188   -1.8383   20.9552 H   0  0  0  0  0  0  0  0  0  0  0  0
    8.2559   -0.7227   24.8721 H   0  0  0  0  0  0  0  0  0  0  0  0
    6.9241    0.2592   24.1787 H   0  0  0  0  0  0  0  0  0  0  0  0
    6.9580    2.0343   25.4404 H   0  0  0  0  0  0  0  0  0  0  0  0
    8.4886    2.8655   25.8329 H   0  0  0  0  0  0  0  0  0  0  0  0
    6.4307    3.5662   23.3486 N   0  0  0  0  0  0  0  0  0  0  0  0
    9.4552    4.7093   23.9643 H   0  0  0  0  0  0  0  0  0  0  0  0
    8.0559    5.9780   21.9016 H   0  0  0  0  0  0  0  0  0  0  0  0
    4.5848    4.7737   21.9327 H   0  0  0  0  0  0  0  0  0  0  0  0
    5.7350    5.8449   21.0689 H   0  0  0  0  0  0  0  0  0  0  0  0
    5.6084    4.0964   20.6383 H   0  0  0  0  0  0  0  0  0  0  0  0
  1  2  1  0
  2  3  1  0
  3  4  2  0
  4  5  1  0
  5  6  1  0
  6  7  1  0
  7  8  1  0
  9  8  1  1
  9 10  1  0
 10 11  1  0
 11 12  1  0
 12 13  1  0
 13 14  2  0
 14 15  1  0
 15 16  2  0
 16 17  1  0
 17 18  2  0
 18 19  1  0
 19 20  2  0
 20 21  1  0
 21 22  2  0
 21 23  1  0
 20 24  1  0
 19 25  1  0
 18 26  1  0
 16 27  1  0
 14 28  1  0
 12 29  1  0
 29 30  2  0
 11 31  1  0
 11 32  1  0
 10 33  1  0
 10 34  1  0
  9 35  1  0
 35 36  2  0
 36 37  1  0
 37 38  1  0
 37 39  2  0
 39 40  1  0
 40 41  2  0
 41 42  1  0
 42 43  2  0
 40 44  1  0
 39 45  1  0
 36 46  1  0
  8 47  1  0
  8 48  1  0
  6 49  1  0
  6 50  1  0
  5 51  2  0
  4 52  1  0
  3 53  1  0
  1 54  1  0
  1 55  1  0
  1 56  1  0
 51  2  1  0
 42  7  1  0
 29  9  1  0
 41 35  1  0
 22 13  1  0
 22 17  1  0
M  END
>  <cnnaffinities>  (64) 
[6.41187]

>  <score>  (64) 
6.41187

>  <index>  (64) 
63

>  <Smiles>  (64) 
C(n1c(c(c(C(N2C([C@]3(C(C(N(c4c(nc(c5c(c(c(c(c45)[H])[H])[H])[H])[H])[H])C3=O)([H])[H])([H])[H])c3c(c(Cl)c(c(c3C2=O)[H])[H])[H])([H])[H])([H])[H])n1)[H])[H])([H])([H])[H]

>  <h>  (64) 
<NA>

>  <Training>  (64) 
True

>  <Success>  (64) 
True

>  <enamine_searched>  (64) 
False

>  <enamine_id>  (64) 
nan

$$$$

     RDKit          3D

 66 71  0  0  0  0  0  0  0  0999 V2000
    7.6437   -2.6006   23.6668 C   0  0  0  0  0  0  0  0  0  0  0  0
    7.9968   -1.7529   22.4325 C   0  0  1  0  0  0  0  0  0  0  0  0
    6.8106   -1.6579   21.4447 C   0  0  0  0  0  0  0  0  0  0  0  0
    6.9757   -0.3559   20.8270 N   0  0  0  0  0  0  0  0  0  0  0  0
    6.1586    0.1223   19.7636 C   0  0  0  0  0  0  0  0  0  0  0  0
    6.4514   -0.2166   18.4662 C   0  0  0  0  0  0  0  0  0  0  0  0
    5.7617    0.2170   17.3845 N   0  0  0  0  0  0  0  0  0  0  0  0
    4.7445    1.0184   17.5930 C   0  0  0  0  0  0  0  0  0  0  0  0
    4.3019    1.4216   18.8863 C   0  0  0  0  0  0  0  0  0  0  0  0
    3.1813    2.2782   19.0678 C   0  0  0  0  0  0  0  0  0  0  0  0
    2.7733    2.6396   20.3239 C   0  0  0  0  0  0  0  0  0  0  0  0
    3.4545    2.1437   21.4578 C   0  0  0  0  0  0  0  0  0  0  0  0
    4.5354    1.3061   21.3053 C   0  0  0  0  0  0  0  0  0  0  0  0
    5.0144    0.9488   20.0117 C   0  0  0  0  0  0  0  0  0  0  0  0
    5.0327    0.9001   22.1801 H   0  0  0  0  0  0  0  0  0  0  0  0
    3.1234    2.4366   22.4522 H   0  0  0  0  0  0  0  0  0  0  0  0
    1.9310    3.3169   20.4512 H   0  0  0  0  0  0  0  0  0  0  0  0
    2.6748    2.6623   18.1874 H   0  0  0  0  0  0  0  0  0  0  0  0
    4.2171    1.3844   16.7129 H   0  0  0  0  0  0  0  0  0  0  0  0
    7.2923   -0.8735   18.2473 H   0  0  0  0  0  0  0  0  0  0  0  0
    7.8438    0.4762   21.4835 C   0  0  0  0  0  0  0  0  0  0  0  0
    8.0621    1.6327   21.1608 O   0  0  0  0  0  0  0  0  0  0  0  0
    8.4714   -0.2800   22.6783 C   0  0  1  0  0  0  0  0  0  0  0  0
    7.9156    0.2861   24.0070 C   0  0  0  0  0  0  0  0  0  0  0  0
    8.4042    1.6237   24.2863 N   0  0  0  0  0  0  0  0  0  0  0  0
    7.4826    2.5656   24.9145 C   0  0  0  0  0  0  0  0  0  0  0  0
    6.6309    3.3308   23.9013 C   0  0  0  0  0  0  0  0  0  0  0  0
    7.4494    4.2383   23.0304 N   0  0  0  0  0  4  0  0  0  0  0  0
    6.7625    4.5592   21.7233 C   0  0  0  0  0  0  0  0  0  0  0  0
    5.6497    5.5864   21.9039 C   0  0  0  0  0  0  0  0  0  0  0  0
    6.1444    6.7839   22.4743 O   0  0  0  0  0  0  0  0  0  0  0  0
    6.6868    6.5463   23.7593 C   0  0  0  0  0  0  0  0  0  0  0  0
    7.8447    5.5436   23.7089 C   0  0  0  0  0  0  0  0  0  0  0  0
    8.6605    5.9863   23.1344 H   0  0  0  0  0  0  0  0  0  0  0  0
    8.2091    5.3219   24.7162 H   0  0  0  0  0  0  0  0  0  0  0  0
    7.0444    7.5140   24.1218 H   0  0  0  0  0  0  0  0  0  0  0  0
    5.9029    6.1884   24.4466 H   0  0  0  0  0  0  0  0  0  0  0  0
    5.2188    5.8602   20.9366 H   0  0  0  0  0  0  0  0  0  0  0  0
    4.8505    5.1583   22.5333 H   0  0  0  0  0  0  0  0  0  0  0  0
    6.3820    3.6226   21.3037 H   0  0  0  0  0  0  0  0  0  0  0  0
    7.5179    4.9700   21.0524 H   0  0  0  0  0  0  0  0  0  0  0  0
    8.3023    3.7115   22.7789 H   0  0  0  0  0  0  0  0  0  0  0  0
    5.8742    3.9145   24.4303 H   0  0  0  0  0  0  0  0  0  0  0  0
    6.1096    2.6221   23.2466 H   0  0  0  0  0  0  0  0  0  0  0  0
    8.0779    3.2506   25.5209 H   0  0  0  0  0  0  0  0  0  0  0  0
    6.8060    2.0152   25.5810 H   0  0  0  0  0  0  0  0  0  0  0  0
    9.7422    1.8970   24.2508 C   0  0  0  0  0  0  0  0  0  0  0  0
   10.2332    2.8730   24.8002 O   0  0  0  0  0  0  0  0  0  0  0  0
   10.5724    0.9420   23.4276 C   0  0  0  0  0  0  0  0  0  0  0  0
   11.9517    1.1384   23.3867 C   0  0  0  0  0  0  0  0  0  0  0  0
   12.7527    0.3759   22.5602 C   0  0  0  0  0  0  0  0  0  0  0  0
   12.1451   -0.5715   21.7429 C   0  0  0  0  0  0  0  0  0  0  0  0
   13.1174   -1.4278   20.5803 Cl  0  0  0  0  0  0  0  0  0  0  0  0
   10.7777   -0.7801   21.7637 C   0  0  0  0  0  0  0  0  0  0  0  0
    9.9744   -0.0685   22.6625 C   0  0  0  0  0  0  0  0  0  0  0  0
   10.3490   -1.4424   21.0178 H   0  0  0  0  0  0  0  0  0  0  0  0
   13.8246    0.5296   22.4947 H   0  0  0  0  0  0  0  0  0  0  0  0
   12.3765    1.9149   24.0060 H   0  0  0  0  0  0  0  0  0  0  0  0
    6.8283    0.3388   23.9459 H   0  0  0  0  0  0  0  0  0  0  0  0
    8.1812   -0.3979   24.8295 H   0  0  0  0  0  0  0  0  0  0  0  0
    6.8244   -2.4448   20.6836 H   0  0  0  0  0  0  0  0  0  0  0  0
    5.8455   -1.7530   21.9709 H   0  0  0  0  0  0  0  0  0  0  0  0
    8.8182   -2.2581   21.9195 H   0  0  0  0  0  0  0  0  0  0  0  0
    7.3843   -3.6295   23.3781 H   0  0  0  0  0  0  0  0  0  0  0  0
    6.7797   -2.1916   24.2083 H   0  0  0  0  0  0  0  0  0  0  0  0
    8.4763   -2.6613   24.3783 H   0  0  0  0  0  0  0  0  0  0  0  0
  1  2  1  0
  2  3  1  0
  3  4  1  0
  4  5  1  0
  5  6  2  0
  6  7  1  0
  7  8  2  0
  8  9  1  0
  9 10  2  0
 10 11  1  0
 11 12  2  0
 12 13  1  0
 13 14  2  0
 13 15  1  0
 12 16  1  0
 11 17  1  0
 10 18  1  0
  8 19  1  0
  6 20  1  0
  4 21  1  0
 21 22  2  0
 21 23  1  0
 23 24  1  1
 24 25  1  0
 25 26  1  0
 26 27  1  0
 27 28  1  0
 28 29  1  0
 29 30  1  0
 30 31  1  0
 31 32  1  0
 32 33  1  0
 33 34  1  0
 33 35  1  0
 32 36  1  0
 32 37  1  0
 30 38  1  0
 30 39  1  0
 29 40  1  0
 29 41  1  0
 28 42  1  0
 27 43  1  0
 27 44  1  0
 26 45  1  0
 26 46  1  0
 25 47  1  0
 47 48  2  0
 47 49  1  0
 49 50  2  0
 50 51  1  0
 51 52  2  0
 52 53  1  0
 52 54  1  0
 54 55  2  0
 54 56  1  0
 51 57  1  0
 50 58  1  0
 24 59  1  0
 24 60  1  0
  3 61  1  0
  3 62  1  0
  2 63  1  6
  1 64  1  0
  1 65  1  0
  1 66  1  0
 23  2  1  0
 33 28  1  0
 55 49  1  0
 14  5  1  0
 55 23  1  0
 14  9  1  0
M  CHG  1  28   1
M  END
>  <cnnaffinities>  (65) 
[6.81321, 6.66009]

>  <score>  (65) 
6.81321

>  <index>  (65) 
64

>  <Smiles>  (65) 
C([C@]1(C(N(c2c(nc(c3c(c(c(c(c23)[H])[H])[H])[H])[H])[H])C(=O)[C@]21C(N(C(C([N+]1(C(C(OC(C1([H])[H])([H])[H])([H])[H])([H])[H])[H])([H])[H])([H])[H])C(=O)c1c(c(c(Cl)c(c21)[H])[H])[H])([H])[H])([H])[H])[H])([H])([H])[H]

>  <h>  (65) 
<NA>

>  <Training>  (65) 
True

>  <Success>  (65) 
True

>  <enamine_searched>  (65) 
False

>  <enamine_id>  (65) 
nan

$$$$

     RDKit          3D

 54 59  0  0  0  0  0  0  0  0999 V2000
   12.5240   -2.0160   20.7376 C   0  0  0  0  0  0  0  0  0  0  0  0
   12.2340   -2.0916   22.1693 N   0  0  0  0  0  0  0  0  0  0  0  0
   12.1545   -0.8780   22.7854 C   0  0  0  0  0  0  0  0  0  0  0  0
   12.4100    0.1479   22.1724 O   0  0  0  0  0  0  0  0  0  0  0  0
   11.6836   -0.8226   24.2372 C   0  0  0  0  0  0  0  0  0  0  0  0
   10.2360   -0.8511   24.3211 N   0  0  0  0  0  0  0  0  0  0  0  0
    9.5957   -1.4860   25.3830 C   0  0  0  0  0  0  0  0  0  0  0  0
   10.1236   -2.2639   26.1547 O   0  0  0  0  0  0  0  0  0  0  0  0
    8.1851   -0.9979   25.3589 C   0  0  0  0  0  0  0  0  0  0  0  0
    7.1815   -1.2816   26.2530 C   0  0  0  0  0  0  0  0  0  0  0  0
    5.9839   -0.5305   26.1729 C   0  0  0  0  0  0  0  0  0  0  0  0
    5.9012    0.5573   25.3418 C   0  0  0  0  0  0  0  0  0  0  0  0
    4.4627    1.5271   25.3136 Cl  0  0  0  0  0  0  0  0  0  0  0  0
    7.0638    1.0790   24.5811 C   0  0  0  0  0  0  0  0  0  0  0  0
    8.0292   -0.0454   24.2691 C   0  0  1  0  0  0  0  0  0  0  0  0
    9.3836    0.0941   23.6487 C   0  0  2  0  0  0  0  0  0  0  0  0
    8.2716   -0.4365   22.7823 C   0  0  2  0  0  0  0  0  0  0  0  0
    7.7247    0.4478   21.6666 C   0  0  0  0  0  0  0  0  0  0  0  0
    7.9038    1.6314   21.4777 O   0  0  0  0  0  0  0  0  0  0  0  0
    6.9417   -0.3607   20.8587 N   0  0  0  0  0  0  0  0  0  0  0  0
    6.1598    0.1282   19.7775 C   0  0  0  0  0  0  0  0  0  0  0  0
    6.4553   -0.2170   18.4811 C   0  0  0  0  0  0  0  0  0  0  0  0
    5.7763    0.2201   17.3906 N   0  0  0  0  0  0  0  0  0  0  0  0
    4.7517    1.0128   17.5984 C   0  0  0  0  0  0  0  0  0  0  0  0
    4.3017    1.4100   18.8887 C   0  0  0  0  0  0  0  0  0  0  0  0
    3.1707    2.2523   19.0654 C   0  0  0  0  0  0  0  0  0  0  0  0
    2.7484    2.5986   20.3190 C   0  0  0  0  0  0  0  0  0  0  0  0
    3.4255    2.1039   21.4584 C   0  0  0  0  0  0  0  0  0  0  0  0
    4.5182    1.2866   21.3129 C   0  0  0  0  0  0  0  0  0  0  0  0
    5.0062    0.9435   20.0206 C   0  0  0  0  0  0  0  0  0  0  0  0
    5.0153    0.8912   22.1944 H   0  0  0  0  0  0  0  0  0  0  0  0
    3.0944    2.3763   22.4580 H   0  0  0  0  0  0  0  0  0  0  0  0
    1.8971    3.2628   20.4432 H   0  0  0  0  0  0  0  0  0  0  0  0
    2.6664    2.6318   18.1803 H   0  0  0  0  0  0  0  0  0  0  0  0
    4.2203    1.3763   16.7184 H   0  0  0  0  0  0  0  0  0  0  0  0
    7.3016   -0.8698   18.2697 H   0  0  0  0  0  0  0  0  0  0  0  0
    7.0923   -1.7767   21.1386 C   0  0  0  0  0  0  0  0  0  0  0  0
    8.1277   -1.8080   22.2403 C   0  0  0  0  0  0  0  0  0  0  0  0
    8.7756   -2.9235   22.5887 C   0  0  0  0  0  0  0  0  0  0  0  0
    8.4680   -4.0995   22.0149 F   0  0  0  0  0  0  0  0  0  0  0  0
    9.5709   -3.0015   23.3208 H   0  0  0  0  0  0  0  0  0  0  0  0
    7.4112   -2.2968   20.2385 H   0  0  0  0  0  0  0  0  0  0  0  0
    6.1408   -2.2157   21.4640 H   0  0  0  0  0  0  0  0  0  0  0  0
    9.8031    1.0639   23.3907 H   0  0  0  0  0  0  0  0  0  0  0  0
    7.6008    1.8259   25.1997 H   0  0  0  0  0  0  0  0  0  0  0  0
    6.7494    1.6215   23.6794 H   0  0  0  0  0  0  0  0  0  0  0  0
    5.1442   -0.7702   26.8214 H   0  0  0  0  0  0  0  0  0  0  0  0
    7.3047   -2.0680   26.9932 H   0  0  0  0  0  0  0  0  0  0  0  0
   12.1011    0.1086   24.6407 H   0  0  0  0  0  0  0  0  0  0  0  0
   12.0366   -1.6647   24.8383 H   0  0  0  0  0  0  0  0  0  0  0  0
   12.0187   -2.9536   22.6580 H   0  0  0  0  0  0  0  0  0  0  0  0
   13.5173   -1.5706   20.5780 H   0  0  0  0  0  0  0  0  0  0  0  0
   12.4684   -2.9804   20.2288 H   0  0  0  0  0  0  0  0  0  0  0  0
   11.7804   -1.3565   20.2837 H   0  0  0  0  0  0  0  0  0  0  0  0
  1  2  1  0
  2  3  1  0
  3  4  2  0
  3  5  1  0
  5  6  1  0
  6  7  1  0
  7  8  2  0
  7  9  1  0
  9 10  2  0
 10 11  1  0
 11 12  2  0
 12 13  1  0
 12 14  1  0
 15 14  1  6
 15 16  1  0
 16 17  1  0
 17 18  1  6
 18 19  2  0
 18 20  1  0
 20 21  1  0
 21 22  2  0
 22 23  1  0
 23 24  2  0
 24 25  1  0
 25 26  2  0
 26 27  1  0
 27 28  2  0
 28 29  1  0
 29 30  2  0
 29 31  1  0
 28 32  1  0
 27 33  1  0
 26 34  1  0
 24 35  1  0
 22 36  1  0
 20 37  1  0
 37 38  1  0
 38 39  2  0
 39 40  1  0
 39 41  1  0
 37 42  1  0
 37 43  1  0
 16 44  1  6
 14 45  1  0
 14 46  1  0
 11 47  1  0
 10 48  1  0
  5 49  1  0
  5 50  1  0
  2 51  1  0
  1 52  1  0
  1 53  1  0
  1 54  1  0
 16  6  1  0
 38 17  1  0
 15  9  1  0
 30 21  1  0
 17 15  1  0
 30 25  1  0
M  END
>  <cnnaffinities>  (66) 
[5.99652]

>  <score>  (66) 
5.99652

>  <index>  (66) 
65

>  <Smiles>  (66) 
C(N(C(=O)C(N1C(=O)C2=C(C(=C(Cl)C([C@]32[C@@]1([C@@]13C(=O)N(c2c(nc(c3c(c(c(c(c23)[H])[H])[H])[H])[H])[H])C(/C/1=C(\F)/[H])([H])[H])[H])([H])[H])[H])[H])([H])[H])[H])([H])([H])[H]

>  <h>  (66) 
<NA>

>  <Training>  (66) 
True

>  <Success>  (66) 
True

>  <enamine_searched>  (66) 
False

>  <enamine_id>  (66) 
nan

$$$$

     RDKit          3D

 47 50  0  0  0  0  0  0  0  0999 V2000
    8.5958    1.2749   20.6659 O   0  0  0  0  0  0  0  0  0  0  0  0
    7.8824    0.6748   21.4446 C   0  0  0  0  0  0  0  0  0  0  0  0
    6.9514   -0.4372   20.9117 C   0  0  0  0  0  0  0  0  0  0  0  0
    6.1069    0.0809   19.7643 C   0  0  0  0  0  0  0  0  0  0  0  0
    6.4262   -0.2097   18.4638 C   0  0  0  0  0  0  0  0  0  0  0  0
    5.7622    0.2421   17.3639 N   0  0  0  0  0  0  0  0  0  0  0  0
    4.7342    1.0272   17.5772 C   0  0  0  0  0  0  0  0  0  0  0  0
    4.2850    1.4179   18.8665 C   0  0  0  0  0  0  0  0  0  0  0  0
    3.1676    2.2720   19.0451 C   0  0  0  0  0  0  0  0  0  0  0  0
    2.7641    2.6443   20.2986 C   0  0  0  0  0  0  0  0  0  0  0  0
    3.4625    2.1683   21.4318 C   0  0  0  0  0  0  0  0  0  0  0  0
    4.5464    1.3368   21.2878 C   0  0  0  0  0  0  0  0  0  0  0  0
    4.9899    0.9379   19.9983 C   0  0  0  0  0  0  0  0  0  0  0  0
    5.0680    0.9828   22.1747 H   0  0  0  0  0  0  0  0  0  0  0  0
    3.1350    2.4685   22.4229 H   0  0  0  0  0  0  0  0  0  0  0  0
    1.9159    3.3126   20.4314 H   0  0  0  0  0  0  0  0  0  0  0  0
    2.6522    2.6485   18.1647 H   0  0  0  0  0  0  0  0  0  0  0  0
    4.2002    1.3970   16.6989 H   0  0  0  0  0  0  0  0  0  0  0  0
    7.2744   -0.8569   18.2417 H   0  0  0  0  0  0  0  0  0  0  0  0
    7.5952   -1.2424   20.5357 H   0  0  0  0  0  0  0  0  0  0  0  0
    6.3166   -0.8605   21.7016 H   0  0  0  0  0  0  0  0  0  0  0  0
    7.8536    0.9840   22.8040 N   0  0  0  0  0  0  0  0  0  0  0  0
    7.7784    2.3918   23.1832 C   0  0  0  0  0  0  0  0  0  0  0  0
    8.6238    2.6841   24.4143 C   0  0  0  0  0  0  0  0  0  0  0  0
    8.3130    1.7431   25.5779 C   0  0  1  0  0  0  0  0  0  0  0  0
    6.9734    2.0490   26.2605 C   0  0  0  0  0  0  0  0  0  0  0  0
    6.7291    1.1210   27.4484 C   0  0  0  0  0  0  0  0  0  0  0  0
    6.8065   -0.3314   27.0269 C   0  0  0  0  0  0  0  0  0  0  0  0
    6.7077   -1.1357   28.1335 F   0  0  0  0  0  0  0  0  0  0  0  0
    5.7036   -0.6269   26.2548 F   0  0  0  0  0  0  0  0  0  0  0  0
    8.0716   -0.6807   26.2582 C   0  0  0  0  0  0  0  0  0  0  0  0
    8.3981    0.2832   25.1057 C   0  0  1  0  0  0  0  0  0  0  0  0
    7.5389    0.0323   23.8551 C   0  0  0  0  0  0  0  0  0  0  0  0
    6.4720    0.0359   24.1203 H   0  0  0  0  0  0  0  0  0  0  0  0
    7.7697   -0.9647   23.4776 H   0  0  0  0  0  0  0  0  0  0  0  0
    9.4366    0.0926   24.8098 H   0  0  0  0  0  0  0  0  0  0  0  0
    8.8826   -0.6704   26.9936 H   0  0  0  0  0  0  0  0  0  0  0  0
    7.9891   -1.7136   25.9068 H   0  0  0  0  0  0  0  0  0  0  0  0
    7.4967    1.2762   28.2121 H   0  0  0  0  0  0  0  0  0  0  0  0
    5.7551    1.3021   27.9140 H   0  0  0  0  0  0  0  0  0  0  0  0
    6.9608    3.0896   26.6015 H   0  0  0  0  0  0  0  0  0  0  0  0
    6.1498    1.9465   25.5473 H   0  0  0  0  0  0  0  0  0  0  0  0
    9.0886    1.8869   26.3430 H   0  0  0  0  0  0  0  0  0  0  0  0
    8.4721    3.7247   24.7260 H   0  0  0  0  0  0  0  0  0  0  0  0
    9.6818    2.5967   24.1439 H   0  0  0  0  0  0  0  0  0  0  0  0
    6.7312    2.6901   23.3692 H   0  0  0  0  0  0  0  0  0  0  0  0
    8.1265    2.9770   22.3312 H   0  0  0  0  0  0  0  0  0  0  0  0
  1  2  2  0
  2  3  1  0
  3  4  1  0
  4  5  2  0
  5  6  1  0
  6  7  2  0
  7  8  1  0
  8  9  2  0
  9 10  1  0
 10 11  2  0
 11 12  1  0
 12 13  2  0
 12 14  1  0
 11 15  1  0
 10 16  1  0
  9 17  1  0
  7 18  1  0
  5 19  1  0
  3 20  1  0
  3 21  1  0
  2 22  1  0
 22 23  1  0
 23 24  1  0
 24 25  1  0
 25 26  1  0
 26 27  1  0
 27 28  1  0
 28 29  1  0
 28 30  1  0
 28 31  1  0
 31 32  1  0
 32 33  1  0
 33 34  1  0
 33 35  1  0
 32 36  1  6
 31 37  1  0
 31 38  1  0
 27 39  1  0
 27 40  1  0
 26 41  1  0
 26 42  1  0
 25 43  1  1
 24 44  1  0
 24 45  1  0
 23 46  1  0
 23 47  1  0
 13  4  1  0
 33 22  1  0
 13  8  1  0
 32 25  1  0
M  END
>  <cnnaffinities>  (67) 
[5.53249, 5.52896, 5.87711, 5.66686, 5.66644, 5.41145, 5.4114]

>  <score>  (67) 
5.53249

>  <index>  (67) 
66

>  <Smiles>  (67) 
O=C(C(c1c(nc(c2c(c(c(c(c12)[H])[H])[H])[H])[H])[H])([H])[H])N1C(C([C@]2(C(C(C(F)(F)C([C@]2(C1([H])[H])[H])([H])[H])([H])[H])([H])[H])[H])([H])[H])([H])[H]

>  <h>  (67) 
<NA>

>  <Training>  (67) 
True

>  <Success>  (67) 
True

>  <enamine_searched>  (67) 
False

>  <enamine_id>  (67) 
nan

$$$$

     RDKit          3D

 69 74  0  0  0  0  0  0  0  0999 V2000
    7.3637    5.1925   21.6898 C   0  0  0  0  0  0  0  0  0  0  0  0
    7.9015    4.4321   22.8252 N   0  0  0  0  0  4  0  0  0  0  0  0
    6.8606    3.6221   23.5277 C   0  0  0  0  0  0  0  0  0  0  0  0
    7.4687    2.8331   24.6859 C   0  0  0  0  0  0  0  0  0  0  0  0
    8.3614    1.7669   24.2562 N   0  0  0  0  0  0  0  0  0  0  0  0
    7.7991    0.4460   24.0394 C   0  0  0  0  0  0  0  0  0  0  0  0
    8.3646   -0.2355   22.7655 C   0  0  2  0  0  0  0  0  0  0  0  0
    7.8254    0.4808   21.5011 C   0  0  0  0  0  0  0  0  0  0  0  0
    8.1033    1.6042   21.1320 O   0  0  0  0  0  0  0  0  0  0  0  0
    6.9599   -0.3627   20.8394 N   0  0  0  0  0  0  0  0  0  0  0  0
    6.1560    0.1212   19.7655 C   0  0  0  0  0  0  0  0  0  0  0  0
    6.4534   -0.2162   18.4712 C   0  0  0  0  0  0  0  0  0  0  0  0
    5.7639    0.2177   17.3838 N   0  0  0  0  0  0  0  0  0  0  0  0
    4.7434    1.0131   17.5946 C   0  0  0  0  0  0  0  0  0  0  0  0
    4.2991    1.4178   18.8852 C   0  0  0  0  0  0  0  0  0  0  0  0
    3.1744    2.2695   19.0653 C   0  0  0  0  0  0  0  0  0  0  0  0
    2.7670    2.6323   20.3179 C   0  0  0  0  0  0  0  0  0  0  0  0
    3.4531    2.1470   21.4543 C   0  0  0  0  0  0  0  0  0  0  0  0
    4.5411    1.3204   21.3061 C   0  0  0  0  0  0  0  0  0  0  0  0
    5.0138    0.9514   20.0135 C   0  0  0  0  0  0  0  0  0  0  0  0
    5.0520    0.9425   22.1880 H   0  0  0  0  0  0  0  0  0  0  0  0
    3.1250    2.4413   22.4463 H   0  0  0  0  0  0  0  0  0  0  0  0
    1.9231    3.3045   20.4457 H   0  0  0  0  0  0  0  0  0  0  0  0
    2.6660    2.6470   18.1811 H   0  0  0  0  0  0  0  0  0  0  0  0
    4.2144    1.3794   16.7132 H   0  0  0  0  0  0  0  0  0  0  0  0
    7.2953   -0.8700   18.2510 H   0  0  0  0  0  0  0  0  0  0  0  0
    6.7195   -1.6279   21.5156 C   0  0  0  0  0  0  0  0  0  0  0  0
    7.8284   -1.6970   22.5824 C   0  0  2  0  0  0  0  0  0  0  0  0
    7.4007   -2.4795   23.8294 C   0  0  0  0  0  0  0  0  0  0  0  0
    6.1711   -1.9832   24.3457 O   0  0  0  0  0  0  0  0  0  0  0  0
    5.8280   -2.5331   25.6088 C   0  0  0  0  0  0  0  0  0  0  0  0
    6.2972   -1.6719   26.7531 C   0  0  0  0  0  0  0  0  0  0  0  0
    7.6639   -1.8009   26.9438 F   0  0  0  0  0  0  0  0  0  0  0  0
    5.4354   -1.4416   27.9489 C   0  0  0  0  0  0  0  0  0  0  0  0
    5.7094   -0.3187   26.9488 C   0  0  0  0  0  0  0  0  0  0  0  0
    6.3819    0.4814   27.2558 H   0  0  0  0  0  0  0  0  0  0  0  0
    4.9264   -0.0189   26.2513 H   0  0  0  0  0  0  0  0  0  0  0  0
    5.8956   -1.3766   28.9336 H   0  0  0  0  0  0  0  0  0  0  0  0
    4.4469   -1.9044   27.9752 H   0  0  0  0  0  0  0  0  0  0  0  0
    6.2447   -3.5476   25.7239 H   0  0  0  0  0  0  0  0  0  0  0  0
    4.7322   -2.5888   25.6510 H   0  0  0  0  0  0  0  0  0  0  0  0
    7.2655   -3.5446   23.5776 H   0  0  0  0  0  0  0  0  0  0  0  0
    8.1820   -2.4289   24.6002 H   0  0  0  0  0  0  0  0  0  0  0  0
    8.6652   -2.2647   22.1712 H   0  0  0  0  0  0  0  0  0  0  0  0
    5.7251   -1.6608   21.9789 H   0  0  0  0  0  0  0  0  0  0  0  0
    6.7758   -2.4576   20.8017 H   0  0  0  0  0  0  0  0  0  0  0  0
    9.8802   -0.0933   22.7798 C   0  0  0  0  0  0  0  0  0  0  0  0
   10.6710   -0.8714   21.9220 C   0  0  0  0  0  0  0  0  0  0  0  0
   12.0464   -0.7316   21.9286 C   0  0  0  0  0  0  0  0  0  0  0  0
   13.0117   -1.7128   20.8647 Cl  0  0  0  0  0  0  0  0  0  0  0  0
   12.6792    0.2000   22.7488 C   0  0  0  0  0  0  0  0  0  0  0  0
   11.9004    1.0300   23.5304 C   0  0  0  0  0  0  0  0  0  0  0  0
   10.5101    0.9159   23.5259 C   0  0  0  0  0  0  0  0  0  0  0  0
    9.7111    1.9579   24.2643 C   0  0  0  0  0  0  0  0  0  0  0  0
   10.2408    2.9366   24.7810 O   0  0  0  0  0  0  0  0  0  0  0  0
   12.3442    1.8038   24.1453 H   0  0  0  0  0  0  0  0  0  0  0  0
   13.7596    0.2838   22.7364 H   0  0  0  0  0  0  0  0  0  0  0  0
   10.2345   -1.5610   21.2075 H   0  0  0  0  0  0  0  0  0  0  0  0
    6.7221    0.5682   23.9125 H   0  0  0  0  0  0  0  0  0  0  0  0
    7.9736   -0.2008   24.9167 H   0  0  0  0  0  0  0  0  0  0  0  0
    8.0388    3.4885   25.3472 H   0  0  0  0  0  0  0  0  0  0  0  0
    6.6547    2.3789   25.2640 H   0  0  0  0  0  0  0  0  0  0  0  0
    6.0727    4.2896   23.8908 H   0  0  0  0  0  0  0  0  0  0  0  0
    6.4074    2.9431   22.8006 H   0  0  0  0  0  0  0  0  0  0  0  0
    8.6297    3.7741   22.4721 H   0  0  0  0  0  0  0  0  0  0  0  0
    8.3430    5.0829   23.5194 H   0  0  0  0  0  0  0  0  0  0  0  0
    6.9621    4.4957   20.9499 H   0  0  0  0  0  0  0  0  0  0  0  0
    8.1432    5.7996   21.2362 H   0  0  0  0  0  0  0  0  0  0  0  0
    6.5507    5.8519   22.0043 H   0  0  0  0  0  0  0  0  0  0  0  0
  1  2  1  0
  2  3  1  0
  3  4  1  0
  4  5  1  0
  5  6  1  0
  7  6  1  1
  7  8  1  0
  8  9  2  0
  8 10  1  0
 10 11  1  0
 11 12  2  0
 12 13  1  0
 13 14  2  0
 14 15  1  0
 15 16  2  0
 16 17  1  0
 17 18  2  0
 18 19  1  0
 19 20  2  0
 19 21  1  0
 18 22  1  0
 17 23  1  0
 16 24  1  0
 14 25  1  0
 12 26  1  0
 10 27  1  0
 27 28  1  0
 28 29  1  0
 29 30  1  0
 30 31  1  0
 31 32  1  0
 32 33  1  0
 32 34  1  0
 34 35  1  0
 35 36  1  0
 35 37  1  0
 34 38  1  0
 34 39  1  0
 31 40  1  0
 31 41  1  0
 29 42  1  0
 29 43  1  0
 28 44  1  6
 27 45  1  0
 27 46  1  0
  7 47  1  0
 47 48  2  0
 48 49  1  0
 49 50  1  0
 49 51  2  0
 51 52  1  0
 52 53  2  0
 53 54  1  0
 54 55  2  0
 52 56  1  0
 51 57  1  0
 48 58  1  0
  6 59  1  0
  6 60  1  0
  4 61  1  0
  4 62  1  0
  3 63  1  0
  3 64  1  0
  2 65  1  0
  2 66  1  0
  1 67  1  0
  1 68  1  0
  1 69  1  0
 54  5  1  0
 28  7  1  0
 35 32  1  0
 53 47  1  0
 20 11  1  0
 20 15  1  0
M  CHG  1   2   1
M  END
>  <cnnaffinities>  (68) 
[6.86193]

>  <score>  (68) 
6.86193

>  <index>  (68) 
67

>  <Smiles>  (68) 
C([N+](C(C(N1C([C@@]2(C(=O)N(c3c(nc(c4c(c(c(c(c34)[H])[H])[H])[H])[H])[H])C([C@@]2(C(OC(C2(F)C(C2([H])[H])([H])[H])([H])[H])([H])[H])[H])([H])[H])c2c(c(Cl)c(c(c2C1=O)[H])[H])[H])([H])[H])([H])[H])([H])[H])([H])[H])([H])([H])[H]

>  <h>  (68) 
<NA>

>  <Training>  (68) 
True

>  <Success>  (68) 
True

>  <enamine_searched>  (68) 
False

>  <enamine_id>  (68) 
nan

$$$$

     RDKit          3D

 57 62  0  0  0  0  0  0  0  0999 V2000
    8.5516   -5.3800   27.8159 C   0  0  0  0  0  0  0  0  0  0  0  0
    7.7620   -4.1945   27.3522 C   0  0  0  0  0  0  0  0  0  0  0  0
    8.2403   -3.0309   27.0309 N   0  0  0  0  0  0  0  0  0  0  0  0
    7.1029   -2.3080   26.7621 C   0  0  0  0  0  0  0  0  0  0  0  0
    7.1591   -0.8350   26.4805 C   0  0  0  0  0  0  0  0  0  0  0  0
    7.9958   -0.5254   25.3323 N   0  0  0  0  0  0  0  0  0  0  0  0
    7.4040   -0.0911   24.0721 C   0  0  0  0  0  0  0  0  0  0  0  0
    8.2498   -0.4728   22.8256 C   0  0  2  0  0  0  0  0  0  0  0  0
    7.6972    0.3929   21.6788 C   0  0  0  0  0  0  0  0  0  0  0  0
    7.8425    1.5909   21.5393 O   0  0  0  0  0  0  0  0  0  0  0  0
    6.9486   -0.4053   20.8409 N   0  0  0  0  0  0  0  0  0  0  0  0
    6.1558    0.1112   19.7876 C   0  0  0  0  0  0  0  0  0  0  0  0
    6.4567   -0.2340   18.4952 C   0  0  0  0  0  0  0  0  0  0  0  0
    5.7897    0.2027   17.4001 N   0  0  0  0  0  0  0  0  0  0  0  0
    4.7666    0.9971   17.6082 C   0  0  0  0  0  0  0  0  0  0  0  0
    4.3158    1.3953   18.8974 C   0  0  0  0  0  0  0  0  0  0  0  0
    3.1846    2.2375   19.0515 C   0  0  0  0  0  0  0  0  0  0  0  0
    2.7483    2.5876   20.2983 C   0  0  0  0  0  0  0  0  0  0  0  0
    3.4148    2.1051   21.4453 C   0  0  0  0  0  0  0  0  0  0  0  0
    4.5155    1.2957   21.3238 C   0  0  0  0  0  0  0  0  0  0  0  0
    5.0096    0.9328   20.0368 C   0  0  0  0  0  0  0  0  0  0  0  0
    5.0192    0.9379   22.2168 H   0  0  0  0  0  0  0  0  0  0  0  0
    3.0495    2.3823   22.4292 H   0  0  0  0  0  0  0  0  0  0  0  0
    1.8864    3.2382   20.4111 H   0  0  0  0  0  0  0  0  0  0  0  0
    2.6877    2.6035   18.1575 H   0  0  0  0  0  0  0  0  0  0  0  0
    4.2305    1.3601   16.7313 H   0  0  0  0  0  0  0  0  0  0  0  0
    7.3041   -0.8918   18.3086 H   0  0  0  0  0  0  0  0  0  0  0  0
    6.8613   -1.7892   21.2615 C   0  0  0  0  0  0  0  0  0  0  0  0
    8.0104   -1.9273   22.2703 C   0  0  2  0  0  0  0  0  0  0  0  0
    7.7658   -3.0263   23.2988 C   0  0  0  0  0  0  0  0  0  0  0  0
    8.5664   -3.0544   24.0448 H   0  0  0  0  0  0  0  0  0  0  0  0
    6.8225   -2.8563   23.8313 H   0  0  0  0  0  0  0  0  0  0  0  0
    7.7100   -4.0024   22.8023 H   0  0  0  0  0  0  0  0  0  0  0  0
    8.9182   -2.1718   21.6994 H   0  0  0  0  0  0  0  0  0  0  0  0
    6.9678   -2.4495   20.3975 H   0  0  0  0  0  0  0  0  0  0  0  0
    5.8828   -2.0146   21.7176 H   0  0  0  0  0  0  0  0  0  0  0  0
    9.7148   -0.1849   23.1217 C   0  0  0  0  0  0  0  0  0  0  0  0
   10.6346    0.0088   22.0890 C   0  0  0  0  0  0  0  0  0  0  0  0
   11.9842    0.1087   22.3790 C   0  0  0  0  0  0  0  0  0  0  0  0
   12.8781    0.1572   21.3883 F   0  0  0  0  0  0  0  0  0  0  0  0
   12.4806    0.1147   23.6748 C   0  0  0  0  0  0  0  0  0  0  0  0
   11.5785   -0.0710   24.6961 C   0  0  0  0  0  0  0  0  0  0  0  0
   10.2205   -0.2191   24.4196 C   0  0  0  0  0  0  0  0  0  0  0  0
    9.3394   -0.4810   25.5739 C   0  0  0  0  0  0  0  0  0  0  0  0
    9.8114   -0.6708   26.6836 O   0  0  0  0  0  0  0  0  0  0  0  0
   11.9064   -0.1363   25.7271 H   0  0  0  0  0  0  0  0  0  0  0  0
   13.5380    0.2500   23.8631 H   0  0  0  0  0  0  0  0  0  0  0  0
   10.2787    0.0947   21.0739 H   0  0  0  0  0  0  0  0  0  0  0  0
    6.3977   -0.5256   23.9835 H   0  0  0  0  0  0  0  0  0  0  0  0
    7.2925    1.0043   24.0644 H   0  0  0  0  0  0  0  0  0  0  0  0
    7.6100   -0.3454   27.3531 H   0  0  0  0  0  0  0  0  0  0  0  0
    6.1598   -0.4266   26.3300 H   0  0  0  0  0  0  0  0  0  0  0  0
    5.9933   -2.9866   26.8582 N   0  0  0  0  0  0  0  0  0  0  0  0
    6.4325   -4.2535   27.2471 O   0  0  0  0  0  0  0  0  0  0  0  0
    7.9279   -6.0817   28.3712 H   0  0  0  0  0  0  0  0  0  0  0  0
    9.3697   -5.0547   28.4649 H   0  0  0  0  0  0  0  0  0  0  0  0
    9.0167   -5.8959   26.9669 H   0  0  0  0  0  0  0  0  0  0  0  0
  1  2  1  0
  2  3  2  0
  3  4  1  0
  4  5  1  0
  5  6  1  0
  6  7  1  0
  8  7  1  1
  8  9  1  0
  9 10  2  0
  9 11  1  0
 11 12  1  0
 12 13  2  0
 13 14  1  0
 14 15  2  0
 15 16  1  0
 16 17  2  0
 17 18  1  0
 18 19  2  0
 19 20  1  0
 20 21  2  0
 20 22  1  0
 19 23  1  0
 18 24  1  0
 17 25  1  0
 15 26  1  0
 13 27  1  0
 11 28  1  0
 28 29  1  0
 29 30  1  0
 30 31  1  0
 30 32  1  0
 30 33  1  0
 29 34  1  6
 28 35  1  0
 28 36  1  0
  8 37  1  0
 37 38  2  0
 38 39  1  0
 39 40  1  0
 39 41  2  0
 41 42  1  0
 42 43  2  0
 43 44  1  0
 44 45  2  0
 42 46  1  0
 41 47  1  0
 38 48  1  0
  7 49  1  0
  7 50  1  0
  5 51  1  0
  5 52  1  0
  4 53  2  0
 53 54  1  0
  1 55  1  0
  1 56  1  0
  1 57  1  0
 54  2  1  0
 44  6  1  0
 29  8  1  0
 43 37  1  0
 21 12  1  0
 21 16  1  0
M  END
>  <cnnaffinities>  (69) 
[6.41983, 6.45313, 6.27664]

>  <score>  (69) 
6.41983

>  <index>  (69) 
68

>  <Smiles>  (69) 
C(c1nc(C(N2C([C@@]3(C(=O)N(c4c(nc(c5c(c(c(c(c45)[H])[H])[H])[H])[H])[H])C([C@@]3(C([H])([H])[H])[H])([H])[H])c3c(c(F)c(c(c3C2=O)[H])[H])[H])([H])[H])([H])[H])no1)([H])([H])[H]

>  <h>  (69) 
<NA>

>  <Training>  (69) 
True

>  <Success>  (69) 
True

>  <enamine_searched>  (69) 
False

>  <enamine_id>  (69) 
nan

$$$$

     RDKit          3D

 64 68  0  0  0  0  0  0  0  0999 V2000
    1.1591   -1.2606   28.5126 C   0  0  0  0  0  0  0  0  0  0  0  0
    2.5948   -1.5807   28.0725 C   0  0  0  0  0  0  0  0  0  0  0  0
    2.6937   -2.0499   26.6220 C   0  0  0  0  0  0  0  0  0  0  0  0
    2.4466   -1.2764   25.7195 O   0  0  0  0  0  0  0  0  0  0  0  0
    3.1218   -3.3636   26.3886 N   0  0  0  0  0  0  0  0  0  0  0  0
    2.6408   -4.4669   27.2303 C   0  0  0  0  0  0  0  0  0  0  0  0
    2.2024   -5.6442   26.3623 C   0  0  0  0  0  0  0  0  0  0  0  0
    3.3938   -6.1284   25.5402 C   0  0  0  0  0  0  0  0  0  0  0  0
    4.1094   -4.9804   24.8555 C   0  0  0  0  0  0  0  0  0  0  0  0
    4.9547   -5.2361   23.7789 C   0  0  0  0  0  0  0  0  0  0  0  0
    5.6839   -4.2425   23.1426 C   0  0  0  0  0  0  0  0  0  0  0  0
    5.5709   -2.9297   23.5985 C   0  0  0  0  0  0  0  0  0  0  0  0
    6.3136   -1.8710   22.9776 N   0  0  0  0  0  0  0  0  0  0  0  0
    7.3233   -1.1866   23.7802 C   0  0  0  0  0  0  0  0  0  0  0  0
    8.7461   -1.5019   23.3528 C   0  0  0  0  0  0  0  0  0  0  0  0
    9.1882   -2.8210   23.4001 C   0  0  0  0  0  0  0  0  0  0  0  0
   10.4903   -3.1452   23.0543 C   0  0  0  0  0  0  0  0  0  0  0  0
   11.3684   -2.1734   22.5768 C   0  0  0  0  0  0  0  0  0  0  0  0
   10.9323   -0.8525   22.5570 C   0  0  0  0  0  0  0  0  0  0  0  0
   12.0445    0.4170   22.0954 Cl  0  0  0  0  0  0  0  0  0  0  0  0
    9.6402   -0.5086   22.9498 C   0  0  0  0  0  0  0  0  0  0  0  0
    9.3512    0.5403   22.9434 H   0  0  0  0  0  0  0  0  0  0  0  0
   12.3772   -2.4109   22.2513 H   0  0  0  0  0  0  0  0  0  0  0  0
   10.7888   -4.1719   23.2271 H   0  0  0  0  0  0  0  0  0  0  0  0
    8.5173   -3.6115   23.7310 H   0  0  0  0  0  0  0  0  0  0  0  0
    7.1578   -1.5478   24.8035 H   0  0  0  0  0  0  0  0  0  0  0  0
    7.1779   -0.0979   23.7626 H   0  0  0  0  0  0  0  0  0  0  0  0
    6.1225   -1.6626   21.6229 C   0  0  0  0  0  0  0  0  0  0  0  0
    5.3804   -2.3785   20.9746 O   0  0  0  0  0  0  0  0  0  0  0  0
    6.8787   -0.5054   20.9297 C   0  0  0  0  0  0  0  0  0  0  0  0
    6.1031    0.0777   19.7767 C   0  0  0  0  0  0  0  0  0  0  0  0
    6.4157   -0.2173   18.4763 C   0  0  0  0  0  0  0  0  0  0  0  0
    5.7595    0.2386   17.3744 N   0  0  0  0  0  0  0  0  0  0  0  0
    4.7321    1.0302   17.5753 C   0  0  0  0  0  0  0  0  0  0  0  0
    4.2900    1.4128   18.8687 C   0  0  0  0  0  0  0  0  0  0  0  0
    3.1751    2.2529   19.0757 C   0  0  0  0  0  0  0  0  0  0  0  0
    2.5332    2.6885   17.9769 F   0  0  0  0  0  0  0  0  0  0  0  0
    2.7418    2.6221   20.3134 C   0  0  0  0  0  0  0  0  0  0  0  0
    3.4374    2.1351   21.4420 C   0  0  0  0  0  0  0  0  0  0  0  0
    4.5241    1.3132   21.2937 C   0  0  0  0  0  0  0  0  0  0  0  0
    4.9822    0.9308   20.0063 C   0  0  0  0  0  0  0  0  0  0  0  0
    5.0450    0.9416   22.1714 H   0  0  0  0  0  0  0  0  0  0  0  0
    3.1072    2.4201   22.4379 H   0  0  0  0  0  0  0  0  0  0  0  0
    1.8887    3.2818   20.4094 H   0  0  0  0  0  0  0  0  0  0  0  0
    4.2015    1.3995   16.6990 H   0  0  0  0  0  0  0  0  0  0  0  0
    7.2608   -0.8668   18.2480 H   0  0  0  0  0  0  0  0  0  0  0  0
    7.8175   -0.9225   20.5446 H   0  0  0  0  0  0  0  0  0  0  0  0
    7.1622    0.2719   21.6477 H   0  0  0  0  0  0  0  0  0  0  0  0
    4.7476   -2.6461   24.6835 C   0  0  0  0  0  0  0  0  0  0  0  0
    3.9768   -3.6513   25.2967 C   0  0  0  0  0  0  0  0  0  0  0  0
    4.7049   -1.6191   25.0338 H   0  0  0  0  0  0  0  0  0  0  0  0
    6.3245   -4.4903   22.3039 H   0  0  0  0  0  0  0  0  0  0  0  0
    5.0319   -6.2635   23.4281 H   0  0  0  0  0  0  0  0  0  0  0  0
    4.1042   -6.6562   26.1986 H   0  0  0  0  0  0  0  0  0  0  0  0
    3.0787   -6.8685   24.7921 H   0  0  0  0  0  0  0  0  0  0  0  0
    1.3835   -5.3301   25.7022 H   0  0  0  0  0  0  0  0  0  0  0  0
    1.8204   -6.4508   26.9987 H   0  0  0  0  0  0  0  0  0  0  0  0
    3.4245   -4.7902   27.9363 H   0  0  0  0  0  0  0  0  0  0  0  0
    1.7970   -4.0805   27.8100 H   0  0  0  0  0  0  0  0  0  0  0  0
    3.1828   -0.6527   28.0879 H   0  0  0  0  0  0  0  0  0  0  0  0
    3.0928   -2.2852   28.7509 H   0  0  0  0  0  0  0  0  0  0  0  0
    0.5104   -2.1447   28.4907 H   0  0  0  0  0  0  0  0  0  0  0  0
    1.1581   -0.8649   29.5345 H   0  0  0  0  0  0  0  0  0  0  0  0
    0.7236   -0.4992   27.8577 H   0  0  0  0  0  0  0  0  0  0  0  0
  1  2  1  0
  2  3  1  0
  3  4  2  0
  3  5  1  0
  5  6  1  0
  6  7  1  0
  7  8  1  0
  8  9  1  0
  9 10  2  0
 10 11  1  0
 11 12  2  0
 12 13  1  0
 13 14  1  0
 14 15  1  0
 15 16  2  0
 16 17  1  0
 17 18  2  0
 18 19  1  0
 19 20  1  0
 19 21  2  0
 21 22  1  0
 18 23  1  0
 17 24  1  0
 16 25  1  0
 14 26  1  0
 14 27  1  0
 13 28  1  0
 28 29  2  0
 28 30  1  0
 30 31  1  0
 31 32  2  0
 32 33  1  0
 33 34  2  0
 34 35  1  0
 35 36  2  0
 36 37  1  0
 36 38  1  0
 38 39  2  0
 39 40  1  0
 40 41  2  0
 40 42  1  0
 39 43  1  0
 38 44  1  0
 34 45  1  0
 32 46  1  0
 30 47  1  0
 30 48  1  0
 12 49  1  0
 49 50  2  0
 49 51  1  0
 11 52  1  0
 10 53  1  0
  8 54  1  0
  8 55  1  0
  7 56  1  0
  7 57  1  0
  6 58  1  0
  6 59  1  0
  2 60  1  0
  2 61  1  0
  1 62  1  0
  1 63  1  0
  1 64  1  0
 50  5  1  0
 50  9  1  0
 21 15  1  0
 41 31  1  0
 41 35  1  0
M  END
>  <cnnaffinities>  (70) 
[5.7988, 6.94461]

>  <score>  (70) 
5.7988

>  <index>  (70) 
69

>  <Smiles>  (70) 
C(C(C(=O)N1C(C(C(c2c(c(c(N(C(c3c(c(c(c(Cl)c3[H])[H])[H])[H])([H])[H])C(=O)C(c3c(nc(c4c(F)c(c(c(c34)[H])[H])[H])[H])[H])([H])[H])c(c12)[H])[H])[H])([H])[H])([H])[H])([H])[H])([H])[H])([H])([H])[H]

>  <h>  (70) 
<NA>

>  <Training>  (70) 
True

>  <Success>  (70) 
True

>  <enamine_searched>  (70) 
False

>  <enamine_id>  (70) 
nan

$$$$

     RDKit          3D

 57 62  0  0  0  0  0  0  0  0999 V2000
    7.1822   -2.3529   23.5499 C   0  0  0  0  0  0  0  0  0  0  0  0
    7.9920   -1.8355   22.3560 C   0  0  1  0  0  0  0  0  0  0  0  0
    7.1593   -1.7626   21.0635 C   0  0  0  0  0  0  0  0  0  0  0  0
    6.8783   -0.3596   20.8902 N   0  0  0  0  0  0  0  0  0  0  0  0
    6.1214    0.1069   19.7886 C   0  0  0  0  0  0  0  0  0  0  0  0
    6.4439   -0.2343   18.4979 C   0  0  0  0  0  0  0  0  0  0  0  0
    5.7836    0.2081   17.3988 N   0  0  0  0  0  0  0  0  0  0  0  0
    4.7562    1.0020   17.5942 C   0  0  0  0  0  0  0  0  0  0  0  0
    4.2943    1.4033   18.8802 C   0  0  0  0  0  0  0  0  0  0  0  0
    3.1653    2.2492   19.0504 C   0  0  0  0  0  0  0  0  0  0  0  0
    2.7442    2.6068   20.3031 C   0  0  0  0  0  0  0  0  0  0  0  0
    3.4234    2.1331   21.4478 C   0  0  0  0  0  0  0  0  0  0  0  0
    4.5132    1.3074   21.3106 C   0  0  0  0  0  0  0  0  0  0  0  0
    4.9858    0.9380   20.0205 C   0  0  0  0  0  0  0  0  0  0  0  0
    5.0207    0.9183   22.1883 H   0  0  0  0  0  0  0  0  0  0  0  0
    3.1071    2.4411   22.4417 H   0  0  0  0  0  0  0  0  0  0  0  0
    1.8842    3.2610   20.4193 H   0  0  0  0  0  0  0  0  0  0  0  0
    2.6595    2.6197   18.1636 H   0  0  0  0  0  0  0  0  0  0  0  0
    4.2274    1.3639   16.7118 H   0  0  0  0  0  0  0  0  0  0  0  0
    7.3012   -0.8756   18.2940 H   0  0  0  0  0  0  0  0  0  0  0  0
    7.7943    0.4518   21.5316 C   0  0  0  0  0  0  0  0  0  0  0  0
    7.8919    1.6454   21.3385 O   0  0  0  0  0  0  0  0  0  0  0  0
    8.6346   -0.4161   22.5043 C   0  0  1  0  0  0  0  0  0  0  0  0
    8.5646    0.1328   23.9496 C   0  0  0  0  0  0  0  0  0  0  0  0
    9.2151    1.4237   24.0897 N   0  0  0  0  0  0  0  0  0  0  0  0
    8.5995    2.4236   24.9484 C   0  0  0  0  0  0  0  0  0  0  0  0
    7.3929    3.0479   24.3205 C   0  0  0  0  0  0  0  0  0  0  0  0
    6.1184    2.7374   24.6549 N   0  0  0  0  0  0  0  0  0  0  0  0
    5.3552    3.4334   23.8544 N   0  0  0  0  0  0  0  0  0  0  0  0
    6.1613    4.1373   23.0899 N   0  0  0  0  0  0  0  0  0  0  0  0
    5.6872    4.8821   21.9413 C   0  0  0  0  0  0  0  0  0  0  0  0
    6.3542    5.7307   21.7843 H   0  0  0  0  0  0  0  0  0  0  0  0
    4.6754    5.2351   22.1474 H   0  0  0  0  0  0  0  0  0  0  0  0
    5.6882    4.2267   21.0621 H   0  0  0  0  0  0  0  0  0  0  0  0
    7.4458    3.9445   23.3464 N   0  0  0  0  0  0  0  0  0  0  0  0
    8.2997    1.9586   25.8931 H   0  0  0  0  0  0  0  0  0  0  0  0
    9.3694    3.1775   25.1428 H   0  0  0  0  0  0  0  0  0  0  0  0
   10.4460    1.6730   23.5492 C   0  0  0  0  0  0  0  0  0  0  0  0
   11.1004    2.6700   23.8242 O   0  0  0  0  0  0  0  0  0  0  0  0
   10.9681    0.5960   22.6502 C   0  0  0  0  0  0  0  0  0  0  0  0
   12.3435    0.5428   22.4142 C   0  0  0  0  0  0  0  0  0  0  0  0
   12.8979   -0.4322   21.6029 C   0  0  0  0  0  0  0  0  0  0  0  0
   12.0384   -1.3891   21.0706 C   0  0  0  0  0  0  0  0  0  0  0  0
   12.5355   -2.3828   20.3150 F   0  0  0  0  0  0  0  0  0  0  0  0
   10.6723   -1.3591   21.2941 C   0  0  0  0  0  0  0  0  0  0  0  0
   10.1182   -0.3917   22.1415 C   0  0  0  0  0  0  0  0  0  0  0  0
   10.0559   -2.0712   20.7663 H   0  0  0  0  0  0  0  0  0  0  0  0
   13.9578   -0.4253   21.3652 H   0  0  0  0  0  0  0  0  0  0  0  0
   12.9682    1.2872   22.8922 H   0  0  0  0  0  0  0  0  0  0  0  0
    7.5343    0.2537   24.2783 H   0  0  0  0  0  0  0  0  0  0  0  0
    9.0458   -0.5980   24.6132 H   0  0  0  0  0  0  0  0  0  0  0  0
    6.2274   -2.3325   21.1152 H   0  0  0  0  0  0  0  0  0  0  0  0
    7.7353   -2.1316   20.2115 H   0  0  0  0  0  0  0  0  0  0  0  0
    8.7916   -2.5676   22.2326 H   0  0  0  0  0  0  0  0  0  0  0  0
    6.3196   -1.7187   23.7816 H   0  0  0  0  0  0  0  0  0  0  0  0
    7.8119   -2.4209   24.4434 H   0  0  0  0  0  0  0  0  0  0  0  0
    6.8138   -3.3640   23.3411 H   0  0  0  0  0  0  0  0  0  0  0  0
  1  2  1  0
  2  3  1  0
  3  4  1  0
  4  5  1  0
  5  6  2  0
  6  7  1  0
  7  8  2  0
  8  9  1  0
  9 10  2  0
 10 11  1  0
 11 12  2  0
 12 13  1  0
 13 14  2  0
 13 15  1  0
 12 16  1  0
 11 17  1  0
 10 18  1  0
  8 19  1  0
  6 20  1  0
  4 21  1  0
 21 22  2  0
 21 23  1  0
 23 24  1  1
 24 25  1  0
 25 26  1  0
 26 27  1  0
 27 28  1  0
 28 29  2  0
 29 30  1  0
 30 31  1  0
 31 32  1  0
 31 33  1  0
 31 34  1  0
 30 35  1  0
 26 36  1  0
 26 37  1  0
 25 38  1  0
 38 39  2  0
 38 40  1  0
 40 41  2  0
 41 42  1  0
 42 43  2  0
 43 44  1  0
 43 45  1  0
 45 46  2  0
 45 47  1  0
 42 48  1  0
 41 49  1  0
 24 50  1  0
 24 51  1  0
  3 52  1  0
  3 53  1  0
  2 54  1  6
  1 55  1  0
  1 56  1  0
  1 57  1  0
 23  2  1  0
 35 27  2  0
 46 40  1  0
 14  5  1  0
 46 23  1  0
 14  9  1  0
M  END
>  <cnnaffinities>  (71) 
[6.52663, 6.3503, 6.4988]

>  <score>  (71) 
6.52663

>  <index>  (71) 
70

>  <Smiles>  (71) 
C([C@]1(C(N(c2c(nc(c3c(c(c(c(c23)[H])[H])[H])[H])[H])[H])C(=O)[C@]21C(N(C(c1nnn(C([H])([H])[H])n1)([H])[H])C(=O)c1c(c(c(F)c(c21)[H])[H])[H])([H])[H])([H])[H])[H])([H])([H])[H]

>  <h>  (71) 
<NA>

>  <Training>  (71) 
True

>  <Success>  (71) 
True

>  <enamine_searched>  (71) 
False

>  <enamine_id>  (71) 
nan

$$$$

     RDKit          3D

 59 64  0  0  0  0  0  0  0  0999 V2000
    7.3923   -2.4406   23.8714 C   0  0  0  0  0  0  0  0  0  0  0  0
    7.7987   -1.7604   22.5548 C   0  0  1  0  0  0  0  0  0  0  0  0
    6.5982   -1.5846   21.5980 C   0  0  0  0  0  0  0  0  0  0  0  0
    6.9416   -0.4071   20.8225 N   0  0  0  0  0  0  0  0  0  0  0  0
    6.1460    0.1095   19.7629 C   0  0  0  0  0  0  0  0  0  0  0  0
    6.4540   -0.2110   18.4666 C   0  0  0  0  0  0  0  0  0  0  0  0
    5.7651    0.2223   17.3808 N   0  0  0  0  0  0  0  0  0  0  0  0
    4.7402    1.0125   17.5929 C   0  0  0  0  0  0  0  0  0  0  0  0
    4.2969    1.4154   18.8856 C   0  0  0  0  0  0  0  0  0  0  0  0
    3.1755    2.2704   19.0625 C   0  0  0  0  0  0  0  0  0  0  0  0
    2.7811    2.6485   20.3178 C   0  0  0  0  0  0  0  0  0  0  0  0
    3.4835    2.1797   21.4511 C   0  0  0  0  0  0  0  0  0  0  0  0
    4.5671    1.3489   21.3058 C   0  0  0  0  0  0  0  0  0  0  0  0
    5.0120    0.9517   20.0109 C   0  0  0  0  0  0  0  0  0  0  0  0
    5.0948    0.9948   22.1862 H   0  0  0  0  0  0  0  0  0  0  0  0
    3.1738    2.4928   22.4439 H   0  0  0  0  0  0  0  0  0  0  0  0
    1.9398    3.3244   20.4455 H   0  0  0  0  0  0  0  0  0  0  0  0
    2.6624    2.6421   18.1807 H   0  0  0  0  0  0  0  0  0  0  0  0
    4.2115    1.3786   16.7133 H   0  0  0  0  0  0  0  0  0  0  0  0
    7.2981   -0.8632   18.2565 H   0  0  0  0  0  0  0  0  0  0  0  0
    7.9503    0.3531   21.3712 C   0  0  0  0  0  0  0  0  0  0  0  0
    8.3306    1.4071   20.9078 O   0  0  0  0  0  0  0  0  0  0  0  0
    8.4643   -0.3461   22.6544 C   0  0  1  0  0  0  0  0  0  0  0  0
    7.9642    0.4337   23.8982 C   0  0  0  0  0  0  0  0  0  0  0  0
    8.6131    1.7235   24.0257 N   0  0  0  0  0  0  0  0  0  0  0  0
    7.7819    2.9232   24.0631 C   0  0  0  0  0  0  0  0  0  0  0  0
    6.7407    2.9101   25.1504 C   0  0  0  0  0  0  0  0  0  0  0  0
    5.4404    2.8234   24.9518 N   0  0  0  0  0  0  0  0  0  0  0  0
    4.8798    2.7861   26.2038 C   0  0  0  0  0  0  0  0  0  0  0  0
    5.8525    2.8551   27.1586 C   0  0  0  0  0  0  0  0  0  0  0  0
    7.0465    2.9420   26.4772 N   0  0  0  0  0  0  0  0  0  0  0  0
    8.3701    2.9965   27.0628 C   0  0  0  0  0  0  0  0  0  0  0  0
    8.2528    3.2227   28.1266 H   0  0  0  0  0  0  0  0  0  0  0  0
    8.8867    2.0378   26.9452 H   0  0  0  0  0  0  0  0  0  0  0  0
    8.9654    3.7869   26.5927 H   0  0  0  0  0  0  0  0  0  0  0  0
    5.8283    2.8402   28.2396 H   0  0  0  0  0  0  0  0  0  0  0  0
    3.8056    2.6908   26.3258 H   0  0  0  0  0  0  0  0  0  0  0  0
    7.2481    3.0265   23.1086 H   0  0  0  0  0  0  0  0  0  0  0  0
    8.4753    3.7645   24.1649 H   0  0  0  0  0  0  0  0  0  0  0  0
    9.9786    1.8150   24.0210 C   0  0  0  0  0  0  0  0  0  0  0  0
   10.5867    2.7649   24.4967 O   0  0  0  0  0  0  0  0  0  0  0  0
   10.6948    0.6723   23.3542 C   0  0  0  0  0  0  0  0  0  0  0  0
   12.0919    0.6865   23.3558 C   0  0  0  0  0  0  0  0  0  0  0  0
   12.8038   -0.2439   22.6250 C   0  0  0  0  0  0  0  0  0  0  0  0
   12.0907   -1.1686   21.8721 C   0  0  0  0  0  0  0  0  0  0  0  0
   12.7736   -2.0401   21.1107 F   0  0  0  0  0  0  0  0  0  0  0  0
   10.7116   -1.2193   21.8678 C   0  0  0  0  0  0  0  0  0  0  0  0
    9.9856   -0.3249   22.6657 C   0  0  0  0  0  0  0  0  0  0  0  0
   10.2335   -1.9363   21.2096 H   0  0  0  0  0  0  0  0  0  0  0  0
   13.8873   -0.2544   22.5971 H   0  0  0  0  0  0  0  0  0  0  0  0
   12.5923    1.4627   23.9234 H   0  0  0  0  0  0  0  0  0  0  0  0
    8.1568   -0.1623   24.8041 H   0  0  0  0  0  0  0  0  0  0  0  0
    6.8900    0.6162   23.8143 H   0  0  0  0  0  0  0  0  0  0  0  0
    5.6598   -1.4432   22.1604 H   0  0  0  0  0  0  0  0  0  0  0  0
    6.4518   -2.4475   20.9366 H   0  0  0  0  0  0  0  0  0  0  0  0
    8.5251   -2.4066   22.0548 H   0  0  0  0  0  0  0  0  0  0  0  0
    7.0030   -3.4510   23.6876 H   0  0  0  0  0  0  0  0  0  0  0  0
    8.2373   -2.5307   24.5650 H   0  0  0  0  0  0  0  0  0  0  0  0
    6.6014   -1.8762   24.3846 H   0  0  0  0  0  0  0  0  0  0  0  0
  1  2  1  0
  2  3  1  0
  3  4  1  0
  4  5  1  0
  5  6  2  0
  6  7  1  0
  7  8  2  0
  8  9  1  0
  9 10  2  0
 10 11  1  0
 11 12  2  0
 12 13  1  0
 13 14  2  0
 13 15  1  0
 12 16  1  0
 11 17  1  0
 10 18  1  0
  8 19  1  0
  6 20  1  0
  4 21  1  0
 21 22  2  0
 21 23  1  0
 23 24  1  1
 24 25  1  0
 25 26  1  0
 26 27  1  0
 27 28  2  0
 28 29  1  0
 29 30  2  0
 30 31  1  0
 31 32  1  0
 32 33  1  0
 32 34  1  0
 32 35  1  0
 30 36  1  0
 29 37  1  0
 26 38  1  0
 26 39  1  0
 25 40  1  0
 40 41  2  0
 40 42  1  0
 42 43  2  0
 43 44  1  0
 44 45  2  0
 45 46  1  0
 45 47  1  0
 47 48  2  0
 47 49  1  0
 44 50  1  0
 43 51  1  0
 24 52  1  0
 24 53  1  0
  3 54  1  0
  3 55  1  0
  2 56  1  6
  1 57  1  0
  1 58  1  0
  1 59  1  0
 23  2  1  0
 31 27  1  0
 48 42  1  0
 14  5  1  0
 48 23  1  0
 14  9  1  0
M  END
>  <cnnaffinities>  (72) 
[6.48618]

>  <score>  (72) 
6.48618

>  <index>  (72) 
71

>  <Smiles>  (72) 
C([C@]1(C(N(c2c(nc(c3c(c(c(c(c23)[H])[H])[H])[H])[H])[H])C(=O)[C@]21C(N(C(c1nc(c(n1C([H])([H])[H])[H])[H])([H])[H])C(=O)c1c(c(c(F)c(c21)[H])[H])[H])([H])[H])([H])[H])[H])([H])([H])[H]

>  <h>  (72) 
<NA>

>  <Training>  (72) 
True

>  <Success>  (72) 
True

>  <enamine_searched>  (72) 
False

>  <enamine_id>  (72) 
nan

$$$$

     RDKit          3D

 60 64  0  0  0  0  0  0  0  0999 V2000
    6.6846    4.4141   21.4064 C   0  0  0  0  0  0  0  0  0  0  0  0
    7.5965    4.0212   22.4655 N   0  0  0  0  0  0  0  0  0  0  0  0
    7.0494    3.3254   23.5007 C   0  0  0  0  0  0  0  0  0  0  0  0
    5.8423    3.1784   23.6043 O   0  0  0  0  0  0  0  0  0  0  0  0
    8.0056    2.7469   24.5327 C   0  0  0  0  0  0  0  0  0  0  0  0
    8.7455    1.6145   24.0312 N   0  0  0  0  0  0  0  0  0  0  0  0
    8.0427    0.3535   23.8838 C   0  0  0  0  0  0  0  0  0  0  0  0
    8.4875   -0.3977   22.6138 C   0  0  2  0  0  0  0  0  0  0  0  0
    7.9601    0.3009   21.3463 C   0  0  0  0  0  0  0  0  0  0  0  0
    8.3739    1.3289   20.8505 O   0  0  0  0  0  0  0  0  0  0  0  0
    6.9236   -0.4424   20.8358 N   0  0  0  0  0  0  0  0  0  0  0  0
    6.1330    0.0747   19.7743 C   0  0  0  0  0  0  0  0  0  0  0  0
    6.4696   -0.2282   18.4789 C   0  0  0  0  0  0  0  0  0  0  0  0
    5.7997    0.2191   17.3892 N   0  0  0  0  0  0  0  0  0  0  0  0
    4.7663    1.0003   17.6017 C   0  0  0  0  0  0  0  0  0  0  0  0
    4.3090    1.3941   18.8915 C   0  0  0  0  0  0  0  0  0  0  0  0
    3.1873    2.2482   19.0647 C   0  0  0  0  0  0  0  0  0  0  0  0
    2.7778    2.6201   20.3172 C   0  0  0  0  0  0  0  0  0  0  0  0
    3.4733    2.1582   21.4576 C   0  0  0  0  0  0  0  0  0  0  0  0
    4.5623    1.3294   21.3183 C   0  0  0  0  0  0  0  0  0  0  0  0
    5.0097    0.9235   20.0266 C   0  0  0  0  0  0  0  0  0  0  0  0
    5.0975    1.0038   22.2063 H   0  0  0  0  0  0  0  0  0  0  0  0
    3.1658    2.4744   22.4505 H   0  0  0  0  0  0  0  0  0  0  0  0
    1.9244    3.2828   20.4377 H   0  0  0  0  0  0  0  0  0  0  0  0
    2.6775    2.6156   18.1794 H   0  0  0  0  0  0  0  0  0  0  0  0
    4.2220    1.3585   16.7282 H   0  0  0  0  0  0  0  0  0  0  0  0
    7.3361   -0.8584   18.2829 H   0  0  0  0  0  0  0  0  0  0  0  0
    6.5974   -1.6225   21.6120 C   0  0  0  0  0  0  0  0  0  0  0  0
    7.8152   -1.8038   22.5293 C   0  0  2  0  0  0  0  0  0  0  0  0
    7.4557   -2.4615   23.7702 N   0  0  0  0  0  0  0  0  0  0  0  0
    8.3973   -3.0386   24.5835 C   0  0  0  0  0  0  0  0  0  0  0  0
    9.5623   -3.1399   24.2439 O   0  0  0  0  0  0  0  0  0  0  0  0
    7.8853   -3.5132   25.9242 C   0  0  0  0  0  0  0  0  0  0  0  0
    6.9764   -4.1037   25.8046 H   0  0  0  0  0  0  0  0  0  0  0  0
    8.6644   -4.1155   26.3934 H   0  0  0  0  0  0  0  0  0  0  0  0
    7.6541   -2.6605   26.5745 H   0  0  0  0  0  0  0  0  0  0  0  0
    6.5055   -2.3903   24.0992 H   0  0  0  0  0  0  0  0  0  0  0  0
    8.5408   -2.4539   22.0501 H   0  0  0  0  0  0  0  0  0  0  0  0
    6.4232   -2.4837   20.9579 H   0  0  0  0  0  0  0  0  0  0  0  0
    5.6948   -1.4531   22.2172 H   0  0  0  0  0  0  0  0  0  0  0  0
   10.0042   -0.4037   22.5803 C   0  0  0  0  0  0  0  0  0  0  0  0
   10.6840   -1.2756   21.7204 C   0  0  0  0  0  0  0  0  0  0  0  0
   12.0677   -1.2448   21.6610 C   0  0  0  0  0  0  0  0  0  0  0  0
   12.8988   -2.2690   20.5201 Cl  0  0  0  0  0  0  0  0  0  0  0  0
   12.8204   -0.3744   22.4537 C   0  0  0  0  0  0  0  0  0  0  0  0
   12.1555    0.5328   23.2554 C   0  0  0  0  0  0  0  0  0  0  0  0
   10.7626    0.5407   23.2849 C   0  0  0  0  0  0  0  0  0  0  0  0
   10.1113    1.6635   24.0207 C   0  0  0  0  0  0  0  0  0  0  0  0
   10.7570    2.5704   24.5329 O   0  0  0  0  0  0  0  0  0  0  0  0
   12.6790    1.2798   23.8458 H   0  0  0  0  0  0  0  0  0  0  0  0
   13.9038   -0.4049   22.3994 H   0  0  0  0  0  0  0  0  0  0  0  0
   10.1342   -1.9638   21.0867 H   0  0  0  0  0  0  0  0  0  0  0  0
    6.9716    0.5666   23.8377 H   0  0  0  0  0  0  0  0  0  0  0  0
    8.2354   -0.2824   24.7524 H   0  0  0  0  0  0  0  0  0  0  0  0
    8.7492    3.4783   24.8564 H   0  0  0  0  0  0  0  0  0  0  0  0
    7.3688    2.4465   25.3672 H   0  0  0  0  0  0  0  0  0  0  0  0
    8.5659    3.8990   22.2198 H   0  0  0  0  0  0  0  0  0  0  0  0
    5.9041    5.0550   21.8110 H   0  0  0  0  0  0  0  0  0  0  0  0
    7.2024    4.9549   20.6179 H   0  0  0  0  0  0  0  0  0  0  0  0
    6.1803    3.5477   20.9692 H   0  0  0  0  0  0  0  0  0  0  0  0
  1  2  1  0
  2  3  1  0
  3  4  2  0
  3  5  1  0
  5  6  1  0
  6  7  1  0
  8  7  1  1
  8  9  1  0
  9 10  2  0
  9 11  1  0
 11 12  1  0
 12 13  2  0
 13 14  1  0
 14 15  2  0
 15 16  1  0
 16 17  2  0
 17 18  1  0
 18 19  2  0
 19 20  1  0
 20 21  2  0
 20 22  1  0
 19 23  1  0
 18 24  1  0
 17 25  1  0
 15 26  1  0
 13 27  1  0
 11 28  1  0
 28 29  1  0
 29 30  1  0
 30 31  1  0
 31 32  2  0
 31 33  1  0
 33 34  1  0
 33 35  1  0
 33 36  1  0
 30 37  1  0
 29 38  1  6
 28 39  1  0
 28 40  1  0
  8 41  1  0
 41 42  2  0
 42 43  1  0
 43 44  1  0
 43 45  2  0
 45 46  1  0
 46 47  2  0
 47 48  1  0
 48 49  2  0
 46 50  1  0
 45 51  1  0
 42 52  1  0
  7 53  1  0
  7 54  1  0
  5 55  1  0
  5 56  1  0
  2 57  1  0
  1 58  1  0
  1 59  1  0
  1 60  1  0
 48  6  1  0
 29  8  1  0
 47 41  1  0
 21 12  1  0
 21 16  1  0
M  END
>  <cnnaffinities>  (73) 
[6.29544, 6.2277]

>  <score>  (73) 
6.29544

>  <index>  (73) 
72

>  <Smiles>  (73) 
C(N(C(=O)C(N1C([C@@]2(C(=O)N(c3c(nc(c4c(c(c(c(c34)[H])[H])[H])[H])[H])[H])C([C@@]2(N(C(=O)C([H])([H])[H])[H])[H])([H])[H])c2c(c(Cl)c(c(c2C1=O)[H])[H])[H])([H])[H])([H])[H])[H])([H])([H])[H]

>  <h>  (73) 
<NA>

>  <Training>  (73) 
True

>  <Success>  (73) 
True

>  <enamine_searched>  (73) 
False

>  <enamine_id>  (73) 
nan

$$$$

     RDKit          3D

 56 61  0  0  0  0  0  0  0  0999 V2000
    7.8658   -3.1206   23.2161 C   0  0  0  0  0  0  0  0  0  0  0  0
    7.9931   -1.9644   22.2369 C   0  0  1  0  0  0  0  0  0  0  0  0
    6.7892   -1.7547   21.3210 C   0  0  0  0  0  0  0  0  0  0  0  0
    6.9697   -0.3833   20.8845 N   0  0  0  0  0  0  0  0  0  0  0  0
    6.1989    0.1518   19.8223 C   0  0  0  0  0  0  0  0  0  0  0  0
    6.5017   -0.2212   18.5375 C   0  0  0  0  0  0  0  0  0  0  0  0
    5.8331    0.1873   17.4324 N   0  0  0  0  0  0  0  0  0  0  0  0
    4.7991    0.9756   17.6097 C   0  0  0  0  0  0  0  0  0  0  0  0
    4.3363    1.3964   18.8891 C   0  0  0  0  0  0  0  0  0  0  0  0
    3.1891    2.2214   19.0308 C   0  0  0  0  0  0  0  0  0  0  0  0
    2.7355    2.5695   20.2739 C   0  0  0  0  0  0  0  0  0  0  0  0
    3.3976    2.1040   21.4321 C   0  0  0  0  0  0  0  0  0  0  0  0
    4.5179    1.3187   21.3204 C   0  0  0  0  0  0  0  0  0  0  0  0
    5.0320    0.9594   20.0420 C   0  0  0  0  0  0  0  0  0  0  0  0
    5.0154    0.9578   22.2164 H   0  0  0  0  0  0  0  0  0  0  0  0
    3.0178    2.3718   22.4141 H   0  0  0  0  0  0  0  0  0  0  0  0
    1.8640    3.2085   20.3789 H   0  0  0  0  0  0  0  0  0  0  0  0
    2.6915    2.5804   18.1331 H   0  0  0  0  0  0  0  0  0  0  0  0
    4.2564    1.3075   16.7212 H   0  0  0  0  0  0  0  0  0  0  0  0
    7.3454   -0.8880   18.3562 H   0  0  0  0  0  0  0  0  0  0  0  0
    7.7880    0.3629   21.7150 C   0  0  0  0  0  0  0  0  0  0  0  0
    8.0572    1.5322   21.5501 O   0  0  0  0  0  0  0  0  0  0  0  0
    8.2484   -0.5550   22.8683 C   0  0  1  0  0  0  0  0  0  0  0  0
    7.3778   -0.2094   24.1002 C   0  0  0  0  0  0  0  0  0  0  0  0
    7.8915   -0.7629   25.3493 N   0  0  0  0  0  0  0  0  0  0  0  0
    6.9523   -1.4283   26.2668 C   0  0  0  0  0  0  0  0  0  0  0  0
    7.4093   -2.7953   26.8438 C   0  0  0  0  0  0  0  0  0  0  0  0
    7.7777   -2.1220   28.1390 N   0  0  0  0  0  4  0  0  0  0  0  0
    6.9385   -0.9307   27.7369 C   0  0  0  0  0  0  0  0  0  0  0  0
    7.4337    0.0158   27.9444 H   0  0  0  0  0  0  0  0  0  0  0  0
    5.9468   -0.9622   28.1883 H   0  0  0  0  0  0  0  0  0  0  0  0
    8.7594   -1.7956   28.0018 H   0  0  0  0  0  0  0  0  0  0  0  0
    7.7026   -2.5823   29.0600 H   0  0  0  0  0  0  0  0  0  0  0  0
    8.2657   -3.2664   26.3578 H   0  0  0  0  0  0  0  0  0  0  0  0
    6.5925   -3.5066   26.9607 H   0  0  0  0  0  0  0  0  0  0  0  0
    5.9790   -1.4244   25.7577 H   0  0  0  0  0  0  0  0  0  0  0  0
    9.2149   -0.6445   25.6768 C   0  0  0  0  0  0  0  0  0  0  0  0
    9.6603   -0.8998   26.8004 O   0  0  0  0  0  0  0  0  0  0  0  0
   10.1389   -0.3037   24.5560 C   0  0  0  0  0  0  0  0  0  0  0  0
   11.4967   -0.1382   24.8407 C   0  0  0  0  0  0  0  0  0  0  0  0
   12.4263   -0.1565   23.8279 C   0  0  0  0  0  0  0  0  0  0  0  0
   11.9876   -0.3560   22.5217 C   0  0  0  0  0  0  0  0  0  0  0  0
   13.1955   -0.6300   21.3134 Cl  0  0  0  0  0  0  0  0  0  0  0  0
   10.6500   -0.4743   22.2129 C   0  0  0  0  0  0  0  0  0  0  0  0
    9.6998   -0.3872   23.2318 C   0  0  0  0  0  0  0  0  0  0  0  0
   10.3183   -0.6760   21.1998 H   0  0  0  0  0  0  0  0  0  0  0  0
   13.4945   -0.0839   24.0041 H   0  0  0  0  0  0  0  0  0  0  0  0
   11.8316   -0.0867   25.8623 H   0  0  0  0  0  0  0  0  0  0  0  0
    6.3567   -0.5770   23.9561 H   0  0  0  0  0  0  0  0  0  0  0  0
    7.3196    0.8852   24.1693 H   0  0  0  0  0  0  0  0  0  0  0  0
    6.7868   -2.4204   20.4559 H   0  0  0  0  0  0  0  0  0  0  0  0
    5.8314   -1.9062   21.8551 H   0  0  0  0  0  0  0  0  0  0  0  0
    8.8659   -2.1388   21.5866 H   0  0  0  0  0  0  0  0  0  0  0  0
    8.7611   -3.1777   23.8456 H   0  0  0  0  0  0  0  0  0  0  0  0
    7.7630   -4.0701   22.6802 H   0  0  0  0  0  0  0  0  0  0  0  0
    6.9884   -2.9899   23.8635 H   0  0  0  0  0  0  0  0  0  0  0  0
  1  2  1  0
  2  3  1  0
  3  4  1  0
  4  5  1  0
  5  6  2  0
  6  7  1  0
  7  8  2  0
  8  9  1  0
  9 10  2  0
 10 11  1  0
 11 12  2  0
 12 13  1  0
 13 14  2  0
 13 15  1  0
 12 16  1  0
 11 17  1  0
 10 18  1  0
  8 19  1  0
  6 20  1  0
  4 21  1  0
 21 22  2  0
 21 23  1  0
 23 24  1  1
 24 25  1  0
 25 26  1  0
 26 27  1  0
 27 28  1  0
 28 29  1  0
 29 30  1  0
 29 31  1  0
 28 32  1  0
 28 33  1  0
 27 34  1  0
 27 35  1  0
 26 36  1  0
 25 37  1  0
 37 38  2  0
 37 39  1  0
 39 40  2  0
 40 41  1  0
 41 42  2  0
 42 43  1  0
 42 44  1  0
 44 45  2  0
 44 46  1  0
 41 47  1  0
 40 48  1  0
 24 49  1  0
 24 50  1  0
  3 51  1  0
  3 52  1  0
  2 53  1  6
  1 54  1  0
  1 55  1  0
  1 56  1  0
 23  2  1  0
 29 26  1  0
 45 39  1  0
 14  5  1  0
 45 23  1  0
 14  9  1  0
M  CHG  1  28   1
M  END
>  <cnnaffinities>  (74) 
[6.53293]

>  <score>  (74) 
6.53293

>  <index>  (74) 
73

>  <Smiles>  (74) 
C([C@]1(C(N(c2c(nc(c3c(c(c(c(c23)[H])[H])[H])[H])[H])[H])C(=O)[C@]21C(N(C1(C([N+](C1([H])[H])([H])[H])([H])[H])[H])C(=O)c1c(c(c(Cl)c(c21)[H])[H])[H])([H])[H])([H])[H])[H])([H])([H])[H]

>  <h>  (74) 
<NA>

>  <Training>  (74) 
True

>  <Success>  (74) 
True

>  <enamine_searched>  (74) 
False

>  <enamine_id>  (74) 
nan

$$$$

     RDKit          3D

 55 60  0  0  0  0  0  0  0  0999 V2000
    7.3276   -2.5921   23.7770 C   0  0  0  0  0  0  0  0  0  0  0  0
    7.7785   -1.8318   22.5163 C   0  0  1  0  0  0  0  0  0  0  0  0
    6.6189   -1.6605   21.5083 C   0  0  0  0  0  0  0  0  0  0  0  0
    6.9266   -0.4190   20.8283 N   0  0  0  0  0  0  0  0  0  0  0  0
    6.1434    0.1052   19.7620 C   0  0  0  0  0  0  0  0  0  0  0  0
    6.4540   -0.2158   18.4658 C   0  0  0  0  0  0  0  0  0  0  0  0
    5.7669    0.2234   17.3810 N   0  0  0  0  0  0  0  0  0  0  0  0
    4.7446    1.0155   17.5932 C   0  0  0  0  0  0  0  0  0  0  0  0
    4.2924    1.4107   18.8820 C   0  0  0  0  0  0  0  0  0  0  0  0
    3.1683    2.2632   19.0631 C   0  0  0  0  0  0  0  0  0  0  0  0
    2.7512    2.6159   20.3152 C   0  0  0  0  0  0  0  0  0  0  0  0
    3.4319    2.1146   21.4494 C   0  0  0  0  0  0  0  0  0  0  0  0
    4.5180    1.2839   21.2989 C   0  0  0  0  0  0  0  0  0  0  0  0
    4.9965    0.9294   20.0099 C   0  0  0  0  0  0  0  0  0  0  0  0
    5.0554    0.9466   22.1815 H   0  0  0  0  0  0  0  0  0  0  0  0
    3.1280    2.4272   22.4434 H   0  0  0  0  0  0  0  0  0  0  0  0
    1.9136    3.2979   20.4448 H   0  0  0  0  0  0  0  0  0  0  0  0
    2.6652    2.6442   18.1783 H   0  0  0  0  0  0  0  0  0  0  0  0
    4.2193    1.3802   16.7116 H   0  0  0  0  0  0  0  0  0  0  0  0
    7.2931   -0.8732   18.2472 H   0  0  0  0  0  0  0  0  0  0  0  0
    7.8753    0.3566   21.4625 C   0  0  0  0  0  0  0  0  0  0  0  0
    8.2328    1.4408   21.0652 O   0  0  0  0  0  0  0  0  0  0  0  0
    8.3858   -0.4031   22.7167 C   0  0  1  0  0  0  0  0  0  0  0  0
    7.8499    0.2482   24.0146 C   0  0  0  0  0  0  0  0  0  0  0  0
    8.4751    1.5201   24.2932 N   0  0  0  0  0  0  0  0  0  0  0  0
    7.6515    2.6765   24.5978 C   0  0  0  0  0  0  0  0  0  0  0  0
    7.4616    3.5599   23.3942 C   0  0  0  0  0  0  0  0  0  0  0  0
    8.3765    4.4976   22.8453 C   0  0  0  0  0  0  0  0  0  0  0  0
    7.6677    5.0828   21.8530 C   0  0  0  0  0  0  0  0  0  0  0  0
    6.4525    4.5300   21.7611 O   0  0  0  0  0  0  0  0  0  0  0  0
    6.3261    3.5685   22.7428 N   0  0  0  0  0  0  0  0  0  0  0  0
    7.8437    5.9016   21.1651 H   0  0  0  0  0  0  0  0  0  0  0  0
    9.3868    4.6603   23.1898 H   0  0  0  0  0  0  0  0  0  0  0  0
    6.6748    2.3369   24.9681 H   0  0  0  0  0  0  0  0  0  0  0  0
    8.1557    3.2445   25.3841 H   0  0  0  0  0  0  0  0  0  0  0  0
    9.8363    1.6711   24.2773 C   0  0  0  0  0  0  0  0  0  0  0  0
   10.3924    2.6188   24.8165 O   0  0  0  0  0  0  0  0  0  0  0  0
   10.5807    0.6206   23.5098 C   0  0  0  0  0  0  0  0  0  0  0  0
   11.9745    0.6746   23.5131 C   0  0  0  0  0  0  0  0  0  0  0  0
   12.7120   -0.1717   22.7114 C   0  0  0  0  0  0  0  0  0  0  0  0
   12.0268   -1.0515   21.8817 C   0  0  0  0  0  0  0  0  0  0  0  0
   12.7334   -1.8398   21.0541 F   0  0  0  0  0  0  0  0  0  0  0  0
   10.6511   -1.1369   21.8684 C   0  0  0  0  0  0  0  0  0  0  0  0
    9.9019   -0.3366   22.7407 C   0  0  0  0  0  0  0  0  0  0  0  0
   10.1946   -1.8051   21.1457 H   0  0  0  0  0  0  0  0  0  0  0  0
   13.7941   -0.1563   22.6859 H   0  0  0  0  0  0  0  0  0  0  0  0
   12.4473    1.4130   24.1492 H   0  0  0  0  0  0  0  0  0  0  0  0
    8.0163   -0.4395   24.8594 H   0  0  0  0  0  0  0  0  0  0  0  0
    6.7778    0.4368   23.8912 H   0  0  0  0  0  0  0  0  0  0  0  0
    6.5540   -2.4851   20.7860 H   0  0  0  0  0  0  0  0  0  0  0  0
    5.6444   -1.6102   22.0253 H   0  0  0  0  0  0  0  0  0  0  0  0
    8.5587   -2.4251   22.0324 H   0  0  0  0  0  0  0  0  0  0  0  0
    8.1396   -2.6986   24.5084 H   0  0  0  0  0  0  0  0  0  0  0  0
    6.9754   -3.6024   23.5232 H   0  0  0  0  0  0  0  0  0  0  0  0
    6.4962   -2.0765   24.2800 H   0  0  0  0  0  0  0  0  0  0  0  0
  1  2  1  0
  2  3  1  0
  3  4  1  0
  4  5  1  0
  5  6  2  0
  6  7  1  0
  7  8  2  0
  8  9  1  0
  9 10  2  0
 10 11  1  0
 11 12  2  0
 12 13  1  0
 13 14  2  0
 13 15  1  0
 12 16  1  0
 11 17  1  0
 10 18  1  0
  8 19  1  0
  6 20  1  0
  4 21  1  0
 21 22  2  0
 21 23  1  0
 23 24  1  1
 24 25  1  0
 25 26  1  0
 26 27  1  0
 27 28  1  0
 28 29  2  0
 29 30  1  0
 30 31  1  0
 29 32  1  0
 28 33  1  0
 26 34  1  0
 26 35  1  0
 25 36  1  0
 36 37  2  0
 36 38  1  0
 38 39  2  0
 39 40  1  0
 40 41  2  0
 41 42  1  0
 41 43  1  0
 43 44  2  0
 43 45  1  0
 40 46  1  0
 39 47  1  0
 24 48  1  0
 24 49  1  0
  3 50  1  0
  3 51  1  0
  2 52  1  6
  1 53  1  0
  1 54  1  0
  1 55  1  0
 23  2  1  0
 31 27  2  0
 44 38  1  0
 14  5  1  0
 44 23  1  0
 14  9  1  0
M  END
>  <cnnaffinities>  (75) 
[6.4879]

>  <score>  (75) 
6.4879

>  <index>  (75) 
74

>  <Smiles>  (75) 
C([C@]1(C(N(c2c(nc(c3c(c(c(c(c23)[H])[H])[H])[H])[H])[H])C(=O)[C@]21C(N(C(c1c(c(on1)[H])[H])([H])[H])C(=O)c1c(c(c(F)c(c21)[H])[H])[H])([H])[H])([H])[H])[H])([H])([H])[H]

>  <h>  (75) 
<NA>

>  <Training>  (75) 
True

>  <Success>  (75) 
True

>  <enamine_searched>  (75) 
False

>  <enamine_id>  (75) 
nan

$$$$

     RDKit          3D

 70 75  0  0  0  0  0  0  0  0999 V2000
   11.3894    5.9130   25.9062 C   0  0  0  0  0  0  0  0  0  0  0  0
   11.7582    5.3458   24.6737 O   0  0  0  0  0  0  0  0  0  0  0  0
   10.7606    4.8877   23.8732 C   0  0  0  0  0  0  0  0  0  0  0  0
   11.1892    4.1704   22.7561 C   0  0  0  0  0  0  0  0  0  0  0  0
   10.2547    3.7181   21.8453 C   0  0  0  0  0  0  0  0  0  0  0  0
    8.8989    3.9502   22.0377 C   0  0  0  0  0  0  0  0  0  0  0  0
    8.4657    4.6537   23.1531 C   0  0  0  0  0  0  0  0  0  0  0  0
    6.9731    4.7195   23.4231 C   0  0  0  0  0  0  0  0  0  0  0  0
    6.5251    3.4040   23.8563 N   0  0  0  0  0  0  0  0  0  0  0  0
    6.4357    3.1440   25.1953 C   0  0  0  0  0  0  0  0  0  0  0  0
    6.2517    3.9987   26.0439 O   0  0  0  0  0  0  0  0  0  0  0  0
    6.5428    1.6586   25.5626 C   0  0  0  0  0  0  0  0  0  0  0  0
    7.5496    0.9744   24.7641 N   0  0  0  0  0  0  0  0  0  0  0  0
    7.2546   -0.2876   24.0975 C   0  0  0  0  0  0  0  0  0  0  0  0
    8.0771   -0.5034   22.7860 C   0  0  2  0  0  0  0  0  0  0  0  0
    7.3986    0.3099   21.6577 C   0  0  0  0  0  0  0  0  0  0  0  0
    7.3245    1.5209   21.5988 O   0  0  0  0  0  0  0  0  0  0  0  0
    6.7880   -0.5490   20.7746 N   0  0  0  0  0  0  0  0  0  0  0  0
    5.9942   -0.0694   19.6992 C   0  0  0  0  0  0  0  0  0  0  0  0
    6.2977   -0.4114   18.4053 C   0  0  0  0  0  0  0  0  0  0  0  0
    5.6609    0.0788   17.3120 N   0  0  0  0  0  0  0  0  0  0  0  0
    4.6757    0.9231   17.5122 C   0  0  0  0  0  0  0  0  0  0  0  0
    4.2178    1.3134   18.8015 C   0  0  0  0  0  0  0  0  0  0  0  0
    3.1401    2.2227   18.9776 C   0  0  0  0  0  0  0  0  0  0  0  0
    2.7263    2.5804   20.2326 C   0  0  0  0  0  0  0  0  0  0  0  0
    3.3405    2.0113   21.3718 C   0  0  0  0  0  0  0  0  0  0  0  0
    4.3570    1.1039   21.2235 C   0  0  0  0  0  0  0  0  0  0  0  0
    4.8661    0.7784   19.9342 C   0  0  0  0  0  0  0  0  0  0  0  0
    4.7930    0.6274   22.0945 H   0  0  0  0  0  0  0  0  0  0  0  0
    3.0190    2.3039   22.3676 H   0  0  0  0  0  0  0  0  0  0  0  0
    1.9307    3.3093   20.3629 H   0  0  0  0  0  0  0  0  0  0  0  0
    2.6639    2.6420   18.0945 H   0  0  0  0  0  0  0  0  0  0  0  0
    4.1774    1.3311   16.6303 H   0  0  0  0  0  0  0  0  0  0  0  0
    7.1238   -1.0924   18.2043 H   0  0  0  0  0  0  0  0  0  0  0  0
    6.6786   -1.8880   21.3298 C   0  0  0  0  0  0  0  0  0  0  0  0
    7.9175   -1.9490   22.2275 C   0  0  2  0  0  0  0  0  0  0  0  0
    7.9802   -3.0665   23.2598 C   0  0  0  0  0  0  0  0  0  0  0  0
    7.1012   -3.0778   23.9131 H   0  0  0  0  0  0  0  0  0  0  0  0
    8.0528   -4.0473   22.7808 H   0  0  0  0  0  0  0  0  0  0  0  0
    8.8648   -2.9356   23.8953 H   0  0  0  0  0  0  0  0  0  0  0  0
    8.7518   -2.0903   21.5402 H   0  0  0  0  0  0  0  0  0  0  0  0
    6.6666   -2.6286   20.5309 H   0  0  0  0  0  0  0  0  0  0  0  0
    5.7526   -2.0161   21.9131 H   0  0  0  0  0  0  0  0  0  0  0  0
    9.5288   -0.1115   23.0377 C   0  0  0  0  0  0  0  0  0  0  0  0
   10.5764   -0.5842   22.2258 C   0  0  0  0  0  0  0  0  0  0  0  0
   11.8926   -0.2661   22.5110 C   0  0  0  0  0  0  0  0  0  0  0  0
   13.1745   -0.9169   21.5172 Cl  0  0  0  0  0  0  0  0  0  0  0  0
   12.2317    0.5531   23.5864 C   0  0  0  0  0  0  0  0  0  0  0  0
   11.2065    1.0567   24.3615 C   0  0  0  0  0  0  0  0  0  0  0  0
    9.8744    0.7465   24.0876 C   0  0  0  0  0  0  0  0  0  0  0  0
    8.8386    1.4086   24.9371 C   0  0  0  0  0  0  0  0  0  0  0  0
    9.1219    2.3084   25.7153 O   0  0  0  0  0  0  0  0  0  0  0  0
   11.3988    1.7151   25.1998 H   0  0  0  0  0  0  0  0  0  0  0  0
   13.2738    0.7948   23.7852 H   0  0  0  0  0  0  0  0  0  0  0  0
   10.3876   -1.1913   21.3478 H   0  0  0  0  0  0  0  0  0  0  0  0
    7.4473   -1.1094   24.7986 H   0  0  0  0  0  0  0  0  0  0  0  0
    6.1867   -0.2960   23.8544 H   0  0  0  0  0  0  0  0  0  0  0  0
    5.5810    1.1560   25.4029 H   0  0  0  0  0  0  0  0  0  0  0  0
    6.7700    1.6140   26.6338 H   0  0  0  0  0  0  0  0  0  0  0  0
    6.8136    2.6358   23.2504 H   0  0  0  0  0  0  0  0  0  0  0  0
    6.4029    4.9936   22.5251 H   0  0  0  0  0  0  0  0  0  0  0  0
    6.7278    5.4274   24.2183 H   0  0  0  0  0  0  0  0  0  0  0  0
    9.3997    5.1154   24.0852 C   0  0  0  0  0  0  0  0  0  0  0  0
    9.0514    5.6215   24.9811 H   0  0  0  0  0  0  0  0  0  0  0  0
    8.1742    3.5506   21.3367 H   0  0  0  0  0  0  0  0  0  0  0  0
   10.5967    3.1629   20.9806 H   0  0  0  0  0  0  0  0  0  0  0  0
   12.2498    3.9918   22.6118 H   0  0  0  0  0  0  0  0  0  0  0  0
   12.3220    6.1800   26.4017 H   0  0  0  0  0  0  0  0  0  0  0  0
   10.7715    6.8115   25.7805 H   0  0  0  0  0  0  0  0  0  0  0  0
   10.8448    5.1778   26.5078 H   0  0  0  0  0  0  0  0  0  0  0  0
  1  2  1  0
  2  3  1  0
  3  4  2  0
  4  5  1  0
  5  6  2  0
  6  7  1  0
  7  8  1  0
  8  9  1  0
  9 10  1  0
 10 11  2  0
 10 12  1  0
 12 13  1  0
 13 14  1  0
 15 14  1  1
 15 16  1  0
 16 17  2  0
 16 18  1  0
 18 19  1  0
 19 20  2  0
 20 21  1  0
 21 22  2  0
 22 23  1  0
 23 24  2  0
 24 25  1  0
 25 26  2  0
 26 27  1  0
 27 28  2  0
 27 29  1  0
 26 30  1  0
 25 31  1  0
 24 32  1  0
 22 33  1  0
 20 34  1  0
 18 35  1  0
 35 36  1  0
 36 37  1  0
 37 38  1  0
 37 39  1  0
 37 40  1  0
 36 41  1  6
 35 42  1  0
 35 43  1  0
 15 44  1  0
 44 45  2  0
 45 46  1  0
 46 47  1  0
 46 48  2  0
 48 49  1  0
 49 50  2  0
 50 51  1  0
 51 52  2  0
 49 53  1  0
 48 54  1  0
 45 55  1  0
 14 56  1  0
 14 57  1  0
 12 58  1  0
 12 59  1  0
  9 60  1  0
  8 61  1  0
  8 62  1  0
  7 63  2  0
 63 64  1  0
  6 65  1  0
  5 66  1  0
  4 67  1  0
  1 68  1  0
  1 69  1  0
  1 70  1  0
 63  3  1  0
 51 13  1  0
 36 15  1  0
 50 44  1  0
 28 19  1  0
 28 23  1  0
M  END
>  <cnnaffinities>  (76) 
[6.88368]

>  <score>  (76) 
6.88368

>  <index>  (76) 
75

>  <Smiles>  (76) 
C(Oc1c(c(c(c(C(N(C(=O)C(N2C([C@@]3(C(=O)N(c4c(nc(c5c(c(c(c(c45)[H])[H])[H])[H])[H])[H])C([C@@]3(C([H])([H])[H])[H])([H])[H])c3c(c(Cl)c(c(c3C2=O)[H])[H])[H])([H])[H])([H])[H])[H])([H])[H])c1[H])[H])[H])[H])([H])([H])[H]

>  <h>  (76) 
<NA>

>  <Training>  (76) 
True

>  <Success>  (76) 
True

>  <enamine_searched>  (76) 
False

>  <enamine_id>  (76) 
nan

$$$$

     RDKit          3D

 61 65  0  0  0  0  0  0  0  0999 V2000
    7.4839   -2.5215   23.7762 C   0  0  0  0  0  0  0  0  0  0  0  0
    7.8757   -1.7454   22.5102 C   0  0  1  0  0  0  0  0  0  0  0  0
    6.7006   -1.6174   21.5195 C   0  0  0  0  0  0  0  0  0  0  0  0
    6.9609   -0.3700   20.8256 N   0  0  0  0  0  0  0  0  0  0  0  0
    6.1548    0.1180   19.7605 C   0  0  0  0  0  0  0  0  0  0  0  0
    6.4542   -0.2187   18.4656 C   0  0  0  0  0  0  0  0  0  0  0  0
    5.7662    0.2163   17.3807 N   0  0  0  0  0  0  0  0  0  0  0  0
    4.7456    1.0118   17.5958 C   0  0  0  0  0  0  0  0  0  0  0  0
    4.3053    1.4190   18.8879 C   0  0  0  0  0  0  0  0  0  0  0  0
    3.1830    2.2743   19.0668 C   0  0  0  0  0  0  0  0  0  0  0  0
    2.7796    2.6415   20.3202 C   0  0  0  0  0  0  0  0  0  0  0  0
    3.4652    2.1588   21.4547 C   0  0  0  0  0  0  0  0  0  0  0  0
    4.5502    1.3267   21.3095 C   0  0  0  0  0  0  0  0  0  0  0  0
    5.0180    0.9513   20.0154 C   0  0  0  0  0  0  0  0  0  0  0  0
    5.0582    0.9499   22.1924 H   0  0  0  0  0  0  0  0  0  0  0  0
    3.1391    2.4583   22.4478 H   0  0  0  0  0  0  0  0  0  0  0  0
    1.9371    3.3199   20.4440 H   0  0  0  0  0  0  0  0  0  0  0  0
    2.6749    2.6489   18.1824 H   0  0  0  0  0  0  0  0  0  0  0  0
    4.2139    1.3767   16.7164 H   0  0  0  0  0  0  0  0  0  0  0  0
    7.2981   -0.8724   18.2493 H   0  0  0  0  0  0  0  0  0  0  0  0
    7.8634    0.4496   21.4585 C   0  0  0  0  0  0  0  0  0  0  0  0
    8.1493    1.5740   21.0888 O   0  0  0  0  0  0  0  0  0  0  0  0
    8.4245   -0.2891   22.6974 C   0  0  1  0  0  0  0  0  0  0  0  0
    7.8701    0.3651   23.9823 C   0  0  0  0  0  0  0  0  0  0  0  0
    8.4319    1.6810   24.2160 N   0  0  0  0  0  0  0  0  0  0  0  0
    7.5493    2.7151   24.7250 C   0  0  0  0  0  0  0  0  0  0  0  0
    6.8804    3.5206   23.6167 C   0  0  0  0  0  0  0  0  0  0  0  0
    7.8526    4.3413   22.8239 N   0  0  0  0  0  4  0  0  0  0  0  0
    8.3747    5.5140   23.5835 C   0  0  0  0  0  0  0  0  0  0  0  0
    8.9547    5.1964   24.4495 H   0  0  0  0  0  0  0  0  0  0  0  0
    7.5332    6.1393   23.9097 H   0  0  0  0  0  0  0  0  0  0  0  0
    9.0099    6.1163   22.9276 H   0  0  0  0  0  0  0  0  0  0  0  0
    7.1996    4.8394   21.5868 C   0  0  0  0  0  0  0  0  0  0  0  0
    6.9431    3.9830   20.9635 H   0  0  0  0  0  0  0  0  0  0  0  0
    7.8816    5.5127   21.0632 H   0  0  0  0  0  0  0  0  0  0  0  0
    6.2900    5.4019   21.8349 H   0  0  0  0  0  0  0  0  0  0  0  0
    8.6258    3.7102   22.5482 H   0  0  0  0  0  0  0  0  0  0  0  0
    6.1300    4.1989   24.0385 H   0  0  0  0  0  0  0  0  0  0  0  0
    6.3776    2.8514   22.9102 H   0  0  0  0  0  0  0  0  0  0  0  0
    6.7717    2.2331   25.3255 H   0  0  0  0  0  0  0  0  0  0  0  0
    8.1485    3.3536   25.3736 H   0  0  0  0  0  0  0  0  0  0  0  0
    9.7815    1.8744   24.2173 C   0  0  0  0  0  0  0  0  0  0  0  0
   10.3159    2.8472   24.7406 O   0  0  0  0  0  0  0  0  0  0  0  0
   10.5749    0.8439   23.4607 C   0  0  0  0  0  0  0  0  0  0  0  0
   11.9653    0.9590   23.4534 C   0  0  0  0  0  0  0  0  0  0  0  0
   12.7321    0.1301   22.6572 C   0  0  0  0  0  0  0  0  0  0  0  0
   12.0927   -0.8039   21.8425 C   0  0  0  0  0  0  0  0  0  0  0  0
   13.0437   -1.7839   20.7636 Cl  0  0  0  0  0  0  0  0  0  0  0  0
   10.7169   -0.9426   21.8495 C   0  0  0  0  0  0  0  0  0  0  0  0
    9.9381   -0.1564   22.7089 C   0  0  0  0  0  0  0  0  0  0  0  0
   10.2650   -1.6362   21.1487 H   0  0  0  0  0  0  0  0  0  0  0  0
   13.8115    0.2160   22.6281 H   0  0  0  0  0  0  0  0  0  0  0  0
   12.4094    1.7342   24.0702 H   0  0  0  0  0  0  0  0  0  0  0  0
    6.7857    0.4783   23.8865 H   0  0  0  0  0  0  0  0  0  0  0  0
    8.0879   -0.3016   24.8324 H   0  0  0  0  0  0  0  0  0  0  0  0
    6.6505   -2.4485   20.8078 H   0  0  0  0  0  0  0  0  0  0  0  0
    5.7379   -1.5920   22.0566 H   0  0  0  0  0  0  0  0  0  0  0  0
    8.6733   -2.3013   22.0127 H   0  0  0  0  0  0  0  0  0  0  0  0
    6.6394   -2.0455   24.2900 H   0  0  0  0  0  0  0  0  0  0  0  0
    7.1726   -3.5419   23.5261 H   0  0  0  0  0  0  0  0  0  0  0  0
    8.3091   -2.5970   24.4940 H   0  0  0  0  0  0  0  0  0  0  0  0
  1  2  1  0
  2  3  1  0
  3  4  1  0
  4  5  1  0
  5  6  2  0
  6  7  1  0
  7  8  2  0
  8  9  1  0
  9 10  2  0
 10 11  1  0
 11 12  2  0
 12 13  1  0
 13 14  2  0
 13 15  1  0
 12 16  1  0
 11 17  1  0
 10 18  1  0
  8 19  1  0
  6 20  1  0
  4 21  1  0
 21 22  2  0
 21 23  1  0
 23 24  1  1
 24 25  1  0
 25 26  1  0
 26 27  1  0
 27 28  1  0
 28 29  1  0
 29 30  1  0
 29 31  1  0
 29 32  1  0
 28 33  1  0
 33 34  1  0
 33 35  1  0
 33 36  1  0
 28 37  1  0
 27 38  1  0
 27 39  1  0
 26 40  1  0
 26 41  1  0
 25 42  1  0
 42 43  2  0
 42 44  1  0
 44 45  2  0
 45 46  1  0
 46 47  2  0
 47 48  1  0
 47 49  1  0
 49 50  2  0
 49 51  1  0
 46 52  1  0
 45 53  1  0
 24 54  1  0
 24 55  1  0
  3 56  1  0
  3 57  1  0
  2 58  1  6
  1 59  1  0
  1 60  1  0
  1 61  1  0
 23  2  1  0
 50 44  1  0
 14  5  1  0
 50 23  1  0
 14  9  1  0
M  CHG  1  28   1
M  END
>  <cnnaffinities>  (77) 
[6.67932]

>  <score>  (77) 
6.67932

>  <index>  (77) 
76

>  <Smiles>  (77) 
C([C@]1(C(N(c2c(nc(c3c(c(c(c(c23)[H])[H])[H])[H])[H])[H])C(=O)[C@]21C(N(C(C([N+](C([H])([H])[H])(C([H])([H])[H])[H])([H])[H])([H])[H])C(=O)c1c(c(c(Cl)c(c21)[H])[H])[H])([H])[H])([H])[H])[H])([H])([H])[H]

>  <h>  (77) 
<NA>

>  <Training>  (77) 
True

>  <Success>  (77) 
True

>  <enamine_searched>  (77) 
False

>  <enamine_id>  (77) 
nan

$$$$

     RDKit          3D

 57 60  0  0  0  0  0  0  0  0999 V2000
    2.8420   -6.0304   26.7677 C   0  0  0  0  0  0  0  0  0  0  0  0
    3.3425   -6.4028   25.3560 C   0  0  0  0  0  0  0  0  0  0  0  0
    2.1489   -6.6236   24.3895 C   0  0  0  0  0  0  0  0  0  0  0  0
    2.5214   -6.9194   23.3979 H   0  0  0  0  0  0  0  0  0  0  0  0
    1.5196   -7.4269   24.7929 H   0  0  0  0  0  0  0  0  0  0  0  0
    1.5521   -5.7078   24.2853 H   0  0  0  0  0  0  0  0  0  0  0  0
    3.9537   -7.7465   25.4892 C   0  0  0  0  0  0  0  0  0  0  0  0
    4.3295   -8.8362   25.6118 N   0  0  0  0  0  0  0  0  0  0  0  0
    4.2957   -5.3297   24.7979 C   0  0  0  0  0  0  0  0  0  0  0  0
    5.0908   -5.5502   23.6672 C   0  0  0  0  0  0  0  0  0  0  0  0
    5.7703   -4.4983   23.0558 C   0  0  0  0  0  0  0  0  0  0  0  0
    5.6837   -3.2012   23.5696 C   0  0  0  0  0  0  0  0  0  0  0  0
    6.3571   -2.1049   22.9354 N   0  0  0  0  0  0  0  0  0  0  0  0
    7.2548   -1.2481   23.7177 C   0  0  0  0  0  0  0  0  0  0  0  0
    8.7303   -1.4221   23.3707 C   0  0  0  0  0  0  0  0  0  0  0  0
    9.2400   -2.7187   23.4566 C   0  0  0  0  0  0  0  0  0  0  0  0
   10.5661   -2.9797   23.1608 C   0  0  0  0  0  0  0  0  0  0  0  0
   11.4320   -1.9593   22.7873 C   0  0  0  0  0  0  0  0  0  0  0  0
   10.9251   -0.6661   22.6899 C   0  0  0  0  0  0  0  0  0  0  0  0
   12.0081    0.6000   22.1682 Cl  0  0  0  0  0  0  0  0  0  0  0  0
    9.5858   -0.3860   22.9742 C   0  0  0  0  0  0  0  0  0  0  0  0
    9.2230    0.6377   22.8792 H   0  0  0  0  0  0  0  0  0  0  0  0
   12.4771   -2.1701   22.5837 H   0  0  0  0  0  0  0  0  0  0  0  0
   10.9265   -3.9964   23.2588 H   0  0  0  0  0  0  0  0  0  0  0  0
    8.5925   -3.5281   23.7944 H   0  0  0  0  0  0  0  0  0  0  0  0
    7.1130   -1.5491   24.7580 H   0  0  0  0  0  0  0  0  0  0  0  0
    6.9317   -0.2030   23.6271 H   0  0  0  0  0  0  0  0  0  0  0  0
    6.0564   -1.8494   21.6060 C   0  0  0  0  0  0  0  0  0  0  0  0
    5.2789   -2.5420   20.9764 O   0  0  0  0  0  0  0  0  0  0  0  0
    6.7685   -0.6526   20.9594 C   0  0  0  0  0  0  0  0  0  0  0  0
    6.0415   -0.0311   19.8100 C   0  0  0  0  0  0  0  0  0  0  0  0
    6.4199   -0.2978   18.5230 C   0  0  0  0  0  0  0  0  0  0  0  0
    5.8070    0.1835   17.4100 N   0  0  0  0  0  0  0  0  0  0  0  0
    4.7758    0.9703   17.5982 C   0  0  0  0  0  0  0  0  0  0  0  0
    4.2853    1.3553   18.8759 C   0  0  0  0  0  0  0  0  0  0  0  0
    3.1688    2.2166   19.0287 C   0  0  0  0  0  0  0  0  0  0  0  0
    2.7451    2.5942   20.2728 C   0  0  0  0  0  0  0  0  0  0  0  0
    3.4183    2.1266   21.4225 C   0  0  0  0  0  0  0  0  0  0  0  0
    4.4916    1.2805   21.3023 C   0  0  0  0  0  0  0  0  0  0  0  0
    4.9489    0.8606   20.0227 C   0  0  0  0  0  0  0  0  0  0  0  0
    4.9889    0.9347   22.2026 H   0  0  0  0  0  0  0  0  0  0  0  0
    3.0809    2.4432   22.4062 H   0  0  0  0  0  0  0  0  0  0  0  0
    1.8969    3.2633   20.3880 H   0  0  0  0  0  0  0  0  0  0  0  0
    2.6679    2.5880   18.1387 H   0  0  0  0  0  0  0  0  0  0  0  0
    4.2691    1.3433   16.7065 H   0  0  0  0  0  0  0  0  0  0  0  0
    7.2857   -0.9333   18.3308 H   0  0  0  0  0  0  0  0  0  0  0  0
    6.9698    0.1136   21.7062 H   0  0  0  0  0  0  0  0  0  0  0  0
    7.7457   -1.0168   20.6233 H   0  0  0  0  0  0  0  0  0  0  0  0
    4.9608   -2.9897   24.7443 C   0  0  0  0  0  0  0  0  0  0  0  0
    4.2919   -4.0460   25.3443 C   0  0  0  0  0  0  0  0  0  0  0  0
    3.7896   -3.8511   26.2837 H   0  0  0  0  0  0  0  0  0  0  0  0
    4.9117   -2.0021   25.1980 H   0  0  0  0  0  0  0  0  0  0  0  0
    6.3725   -4.6876   22.1707 H   0  0  0  0  0  0  0  0  0  0  0  0
    5.2129   -6.5583   23.2750 H   0  0  0  0  0  0  0  0  0  0  0  0
    2.1655   -5.1666   26.7180 H   0  0  0  0  0  0  0  0  0  0  0  0
    2.3001   -6.8804   27.1946 H   0  0  0  0  0  0  0  0  0  0  0  0
    3.6920   -5.7793   27.4187 H   0  0  0  0  0  0  0  0  0  0  0  0
  1  2  1  0
  2  3  1  0
  3  4  1  0
  3  5  1  0
  3  6  1  0
  2  7  1  0
  7  8  3  0
  2  9  1  0
  9 10  2  0
 10 11  1  0
 11 12  2  0
 12 13  1  0
 13 14  1  0
 14 15  1  0
 15 16  2  0
 16 17  1  0
 17 18  2  0
 18 19  1  0
 19 20  1  0
 19 21  2  0
 21 22  1  0
 18 23  1  0
 17 24  1  0
 16 25  1  0
 14 26  1  0
 14 27  1  0
 13 28  1  0
 28 29  2  0
 28 30  1  0
 30 31  1  0
 31 32  2  0
 32 33  1  0
 33 34  2  0
 34 35  1  0
 35 36  2  0
 36 37  1  0
 37 38  2  0
 38 39  1  0
 39 40  2  0
 39 41  1  0
 38 42  1  0
 37 43  1  0
 36 44  1  0
 34 45  1  0
 32 46  1  0
 30 47  1  0
 30 48  1  0
 12 49  1  0
 49 50  2  0
 50 51  1  0
 49 52  1  0
 11 53  1  0
 10 54  1  0
  1 55  1  0
  1 56  1  0
  1 57  1  0
 50  9  1  0
 21 15  1  0
 40 31  1  0
 40 35  1  0
M  END
>  <cnnaffinities>  (78) 
[5.71329, 5.64557, 6.05176, 6.16836, 6.1802, 6.17639, 6.29222, 6.29696, 6.16086, 6.03148, 6.28869, 6.28308]

>  <score>  (78) 
5.71329

>  <index>  (78) 
77

>  <Smiles>  (78) 
C(C(C([H])([H])[H])(C#N)c1c(c(c(N(C(c2c(c(c(c(Cl)c2[H])[H])[H])[H])([H])[H])C(=O)C(c2c(nc(c3c(c(c(c(c23)[H])[H])[H])[H])[H])[H])([H])[H])c(c1[H])[H])[H])[H])([H])([H])[H]

>  <h>  (78) 
<NA>

>  <Training>  (78) 
True

>  <Success>  (78) 
True

>  <enamine_searched>  (78) 
False

>  <enamine_id>  (78) 
nan

$$$$

     RDKit          3D

 40 42  0  0  0  0  0  0  0  0999 V2000
    5.9605    2.7187   26.3092 C   0  0  0  0  0  0  0  0  0  0  0  0
    6.9759    2.2435   25.2722 C   0  0  0  0  0  0  0  0  0  0  0  0
    6.9148    3.0752   23.9959 C   0  0  0  0  0  0  0  0  0  0  0  0
    7.9018    2.5777   22.9441 C   0  0  0  0  0  0  0  0  0  0  0  0
    7.6795    1.1595   22.6881 N   0  0  0  0  0  0  0  0  0  0  0  0
    7.8935    0.6867   21.3900 C   0  0  0  0  0  0  0  0  0  0  0  0
    8.7039    1.1856   20.6395 O   0  0  0  0  0  0  0  0  0  0  0  0
    6.9608   -0.4375   20.9063 C   0  0  0  0  0  0  0  0  0  0  0  0
    6.1077    0.0791   19.7651 C   0  0  0  0  0  0  0  0  0  0  0  0
    6.4270   -0.2100   18.4640 C   0  0  0  0  0  0  0  0  0  0  0  0
    5.7625    0.2419   17.3653 N   0  0  0  0  0  0  0  0  0  0  0  0
    4.7343    1.0270   17.5781 C   0  0  0  0  0  0  0  0  0  0  0  0
    4.2866    1.4179   18.8676 C   0  0  0  0  0  0  0  0  0  0  0  0
    3.1698    2.2726   19.0470 C   0  0  0  0  0  0  0  0  0  0  0  0
    2.7668    2.6475   20.2998 C   0  0  0  0  0  0  0  0  0  0  0  0
    3.4652    2.1709   21.4328 C   0  0  0  0  0  0  0  0  0  0  0  0
    4.5465    1.3366   21.2862 C   0  0  0  0  0  0  0  0  0  0  0  0
    4.9929    0.9394   19.9981 C   0  0  0  0  0  0  0  0  0  0  0  0
    5.0624    0.9749   22.1689 H   0  0  0  0  0  0  0  0  0  0  0  0
    3.1369    2.4699   22.4243 H   0  0  0  0  0  0  0  0  0  0  0  0
    1.9207    3.3178   20.4302 H   0  0  0  0  0  0  0  0  0  0  0  0
    2.6557    2.6498   18.1663 H   0  0  0  0  0  0  0  0  0  0  0  0
    4.2014    1.3959   16.6991 H   0  0  0  0  0  0  0  0  0  0  0  0
    7.2737   -0.8570   18.2399 H   0  0  0  0  0  0  0  0  0  0  0  0
    6.3373   -0.8225   21.7239 H   0  0  0  0  0  0  0  0  0  0  0  0
    7.5867   -1.2568   20.5338 H   0  0  0  0  0  0  0  0  0  0  0  0
    7.7582    0.3049   23.8678 C   0  0  0  0  0  0  0  0  0  0  0  0
    6.7787    0.7699   24.9344 C   0  0  0  0  0  0  0  0  0  0  0  0
    5.7573    0.6147   24.5702 H   0  0  0  0  0  0  0  0  0  0  0  0
    6.8848    0.1586   25.8375 H   0  0  0  0  0  0  0  0  0  0  0  0
    7.5568   -0.7218   23.5680 H   0  0  0  0  0  0  0  0  0  0  0  0
    8.7750    0.3093   24.2992 H   0  0  0  0  0  0  0  0  0  0  0  0
    8.9321    2.7877   23.2701 H   0  0  0  0  0  0  0  0  0  0  0  0
    7.7606    3.1061   22.0017 H   0  0  0  0  0  0  0  0  0  0  0  0
    5.8989    3.0357   23.5820 H   0  0  0  0  0  0  0  0  0  0  0  0
    7.1059    4.1285   24.2245 H   0  0  0  0  0  0  0  0  0  0  0  0
    7.9818    2.3605   25.6982 H   0  0  0  0  0  0  0  0  0  0  0  0
    4.9388    2.6177   25.9241 H   0  0  0  0  0  0  0  0  0  0  0  0
    6.1102    3.7727   26.5691 H   0  0  0  0  0  0  0  0  0  0  0  0
    6.0215    2.1292   27.2313 H   0  0  0  0  0  0  0  0  0  0  0  0
  1  2  1  0
  2  3  1  0
  3  4  1  0
  4  5  1  0
  5  6  1  0
  6  7  2  0
  6  8  1  0
  8  9  1  0
  9 10  2  0
 10 11  1  0
 11 12  2  0
 12 13  1  0
 13 14  2  0
 14 15  1  0
 15 16  2  0
 16 17  1  0
 17 18  2  0
 17 19  1  0
 16 20  1  0
 15 21  1  0
 14 22  1  0
 12 23  1  0
 10 24  1  0
  8 25  1  0
  8 26  1  0
  5 27  1  0
 27 28  1  0
 28 29  1  0
 28 30  1  0
 27 31  1  0
 27 32  1  0
  4 33  1  0
  4 34  1  0
  3 35  1  0
  3 36  1  0
  2 37  1  0
  1 38  1  0
  1 39  1  0
  1 40  1  0
 28  2  1  0
 18  9  1  0
 18 13  1  0
M  END
>  <cnnaffinities>  (79) 
[4.72427, 4.72404, 4.6123, 4.61241, 4.55154, 4.55354, 5.32737, 5.32672]

>  <score>  (79) 
4.72427

>  <index>  (79) 
79

>  <Smiles>  (79) 
C(C1(C(C(N(C(=O)C(c2c(nc(c3c(c(c(c(c23)[H])[H])[H])[H])[H])[H])([H])[H])C(C1([H])[H])([H])[H])([H])[H])([H])[H])[H])([H])([H])[H]

>  <h>  (79) 
<NA>

>  <Training>  (79) 
True

>  <Success>  (79) 
True

>  <enamine_searched>  (79) 
False

>  <enamine_id>  (79) 
nan

$$$$

     RDKit          3D

 59 64  0  0  0  0  0  0  0  0999 V2000
    7.3850   -2.6034   23.7679 C   0  0  0  0  0  0  0  0  0  0  0  0
    7.8003   -1.8260   22.5080 C   0  0  1  0  0  0  0  0  0  0  0  0
    6.6188   -1.6507   21.5270 C   0  0  0  0  0  0  0  0  0  0  0  0
    6.9298   -0.4192   20.8299 N   0  0  0  0  0  0  0  0  0  0  0  0
    6.1431    0.1027   19.7640 C   0  0  0  0  0  0  0  0  0  0  0  0
    6.4514   -0.2168   18.4654 C   0  0  0  0  0  0  0  0  0  0  0  0
    5.7653    0.2244   17.3815 N   0  0  0  0  0  0  0  0  0  0  0  0
    4.7415    1.0159   17.5918 C   0  0  0  0  0  0  0  0  0  0  0  0
    4.2930    1.4117   18.8839 C   0  0  0  0  0  0  0  0  0  0  0  0
    3.1703    2.2641   19.0624 C   0  0  0  0  0  0  0  0  0  0  0  0
    2.7617    2.6284   20.3169 C   0  0  0  0  0  0  0  0  0  0  0  0
    3.4536    2.1447   21.4519 C   0  0  0  0  0  0  0  0  0  0  0  0
    4.5440    1.3176   21.3021 C   0  0  0  0  0  0  0  0  0  0  0  0
    5.0049    0.9393   20.0096 C   0  0  0  0  0  0  0  0  0  0  0  0
    5.0643    0.9596   22.1845 H   0  0  0  0  0  0  0  0  0  0  0  0
    3.1282    2.4391   22.4434 H   0  0  0  0  0  0  0  0  0  0  0  0
    1.9167    3.2983   20.4482 H   0  0  0  0  0  0  0  0  0  0  0  0
    2.6617    2.6437   18.1810 H   0  0  0  0  0  0  0  0  0  0  0  0
    4.2157    1.3831   16.7117 H   0  0  0  0  0  0  0  0  0  0  0  0
    7.2925   -0.8708   18.2485 H   0  0  0  0  0  0  0  0  0  0  0  0
    7.9009    0.3408   21.4409 C   0  0  0  0  0  0  0  0  0  0  0  0
    8.2913    1.4091   21.0119 O   0  0  0  0  0  0  0  0  0  0  0  0
    8.3980   -0.3925   22.7126 C   0  0  1  0  0  0  0  0  0  0  0  0
    7.8273    0.2685   23.9945 C   0  0  0  0  0  0  0  0  0  0  0  0
    8.4180    1.5667   24.2623 N   0  0  0  0  0  0  0  0  0  0  0  0
    7.6123    2.6426   24.8307 C   0  0  0  0  0  0  0  0  0  0  0  0
    7.5152    3.8379   23.9295 C   0  0  0  0  0  0  0  0  0  0  0  0
    6.9785    3.9194   22.6634 C   0  0  0  0  0  0  0  0  0  0  0  0
    7.1562    5.2589   22.2776 C   0  0  0  0  0  0  0  0  0  0  0  0
    7.7302    5.9606   23.2517 N   0  0  0  0  0  0  0  0  0  0  0  0
    7.9305    5.0873   24.2469 N   0  0  0  0  0  0  0  0  0  0  0  0
    8.5000    5.5370   25.5047 C   0  0  0  0  0  0  0  0  0  0  0  0
    9.3981    4.9526   25.7249 H   0  0  0  0  0  0  0  0  0  0  0  0
    8.7352    6.5967   25.3786 H   0  0  0  0  0  0  0  0  0  0  0  0
    7.7703    5.4210   26.3165 H   0  0  0  0  0  0  0  0  0  0  0  0
    6.9067    5.7442   21.3413 H   0  0  0  0  0  0  0  0  0  0  0  0
    6.5608    3.0952   22.1070 H   0  0  0  0  0  0  0  0  0  0  0  0
    7.9928    2.9105   25.8259 H   0  0  0  0  0  0  0  0  0  0  0  0
    6.6073    2.2331   24.9611 H   0  0  0  0  0  0  0  0  0  0  0  0
    9.7722    1.7362   24.2514 C   0  0  0  0  0  0  0  0  0  0  0  0
   10.2981    2.7027   24.7934 O   0  0  0  0  0  0  0  0  0  0  0  0
   10.5569    0.6882   23.5136 C   0  0  0  0  0  0  0  0  0  0  0  0
   11.9504    0.7700   23.5403 C   0  0  0  0  0  0  0  0  0  0  0  0
   12.7232   -0.0859   22.7810 C   0  0  0  0  0  0  0  0  0  0  0  0
   12.0708   -1.0045   21.9687 C   0  0  0  0  0  0  0  0  0  0  0  0
   12.8100   -1.8057   21.1826 F   0  0  0  0  0  0  0  0  0  0  0  0
   10.6963   -1.1183   21.9302 C   0  0  0  0  0  0  0  0  0  0  0  0
    9.9130   -0.3079   22.7619 C   0  0  0  0  0  0  0  0  0  0  0  0
   10.2681   -1.8196   21.2211 H   0  0  0  0  0  0  0  0  0  0  0  0
   13.8065   -0.0475   22.7783 H   0  0  0  0  0  0  0  0  0  0  0  0
   12.4057    1.5336   24.1569 H   0  0  0  0  0  0  0  0  0  0  0  0
    7.9911   -0.4086   24.8501 H   0  0  0  0  0  0  0  0  0  0  0  0
    6.7497    0.4032   23.8556 H   0  0  0  0  0  0  0  0  0  0  0  0
    6.5309   -2.4791   20.8132 H   0  0  0  0  0  0  0  0  0  0  0  0
    5.6564   -1.5871   22.0646 H   0  0  0  0  0  0  0  0  0  0  0  0
    8.5697   -2.4109   21.9956 H   0  0  0  0  0  0  0  0  0  0  0  0
    6.5497   -2.1110   24.2877 H   0  0  0  0  0  0  0  0  0  0  0  0
    8.2112   -2.6950   24.4847 H   0  0  0  0  0  0  0  0  0  0  0  0
    7.0519   -3.6204   23.5125 H   0  0  0  0  0  0  0  0  0  0  0  0
  1  2  1  0
  2  3  1  0
  3  4  1  0
  4  5  1  0
  5  6  2  0
  6  7  1  0
  7  8  2  0
  8  9  1  0
  9 10  2  0
 10 11  1  0
 11 12  2  0
 12 13  1  0
 13 14  2  0
 13 15  1  0
 12 16  1  0
 11 17  1  0
 10 18  1  0
  8 19  1  0
  6 20  1  0
  4 21  1  0
 21 22  2  0
 21 23  1  0
 23 24  1  1
 24 25  1  0
 25 26  1  0
 26 27  1  0
 27 28  2  0
 28 29  1  0
 29 30  2  0
 30 31  1  0
 31 32  1  0
 32 33  1  0
 32 34  1  0
 32 35  1  0
 29 36  1  0
 28 37  1  0
 26 38  1  0
 26 39  1  0
 25 40  1  0
 40 41  2  0
 40 42  1  0
 42 43  2  0
 43 44  1  0
 44 45  2  0
 45 46  1  0
 45 47  1  0
 47 48  2  0
 47 49  1  0
 44 50  1  0
 43 51  1  0
 24 52  1  0
 24 53  1  0
  3 54  1  0
  3 55  1  0
  2 56  1  6
  1 57  1  0
  1 58  1  0
  1 59  1  0
 23  2  1  0
 31 27  1  0
 48 42  1  0
 14  5  1  0
 48 23  1  0
 14  9  1  0
M  END
>  <cnnaffinities>  (80) 
[6.93931, 6.84029]

>  <score>  (80) 
6.93931

>  <index>  (80) 
80

>  <Smiles>  (80) 
C([C@]1(C(N(c2c(nc(c3c(c(c(c(c23)[H])[H])[H])[H])[H])[H])C(=O)[C@]21C(N(C(c1c(c(nn1C([H])([H])[H])[H])[H])([H])[H])C(=O)c1c(c(c(F)c(c21)[H])[H])[H])([H])[H])([H])[H])[H])([H])([H])[H]

>  <h>  (80) 
<NA>

>  <Training>  (80) 
True

>  <Success>  (80) 
True

>  <enamine_searched>  (80) 
False

>  <enamine_id>  (80) 
nan

$$$$

     RDKit          3D

 58 63  0  0  0  0  0  0  0  0999 V2000
    4.7640   -5.1879   26.8428 C   0  0  0  0  0  0  0  0  0  0  0  0
    5.7920   -4.1074   26.8773 C   0  0  0  0  0  0  0  0  0  0  0  0
    5.6749   -2.8671   26.5294 N   0  0  0  0  0  0  0  0  0  0  0  0
    6.9322   -2.3172   26.7524 C   0  0  0  0  0  0  0  0  0  0  0  0
    7.1831   -0.8659   26.5010 C   0  0  0  0  0  0  0  0  0  0  0  0
    8.0214   -0.5892   25.3478 N   0  0  0  0  0  0  0  0  0  0  0  0
    7.4322   -0.1059   24.1078 C   0  0  0  0  0  0  0  0  0  0  0  0
    8.2380   -0.4743   22.8400 C   0  0  2  0  0  0  0  0  0  0  0  0
    7.6799    0.3983   21.6957 C   0  0  0  0  0  0  0  0  0  0  0  0
    7.8152    1.5952   21.5557 O   0  0  0  0  0  0  0  0  0  0  0  0
    6.9513   -0.4035   20.8440 N   0  0  0  0  0  0  0  0  0  0  0  0
    6.1565    0.1119   19.7907 C   0  0  0  0  0  0  0  0  0  0  0  0
    6.4535   -0.2329   18.4967 C   0  0  0  0  0  0  0  0  0  0  0  0
    5.7869    0.2079   17.4023 N   0  0  0  0  0  0  0  0  0  0  0  0
    4.7642    1.0045   17.6050 C   0  0  0  0  0  0  0  0  0  0  0  0
    4.3124    1.3984   18.8960 C   0  0  0  0  0  0  0  0  0  0  0  0
    3.1806    2.2410   19.0540 C   0  0  0  0  0  0  0  0  0  0  0  0
    2.7472    2.5927   20.3025 C   0  0  0  0  0  0  0  0  0  0  0  0
    3.4150    2.1081   21.4482 C   0  0  0  0  0  0  0  0  0  0  0  0
    4.5127    1.2949   21.3212 C   0  0  0  0  0  0  0  0  0  0  0  0
    5.0078    0.9339   20.0344 C   0  0  0  0  0  0  0  0  0  0  0  0
    5.0154    0.9348   22.2126 H   0  0  0  0  0  0  0  0  0  0  0  0
    3.0558    2.3852   22.4345 H   0  0  0  0  0  0  0  0  0  0  0  0
    1.8883    3.2462   20.4188 H   0  0  0  0  0  0  0  0  0  0  0  0
    2.6818    2.6118   18.1630 H   0  0  0  0  0  0  0  0  0  0  0  0
    4.2245    1.3671   16.7281 H   0  0  0  0  0  0  0  0  0  0  0  0
    7.2998   -0.8877   18.2981 H   0  0  0  0  0  0  0  0  0  0  0  0
    6.8694   -1.7876   21.2598 C   0  0  0  0  0  0  0  0  0  0  0  0
    7.9997   -1.9265   22.2866 C   0  0  2  0  0  0  0  0  0  0  0  0
    7.7375   -3.0133   23.3206 C   0  0  0  0  0  0  0  0  0  0  0  0
    6.7849   -2.8471   23.8347 H   0  0  0  0  0  0  0  0  0  0  0  0
    8.5237   -3.0286   24.0814 H   0  0  0  0  0  0  0  0  0  0  0  0
    7.6949   -3.9943   22.8372 H   0  0  0  0  0  0  0  0  0  0  0  0
    8.9177   -2.1780   21.7347 H   0  0  0  0  0  0  0  0  0  0  0  0
    6.9978   -2.4381   20.3953 H   0  0  0  0  0  0  0  0  0  0  0  0
    5.8853   -2.0292   21.6915 H   0  0  0  0  0  0  0  0  0  0  0  0
    9.7008   -0.1974   23.1271 C   0  0  0  0  0  0  0  0  0  0  0  0
   10.5973    0.0190   22.0817 C   0  0  0  0  0  0  0  0  0  0  0  0
   11.9478    0.1258   22.3667 C   0  0  0  0  0  0  0  0  0  0  0  0
   12.8343    0.1821   21.3733 F   0  0  0  0  0  0  0  0  0  0  0  0
   12.4742    0.1197   23.6476 C   0  0  0  0  0  0  0  0  0  0  0  0
   11.5848   -0.1002   24.6742 C   0  0  0  0  0  0  0  0  0  0  0  0
   10.2238   -0.2709   24.4205 C   0  0  0  0  0  0  0  0  0  0  0  0
    9.3656   -0.6196   25.5754 C   0  0  0  0  0  0  0  0  0  0  0  0
    9.8332   -0.9419   26.6627 O   0  0  0  0  0  0  0  0  0  0  0  0
   11.9327   -0.1803   25.6929 H   0  0  0  0  0  0  0  0  0  0  0  0
   13.5437    0.2627   23.7928 H   0  0  0  0  0  0  0  0  0  0  0  0
   10.2207    0.0940   21.0699 H   0  0  0  0  0  0  0  0  0  0  0  0
    6.4204   -0.5134   24.0293 H   0  0  0  0  0  0  0  0  0  0  0  0
    7.3369    0.9871   24.1262 H   0  0  0  0  0  0  0  0  0  0  0  0
    7.6846   -0.4393   27.3743 H   0  0  0  0  0  0  0  0  0  0  0  0
    6.2226   -0.3707   26.3589 H   0  0  0  0  0  0  0  0  0  0  0  0
    7.7520   -3.2824   27.2308 C   0  0  0  0  0  0  0  0  0  0  0  0
    7.0261   -4.4374   27.3176 O   0  0  0  0  0  0  0  0  0  0  0  0
    8.7980   -3.3576   27.4867 H   0  0  0  0  0  0  0  0  0  0  0  0
    5.2106   -6.1213   27.1854 H   0  0  0  0  0  0  0  0  0  0  0  0
    3.9238   -4.9282   27.4922 H   0  0  0  0  0  0  0  0  0  0  0  0
    4.4128   -5.3109   25.8138 H   0  0  0  0  0  0  0  0  0  0  0  0
  1  2  1  0
  2  3  2  0
  3  4  1  0
  4  5  1  0
  5  6  1  0
  6  7  1  0
  8  7  1  1
  8  9  1  0
  9 10  2  0
  9 11  1  0
 11 12  1  0
 12 13  2  0
 13 14  1  0
 14 15  2  0
 15 16  1  0
 16 17  2  0
 17 18  1  0
 18 19  2  0
 19 20  1  0
 20 21  2  0
 20 22  1  0
 19 23  1  0
 18 24  1  0
 17 25  1  0
 15 26  1  0
 13 27  1  0
 11 28  1  0
 28 29  1  0
 29 30  1  0
 30 31  1  0
 30 32  1  0
 30 33  1  0
 29 34  1  6
 28 35  1  0
 28 36  1  0
  8 37  1  0
 37 38  2  0
 38 39  1  0
 39 40  1  0
 39 41  2  0
 41 42  1  0
 42 43  2  0
 43 44  1  0
 44 45  2  0
 42 46  1  0
 41 47  1  0
 38 48  1  0
  7 49  1  0
  7 50  1  0
  5 51  1  0
  5 52  1  0
  4 53  2  0
 53 54  1  0
 53 55  1  0
  1 56  1  0
  1 57  1  0
  1 58  1  0
 54  2  1  0
 44  6  1  0
 29  8  1  0
 43 37  1  0
 21 12  1  0
 21 16  1  0
M  END
>  <cnnaffinities>  (81) 
[6.38749, 6.47242, 6.37953]

>  <score>  (81) 
6.38749

>  <index>  (81) 
81

>  <Smiles>  (81) 
C(c1nc(C(N2C([C@@]3(C(=O)N(c4c(nc(c5c(c(c(c(c45)[H])[H])[H])[H])[H])[H])C([C@@]3(C([H])([H])[H])[H])([H])[H])c3c(c(F)c(c(c3C2=O)[H])[H])[H])([H])[H])([H])[H])c(o1)[H])([H])([H])[H]

>  <h>  (81) 
<NA>

>  <Training>  (81) 
True

>  <Success>  (81) 
True

>  <enamine_searched>  (81) 
False

>  <enamine_id>  (81) 
nan

$$$$

     RDKit          3D

 55 60  0  0  0  0  0  0  0  0999 V2000
    7.3935   -2.5939   23.7607 C   0  0  0  0  0  0  0  0  0  0  0  0
    7.8139   -1.8116   22.5066 C   0  0  1  0  0  0  0  0  0  0  0  0
    6.6496   -1.6566   21.5039 C   0  0  0  0  0  0  0  0  0  0  0  0
    6.9316   -0.4060   20.8266 N   0  0  0  0  0  0  0  0  0  0  0  0
    6.1415    0.1061   19.7597 C   0  0  0  0  0  0  0  0  0  0  0  0
    6.4522   -0.2186   18.4650 C   0  0  0  0  0  0  0  0  0  0  0  0
    5.7679    0.2215   17.3796 N   0  0  0  0  0  0  0  0  0  0  0  0
    4.7462    1.0141   17.5928 C   0  0  0  0  0  0  0  0  0  0  0  0
    4.2965    1.4161   18.8832 C   0  0  0  0  0  0  0  0  0  0  0  0
    3.1697    2.2653   19.0661 C   0  0  0  0  0  0  0  0  0  0  0  0
    2.7565    2.6176   20.3196 C   0  0  0  0  0  0  0  0  0  0  0  0
    3.4428    2.1272   21.4535 C   0  0  0  0  0  0  0  0  0  0  0  0
    4.5339    1.3042   21.3022 C   0  0  0  0  0  0  0  0  0  0  0  0
    5.0036    0.9393   20.0103 C   0  0  0  0  0  0  0  0  0  0  0  0
    5.0597    0.9453   22.1823 H   0  0  0  0  0  0  0  0  0  0  0  0
    3.1288    2.4320   22.4465 H   0  0  0  0  0  0  0  0  0  0  0  0
    1.9122    3.2910   20.4464 H   0  0  0  0  0  0  0  0  0  0  0  0
    2.6635    2.6442   18.1814 H   0  0  0  0  0  0  0  0  0  0  0  0
    4.2177    1.3795   16.7115 H   0  0  0  0  0  0  0  0  0  0  0  0
    7.2945   -0.8730   18.2499 H   0  0  0  0  0  0  0  0  0  0  0  0
    7.8486    0.3939   21.4723 C   0  0  0  0  0  0  0  0  0  0  0  0
    8.1548    1.5050   21.0987 O   0  0  0  0  0  0  0  0  0  0  0  0
    8.3811   -0.3670   22.7175 C   0  0  1  0  0  0  0  0  0  0  0  0
    7.8131    0.2701   24.0098 C   0  0  0  0  0  0  0  0  0  0  0  0
    8.3797    1.5770   24.2629 N   0  0  0  0  0  0  0  0  0  0  0  0
    7.5185    2.7081   24.5448 C   0  0  0  0  0  0  0  0  0  0  0  0
    7.3608    3.6112   23.3556 C   0  0  0  0  0  0  0  0  0  0  0  0
    8.1958    4.5057   22.9561 N   0  0  0  0  0  0  0  0  0  0  0  0
    7.5911    5.0744   21.8449 C   0  0  0  0  0  0  0  0  0  0  0  0
    6.4050    4.4685   21.6304 C   0  0  0  0  0  0  0  0  0  0  0  0
    6.2368    3.5316   22.6129 O   0  0  0  0  0  0  0  0  0  0  0  0
    5.6237    4.5435   20.8927 H   0  0  0  0  0  0  0  0  0  0  0  0
    8.0798    5.8880   21.3238 H   0  0  0  0  0  0  0  0  0  0  0  0
    7.9961    3.2793   25.3451 H   0  0  0  0  0  0  0  0  0  0  0  0
    6.5402    2.3442   24.8677 H   0  0  0  0  0  0  0  0  0  0  0  0
    9.7372    1.7602   24.2906 C   0  0  0  0  0  0  0  0  0  0  0  0
   10.2675    2.7098   24.8538 O   0  0  0  0  0  0  0  0  0  0  0  0
   10.5302    0.7307   23.5406 C   0  0  0  0  0  0  0  0  0  0  0  0
   11.9211    0.8370   23.5672 C   0  0  0  0  0  0  0  0  0  0  0  0
   12.6998    0.0037   22.7897 C   0  0  0  0  0  0  0  0  0  0  0  0
   12.0610   -0.9131   21.9635 C   0  0  0  0  0  0  0  0  0  0  0  0
   12.8097   -1.6894   21.1632 F   0  0  0  0  0  0  0  0  0  0  0  0
   10.6895   -1.0460   21.9260 C   0  0  0  0  0  0  0  0  0  0  0  0
    9.8971   -0.2545   22.7664 C   0  0  0  0  0  0  0  0  0  0  0  0
   10.2682   -1.7429   21.2098 H   0  0  0  0  0  0  0  0  0  0  0  0
   13.7803    0.0602   22.7854 H   0  0  0  0  0  0  0  0  0  0  0  0
   12.3543    1.6047   24.1997 H   0  0  0  0  0  0  0  0  0  0  0  0
    8.0164   -0.4029   24.8594 H   0  0  0  0  0  0  0  0  0  0  0  0
    6.7307    0.3905   23.8906 H   0  0  0  0  0  0  0  0  0  0  0  0
    5.6801   -1.6238   22.0279 H   0  0  0  0  0  0  0  0  0  0  0  0
    6.5986   -2.4784   20.7806 H   0  0  0  0  0  0  0  0  0  0  0  0
    8.6088   -2.3724   22.0106 H   0  0  0  0  0  0  0  0  0  0  0  0
    8.2087   -2.6816   24.4888 H   0  0  0  0  0  0  0  0  0  0  0  0
    6.5476   -2.1109   24.2669 H   0  0  0  0  0  0  0  0  0  0  0  0
    7.0738   -3.6094   23.4977 H   0  0  0  0  0  0  0  0  0  0  0  0
  1  2  1  0
  2  3  1  0
  3  4  1  0
  4  5  1  0
  5  6  2  0
  6  7  1  0
  7  8  2  0
  8  9  1  0
  9 10  2  0
 10 11  1  0
 11 12  2  0
 12 13  1  0
 13 14  2  0
 13 15  1  0
 12 16  1  0
 11 17  1  0
 10 18  1  0
  8 19  1  0
  6 20  1  0
  4 21  1  0
 21 22  2  0
 21 23  1  0
 23 24  1  1
 24 25  1  0
 25 26  1  0
 26 27  1  0
 27 28  2  0
 28 29  1  0
 29 30  2  0
 30 31  1  0
 30 32  1  0
 29 33  1  0
 26 34  1  0
 26 35  1  0
 25 36  1  0
 36 37  2  0
 36 38  1  0
 38 39  2  0
 39 40  1  0
 40 41  2  0
 41 42  1  0
 41 43  1  0
 43 44  2  0
 43 45  1  0
 40 46  1  0
 39 47  1  0
 24 48  1  0
 24 49  1  0
  3 50  1  0
  3 51  1  0
  2 52  1  6
  1 53  1  0
  1 54  1  0
  1 55  1  0
 23  2  1  0
 31 27  1  0
 44 38  1  0
 14  5  1  0
 44 23  1  0
 14  9  1  0
M  END
>  <cnnaffinities>  (82) 
[6.4952, 6.62091]

>  <score>  (82) 
6.4952

>  <index>  (82) 
82

>  <Smiles>  (82) 
C([C@]1(C(N(c2c(nc(c3c(c(c(c(c23)[H])[H])[H])[H])[H])[H])C(=O)[C@]21C(N(C(c1nc(c(o1)[H])[H])([H])[H])C(=O)c1c(c(c(F)c(c21)[H])[H])[H])([H])[H])([H])[H])[H])([H])([H])[H]

>  <h>  (82) 
<NA>

>  <Training>  (82) 
True

>  <Success>  (82) 
True

>  <enamine_searched>  (82) 
False

>  <enamine_id>  (82) 
nan

$$$$

     RDKit          3D

 72 77  0  0  0  0  0  0  0  0999 V2000
    9.5846    5.8565   23.8194 C   0  0  0  0  0  0  0  0  0  0  0  0
    8.4651    5.9853   22.7913 C   0  0  2  0  0  0  0  0  0  0  0  0
    7.7911    7.3490   22.8943 C   0  0  0  0  0  0  0  0  0  0  0  0
    7.0921    7.4912   24.1108 O   0  0  0  0  0  0  0  0  0  0  0  0
    6.0032    6.5975   24.1459 C   0  0  0  0  0  0  0  0  0  0  0  0
    6.4281    5.1288   24.0995 C   0  0  1  0  0  0  0  0  0  0  0  0
    5.1935    4.2463   23.9574 C   0  0  0  0  0  0  0  0  0  0  0  0
    4.6473    4.5091   23.0399 H   0  0  0  0  0  0  0  0  0  0  0  0
    4.5196    4.3952   24.8081 H   0  0  0  0  0  0  0  0  0  0  0  0
    5.4362    3.1806   23.9020 H   0  0  0  0  0  0  0  0  0  0  0  0
    7.3886    4.9104   22.9375 N   0  0  0  0  0  4  0  0  0  0  0  0
    7.9258    3.5119   22.7707 C   0  0  0  0  0  0  0  0  0  0  0  0
    8.3544    2.7883   24.0589 C   0  0  0  0  0  0  0  0  0  0  0  0
    9.0407    1.5402   23.7683 N   0  0  0  0  0  0  0  0  0  0  0  0
    8.2966    0.2999   23.7209 C   0  0  0  0  0  0  0  0  0  0  0  0
    8.6424   -0.5383   22.4645 C   0  0  2  0  0  0  0  0  0  0  0  0
    8.1117    0.1775   21.1971 C   0  0  0  0  0  0  0  0  0  0  0  0
    8.6150    1.1204   20.6230 O   0  0  0  0  0  0  0  0  0  0  0  0
    6.9315   -0.4199   20.8213 N   0  0  0  0  0  0  0  0  0  0  0  0
    6.1471    0.1041   19.7624 C   0  0  0  0  0  0  0  0  0  0  0  0
    6.4614   -0.2109   18.4616 C   0  0  0  0  0  0  0  0  0  0  0  0
    5.7726    0.2247   17.3789 N   0  0  0  0  0  0  0  0  0  0  0  0
    4.7436    1.0096   17.5954 C   0  0  0  0  0  0  0  0  0  0  0  0
    4.2974    1.4073   18.8896 C   0  0  0  0  0  0  0  0  0  0  0  0
    3.1726    2.2560   19.0651 C   0  0  0  0  0  0  0  0  0  0  0  0
    2.7707    2.6279   20.3198 C   0  0  0  0  0  0  0  0  0  0  0  0
    3.4755    2.1657   21.4533 C   0  0  0  0  0  0  0  0  0  0  0  0
    4.5730    1.3476   21.3113 C   0  0  0  0  0  0  0  0  0  0  0  0
    5.0131    0.9437   20.0177 C   0  0  0  0  0  0  0  0  0  0  0  0
    5.1070    1.0103   22.1948 H   0  0  0  0  0  0  0  0  0  0  0  0
    3.1628    2.4840   22.4442 H   0  0  0  0  0  0  0  0  0  0  0  0
    1.9246    3.2975   20.4463 H   0  0  0  0  0  0  0  0  0  0  0  0
    2.6624    2.6285   18.1820 H   0  0  0  0  0  0  0  0  0  0  0  0
    4.2100    1.3741   16.7192 H   0  0  0  0  0  0  0  0  0  0  0  0
    7.3069   -0.8620   18.2527 H   0  0  0  0  0  0  0  0  0  0  0  0
    6.5507   -1.5578   21.6370 C   0  0  0  0  0  0  0  0  0  0  0  0
    7.8312   -1.8766   22.4433 C   0  0  2  0  0  0  0  0  0  0  0  0
    7.5126   -2.5244   23.7988 C   0  0  0  0  0  0  0  0  0  0  0  0
    6.8360   -1.8946   24.3929 H   0  0  0  0  0  0  0  0  0  0  0  0
    7.0123   -3.4921   23.6653 H   0  0  0  0  0  0  0  0  0  0  0  0
    8.4145   -2.6972   24.3993 H   0  0  0  0  0  0  0  0  0  0  0  0
    8.4243   -2.5842   21.8557 H   0  0  0  0  0  0  0  0  0  0  0  0
    5.7059   -1.3139   22.3025 H   0  0  0  0  0  0  0  0  0  0  0  0
    6.2298   -2.3936   21.0029 H   0  0  0  0  0  0  0  0  0  0  0  0
   10.1555   -0.6523   22.3800 C   0  0  0  0  0  0  0  0  0  0  0  0
   10.7629   -1.6148   21.5566 C   0  0  0  0  0  0  0  0  0  0  0  0
   12.1434   -1.6265   21.4183 C   0  0  0  0  0  0  0  0  0  0  0  0
   12.9172   -2.6035   20.1996 Cl  0  0  0  0  0  0  0  0  0  0  0  0
   12.9595   -0.7541   22.1348 C   0  0  0  0  0  0  0  0  0  0  0  0
   12.3657    0.2270   22.8985 C   0  0  0  0  0  0  0  0  0  0  0  0
   10.9780    0.3103   22.9849 C   0  0  0  0  0  0  0  0  0  0  0  0
   10.3974    1.5406   23.6268 C   0  0  0  0  0  0  0  0  0  0  0  0
   11.0987    2.4918   23.9539 O   0  0  0  0  0  0  0  0  0  0  0  0
   12.9335    0.9878   23.4174 H   0  0  0  0  0  0  0  0  0  0  0  0
   14.0383   -0.8426   22.0785 H   0  0  0  0  0  0  0  0  0  0  0  0
   10.1868   -2.3584   21.0157 H   0  0  0  0  0  0  0  0  0  0  0  0
    8.5134   -0.3116   24.6122 H   0  0  0  0  0  0  0  0  0  0  0  0
    7.2315    0.5529   23.7077 H   0  0  0  0  0  0  0  0  0  0  0  0
    9.0418    3.3940   24.6513 H   0  0  0  0  0  0  0  0  0  0  0  0
    7.4768    2.5581   24.6752 H   0  0  0  0  0  0  0  0  0  0  0  0
    7.1621    2.9039   22.2669 H   0  0  0  0  0  0  0  0  0  0  0  0
    8.7874    3.5739   22.0962 H   0  0  0  0  0  0  0  0  0  0  0  0
    6.7891    5.0499   22.0971 H   0  0  0  0  0  0  0  0  0  0  0  0
    6.9648    4.9045   25.0263 H   0  0  0  0  0  0  0  0  0  0  0  0
    5.4686    6.8000   25.0800 H   0  0  0  0  0  0  0  0  0  0  0  0
    5.3200    6.8035   23.3005 H   0  0  0  0  0  0  0  0  0  0  0  0
    7.1014    7.4799   22.0439 H   0  0  0  0  0  0  0  0  0  0  0  0
    8.5347    8.1528   22.8698 H   0  0  0  0  0  0  0  0  0  0  0  0
    8.8746    5.8801   21.7777 H   0  0  0  0  0  0  0  0  0  0  0  0
   10.2374    6.7344   23.7639 H   0  0  0  0  0  0  0  0  0  0  0  0
    9.1655    5.8205   24.8308 H   0  0  0  0  0  0  0  0  0  0  0  0
   10.2007    4.9677   23.6456 H   0  0  0  0  0  0  0  0  0  0  0  0
  1  2  1  0
  2  3  1  0
  3  4  1  0
  4  5  1  0
  5  6  1  0
  6  7  1  0
  7  8  1  0
  7  9  1  0
  7 10  1  0
  6 11  1  0
 11 12  1  0
 12 13  1  0
 13 14  1  0
 14 15  1  0
 16 15  1  1
 16 17  1  0
 17 18  2  0
 17 19  1  0
 19 20  1  0
 20 21  2  0
 21 22  1  0
 22 23  2  0
 23 24  1  0
 24 25  2  0
 25 26  1  0
 26 27  2  0
 27 28  1  0
 28 29  2  0
 28 30  1  0
 27 31  1  0
 26 32  1  0
 25 33  1  0
 23 34  1  0
 21 35  1  0
 19 36  1  0
 36 37  1  0
 37 38  1  0
 38 39  1  0
 38 40  1  0
 38 41  1  0
 37 42  1  6
 36 43  1  0
 36 44  1  0
 16 45  1  0
 45 46  2  0
 46 47  1  0
 47 48  1  0
 47 49  2  0
 49 50  1  0
 50 51  2  0
 51 52  1  0
 52 53  2  0
 50 54  1  0
 49 55  1  0
 46 56  1  0
 15 57  1  0
 15 58  1  0
 13 59  1  0
 13 60  1  0
 12 61  1  0
 12 62  1  0
 11 63  1  0
  6 64  1  1
  5 65  1  0
  5 66  1  0
  3 67  1  0
  3 68  1  0
  2 69  1  6
  1 70  1  0
  1 71  1  0
  1 72  1  0
 11  2  1  0
 52 14  1  0
 37 16  1  0
 51 45  1  0
 29 20  1  0
 29 24  1  0
M  CHG  1  11   1
M  END
>  <cnnaffinities>  (83) 
[6.94573, 6.80216, 6.809, 6.92662]

>  <score>  (83) 
6.94573

>  <index>  (83) 
83

>  <Smiles>  (83) 
C([C@@]1(C(OC([C@@](C([H])([H])[H])([N+]1(C(C(N1C([C@@]2(C(=O)N(c3c(nc(c4c(c(c(c(c34)[H])[H])[H])[H])[H])[H])C([C@@]2(C([H])([H])[H])[H])([H])[H])c2c(c(Cl)c(c(c2C1=O)[H])[H])[H])([H])[H])([H])[H])([H])[H])[H])[H])([H])[H])([H])[H])[H])([H])([H])[H]

>  <h>  (83) 
<NA>

>  <Training>  (83) 
True

>  <Success>  (83) 
True

>  <enamine_searched>  (83) 
False

>  <enamine_id>  (83) 
nan

$$$$

     RDKit          3D

 60 65  0  0  0  0  0  0  0  0999 V2000
    6.8194    1.9877   28.6337 C   0  0  0  0  0  0  0  0  0  0  0  0
    7.3975    1.9898   27.2891 N   0  0  0  0  0  0  0  0  0  0  0  0
    6.6966    2.4925   26.2403 C   0  0  0  0  0  0  0  0  0  0  0  0
    5.5753    2.9614   26.3697 O   0  0  0  0  0  0  0  0  0  0  0  0
    7.3704    2.5325   24.8668 C   0  0  0  0  0  0  0  0  0  0  0  0
    8.2390    1.4708   24.4559 N   0  0  0  0  0  0  0  0  0  0  0  0
    7.6442    0.2070   24.0635 C   0  0  0  0  0  0  0  0  0  0  0  0
    8.2762   -0.3955   22.7821 C   0  0  2  0  0  0  0  0  0  0  0  0
    7.7865    0.3705   21.5329 C   0  0  0  0  0  0  0  0  0  0  0  0
    8.0799    1.4987   21.2066 O   0  0  0  0  0  0  0  0  0  0  0  0
    6.9242   -0.4349   20.8214 N   0  0  0  0  0  0  0  0  0  0  0  0
    6.1355    0.0869   19.7615 C   0  0  0  0  0  0  0  0  0  0  0  0
    6.4486   -0.2326   18.4667 C   0  0  0  0  0  0  0  0  0  0  0  0
    5.7746    0.2185   17.3787 N   0  0  0  0  0  0  0  0  0  0  0  0
    4.7511    1.0107   17.5923 C   0  0  0  0  0  0  0  0  0  0  0  0
    4.3029    1.4042   18.8853 C   0  0  0  0  0  0  0  0  0  0  0  0
    3.1810    2.2561   19.0620 C   0  0  0  0  0  0  0  0  0  0  0  0
    2.7672    2.6152   20.3149 C   0  0  0  0  0  0  0  0  0  0  0  0
    3.4476    2.1253   21.4523 C   0  0  0  0  0  0  0  0  0  0  0  0
    4.5299    1.2913   21.3088 C   0  0  0  0  0  0  0  0  0  0  0  0
    5.0034    0.9242   20.0155 C   0  0  0  0  0  0  0  0  0  0  0  0
    5.0338    0.9133   22.1943 H   0  0  0  0  0  0  0  0  0  0  0  0
    3.1133    2.4167   22.4442 H   0  0  0  0  0  0  0  0  0  0  0  0
    1.9190    3.2816   20.4417 H   0  0  0  0  0  0  0  0  0  0  0  0
    2.6732    2.6326   18.1775 H   0  0  0  0  0  0  0  0  0  0  0  0
    4.2118    1.3790   16.7180 H   0  0  0  0  0  0  0  0  0  0  0  0
    7.2997   -0.8793   18.2613 H   0  0  0  0  0  0  0  0  0  0  0  0
    6.6305   -1.6960   21.4633 C   0  0  0  0  0  0  0  0  0  0  0  0
    7.7464   -1.8460   22.5127 C   0  0  2  0  0  0  0  0  0  0  0  0
    7.2807   -2.6614   23.7220 C   0  0  0  0  0  0  0  0  0  0  0  0
    6.4077   -2.1986   24.1984 H   0  0  0  0  0  0  0  0  0  0  0  0
    6.9832   -3.6707   23.4154 H   0  0  0  0  0  0  0  0  0  0  0  0
    8.0643   -2.7644   24.4812 H   0  0  0  0  0  0  0  0  0  0  0  0
    8.5669   -2.3961   22.0487 H   0  0  0  0  0  0  0  0  0  0  0  0
    5.6368   -1.6843   21.9416 H   0  0  0  0  0  0  0  0  0  0  0  0
    6.6307   -2.5053   20.7243 H   0  0  0  0  0  0  0  0  0  0  0  0
    9.7882   -0.2758   22.8802 C   0  0  0  0  0  0  0  0  0  0  0  0
   10.6059   -1.0153   22.0141 C   0  0  0  0  0  0  0  0  0  0  0  0
   11.9825   -0.9033   22.0897 C   0  0  0  0  0  0  0  0  0  0  0  0
   12.9715   -1.8480   21.0112 Cl  0  0  0  0  0  0  0  0  0  0  0  0
   12.5961   -0.0443   23.0018 C   0  0  0  0  0  0  0  0  0  0  0  0
   11.7954    0.7376   23.8101 C   0  0  0  0  0  0  0  0  0  0  0  0
   10.4038    0.6479   23.7390 C   0  0  0  0  0  0  0  0  0  0  0  0
    9.6046    1.6096   24.5589 C   0  0  0  0  0  0  0  0  0  0  0  0
   10.1195    2.4850   25.2423 O   0  0  0  0  0  0  0  0  0  0  0  0
   12.2245    1.4515   24.5032 H   0  0  0  0  0  0  0  0  0  0  0  0
   13.6783    0.0146   23.0475 H   0  0  0  0  0  0  0  0  0  0  0  0
   10.1835   -1.6720   21.2602 H   0  0  0  0  0  0  0  0  0  0  0  0
    6.5757    0.3715   23.9104 H   0  0  0  0  0  0  0  0  0  0  0  0
    7.7786   -0.5131   24.8793 H   0  0  0  0  0  0  0  0  0  0  0  0
    7.6040    3.9383   24.3677 C   0  0  0  0  0  0  0  0  0  0  0  0
    6.4629    3.1402   23.8268 C   0  0  0  0  0  0  0  0  0  0  0  0
    6.5447    2.7522   22.8155 H   0  0  0  0  0  0  0  0  0  0  0  0
    5.4759    3.3608   24.2242 H   0  0  0  0  0  0  0  0  0  0  0  0
    7.4079    4.7266   25.0918 H   0  0  0  0  0  0  0  0  0  0  0  0
    8.4652    4.0985   23.7213 H   0  0  0  0  0  0  0  0  0  0  0  0
    8.3637    1.7397   27.1232 H   0  0  0  0  0  0  0  0  0  0  0  0
    6.7644    0.9766   29.0415 H   0  0  0  0  0  0  0  0  0  0  0  0
    5.7902    2.3506   28.5551 H   0  0  0  0  0  0  0  0  0  0  0  0
    7.3929    2.6319   29.3151 H   0  0  0  0  0  0  0  0  0  0  0  0
  1  2  1  0
  2  3  1  0
  3  4  2  0
  3  5  1  0
  5  6  1  0
  6  7  1  0
  8  7  1  1
  8  9  1  0
  9 10  2  0
  9 11  1  0
 11 12  1  0
 12 13  2  0
 13 14  1  0
 14 15  2  0
 15 16  1  0
 16 17  2  0
 17 18  1  0
 18 19  2  0
 19 20  1  0
 20 21  2  0
 20 22  1  0
 19 23  1  0
 18 24  1  0
 17 25  1  0
 15 26  1  0
 13 27  1  0
 11 28  1  0
 28 29  1  0
 29 30  1  0
 30 31  1  0
 30 32  1  0
 30 33  1  0
 29 34  1  6
 28 35  1  0
 28 36  1  0
  8 37  1  0
 37 38  2  0
 38 39  1  0
 39 40  1  0
 39 41  2  0
 41 42  1  0
 42 43  2  0
 43 44  1  0
 44 45  2  0
 42 46  1  0
 41 47  1  0
 38 48  1  0
  7 49  1  0
  7 50  1  0
  5 51  1  0
 51 52  1  0
 52 53  1  0
 52 54  1  0
 51 55  1  0
 51 56  1  0
  2 57  1  0
  1 58  1  0
  1 59  1  0
  1 60  1  0
 52  5  1  0
 44  6  1  0
 29  8  1  0
 43 37  1  0
 21 12  1  0
 21 16  1  0
M  END
>  <cnnaffinities>  (84) 
[6.8537, 6.56044, 6.66582]

>  <score>  (84) 
6.8537

>  <index>  (84) 
84

>  <Smiles>  (84) 
C(N(C(=O)C1(N2C([C@@]3(C(=O)N(c4c(nc(c5c(c(c(c(c45)[H])[H])[H])[H])[H])[H])C([C@@]3(C([H])([H])[H])[H])([H])[H])c3c(c(Cl)c(c(c3C2=O)[H])[H])[H])([H])[H])C(C1([H])[H])([H])[H])[H])([H])([H])[H]

>  <h>  (84) 
<NA>

>  <Training>  (84) 
True

>  <Success>  (84) 
True

>  <enamine_searched>  (84) 
False

>  <enamine_id>  (84) 
nan

$$$$

     RDKit          3D

 55 60  0  0  0  0  0  0  0  0999 V2000
    7.3237   -2.5606   23.7850 C   0  0  0  0  0  0  0  0  0  0  0  0
    7.7600   -1.8477   22.4994 C   0  0  1  0  0  0  0  0  0  0  0  0
    6.5773   -1.6474   21.5332 C   0  0  0  0  0  0  0  0  0  0  0  0
    6.9089   -0.4350   20.8222 N   0  0  0  0  0  0  0  0  0  0  0  0
    6.1297    0.0903   19.7611 C   0  0  0  0  0  0  0  0  0  0  0  0
    6.4551   -0.2212   18.4684 C   0  0  0  0  0  0  0  0  0  0  0  0
    5.7807    0.2245   17.3789 N   0  0  0  0  0  0  0  0  0  0  0  0
    4.7514    1.0085   17.5926 C   0  0  0  0  0  0  0  0  0  0  0  0
    4.2991    1.4014   18.8847 C   0  0  0  0  0  0  0  0  0  0  0  0
    3.1726    2.2475   19.0595 C   0  0  0  0  0  0  0  0  0  0  0  0
    2.7550    2.6027   20.3109 C   0  0  0  0  0  0  0  0  0  0  0  0
    3.4431    2.1269   21.4506 C   0  0  0  0  0  0  0  0  0  0  0  0
    4.5374    1.3078   21.3095 C   0  0  0  0  0  0  0  0  0  0  0  0
    5.0002    0.9279   20.0171 C   0  0  0  0  0  0  0  0  0  0  0  0
    5.0640    0.9619   22.1958 H   0  0  0  0  0  0  0  0  0  0  0  0
    3.1028    2.4251   22.4396 H   0  0  0  0  0  0  0  0  0  0  0  0
    1.9057    3.2675   20.4410 H   0  0  0  0  0  0  0  0  0  0  0  0
    2.6655    2.6208   18.1738 H   0  0  0  0  0  0  0  0  0  0  0  0
    4.2099    1.3725   16.7171 H   0  0  0  0  0  0  0  0  0  0  0  0
    7.3129   -0.8611   18.2677 H   0  0  0  0  0  0  0  0  0  0  0  0
    7.9054    0.3129   21.4008 C   0  0  0  0  0  0  0  0  0  0  0  0
    8.2836    1.3799   20.9682 O   0  0  0  0  0  0  0  0  0  0  0  0
    8.4300   -0.4422   22.6476 C   0  0  1  0  0  0  0  0  0  0  0  0
    7.9658    0.2470   23.9474 C   0  0  0  0  0  0  0  0  0  0  0  0
    8.6588    1.4907   24.1967 N   0  0  0  0  0  0  0  0  0  0  0  0
    7.8797    2.6549   24.5494 C   0  0  0  0  0  0  0  0  0  0  0  0
    7.5359    3.5332   23.3818 C   0  0  0  0  0  0  0  0  0  0  0  0
    6.3618    3.7820   22.7616 C   0  0  0  0  0  0  0  0  0  0  0  0
    6.5273    4.8450   21.9287 O   0  0  0  0  0  0  0  0  0  0  0  0
    7.8268    5.1768   22.0781 C   0  0  0  0  0  0  0  0  0  0  0  0
    8.4721    4.4507   22.9219 N   0  0  0  0  0  0  0  0  0  0  0  0
    8.1834    6.0142   21.4976 H   0  0  0  0  0  0  0  0  0  0  0  0
    5.3675    3.3810   22.8541 H   0  0  0  0  0  0  0  0  0  0  0  0
    6.9827    2.3119   25.0847 H   0  0  0  0  0  0  0  0  0  0  0  0
    8.5037    3.2399   25.2300 H   0  0  0  0  0  0  0  0  0  0  0  0
   10.0229    1.5789   24.1540 C   0  0  0  0  0  0  0  0  0  0  0  0
   10.6546    2.4848   24.6864 O   0  0  0  0  0  0  0  0  0  0  0  0
   10.6927    0.4955   23.3735 C   0  0  0  0  0  0  0  0  0  0  0  0
   12.0870    0.5020   23.3418 C   0  0  0  0  0  0  0  0  0  0  0  0
   12.7687   -0.3873   22.5356 C   0  0  0  0  0  0  0  0  0  0  0  0
   12.0199   -1.2557   21.7469 C   0  0  0  0  0  0  0  0  0  0  0  0
   12.6668   -2.0935   20.9195 F   0  0  0  0  0  0  0  0  0  0  0  0
   10.6408   -1.2898   21.7714 C   0  0  0  0  0  0  0  0  0  0  0  0
    9.9480   -0.4368   22.6360 C   0  0  0  0  0  0  0  0  0  0  0  0
   10.1254   -1.9672   21.0989 H   0  0  0  0  0  0  0  0  0  0  0  0
   13.8511   -0.4108   22.4798 H   0  0  0  0  0  0  0  0  0  0  0  0
   12.5985    1.2404   23.9514 H   0  0  0  0  0  0  0  0  0  0  0  0
    8.1256   -0.4409   24.7886 H   0  0  0  0  0  0  0  0  0  0  0  0
    6.8962    0.4672   23.8759 H   0  0  0  0  0  0  0  0  0  0  0  0
    5.6284   -1.5428   22.0814 H   0  0  0  0  0  0  0  0  0  0  0  0
    6.4626   -2.4805   20.8329 H   0  0  0  0  0  0  0  0  0  0  0  0
    8.4937   -2.4876   22.0066 H   0  0  0  0  0  0  0  0  0  0  0  0
    8.1508   -2.6950   24.4922 H   0  0  0  0  0  0  0  0  0  0  0  0
    6.9204   -3.5542   23.5573 H   0  0  0  0  0  0  0  0  0  0  0  0
    6.5312   -2.0020   24.2990 H   0  0  0  0  0  0  0  0  0  0  0  0
  1  2  1  0
  2  3  1  0
  3  4  1  0
  4  5  1  0
  5  6  2  0
  6  7  1  0
  7  8  2  0
  8  9  1  0
  9 10  2  0
 10 11  1  0
 11 12  2  0
 12 13  1  0
 13 14  2  0
 13 15  1  0
 12 16  1  0
 11 17  1  0
 10 18  1  0
  8 19  1  0
  6 20  1  0
  4 21  1  0
 21 22  2  0
 21 23  1  0
 23 24  1  1
 24 25  1  0
 25 26  1  0
 26 27  1  0
 27 28  2  0
 28 29  1  0
 29 30  1  0
 30 31  2  0
 30 32  1  0
 28 33  1  0
 26 34  1  0
 26 35  1  0
 25 36  1  0
 36 37  2  0
 36 38  1  0
 38 39  2  0
 39 40  1  0
 40 41  2  0
 41 42  1  0
 41 43  1  0
 43 44  2  0
 43 45  1  0
 40 46  1  0
 39 47  1  0
 24 48  1  0
 24 49  1  0
  3 50  1  0
  3 51  1  0
  2 52  1  6
  1 53  1  0
  1 54  1  0
  1 55  1  0
 23  2  1  0
 31 27  1  0
 44 38  1  0
 14  5  1  0
 44 23  1  0
 14  9  1  0
M  END
>  <cnnaffinities>  (85) 
[6.37226, 6.21211]

>  <score>  (85) 
6.37226

>  <index>  (85) 
85

>  <Smiles>  (85) 
C([C@]1(C(N(c2c(nc(c3c(c(c(c(c23)[H])[H])[H])[H])[H])[H])C(=O)[C@]21C(N(C(c1c(oc(n1)[H])[H])([H])[H])C(=O)c1c(c(c(F)c(c21)[H])[H])[H])([H])[H])([H])[H])[H])([H])([H])[H]

>  <h>  (85) 
<NA>

>  <Training>  (85) 
True

>  <Success>  (85) 
True

>  <enamine_searched>  (85) 
False

>  <enamine_id>  (85) 
nan

$$$$

     RDKit          3D

 65 70  0  0  0  0  0  0  0  0999 V2000
    6.5639    4.3688   21.3733 C   0  0  0  0  0  0  0  0  0  0  0  0
    7.5524    3.9494   22.3570 N   0  0  0  0  0  0  0  0  0  0  0  0
    7.1035    3.2785   23.4580 C   0  0  0  0  0  0  0  0  0  0  0  0
    5.9122    3.0910   23.6591 O   0  0  0  0  0  0  0  0  0  0  0  0
    8.1522    2.7635   24.4478 C   0  0  0  0  0  0  0  0  0  0  0  0
    8.8278    1.5874   23.9287 N   0  0  0  0  0  0  0  0  0  0  0  0
    8.0886    0.3360   23.8107 C   0  0  0  0  0  0  0  0  0  0  0  0
    8.5225   -0.4778   22.5645 C   0  0  2  0  0  0  0  0  0  0  0  0
    8.0197    0.2301   21.2807 C   0  0  0  0  0  0  0  0  0  0  0  0
    8.4996    1.2056   20.7378 O   0  0  0  0  0  0  0  0  0  0  0  0
    6.9020   -0.4335   20.8342 N   0  0  0  0  0  0  0  0  0  0  0  0
    6.1333    0.0831   19.7651 C   0  0  0  0  0  0  0  0  0  0  0  0
    6.4856   -0.2093   18.4727 C   0  0  0  0  0  0  0  0  0  0  0  0
    5.8080    0.2213   17.3817 N   0  0  0  0  0  0  0  0  0  0  0  0
    4.7599    0.9831   17.5916 C   0  0  0  0  0  0  0  0  0  0  0  0
    4.2949    1.3752   18.8800 C   0  0  0  0  0  0  0  0  0  0  0  0
    3.1728    2.2272   19.0563 C   0  0  0  0  0  0  0  0  0  0  0  0
    2.7760    2.6075   20.3094 C   0  0  0  0  0  0  0  0  0  0  0  0
    3.4810    2.1581   21.4489 C   0  0  0  0  0  0  0  0  0  0  0  0
    4.5678    1.3270   21.3069 C   0  0  0  0  0  0  0  0  0  0  0  0
    5.0002    0.9139   20.0152 C   0  0  0  0  0  0  0  0  0  0  0  0
    5.1308    1.0252   22.1857 H   0  0  0  0  0  0  0  0  0  0  0  0
    3.1852    2.4931   22.4384 H   0  0  0  0  0  0  0  0  0  0  0  0
    1.9251    3.2717   20.4329 H   0  0  0  0  0  0  0  0  0  0  0  0
    2.6606    2.5915   18.1706 H   0  0  0  0  0  0  0  0  0  0  0  0
    4.2209    1.3382   16.7133 H   0  0  0  0  0  0  0  0  0  0  0  0
    7.3618   -0.8266   18.2871 H   0  0  0  0  0  0  0  0  0  0  0  0
    6.5199   -1.5854   21.6228 C   0  0  0  0  0  0  0  0  0  0  0  0
    7.7710   -1.8540   22.4757 C   0  0  2  0  0  0  0  0  0  0  0  0
    7.3963   -2.5650   23.7919 C   0  0  0  0  0  0  0  0  0  0  0  0
    6.9103   -3.9184   23.5644 N   0  0  0  0  0  0  0  0  0  0  0  0
    5.6244   -4.3260   23.6343 C   0  0  0  0  0  0  0  0  0  0  0  0
    4.7198   -3.5555   24.2711 N   0  0  0  0  0  0  0  0  0  0  0  0
    3.5218   -4.1138   24.3754 C   0  0  0  0  0  0  0  0  0  0  0  0
    3.1172   -5.2560   23.8261 N   0  0  0  0  0  0  0  0  0  0  0  0
    4.0920   -5.9031   23.1752 C   0  0  0  0  0  0  0  0  0  0  0  0
    5.3548   -5.5294   23.0764 N   0  0  0  0  0  0  0  0  0  0  0  0
    3.8219   -6.8424   22.6891 H   0  0  0  0  0  0  0  0  0  0  0  0
    2.7763   -3.5629   24.9525 H   0  0  0  0  0  0  0  0  0  0  0  0
    7.5297   -4.5771   23.1244 H   0  0  0  0  0  0  0  0  0  0  0  0
    6.5988   -2.0163   24.3007 H   0  0  0  0  0  0  0  0  0  0  0  0
    8.2645   -2.5847   24.4624 H   0  0  0  0  0  0  0  0  0  0  0  0
    8.4196   -2.5207   21.8986 H   0  0  0  0  0  0  0  0  0  0  0  0
    6.2537   -2.4299   20.9782 H   0  0  0  0  0  0  0  0  0  0  0  0
    5.6432   -1.3788   22.2572 H   0  0  0  0  0  0  0  0  0  0  0  0
   10.0432   -0.5159   22.5251 C   0  0  0  0  0  0  0  0  0  0  0  0
   10.7122   -1.3896   21.6598 C   0  0  0  0  0  0  0  0  0  0  0  0
   12.0929   -1.3531   21.5569 C   0  0  0  0  0  0  0  0  0  0  0  0
   12.8739   -2.3363   20.3500 Cl  0  0  0  0  0  0  0  0  0  0  0  0
   12.8639   -0.5007   22.3504 C   0  0  0  0  0  0  0  0  0  0  0  0
   12.2125    0.3888   23.1785 C   0  0  0  0  0  0  0  0  0  0  0  0
   10.8204    0.4292   23.2114 C   0  0  0  0  0  0  0  0  0  0  0  0
   10.1951    1.5896   23.9157 C   0  0  0  0  0  0  0  0  0  0  0  0
   10.8653    2.4909   24.4024 O   0  0  0  0  0  0  0  0  0  0  0  0
   12.7531    1.1030   23.7921 H   0  0  0  0  0  0  0  0  0  0  0  0
   13.9457   -0.5107   22.2877 H   0  0  0  0  0  0  0  0  0  0  0  0
   10.1679   -2.0837   21.0301 H   0  0  0  0  0  0  0  0  0  0  0  0
    8.2500   -0.2763   24.7084 H   0  0  0  0  0  0  0  0  0  0  0  0
    7.0222    0.5710   23.7501 H   0  0  0  0  0  0  0  0  0  0  0  0
    8.9356    3.5046   24.6412 H   0  0  0  0  0  0  0  0  0  0  0  0
    7.6491    2.5431   25.3998 H   0  0  0  0  0  0  0  0  0  0  0  0
    8.4777    3.7391   22.0081 H   0  0  0  0  0  0  0  0  0  0  0  0
    5.7604    4.9049   21.8873 H   0  0  0  0  0  0  0  0  0  0  0  0
    7.0297    5.0462   20.6539 H   0  0  0  0  0  0  0  0  0  0  0  0
    6.1335    3.4974   20.8561 H   0  0  0  0  0  0  0  0  0  0  0  0
  1  2  1  0
  2  3  1  0
  3  4  2  0
  3  5  1  0
  5  6  1  0
  6  7  1  0
  8  7  1  1
  8  9  1  0
  9 10  2  0
  9 11  1  0
 11 12  1  0
 12 13  2  0
 13 14  1  0
 14 15  2  0
 15 16  1  0
 16 17  2  0
 17 18  1  0
 18 19  2  0
 19 20  1  0
 20 21  2  0
 20 22  1  0
 19 23  1  0
 18 24  1  0
 17 25  1  0
 15 26  1  0
 13 27  1  0
 11 28  1  0
 28 29  1  0
 29 30  1  0
 30 31  1  0
 31 32  1  0
 32 33  2  0
 33 34  1  0
 34 35  2  0
 35 36  1  0
 36 37  2  0
 36 38  1  0
 34 39  1  0
 31 40  1  0
 30 41  1  0
 30 42  1  0
 29 43  1  6
 28 44  1  0
 28 45  1  0
  8 46  1  0
 46 47  2  0
 47 48  1  0
 48 49  1  0
 48 50  2  0
 50 51  1  0
 51 52  2  0
 52 53  1  0
 53 54  2  0
 51 55  1  0
 50 56  1  0
 47 57  1  0
  7 58  1  0
  7 59  1  0
  5 60  1  0
  5 61  1  0
  2 62  1  0
  1 63  1  0
  1 64  1  0
  1 65  1  0
 53  6  1  0
 29  8  1  0
 37 32  1  0
 52 46  1  0
 21 12  1  0
 21 16  1  0
M  END
>  <cnnaffinities>  (86) 
[6.56091]

>  <score>  (86) 
6.56091

>  <index>  (86) 
86

>  <Smiles>  (86) 
C(N(C(=O)C(N1C([C@@]2(C(=O)N(c3c(nc(c4c(c(c(c(c34)[H])[H])[H])[H])[H])[H])C([C@@]2(C(N(c2nc(nc(n2)[H])[H])[H])([H])[H])[H])([H])[H])c2c(c(Cl)c(c(c2C1=O)[H])[H])[H])([H])[H])([H])[H])[H])([H])([H])[H]

>  <h>  (86) 
<NA>

>  <Training>  (86) 
True

>  <Success>  (86) 
True

>  <enamine_searched>  (86) 
False

>  <enamine_id>  (86) 
nan

$$$$

     RDKit          3D

 63 68  0  0  0  0  0  0  0  0999 V2000
    6.6333    4.3731   21.3251 C   0  0  0  0  0  0  0  0  0  0  0  0
    7.6237    3.9928   22.3190 N   0  0  0  0  0  0  0  0  0  0  0  0
    7.1522    3.3168   23.4052 C   0  0  0  0  0  0  0  0  0  0  0  0
    5.9534    3.1362   23.5688 O   0  0  0  0  0  0  0  0  0  0  0  0
    8.1568    2.7921   24.4249 C   0  0  0  0  0  0  0  0  0  0  0  0
    8.8400    1.6132   23.9360 N   0  0  0  0  0  0  0  0  0  0  0  0
    8.1095    0.3617   23.8126 C   0  0  0  0  0  0  0  0  0  0  0  0
    8.5385   -0.4258   22.5501 C   0  0  2  0  0  0  0  0  0  0  0  0
    8.0292    0.2890   21.2736 C   0  0  0  0  0  0  0  0  0  0  0  0
    8.4874    1.2809   20.7415 O   0  0  0  0  0  0  0  0  0  0  0  0
    6.9293   -0.3986   20.8137 N   0  0  0  0  0  0  0  0  0  0  0  0
    6.1391    0.1012   19.7581 C   0  0  0  0  0  0  0  0  0  0  0  0
    6.4727   -0.2102   18.4671 C   0  0  0  0  0  0  0  0  0  0  0  0
    5.7942    0.2197   17.3773 N   0  0  0  0  0  0  0  0  0  0  0  0
    4.7563    0.9953   17.5907 C   0  0  0  0  0  0  0  0  0  0  0  0
    4.2980    1.3874   18.8818 C   0  0  0  0  0  0  0  0  0  0  0  0
    3.1796    2.2429   19.0598 C   0  0  0  0  0  0  0  0  0  0  0  0
    2.7827    2.6200   20.3139 C   0  0  0  0  0  0  0  0  0  0  0  0
    3.4801    2.1611   21.4538 C   0  0  0  0  0  0  0  0  0  0  0  0
    4.5643    1.3268   21.3100 C   0  0  0  0  0  0  0  0  0  0  0  0
    5.0020    0.9220   20.0166 C   0  0  0  0  0  0  0  0  0  0  0  0
    5.1172    1.0160   22.1917 H   0  0  0  0  0  0  0  0  0  0  0  0
    3.1755    2.4865   22.4436 H   0  0  0  0  0  0  0  0  0  0  0  0
    1.9314    3.2819   20.4378 H   0  0  0  0  0  0  0  0  0  0  0  0
    2.6683    2.6115   18.1753 H   0  0  0  0  0  0  0  0  0  0  0  0
    4.2148    1.3550   16.7152 H   0  0  0  0  0  0  0  0  0  0  0  0
    7.3385   -0.8421   18.2863 H   0  0  0  0  0  0  0  0  0  0  0  0
    6.5647   -1.5505   21.5965 C   0  0  0  0  0  0  0  0  0  0  0  0
    7.8088   -1.7962   22.4528 C   0  0  2  0  0  0  0  0  0  0  0  0
    7.4049   -2.5048   23.7531 C   0  0  0  0  0  0  0  0  0  0  0  0
    6.7638   -3.7717   23.4563 N   0  0  0  0  0  0  0  0  0  0  0  0
    5.4495   -4.0758   23.5215 C   0  0  0  0  0  0  0  0  0  0  0  0
    5.3064   -5.3458   23.0107 C   0  0  0  0  0  0  0  0  0  0  0  0
    6.6162   -5.7081   22.6191 C   0  0  0  0  0  0  0  0  0  0  0  0
    7.4889   -4.7497   22.9027 N   0  0  0  0  0  0  0  0  0  0  0  0
    6.9831   -6.6173   22.1617 H   0  0  0  0  0  0  0  0  0  0  0  0
    4.3895   -5.9121   22.9300 H   0  0  0  0  0  0  0  0  0  0  0  0
    4.7206   -3.3589   23.8892 H   0  0  0  0  0  0  0  0  0  0  0  0
    8.2675   -2.7129   24.3861 H   0  0  0  0  0  0  0  0  0  0  0  0
    6.6874   -1.8897   24.3079 H   0  0  0  0  0  0  0  0  0  0  0  0
    8.4762   -2.4715   21.9123 H   0  0  0  0  0  0  0  0  0  0  0  0
    5.6748   -1.3661   22.2246 H   0  0  0  0  0  0  0  0  0  0  0  0
    6.3335   -2.4095   20.9635 H   0  0  0  0  0  0  0  0  0  0  0  0
   10.0524   -0.4841   22.5226 C   0  0  0  0  0  0  0  0  0  0  0  0
   10.7224   -1.3673   21.6710 C   0  0  0  0  0  0  0  0  0  0  0  0
   12.1025   -1.3357   21.5773 C   0  0  0  0  0  0  0  0  0  0  0  0
   12.8669   -2.3324   20.3812 Cl  0  0  0  0  0  0  0  0  0  0  0  0
   12.8835   -0.4941   22.3702 C   0  0  0  0  0  0  0  0  0  0  0  0
   12.2222    0.4061   23.1773 C   0  0  0  0  0  0  0  0  0  0  0  0
   10.8308    0.4555   23.2086 C   0  0  0  0  0  0  0  0  0  0  0  0
   10.2055    1.6188   23.9095 C   0  0  0  0  0  0  0  0  0  0  0  0
   10.8731    2.5303   24.3824 O   0  0  0  0  0  0  0  0  0  0  0  0
   12.7559    1.1313   23.7769 H   0  0  0  0  0  0  0  0  0  0  0  0
   13.9693   -0.5231   22.3339 H   0  0  0  0  0  0  0  0  0  0  0  0
   10.1856   -2.0780   21.0544 H   0  0  0  0  0  0  0  0  0  0  0  0
    7.0385    0.5817   23.7743 H   0  0  0  0  0  0  0  0  0  0  0  0
    8.2909   -0.2646   24.6982 H   0  0  0  0  0  0  0  0  0  0  0  0
    8.9268    3.5275   24.6748 H   0  0  0  0  0  0  0  0  0  0  0  0
    7.5915    2.5540   25.3306 H   0  0  0  0  0  0  0  0  0  0  0  0
    8.5667    3.8406   21.9806 H   0  0  0  0  0  0  0  0  0  0  0  0
    5.8702    4.9941   21.8033 H   0  0  0  0  0  0  0  0  0  0  0  0
    7.1153    4.9736   20.5499 H   0  0  0  0  0  0  0  0  0  0  0  0
    6.1594    3.4789   20.8855 H   0  0  0  0  0  0  0  0  0  0  0  0
  1  2  1  0
  2  3  1  0
  3  4  2  0
  3  5  1  0
  5  6  1  0
  6  7  1  0
  8  7  1  1
  8  9  1  0
  9 10  2  0
  9 11  1  0
 11 12  1  0
 12 13  2  0
 13 14  1  0
 14 15  2  0
 15 16  1  0
 16 17  2  0
 17 18  1  0
 18 19  2  0
 19 20  1  0
 20 21  2  0
 20 22  1  0
 19 23  1  0
 18 24  1  0
 17 25  1  0
 15 26  1  0
 13 27  1  0
 11 28  1  0
 28 29  1  0
 29 30  1  0
 30 31  1  0
 31 32  1  0
 32 33  2  0
 33 34  1  0
 34 35  2  0
 34 36  1  0
 33 37  1  0
 32 38  1  0
 30 39  1  0
 30 40  1  0
 29 41  1  6
 28 42  1  0
 28 43  1  0
  8 44  1  0
 44 45  2  0
 45 46  1  0
 46 47  1  0
 46 48  2  0
 48 49  1  0
 49 50  2  0
 50 51  1  0
 51 52  2  0
 49 53  1  0
 48 54  1  0
 45 55  1  0
  7 56  1  0
  7 57  1  0
  5 58  1  0
  5 59  1  0
  2 60  1  0
  1 61  1  0
  1 62  1  0
  1 63  1  0
 51  6  1  0
 29  8  1  0
 35 31  1  0
 50 44  1  0
 21 12  1  0
 21 16  1  0
M  END
>  <cnnaffinities>  (87) 
[6.76899]

>  <score>  (87) 
6.76899

>  <index>  (87) 
87

>  <Smiles>  (87) 
C(N(C(=O)C(N1C([C@@]2(C(=O)N(c3c(nc(c4c(c(c(c(c34)[H])[H])[H])[H])[H])[H])C([C@@]2(C(n2c(c(c(n2)[H])[H])[H])([H])[H])[H])([H])[H])c2c(c(Cl)c(c(c2C1=O)[H])[H])[H])([H])[H])([H])[H])[H])([H])([H])[H]

>  <h>  (87) 
<NA>

>  <Training>  (87) 
True

>  <Success>  (87) 
True

>  <enamine_searched>  (87) 
False

>  <enamine_id>  (87) 
nan

$$$$

     RDKit          3D

 64 68  0  0  0  0  0  0  0  0999 V2000
    2.1986   -2.0293   26.9429 C   0  0  0  0  0  0  0  0  0  0  0  0
    2.9965   -2.9889   27.8426 C   0  0  0  0  0  0  0  0  0  0  0  0
    4.2248   -3.5028   27.0819 C   0  0  0  0  0  0  0  0  0  0  0  0
    5.2244   -2.7936   27.0618 O   0  0  0  0  0  0  0  0  0  0  0  0
    4.0956   -4.5978   26.2293 N   0  0  0  0  0  0  0  0  0  0  0  0
    3.1302   -5.6433   26.5726 C   0  0  0  0  0  0  0  0  0  0  0  0
    3.6085   -6.9995   26.0465 C   0  0  0  0  0  0  0  0  0  0  0  0
    3.7551   -6.9439   24.5195 C   0  0  0  0  0  0  0  0  0  0  0  0
    4.5530   -5.7290   24.0963 C   0  0  0  0  0  0  0  0  0  0  0  0
    5.1288   -5.7075   22.8191 C   0  0  0  0  0  0  0  0  0  0  0  0
    5.8082   -4.5698   22.3701 C   0  0  0  0  0  0  0  0  0  0  0  0
    5.9202   -3.4417   23.1946 C   0  0  0  0  0  0  0  0  0  0  0  0
    6.4833   -2.2523   22.7158 N   0  0  0  0  0  0  0  0  0  0  0  0
    7.2302   -1.3781   23.6213 C   0  0  0  0  0  0  0  0  0  0  0  0
    8.7013   -1.5455   23.3573 C   0  0  0  0  0  0  0  0  0  0  0  0
    9.3224   -2.7821   23.6202 C   0  0  0  0  0  0  0  0  0  0  0  0
   10.7009   -2.9405   23.4040 C   0  0  0  0  0  0  0  0  0  0  0  0
   11.4763   -1.8547   22.9845 C   0  0  0  0  0  0  0  0  0  0  0  0
   10.8630   -0.6127   22.7648 C   0  0  0  0  0  0  0  0  0  0  0  0
   11.8989    0.9129   22.3141 Br  0  0  0  0  0  0  0  0  0  0  0  0
    9.4791   -0.4747   22.9045 C   0  0  0  0  0  0  0  0  0  0  0  0
    9.0198    0.4805   22.6542 H   0  0  0  0  0  0  0  0  0  0  0  0
   12.5559   -1.9571   22.8751 H   0  0  0  0  0  0  0  0  0  0  0  0
   11.1715   -3.9055   23.5522 H   0  0  0  0  0  0  0  0  0  0  0  0
    8.7340   -3.6157   23.9957 H   0  0  0  0  0  0  0  0  0  0  0  0
    7.0343   -1.6236   24.6711 H   0  0  0  0  0  0  0  0  0  0  0  0
    6.9253   -0.3331   23.4848 H   0  0  0  0  0  0  0  0  0  0  0  0
    6.2398   -1.8550   21.4056 C   0  0  0  0  0  0  0  0  0  0  0  0
    5.4971   -2.5240   20.6870 O   0  0  0  0  0  0  0  0  0  0  0  0
    6.8785   -0.5721   20.8389 C   0  0  0  0  0  0  0  0  0  0  0  0
    6.0961    0.0356   19.6767 C   0  0  0  0  0  0  0  0  0  0  0  0
    6.4567   -0.2448   18.3439 C   0  0  0  0  0  0  0  0  0  0  0  0
    5.8005    0.2469   17.2763 N   0  0  0  0  0  0  0  0  0  0  0  0
    4.7438    1.0477   17.5055 C   0  0  0  0  0  0  0  0  0  0  0  0
    4.2940    1.3734   18.7915 C   0  0  0  0  0  0  0  0  0  0  0  0
    3.1854    2.2118   18.9884 C   0  0  0  0  0  0  0  0  0  0  0  0
    2.7698    2.5433   20.2816 C   0  0  0  0  0  0  0  0  0  0  0  0
    3.4464    2.0273   21.3890 C   0  0  0  0  0  0  0  0  0  0  0  0
    4.5415    1.1788   21.1962 C   0  0  0  0  0  0  0  0  0  0  0  0
    4.9823    0.8563   19.9030 C   0  0  0  0  0  0  0  0  0  0  0  0
    5.0599    0.7753   22.0589 H   0  0  0  0  0  0  0  0  0  0  0  0
    3.1303    2.2977   22.3934 H   0  0  0  0  0  0  0  0  0  0  0  0
    1.9306    3.2162   20.4249 H   0  0  0  0  0  0  0  0  0  0  0  0
    2.6523    2.6328   18.1415 H   0  0  0  0  0  0  0  0  0  0  0  0
    4.2181    1.4713   16.6536 H   0  0  0  0  0  0  0  0  0  0  0  0
    7.3039   -0.9010   18.1659 H   0  0  0  0  0  0  0  0  0  0  0  0
    7.8959   -0.8082   20.5196 H   0  0  0  0  0  0  0  0  0  0  0  0
    6.9626    0.1686   21.6402 H   0  0  0  0  0  0  0  0  0  0  0  0
    5.3746   -3.4847   24.4747 C   0  0  0  0  0  0  0  0  0  0  0  0
    4.6934   -4.6126   24.9513 C   0  0  0  0  0  0  0  0  0  0  0  0
    5.4320   -2.5955   25.0858 H   0  0  0  0  0  0  0  0  0  0  0  0
    6.2236   -4.5572   21.3675 H   0  0  0  0  0  0  0  0  0  0  0  0
    5.0159   -6.5770   22.1758 H   0  0  0  0  0  0  0  0  0  0  0  0
    4.2449   -7.8600   24.1684 H   0  0  0  0  0  0  0  0  0  0  0  0
    2.7650   -6.8946   24.0511 H   0  0  0  0  0  0  0  0  0  0  0  0
    2.8886   -7.7831   26.3117 H   0  0  0  0  0  0  0  0  0  0  0  0
    4.5714   -7.2429   26.5135 H   0  0  0  0  0  0  0  0  0  0  0  0
    3.0296   -5.7074   27.6647 H   0  0  0  0  0  0  0  0  0  0  0  0
    2.1541   -5.4034   26.1353 H   0  0  0  0  0  0  0  0  0  0  0  0
    2.3639   -3.8287   28.1456 H   0  0  0  0  0  0  0  0  0  0  0  0
    3.3195   -2.4693   28.7493 H   0  0  0  0  0  0  0  0  0  0  0  0
    1.3289   -1.6276   27.4745 H   0  0  0  0  0  0  0  0  0  0  0  0
    2.8283   -1.1883   26.6296 H   0  0  0  0  0  0  0  0  0  0  0  0
    1.8491   -2.5532   26.0450 H   0  0  0  0  0  0  0  0  0  0  0  0
  1  2  1  0
  2  3  1  0
  3  4  2  0
  3  5  1  0
  5  6  1  0
  6  7  1  0
  7  8  1  0
  8  9  1  0
  9 10  2  0
 10 11  1  0
 11 12  2  0
 12 13  1  0
 13 14  1  0
 14 15  1  0
 15 16  2  0
 16 17  1  0
 17 18  2  0
 18 19  1  0
 19 20  1  0
 19 21  2  0
 21 22  1  0
 18 23  1  0
 17 24  1  0
 16 25  1  0
 14 26  1  0
 14 27  1  0
 13 28  1  0
 28 29  2  0
 28 30  1  0
 30 31  1  0
 31 32  2  0
 32 33  1  0
 33 34  2  0
 34 35  1  0
 35 36  2  0
 36 37  1  0
 37 38  2  0
 38 39  1  0
 39 40  2  0
 39 41  1  0
 38 42  1  0
 37 43  1  0
 36 44  1  0
 34 45  1  0
 32 46  1  0
 30 47  1  0
 30 48  1  0
 12 49  1  0
 49 50  2  0
 49 51  1  0
 11 52  1  0
 10 53  1  0
  8 54  1  0
  8 55  1  0
  7 56  1  0
  7 57  1  0
  6 58  1  0
  6 59  1  0
  2 60  1  0
  2 61  1  0
  1 62  1  0
  1 63  1  0
  1 64  1  0
 50  5  1  0
 50  9  1  0
 21 15  1  0
 40 31  1  0
 40 35  1  0
M  END
>  <cnnaffinities>  (88) 
[6.00496]

>  <score>  (88) 
6.00496

>  <index>  (88) 
88

>  <Smiles>  (88) 
C(C(C(=O)N1C(C(C(c2c(c(c(N(C(c3c(c(c(c(Br)c3[H])[H])[H])[H])([H])[H])C(=O)C(c3c(nc(c4c(c(c(c(c34)[H])[H])[H])[H])[H])[H])([H])[H])c(c12)[H])[H])[H])([H])[H])([H])[H])([H])[H])([H])[H])([H])([H])[H]

>  <h>  (88) 
<NA>

>  <Training>  (88) 
True

>  <Success>  (88) 
True

>  <enamine_searched>  (88) 
False

>  <enamine_id>  (88) 
nan

$$$$

     RDKit          3D

 38 40  0  0  0  0  0  0  0  0999 V2000
    8.0578    1.6747   20.9652 O   0  0  0  0  0  0  0  0  0  0  0  0
    7.8868    0.6108   21.5301 C   0  0  0  0  0  0  0  0  0  0  0  0
    6.9511   -0.4558   20.9122 C   0  0  0  0  0  0  0  0  0  0  0  0
    6.1176    0.0869   19.7718 C   0  0  0  0  0  0  0  0  0  0  0  0
    6.4285   -0.2077   18.4702 C   0  0  0  0  0  0  0  0  0  0  0  0
    5.7644    0.2409   17.3696 N   0  0  0  0  0  0  0  0  0  0  0  0
    4.7361    1.0269   17.5781 C   0  0  0  0  0  0  0  0  0  0  0  0
    4.2893    1.4199   18.8677 C   0  0  0  0  0  0  0  0  0  0  0  0
    3.1678    2.2712   19.0451 C   0  0  0  0  0  0  0  0  0  0  0  0
    2.7655    2.6432   20.2993 C   0  0  0  0  0  0  0  0  0  0  0  0
    3.4670    2.1715   21.4311 C   0  0  0  0  0  0  0  0  0  0  0  0
    4.5539    1.3432   21.2872 C   0  0  0  0  0  0  0  0  0  0  0  0
    4.9984    0.9443   19.9991 C   0  0  0  0  0  0  0  0  0  0  0  0
    5.0844    0.9934   22.1673 H   0  0  0  0  0  0  0  0  0  0  0  0
    3.1422    2.4728   22.4226 H   0  0  0  0  0  0  0  0  0  0  0  0
    1.9148    3.3085   20.4335 H   0  0  0  0  0  0  0  0  0  0  0  0
    2.6482    2.6457   18.1657 H   0  0  0  0  0  0  0  0  0  0  0  0
    4.2004    1.3964   16.7002 H   0  0  0  0  0  0  0  0  0  0  0  0
    7.2743   -0.8560   18.2448 H   0  0  0  0  0  0  0  0  0  0  0  0
    6.2991   -0.8842   21.6867 H   0  0  0  0  0  0  0  0  0  0  0  0
    7.5685   -1.2874   20.5388 H   0  0  0  0  0  0  0  0  0  0  0  0
    8.4987    0.3261   22.7408 N   0  0  0  0  0  0  0  0  0  0  0  0
    8.8164   -1.0454   23.1440 C   0  0  0  0  0  0  0  0  0  0  0  0
    9.9944   -1.6541   22.4089 C   0  0  0  0  0  0  0  0  0  0  0  0
   11.2168   -1.1281   22.4431 C   0  0  0  0  0  0  0  0  0  0  0  0
   11.5862    0.1025   23.2417 C   0  0  0  0  0  0  0  0  0  0  0  0
   10.8028    1.3672   22.8532 C   0  0  0  0  0  0  0  0  0  0  0  0
    9.3463    1.3711   23.3234 C   0  0  0  0  0  0  0  0  0  0  0  0
    9.3355    1.2321   24.4093 H   0  0  0  0  0  0  0  0  0  0  0  0
    8.8842    2.3375   23.1148 H   0  0  0  0  0  0  0  0  0  0  0  0
   10.8167    1.4894   21.7675 H   0  0  0  0  0  0  0  0  0  0  0  0
   11.3142    2.2484   23.2700 H   0  0  0  0  0  0  0  0  0  0  0  0
   12.6585    0.2955   23.1286 H   0  0  0  0  0  0  0  0  0  0  0  0
   11.4262   -0.0890   24.3131 H   0  0  0  0  0  0  0  0  0  0  0  0
   11.9956   -1.5789   21.8290 H   0  0  0  0  0  0  0  0  0  0  0  0
    9.8119   -2.5478   21.8089 H   0  0  0  0  0  0  0  0  0  0  0  0
    9.0344   -1.0183   24.2170 H   0  0  0  0  0  0  0  0  0  0  0  0
    7.9271   -1.6680   23.0336 H   0  0  0  0  0  0  0  0  0  0  0  0
  1  2  2  0
  2  3  1  0
  3  4  1  0
  4  5  2  0
  5  6  1  0
  6  7  2  0
  7  8  1  0
  8  9  2  0
  9 10  1  0
 10 11  2  0
 11 12  1  0
 12 13  2  0
 12 14  1  0
 11 15  1  0
 10 16  1  0
  9 17  1  0
  7 18  1  0
  5 19  1  0
  3 20  1  0
  3 21  1  0
  2 22  1  0
 22 23  1  0
 23 24  1  0
 24 25  2  0
 25 26  1  0
 26 27  1  0
 27 28  1  0
 28 29  1  0
 28 30  1  0
 27 31  1  0
 27 32  1  0
 26 33  1  0
 26 34  1  0
 25 35  1  0
 24 36  1  0
 23 37  1  0
 23 38  1  0
 13  4  1  0
 28 22  1  0
 13  8  1  0
M  END
>  <cnnaffinities>  (89) 
[5.52389, 5.11191, 4.40878]

>  <score>  (89) 
5.52389

>  <index>  (89) 
89

>  <Smiles>  (89) 
O=C(C(c1c(nc(c2c(c(c(c(c12)[H])[H])[H])[H])[H])[H])([H])[H])N1C(C(=C(C(C(C1([H])[H])([H])[H])([H])[H])[H])[H])([H])[H]

>  <h>  (89) 
<NA>

>  <Training>  (89) 
True

>  <Success>  (89) 
True

>  <enamine_searched>  (89) 
False

>  <enamine_id>  (89) 
nan

$$$$

     RDKit          3D

 62 67  0  0  0  0  0  0  0  0999 V2000
    7.5586   -2.7225   23.6094 C   0  0  0  0  0  0  0  0  0  0  0  0
    7.9375   -1.8266   22.4247 C   0  0  1  0  0  0  0  0  0  0  0  0
    6.7901   -1.7056   21.4019 C   0  0  0  0  0  0  0  0  0  0  0  0
    6.9567   -0.3822   20.8340 N   0  0  0  0  0  0  0  0  0  0  0  0
    6.1513    0.1174   19.7681 C   0  0  0  0  0  0  0  0  0  0  0  0
    6.4411   -0.2197   18.4725 C   0  0  0  0  0  0  0  0  0  0  0  0
    5.7601    0.2249   17.3843 N   0  0  0  0  0  0  0  0  0  0  0  0
    4.7402    1.0236   17.5869 C   0  0  0  0  0  0  0  0  0  0  0  0
    4.2925    1.4171   18.8786 C   0  0  0  0  0  0  0  0  0  0  0  0
    3.1689    2.2704   19.0609 C   0  0  0  0  0  0  0  0  0  0  0  0
    2.7614    2.6254   20.3168 C   0  0  0  0  0  0  0  0  0  0  0  0
    3.4432    2.1305   21.4512 C   0  0  0  0  0  0  0  0  0  0  0  0
    4.5253    1.2977   21.2991 C   0  0  0  0  0  0  0  0  0  0  0  0
    5.0011    0.9400   20.0090 C   0  0  0  0  0  0  0  0  0  0  0  0
    5.0362    0.9035   22.1715 H   0  0  0  0  0  0  0  0  0  0  0  0
    3.1113    2.4123   22.4463 H   0  0  0  0  0  0  0  0  0  0  0  0
    1.9128    3.2923   20.4531 H   0  0  0  0  0  0  0  0  0  0  0  0
    2.6553    2.6558   18.1824 H   0  0  0  0  0  0  0  0  0  0  0  0
    4.2084    1.3923   16.7046 H   0  0  0  0  0  0  0  0  0  0  0  0
    7.2860   -0.8711   18.2526 H   0  0  0  0  0  0  0  0  0  0  0  0
    7.7920    0.4343   21.5596 C   0  0  0  0  0  0  0  0  0  0  0  0
    8.0059    1.6026   21.2998 O   0  0  0  0  0  0  0  0  0  0  0  0
    8.3779   -0.3584   22.7483 C   0  0  1  0  0  0  0  0  0  0  0  0
    7.7499    0.1550   24.0711 C   0  0  0  0  0  0  0  0  0  0  0  0
    8.2194    1.4752   24.4496 N   0  0  0  0  0  0  0  0  0  0  0  0
    7.2576    2.4547   24.9557 C   0  0  0  0  0  0  0  0  0  0  0  0
    6.6862    3.3432   23.8612 C   0  0  0  0  0  0  0  0  0  0  0  0
    7.7285    4.2395   23.2925 N   0  0  0  0  0  4  0  0  0  0  0  0
    8.1485    5.4520   24.1687 C   0  0  0  0  0  0  0  0  0  0  0  0
    7.6293    6.4624   23.0948 C   0  0  0  0  0  0  0  0  0  0  0  0
    7.2505    5.2198   22.2253 C   0  0  0  0  0  0  0  0  0  0  0  0
    6.1906    5.0654   22.0237 H   0  0  0  0  0  0  0  0  0  0  0  0
    7.8107    5.0755   21.3067 H   0  0  0  0  0  0  0  0  0  0  0  0
    6.7706    7.0629   23.4168 H   0  0  0  0  0  0  0  0  0  0  0  0
    8.3846    7.1273   22.6656 H   0  0  0  0  0  0  0  0  0  0  0  0
    9.2185    5.4232   24.3488 H   0  0  0  0  0  0  0  0  0  0  0  0
    7.6087    5.4364   25.1140 H   0  0  0  0  0  0  0  0  0  0  0  0
    8.5120    3.6627   22.9513 H   0  0  0  0  0  0  0  0  0  0  0  0
    5.8842    3.9747   24.2583 H   0  0  0  0  0  0  0  0  0  0  0  0
    6.2751    2.7489   23.0440 H   0  0  0  0  0  0  0  0  0  0  0  0
    6.4221    1.9238   25.4311 H   0  0  0  0  0  0  0  0  0  0  0  0
    7.7426    3.0570   25.7307 H   0  0  0  0  0  0  0  0  0  0  0  0
    9.5621    1.7309   24.5152 C   0  0  0  0  0  0  0  0  0  0  0  0
   10.0281    2.6588   25.1597 O   0  0  0  0  0  0  0  0  0  0  0  0
   10.4345    0.8355   23.6627 C   0  0  0  0  0  0  0  0  0  0  0  0
   11.8178    1.0378   23.6864 C   0  0  0  0  0  0  0  0  0  0  0  0
   12.6651    0.3611   22.8305 C   0  0  0  0  0  0  0  0  0  0  0  0
   12.0937   -0.5130   21.9098 C   0  0  0  0  0  0  0  0  0  0  0  0
   13.1250   -1.3057   20.7540 Cl  0  0  0  0  0  0  0  0  0  0  0  0
   10.7270   -0.7358   21.8675 C   0  0  0  0  0  0  0  0  0  0  0  0
    9.8780   -0.1184   22.7968 C   0  0  0  0  0  0  0  0  0  0  0  0
   10.3346   -1.3585   21.0701 H   0  0  0  0  0  0  0  0  0  0  0  0
   13.7431    0.5163   22.8378 H   0  0  0  0  0  0  0  0  0  0  0  0
   12.2352    1.7548   24.3778 H   0  0  0  0  0  0  0  0  0  0  0  0
    7.9636   -0.5516   24.8836 H   0  0  0  0  0  0  0  0  0  0  0  0
    6.6662    0.1972   23.9584 H   0  0  0  0  0  0  0  0  0  0  0  0
    6.8482   -2.4656   20.6200 H   0  0  0  0  0  0  0  0  0  0  0  0
    5.8078   -1.8371   21.8822 H   0  0  0  0  0  0  0  0  0  0  0  0
    8.7830   -2.3066   21.9264 H   0  0  0  0  0  0  0  0  0  0  0  0
    7.3381   -3.7428   23.2745 H   0  0  0  0  0  0  0  0  0  0  0  0
    8.3643   -2.7896   24.3474 H   0  0  0  0  0  0  0  0  0  0  0  0
    6.6675   -2.3580   24.1332 H   0  0  0  0  0  0  0  0  0  0  0  0
  1  2  1  0
  2  3  1  0
  3  4  1  0
  4  5  1  0
  5  6  2  0
  6  7  1  0
  7  8  2  0
  8  9  1  0
  9 10  2  0
 10 11  1  0
 11 12  2  0
 12 13  1  0
 13 14  2  0
 13 15  1  0
 12 16  1  0
 11 17  1  0
 10 18  1  0
  8 19  1  0
  6 20  1  0
  4 21  1  0
 21 22  2  0
 21 23  1  0
 23 24  1  1
 24 25  1  0
 25 26  1  0
 26 27  1  0
 27 28  1  0
 28 29  1  0
 29 30  1  0
 30 31  1  0
 31 32  1  0
 31 33  1  0
 30 34  1  0
 30 35  1  0
 29 36  1  0
 29 37  1  0
 28 38  1  0
 27 39  1  0
 27 40  1  0
 26 41  1  0
 26 42  1  0
 25 43  1  0
 43 44  2  0
 43 45  1  0
 45 46  2  0
 46 47  1  0
 47 48  2  0
 48 49  1  0
 48 50  1  0
 50 51  2  0
 50 52  1  0
 47 53  1  0
 46 54  1  0
 24 55  1  0
 24 56  1  0
  3 57  1  0
  3 58  1  0
  2 59  1  6
  1 60  1  0
  1 61  1  0
  1 62  1  0
 23  2  1  0
 31 28  1  0
 51 45  1  0
 14  5  1  0
 51 23  1  0
 14  9  1  0
M  CHG  1  28   1
M  END
>  <cnnaffinities>  (90) 
[6.75035, 6.90194]

>  <score>  (90) 
6.75035

>  <index>  (90) 
90

>  <Smiles>  (90) 
C([C@]1(C(N(c2c(nc(c3c(c(c(c(c23)[H])[H])[H])[H])[H])[H])C(=O)[C@]21C(N(C(C([N+]1(C(C(C1([H])[H])([H])[H])([H])[H])[H])([H])[H])([H])[H])C(=O)c1c(c(c(Cl)c(c21)[H])[H])[H])([H])[H])([H])[H])[H])([H])([H])[H]

>  <h>  (90) 
<NA>

>  <Training>  (90) 
True

>  <Success>  (90) 
True

>  <enamine_searched>  (90) 
False

>  <enamine_id>  (90) 
nan

$$$$

     RDKit          3D

 56 61  0  0  0  0  0  0  0  0999 V2000
    7.7589   -3.0179   23.3040 C   0  0  0  0  0  0  0  0  0  0  0  0
    8.0050   -1.9198   22.2805 C   0  0  1  0  0  0  0  0  0  0  0  0
    6.8564   -1.7781   21.2730 C   0  0  0  0  0  0  0  0  0  0  0  0
    6.9558   -0.3968   20.8494 N   0  0  0  0  0  0  0  0  0  0  0  0
    6.1642    0.1176   19.7944 C   0  0  0  0  0  0  0  0  0  0  0  0
    6.4630   -0.2349   18.5015 C   0  0  0  0  0  0  0  0  0  0  0  0
    5.7940    0.1979   17.4050 N   0  0  0  0  0  0  0  0  0  0  0  0
    4.7706    0.9922   17.6129 C   0  0  0  0  0  0  0  0  0  0  0  0
    4.3206    1.3929   18.9009 C   0  0  0  0  0  0  0  0  0  0  0  0
    3.1879    2.2343   19.0512 C   0  0  0  0  0  0  0  0  0  0  0  0
    2.7488    2.5853   20.2972 C   0  0  0  0  0  0  0  0  0  0  0  0
    3.4138    2.1053   21.4459 C   0  0  0  0  0  0  0  0  0  0  0  0
    4.5182    1.2972   21.3280 C   0  0  0  0  0  0  0  0  0  0  0  0
    5.0138    0.9350   20.0407 C   0  0  0  0  0  0  0  0  0  0  0  0
    5.0193    0.9412   22.2218 H   0  0  0  0  0  0  0  0  0  0  0  0
    3.0470    2.3824   22.4287 H   0  0  0  0  0  0  0  0  0  0  0  0
    1.8862    3.2351   20.4075 H   0  0  0  0  0  0  0  0  0  0  0  0
    2.6927    2.5973   18.1561 H   0  0  0  0  0  0  0  0  0  0  0  0
    4.2353    1.3533   16.7358 H   0  0  0  0  0  0  0  0  0  0  0  0
    7.3084   -0.8947   18.3170 H   0  0  0  0  0  0  0  0  0  0  0  0
    7.7093    0.3982   21.6912 C   0  0  0  0  0  0  0  0  0  0  0  0
    7.8627    1.5935   21.5457 O   0  0  0  0  0  0  0  0  0  0  0  0
    8.2524   -0.4699   22.8439 C   0  0  1  0  0  0  0  0  0  0  0  0
    7.4132   -0.0871   24.0967 C   0  0  0  0  0  0  0  0  0  0  0  0
    8.0022   -0.5353   25.3562 N   0  0  0  0  0  0  0  0  0  0  0  0
    7.1646   -0.8074   26.5227 C   0  0  0  0  0  0  0  0  0  0  0  0
    6.9325   -2.2764   26.7821 C   0  0  0  0  0  0  0  0  0  0  0  0
    5.7223   -2.9889   26.6722 C   0  0  0  0  0  0  0  0  0  0  0  0
    5.8554   -4.2718   26.9919 N   0  0  0  0  0  0  0  0  0  0  0  0
    7.1604   -4.3892   27.2820 N   0  0  0  0  0  0  0  0  0  0  0  0
    7.8538   -3.2284   27.1729 C   0  0  0  0  0  0  0  0  0  0  0  0
    8.9184   -3.1697   27.3763 H   0  0  0  0  0  0  0  0  0  0  0  0
    7.5207   -5.2748   27.5981 H   0  0  0  0  0  0  0  0  0  0  0  0
    4.7602   -2.6051   26.3510 H   0  0  0  0  0  0  0  0  0  0  0  0
    6.2127   -0.2791   26.3950 H   0  0  0  0  0  0  0  0  0  0  0  0
    7.6734   -0.3724   27.3910 H   0  0  0  0  0  0  0  0  0  0  0  0
    9.3477   -0.6157   25.5811 C   0  0  0  0  0  0  0  0  0  0  0  0
    9.8103   -0.9534   26.6634 O   0  0  0  0  0  0  0  0  0  0  0  0
   10.2277   -0.2763   24.4436 C   0  0  0  0  0  0  0  0  0  0  0  0
   11.5848   -0.1123   24.7190 C   0  0  0  0  0  0  0  0  0  0  0  0
   12.4846    0.0806   23.6950 C   0  0  0  0  0  0  0  0  0  0  0  0
   11.9969    0.0730   22.3951 C   0  0  0  0  0  0  0  0  0  0  0  0
   12.8878    0.0959   21.3986 F   0  0  0  0  0  0  0  0  0  0  0  0
   10.6433   -0.0104   22.1104 C   0  0  0  0  0  0  0  0  0  0  0  0
    9.7240   -0.2030   23.1446 C   0  0  0  0  0  0  0  0  0  0  0  0
   10.2923    0.0818   21.0946 H   0  0  0  0  0  0  0  0  0  0  0  0
   13.5408    0.2053   23.8888 H   0  0  0  0  0  0  0  0  0  0  0  0
   11.9102   -0.1766   25.7520 H   0  0  0  0  0  0  0  0  0  0  0  0
    7.3185    1.0096   24.1025 H   0  0  0  0  0  0  0  0  0  0  0  0
    6.4005   -0.5108   24.0113 H   0  0  0  0  0  0  0  0  0  0  0  0
    5.8759   -1.9926   21.7313 H   0  0  0  0  0  0  0  0  0  0  0  0
    6.9570   -2.4460   20.4120 H   0  0  0  0  0  0  0  0  0  0  0  0
    8.9105   -2.1645   21.7063 H   0  0  0  0  0  0  0  0  0  0  0  0
    7.7063   -3.9937   22.8070 H   0  0  0  0  0  0  0  0  0  0  0  0
    6.8111   -2.8444   23.8246 H   0  0  0  0  0  0  0  0  0  0  0  0
    8.5607   -3.0417   24.0474 H   0  0  0  0  0  0  0  0  0  0  0  0
  1  2  1  0
  2  3  1  0
  3  4  1  0
  4  5  1  0
  5  6  2  0
  6  7  1  0
  7  8  2  0
  8  9  1  0
  9 10  2  0
 10 11  1  0
 11 12  2  0
 12 13  1  0
 13 14  2  0
 13 15  1  0
 12 16  1  0
 11 17  1  0
 10 18  1  0
  8 19  1  0
  6 20  1  0
  4 21  1  0
 21 22  2  0
 21 23  1  0
 23 24  1  1
 24 25  1  0
 25 26  1  0
 26 27  1  0
 27 28  1  0
 28 29  2  0
 29 30  1  0
 30 31  1  0
 31 32  1  0
 30 33  1  0
 28 34  1  0
 26 35  1  0
 26 36  1  0
 25 37  1  0
 37 38  2  0
 37 39  1  0
 39 40  2  0
 40 41  1  0
 41 42  2  0
 42 43  1  0
 42 44  1  0
 44 45  2  0
 44 46  1  0
 41 47  1  0
 40 48  1  0
 24 49  1  0
 24 50  1  0
  3 51  1  0
  3 52  1  0
  2 53  1  6
  1 54  1  0
  1 55  1  0
  1 56  1  0
 23  2  1  0
 31 27  2  0
 45 39  1  0
 14  5  1  0
 45 23  1  0
 14  9  1  0
M  END
>  <cnnaffinities>  (91) 
[6.46122]

>  <score>  (91) 
6.46122

>  <index>  (91) 
91

>  <Smiles>  (91) 
C([C@]1(C(N(c2c(nc(c3c(c(c(c(c23)[H])[H])[H])[H])[H])[H])C(=O)[C@]21C(N(C(c1c(nn(c1[H])[H])[H])([H])[H])C(=O)c1c(c(c(F)c(c21)[H])[H])[H])([H])[H])([H])[H])[H])([H])([H])[H]

>  <h>  (91) 
<NA>

>  <Training>  (91) 
True

>  <Success>  (91) 
True

>  <enamine_searched>  (91) 
False

>  <enamine_id>  (91) 
nan

$$$$

     RDKit          3D

 47 50  0  0  0  0  0  0  0  0999 V2000
    9.3258   -0.8012   20.6787 O   0  0  0  0  0  0  0  0  0  0  0  0
    8.4181   -0.0812   21.0476 C   0  0  0  0  0  0  0  0  0  0  0  0
    6.9461   -0.4632   20.9214 C   0  0  0  0  0  0  0  0  0  0  0  0
    6.1704    0.1416   19.7654 C   0  0  0  0  0  0  0  0  0  0  0  0
    6.5008   -0.1605   18.4642 C   0  0  0  0  0  0  0  0  0  0  0  0
    5.8293    0.2729   17.3664 N   0  0  0  0  0  0  0  0  0  0  0  0
    4.7801    1.0347   17.5686 C   0  0  0  0  0  0  0  0  0  0  0  0
    4.3183    1.4335   18.8512 C   0  0  0  0  0  0  0  0  0  0  0  0
    3.1733    2.2598   19.0128 C   0  0  0  0  0  0  0  0  0  0  0  0
    2.7468    2.6196   20.2609 C   0  0  0  0  0  0  0  0  0  0  0  0
    3.4333    2.1581   21.4017 C   0  0  0  0  0  0  0  0  0  0  0  0
    4.5321    1.3439   21.2678 C   0  0  0  0  0  0  0  0  0  0  0  0
    5.0230    0.9674   19.9885 C   0  0  0  0  0  0  0  0  0  0  0  0
    5.0208    0.9928   22.1693 H   0  0  0  0  0  0  0  0  0  0  0  0
    3.0859    2.4434   22.3919 H   0  0  0  0  0  0  0  0  0  0  0  0
    1.8839    3.2681   20.3820 H   0  0  0  0  0  0  0  0  0  0  0  0
    2.6517    2.6126   18.1246 H   0  0  0  0  0  0  0  0  0  0  0  0
    4.2154    1.3557   16.6906 H   0  0  0  0  0  0  0  0  0  0  0  0
    7.3623   -0.7934   18.2531 H   0  0  0  0  0  0  0  0  0  0  0  0
    6.4791   -0.2095   21.8747 H   0  0  0  0  0  0  0  0  0  0  0  0
    6.9496   -1.5514   20.8192 H   0  0  0  0  0  0  0  0  0  0  0  0
    8.6442    1.1097   21.7201 N   0  0  0  0  0  0  0  0  0  0  0  0
    7.6488    2.0978   21.7586 C   0  0  0  0  0  0  0  0  0  0  0  0
    7.1257    2.6044   22.8930 C   0  0  0  0  0  0  0  0  0  0  0  0
    7.6336    2.4121   24.2411 C   0  0  0  0  0  0  0  0  0  0  0  0
    8.8877    2.6441   24.6946 C   0  0  0  0  0  0  0  0  0  0  0  0
    9.9770    3.1818   23.8815 C   0  0  0  0  0  0  0  0  0  0  0  0
   10.2687    2.7840   22.6364 C   0  0  0  0  0  0  0  0  0  0  0  0
   10.0481    1.3798   22.1140 C   0  0  1  0  0  0  0  0  0  0  0  0
   10.6697    0.2806   22.9816 C   0  0  0  0  0  0  0  0  0  0  0  0
   12.0331    0.0767   22.7741 C   0  0  0  0  0  0  0  0  0  0  0  0
   12.7277   -0.9335   23.4252 C   0  0  0  0  0  0  0  0  0  0  0  0
   12.0429   -1.7728   24.2979 C   0  0  0  0  0  0  0  0  0  0  0  0
   10.6823   -1.5694   24.5273 C   0  0  0  0  0  0  0  0  0  0  0  0
    9.9982   -0.5280   23.8937 C   0  0  0  0  0  0  0  0  0  0  0  0
    8.9344   -0.3877   24.0901 H   0  0  0  0  0  0  0  0  0  0  0  0
   10.1583   -2.2472   25.1940 H   0  0  0  0  0  0  0  0  0  0  0  0
   12.5796   -2.5756   24.7979 H   0  0  0  0  0  0  0  0  0  0  0  0
   13.7841   -1.0741   23.2137 H   0  0  0  0  0  0  0  0  0  0  0  0
   12.5359    0.7153   22.0506 H   0  0  0  0  0  0  0  0  0  0  0  0
   10.6266    1.2918   21.2048 H   0  0  0  0  0  0  0  0  0  0  0  0
   10.7626    3.4828   21.9553 H   0  0  0  0  0  0  0  0  0  0  0  0
   10.5742    3.9715   24.3469 H   0  0  0  0  0  0  0  0  0  0  0  0
    9.0906    2.5667   25.7634 H   0  0  0  0  0  0  0  0  0  0  0  0
    6.8813    2.1510   24.9838 H   0  0  0  0  0  0  0  0  0  0  0  0
    6.1827    3.1444   22.7796 H   0  0  0  0  0  0  0  0  0  0  0  0
    7.2866    2.4079   20.7810 H   0  0  0  0  0  0  0  0  0  0  0  0
  1  2  2  0
  2  3  1  0
  3  4  1  0
  4  5  2  0
  5  6  1  0
  6  7  2  0
  7  8  1  0
  8  9  2  0
  9 10  1  0
 10 11  2  0
 11 12  1  0
 12 13  2  0
 12 14  1  0
 11 15  1  0
 10 16  1  0
  9 17  1  0
  7 18  1  0
  5 19  1  0
  3 20  1  0
  3 21  1  0
  2 22  1  0
 22 23  1  0
 23 24  2  3
 24 25  1  0
 25 26  2  3
 26 27  1  0
 27 28  2  3
 28 29  1  0
 29 30  1  0
 30 31  2  0
 31 32  1  0
 32 33  2  0
 33 34  1  0
 34 35  2  0
 35 36  1  0
 34 37  1  0
 33 38  1  0
 32 39  1  0
 31 40  1  0
 29 41  1  6
 28 42  1  0
 27 43  1  0
 26 44  1  0
 25 45  1  0
 24 46  1  0
 23 47  1  0
 13  4  1  0
 29 22  1  0
 35 30  1  0
 13  8  1  0
M  END
>  <cnnaffinities>  (92) 
[6.22966, 6.2239]

>  <score>  (92) 
6.22966

>  <index>  (92) 
92

>  <Smiles>  (92) 
O=C(C(c1c(nc(c2c(c(c(c(c12)[H])[H])[H])[H])[H])[H])([H])[H])N1C(=C(C(=C(C(=C([C@]1(c1c(c(c(c(c1[H])[H])[H])[H])[H])[H])[H])[H])[H])[H])[H])[H]

>  <h>  (92) 
<NA>

>  <Training>  (92) 
True

>  <Success>  (92) 
True

>  <enamine_searched>  (92) 
False

>  <enamine_id>  (92) 
nan

$$$$

     RDKit          3D

 58 62  0  0  0  0  0  0  0  0999 V2000
    6.5884    4.5895   21.4528 C   0  0  0  0  0  0  0  0  0  0  0  0
    6.8116    3.6023   22.5138 N   0  0  0  0  0  4  0  0  0  0  0  0
    7.9618    3.9376   23.4062 C   0  0  0  0  0  0  0  0  0  0  0  0
    8.2146    2.8309   24.4305 C   0  0  0  0  0  0  0  0  0  0  0  0
    8.8688    1.6527   23.8710 N   0  0  0  0  0  0  0  0  0  0  0  0
    8.1558    0.3916   23.7987 C   0  0  0  0  0  0  0  0  0  0  0  0
    8.5624   -0.4390   22.5559 C   0  0  2  0  0  0  0  0  0  0  0  0
    8.0465    0.2554   21.2685 C   0  0  0  0  0  0  0  0  0  0  0  0
    8.4960    1.2543   20.7420 O   0  0  0  0  0  0  0  0  0  0  0  0
    6.9346   -0.4192   20.8197 N   0  0  0  0  0  0  0  0  0  0  0  0
    6.1434    0.1055   19.7589 C   0  0  0  0  0  0  0  0  0  0  0  0
    6.4602   -0.2101   18.4639 C   0  0  0  0  0  0  0  0  0  0  0  0
    5.7714    0.2248   17.3799 N   0  0  0  0  0  0  0  0  0  0  0  0
    4.7463    1.0122   17.5976 C   0  0  0  0  0  0  0  0  0  0  0  0
    4.3004    1.4172   18.8875 C   0  0  0  0  0  0  0  0  0  0  0  0
    3.1796    2.2733   19.0677 C   0  0  0  0  0  0  0  0  0  0  0  0
    2.7818    2.6520   20.3205 C   0  0  0  0  0  0  0  0  0  0  0  0
    3.4804    2.1823   21.4532 C   0  0  0  0  0  0  0  0  0  0  0  0
    4.5660    1.3493   21.3076 C   0  0  0  0  0  0  0  0  0  0  0  0
    5.0163    0.9487   20.0169 C   0  0  0  0  0  0  0  0  0  0  0  0
    5.0754    0.9815   22.1942 H   0  0  0  0  0  0  0  0  0  0  0  0
    3.1626    2.4878   22.4478 H   0  0  0  0  0  0  0  0  0  0  0  0
    1.9355    3.3240   20.4443 H   0  0  0  0  0  0  0  0  0  0  0  0
    2.6691    2.6423   18.1822 H   0  0  0  0  0  0  0  0  0  0  0  0
    4.2153    1.3765   16.7176 H   0  0  0  0  0  0  0  0  0  0  0  0
    7.3055   -0.8627   18.2557 H   0  0  0  0  0  0  0  0  0  0  0  0
    6.5512   -1.5518   21.6405 C   0  0  0  0  0  0  0  0  0  0  0  0
    7.7946   -1.8008   22.5244 C   0  0  2  0  0  0  0  0  0  0  0  0
    7.4266   -2.4322   23.8767 C   0  0  0  0  0  0  0  0  0  0  0  0
    6.9642   -3.4190   23.7397 H   0  0  0  0  0  0  0  0  0  0  0  0
    8.3020   -2.5631   24.5257 H   0  0  0  0  0  0  0  0  0  0  0  0
    6.7019   -1.8108   24.4218 H   0  0  0  0  0  0  0  0  0  0  0  0
    8.4436   -2.4962   21.9865 H   0  0  0  0  0  0  0  0  0  0  0  0
    6.3008   -2.4129   21.0084 H   0  0  0  0  0  0  0  0  0  0  0  0
    5.6607   -1.3295   22.2520 H   0  0  0  0  0  0  0  0  0  0  0  0
   10.0801   -0.5240   22.5166 C   0  0  0  0  0  0  0  0  0  0  0  0
   10.7337   -1.5155   21.7698 C   0  0  0  0  0  0  0  0  0  0  0  0
   12.1118   -1.5015   21.6988 C   0  0  0  0  0  0  0  0  0  0  0  0
   12.7542   -2.4002   20.9363 F   0  0  0  0  0  0  0  0  0  0  0  0
   12.8870   -0.5619   22.3649 C   0  0  0  0  0  0  0  0  0  0  0  0
   12.2515    0.4520   23.0468 C   0  0  0  0  0  0  0  0  0  0  0  0
   10.8576    0.4941   23.0941 C   0  0  0  0  0  0  0  0  0  0  0  0
   10.2247    1.7003   23.7231 C   0  0  0  0  0  0  0  0  0  0  0  0
   10.8874    2.6715   24.0675 O   0  0  0  0  0  0  0  0  0  0  0  0
   12.8036    1.2535   23.5274 H   0  0  0  0  0  0  0  0  0  0  0  0
   13.9628   -0.6420   22.2909 H   0  0  0  0  0  0  0  0  0  0  0  0
   10.1947   -2.2696   21.2067 H   0  0  0  0  0  0  0  0  0  0  0  0
    8.3404   -0.2137   24.7008 H   0  0  0  0  0  0  0  0  0  0  0  0
    7.0860    0.6207   23.7369 H   0  0  0  0  0  0  0  0  0  0  0  0
    7.2621    2.5059   24.8659 H   0  0  0  0  0  0  0  0  0  0  0  0
    8.8584    3.2167   25.2247 H   0  0  0  0  0  0  0  0  0  0  0  0
    8.8568    4.0811   22.7916 H   0  0  0  0  0  0  0  0  0  0  0  0
    7.7567    4.8799   23.9260 H   0  0  0  0  0  0  0  0  0  0  0  0
    5.9372    3.5143   23.0859 H   0  0  0  0  0  0  0  0  0  0  0  0
    7.0217    2.6826   22.0660 H   0  0  0  0  0  0  0  0  0  0  0  0
    5.7247    4.2891   20.8576 H   0  0  0  0  0  0  0  0  0  0  0  0
    7.4720    4.6472   20.8133 H   0  0  0  0  0  0  0  0  0  0  0  0
    6.4228    5.5912   21.8664 H   0  0  0  0  0  0  0  0  0  0  0  0
  1  2  1  0
  2  3  1  0
  3  4  1  0
  4  5  1  0
  5  6  1  0
  7  6  1  1
  7  8  1  0
  8  9  2  0
  8 10  1  0
 10 11  1  0
 11 12  2  0
 12 13  1  0
 13 14  2  0
 14 15  1  0
 15 16  2  0
 16 17  1  0
 17 18  2  0
 18 19  1  0
 19 20  2  0
 19 21  1  0
 18 22  1  0
 17 23  1  0
 16 24  1  0
 14 25  1  0
 12 26  1  0
 10 27  1  0
 27 28  1  0
 28 29  1  0
 29 30  1  0
 29 31  1  0
 29 32  1  0
 28 33  1  6
 27 34  1  0
 27 35  1  0
  7 36  1  0
 36 37  2  0
 37 38  1  0
 38 39  1  0
 38 40  2  0
 40 41  1  0
 41 42  2  0
 42 43  1  0
 43 44  2  0
 41 45  1  0
 40 46  1  0
 37 47  1  0
  6 48  1  0
  6 49  1  0
  4 50  1  0
  4 51  1  0
  3 52  1  0
  3 53  1  0
  2 54  1  0
  2 55  1  0
  1 56  1  0
  1 57  1  0
  1 58  1  0
 43  5  1  0
 28  7  1  0
 42 36  1  0
 20 11  1  0
 20 15  1  0
M  CHG  1   2   1
M  END
>  <cnnaffinities>  (93) 
[6.50232]

>  <score>  (93) 
6.50232

>  <index>  (93) 
93

>  <Smiles>  (93) 
C([N+](C(C(N1C([C@@]2(C(=O)N(c3c(nc(c4c(c(c(c(c34)[H])[H])[H])[H])[H])[H])C([C@@]2(C([H])([H])[H])[H])([H])[H])c2c(c(F)c(c(c2C1=O)[H])[H])[H])([H])[H])([H])[H])([H])[H])([H])[H])([H])([H])[H]

>  <h>  (93) 
<NA>

>  <Training>  (93) 
True

>  <Success>  (93) 
True

>  <enamine_searched>  (93) 
False

>  <enamine_id>  (93) 
nan

$$$$

     RDKit          3D

 65 69  0  0  0  0  0  0  0  0999 V2000
   11.5479   -4.4644   27.8463 C   0  0  0  0  0  0  0  0  0  0  0  0
   10.0743   -4.1433   27.5730 C   0  0  0  0  0  0  0  0  0  0  0  0
    9.9759   -2.9583   26.6468 C   0  0  0  0  0  0  0  0  0  0  0  0
   10.3982   -1.8652   26.9142 O   0  0  0  0  0  0  0  0  0  0  0  0
    9.3362   -3.2033   25.2724 N   0  0  2  0  0  4  0  0  0  0  0  0
   10.3969   -3.4378   24.1506 C   0  0  0  0  0  0  0  0  0  0  0  0
   10.9920   -2.1026   23.7415 C   0  0  0  0  0  0  0  0  0  0  0  0
    9.9134   -1.1840   23.1579 C   0  0  0  0  0  0  0  0  0  0  0  0
    8.6269   -1.1369   23.9707 C   0  0  0  0  0  0  0  0  0  0  0  0
    7.6748   -0.1139   23.7858 C   0  0  0  0  0  0  0  0  0  0  0  0
    7.9214    0.8964   22.8011 N   0  0  0  0  0  0  0  0  0  0  0  0
    8.2922    2.2494   23.2340 C   0  0  0  0  0  0  0  0  0  0  0  0
    7.1713    3.2472   23.0104 C   0  0  0  0  0  0  0  0  0  0  0  0
    7.0319    3.8841   21.7788 C   0  0  0  0  0  0  0  0  0  0  0  0
    5.9722    4.7524   21.5472 C   0  0  0  0  0  0  0  0  0  0  0  0
    5.0330    5.0035   22.5423 C   0  0  0  0  0  0  0  0  0  0  0  0
    5.1838    4.3699   23.7682 C   0  0  0  0  0  0  0  0  0  0  0  0
    3.9970    4.6416   25.0141 Cl  0  0  0  0  0  0  0  0  0  0  0  0
    6.2387    3.5006   24.0142 C   0  0  0  0  0  0  0  0  0  0  0  0
    6.3179    3.0264   24.9889 H   0  0  0  0  0  0  0  0  0  0  0  0
    4.1844    5.6618   22.3730 H   0  0  0  0  0  0  0  0  0  0  0  0
    5.8588    5.2261   20.5748 H   0  0  0  0  0  0  0  0  0  0  0  0
    7.7468    3.6646   20.9917 H   0  0  0  0  0  0  0  0  0  0  0  0
    9.1825    2.5625   22.6692 H   0  0  0  0  0  0  0  0  0  0  0  0
    8.5319    2.1817   24.2986 H   0  0  0  0  0  0  0  0  0  0  0  0
    7.9029    0.6595   21.4379 C   0  0  0  0  0  0  0  0  0  0  0  0
    8.6137    1.2878   20.6684 O   0  0  0  0  0  0  0  0  0  0  0  0
    6.9485   -0.4262   20.9083 C   0  0  0  0  0  0  0  0  0  0  0  0
    6.1083    0.0870   19.7655 C   0  0  0  0  0  0  0  0  0  0  0  0
    6.4282   -0.2089   18.4658 C   0  0  0  0  0  0  0  0  0  0  0  0
    5.7652    0.2418   17.3660 N   0  0  0  0  0  0  0  0  0  0  0  0
    4.7368    1.0264   17.5761 C   0  0  0  0  0  0  0  0  0  0  0  0
    4.2816    1.4161   18.8671 C   0  0  0  0  0  0  0  0  0  0  0  0
    3.1652    2.2698   19.0481 C   0  0  0  0  0  0  0  0  0  0  0  0
    2.7592    2.6310   20.3023 C   0  0  0  0  0  0  0  0  0  0  0  0
    3.4489    2.1477   21.4377 C   0  0  0  0  0  0  0  0  0  0  0  0
    4.5432    1.3314   21.2890 C   0  0  0  0  0  0  0  0  0  0  0  0
    4.9879    0.9418   19.9976 C   0  0  0  0  0  0  0  0  0  0  0  0
    5.0727    0.9797   22.1716 H   0  0  0  0  0  0  0  0  0  0  0  0
    3.1161    2.4366   22.4327 H   0  0  0  0  0  0  0  0  0  0  0  0
    1.9122    3.3011   20.4271 H   0  0  0  0  0  0  0  0  0  0  0  0
    2.6572    2.6486   18.1660 H   0  0  0  0  0  0  0  0  0  0  0  0
    4.2031    1.3939   16.6976 H   0  0  0  0  0  0  0  0  0  0  0  0
    7.2744   -0.8572   18.2384 H   0  0  0  0  0  0  0  0  0  0  0  0
    7.5798   -1.2414   20.5353 H   0  0  0  0  0  0  0  0  0  0  0  0
    6.3417   -0.8302   21.7277 H   0  0  0  0  0  0  0  0  0  0  0  0
    6.5091   -0.0614   24.5450 C   0  0  0  0  0  0  0  0  0  0  0  0
    6.2332   -1.0596   25.4781 C   0  0  0  0  0  0  0  0  0  0  0  0
    7.1492   -2.0880   25.6558 C   0  0  0  0  0  0  0  0  0  0  0  0
    8.3292   -2.1138   24.9129 C   0  0  0  0  0  0  0  0  0  0  0  0
    6.9888   -2.8718   26.3887 H   0  0  0  0  0  0  0  0  0  0  0  0
    5.3174   -1.0359   26.0637 H   0  0  0  0  0  0  0  0  0  0  0  0
    5.8098    0.7555   24.3737 H   0  0  0  0  0  0  0  0  0  0  0  0
    9.6570   -1.5385   22.1507 H   0  0  0  0  0  0  0  0  0  0  0  0
   10.3027   -0.1668   23.0284 H   0  0  0  0  0  0  0  0  0  0  0  0
   11.7757   -2.2710   22.9958 H   0  0  0  0  0  0  0  0  0  0  0  0
   11.4522   -1.6305   24.6155 H   0  0  0  0  0  0  0  0  0  0  0  0
    9.8896   -3.9085   23.3068 H   0  0  0  0  0  0  0  0  0  0  0  0
   11.1635   -4.1242   24.5231 H   0  0  0  0  0  0  0  0  0  0  0  0
    8.7878   -4.0780   25.3559 H   0  0  0  0  0  0  0  0  0  0  0  0
    9.5450   -4.9994   27.1430 H   0  0  0  0  0  0  0  0  0  0  0  0
    9.5637   -3.8592   28.5013 H   0  0  0  0  0  0  0  0  0  0  0  0
   12.0602   -4.7400   26.9157 H   0  0  0  0  0  0  0  0  0  0  0  0
   11.6457   -5.2903   28.5589 H   0  0  0  0  0  0  0  0  0  0  0  0
   12.0536   -3.5842   28.2530 H   0  0  0  0  0  0  0  0  0  0  0  0
  1  2  1  0
  2  3  1  0
  3  4  2  0
  3  5  1  0
  5  6  1  0
  6  7  1  0
  7  8  1  0
  8  9  1  0
  9 10  2  0
 10 11  1  0
 11 12  1  0
 12 13  1  0
 13 14  2  0
 14 15  1  0
 15 16  2  0
 16 17  1  0
 17 18  1  0
 17 19  2  0
 19 20  1  0
 16 21  1  0
 15 22  1  0
 14 23  1  0
 12 24  1  0
 12 25  1  0
 11 26  1  0
 26 27  2  0
 26 28  1  0
 28 29  1  0
 29 30  2  0
 30 31  1  0
 31 32  2  0
 32 33  1  0
 33 34  2  0
 34 35  1  0
 35 36  2  0
 36 37  1  0
 37 38  2  0
 37 39  1  0
 36 40  1  0
 35 41  1  0
 34 42  1  0
 32 43  1  0
 30 44  1  0
 28 45  1  0
 28 46  1  0
 10 47  1  0
 47 48  2  0
 48 49  1  0
 49 50  2  0
 49 51  1  0
 48 52  1  0
 47 53  1  0
  8 54  1  0
  8 55  1  0
  7 56  1  0
  7 57  1  0
  6 58  1  0
  6 59  1  0
  5 60  1  1
  2 61  1  0
  2 62  1  0
  1 63  1  0
  1 64  1  0
  1 65  1  0
 50  5  1  0
 50  9  1  0
 19 13  1  0
 38 29  1  0
 38 33  1  0
M  CHG  1   5   1
M  END
>  <cnnaffinities>  (94) 
[6.50145]

>  <score>  (94) 
6.50145

>  <index>  (94) 
94

>  <Smiles>  (94) 
C(C(C(=O)[N@@+]1(C(C(C(c2c(N(C(c3c(c(c(c(Cl)c3[H])[H])[H])[H])([H])[H])C(=O)C(c3c(nc(c4c(c(c(c(c34)[H])[H])[H])[H])[H])[H])([H])[H])c(c(c(c12)[H])[H])[H])([H])[H])([H])[H])([H])[H])[H])([H])[H])([H])([H])[H]

>  <h>  (94) 
<NA>

>  <Training>  (94) 
True

>  <Success>  (94) 
True

>  <enamine_searched>  (94) 
False

>  <enamine_id>  (94) 
nan

$$$$

     RDKit          3D

 67 71  0  0  0  0  0  0  0  0999 V2000
    6.4484    4.5363   21.4922 C   0  0  0  0  0  0  0  0  0  0  0  0
    6.7973    3.8818   22.7421 N   0  0  0  0  0  0  0  0  0  0  0  0
    8.0949    3.9292   23.1483 C   0  0  0  0  0  0  0  0  0  0  0  0
    8.9151    4.6540   22.6043 O   0  0  0  0  0  0  0  0  0  0  0  0
    8.4740    3.0586   24.3530 C   0  0  0  0  0  0  0  0  0  0  0  0
    9.0153    1.7588   23.9854 N   0  0  0  0  0  0  0  0  0  0  0  0
    8.1622    0.5829   24.0397 C   0  0  0  0  0  0  0  0  0  0  0  0
    8.3094   -0.3042   22.7808 C   0  0  2  0  0  0  0  0  0  0  0  0
    7.7888    0.4321   21.5222 C   0  0  0  0  0  0  0  0  0  0  0  0
    8.1075    1.5340   21.1306 O   0  0  0  0  0  0  0  0  0  0  0  0
    6.9087   -0.3859   20.8550 N   0  0  0  0  0  0  0  0  0  0  0  0
    6.1374    0.1178   19.7713 C   0  0  0  0  0  0  0  0  0  0  0  0
    6.4471   -0.2181   18.4776 C   0  0  0  0  0  0  0  0  0  0  0  0
    5.7677    0.2212   17.3888 N   0  0  0  0  0  0  0  0  0  0  0  0
    4.7454    1.0178   17.5939 C   0  0  0  0  0  0  0  0  0  0  0  0
    4.2965    1.4267   18.8838 C   0  0  0  0  0  0  0  0  0  0  0  0
    3.1624    2.2656   19.0643 C   0  0  0  0  0  0  0  0  0  0  0  0
    2.7483    2.6147   20.3219 C   0  0  0  0  0  0  0  0  0  0  0  0
    3.4361    2.1349   21.4582 C   0  0  0  0  0  0  0  0  0  0  0  0
    4.5381    1.3290   21.3065 C   0  0  0  0  0  0  0  0  0  0  0  0
    5.0096    0.9636   20.0124 C   0  0  0  0  0  0  0  0  0  0  0  0
    5.0494    0.9385   22.1819 H   0  0  0  0  0  0  0  0  0  0  0  0
    3.1011    2.4188   22.4524 H   0  0  0  0  0  0  0  0  0  0  0  0
    1.8933    3.2716   20.4527 H   0  0  0  0  0  0  0  0  0  0  0  0
    2.6487    2.6381   18.1827 H   0  0  0  0  0  0  0  0  0  0  0  0
    4.2160    1.3792   16.7120 H   0  0  0  0  0  0  0  0  0  0  0  0
    7.2902   -0.8722   18.2631 H   0  0  0  0  0  0  0  0  0  0  0  0
    6.6998   -1.6824   21.4552 C   0  0  0  0  0  0  0  0  0  0  0  0
    7.4255   -1.6024   22.8250 C   0  0  2  0  0  0  0  0  0  0  0  0
    6.3966   -1.7020   23.9902 C   0  0  0  0  0  0  0  0  0  0  0  0
    5.8028   -3.3916   24.1812 S   0  0  0  0  0  0  0  0  0  0  0  0
    5.2793   -3.8739   22.9114 O   0  0  0  0  0  0  0  0  0  0  0  0
    6.9147   -4.0765   24.8307 O   0  0  0  0  0  0  0  0  0  0  0  0
    4.4737   -3.3659   25.2384 N   0  0  0  0  0  0  0  0  0  0  0  0
    4.7840   -2.8080   26.5531 C   0  0  0  0  0  0  0  0  0  0  0  0
    3.8688   -2.8681   27.1467 H   0  0  0  0  0  0  0  0  0  0  0  0
    5.0442   -1.7502   26.4661 H   0  0  0  0  0  0  0  0  0  0  0  0
    5.5893   -3.3569   27.0605 H   0  0  0  0  0  0  0  0  0  0  0  0
    3.8754   -4.7114   25.3785 C   0  0  0  0  0  0  0  0  0  0  0  0
    3.5643   -5.0919   24.4035 H   0  0  0  0  0  0  0  0  0  0  0  0
    2.9862   -4.6124   26.0078 H   0  0  0  0  0  0  0  0  0  0  0  0
    4.5605   -5.4309   25.8536 H   0  0  0  0  0  0  0  0  0  0  0  0
    6.8852   -1.5004   24.9477 H   0  0  0  0  0  0  0  0  0  0  0  0
    5.5297   -1.0453   23.8566 H   0  0  0  0  0  0  0  0  0  0  0  0
    8.0903   -2.4619   22.9699 H   0  0  0  0  0  0  0  0  0  0  0  0
    5.6289   -1.8783   21.5674 H   0  0  0  0  0  0  0  0  0  0  0  0
    7.1053   -2.4887   20.8332 H   0  0  0  0  0  0  0  0  0  0  0  0
    9.8043   -0.5571   22.5760 C   0  0  0  0  0  0  0  0  0  0  0  0
   10.2299   -1.5970   21.7426 C   0  0  0  0  0  0  0  0  0  0  0  0
   11.5710   -1.7027   21.4367 C   0  0  0  0  0  0  0  0  0  0  0  0
   11.9751   -2.5766   20.5015 F   0  0  0  0  0  0  0  0  0  0  0  0
   12.5383   -0.8904   22.0071 C   0  0  0  0  0  0  0  0  0  0  0  0
   12.1185    0.1668   22.7824 C   0  0  0  0  0  0  0  0  0  0  0  0
   10.7597    0.3654   23.0287 C   0  0  0  0  0  0  0  0  0  0  0  0
   10.3494    1.6539   23.6903 C   0  0  0  0  0  0  0  0  0  0  0  0
   11.1503    2.5470   23.9264 O   0  0  0  0  0  0  0  0  0  0  0  0
   12.8192    0.9006   23.1554 H   0  0  0  0  0  0  0  0  0  0  0  0
   13.5807   -1.0991   21.8068 H   0  0  0  0  0  0  0  0  0  0  0  0
    9.5407   -2.3162   21.3132 H   0  0  0  0  0  0  0  0  0  0  0  0
    8.4187   -0.0230   24.9256 H   0  0  0  0  0  0  0  0  0  0  0  0
    7.1313    0.9387   24.1297 H   0  0  0  0  0  0  0  0  0  0  0  0
    9.2506    3.5961   24.8999 H   0  0  0  0  0  0  0  0  0  0  0  0
    7.6124    2.9014   25.0135 H   0  0  0  0  0  0  0  0  0  0  0  0
    6.1512    3.2077   23.1251 H   0  0  0  0  0  0  0  0  0  0  0  0
    6.5736    5.6234   21.5749 H   0  0  0  0  0  0  0  0  0  0  0  0
    5.4099    4.2949   21.2404 H   0  0  0  0  0  0  0  0  0  0  0  0
    7.1203    4.1771   20.7087 H   0  0  0  0  0  0  0  0  0  0  0  0
  1  2  1  0
  2  3  1  0
  3  4  2  0
  3  5  1  0
  5  6  1  0
  6  7  1  0
  8  7  1  1
  8  9  1  0
  9 10  2  0
  9 11  1  0
 11 12  1  0
 12 13  2  0
 13 14  1  0
 14 15  2  0
 15 16  1  0
 16 17  2  0
 17 18  1  0
 18 19  2  0
 19 20  1  0
 20 21  2  0
 20 22  1  0
 19 23  1  0
 18 24  1  0
 17 25  1  0
 15 26  1  0
 13 27  1  0
 11 28  1  0
 28 29  1  0
 29 30  1  0
 30 31  1  0
 31 32  2  0
 31 33  2  0
 31 34  1  0
 34 35  1  0
 35 36  1  0
 35 37  1  0
 35 38  1  0
 34 39  1  0
 39 40  1  0
 39 41  1  0
 39 42  1  0
 30 43  1  0
 30 44  1  0
 29 45  1  1
 28 46  1  0
 28 47  1  0
  8 48  1  0
 48 49  2  0
 49 50  1  0
 50 51  1  0
 50 52  2  0
 52 53  1  0
 53 54  2  0
 54 55  1  0
 55 56  2  0
 53 57  1  0
 52 58  1  0
 49 59  1  0
  7 60  1  0
  7 61  1  0
  5 62  1  0
  5 63  1  0
  2 64  1  0
  1 65  1  0
  1 66  1  0
  1 67  1  0
 55  6  1  0
 29  8  1  0
 54 48  1  0
 21 12  1  0
 21 16  1  0
M  END
>  <cnnaffinities>  (95) 
[6.04344]

>  <score>  (95) 
6.04344

>  <index>  (95) 
95

>  <Smiles>  (95) 
C(N(C(=O)C(N1C([C@@]2(C(=O)N(c3c(nc(c4c(c(c(c(c34)[H])[H])[H])[H])[H])[H])C([C@@]2(C(S(=O)(=O)N(C([H])([H])[H])C([H])([H])[H])([H])[H])[H])([H])[H])c2c(c(F)c(c(c2C1=O)[H])[H])[H])([H])[H])([H])[H])[H])([H])([H])[H]

>  <h>  (95) 
<NA>

>  <Training>  (95) 
True

>  <Success>  (95) 
True

>  <enamine_searched>  (95) 
False

>  <enamine_id>  (95) 
nan

$$$$
