tmp_first_model_15_26.pdb
 OpenBabel08282501153D

 55 60  0  0  1  0  0  0  0  0999 V2000
  -10.4220   -0.9850  -23.4100 C   0  0  0  0  0  0  0  0  0  0  0  0
   -8.9800   -1.3190  -23.0160 C   0  0  1  0  0  0  0  0  0  0  0  0
   -8.4150   -0.4250  -21.8940 C   0  0  0  0  0  0  0  0  0  0  0  0
   -7.4060   -1.2650  -21.2730 N   0  0  0  0  0  0  0  0  0  0  0  0
   -6.6010   -0.8230  -20.2000 C   0  0  0  0  0  0  0  0  0  0  0  0
   -6.9100   -1.1330  -18.9010 C   0  0  0  0  0  0  0  0  0  0  0  0
   -6.2590   -0.6100  -17.8310 N   0  0  0  0  0  0  0  0  0  0  0  0
   -5.2520    0.2000  -18.0630 C   0  0  0  0  0  0  0  0  0  0  0  0
   -4.7850    0.5420  -19.3690 C   0  0  0  0  0  0  0  0  0  0  0  0
   -3.6590    1.3770  -19.6020 C   0  0  0  0  0  0  0  0  0  0  0  0
   -3.2380    1.6340  -20.8810 C   0  0  0  0  0  0  0  0  0  0  0  0
   -3.9210    1.0830  -21.9890 C   0  0  0  0  0  0  0  0  0  0  0  0
   -5.0200    0.2850  -21.7900 C   0  0  0  0  0  0  0  0  0  0  0  0
   -5.4740    0.0070  -20.4750 C   0  0  0  0  0  0  0  0  0  0  0  0
   -5.5450   -0.1610  -22.6280 H   0  0  0  0  0  0  0  0  0  0  0  0
   -3.5750    1.2900  -22.9980 H   0  0  0  0  0  0  0  0  0  0  0  0
   -2.3710    2.2650  -21.0560 H   0  0  0  0  0  0  0  0  0  0  0  0
   -3.1370    1.7970  -18.7470 H   0  0  0  0  0  0  0  0  0  0  0  0
   -4.7430    0.6230  -17.1940 H   0  0  0  0  0  0  0  0  0  0  0  0
   -7.7270   -1.8160  -18.6730 H   0  0  0  0  0  0  0  0  0  0  0  0
   -7.5580   -2.6030  -21.5350 C   0  0  0  0  0  0  0  0  0  0  0  0
   -6.8580   -3.4730  -21.0510 O   0  0  0  0  0  0  0  0  0  0  0  0
   -8.7460   -2.7850  -22.4900 C   0  0  1  0  0  0  0  0  0  0  0  0
   -9.9250   -3.2570  -21.5960 C   0  0  0  0  0  0  0  0  0  0  0  0
  -11.0470   -3.8400  -22.3230 N   0  0  0  0  0  0  0  0  0  0  0  0
  -12.3940   -3.8720  -21.7420 C   0  0  0  0  0  0  0  0  0  0  0  0
  -13.2510   -2.7290  -22.1990 C   0  0  0  0  0  0  0  0  0  0  0  0
  -13.5930   -2.3960  -23.5180 C   0  0  0  0  0  0  0  0  0  0  0  0
  -14.3950   -1.3370  -23.5110 N   0  0  0  0  0  0  0  0  0  0  0  0
  -14.5050   -1.0730  -22.2240 N   0  0  0  0  0  0  0  0  0  0  0  0
  -13.8650   -1.8770  -21.3880 N   0  0  0  0  0  0  0  0  0  0  0  0
  -15.0520   -0.3000  -21.8780 H   0  0  0  0  0  0  0  0  0  0  0  0
  -13.3260   -2.9010  -24.4390 H   0  0  0  0  0  0  0  0  0  0  0  0
  -12.3910   -3.9000  -20.6510 H   0  0  0  0  0  0  0  0  0  0  0  0
  -12.8640   -4.7980  -22.0900 H   0  0  0  0  0  0  0  0  0  0  0  0
  -10.9060   -4.4930  -23.5160 C   0  0  0  0  0  0  0  0  0  0  0  0
  -11.8720   -4.9740  -24.1020 O   0  0  0  0  0  0  0  0  0  0  0  0
   -9.5240   -4.6090  -24.0550 C   0  0  0  0  0  0  0  0  0  0  0  0
   -9.3150   -5.5650  -25.0480 C   0  0  0  0  0  0  0  0  0  0  0  0
   -8.0480   -5.8560  -25.5010 C   0  0  0  0  0  0  0  0  0  0  0  0
   -7.0070   -5.1000  -24.9800 C   0  0  0  0  0  0  0  0  0  0  0  0
   -5.7690   -5.3710  -25.4200 F   0  0  0  0  0  0  0  0  0  0  0  0
   -7.1800   -4.1090  -24.0310 C   0  0  0  0  0  0  0  0  0  0  0  0
   -8.4700   -3.8430  -23.5420 C   0  0  0  0  0  0  0  0  0  0  0  0
   -6.3000   -3.5660  -23.6980 H   0  0  0  0  0  0  0  0  0  0  0  0
   -7.8630   -6.6250  -26.2480 H   0  0  0  0  0  0  0  0  0  0  0  0
  -10.1790   -6.0890  -25.4350 H   0  0  0  0  0  0  0  0  0  0  0  0
  -10.2780   -2.4020  -21.0080 H   0  0  0  0  0  0  0  0  0  0  0  0
   -9.5240   -3.9870  -20.8920 H   0  0  0  0  0  0  0  0  0  0  0  0
   -9.1810   -0.1410  -21.1560 H   0  0  0  0  0  0  0  0  0  0  0  0
   -7.9610    0.5030  -22.2580 H   0  0  0  0  0  0  0  0  0  0  0  0
   -8.3320   -1.1920  -23.8940 H   0  0  0  0  0  0  0  0  0  0  0  0
  -10.4940    0.0020  -23.8770 H   0  0  0  0  0  0  0  0  0  0  0  0
  -10.8030   -1.7300  -24.1190 H   0  0  0  0  0  0  0  0  0  0  0  0
  -11.0980   -0.9940  -22.5450 H   0  0  0  0  0  0  0  0  0  0  0  0
  1  2  1  0  0  0  0
  1 53  1  0  0  0  0
  1 54  1  0  0  0  0
  1 55  1  0  0  0  0
  2  3  1  0  0  0  0
  2 23  1  0  0  0  0
  2 52  1  6  0  0  0
  3  4  1  0  0  0  0
  3 50  1  0  0  0  0
  3 51  1  0  0  0  0
  4  5  1  0  0  0  0
  4 21  1  0  0  0  0
  5  6  2  0  0  0  0
  5 14  1  0  0  0  0
  6  7  1  0  0  0  0
  6 20  1  0  0  0  0
  7  8  2  0  0  0  0
  8  9  1  0  0  0  0
  8 19  1  0  0  0  0
  9 10  2  0  0  0  0
  9 14  1  0  0  0  0
 10 11  1  0  0  0  0
 10 18  1  0  0  0  0
 11 12  2  0  0  0  0
 11 17  1  0  0  0  0
 12 13  1  0  0  0  0
 12 16  1  0  0  0  0
 13 14  2  0  0  0  0
 13 15  1  0  0  0  0
 21 22  2  0  0  0  0
 23 21  1  1  0  0  0
 23 24  1  0  0  0  0
 23 44  1  0  0  0  0
 24 25  1  0  0  0  0
 24 48  1  0  0  0  0
 24 49  1  0  0  0  0
 25 26  1  0  0  0  0
 25 36  1  0  0  0  0
 26 27  1  0  0  0  0
 26 34  1  0  0  0  0
 26 35  1  0  0  0  0
 27 28  1  0  0  0  0
 27 31  2  0  0  0  0
 28 29  2  0  0  0  0
 28 33  1  0  0  0  0
 29 30  1  0  0  0  0
 30 31  1  0  0  0  0
 30 32  1  0  0  0  0
 36 37  2  0  0  0  0
 36 38  1  0  0  0  0
 38 39  2  0  0  0  0
 38 44  1  0  0  0  0
 39 40  1  0  0  0  0
 39 47  1  0  0  0  0
 40 41  2  0  0  0  0
 40 46  1  0  0  0  0
 41 42  1  0  0  0  0
 41 43  1  0  0  0  0
 43 44  2  0  0  0  0
 43 45  1  0  0  0  0
M  END
>  <MODEL>
       1

$$$$
