tmp_first_model_8_48.pdb
 OpenBabel08272521063D

 46 48  0  0  0  0  0  0  0  0999 V2000
  -10.9550   -6.4770  -25.5420 C   0  0  0  0  0  0  0  0  0  0  0  0
   -9.5940   -6.6120  -24.8460 C   0  0  0  0  0  0  0  0  0  0  0  0
   -8.5070   -6.7500  -25.9090 C   0  0  0  0  0  0  0  0  0  0  0  0
   -8.5060   -5.8740  -26.5700 H   0  0  0  0  0  0  0  0  0  0  0  0
   -8.6920   -7.6370  -26.5290 H   0  0  0  0  0  0  0  0  0  0  0  0
   -7.5080   -6.8490  -25.4690 H   0  0  0  0  0  0  0  0  0  0  0  0
   -9.3130   -5.4930  -23.8170 C   0  0  0  0  0  0  0  0  0  0  0  0
   -8.1160   -5.8510  -22.9000 C   0  0  0  0  0  0  0  0  0  0  0  0
   -6.9830   -4.8470  -22.9630 C   0  0  0  0  0  0  0  0  0  0  0  0
   -7.4970   -3.5300  -22.6320 N   0  0  0  0  0  0  0  0  0  0  0  0
   -6.7240   -2.7630  -21.8070 C   0  0  0  0  0  0  0  0  0  0  0  0
   -5.5820   -3.0820  -21.5070 O   0  0  0  0  0  0  0  0  0  0  0  0
   -7.3860   -1.4980  -21.2690 C   0  0  0  0  0  0  0  0  0  0  0  0
   -6.5880   -0.8530  -20.1820 C   0  0  0  0  0  0  0  0  0  0  0  0
   -6.8980   -1.0800  -18.8670 C   0  0  0  0  0  0  0  0  0  0  0  0
   -6.2160   -0.5840  -17.8030 N   0  0  0  0  0  0  0  0  0  0  0  0
   -5.1900    0.1880  -18.0660 C   0  0  0  0  0  0  0  0  0  0  0  0
   -4.7550    0.5110  -19.3780 C   0  0  0  0  0  0  0  0  0  0  0  0
   -3.6380    1.3490  -19.6110 C   0  0  0  0  0  0  0  0  0  0  0  0
   -3.2610    1.6670  -20.8870 C   0  0  0  0  0  0  0  0  0  0  0  0
   -3.9890    1.1580  -21.9860 C   0  0  0  0  0  0  0  0  0  0  0  0
   -5.0470    0.3060  -21.7900 C   0  0  0  0  0  0  0  0  0  0  0  0
   -5.4670   -0.0280  -20.4750 C   0  0  0  0  0  0  0  0  0  0  0  0
   -5.5630   -0.1220  -22.6450 H   0  0  0  0  0  0  0  0  0  0  0  0
   -3.6840    1.4230  -22.9960 H   0  0  0  0  0  0  0  0  0  0  0  0
   -2.3970    2.3010  -21.0700 H   0  0  0  0  0  0  0  0  0  0  0  0
   -3.1030    1.7460  -18.7520 H   0  0  0  0  0  0  0  0  0  0  0  0
   -4.6390    0.6050  -17.2190 H   0  0  0  0  0  0  0  0  0  0  0  0
   -7.7540   -1.7020  -18.6070 H   0  0  0  0  0  0  0  0  0  0  0  0
   -7.5430   -0.8110  -22.1110 H   0  0  0  0  0  0  0  0  0  0  0  0
   -8.3740   -1.7870  -20.8890 H   0  0  0  0  0  0  0  0  0  0  0  0
   -8.7980   -3.1480  -23.1930 C   0  0  0  0  0  0  0  0  0  0  0  0
   -9.1730   -4.0640  -24.3590 C   0  0  0  0  0  0  0  0  0  0  0  0
   -8.4160   -4.0010  -25.1440 H   0  0  0  0  0  0  0  0  0  0  0  0
  -10.1180   -3.7250  -24.8050 H   0  0  0  0  0  0  0  0  0  0  0  0
   -8.7620   -2.1030  -23.5110 H   0  0  0  0  0  0  0  0  0  0  0  0
   -9.6030   -3.2330  -22.4460 H   0  0  0  0  0  0  0  0  0  0  0  0
   -6.2060   -5.0750  -22.2340 H   0  0  0  0  0  0  0  0  0  0  0  0
   -6.4980   -4.8100  -23.9440 H   0  0  0  0  0  0  0  0  0  0  0  0
   -8.4520   -5.8620  -21.8590 H   0  0  0  0  0  0  0  0  0  0  0  0
   -7.7370   -6.8590  -23.1020 H   0  0  0  0  0  0  0  0  0  0  0  0
  -10.2030   -5.4340  -23.1820 H   0  0  0  0  0  0  0  0  0  0  0  0
   -9.6080   -7.5540  -24.2760 H   0  0  0  0  0  0  0  0  0  0  0  0
  -11.8060   -6.4430  -24.8530 H   0  0  0  0  0  0  0  0  0  0  0  0
  -10.9900   -5.5690  -26.1530 H   0  0  0  0  0  0  0  0  0  0  0  0
  -11.1230   -7.3230  -26.2220 H   0  0  0  0  0  0  0  0  0  0  0  0
  1  2  1  0  0  0  0
  1 44  1  0  0  0  0
  1 45  1  0  0  0  0
  1 46  1  0  0  0  0
  2  3  1  0  0  0  0
  2  7  1  0  0  0  0
  2 43  1  0  0  0  0
  3  4  1  0  0  0  0
  3  5  1  0  0  0  0
  3  6  1  0  0  0  0
  7  8  1  0  0  0  0
  7 33  1  0  0  0  0
  7 42  1  0  0  0  0
  8  9  1  0  0  0  0
  8 40  1  0  0  0  0
  8 41  1  0  0  0  0
  9 10  1  0  0  0  0
  9 38  1  0  0  0  0
  9 39  1  0  0  0  0
 10 11  1  0  0  0  0
 10 32  1  0  0  0  0
 11 12  2  0  0  0  0
 11 13  1  0  0  0  0
 13 14  1  0  0  0  0
 13 30  1  0  0  0  0
 13 31  1  0  0  0  0
 14 15  2  0  0  0  0
 14 23  1  0  0  0  0
 15 16  1  0  0  0  0
 15 29  1  0  0  0  0
 16 17  2  0  0  0  0
 17 18  1  0  0  0  0
 17 28  1  0  0  0  0
 18 19  2  0  0  0  0
 18 23  1  0  0  0  0
 19 20  1  0  0  0  0
 19 27  1  0  0  0  0
 20 21  2  0  0  0  0
 20 26  1  0  0  0  0
 21 22  1  0  0  0  0
 21 25  1  0  0  0  0
 22 23  2  0  0  0  0
 22 24  1  0  0  0  0
 32 33  1  0  0  0  0
 32 36  1  0  0  0  0
 32 37  1  0  0  0  0
 33 34  1  0  0  0  0
 33 35  1  0  0  0  0
M  END
>  <MODEL>
       1

$$$$
