tmp_first_model_4_46.pdb
 OpenBabel08272518513D

 50 54  0  0  1  0  0  0  0  0999 V2000
  -10.1870   -2.9500  -22.0750 C   0  0  0  0  0  0  0  0  0  0  0  0
   -9.1440   -1.9900  -22.6550 C   0  0  1  0  0  0  0  0  0  0  0  0
   -8.6400   -1.0120  -21.5680 C   0  0  0  0  0  0  0  0  0  0  0  0
   -7.3270   -1.5040  -21.2340 N   0  0  0  0  0  0  0  0  0  0  0  0
   -6.4840   -1.0240  -20.2110 C   0  0  0  0  0  0  0  0  0  0  0  0
   -6.7260   -1.3310  -18.8980 C   0  0  0  0  0  0  0  0  0  0  0  0
   -5.8440   -1.1040  -17.8960 N   0  0  0  0  0  0  0  0  0  0  0  0
   -4.7140   -0.5160  -18.2090 C   0  0  0  0  0  0  0  0  0  0  0  0
   -4.3940   -0.0530  -19.5140 C   0  0  0  0  0  0  0  0  0  0  0  0
   -3.2020    0.6670  -19.7770 C   0  0  0  0  0  0  0  0  0  0  0  0
   -2.9860    1.2240  -21.0050 C   0  0  0  0  0  0  0  0  0  0  0  0
   -3.9180    1.0230  -22.0500 C   0  0  0  0  0  0  0  0  0  0  0  0
   -5.0350    0.2500  -21.8520 C   0  0  0  0  0  0  0  0  0  0  0  0
   -5.3140   -0.2830  -20.5560 C   0  0  0  0  0  0  0  0  0  0  0  0
   -5.7110    0.0310  -22.6800 H   0  0  0  0  0  0  0  0  0  0  0  0
   -3.7460    1.4880  -23.0170 H   0  0  0  0  0  0  0  0  0  0  0  0
   -2.1060    1.8380  -21.1780 H   0  0  0  0  0  0  0  0  0  0  0  0
   -2.5140    0.8240  -18.9490 H   0  0  0  0  0  0  0  0  0  0  0  0
   -3.9870   -0.3730  -17.4090 H   0  0  0  0  0  0  0  0  0  0  0  0
   -7.6530   -1.8270  -18.6150 H   0  0  0  0  0  0  0  0  0  0  0  0
   -6.8490   -2.4810  -22.0670 C   0  0  0  0  0  0  0  0  0  0  0  0
   -5.7970   -3.0630  -21.8920 O   0  0  0  0  0  0  0  0  0  0  0  0
   -7.8590   -2.6830  -23.2060 C   0  0  1  0  0  0  0  0  0  0  0  0
   -8.0210   -4.2020  -23.4480 C   0  0  0  0  0  0  0  0  0  0  0  0
   -6.8150   -4.7600  -24.0350 N   0  0  0  0  0  0  0  0  0  0  0  0
   -6.2770   -6.0120  -23.5380 C   0  0  0  0  0  0  0  0  0  0  0  0
   -6.7250   -7.4640  -24.0540 C   0  0  0  0  0  0  0  0  0  0  0  0
   -6.6970   -7.3660  -24.1400 N   0  0  0  0  0  0  0  0  0  0  0  0
   -6.5080   -6.1270  -22.4790 H   0  0  0  0  0  0  0  0  0  0  0  0
   -5.2010   -5.9860  -23.6550 H   0  0  0  0  0  0  0  0  0  0  0  0
   -6.2160   -4.1890  -25.1360 C   0  0  0  0  0  0  0  0  0  0  0  0
   -5.4000   -4.7960  -25.8110 O   0  0  0  0  0  0  0  0  0  0  0  0
   -6.5910   -2.7620  -25.4080 C   0  0  0  0  0  0  0  0  0  0  0  0
   -6.1240   -2.1810  -26.5880 C   0  0  0  0  0  0  0  0  0  0  0  0
   -6.3790   -0.8540  -26.8690 C   0  0  0  0  0  0  0  0  0  0  0  0
   -7.0790   -0.1120  -25.9250 C   0  0  0  0  0  0  0  0  0  0  0  0
   -7.3190    1.1870  -26.1830 F   0  0  0  0  0  0  0  0  0  0  0  0
   -7.5440   -0.6580  -24.7420 C   0  0  0  0  0  0  0  0  0  0  0  0
   -7.3310   -2.0220  -24.4800 C   0  0  0  0  0  0  0  0  0  0  0  0
   -8.0890   -0.0070  -24.0630 H   0  0  0  0  0  0  0  0  0  0  0  0
   -6.0540   -0.3850  -27.7930 H   0  0  0  0  0  0  0  0  0  0  0  0
   -5.5740   -2.8050  -27.2850 H   0  0  0  0  0  0  0  0  0  0  0  0
   -8.8990   -4.3650  -24.0930 H   0  0  0  0  0  0  0  0  0  0  0  0
   -8.1880   -4.7020  -22.4880 H   0  0  0  0  0  0  0  0  0  0  0  0
   -9.2820   -1.0330  -20.6900 H   0  0  0  0  0  0  0  0  0  0  0  0
   -8.6050    0.0280  -21.9190 H   0  0  0  0  0  0  0  0  0  0  0  0
   -9.6330   -1.4450  -23.4700 H   0  0  0  0  0  0  0  0  0  0  0  0
  -10.5530   -3.6460  -22.8360 H   0  0  0  0  0  0  0  0  0  0  0  0
   -9.7720   -3.5360  -21.2480 H   0  0  0  0  0  0  0  0  0  0  0  0
  -11.0500   -2.3950  -21.6940 H   0  0  0  0  0  0  0  0  0  0  0  0
  1  2  1  0  0  0  0
  1 48  1  0  0  0  0
  1 49  1  0  0  0  0
  1 50  1  0  0  0  0
  2  3  1  0  0  0  0
  2 23  1  0  0  0  0
  2 47  1  6  0  0  0
  3  4  1  0  0  0  0
  3 45  1  0  0  0  0
  3 46  1  0  0  0  0
  4  5  1  0  0  0  0
  4 21  1  0  0  0  0
  5  6  2  0  0  0  0
  5 14  1  0  0  0  0
  6  7  1  0  0  0  0
  6 20  1  0  0  0  0
  7  8  2  0  0  0  0
  8  9  1  0  0  0  0
  8 19  1  0  0  0  0
  9 10  2  0  0  0  0
  9 14  1  0  0  0  0
 10 11  1  0  0  0  0
 10 18  1  0  0  0  0
 11 12  2  0  0  0  0
 11 17  1  0  0  0  0
 12 13  1  0  0  0  0
 12 16  1  0  0  0  0
 13 14  2  0  0  0  0
 13 15  1  0  0  0  0
 21 22  2  0  0  0  0
 23 21  1  1  0  0  0
 23 24  1  0  0  0  0
 23 39  1  0  0  0  0
 24 25  1  0  0  0  0
 24 43  1  0  0  0  0
 24 44  1  0  0  0  0
 25 26  1  0  0  0  0
 25 31  1  0  0  0  0
 26 27  1  0  0  0  0
 26 29  1  0  0  0  0
 26 30  1  0  0  0  0
 27 28  3  0  0  0  0
 31 32  2  0  0  0  0
 31 33  1  0  0  0  0
 33 34  2  0  0  0  0
 33 39  1  0  0  0  0
 34 35  1  0  0  0  0
 34 42  1  0  0  0  0
 35 36  2  0  0  0  0
 35 41  1  0  0  0  0
 36 37  1  0  0  0  0
 36 38  1  0  0  0  0
 38 39  2  0  0  0  0
 38 40  1  0  0  0  0
M  END
>  <MODEL>
       1

$$$$
