tmp_first_model_19_32.pdb
 OpenBabel08282503233D

 57 62  0  0  1  0  0  0  0  0999 V2000
   -8.0900   -4.0930  -23.7770 C   0  0  0  0  0  0  0  0  0  0  0  0
   -8.3100   -3.2190  -22.5430 C   0  0  1  0  0  0  0  0  0  0  0  0
   -7.0340   -2.4690  -22.1200 C   0  0  0  0  0  0  0  0  0  0  0  0
   -7.5200   -1.3170  -21.3800 N   0  0  0  0  0  0  0  0  0  0  0  0
   -6.7770   -0.7680  -20.2990 C   0  0  0  0  0  0  0  0  0  0  0  0
   -7.1260   -1.0220  -18.9910 C   0  0  0  0  0  0  0  0  0  0  0  0
   -6.4000   -0.6190  -17.9180 N   0  0  0  0  0  0  0  0  0  0  0  0
   -5.3150    0.0860  -18.1300 C   0  0  0  0  0  0  0  0  0  0  0  0
   -4.8390    0.4310  -19.4290 C   0  0  0  0  0  0  0  0  0  0  0  0
   -3.6780    1.2260  -19.6330 C   0  0  0  0  0  0  0  0  0  0  0  0
   -3.2370    1.4970  -20.9000 C   0  0  0  0  0  0  0  0  0  0  0  0
   -3.9090    0.9580  -22.0190 C   0  0  0  0  0  0  0  0  0  0  0  0
   -5.0370    0.1940  -21.8460 C   0  0  0  0  0  0  0  0  0  0  0  0
   -5.5580   -0.0520  -20.5470 C   0  0  0  0  0  0  0  0  0  0  0  0
   -5.5450   -0.2270  -22.7080 H   0  0  0  0  0  0  0  0  0  0  0  0
   -3.5350    1.1470  -23.0210 H   0  0  0  0  0  0  0  0  0  0  0  0
   -2.3650    2.1260  -21.0570 H   0  0  0  0  0  0  0  0  0  0  0  0
   -3.1560    1.6240  -18.7660 H   0  0  0  0  0  0  0  0  0  0  0  0
   -4.7390    0.4040  -17.2550 H   0  0  0  0  0  0  0  0  0  0  0  0
   -8.0170   -1.6030  -18.7560 H   0  0  0  0  0  0  0  0  0  0  0  0
   -8.8640   -1.0810  -21.5980 C   0  0  0  0  0  0  0  0  0  0  0  0
   -9.5100   -0.2260  -21.0310 O   0  0  0  0  0  0  0  0  0  0  0  0
   -9.3790   -2.0880  -22.6810 C   0  0  1  0  0  0  0  0  0  0  0  0
   -9.2950   -1.4570  -24.0950 C   0  0  0  0  0  0  0  0  0  0  0  0
  -10.3450   -0.4900  -24.3800 N   0  0  0  0  0  0  0  0  0  0  0  0
   -9.9340    0.7080  -25.0960 C   0  0  0  0  0  0  0  0  0  0  0  0
   -9.1440    1.5710  -24.1620 C   0  0  0  0  0  0  0  0  0  0  0  0
   -7.8320    1.6900  -24.1340 N   0  0  0  0  0  0  0  0  0  0  0  0
   -7.5480    2.3840  -23.0130 N   0  0  0  0  0  0  0  0  0  0  0  0
   -8.6240    2.6780  -22.3760 N   0  0  0  0  0  0  0  0  0  0  0  0
   -9.6510    2.1800  -23.0790 N   0  0  0  0  0  0  0  0  0  0  0  0
  -11.0070    2.3640  -22.5630 C   0  0  0  0  0  0  0  0  0  0  0  0
  -11.1890    1.6450  -21.7600 H   0  0  0  0  0  0  0  0  0  0  0  0
  -11.7260    2.2100  -23.3730 H   0  0  0  0  0  0  0  0  0  0  0  0
  -11.0820    3.3830  -22.1690 H   0  0  0  0  0  0  0  0  0  0  0  0
  -10.8330    1.1860  -25.4920 H   0  0  0  0  0  0  0  0  0  0  0  0
   -9.2870    0.4320  -25.9300 H   0  0  0  0  0  0  0  0  0  0  0  0
  -11.6310   -0.6120  -23.9510 C   0  0  0  0  0  0  0  0  0  0  0  0
  -12.5380    0.1110  -24.3540 O   0  0  0  0  0  0  0  0  0  0  0  0
  -11.8760   -1.6840  -22.9380 C   0  0  0  0  0  0  0  0  0  0  0  0
  -13.1920   -1.8570  -22.5090 C   0  0  0  0  0  0  0  0  0  0  0  0
  -13.5100   -2.8680  -21.6260 C   0  0  0  0  0  0  0  0  0  0  0  0
  -12.4850   -3.7080  -21.2130 C   0  0  0  0  0  0  0  0  0  0  0  0
  -12.7630   -4.6550  -20.3010 F   0  0  0  0  0  0  0  0  0  0  0  0
  -11.1750   -3.5560  -21.6170 C   0  0  0  0  0  0  0  0  0  0  0  0
  -10.8250   -2.4800  -22.4390 C   0  0  0  0  0  0  0  0  0  0  0  0
  -10.4470   -4.2360  -21.1920 H   0  0  0  0  0  0  0  0  0  0  0  0
  -14.5150   -3.0600  -21.2710 H   0  0  0  0  0  0  0  0  0  0  0  0
  -13.9440   -1.1550  -22.8620 H   0  0  0  0  0  0  0  0  0  0  0  0
   -8.3300   -0.9470  -24.1940 H   0  0  0  0  0  0  0  0  0  0  0  0
   -9.3590   -2.2620  -24.8350 H   0  0  0  0  0  0  0  0  0  0  0  0
   -6.4820   -2.1680  -23.0200 H   0  0  0  0  0  0  0  0  0  0  0  0
   -6.3530   -3.0490  -21.4940 H   0  0  0  0  0  0  0  0  0  0  0  0
   -8.6000   -3.8530  -21.7010 H   0  0  0  0  0  0  0  0  0  0  0  0
   -7.4070   -4.9230  -23.5760 H   0  0  0  0  0  0  0  0  0  0  0  0
   -9.0230   -4.5150  -24.1630 H   0  0  0  0  0  0  0  0  0  0  0  0
   -7.6470   -3.5040  -24.5860 H   0  0  0  0  0  0  0  0  0  0  0  0
  1  2  1  0  0  0  0
  1 55  1  0  0  0  0
  1 56  1  0  0  0  0
  1 57  1  0  0  0  0
  2  3  1  0  0  0  0
  2 23  1  0  0  0  0
  2 54  1  1  0  0  0
  3  4  1  0  0  0  0
  3 52  1  0  0  0  0
  3 53  1  0  0  0  0
  4  5  1  0  0  0  0
  4 21  1  0  0  0  0
  5  6  2  0  0  0  0
  5 14  1  0  0  0  0
  6  7  1  0  0  0  0
  6 20  1  0  0  0  0
  7  8  2  0  0  0  0
  8  9  1  0  0  0  0
  8 19  1  0  0  0  0
  9 10  2  0  0  0  0
  9 14  1  0  0  0  0
 10 11  1  0  0  0  0
 10 18  1  0  0  0  0
 11 12  2  0  0  0  0
 11 17  1  0  0  0  0
 12 13  1  0  0  0  0
 12 16  1  0  0  0  0
 13 14  2  0  0  0  0
 13 15  1  0  0  0  0
 21 22  2  0  0  0  0
 23 21  1  1  0  0  0
 23 24  1  0  0  0  0
 23 46  1  0  0  0  0
 24 25  1  0  0  0  0
 24 50  1  0  0  0  0
 24 51  1  0  0  0  0
 25 26  1  0  0  0  0
 25 38  1  0  0  0  0
 26 27  1  0  0  0  0
 26 36  1  0  0  0  0
 26 37  1  0  0  0  0
 27 28  2  0  0  0  0
 27 31  1  0  0  0  0
 28 29  1  0  0  0  0
 29 30  2  0  0  0  0
 30 31  1  0  0  0  0
 31 32  1  0  0  0  0
 32 33  1  0  0  0  0
 32 34  1  0  0  0  0
 32 35  1  0  0  0  0
 38 39  2  0  0  0  0
 38 40  1  0  0  0  0
 40 41  2  0  0  0  0
 40 46  1  0  0  0  0
 41 42  1  0  0  0  0
 41 49  1  0  0  0  0
 42 43  2  0  0  0  0
 42 48  1  0  0  0  0
 43 44  1  0  0  0  0
 43 45  1  0  0  0  0
 45 46  2  0  0  0  0
 45 47  1  0  0  0  0
M  END
>  <MODEL>
       1

$$$$
