tmp_first_model_12_18.pdb
 OpenBabel08272523333D

 56 61  0  0  1  0  0  0  0  0999 V2000
  -10.2040   -2.9500  -22.0440 C   0  0  0  0  0  0  0  0  0  0  0  0
   -9.1620   -1.9980  -22.6550 C   0  0  1  0  0  0  0  0  0  0  0  0
   -8.7260   -0.9430  -21.6130 C   0  0  0  0  0  0  0  0  0  0  0  0
   -7.4150   -1.3800  -21.1940 N   0  0  0  0  0  0  0  0  0  0  0  0
   -6.6600   -0.7600  -20.1670 C   0  0  0  0  0  0  0  0  0  0  0  0
   -6.9560   -1.0200  -18.8540 C   0  0  0  0  0  0  0  0  0  0  0  0
   -6.2500   -0.5460  -17.7990 N   0  0  0  0  0  0  0  0  0  0  0  0
   -5.2150    0.2160  -18.0620 C   0  0  0  0  0  0  0  0  0  0  0  0
   -4.8080    0.5780  -19.3780 C   0  0  0  0  0  0  0  0  0  0  0  0
   -3.6760    1.4040  -19.6010 C   0  0  0  0  0  0  0  0  0  0  0  0
   -3.3450    1.7990  -20.8680 C   0  0  0  0  0  0  0  0  0  0  0  0
   -4.1390    1.3930  -21.9670 C   0  0  0  0  0  0  0  0  0  0  0  0
   -5.2240    0.5700  -21.7820 C   0  0  0  0  0  0  0  0  0  0  0  0
   -5.5690    0.1160  -20.4740 C   0  0  0  0  0  0  0  0  0  0  0  0
   -5.8180    0.2560  -22.6400 H   0  0  0  0  0  0  0  0  0  0  0  0
   -3.8720    1.7270  -22.9650 H   0  0  0  0  0  0  0  0  0  0  0  0
   -2.4820    2.4360  -21.0380 H   0  0  0  0  0  0  0  0  0  0  0  0
   -3.0950    1.7260  -18.7400 H   0  0  0  0  0  0  0  0  0  0  0  0
   -4.6430    0.5930  -17.2140 H   0  0  0  0  0  0  0  0  0  0  0  0
   -7.7950   -1.6700  -18.6120 H   0  0  0  0  0  0  0  0  0  0  0  0
   -6.8420   -2.3350  -22.0050 C   0  0  0  0  0  0  0  0  0  0  0  0
   -5.7360   -2.7930  -21.8320 O   0  0  0  0  0  0  0  0  0  0  0  0
   -7.8310   -2.6750  -23.1460 C   0  0  1  0  0  0  0  0  0  0  0  0
   -7.9780   -4.2080  -23.3440 C   0  0  0  0  0  0  0  0  0  0  0  0
   -6.8070   -4.8370  -23.9410 N   0  0  0  0  0  0  0  0  0  0  0  0
   -6.4100   -6.1920  -23.5420 C   0  0  0  0  0  0  0  0  0  0  0  0
   -5.3570   -6.1790  -22.5290 C   0  0  0  0  0  0  0  0  0  0  0  0
   -3.8400   -6.2760  -22.8530 C   0  0  0  0  0  0  0  0  0  0  0  0
   -3.9940   -6.1410  -23.0440 C   0  0  0  0  0  0  0  0  0  0  0  0
   -4.8170   -5.8590  -20.4400 N   0  0  0  0  0  0  0  0  0  0  0  0
   -5.7890   -6.0460  -21.2370 N   0  0  0  0  0  0  0  0  0  0  0  0
   -5.2250   -5.6900  -19.5110 H   0  0  0  0  0  0  0  0  0  0  0  0
   -1.7110   -5.5050  -23.6840 H   0  0  0  0  0  0  0  0  0  0  0  0
   -2.9990   -5.7580  -23.5070 H   0  0  0  0  0  0  0  0  0  0  0  0
   -7.2900   -6.6820  -23.1200 H   0  0  0  0  0  0  0  0  0  0  0  0
   -6.1220   -6.7360  -24.4460 H   0  0  0  0  0  0  0  0  0  0  0  0
   -6.2260   -4.3120  -25.0610 C   0  0  0  0  0  0  0  0  0  0  0  0
   -5.4670   -4.9710  -25.7610 O   0  0  0  0  0  0  0  0  0  0  0  0
   -6.5700   -2.8730  -25.3570 C   0  0  0  0  0  0  0  0  0  0  0  0
   -6.0720   -2.3260  -26.5390 C   0  0  0  0  0  0  0  0  0  0  0  0
   -6.2950   -1.0010  -26.8630 C   0  0  0  0  0  0  0  0  0  0  0  0
   -7.0140   -0.2290  -25.9610 C   0  0  0  0  0  0  0  0  0  0  0  0
   -7.2350    1.0630  -26.2620 F   0  0  0  0  0  0  0  0  0  0  0  0
   -7.5130   -0.7370  -24.7750 C   0  0  0  0  0  0  0  0  0  0  0  0
   -7.3150   -2.0910  -24.4630 C   0  0  0  0  0  0  0  0  0  0  0  0
   -8.0620   -0.0580  -24.1280 H   0  0  0  0  0  0  0  0  0  0  0  0
   -5.9240   -0.5540  -27.7790 H   0  0  0  0  0  0  0  0  0  0  0  0
   -5.4950   -2.9730  -27.1890 H   0  0  0  0  0  0  0  0  0  0  0  0
   -8.8420   -4.3750  -24.0030 H   0  0  0  0  0  0  0  0  0  0  0  0
   -8.1840   -4.6910  -22.3870 H   0  0  0  0  0  0  0  0  0  0  0  0
   -9.4100   -0.9120  -20.7650 H   0  0  0  0  0  0  0  0  0  0  0  0
   -8.6980    0.0750  -22.0290 H   0  0  0  0  0  0  0  0  0  0  0  0
   -9.6500   -1.5120  -23.5060 H   0  0  0  0  0  0  0  0  0  0  0  0
  -11.0710   -2.3840  -21.6830 H   0  0  0  0  0  0  0  0  0  0  0  0
   -9.7980   -3.5080  -21.1940 H   0  0  0  0  0  0  0  0  0  0  0  0
  -10.5770   -3.6680  -22.7810 H   0  0  0  0  0  0  0  0  0  0  0  0
  1  2  1  0  0  0  0
  1 54  1  0  0  0  0
  1 55  1  0  0  0  0
  1 56  1  0  0  0  0
  2  3  1  0  0  0  0
  2 23  1  0  0  0  0
  2 53  1  6  0  0  0
  3  4  1  0  0  0  0
  3 51  1  0  0  0  0
  3 52  1  0  0  0  0
  4  5  1  0  0  0  0
  4 21  1  0  0  0  0
  5  6  2  0  0  0  0
  5 14  1  0  0  0  0
  6  7  1  0  0  0  0
  6 20  1  0  0  0  0
  7  8  2  0  0  0  0
  8  9  1  0  0  0  0
  8 19  1  0  0  0  0
  9 10  2  0  0  0  0
  9 14  1  0  0  0  0
 10 11  1  0  0  0  0
 10 18  1  0  0  0  0
 11 12  2  0  0  0  0
 11 17  1  0  0  0  0
 12 13  1  0  0  0  0
 12 16  1  0  0  0  0
 13 14  2  0  0  0  0
 13 15  1  0  0  0  0
 21 22  2  0  0  0  0
 23 21  1  1  0  0  0
 23 24  1  0  0  0  0
 23 45  1  0  0  0  0
 24 25  1  0  0  0  0
 24 49  1  0  0  0  0
 24 50  1  0  0  0  0
 25 26  1  0  0  0  0
 25 37  1  0  0  0  0
 26 27  1  0  0  0  0
 26 35  1  0  0  0  0
 26 36  1  0  0  0  0
 27 28  1  0  0  0  0
 27 31  2  0  0  0  0
 28 29  2  0  0  0  0
 28 34  1  0  0  0  0
 29 30  1  0  0  0  0
 29 33  1  0  0  0  0
 30 31  1  0  0  0  0
 30 32  1  0  0  0  0
 37 38  2  0  0  0  0
 37 39  1  0  0  0  0
 39 40  2  0  0  0  0
 39 45  1  0  0  0  0
 40 41  1  0  0  0  0
 40 48  1  0  0  0  0
 41 42  2  0  0  0  0
 41 47  1  0  0  0  0
 42 43  1  0  0  0  0
 42 44  1  0  0  0  0
 44 45  2  0  0  0  0
 44 46  1  0  0  0  0
M  END
>  <MODEL>
       1

$$$$
