tmp_first_model_15_76.pdb
 OpenBabel08282501153D

 66 71  0  0  1  0  0  0  0  0999 V2000
   -8.1950   -3.4710  -24.1020 C   0  0  0  0  0  0  0  0  0  0  0  0
   -8.4670   -2.7350  -22.7820 C   0  0  1  0  0  0  0  0  0  0  0  0
   -7.1830   -2.5240  -21.9490 C   0  0  0  0  0  0  0  0  0  0  0  0
   -7.4550   -1.3160  -21.1910 N   0  0  0  0  0  0  0  0  0  0  0  0
   -6.6160   -0.7940  -20.1670 C   0  0  0  0  0  0  0  0  0  0  0  0
   -6.9150   -1.0380  -18.8530 C   0  0  0  0  0  0  0  0  0  0  0  0
   -6.2040   -0.5570  -17.8040 N   0  0  0  0  0  0  0  0  0  0  0  0
   -5.1720    0.2060  -18.0770 C   0  0  0  0  0  0  0  0  0  0  0  0
   -4.7410    0.5380  -19.3940 C   0  0  0  0  0  0  0  0  0  0  0  0
   -3.6220    1.3820  -19.6410 C   0  0  0  0  0  0  0  0  0  0  0  0
   -3.2400    1.6780  -20.9210 C   0  0  0  0  0  0  0  0  0  0  0  0
   -3.9480    1.1360  -22.0160 C   0  0  0  0  0  0  0  0  0  0  0  0
   -5.0330    0.3150  -21.8030 C   0  0  0  0  0  0  0  0  0  0  0  0
   -5.4740    0.0080  -20.4850 C   0  0  0  0  0  0  0  0  0  0  0  0
   -5.5640   -0.0980  -22.6560 H   0  0  0  0  0  0  0  0  0  0  0  0
   -3.6430    1.3840  -23.0280 H   0  0  0  0  0  0  0  0  0  0  0  0
   -2.3960    2.3410  -21.1010 H   0  0  0  0  0  0  0  0  0  0  0  0
   -3.0950    1.7960  -18.7850 H   0  0  0  0  0  0  0  0  0  0  0  0
   -4.6200    0.6110  -17.2270 H   0  0  0  0  0  0  0  0  0  0  0  0
   -7.7710   -1.6610  -18.5980 H   0  0  0  0  0  0  0  0  0  0  0  0
   -8.5320   -0.5950  -21.6470 C   0  0  0  0  0  0  0  0  0  0  0  0
   -8.9180    0.4510  -21.1570 O   0  0  0  0  0  0  0  0  0  0  0  0
   -9.1330   -1.3230  -22.8750 C   0  0  1  0  0  0  0  0  0  0  0  0
   -8.7130   -0.5880  -24.1700 C   0  0  0  0  0  0  0  0  0  0  0  0
   -9.3130    0.7280  -24.2660 N   0  0  0  0  0  0  0  0  0  0  0  0
   -8.5150    1.7820  -24.8660 C   0  0  0  0  0  0  0  0  0  0  0  0
   -7.5510    2.4160  -23.8730 C   0  0  0  0  0  0  0  0  0  0  0  0
   -8.2790    3.2250  -22.8490 N   0  3  0  0  0  0  0  0  0  0  0  0
   -7.4980    3.3320  -21.5910 C   0  0  0  0  0  0  0  0  0  0  0  0
   -6.3340    4.3060  -21.6400 C   0  0  0  0  0  0  0  0  0  0  0  0
   -6.8010    5.5990  -21.9570 O   0  0  0  0  0  0  0  0  0  0  0  0
   -7.4380    5.5950  -23.2170 C   0  0  0  0  0  0  0  0  0  0  0  0
   -8.6430    4.6480  -23.2610 C   0  0  0  0  0  0  0  0  0  0  0  0
   -9.3990    4.9990  -22.5530 H   0  0  0  0  0  0  0  0  0  0  0  0
   -9.0710    4.6260  -24.2650 H   0  0  0  0  0  0  0  0  0  0  0  0
   -6.7110    5.3080  -23.9900 H   0  0  0  0  0  0  0  0  0  0  0  0
   -7.7620    6.6220  -23.3950 H   0  0  0  0  0  0  0  0  0  0  0  0
   -5.8850    4.3690  -20.6450 H   0  0  0  0  0  0  0  0  0  0  0  0
   -5.5650    3.9730  -22.3580 H   0  0  0  0  0  0  0  0  0  0  0  0
   -7.1650    2.3280  -21.3100 H   0  0  0  0  0  0  0  0  0  0  0  0
   -8.1940    3.7140  -20.8410 H   0  0  0  0  0  0  0  0  0  0  0  0
   -9.1390    2.7010  -22.5870 H   0  0  0  0  0  0  0  0  0  0  0  0
   -6.9900    1.6450  -23.3300 H   0  0  0  0  0  0  0  0  0  0  0  0
   -6.8280    3.0520  -24.3880 H   0  0  0  0  0  0  0  0  0  0  0  0
   -7.9370    1.3730  -25.7010 H   0  0  0  0  0  0  0  0  0  0  0  0
   -9.2120    2.5300  -25.2400 H   0  0  0  0  0  0  0  0  0  0  0  0
  -10.6610    0.8880  -24.1000 C   0  0  0  0  0  0  0  0  0  0  0  0
  -11.2640    1.8920  -24.4640 O   0  0  0  0  0  0  0  0  0  0  0  0
  -11.3670   -0.2360  -23.3910 C   0  0  0  0  0  0  0  0  0  0  0  0
  -12.7550   -0.1730  -23.2890 C   0  0  0  0  0  0  0  0  0  0  0  0
  -13.4450   -1.1140  -22.5500 C   0  0  0  0  0  0  0  0  0  0  0  0
  -12.7270   -2.1120  -21.8920 C   0  0  0  0  0  0  0  0  0  0  0  0
  -13.5800   -3.2460  -20.8860 Cl  0  0  0  0  0  0  0  0  0  0  0  0
  -11.3510   -2.1960  -21.9940 C   0  0  0  0  0  0  0  0  0  0  0  0
  -10.6500   -1.2830  -22.7900 C   0  0  0  0  0  0  0  0  0  0  0  0
  -10.8400   -2.9590  -21.4160 H   0  0  0  0  0  0  0  0  0  0  0  0
  -14.5220   -1.0700  -22.4480 H   0  0  0  0  0  0  0  0  0  0  0  0
  -13.2600    0.6500  -23.7860 H   0  0  0  0  0  0  0  0  0  0  0  0
   -7.6260   -0.4610  -24.1820 H   0  0  0  0  0  0  0  0  0  0  0  0
   -9.0080   -1.2070  -25.0340 H   0  0  0  0  0  0  0  0  0  0  0  0
   -6.9760   -3.3650  -21.2750 H   0  0  0  0  0  0  0  0  0  0  0  0
   -6.3030   -2.4030  -22.5990 H   0  0  0  0  0  0  0  0  0  0  0  0
   -9.1450   -3.3490  -22.1850 H   0  0  0  0  0  0  0  0  0  0  0  0
   -9.1010   -3.5770  -24.7110 H   0  0  0  0  0  0  0  0  0  0  0  0
   -7.4480   -2.9410  -24.7070 H   0  0  0  0  0  0  0  0  0  0  0  0
   -7.8020   -4.4770  -23.9150 H   0  0  0  0  0  0  0  0  0  0  0  0
  1  2  1  0  0  0  0
  1 64  1  0  0  0  0
  1 65  1  0  0  0  0
  1 66  1  0  0  0  0
  2  3  1  0  0  0  0
  2 23  1  0  0  0  0
  2 63  1  1  0  0  0
  3  4  1  0  0  0  0
  3 61  1  0  0  0  0
  3 62  1  0  0  0  0
  4  5  1  0  0  0  0
  4 21  1  0  0  0  0
  5  6  2  0  0  0  0
  5 14  1  0  0  0  0
  6  7  1  0  0  0  0
  6 20  1  0  0  0  0
  7  8  2  0  0  0  0
  8  9  1  0  0  0  0
  8 19  1  0  0  0  0
  9 10  2  0  0  0  0
  9 14  1  0  0  0  0
 10 11  1  0  0  0  0
 10 18  1  0  0  0  0
 11 12  2  0  0  0  0
 11 17  1  0  0  0  0
 12 13  1  0  0  0  0
 12 16  1  0  0  0  0
 13 14  2  0  0  0  0
 13 15  1  0  0  0  0
 21 22  2  0  0  0  0
 23 21  1  1  0  0  0
 23 24  1  0  0  0  0
 23 55  1  0  0  0  0
 24 25  1  0  0  0  0
 24 59  1  0  0  0  0
 24 60  1  0  0  0  0
 25 26  1  0  0  0  0
 25 47  1  0  0  0  0
 26 27  1  0  0  0  0
 26 45  1  0  0  0  0
 26 46  1  0  0  0  0
 27 28  1  0  0  0  0
 27 43  1  0  0  0  0
 27 44  1  0  0  0  0
 28 29  1  0  0  0  0
 28 33  1  0  0  0  0
 28 42  1  0  0  0  0
 29 30  1  0  0  0  0
 29 40  1  0  0  0  0
 29 41  1  0  0  0  0
 30 31  1  0  0  0  0
 30 38  1  0  0  0  0
 30 39  1  0  0  0  0
 31 32  1  0  0  0  0
 32 33  1  0  0  0  0
 32 36  1  0  0  0  0
 32 37  1  0  0  0  0
 33 34  1  0  0  0  0
 33 35  1  0  0  0  0
 47 48  2  0  0  0  0
 47 49  1  0  0  0  0
 49 50  2  0  0  0  0
 49 55  1  0  0  0  0
 50 51  1  0  0  0  0
 50 58  1  0  0  0  0
 51 52  2  0  0  0  0
 51 57  1  0  0  0  0
 52 53  1  0  0  0  0
 52 54  1  0  0  0  0
 54 55  2  0  0  0  0
 54 56  1  0  0  0  0
M  CHG  1  28   1
M  END
>  <MODEL>
       1

$$$$
