tmp_first_model_20_70.pdb
 OpenBabel08282503553D

 52 54  0  0  0  0  0  0  0  0999 V2000
   -6.3720   -6.8980  -26.9830 C   0  0  0  0  0  0  0  0  0  0  0  0
   -5.9400   -5.7180  -26.1090 C   0  0  0  0  0  0  0  0  0  0  0  0
   -4.7390   -5.0150  -26.7460 C   0  0  0  0  0  0  0  0  0  0  0  0
   -4.3640   -4.1970  -26.1220 H   0  0  0  0  0  0  0  0  0  0  0  0
   -3.9080   -5.7130  -26.9010 H   0  0  0  0  0  0  0  0  0  0  0  0
   -4.9940   -4.5990  -27.7270 H   0  0  0  0  0  0  0  0  0  0  0  0
   -7.0560   -4.6930  -25.8290 C   0  0  0  0  0  0  0  0  0  0  0  0
   -8.3030   -5.0830  -24.9890 C   0  0  0  0  0  0  0  0  0  0  0  0
   -9.2710   -5.9590  -25.8020 C   0  0  0  0  0  0  0  0  0  0  0  0
   -9.5080   -5.4990  -26.7690 H   0  0  0  0  0  0  0  0  0  0  0  0
   -8.8830   -6.9620  -26.0010 H   0  0  0  0  0  0  0  0  0  0  0  0
  -10.2200   -6.0940  -25.2700 H   0  0  0  0  0  0  0  0  0  0  0  0
   -9.0540   -3.7820  -24.5750 C   0  0  0  0  0  0  0  0  0  0  0  0
   -8.8700   -3.3510  -23.1080 C   0  0  0  0  0  0  0  0  0  0  0  0
   -7.5320   -3.6180  -22.5980 N   0  0  0  0  0  0  0  0  0  0  0  0
   -6.7710   -2.7610  -21.8400 C   0  0  0  0  0  0  0  0  0  0  0  0
   -5.6000   -3.0090  -21.6000 O   0  0  0  0  0  0  0  0  0  0  0  0
   -7.4200   -1.4770  -21.2620 C   0  0  0  0  0  0  0  0  0  0  0  0
   -6.5800   -0.8310  -20.1820 C   0  0  0  0  0  0  0  0  0  0  0  0
   -6.8740   -1.0430  -18.8590 C   0  0  0  0  0  0  0  0  0  0  0  0
   -6.1930   -0.5390  -17.7960 N   0  0  0  0  0  0  0  0  0  0  0  0
   -5.1570    0.2210  -18.0640 C   0  0  0  0  0  0  0  0  0  0  0  0
   -4.7210    0.5300  -19.3820 C   0  0  0  0  0  0  0  0  0  0  0  0
   -3.5910    1.3580  -19.6200 C   0  0  0  0  0  0  0  0  0  0  0  0
   -3.1890    1.6330  -20.9000 C   0  0  0  0  0  0  0  0  0  0  0  0
   -3.8990    1.0870  -21.9920 C   0  0  0  0  0  0  0  0  0  0  0  0
   -4.9970    0.2860  -21.7870 C   0  0  0  0  0  0  0  0  0  0  0  0
   -5.4440   -0.0120  -20.4720 C   0  0  0  0  0  0  0  0  0  0  0  0
   -5.5240   -0.1320  -22.6370 H   0  0  0  0  0  0  0  0  0  0  0  0
   -3.5740    1.3120  -23.0040 H   0  0  0  0  0  0  0  0  0  0  0  0
   -2.3280    2.2700  -21.0870 H   0  0  0  0  0  0  0  0  0  0  0  0
   -3.0510    1.7720  -18.7720 H   0  0  0  0  0  0  0  0  0  0  0  0
   -4.6000    0.6270  -17.2170 H   0  0  0  0  0  0  0  0  0  0  0  0
   -7.7210   -1.6700  -18.5860 H   0  0  0  0  0  0  0  0  0  0  0  0
   -8.4070   -1.7220  -20.8430 H   0  0  0  0  0  0  0  0  0  0  0  0
   -7.6020   -0.7570  -22.0730 H   0  0  0  0  0  0  0  0  0  0  0  0
   -7.0230   -4.9830  -22.7740 C   0  0  0  0  0  0  0  0  0  0  0  0
   -7.8990   -5.8140  -23.7080 C   0  0  0  0  0  0  0  0  0  0  0  0
   -7.3970   -6.7590  -23.9470 H   0  0  0  0  0  0  0  0  0  0  0  0
   -8.8000   -6.1240  -23.1860 H   0  0  0  0  0  0  0  0  0  0  0  0
   -6.9500   -5.4840  -21.8000 H   0  0  0  0  0  0  0  0  0  0  0  0
   -6.0020   -4.9410  -23.1650 H   0  0  0  0  0  0  0  0  0  0  0  0
   -9.0760   -2.2830  -23.0310 H   0  0  0  0  0  0  0  0  0  0  0  0
   -9.6220   -3.8560  -22.4870 H   0  0  0  0  0  0  0  0  0  0  0  0
  -10.1320   -3.8940  -24.7410 H   0  0  0  0  0  0  0  0  0  0  0  0
   -8.7560   -2.9620  -25.2350 H   0  0  0  0  0  0  0  0  0  0  0  0
   -7.4100   -4.3110  -26.7970 H   0  0  0  0  0  0  0  0  0  0  0  0
   -6.5910   -3.8240  -25.3450 H   0  0  0  0  0  0  0  0  0  0  0  0
   -5.5890   -6.1220  -25.1550 H   0  0  0  0  0  0  0  0  0  0  0  0
   -5.5100   -7.3790  -27.4580 H   0  0  0  0  0  0  0  0  0  0  0  0
   -7.0390   -6.5750  -27.7880 H   0  0  0  0  0  0  0  0  0  0  0  0
   -6.8940   -7.6720  -26.4150 H   0  0  0  0  0  0  0  0  0  0  0  0
  1  2  1  0  0  0  0
  1 50  1  0  0  0  0
  1 51  1  0  0  0  0
  1 52  1  0  0  0  0
  2  3  1  0  0  0  0
  2  7  1  0  0  0  0
  2 49  1  0  0  0  0
  3  4  1  0  0  0  0
  3  5  1  0  0  0  0
  3  6  1  0  0  0  0
  7  8  1  0  0  0  0
  7 47  1  0  0  0  0
  7 48  1  0  0  0  0
  8  9  1  0  0  0  0
  8 13  1  0  0  0  0
  8 38  1  0  0  0  0
  9 10  1  0  0  0  0
  9 11  1  0  0  0  0
  9 12  1  0  0  0  0
 13 14  1  0  0  0  0
 13 45  1  0  0  0  0
 13 46  1  0  0  0  0
 14 15  1  0  0  0  0
 14 43  1  0  0  0  0
 14 44  1  0  0  0  0
 15 16  1  0  0  0  0
 15 37  1  0  0  0  0
 16 17  2  0  0  0  0
 16 18  1  0  0  0  0
 18 19  1  0  0  0  0
 18 35  1  0  0  0  0
 18 36  1  0  0  0  0
 19 20  2  0  0  0  0
 19 28  1  0  0  0  0
 20 21  1  0  0  0  0
 20 34  1  0  0  0  0
 21 22  2  0  0  0  0
 22 23  1  0  0  0  0
 22 33  1  0  0  0  0
 23 24  2  0  0  0  0
 23 28  1  0  0  0  0
 24 25  1  0  0  0  0
 24 32  1  0  0  0  0
 25 26  2  0  0  0  0
 25 31  1  0  0  0  0
 26 27  1  0  0  0  0
 26 30  1  0  0  0  0
 27 28  2  0  0  0  0
 27 29  1  0  0  0  0
 37 38  1  0  0  0  0
 37 41  1  0  0  0  0
 37 42  1  0  0  0  0
 38 39  1  0  0  0  0
 38 40  1  0  0  0  0
M  END
>  <MODEL>
       1

$$$$
