tmp_first_model_13_62.pdb
 OpenBabel08282500103D

 44 47  0  0  0  0  0  0  0  0999 V2000
   -5.5920   -3.0340  -21.6150 O   0  0  0  0  0  0  0  0  0  0  0  0
   -6.7870   -2.8220  -21.7550 C   0  0  0  0  0  0  0  0  0  0  0  0
   -7.4070   -1.4970  -21.2670 C   0  0  0  0  0  0  0  0  0  0  0  0
   -6.5790   -0.8350  -20.1860 C   0  0  0  0  0  0  0  0  0  0  0  0
   -6.8770   -1.0490  -18.8640 C   0  0  0  0  0  0  0  0  0  0  0  0
   -6.1900   -0.5400  -17.8090 N   0  0  0  0  0  0  0  0  0  0  0  0
   -5.1570    0.2180  -18.0750 C   0  0  0  0  0  0  0  0  0  0  0  0
   -4.7200    0.5270  -19.3900 C   0  0  0  0  0  0  0  0  0  0  0  0
   -3.5930    1.3550  -19.6240 C   0  0  0  0  0  0  0  0  0  0  0  0
   -3.1920    1.6300  -20.9050 C   0  0  0  0  0  0  0  0  0  0  0  0
   -3.8990    1.0830  -21.9970 C   0  0  0  0  0  0  0  0  0  0  0  0
   -4.9930    0.2750  -21.7930 C   0  0  0  0  0  0  0  0  0  0  0  0
   -5.4430   -0.0190  -20.4780 C   0  0  0  0  0  0  0  0  0  0  0  0
   -5.5150   -0.1540  -22.6410 H   0  0  0  0  0  0  0  0  0  0  0  0
   -3.5800    1.3050  -23.0110 H   0  0  0  0  0  0  0  0  0  0  0  0
   -2.3340    2.2730  -21.0820 H   0  0  0  0  0  0  0  0  0  0  0  0
   -3.0710    1.7650  -18.7640 H   0  0  0  0  0  0  0  0  0  0  0  0
   -4.6090    0.6280  -17.2240 H   0  0  0  0  0  0  0  0  0  0  0  0
   -7.7280   -1.6710  -18.5840 H   0  0  0  0  0  0  0  0  0  0  0  0
   -7.5570   -0.8230  -22.1220 H   0  0  0  0  0  0  0  0  0  0  0  0
   -8.4070   -1.7130  -20.8670 H   0  0  0  0  0  0  0  0  0  0  0  0
   -7.6200   -3.7660  -22.3110 N   0  0  0  0  0  0  0  0  0  0  0  0
   -7.2470   -5.1680  -22.1520 C   0  0  0  0  0  0  0  0  0  0  0  0
   -7.5100   -5.9840  -23.4080 C   0  0  0  0  0  0  0  0  0  0  0  0
   -8.9640   -5.8300  -23.8660 C   0  0  0  0  0  0  0  0  0  0  0  0
   -9.2140   -6.7370  -25.0680 C   0  0  0  0  0  0  0  0  0  0  0  0
   -8.5290   -6.4440  -26.3760 C   0  0  0  0  0  0  0  0  0  0  0  0
  -10.0280   -6.2870  -26.2370 C   0  0  0  0  0  0  0  0  0  0  0  0
  -10.6640   -6.9970  -26.7590 H   0  0  0  0  0  0  0  0  0  0  0  0
  -10.4750   -5.2940  -26.1780 H   0  0  0  0  0  0  0  0  0  0  0  0
   -7.8860   -5.5660  -26.4610 H   0  0  0  0  0  0  0  0  0  0  0  0
   -8.1410   -7.2830  -26.9480 H   0  0  0  0  0  0  0  0  0  0  0  0
   -9.3110   -7.7910  -24.7900 H   0  0  0  0  0  0  0  0  0  0  0  0
   -9.2600   -4.3350  -24.0730 C   0  0  0  0  0  0  0  0  0  0  0  0
   -8.9720   -3.5230  -22.7990 C   0  0  0  0  0  0  0  0  0  0  0  0
   -9.7150   -3.7980  -22.0280 H   0  0  0  0  0  0  0  0  0  0  0  0
   -9.0770   -2.4480  -23.0090 H   0  0  0  0  0  0  0  0  0  0  0  0
  -10.3160   -4.1820  -24.3370 H   0  0  0  0  0  0  0  0  0  0  0  0
   -8.6460   -3.9490  -24.9010 H   0  0  0  0  0  0  0  0  0  0  0  0
   -9.6160   -6.1700  -23.0530 H   0  0  0  0  0  0  0  0  0  0  0  0
   -6.8510   -5.6730  -24.2320 H   0  0  0  0  0  0  0  0  0  0  0  0
   -7.3080   -7.0410  -23.1910 H   0  0  0  0  0  0  0  0  0  0  0  0
   -7.8440   -5.6230  -21.3460 H   0  0  0  0  0  0  0  0  0  0  0  0
   -6.1910   -5.1760  -21.8640 H   0  0  0  0  0  0  0  0  0  0  0  0
  1  2  2  0  0  0  0
  2  3  1  0  0  0  0
  2 22  1  0  0  0  0
  3  4  1  0  0  0  0
  3 20  1  0  0  0  0
  3 21  1  0  0  0  0
  4  5  2  0  0  0  0
  4 13  1  0  0  0  0
  5  6  1  0  0  0  0
  5 19  1  0  0  0  0
  6  7  2  0  0  0  0
  7  8  1  0  0  0  0
  7 18  1  0  0  0  0
  8  9  2  0  0  0  0
  8 13  1  0  0  0  0
  9 10  1  0  0  0  0
  9 17  1  0  0  0  0
 10 11  2  0  0  0  0
 10 16  1  0  0  0  0
 11 12  1  0  0  0  0
 11 15  1  0  0  0  0
 12 13  2  0  0  0  0
 12 14  1  0  0  0  0
 22 23  1  0  0  0  0
 22 35  1  0  0  0  0
 23 24  1  0  0  0  0
 23 43  1  0  0  0  0
 23 44  1  0  0  0  0
 24 25  1  0  0  0  0
 24 41  1  0  0  0  0
 24 42  1  0  0  0  0
 25 26  1  0  0  0  0
 25 34  1  0  0  0  0
 25 40  1  0  0  0  0
 26 27  1  0  0  0  0
 26 28  1  0  0  0  0
 26 33  1  0  0  0  0
 27 28  1  0  0  0  0
 27 31  1  0  0  0  0
 27 32  1  0  0  0  0
 28 29  1  0  0  0  0
 28 30  1  0  0  0  0
 34 35  1  0  0  0  0
 34 38  1  0  0  0  0
 34 39  1  0  0  0  0
 35 36  1  0  0  0  0
 35 37  1  0  0  0  0
M  END
>  <MODEL>
       1

$$$$
