tmp_first_model_15_58.pdb
 OpenBabel08282501153D

 42 45  0  0  1  0  0  0  0  0999 V2000
  -11.1980   -4.6240  -23.6950 C   0  0  0  0  0  0  0  0  0  0  0  0
  -10.1670   -3.6030  -23.7030 N   0  0  0  0  0  0  0  0  0  0  0  0
   -9.4220   -3.1660  -22.5290 C   0  0  0  0  0  0  0  0  0  0  0  0
   -9.3660   -1.6270  -22.5520 C   0  0  1  0  0  0  0  0  0  0  0  0
   -8.6020   -0.9950  -21.4080 C   0  0  0  0  0  0  0  0  0  0  0  0
   -9.0630   -0.0600  -20.7730 O   0  0  0  0  0  0  0  0  0  0  0  0
   -7.3360   -1.4790  -21.1760 N   0  0  0  0  0  0  0  0  0  0  0  0
   -6.5510   -0.8870  -20.1640 C   0  0  0  0  0  0  0  0  0  0  0  0
   -6.9130   -1.0510  -18.8560 C   0  0  0  0  0  0  0  0  0  0  0  0
   -6.2300   -0.5420  -17.8040 N   0  0  0  0  0  0  0  0  0  0  0  0
   -5.1790    0.1960  -18.0690 C   0  0  0  0  0  0  0  0  0  0  0  0
   -4.7340    0.4910  -19.3910 C   0  0  0  0  0  0  0  0  0  0  0  0
   -3.6260    1.3360  -19.6410 C   0  0  0  0  0  0  0  0  0  0  0  0
   -3.2560    1.6340  -20.9210 C   0  0  0  0  0  0  0  0  0  0  0  0
   -3.9830    1.1220  -22.0200 C   0  0  0  0  0  0  0  0  0  0  0  0
   -5.0640    0.3030  -21.8110 C   0  0  0  0  0  0  0  0  0  0  0  0
   -5.4440   -0.0480  -20.4860 C   0  0  0  0  0  0  0  0  0  0  0  0
   -5.6420   -0.0550  -22.6610 H   0  0  0  0  0  0  0  0  0  0  0  0
   -3.6880    1.3910  -23.0310 H   0  0  0  0  0  0  0  0  0  0  0  0
   -2.4090    2.2870  -21.1040 H   0  0  0  0  0  0  0  0  0  0  0  0
   -3.1050    1.7590  -18.7870 H   0  0  0  0  0  0  0  0  0  0  0  0
   -4.6380    0.6220  -17.2200 H   0  0  0  0  0  0  0  0  0  0  0  0
   -7.8010   -1.6320  -18.6210 H   0  0  0  0  0  0  0  0  0  0  0  0
   -6.8750   -2.0570  -21.8650 H   0  0  0  0  0  0  0  0  0  0  0  0
   -8.8230   -1.1550  -23.8940 C   0  0  0  0  0  0  0  0  0  0  0  0
   -8.2210    0.0970  -24.0520 C   0  0  0  0  0  0  0  0  0  0  0  0
   -7.7370    0.4790  -25.2960 C   0  0  0  0  0  0  0  0  0  0  0  0
   -6.9830    2.0410  -25.4520 Cl  0  0  0  0  0  0  0  0  0  0  0  0
   -7.8600   -0.3430  -26.4120 C   0  0  0  0  0  0  0  0  0  0  0  0
   -8.4670   -1.5740  -26.2530 C   0  0  0  0  0  0  0  0  0  0  0  0
   -8.9450   -1.9780  -25.0110 C   0  0  0  0  0  0  0  0  0  0  0  0
   -9.6930   -3.2670  -24.9400 C   0  0  0  0  0  0  0  0  0  0  0  0
   -9.9110   -3.9590  -25.9270 O   0  0  0  0  0  0  0  0  0  0  0  0
   -8.6020   -2.2520  -27.0880 H   0  0  0  0  0  0  0  0  0  0  0  0
   -7.5060   -0.0210  -27.3840 H   0  0  0  0  0  0  0  0  0  0  0  0
   -8.1230    0.7770  -23.2140 H   0  0  0  0  0  0  0  0  0  0  0  0
  -10.3800   -1.2370  -22.4080 H   0  0  0  0  0  0  0  0  0  0  0  0
   -8.4060   -3.5930  -22.5490 H   0  0  0  0  0  0  0  0  0  0  0  0
   -9.9120   -3.5310  -21.6200 H   0  0  0  0  0  0  0  0  0  0  0  0
  -12.0910   -4.2450  -24.1990 H   0  0  0  0  0  0  0  0  0  0  0  0
  -10.8650   -5.5120  -24.2530 H   0  0  0  0  0  0  0  0  0  0  0  0
  -11.4900   -4.8540  -22.6690 H   0  0  0  0  0  0  0  0  0  0  0  0
  1  2  1  0  0  0  0
  1 40  1  0  0  0  0
  1 41  1  0  0  0  0
  1 42  1  0  0  0  0
  2  3  1  0  0  0  0
  2 32  1  0  0  0  0
  3  4  1  0  0  0  0
  3 38  1  0  0  0  0
  3 39  1  0  0  0  0
  4  5  1  0  0  0  0
  4 25  1  0  0  0  0
  4 37  1  1  0  0  0
  5  6  2  0  0  0  0
  5  7  1  0  0  0  0
  7  8  1  0  0  0  0
  7 24  1  0  0  0  0
  8  9  2  0  0  0  0
  8 17  1  0  0  0  0
  9 10  1  0  0  0  0
  9 23  1  0  0  0  0
 10 11  2  0  0  0  0
 11 12  1  0  0  0  0
 11 22  1  0  0  0  0
 12 13  2  0  0  0  0
 12 17  1  0  0  0  0
 13 14  1  0  0  0  0
 13 21  1  0  0  0  0
 14 15  2  0  0  0  0
 14 20  1  0  0  0  0
 15 16  1  0  0  0  0
 15 19  1  0  0  0  0
 16 17  2  0  0  0  0
 16 18  1  0  0  0  0
 25 26  2  0  0  0  0
 25 31  1  0  0  0  0
 26 27  1  0  0  0  0
 26 36  1  0  0  0  0
 27 28  1  0  0  0  0
 27 29  2  0  0  0  0
 29 30  1  0  0  0  0
 29 35  1  0  0  0  0
 30 31  2  0  0  0  0
 30 34  1  0  0  0  0
 31 32  1  0  0  0  0
 32 33  2  0  0  0  0
M  END
>  <MODEL>
       1

$$$$
