tmp_first_model_9_87.pdb
 OpenBabel08272521403D

 59 64  0  0  1  0  0  0  0  0999 V2000
   -7.9450   -3.6830  -24.0250 C   0  0  0  0  0  0  0  0  0  0  0  0
   -8.3350   -2.8440  -22.8000 C   0  0  1  0  0  0  0  0  0  0  0  0
   -7.1510   -2.6480  -21.8280 C   0  0  0  0  0  0  0  0  0  0  0  0
   -7.4270   -1.3730  -21.1930 N   0  0  0  0  0  0  0  0  0  0  0  0
   -6.6090   -0.8030  -20.1770 C   0  0  0  0  0  0  0  0  0  0  0  0
   -6.8990   -1.0470  -18.8610 C   0  0  0  0  0  0  0  0  0  0  0  0
   -6.1880   -0.5560  -17.8170 N   0  0  0  0  0  0  0  0  0  0  0  0
   -5.1610    0.2100  -18.0850 C   0  0  0  0  0  0  0  0  0  0  0  0
   -4.7330    0.5330  -19.4030 C   0  0  0  0  0  0  0  0  0  0  0  0
   -3.6030    1.3630  -19.6410 C   0  0  0  0  0  0  0  0  0  0  0  0
   -3.2110    1.6520  -20.9170 C   0  0  0  0  0  0  0  0  0  0  0  0
   -3.9300    1.1190  -22.0120 C   0  0  0  0  0  0  0  0  0  0  0  0
   -5.0240    0.3150  -21.8110 C   0  0  0  0  0  0  0  0  0  0  0  0
   -5.4690    0.0090  -20.4910 C   0  0  0  0  0  0  0  0  0  0  0  0
   -5.5600   -0.0920  -22.6650 H   0  0  0  0  0  0  0  0  0  0  0  0
   -3.6120    1.3510  -23.0250 H   0  0  0  0  0  0  0  0  0  0  0  0
   -2.3570    2.2990  -21.0970 H   0  0  0  0  0  0  0  0  0  0  0  0
   -3.0760    1.7710  -18.7810 H   0  0  0  0  0  0  0  0  0  0  0  0
   -4.6150    0.6160  -17.2320 H   0  0  0  0  0  0  0  0  0  0  0  0
   -7.7460   -1.6740  -18.5910 H   0  0  0  0  0  0  0  0  0  0  0  0
   -8.3550   -0.6080  -21.8610 C   0  0  0  0  0  0  0  0  0  0  0  0
   -8.6530    0.5280  -21.5370 O   0  0  0  0  0  0  0  0  0  0  0  0
   -8.9000   -1.4060  -23.0660 C   0  0  1  0  0  0  0  0  0  0  0  0
   -8.3320   -0.8020  -24.3760 C   0  0  0  0  0  0  0  0  0  0  0  0
   -8.8790    0.5110  -24.6480 N   0  0  0  0  0  0  0  0  0  0  0  0
   -7.9570    1.6190  -24.8520 C   0  0  0  0  0  0  0  0  0  0  0  0
   -6.9980    1.4100  -25.9860 C   0  0  0  0  0  0  0  0  0  0  0  0
   -5.6380    1.1700  -25.9810 C   0  0  0  0  0  0  0  0  0  0  0  0
   -5.3010    0.9750  -27.3340 C   0  0  0  0  0  0  0  0  0  0  0  0
   -6.3660    1.0950  -28.1170 N   0  0  0  0  0  0  0  0  0  0  0  0
   -7.3840    1.3660  -27.2860 N   0  0  0  0  0  0  0  0  0  0  0  0
   -8.7210    1.5350  -27.8170 C   0  0  0  0  0  0  0  0  0  0  0  0
   -9.1870    2.4380  -27.4060 H   0  0  0  0  0  0  0  0  0  0  0  0
   -8.6200    1.6230  -28.9020 H   0  0  0  0  0  0  0  0  0  0  0  0
   -9.3500    0.6700  -27.5710 H   0  0  0  0  0  0  0  0  0  0  0  0
   -4.3430    0.7350  -27.7850 H   0  0  0  0  0  0  0  0  0  0  0  0
   -5.0130    1.1140  -25.0970 H   0  0  0  0  0  0  0  0  0  0  0  0
   -8.5760    2.5090  -24.9970 H   0  0  0  0  0  0  0  0  0  0  0  0
   -7.3660    1.7560  -23.9340 H   0  0  0  0  0  0  0  0  0  0  0  0
  -10.2270    0.7170  -24.6550 C   0  0  0  0  0  0  0  0  0  0  0  0
  -10.7540    1.6770  -25.2120 O   0  0  0  0  0  0  0  0  0  0  0  0
  -11.0350   -0.3020  -23.9100 C   0  0  0  0  0  0  0  0  0  0  0  0
  -12.4250   -0.1850  -23.9520 C   0  0  0  0  0  0  0  0  0  0  0  0
  -13.2190   -0.9960  -23.1670 C   0  0  0  0  0  0  0  0  0  0  0  0
  -12.5930   -1.9000  -22.3170 C   0  0  0  0  0  0  0  0  0  0  0  0
  -13.3550   -2.6540  -21.5060 F   0  0  0  0  0  0  0  0  0  0  0  0
  -11.2210   -2.0480  -22.2660 C   0  0  0  0  0  0  0  0  0  0  0  0
  -10.4150   -1.2820  -23.1160 C   0  0  0  0  0  0  0  0  0  0  0  0
  -10.8120   -2.7390  -21.5370 H   0  0  0  0  0  0  0  0  0  0  0  0
  -14.3010   -0.9230  -23.1670 H   0  0  0  0  0  0  0  0  0  0  0  0
  -12.8500    0.5800  -24.5920 H   0  0  0  0  0  0  0  0  0  0  0  0
   -7.2480   -0.7010  -24.2880 H   0  0  0  0  0  0  0  0  0  0  0  0
   -8.5640   -1.4730  -25.2170 H   0  0  0  0  0  0  0  0  0  0  0  0
   -6.1930   -2.6330  -22.3730 H   0  0  0  0  0  0  0  0  0  0  0  0
   -7.0810   -3.4430  -21.0770 H   0  0  0  0  0  0  0  0  0  0  0  0
   -9.1190   -3.3810  -22.2600 H   0  0  0  0  0  0  0  0  0  0  0  0
   -8.7750   -3.7880  -24.7340 H   0  0  0  0  0  0  0  0  0  0  0  0
   -7.1030   -3.2330  -24.5660 H   0  0  0  0  0  0  0  0  0  0  0  0
   -7.6340   -4.6920  -23.7260 H   0  0  0  0  0  0  0  0  0  0  0  0
  1  2  1  0  0  0  0
  1 57  1  0  0  0  0
  1 58  1  0  0  0  0
  1 59  1  0  0  0  0
  2  3  1  0  0  0  0
  2 23  1  0  0  0  0
  2 56  1  1  0  0  0
  3  4  1  0  0  0  0
  3 54  1  0  0  0  0
  3 55  1  0  0  0  0
  4  5  1  0  0  0  0
  4 21  1  0  0  0  0
  5  6  2  0  0  0  0
  5 14  1  0  0  0  0
  6  7  1  0  0  0  0
  6 20  1  0  0  0  0
  7  8  2  0  0  0  0
  8  9  1  0  0  0  0
  8 19  1  0  0  0  0
  9 10  2  0  0  0  0
  9 14  1  0  0  0  0
 10 11  1  0  0  0  0
 10 18  1  0  0  0  0
 11 12  2  0  0  0  0
 11 17  1  0  0  0  0
 12 13  1  0  0  0  0
 12 16  1  0  0  0  0
 13 14  2  0  0  0  0
 13 15  1  0  0  0  0
 21 22  2  0  0  0  0
 23 21  1  1  0  0  0
 23 24  1  0  0  0  0
 23 48  1  0  0  0  0
 24 25  1  0  0  0  0
 24 52  1  0  0  0  0
 24 53  1  0  0  0  0
 25 26  1  0  0  0  0
 25 40  1  0  0  0  0
 26 27  1  0  0  0  0
 26 38  1  0  0  0  0
 26 39  1  0  0  0  0
 27 28  2  0  0  0  0
 27 31  1  0  0  0  0
 28 29  1  0  0  0  0
 28 37  1  0  0  0  0
 29 30  2  0  0  0  0
 29 36  1  0  0  0  0
 30 31  1  0  0  0  0
 31 32  1  0  0  0  0
 32 33  1  0  0  0  0
 32 34  1  0  0  0  0
 32 35  1  0  0  0  0
 40 41  2  0  0  0  0
 40 42  1  0  0  0  0
 42 43  2  0  0  0  0
 42 48  1  0  0  0  0
 43 44  1  0  0  0  0
 43 51  1  0  0  0  0
 44 45  2  0  0  0  0
 44 50  1  0  0  0  0
 45 46  1  0  0  0  0
 45 47  1  0  0  0  0
 47 48  2  0  0  0  0
 47 49  1  0  0  0  0
M  END
>  <MODEL>
       1

$$$$
