tmp_first_model_9_52.pdb
 OpenBabel08272521403D

 57 60  0  0  0  0  0  0  0  0999 V2000
   -2.4070   -6.6040  -28.3020 C   0  0  0  0  0  0  0  0  0  0  0  0
   -3.6300   -5.6880  -28.3310 C   0  0  0  0  0  0  0  0  0  0  0  0
   -4.1220   -5.3670  -26.9210 C   0  0  0  0  0  0  0  0  0  0  0  0
   -3.7200   -4.3880  -26.3190 O   0  0  0  0  0  0  0  0  0  0  0  0
   -5.0080   -6.2490  -26.3370 N   0  0  0  0  0  0  0  0  0  0  0  0
   -5.6640   -6.0320  -25.0930 C   0  0  0  0  0  0  0  0  0  0  0  0
   -5.9100   -7.1150  -24.2420 C   0  0  0  0  0  0  0  0  0  0  0  0
   -6.5550   -6.9080  -23.0290 C   0  0  0  0  0  0  0  0  0  0  0  0
   -6.9670   -5.6380  -22.6360 C   0  0  0  0  0  0  0  0  0  0  0  0
   -6.7280   -4.5530  -23.4850 C   0  0  0  0  0  0  0  0  0  0  0  0
   -7.1650   -3.2290  -23.1180 N   0  0  0  0  0  0  0  0  0  0  0  0
   -8.1650   -2.5690  -23.9510 C   0  0  0  0  0  0  0  0  0  0  0  0
   -9.5810   -2.6800  -23.4290 C   0  0  0  0  0  0  0  0  0  0  0  0
  -10.1700   -3.9360  -23.2930 C   0  0  0  0  0  0  0  0  0  0  0  0
  -11.4580   -4.0560  -22.7870 C   0  0  0  0  0  0  0  0  0  0  0  0
  -12.1820   -2.9290  -22.4130 C   0  0  0  0  0  0  0  0  0  0  0  0
  -11.6070   -1.6710  -22.5570 C   0  0  0  0  0  0  0  0  0  0  0  0
  -10.3180   -1.5510  -23.0690 C   0  0  0  0  0  0  0  0  0  0  0  0
   -9.8750   -0.5630  -23.1730 H   0  0  0  0  0  0  0  0  0  0  0  0
  -12.1620   -0.7820  -22.2730 H   0  0  0  0  0  0  0  0  0  0  0  0
  -13.1890   -3.0300  -22.0200 H   0  0  0  0  0  0  0  0  0  0  0  0
  -11.9040   -5.0380  -22.6940 H   0  0  0  0  0  0  0  0  0  0  0  0
   -9.6150   -4.8250  -23.5850 H   0  0  0  0  0  0  0  0  0  0  0  0
   -8.1080   -3.0350  -24.9370 H   0  0  0  0  0  0  0  0  0  0  0  0
   -7.8960   -1.5180  -24.0950 H   0  0  0  0  0  0  0  0  0  0  0  0
   -6.7200   -2.7150  -21.8990 C   0  0  0  0  0  0  0  0  0  0  0  0
   -5.8050   -3.2530  -21.3100 O   0  0  0  0  0  0  0  0  0  0  0  0
   -7.4020   -1.4650  -21.2840 C   0  0  0  0  0  0  0  0  0  0  0  0
   -6.5780   -0.8280  -20.1840 C   0  0  0  0  0  0  0  0  0  0  0  0
   -6.8720   -1.0450  -18.8630 C   0  0  0  0  0  0  0  0  0  0  0  0
   -6.1840   -0.5410  -17.8030 N   0  0  0  0  0  0  0  0  0  0  0  0
   -5.1560    0.2250  -18.0670 C   0  0  0  0  0  0  0  0  0  0  0  0
   -4.7190    0.5340  -19.3810 C   0  0  0  0  0  0  0  0  0  0  0  0
   -3.5910    1.3570  -19.6230 C   0  0  0  0  0  0  0  0  0  0  0  0
   -3.1900    1.6340  -20.9010 C   0  0  0  0  0  0  0  0  0  0  0  0
   -3.9040    1.0940  -21.9920 C   0  0  0  0  0  0  0  0  0  0  0  0
   -4.9990    0.2910  -21.7840 C   0  0  0  0  0  0  0  0  0  0  0  0
   -5.4450   -0.0090  -20.4740 C   0  0  0  0  0  0  0  0  0  0  0  0
   -5.5250   -0.1260  -22.6370 H   0  0  0  0  0  0  0  0  0  0  0  0
   -3.5790    1.3080  -23.0050 H   0  0  0  0  0  0  0  0  0  0  0  0
   -2.3280    2.2710  -21.0880 H   0  0  0  0  0  0  0  0  0  0  0  0
   -3.0570    1.7750  -18.7710 H   0  0  0  0  0  0  0  0  0  0  0  0
   -4.6020    0.6290  -17.2160 H   0  0  0  0  0  0  0  0  0  0  0  0
   -7.7190   -1.6700  -18.5860 H   0  0  0  0  0  0  0  0  0  0  0  0
   -7.6460   -0.7170  -22.0470 H   0  0  0  0  0  0  0  0  0  0  0  0
   -8.3630   -1.7870  -20.8570 H   0  0  0  0  0  0  0  0  0  0  0  0
   -6.1040   -4.7620  -24.7170 C   0  0  0  0  0  0  0  0  0  0  0  0
   -5.9420   -3.9270  -25.3860 H   0  0  0  0  0  0  0  0  0  0  0  0
   -7.4620   -5.4890  -21.6780 H   0  0  0  0  0  0  0  0  0  0  0  0
   -6.7310   -7.7500  -22.3660 H   0  0  0  0  0  0  0  0  0  0  0  0
   -5.5720   -8.1130  -24.5040 H   0  0  0  0  0  0  0  0  0  0  0  0
   -5.1380   -7.1510  -26.7680 H   0  0  0  0  0  0  0  0  0  0  0  0
   -4.4210   -6.1210  -28.9560 H   0  0  0  0  0  0  0  0  0  0  0  0
   -3.3480   -4.7320  -28.7800 H   0  0  0  0  0  0  0  0  0  0  0  0
   -2.0290   -6.7980  -29.3120 H   0  0  0  0  0  0  0  0  0  0  0  0
   -1.5910   -6.1590  -27.7240 H   0  0  0  0  0  0  0  0  0  0  0  0
   -2.6590   -7.5660  -27.8460 H   0  0  0  0  0  0  0  0  0  0  0  0
  1  2  1  0  0  0  0
  1 55  1  0  0  0  0
  1 56  1  0  0  0  0
  1 57  1  0  0  0  0
  2  3  1  0  0  0  0
  2 53  1  0  0  0  0
  2 54  1  0  0  0  0
  3  4  2  0  0  0  0
  3  5  1  0  0  0  0
  5  6  1  0  0  0  0
  5 52  1  0  0  0  0
  6  7  2  0  0  0  0
  6 47  1  0  0  0  0
  7  8  1  0  0  0  0
  7 51  1  0  0  0  0
  8  9  2  0  0  0  0
  8 50  1  0  0  0  0
  9 10  1  0  0  0  0
  9 49  1  0  0  0  0
 10 11  1  0  0  0  0
 10 47  2  0  0  0  0
 11 12  1  0  0  0  0
 11 26  1  0  0  0  0
 12 13  1  0  0  0  0
 12 24  1  0  0  0  0
 12 25  1  0  0  0  0
 13 14  2  0  0  0  0
 13 18  1  0  0  0  0
 14 15  1  0  0  0  0
 14 23  1  0  0  0  0
 15 16  2  0  0  0  0
 15 22  1  0  0  0  0
 16 17  1  0  0  0  0
 16 21  1  0  0  0  0
 17 18  2  0  0  0  0
 17 20  1  0  0  0  0
 18 19  1  0  0  0  0
 26 27  2  0  0  0  0
 26 28  1  0  0  0  0
 28 29  1  0  0  0  0
 28 45  1  0  0  0  0
 28 46  1  0  0  0  0
 29 30  2  0  0  0  0
 29 38  1  0  0  0  0
 30 31  1  0  0  0  0
 30 44  1  0  0  0  0
 31 32  2  0  0  0  0
 32 33  1  0  0  0  0
 32 43  1  0  0  0  0
 33 34  2  0  0  0  0
 33 38  1  0  0  0  0
 34 35  1  0  0  0  0
 34 42  1  0  0  0  0
 35 36  2  0  0  0  0
 35 41  1  0  0  0  0
 36 37  1  0  0  0  0
 36 40  1  0  0  0  0
 37 38  2  0  0  0  0
 37 39  1  0  0  0  0
 47 48  1  0  0  0  0
M  END
>  <MODEL>
       1

$$$$
