tmp_first_model_4_39.pdb
 OpenBabel08272518513D

 40 44  0  0  1  0  0  0  0  0999 V2000
   -8.0900   -5.5600  -25.2410 C   0  0  0  0  0  0  0  0  0  0  0  0
   -9.3400   -4.7040  -25.1620 C   0  0  0  0  0  0  0  0  0  0  0  0
  -10.4600   -5.1530  -25.3210 O   0  0  0  0  0  0  0  0  0  0  0  0
   -9.1310   -3.3780  -24.8950 N   0  0  0  0  0  0  0  0  0  0  0  0
  -10.2600   -2.4860  -24.5660 C   0  0  0  0  0  0  0  0  0  0  0  0
   -9.5350   -1.2540  -24.0050 C   0  0  2  0  0  0  0  0  0  0  0  0
   -8.3020   -1.2110  -24.9270 C   0  0  0  0  0  0  0  0  0  0  0  0
   -7.8890   -2.6630  -24.5500 C   0  0  1  0  0  0  0  0  0  0  0  0
   -7.8380   -2.5070  -23.0950 C   0  0  0  0  0  0  0  0  0  0  0  0
   -6.8390   -2.4690  -22.0850 C   0  0  0  0  0  0  0  0  0  0  0  0
   -5.7850   -3.0500  -21.9540 O   0  5  0  0  0  0  0  0  0  0  0  0
   -7.3380   -1.4930  -21.1800 N   0  0  0  0  0  0  0  0  0  0  0  0
   -6.4990   -0.9680  -20.1780 C   0  0  0  0  0  0  0  0  0  0  0  0
   -6.7480   -1.2570  -18.8660 C   0  0  0  0  0  0  0  0  0  0  0  0
   -5.8900   -0.9910  -17.8520 N   0  0  0  0  0  0  0  0  0  0  0  0
   -4.7570   -0.4090  -18.1610 C   0  0  0  0  0  0  0  0  0  0  0  0
   -4.4260    0.0210  -19.4750 C   0  0  0  0  0  0  0  0  0  0  0  0
   -3.2550    0.7760  -19.7230 C   0  0  0  0  0  0  0  0  0  0  0  0
   -3.0320    1.3190  -20.9600 C   0  0  0  0  0  0  0  0  0  0  0  0
   -3.9280    1.0500  -22.0200 C   0  0  0  0  0  0  0  0  0  0  0  0
   -5.0380    0.2720  -21.8170 C   0  0  0  0  0  0  0  0  0  0  0  0
   -5.3210   -0.2480  -20.5250 C   0  0  0  0  0  0  0  0  0  0  0  0
   -5.7110    0.0470  -22.6390 H   0  0  0  0  0  0  0  0  0  0  0  0
   -3.7510    1.4910  -22.9960 H   0  0  0  0  0  0  0  0  0  0  0  0
   -2.1860    1.9800  -21.1260 H   0  0  0  0  0  0  0  0  0  0  0  0
   -2.5860    0.9570  -18.8880 H   0  0  0  0  0  0  0  0  0  0  0  0
   -4.0310   -0.2260  -17.3650 H   0  0  0  0  0  0  0  0  0  0  0  0
   -7.6740   -1.7620  -18.6110 H   0  0  0  0  0  0  0  0  0  0  0  0
   -8.5860   -0.9720  -21.5720 C   0  0  0  0  0  0  0  0  0  0  0  0
   -9.2240   -0.1050  -21.0310 O   0  0  0  0  0  0  0  0  0  0  0  0
   -8.8830   -1.6810  -22.7330 N   0  0  0  0  0  0  0  0  0  0  0  0
   -6.9970   -3.0760  -25.0160 H   0  0  0  0  0  0  0  0  0  0  0  0
   -7.5730   -0.4670  -24.6050 H   0  0  0  0  0  0  0  0  0  0  0  0
   -8.5240   -1.0890  -25.9850 H   0  0  0  0  0  0  0  0  0  0  0  0
  -10.1370   -0.3610  -23.8770 H   0  0  0  0  0  0  0  0  0  0  0  0
  -10.9250   -2.9640  -23.8440 H   0  0  0  0  0  0  0  0  0  0  0  0
  -10.8210   -2.2560  -25.4780 H   0  0  0  0  0  0  0  0  0  0  0  0
   -8.3870   -6.5880  -25.4470 H   0  0  0  0  0  0  0  0  0  0  0  0
   -7.5390   -5.5250  -24.2940 H   0  0  0  0  0  0  0  0  0  0  0  0
   -7.4300   -5.2070  -26.0410 H   0  0  0  0  0  0  0  0  0  0  0  0
  1  2  1  0  0  0  0
  1 38  1  0  0  0  0
  1 39  1  0  0  0  0
  1 40  1  0  0  0  0
  2  3  2  0  0  0  0
  2  4  1  0  0  0  0
  4  5  1  0  0  0  0
  4  8  1  0  0  0  0
  5  6  1  0  0  0  0
  5 36  1  0  0  0  0
  5 37  1  0  0  0  0
  6  7  1  0  0  0  0
  6 31  1  0  0  0  0
  6 35  1  1  0  0  0
  7  8  1  0  0  0  0
  7 33  1  0  0  0  0
  7 34  1  0  0  0  0
  8  9  1  0  0  0  0
  8 32  1  6  0  0  0
  9 10  2  0  0  0  0
  9 31  1  0  0  0  0
 10 11  1  0  0  0  0
 10 12  1  0  0  0  0
 12 13  1  0  0  0  0
 12 29  1  0  0  0  0
 13 14  2  0  0  0  0
 13 22  1  0  0  0  0
 14 15  1  0  0  0  0
 14 28  1  0  0  0  0
 15 16  2  0  0  0  0
 16 17  1  0  0  0  0
 16 27  1  0  0  0  0
 17 18  2  0  0  0  0
 17 22  1  0  0  0  0
 18 19  1  0  0  0  0
 18 26  1  0  0  0  0
 19 20  2  0  0  0  0
 19 25  1  0  0  0  0
 20 21  1  0  0  0  0
 20 24  1  0  0  0  0
 21 22  2  0  0  0  0
 21 23  1  0  0  0  0
 29 30  2  0  0  0  0
 29 31  1  0  0  0  0
M  CHG  1  11  -1
M  END
>  <MODEL>
       1

$$$$
