tmp_first_model_14_1.pdb
 OpenBabel08282500413D

 68 73  0  0  1  0  0  0  0  0999 V2000
   -7.5620   -5.9370  -26.7870 C   0  0  0  0  0  0  0  0  0  0  0  0
   -7.8370   -4.5290  -27.0130 N   0  0  0  0  0  0  0  0  0  0  0  0
   -6.9630   -3.5820  -26.6010 C   0  0  0  0  0  0  0  0  0  0  0  0
   -5.9040   -3.8410  -26.0370 O   0  0  0  0  0  0  0  0  0  0  0  0
   -7.4250   -2.1360  -26.8180 C   0  0  0  0  0  0  0  0  0  0  0  0
   -8.3600   -1.7010  -25.7860 N   0  0  0  0  0  0  0  0  0  0  0  0
   -7.8470   -1.2170  -24.5110 C   0  0  0  0  0  0  0  0  0  0  0  0
   -8.7420   -1.5430  -23.2730 C   0  0  2  0  0  0  0  0  0  0  0  0
   -8.2530   -0.5900  -22.1650 C   0  0  0  0  0  0  0  0  0  0  0  0
   -8.5000    0.5870  -22.0330 O   0  0  0  0  0  0  0  0  0  0  0  0
   -7.3800   -1.2990  -21.3540 N   0  0  0  0  0  0  0  0  0  0  0  0
   -6.6220   -0.7050  -20.3140 C   0  0  0  0  0  0  0  0  0  0  0  0
   -6.9580   -0.9550  -19.0090 C   0  0  0  0  0  0  0  0  0  0  0  0
   -6.3050   -0.4510  -17.9340 N   0  0  0  0  0  0  0  0  0  0  0  0
   -5.2500    0.2890  -18.1690 C   0  0  0  0  0  0  0  0  0  0  0  0
   -4.7550    0.5890  -19.4680 C   0  0  0  0  0  0  0  0  0  0  0  0
   -3.5910    1.3770  -19.6610 C   0  0  0  0  0  0  0  0  0  0  0  0
   -3.1320    1.6370  -20.9210 C   0  0  0  0  0  0  0  0  0  0  0  0
   -3.8070    1.1150  -22.0460 C   0  0  0  0  0  0  0  0  0  0  0  0
   -4.9350    0.3510  -21.8840 C   0  0  0  0  0  0  0  0  0  0  0  0
   -5.4500    0.0760  -20.5870 C   0  0  0  0  0  0  0  0  0  0  0  0
   -5.4410   -0.0530  -22.7560 H   0  0  0  0  0  0  0  0  0  0  0  0
   -3.4320    1.3260  -23.0430 H   0  0  0  0  0  0  0  0  0  0  0  0
   -2.2520    2.2560  -21.0670 H   0  0  0  0  0  0  0  0  0  0  0  0
   -3.0860    1.7780  -18.7860 H   0  0  0  0  0  0  0  0  0  0  0  0
   -4.7250    0.6780  -17.2980 H   0  0  0  0  0  0  0  0  0  0  0  0
   -7.8220   -1.5840  -18.7940 H   0  0  0  0  0  0  0  0  0  0  0  0
   -7.2680   -2.7100  -21.6670 C   0  0  0  0  0  0  0  0  0  0  0  0
   -8.4670   -2.9250  -22.5940 C   0  0  2  0  0  0  0  0  0  0  0  0
   -8.3500   -4.0900  -23.5720 C   0  0  0  0  0  0  0  0  0  0  0  0
   -8.2720   -5.4050  -22.9720 N   0  0  0  0  0  0  0  0  0  0  0  0
   -7.0520   -5.9350  -22.5620 C   0  0  0  0  0  0  0  0  0  0  0  0
   -6.8660   -6.8910  -21.5300 C   0  0  0  0  0  0  0  0  0  0  0  0
   -5.6050   -7.2880  -21.4600 N   0  0  0  0  0  0  0  0  0  0  0  0
   -4.9610   -6.6240  -22.4260 N   0  0  0  0  0  0  0  0  0  0  0  0
   -3.5790   -6.9680  -22.7040 C   0  0  0  0  0  0  0  0  0  0  0  0
   -3.3540   -7.8630  -22.1200 H   0  0  0  0  0  0  0  0  0  0  0  0
   -3.4580   -7.1890  -23.7700 H   0  0  0  0  0  0  0  0  0  0  0  0
   -2.8840   -6.1700  -22.4150 H   0  0  0  0  0  0  0  0  0  0  0  0
   -5.7930   -5.7840  -23.1210 C   0  0  0  0  0  0  0  0  0  0  0  0
   -5.4630   -5.1790  -23.9700 H   0  0  0  0  0  0  0  0  0  0  0  0
   -7.6130   -7.3320  -20.8740 H   0  0  0  0  0  0  0  0  0  0  0  0
   -9.0400   -5.6120  -22.3490 H   0  0  0  0  0  0  0  0  0  0  0  0
   -9.2310   -4.0640  -24.2240 H   0  0  0  0  0  0  0  0  0  0  0  0
   -7.4680   -3.9580  -24.1970 H   0  0  0  0  0  0  0  0  0  0  0  0
   -9.3430   -3.1160  -21.9530 H   0  0  0  0  0  0  0  0  0  0  0  0
   -6.3050   -2.9520  -22.1520 H   0  0  0  0  0  0  0  0  0  0  0  0
   -7.3240   -3.2950  -20.7460 H   0  0  0  0  0  0  0  0  0  0  0  0
  -10.2100   -1.4130  -23.6260 C   0  0  0  0  0  0  0  0  0  0  0  0
  -11.1920   -1.3430  -22.6240 C   0  0  0  0  0  0  0  0  0  0  0  0
  -12.5350   -1.3570  -22.9630 C   0  0  0  0  0  0  0  0  0  0  0  0
  -13.7810   -1.3320  -21.7540 Cl  0  0  0  0  0  0  0  0  0  0  0  0
  -12.9420   -1.4660  -24.2900 C   0  0  0  0  0  0  0  0  0  0  0  0
  -11.9810   -1.5580  -25.2730 C   0  0  0  0  0  0  0  0  0  0  0  0
  -10.6330   -1.5640  -24.9480 C   0  0  0  0  0  0  0  0  0  0  0  0
   -9.6790   -1.9030  -26.0400 C   0  0  0  0  0  0  0  0  0  0  0  0
  -10.0610   -2.4040  -27.0990 O   0  0  0  0  0  0  0  0  0  0  0  0
  -12.2340   -1.6810  -26.3200 H   0  0  0  0  0  0  0  0  0  0  0  0
  -13.9990   -1.5330  -24.5090 H   0  0  0  0  0  0  0  0  0  0  0  0
  -10.8950   -1.3090  -21.5820 H   0  0  0  0  0  0  0  0  0  0  0  0
   -7.7420   -0.1240  -24.5500 H   0  0  0  0  0  0  0  0  0  0  0  0
   -6.8510   -1.6690  -24.3790 H   0  0  0  0  0  0  0  0  0  0  0  0
   -6.5460   -1.4900  -26.8490 H   0  0  0  0  0  0  0  0  0  0  0  0
   -7.9520   -2.0670  -27.7680 H   0  0  0  0  0  0  0  0  0  0  0  0
   -8.7520   -4.2340  -27.3250 H   0  0  0  0  0  0  0  0  0  0  0  0
   -7.3050   -6.1220  -25.7360 H   0  0  0  0  0  0  0  0  0  0  0  0
   -8.4520   -6.5150  -27.0390 H   0  0  0  0  0  0  0  0  0  0  0  0
   -6.7370   -6.2850  -27.4160 H   0  0  0  0  0  0  0  0  0  0  0  0
  1  2  1  0  0  0  0
  1 66  1  0  0  0  0
  1 67  1  0  0  0  0
  1 68  1  0  0  0  0
  2  3  1  0  0  0  0
  2 65  1  0  0  0  0
  3  4  2  0  0  0  0
  3  5  1  0  0  0  0
  5  6  1  0  0  0  0
  5 63  1  0  0  0  0
  5 64  1  0  0  0  0
  6  7  1  0  0  0  0
  6 56  1  0  0  0  0
  7  8  1  0  0  0  0
  7 61  1  0  0  0  0
  7 62  1  0  0  0  0
  8  9  1  1  0  0  0
  8 29  1  0  0  0  0
  8 49  1  0  0  0  0
  9 10  2  0  0  0  0
  9 11  1  0  0  0  0
 11 12  1  0  0  0  0
 11 28  1  0  0  0  0
 12 13  2  0  0  0  0
 12 21  1  0  0  0  0
 13 14  1  0  0  0  0
 13 27  1  0  0  0  0
 14 15  2  0  0  0  0
 15 16  1  0  0  0  0
 15 26  1  0  0  0  0
 16 17  2  0  0  0  0
 16 21  1  0  0  0  0
 17 18  1  0  0  0  0
 17 25  1  0  0  0  0
 18 19  2  0  0  0  0
 18 24  1  0  0  0  0
 19 20  1  0  0  0  0
 19 23  1  0  0  0  0
 20 21  2  0  0  0  0
 20 22  1  0  0  0  0
 28 29  1  0  0  0  0
 28 47  1  0  0  0  0
 28 48  1  0  0  0  0
 29 30  1  0  0  0  0
 29 46  1  1  0  0  0
 30 31  1  0  0  0  0
 30 44  1  0  0  0  0
 30 45  1  0  0  0  0
 31 32  1  0  0  0  0
 31 43  1  0  0  0  0
 32 33  1  0  0  0  0
 32 40  2  0  0  0  0
 33 34  2  0  0  0  0
 33 42  1  0  0  0  0
 34 35  1  0  0  0  0
 35 36  1  0  0  0  0
 35 40  1  0  0  0  0
 36 37  1  0  0  0  0
 36 38  1  0  0  0  0
 36 39  1  0  0  0  0
 40 41  1  0  0  0  0
 49 50  2  0  0  0  0
 49 55  1  0  0  0  0
 50 51  1  0  0  0  0
 50 60  1  0  0  0  0
 51 52  1  0  0  0  0
 51 53  2  0  0  0  0
 53 54  1  0  0  0  0
 53 59  1  0  0  0  0
 54 55  2  0  0  0  0
 54 58  1  0  0  0  0
 55 56  1  0  0  0  0
 56 57  2  0  0  0  0
M  END
>  <MODEL>
       1

$$$$
