tmp_first_model_10_25.pdb
 OpenBabel08272522163D

 70 75  0  0  1  0  0  0  0  0999 V2000
   -5.5930   -7.3980  -25.7070 O   0  0  0  0  0  0  0  0  0  0  0  0
   -5.5800   -7.0180  -24.5490 C   0  0  0  0  0  0  0  0  0  0  0  0
   -6.7990   -6.3750  -23.8720 C   0  0  0  0  0  0  0  0  0  0  0  0
   -6.8020   -4.8780  -23.9570 N   0  3  1  0  0  0  0  0  0  0  0  0
   -6.7660   -4.5040  -25.4320 C   0  0  0  0  0  0  0  0  0  0  0  0
   -6.7830   -3.0170  -25.6350 C   0  0  0  0  0  0  0  0  0  0  0  0
   -6.2880   -2.4730  -26.8200 C   0  0  0  0  0  0  0  0  0  0  0  0
   -6.3040   -1.1030  -27.0370 C   0  0  0  0  0  0  0  0  0  0  0  0
   -6.8200   -0.2730  -26.0480 C   0  0  0  0  0  0  0  0  0  0  0  0
   -6.8410    1.4470  -26.2990 Cl  0  0  0  0  0  0  0  0  0  0  0  0
   -7.3100   -0.7990  -24.8640 C   0  0  0  0  0  0  0  0  0  0  0  0
   -7.3050   -2.1790  -24.6530 C   0  0  0  0  0  0  0  0  0  0  0  0
   -7.8150   -2.7050  -23.3270 C   0  0  2  0  0  0  0  0  0  0  0  0
   -6.8170   -2.3700  -22.2200 C   0  0  0  0  0  0  0  0  0  0  0  0
   -5.7230   -2.9070  -22.2010 O   0  0  0  0  0  0  0  0  0  0  0  0
   -7.2820   -1.4720  -21.2780 N   0  0  0  0  0  0  0  0  0  0  0  0
   -6.5550   -0.8630  -20.2220 C   0  0  0  0  0  0  0  0  0  0  0  0
   -6.9060   -1.0810  -18.9090 C   0  0  0  0  0  0  0  0  0  0  0  0
   -6.2220   -0.5950  -17.8400 N   0  0  0  0  0  0  0  0  0  0  0  0
   -5.2000    0.1900  -18.0780 C   0  0  0  0  0  0  0  0  0  0  0  0
   -4.7890    0.5670  -19.3870 C   0  0  0  0  0  0  0  0  0  0  0  0
   -3.6730    1.4150  -19.6130 C   0  0  0  0  0  0  0  0  0  0  0  0
   -3.3740    1.8470  -20.8750 C   0  0  0  0  0  0  0  0  0  0  0  0
   -4.1730    1.4470  -21.9750 C   0  0  0  0  0  0  0  0  0  0  0  0
   -5.1640    0.5110  -21.8040 C   0  0  0  0  0  0  0  0  0  0  0  0
   -5.4990    0.0570  -20.4970 C   0  0  0  0  0  0  0  0  0  0  0  0
   -5.7030    0.1140  -22.6590 H   0  0  0  0  0  0  0  0  0  0  0  0
   -3.9480    1.8170  -22.9730 H   0  0  0  0  0  0  0  0  0  0  0  0
   -2.5150    2.4910  -21.0490 H   0  0  0  0  0  0  0  0  0  0  0  0
   -3.0860    1.7210  -18.7520 H   0  0  0  0  0  0  0  0  0  0  0  0
   -4.6420    0.5740  -17.2200 H   0  0  0  0  0  0  0  0  0  0  0  0
   -7.7650   -1.7030  -18.6510 H   0  0  0  0  0  0  0  0  0  0  0  0
   -8.2870   -1.3980  -21.2060 H   0  0  0  0  0  0  0  0  0  0  0  0
   -8.0110   -4.2220  -23.3180 C   0  0  0  0  0  0  0  0  0  0  0  0
   -8.9090   -4.4940  -23.8780 H   0  0  0  0  0  0  0  0  0  0  0  0
   -8.1190   -4.5680  -22.2870 H   0  0  0  0  0  0  0  0  0  0  0  0
   -8.7510   -2.1990  -23.0810 H   0  0  0  0  0  0  0  0  0  0  0  0
   -7.6900   -0.1330  -24.0960 H   0  0  0  0  0  0  0  0  0  0  0  0
   -5.9220   -0.6800  -27.9590 H   0  0  0  0  0  0  0  0  0  0  0  0
   -5.8810   -3.1340  -27.5840 H   0  0  0  0  0  0  0  0  0  0  0  0
   -7.6380   -4.9790  -25.8980 H   0  0  0  0  0  0  0  0  0  0  0  0
   -5.8900   -4.9600  -25.8930 H   0  0  0  0  0  0  0  0  0  0  0  0
   -5.9790   -4.4520  -23.4670 H   0  0  0  0  0  0  0  0  0  0  0  0
   -7.6580   -6.7820  -24.4160 H   0  0  0  0  0  0  0  0  0  0  0  0
   -6.8520   -6.7150  -22.8350 H   0  0  0  0  0  0  0  0  0  0  0  0
   -4.4770   -7.1340  -23.7490 N   0  0  0  0  0  0  0  0  0  0  0  0
   -3.2710   -7.7490  -24.1680 C   0  0  0  0  0  0  0  0  0  0  0  0
   -2.0510   -7.1100  -23.9510 C   0  0  0  0  0  0  0  0  0  0  0  0
   -0.8770   -7.7110  -24.3810 C   0  0  0  0  0  0  0  0  0  0  0  0
   -0.9090   -8.9480  -25.0240 C   0  0  0  0  0  0  0  0  0  0  0  0
    0.3060   -9.5490  -25.4710 N   0  0  0  0  0  0  0  0  0  0  0  0
    1.3180   -9.8680  -24.4710 C   0  0  0  0  0  0  0  0  0  0  0  0
    2.6370  -10.2260  -25.1340 C   0  0  0  0  0  0  0  0  0  0  0  0
    2.4080  -11.1810  -26.1410 O   0  0  0  0  0  0  0  0  0  0  0  0
    1.6830  -10.6200  -27.2000 C   0  0  0  0  0  0  0  0  0  0  0  0
    0.3880   -9.9380  -26.7830 C   0  0  0  0  0  0  0  0  0  0  0  0
   -0.4840   -9.7110  -27.6030 O   0  0  0  0  0  0  0  0  0  0  0  0
    2.2780   -9.8660  -27.7380 H   0  0  0  0  0  0  0  0  0  0  0  0
    1.4290  -11.4200  -27.8940 H   0  0  0  0  0  0  0  0  0  0  0  0
    3.1340   -9.3380  -25.5530 H   0  0  0  0  0  0  0  0  0  0  0  0
    3.3210  -10.6840  -24.4130 H   0  0  0  0  0  0  0  0  0  0  0  0
    1.4530   -9.0130  -23.8020 H   0  0  0  0  0  0  0  0  0  0  0  0
    0.9720  -10.7160  -23.8680 H   0  0  0  0  0  0  0  0  0  0  0  0
   -2.1310   -9.6000  -25.2040 C   0  0  0  0  0  0  0  0  0  0  0  0
   -3.3060   -8.9990  -24.7840 C   0  0  0  0  0  0  0  0  0  0  0  0
   -4.2670   -9.4710  -24.9560 H   0  0  0  0  0  0  0  0  0  0  0  0
   -2.1680  -10.5680  -25.6980 H   0  0  0  0  0  0  0  0  0  0  0  0
    0.0750   -7.2030  -24.2450 H   0  0  0  0  0  0  0  0  0  0  0  0
   -2.0230   -6.1360  -23.4670 H   0  0  0  0  0  0  0  0  0  0  0  0
   -4.4580   -6.5760  -22.9100 H   0  0  0  0  0  0  0  0  0  0  0  0
  1  2  2  0  0  0  0
  2  3  1  0  0  0  0
  2 46  1  0  0  0  0
  3  4  1  0  0  0  0
  3 44  1  0  0  0  0
  3 45  1  0  0  0  0
  4  5  1  0  0  0  0
  4 34  1  0  0  0  0
  4 43  1  1  0  0  0
  5  6  1  0  0  0  0
  5 41  1  0  0  0  0
  5 42  1  0  0  0  0
  6  7  2  0  0  0  0
  6 12  1  0  0  0  0
  7  8  1  0  0  0  0
  7 40  1  0  0  0  0
  8  9  2  0  0  0  0
  8 39  1  0  0  0  0
  9 10  1  0  0  0  0
  9 11  1  0  0  0  0
 11 12  2  0  0  0  0
 11 38  1  0  0  0  0
 12 13  1  0  0  0  0
 13 14  1  0  0  0  0
 13 34  1  0  0  0  0
 13 37  1  1  0  0  0
 14 15  2  0  0  0  0
 14 16  1  0  0  0  0
 16 17  1  0  0  0  0
 16 33  1  0  0  0  0
 17 18  2  0  0  0  0
 17 26  1  0  0  0  0
 18 19  1  0  0  0  0
 18 32  1  0  0  0  0
 19 20  2  0  0  0  0
 20 21  1  0  0  0  0
 20 31  1  0  0  0  0
 21 22  2  0  0  0  0
 21 26  1  0  0  0  0
 22 23  1  0  0  0  0
 22 30  1  0  0  0  0
 23 24  2  0  0  0  0
 23 29  1  0  0  0  0
 24 25  1  0  0  0  0
 24 28  1  0  0  0  0
 25 26  2  0  0  0  0
 25 27  1  0  0  0  0
 34 35  1  0  0  0  0
 34 36  1  0  0  0  0
 46 47  1  0  0  0  0
 46 70  1  0  0  0  0
 47 48  2  0  0  0  0
 47 65  1  0  0  0  0
 48 49  1  0  0  0  0
 48 69  1  0  0  0  0
 49 50  2  0  0  0  0
 49 68  1  0  0  0  0
 50 51  1  0  0  0  0
 50 64  1  0  0  0  0
 51 52  1  0  0  0  0
 51 56  1  0  0  0  0
 52 53  1  0  0  0  0
 52 62  1  0  0  0  0
 52 63  1  0  0  0  0
 53 54  1  0  0  0  0
 53 60  1  0  0  0  0
 53 61  1  0  0  0  0
 54 55  1  0  0  0  0
 55 56  1  0  0  0  0
 55 58  1  0  0  0  0
 55 59  1  0  0  0  0
 56 57  2  0  0  0  0
 64 65  2  0  0  0  0
 64 67  1  0  0  0  0
 65 66  1  0  0  0  0
M  CHG  1   4   1
M  END
>  <MODEL>
       1

$$$$
