tmp_first_model_1_56.pdb
 OpenBabel08272517043D

 57 62  0  0  1  0  0  0  0  0999 V2000
   -6.4670   -3.8860  -23.8550 C   0  0  0  0  0  0  0  0  0  0  0  0
   -6.8430   -3.1350  -22.5880 C   0  0  1  0  0  0  0  0  0  0  0  0
   -5.6500   -2.7150  -21.7280 C   0  0  0  0  0  0  0  0  0  0  0  0
   -6.2660   -1.7380  -20.8540 N   0  0  0  0  0  0  0  0  0  0  0  0
   -5.5950   -1.0700  -19.8110 C   0  0  0  0  0  0  0  0  0  0  0  0
   -5.8760   -1.3990  -18.5150 C   0  0  0  0  0  0  0  0  0  0  0  0
   -5.3930   -0.7320  -17.4440 N   0  0  0  0  0  0  0  0  0  0  0  0
   -4.6030    0.2880  -17.6850 C   0  0  0  0  0  0  0  0  0  0  0  0
   -4.1710    0.6810  -18.9860 C   0  0  0  0  0  0  0  0  0  0  0  0
   -3.2310    1.7250  -19.1980 C   0  0  0  0  0  0  0  0  0  0  0  0
   -2.8120    2.0490  -20.4590 C   0  0  0  0  0  0  0  0  0  0  0  0
   -3.3270    1.3550  -21.5760 C   0  0  0  0  0  0  0  0  0  0  0  0
   -4.2550    0.3580  -21.4030 C   0  0  0  0  0  0  0  0  0  0  0  0
   -4.6830   -0.0180  -20.0980 C   0  0  0  0  0  0  0  0  0  0  0  0
   -4.6670   -0.1280  -22.2800 H   0  0  0  0  0  0  0  0  0  0  0  0
   -3.0090    1.6200  -22.5820 H   0  0  0  0  0  0  0  0  0  0  0  0
   -2.0820    2.8390  -20.6160 H   0  0  0  0  0  0  0  0  0  0  0  0
   -2.8510    2.2490  -18.3290 H   0  0  0  0  0  0  0  0  0  0  0  0
   -4.2660    0.8580  -16.8210 H   0  0  0  0  0  0  0  0  0  0  0  0
   -6.5440   -2.2350  -18.3210 H   0  0  0  0  0  0  0  0  0  0  0  0
   -7.3680   -1.1210  -21.4180 C   0  0  0  0  0  0  0  0  0  0  0  0
   -7.9510   -0.1880  -20.9110 O   0  0  0  0  0  0  0  0  0  0  0  0
   -7.6650   -1.8180  -22.7660 C   0  0  1  0  0  0  0  0  0  0  0  0
   -7.1110   -0.9400  -23.9360 C   0  0  0  0  0  0  0  0  0  0  0  0
   -7.9860    0.1350  -24.3710 N   0  0  0  0  0  0  0  0  0  0  0  0
   -7.3860    1.3280  -24.9590 C   0  0  0  0  0  0  0  0  0  0  0  0
   -7.2210    2.4790  -23.9840 C   0  0  0  0  0  0  0  0  0  0  0  0
   -6.6700    2.1810  -22.8000 N   0  0  0  0  0  0  0  0  0  0  0  0
   -6.4840    3.2200  -21.9790 C   0  0  0  0  0  0  0  0  0  0  0  0
   -6.8770    4.5110  -22.2950 C   0  0  0  0  0  0  0  0  0  0  0  0
   -7.4410    4.6990  -23.5480 C   0  0  0  0  0  0  0  0  0  0  0  0
   -7.5790    3.6910  -24.4080 N   0  0  0  0  0  0  0  0  0  0  0  0
   -7.7750    5.6810  -23.8880 H   0  0  0  0  0  0  0  0  0  0  0  0
   -6.7150    5.3300  -21.6060 H   0  0  0  0  0  0  0  0  0  0  0  0
   -6.0000    3.0160  -21.0230 H   0  0  0  0  0  0  0  0  0  0  0  0
   -7.9880    1.6590  -25.8090 H   0  0  0  0  0  0  0  0  0  0  0  0
   -6.4010    1.0350  -25.3410 H   0  0  0  0  0  0  0  0  0  0  0  0
   -9.3330    0.1400  -24.1890 C   0  0  0  0  0  0  0  0  0  0  0  0
   -9.9940    1.1480  -24.3880 O   0  0  0  0  0  0  0  0  0  0  0  0
   -9.9190   -1.1420  -23.6920 C   0  0  0  0  0  0  0  0  0  0  0  0
  -11.2710   -1.3930  -23.9300 C   0  0  0  0  0  0  0  0  0  0  0  0
  -11.9170   -2.4040  -23.2540 C   0  0  0  0  0  0  0  0  0  0  0  0
  -11.1930   -3.1020  -22.2940 C   0  0  0  0  0  0  0  0  0  0  0  0
  -11.8690   -3.8790  -21.4420 F   0  0  0  0  0  0  0  0  0  0  0  0
   -9.8300   -2.9480  -22.1180 C   0  0  0  0  0  0  0  0  0  0  0  0
   -9.1530   -2.0170  -22.9130 C   0  0  0  0  0  0  0  0  0  0  0  0
   -9.3410   -3.5060  -21.3280 H   0  0  0  0  0  0  0  0  0  0  0  0
  -12.9770   -2.6110  -23.3750 H   0  0  0  0  0  0  0  0  0  0  0  0
  -11.8120   -0.6990  -24.5700 H   0  0  0  0  0  0  0  0  0  0  0  0
   -6.8780   -1.5690  -24.8010 H   0  0  0  0  0  0  0  0  0  0  0  0
   -6.1890   -0.4470  -23.6120 H   0  0  0  0  0  0  0  0  0  0  0  0
   -5.2230   -3.5450  -21.1610 H   0  0  0  0  0  0  0  0  0  0  0  0
   -4.8490   -2.2820  -22.3530 H   0  0  0  0  0  0  0  0  0  0  0  0
   -7.4490   -3.8000  -21.9590 H   0  0  0  0  0  0  0  0  0  0  0  0
   -5.6980   -3.3430  -24.4170 H   0  0  0  0  0  0  0  0  0  0  0  0
   -7.3400   -4.0160  -24.5050 H   0  0  0  0  0  0  0  0  0  0  0  0
   -6.0550   -4.8710  -23.6100 H   0  0  0  0  0  0  0  0  0  0  0  0
  1  2  1  0  0  0  0
  1 55  1  0  0  0  0
  1 56  1  0  0  0  0
  1 57  1  0  0  0  0
  2  3  1  0  0  0  0
  2 23  1  0  0  0  0
  2 54  1  1  0  0  0
  3  4  1  0  0  0  0
  3 52  1  0  0  0  0
  3 53  1  0  0  0  0
  4  5  1  0  0  0  0
  4 21  1  0  0  0  0
  5  6  2  0  0  0  0
  5 14  1  0  0  0  0
  6  7  1  0  0  0  0
  6 20  1  0  0  0  0
  7  8  2  0  0  0  0
  8  9  1  0  0  0  0
  8 19  1  0  0  0  0
  9 10  2  0  0  0  0
  9 14  1  0  0  0  0
 10 11  1  0  0  0  0
 10 18  1  0  0  0  0
 11 12  2  0  0  0  0
 11 17  1  0  0  0  0
 12 13  1  0  0  0  0
 12 16  1  0  0  0  0
 13 14  2  0  0  0  0
 13 15  1  0  0  0  0
 21 22  2  0  0  0  0
 23 21  1  1  0  0  0
 23 24  1  0  0  0  0
 23 46  1  0  0  0  0
 24 25  1  0  0  0  0
 24 50  1  0  0  0  0
 24 51  1  0  0  0  0
 25 26  1  0  0  0  0
 25 38  1  0  0  0  0
 26 27  1  0  0  0  0
 26 36  1  0  0  0  0
 26 37  1  0  0  0  0
 27 28  2  0  0  0  0
 27 32  1  0  0  0  0
 28 29  1  0  0  0  0
 29 30  2  0  0  0  0
 29 35  1  0  0  0  0
 30 31  1  0  0  0  0
 30 34  1  0  0  0  0
 31 32  2  0  0  0  0
 31 33  1  0  0  0  0
 38 39  2  0  0  0  0
 38 40  1  0  0  0  0
 40 41  2  0  0  0  0
 40 46  1  0  0  0  0
 41 42  1  0  0  0  0
 41 49  1  0  0  0  0
 42 43  2  0  0  0  0
 42 48  1  0  0  0  0
 43 44  1  0  0  0  0
 43 45  1  0  0  0  0
 45 46  2  0  0  0  0
 45 47  1  0  0  0  0
M  END
>  <MODEL>
       1

$$$$
