tmp_first_model_1_32.pdb
 OpenBabel08272517043D

 57 62  0  0  1  0  0  0  0  0999 V2000
  -10.2360   -2.9720  -22.0720 C   0  0  0  0  0  0  0  0  0  0  0  0
   -9.1650   -2.0180  -22.6350 C   0  0  1  0  0  0  0  0  0  0  0  0
   -8.6890   -1.0410  -21.5380 C   0  0  0  0  0  0  0  0  0  0  0  0
   -7.3410   -1.4630  -21.2140 N   0  0  0  0  0  0  0  0  0  0  0  0
   -6.5650   -0.8630  -20.1900 C   0  0  0  0  0  0  0  0  0  0  0  0
   -6.8970   -1.0620  -18.8740 C   0  0  0  0  0  0  0  0  0  0  0  0
   -6.2120   -0.5520  -17.8240 N   0  0  0  0  0  0  0  0  0  0  0  0
   -5.1760    0.2070  -18.0890 C   0  0  0  0  0  0  0  0  0  0  0  0
   -4.7350    0.5210  -19.4060 C   0  0  0  0  0  0  0  0  0  0  0  0
   -3.6110    1.3620  -19.6360 C   0  0  0  0  0  0  0  0  0  0  0  0
   -3.2260    1.6650  -20.9120 C   0  0  0  0  0  0  0  0  0  0  0  0
   -3.9520    1.1540  -22.0120 C   0  0  0  0  0  0  0  0  0  0  0  0
   -5.0410    0.3410  -21.8190 C   0  0  0  0  0  0  0  0  0  0  0  0
   -5.4500   -0.0150  -20.5000 C   0  0  0  0  0  0  0  0  0  0  0  0
   -5.5940   -0.0410  -22.6770 H   0  0  0  0  0  0  0  0  0  0  0  0
   -3.6380    1.4040  -23.0210 H   0  0  0  0  0  0  0  0  0  0  0  0
   -2.3680    2.3090  -21.0900 H   0  0  0  0  0  0  0  0  0  0  0  0
   -3.0800    1.7600  -18.7750 H   0  0  0  0  0  0  0  0  0  0  0  0
   -4.6310    0.6110  -17.2360 H   0  0  0  0  0  0  0  0  0  0  0  0
   -7.7550   -1.6800  -18.6150 H   0  0  0  0  0  0  0  0  0  0  0  0
   -6.8180   -2.4050  -22.0670 C   0  0  0  0  0  0  0  0  0  0  0  0
   -5.7120   -2.8960  -21.9550 O   0  0  0  0  0  0  0  0  0  0  0  0
   -7.8580   -2.6890  -23.1760 C   0  0  1  0  0  0  0  0  0  0  0  0
   -7.9940   -4.2110  -23.3940 C   0  0  0  0  0  0  0  0  0  0  0  0
   -6.7930   -4.7780  -23.9800 N   0  0  0  0  0  0  0  0  0  0  0  0
   -6.2090   -5.9500  -23.3320 C   0  0  0  0  0  0  0  0  0  0  0  0
   -7.1740   -7.0870  -23.3330 C   0  0  0  0  0  0  0  0  0  0  0  0
   -7.8330   -7.6250  -22.3320 N   0  0  0  0  0  0  0  0  0  0  0  0
   -8.7780   -8.4050  -22.9010 N   0  0  0  0  0  0  0  0  0  0  0  0
   -8.7020   -8.3710  -24.1790 N   0  0  0  0  0  0  0  0  0  0  0  0
   -7.6740   -7.5650  -24.4810 N   0  0  0  0  0  0  0  0  0  0  0  0
   -7.1820   -7.4190  -25.8340 C   0  0  0  0  0  0  0  0  0  0  0  0
   -7.4510   -6.4390  -26.2360 H   0  0  0  0  0  0  0  0  0  0  0  0
   -6.0940   -7.5320  -25.8620 H   0  0  0  0  0  0  0  0  0  0  0  0
   -7.6640   -8.2150  -26.3910 H   0  0  0  0  0  0  0  0  0  0  0  0
   -5.9490   -5.7110  -22.2940 H   0  0  0  0  0  0  0  0  0  0  0  0
   -5.3220   -6.1960  -23.9190 H   0  0  0  0  0  0  0  0  0  0  0  0
   -6.2190   -4.2340  -25.0910 C   0  0  0  0  0  0  0  0  0  0  0  0
   -5.4120   -4.8360  -25.7920 O   0  0  0  0  0  0  0  0  0  0  0  0
   -6.6140   -2.8200  -25.3930 C   0  0  0  0  0  0  0  0  0  0  0  0
   -6.1310   -2.2520  -26.5710 C   0  0  0  0  0  0  0  0  0  0  0  0
   -6.3620   -0.9190  -26.8460 C   0  0  0  0  0  0  0  0  0  0  0  0
   -7.0680   -0.1680  -25.9150 C   0  0  0  0  0  0  0  0  0  0  0  0
   -7.2720    1.1360  -26.1710 F   0  0  0  0  0  0  0  0  0  0  0  0
   -7.5640   -0.7070  -24.7450 C   0  0  0  0  0  0  0  0  0  0  0  0
   -7.3650   -2.0690  -24.4810 C   0  0  0  0  0  0  0  0  0  0  0  0
   -8.0910   -0.0440  -24.0670 H   0  0  0  0  0  0  0  0  0  0  0  0
   -5.9940   -0.4390  -27.7430 H   0  0  0  0  0  0  0  0  0  0  0  0
   -5.5550   -2.8910  -27.2330 H   0  0  0  0  0  0  0  0  0  0  0  0
   -8.8660   -4.4020  -24.0400 H   0  0  0  0  0  0  0  0  0  0  0  0
   -8.1360   -4.7070  -22.4340 H   0  0  0  0  0  0  0  0  0  0  0  0
   -8.7070    0.0110  -21.8600 H   0  0  0  0  0  0  0  0  0  0  0  0
   -9.3340   -1.1230  -20.6670 H   0  0  0  0  0  0  0  0  0  0  0  0
   -9.6450   -1.4690  -23.4560 H   0  0  0  0  0  0  0  0  0  0  0  0
  -10.6190   -3.6520  -22.8380 H   0  0  0  0  0  0  0  0  0  0  0  0
  -11.0890   -2.3970  -21.6930 H   0  0  0  0  0  0  0  0  0  0  0  0
   -9.8500   -3.5780  -21.2430 H   0  0  0  0  0  0  0  0  0  0  0  0
  1  2  1  0  0  0  0
  1 55  1  0  0  0  0
  1 56  1  0  0  0  0
  1 57  1  0  0  0  0
  2  3  1  0  0  0  0
  2 23  1  0  0  0  0
  2 54  1  6  0  0  0
  3  4  1  0  0  0  0
  3 52  1  0  0  0  0
  3 53  1  0  0  0  0
  4  5  1  0  0  0  0
  4 21  1  0  0  0  0
  5  6  2  0  0  0  0
  5 14  1  0  0  0  0
  6  7  1  0  0  0  0
  6 20  1  0  0  0  0
  7  8  2  0  0  0  0
  8  9  1  0  0  0  0
  8 19  1  0  0  0  0
  9 10  2  0  0  0  0
  9 14  1  0  0  0  0
 10 11  1  0  0  0  0
 10 18  1  0  0  0  0
 11 12  2  0  0  0  0
 11 17  1  0  0  0  0
 12 13  1  0  0  0  0
 12 16  1  0  0  0  0
 13 14  2  0  0  0  0
 13 15  1  0  0  0  0
 21 22  2  0  0  0  0
 23 21  1  1  0  0  0
 23 24  1  0  0  0  0
 23 46  1  0  0  0  0
 24 25  1  0  0  0  0
 24 50  1  0  0  0  0
 24 51  1  0  0  0  0
 25 26  1  0  0  0  0
 25 38  1  0  0  0  0
 26 27  1  0  0  0  0
 26 36  1  0  0  0  0
 26 37  1  0  0  0  0
 27 28  2  0  0  0  0
 27 31  1  0  0  0  0
 28 29  1  0  0  0  0
 29 30  2  0  0  0  0
 30 31  1  0  0  0  0
 31 32  1  0  0  0  0
 32 33  1  0  0  0  0
 32 34  1  0  0  0  0
 32 35  1  0  0  0  0
 38 39  2  0  0  0  0
 38 40  1  0  0  0  0
 40 41  2  0  0  0  0
 40 46  1  0  0  0  0
 41 42  1  0  0  0  0
 41 49  1  0  0  0  0
 42 43  2  0  0  0  0
 42 48  1  0  0  0  0
 43 44  1  0  0  0  0
 43 45  1  0  0  0  0
 45 46  2  0  0  0  0
 45 47  1  0  0  0  0
M  END
>  <MODEL>
       1

$$$$
