tmp_first_model_9_11.pdb
 OpenBabel08272521403D

 48 52  0  0  0  0  0  0  0  0999 V2000
  -10.1400   -0.9090  -23.5910 C   0  0  0  0  0  0  0  0  0  0  0  0
   -9.0960   -1.3800  -22.7030 N   0  0  0  0  0  0  0  0  0  0  0  0
   -8.3760   -0.5110  -21.9290 C   0  0  0  0  0  0  0  0  0  0  0  0
   -8.4980    0.6860  -21.8480 O   0  0  0  0  0  0  0  0  0  0  0  0
   -7.4520   -1.2870  -21.2150 N   0  0  0  0  0  0  0  0  0  0  0  0
   -6.6160   -0.7590  -20.1940 C   0  0  0  0  0  0  0  0  0  0  0  0
   -6.9180   -1.0140  -18.8840 C   0  0  0  0  0  0  0  0  0  0  0  0
   -6.2260   -0.5220  -17.8300 N   0  0  0  0  0  0  0  0  0  0  0  0
   -5.1950    0.2440  -18.0850 C   0  0  0  0  0  0  0  0  0  0  0  0
   -4.7500    0.5690  -19.3990 C   0  0  0  0  0  0  0  0  0  0  0  0
   -3.6080    1.3830  -19.6310 C   0  0  0  0  0  0  0  0  0  0  0  0
   -3.1930    1.6370  -20.9090 C   0  0  0  0  0  0  0  0  0  0  0  0
   -3.9000    1.1060  -22.0080 C   0  0  0  0  0  0  0  0  0  0  0  0
   -5.0170    0.3320  -21.8100 C   0  0  0  0  0  0  0  0  0  0  0  0
   -5.4740    0.0480  -20.4960 C   0  0  0  0  0  0  0  0  0  0  0  0
   -5.5530   -0.0770  -22.6590 H   0  0  0  0  0  0  0  0  0  0  0  0
   -3.5560    1.3050  -23.0190 H   0  0  0  0  0  0  0  0  0  0  0  0
   -2.3190    2.2550  -21.0900 H   0  0  0  0  0  0  0  0  0  0  0  0
   -3.0900    1.8080  -18.7760 H   0  0  0  0  0  0  0  0  0  0  0  0
   -4.6480    0.6330  -17.2260 H   0  0  0  0  0  0  0  0  0  0  0  0
   -7.7720   -1.6430  -18.6480 H   0  0  0  0  0  0  0  0  0  0  0  0
   -7.6390   -2.6420  -21.4430 C   0  0  0  0  0  0  0  0  0  0  0  0
   -6.9650   -3.5290  -20.9740 O   0  0  0  0  0  0  0  0  0  0  0  0
   -8.7770   -2.7640  -22.4420 C   0  0  0  0  0  0  0  0  0  0  0  0
   -8.4460   -3.7160  -23.6110 C   0  0  0  0  0  0  0  0  0  0  0  0
   -9.6620   -4.5090  -23.3530 N   0  0  0  0  0  0  0  0  0  0  0  0
  -10.7930   -4.6120  -24.6130 S   0  0  0  0  0  0  0  0  0  0  0  0
  -10.7530   -3.3830  -25.3980 O   0  0  0  0  0  0  0  0  0  0  0  0
  -12.0430   -5.0440  -24.0160 O   0  0  0  0  0  0  0  0  0  0  0  0
  -10.1050   -5.9040  -25.6470 C   0  0  0  0  0  0  0  0  0  0  0  0
   -9.3840   -5.5600  -26.7900 C   0  0  0  0  0  0  0  0  0  0  0  0
   -8.8810   -6.5700  -27.6090 C   0  0  0  0  0  0  0  0  0  0  0  0
   -9.0910   -7.9080  -27.2880 C   0  0  0  0  0  0  0  0  0  0  0  0
   -9.7630   -8.2320  -26.1180 C   0  0  0  0  0  0  0  0  0  0  0  0
  -10.2690   -7.2370  -25.2880 C   0  0  0  0  0  0  0  0  0  0  0  0
  -10.7780   -7.4930  -24.3690 H   0  0  0  0  0  0  0  0  0  0  0  0
   -9.8910   -9.2780  -25.8780 H   0  0  0  0  0  0  0  0  0  0  0  0
   -8.7580   -8.6960  -27.9630 H   0  0  0  0  0  0  0  0  0  0  0  0
   -8.3080   -6.3220  -28.4990 H   0  0  0  0  0  0  0  0  0  0  0  0
   -9.2770   -4.5100  -27.0560 H   0  0  0  0  0  0  0  0  0  0  0  0
   -9.9640   -3.7190  -22.1160 C   0  0  0  0  0  0  0  0  0  0  0  0
   -9.7970   -4.3320  -21.2300 H   0  0  0  0  0  0  0  0  0  0  0  0
  -10.9580   -3.2640  -22.0790 H   0  0  0  0  0  0  0  0  0  0  0  0
   -8.3760   -3.2750  -24.6060 H   0  0  0  0  0  0  0  0  0  0  0  0
   -7.5720   -4.3270  -23.3850 H   0  0  0  0  0  0  0  0  0  0  0  0
  -10.6890   -0.1040  -23.0970 H   0  0  0  0  0  0  0  0  0  0  0  0
   -9.7150   -0.5250  -24.5260 H   0  0  0  0  0  0  0  0  0  0  0  0
  -10.8150   -1.7350  -23.8200 H   0  0  0  0  0  0  0  0  0  0  0  0
  1  2  1  0  0  0  0
  1 46  1  0  0  0  0
  1 47  1  0  0  0  0
  1 48  1  0  0  0  0
  2  3  1  0  0  0  0
  2 24  1  0  0  0  0
  3  4  2  0  0  0  0
  3  5  1  0  0  0  0
  5  6  1  0  0  0  0
  5 22  1  0  0  0  0
  6  7  2  0  0  0  0
  6 15  1  0  0  0  0
  7  8  1  0  0  0  0
  7 21  1  0  0  0  0
  8  9  2  0  0  0  0
  9 10  1  0  0  0  0
  9 20  1  0  0  0  0
 10 11  2  0  0  0  0
 10 15  1  0  0  0  0
 11 12  1  0  0  0  0
 11 19  1  0  0  0  0
 12 13  2  0  0  0  0
 12 18  1  0  0  0  0
 13 14  1  0  0  0  0
 13 17  1  0  0  0  0
 14 15  2  0  0  0  0
 14 16  1  0  0  0  0
 22 23  2  0  0  0  0
 22 24  1  0  0  0  0
 24 25  1  0  0  0  0
 24 41  1  0  0  0  0
 25 26  1  0  0  0  0
 25 44  1  0  0  0  0
 25 45  1  0  0  0  0
 26 27  1  0  0  0  0
 26 41  1  0  0  0  0
 27 28  2  0  0  0  0
 27 29  2  0  0  0  0
 27 30  1  0  0  0  0
 30 31  2  0  0  0  0
 30 35  1  0  0  0  0
 31 32  1  0  0  0  0
 31 40  1  0  0  0  0
 32 33  2  0  0  0  0
 32 39  1  0  0  0  0
 33 34  1  0  0  0  0
 33 38  1  0  0  0  0
 34 35  2  0  0  0  0
 34 37  1  0  0  0  0
 35 36  1  0  0  0  0
 41 42  1  0  0  0  0
 41 43  1  0  0  0  0
M  END
>  <MODEL>
       1

$$$$
