tmp_first_model_10_90.pdb
 OpenBabel08272522163D

 64 68  0  0  1  0  0  0  0  0999 V2000
   -7.5230    3.2310  -22.0210 C   0  0  0  0  0  0  0  0  0  0  0  0
   -8.6400    2.6710  -22.7630 N   0  0  0  0  0  0  0  0  0  0  0  0
   -8.3770    1.8800  -23.8420 C   0  0  0  0  0  0  0  0  0  0  0  0
   -7.2280    1.6450  -24.1920 O   0  0  0  0  0  0  0  0  0  0  0  0
   -9.5540    1.2790  -24.6230 C   0  0  0  0  0  0  0  0  0  0  0  0
  -10.0200    0.0600  -23.9850 N   0  0  0  0  0  0  0  0  0  0  0  0
   -9.1510   -1.1090  -23.9560 C   0  0  0  0  0  0  0  0  0  0  0  0
   -9.2750   -1.8720  -22.6070 C   0  0  2  0  0  0  0  0  0  0  0  0
   -8.7000   -0.9590  -21.4910 C   0  0  0  0  0  0  0  0  0  0  0  0
   -9.2190    0.0260  -21.0010 O   0  0  0  0  0  0  0  0  0  0  0  0
   -7.4390   -1.4150  -21.1640 N   0  0  0  0  0  0  0  0  0  0  0  0
   -6.6640   -0.8020  -20.1480 C   0  0  0  0  0  0  0  0  0  0  0  0
   -6.9520   -1.0640  -18.8310 C   0  0  0  0  0  0  0  0  0  0  0  0
   -6.2370   -0.5880  -17.7850 N   0  0  0  0  0  0  0  0  0  0  0  0
   -5.1940    0.1610  -18.0570 C   0  0  0  0  0  0  0  0  0  0  0  0
   -4.8020    0.5400  -19.3720 C   0  0  0  0  0  0  0  0  0  0  0  0
   -3.7230    1.4350  -19.6060 C   0  0  0  0  0  0  0  0  0  0  0  0
   -3.4680    1.8960  -20.8680 C   0  0  0  0  0  0  0  0  0  0  0  0
   -4.2700    1.4810  -21.9530 C   0  0  0  0  0  0  0  0  0  0  0  0
   -5.2790    0.5610  -21.7650 C   0  0  0  0  0  0  0  0  0  0  0  0
   -5.5760    0.0740  -20.4620 C   0  0  0  0  0  0  0  0  0  0  0  0
   -5.9000    0.2760  -22.6080 H   0  0  0  0  0  0  0  0  0  0  0  0
   -4.0800    1.8700  -22.9510 H   0  0  0  0  0  0  0  0  0  0  0  0
   -2.6670    2.6110  -21.0390 H   0  0  0  0  0  0  0  0  0  0  0  0
   -3.1360    1.7670  -18.7540 H   0  0  0  0  0  0  0  0  0  0  0  0
   -4.6330    0.5580  -17.2120 H   0  0  0  0  0  0  0  0  0  0  0  0
   -7.7890   -1.7110  -18.5810 H   0  0  0  0  0  0  0  0  0  0  0  0
   -6.9880   -2.5380  -21.9600 C   0  0  0  0  0  0  0  0  0  0  0  0
   -8.3120   -3.0940  -22.5150 C   0  0  2  0  0  0  0  0  0  0  0  0
   -8.1660   -3.9030  -23.8040 C   0  0  0  0  0  0  0  0  0  0  0  0
   -7.2000   -5.3830  -23.5570 S   0  0  0  0  0  0  0  0  0  0  0  0
   -7.8710   -6.1810  -22.5400 O   0  0  0  0  0  0  0  0  0  0  0  0
   -5.7950   -5.0350  -23.3900 O   0  0  0  0  0  0  0  0  0  0  0  0
   -7.3010   -6.1010  -25.0550 N   0  0  0  0  0  0  0  0  0  0  0  0
   -8.5460   -6.6540  -25.5700 C   0  0  0  0  0  0  0  0  0  0  0  0
   -9.2380   -5.8460  -25.8200 H   0  0  0  0  0  0  0  0  0  0  0  0
   -9.0390   -7.3670  -24.9020 H   0  0  0  0  0  0  0  0  0  0  0  0
   -8.3170   -7.1650  -26.5070 H   0  0  0  0  0  0  0  0  0  0  0  0
   -6.4840   -6.6840  -25.1840 H   0  0  0  0  0  0  0  0  0  0  0  0
   -7.6700   -3.3280  -24.5930 H   0  0  0  0  0  0  0  0  0  0  0  0
   -9.1570   -4.2180  -24.1480 H   0  0  0  0  0  0  0  0  0  0  0  0
   -8.7020   -3.7600  -21.7400 H   0  0  0  0  0  0  0  0  0  0  0  0
   -6.4540   -3.2730  -21.3510 H   0  0  0  0  0  0  0  0  0  0  0  0
   -6.3010   -2.2190  -22.7590 H   0  0  0  0  0  0  0  0  0  0  0  0
  -10.7560   -2.1640  -22.3900 C   0  0  0  0  0  0  0  0  0  0  0  0
  -11.2310   -3.2830  -21.6880 C   0  0  0  0  0  0  0  0  0  0  0  0
  -12.5790   -3.4010  -21.3970 C   0  0  0  0  0  0  0  0  0  0  0  0
  -12.9970   -4.4530  -20.6680 F   0  0  0  0  0  0  0  0  0  0  0  0
  -13.5170   -2.4630  -21.8110 C   0  0  0  0  0  0  0  0  0  0  0  0
  -13.0660   -1.3820  -22.5390 C   0  0  0  0  0  0  0  0  0  0  0  0
  -11.7100   -1.2290  -22.8250 C   0  0  0  0  0  0  0  0  0  0  0  0
  -11.3280   -0.0040  -23.5960 C   0  0  0  0  0  0  0  0  0  0  0  0
  -12.1400    0.8730  -23.8540 O   0  0  0  0  0  0  0  0  0  0  0  0
  -13.7540   -0.6290  -22.9100 H   0  0  0  0  0  0  0  0  0  0  0  0
  -14.5650   -2.5920  -21.5590 H   0  0  0  0  0  0  0  0  0  0  0  0
  -10.5760   -4.0510  -21.2930 H   0  0  0  0  0  0  0  0  0  0  0  0
   -9.4090   -1.7730  -24.7930 H   0  0  0  0  0  0  0  0  0  0  0  0
   -8.1270   -0.7550  -24.0980 H   0  0  0  0  0  0  0  0  0  0  0  0
  -10.4130    1.9550  -24.6650 H   0  0  0  0  0  0  0  0  0  0  0  0
   -9.2170    1.0830  -25.6560 H   0  0  0  0  0  0  0  0  0  0  0  0
   -9.5160    2.5510  -22.2650 H   0  0  0  0  0  0  0  0  0  0  0  0
   -7.8770    4.0320  -21.3700 H   0  0  0  0  0  0  0  0  0  0  0  0
   -7.0350    2.4730  -21.3990 H   0  0  0  0  0  0  0  0  0  0  0  0
   -6.7680    3.6320  -22.7060 H   0  0  0  0  0  0  0  0  0  0  0  0
  1  2  1  0  0  0  0
  1 62  1  0  0  0  0
  1 63  1  0  0  0  0
  1 64  1  0  0  0  0
  2  3  1  0  0  0  0
  2 61  1  0  0  0  0
  3  4  2  0  0  0  0
  3  5  1  0  0  0  0
  5  6  1  0  0  0  0
  5 59  1  0  0  0  0
  5 60  1  0  0  0  0
  6  7  1  0  0  0  0
  6 52  1  0  0  0  0
  7  8  1  0  0  0  0
  7 57  1  0  0  0  0
  7 58  1  0  0  0  0
  8  9  1  1  0  0  0
  8 29  1  0  0  0  0
  8 45  1  0  0  0  0
  9 10  2  0  0  0  0
  9 11  1  0  0  0  0
 11 12  1  0  0  0  0
 11 28  1  0  0  0  0
 12 13  2  0  0  0  0
 12 21  1  0  0  0  0
 13 14  1  0  0  0  0
 13 27  1  0  0  0  0
 14 15  2  0  0  0  0
 15 16  1  0  0  0  0
 15 26  1  0  0  0  0
 16 17  2  0  0  0  0
 16 21  1  0  0  0  0
 17 18  1  0  0  0  0
 17 25  1  0  0  0  0
 18 19  2  0  0  0  0
 18 24  1  0  0  0  0
 19 20  1  0  0  0  0
 19 23  1  0  0  0  0
 20 21  2  0  0  0  0
 20 22  1  0  0  0  0
 28 29  1  0  0  0  0
 28 43  1  0  0  0  0
 28 44  1  0  0  0  0
 29 30  1  0  0  0  0
 29 42  1  1  0  0  0
 30 31  1  0  0  0  0
 30 40  1  0  0  0  0
 30 41  1  0  0  0  0
 31 32  2  0  0  0  0
 31 33  2  0  0  0  0
 31 34  1  0  0  0  0
 34 35  1  0  0  0  0
 34 39  1  0  0  0  0
 35 36  1  0  0  0  0
 35 37  1  0  0  0  0
 35 38  1  0  0  0  0
 45 46  2  0  0  0  0
 45 51  1  0  0  0  0
 46 47  1  0  0  0  0
 46 56  1  0  0  0  0
 47 48  1  0  0  0  0
 47 49  2  0  0  0  0
 49 50  1  0  0  0  0
 49 55  1  0  0  0  0
 50 51  2  0  0  0  0
 50 54  1  0  0  0  0
 51 52  1  0  0  0  0
 52 53  2  0  0  0  0
M  END
>  <MODEL>
       1

$$$$
