tmp_first_model_17_88.pdb
 OpenBabel08282502223D

 40 42  0  0  0  0  0  0  0  0999 V2000
   -8.4100    0.7580  -21.4190 O   0  0  0  0  0  0  0  0  0  0  0  0
   -8.4820   -0.3960  -21.7990 C   0  0  0  0  0  0  0  0  0  0  0  0
   -7.4660   -1.4330  -21.2840 C   0  0  0  0  0  0  0  0  0  0  0  0
   -6.6020   -0.8520  -20.1900 C   0  0  0  0  0  0  0  0  0  0  0  0
   -6.9130   -1.0610  -18.8720 C   0  0  0  0  0  0  0  0  0  0  0  0
   -6.2420   -0.5510  -17.8030 N   0  0  0  0  0  0  0  0  0  0  0  0
   -5.2050    0.2060  -18.0710 C   0  0  0  0  0  0  0  0  0  0  0  0
   -4.7670    0.5240  -19.3830 C   0  0  0  0  0  0  0  0  0  0  0  0
   -3.6390    1.3530  -19.6150 C   0  0  0  0  0  0  0  0  0  0  0  0
   -3.2510    1.6520  -20.8900 C   0  0  0  0  0  0  0  0  0  0  0  0
   -3.9730    1.1380  -21.9870 C   0  0  0  0  0  0  0  0  0  0  0  0
   -5.0680    0.3330  -21.7920 C   0  0  0  0  0  0  0  0  0  0  0  0
   -5.4890   -0.0060  -20.4780 C   0  0  0  0  0  0  0  0  0  0  0  0
   -5.6230   -0.0390  -22.6460 H   0  0  0  0  0  0  0  0  0  0  0  0
   -3.6500    1.3790  -22.9960 H   0  0  0  0  0  0  0  0  0  0  0  0
   -2.3870    2.2860  -21.0690 H   0  0  0  0  0  0  0  0  0  0  0  0
   -3.0960    1.7440  -18.7580 H   0  0  0  0  0  0  0  0  0  0  0  0
   -4.6530    0.6120  -17.2220 H   0  0  0  0  0  0  0  0  0  0  0  0
   -7.7690   -1.6840  -18.6110 H   0  0  0  0  0  0  0  0  0  0  0  0
   -8.0210   -2.2950  -20.8850 H   0  0  0  0  0  0  0  0  0  0  0  0
   -6.8510   -1.8030  -22.1160 H   0  0  0  0  0  0  0  0  0  0  0  0
   -9.4890   -0.8000  -22.6610 N   0  0  0  0  0  0  0  0  0  0  0  0
  -10.6800    0.0590  -22.5720 C   0  0  0  0  0  0  0  0  0  0  0  0
  -11.6270   -0.0950  -23.7460 C   0  0  0  0  0  0  0  0  0  0  0  0
  -11.9720   -1.5660  -23.9760 C   0  0  0  0  0  0  0  0  0  0  0  0
  -12.9180   -1.7010  -25.1610 C   0  0  0  0  0  0  0  0  0  0  0  0
  -14.1290   -1.1470  -24.8550 F   0  0  0  0  0  0  0  0  0  0  0  0
  -12.4270   -1.0040  -26.2330 F   0  0  0  0  0  0  0  0  0  0  0  0
  -13.0900   -2.7390  -25.4830 H   0  0  0  0  0  0  0  0  0  0  0  0
  -10.6710   -2.3600  -24.1400 C   0  0  0  0  0  0  0  0  0  0  0  0
   -9.7940   -2.2200  -22.8930 C   0  0  0  0  0  0  0  0  0  0  0  0
   -8.8730   -2.7990  -23.0300 H   0  0  0  0  0  0  0  0  0  0  0  0
  -10.3140   -2.6680  -22.0210 H   0  0  0  0  0  0  0  0  0  0  0  0
  -10.1100   -1.9930  -25.0070 H   0  0  0  0  0  0  0  0  0  0  0  0
  -10.8760   -3.4200  -24.3350 H   0  0  0  0  0  0  0  0  0  0  0  0
  -12.5180   -1.9510  -23.0960 H   0  0  0  0  0  0  0  0  0  0  0  0
  -11.1980    0.3280  -24.6620 H   0  0  0  0  0  0  0  0  0  0  0  0
  -12.5470    0.4590  -23.5290 H   0  0  0  0  0  0  0  0  0  0  0  0
  -11.2120   -0.2130  -21.6490 H   0  0  0  0  0  0  0  0  0  0  0  0
  -10.3430    1.0920  -22.4620 H   0  0  0  0  0  0  0  0  0  0  0  0
  1  2  2  0  0  0  0
  2  3  1  0  0  0  0
  2 22  1  0  0  0  0
  3  4  1  0  0  0  0
  3 20  1  0  0  0  0
  3 21  1  0  0  0  0
  4  5  2  0  0  0  0
  4 13  1  0  0  0  0
  5  6  1  0  0  0  0
  5 19  1  0  0  0  0
  6  7  2  0  0  0  0
  7  8  1  0  0  0  0
  7 18  1  0  0  0  0
  8  9  2  0  0  0  0
  8 13  1  0  0  0  0
  9 10  1  0  0  0  0
  9 17  1  0  0  0  0
 10 11  2  0  0  0  0
 10 16  1  0  0  0  0
 11 12  1  0  0  0  0
 11 15  1  0  0  0  0
 12 13  2  0  0  0  0
 12 14  1  0  0  0  0
 22 23  1  0  0  0  0
 22 31  1  0  0  0  0
 23 24  1  0  0  0  0
 23 39  1  0  0  0  0
 23 40  1  0  0  0  0
 24 25  1  0  0  0  0
 24 37  1  0  0  0  0
 24 38  1  0  0  0  0
 25 26  1  0  0  0  0
 25 30  1  0  0  0  0
 25 36  1  0  0  0  0
 26 27  1  0  0  0  0
 26 28  1  0  0  0  0
 26 29  1  0  0  0  0
 30 31  1  0  0  0  0
 30 34  1  0  0  0  0
 30 35  1  0  0  0  0
 31 32  1  0  0  0  0
 31 33  1  0  0  0  0
M  END
>  <MODEL>
       1

$$$$
