tmp_first_model_10_62.pdb
 OpenBabel08272522163D

 44 47  0  0  0  0  0  0  0  0999 V2000
   -8.5040    0.7560  -21.4510 O   0  0  0  0  0  0  0  0  0  0  0  0
   -8.5220   -0.4160  -21.7900 C   0  0  0  0  0  0  0  0  0  0  0  0
   -7.4770   -1.4020  -21.2650 C   0  0  0  0  0  0  0  0  0  0  0  0
   -6.6370   -0.8020  -20.1740 C   0  0  0  0  0  0  0  0  0  0  0  0
   -6.9200   -1.0630  -18.8580 C   0  0  0  0  0  0  0  0  0  0  0  0
   -6.2210   -0.5910  -17.7910 N   0  0  0  0  0  0  0  0  0  0  0  0
   -5.2140    0.2080  -18.0530 C   0  0  0  0  0  0  0  0  0  0  0  0
   -4.8210    0.5880  -19.3680 C   0  0  0  0  0  0  0  0  0  0  0  0
   -3.6940    1.4150  -19.6070 C   0  0  0  0  0  0  0  0  0  0  0  0
   -3.4070    1.8580  -20.8710 C   0  0  0  0  0  0  0  0  0  0  0  0
   -4.2110    1.4440  -21.9630 C   0  0  0  0  0  0  0  0  0  0  0  0
   -5.2150    0.5250  -21.7750 C   0  0  0  0  0  0  0  0  0  0  0  0
   -5.5630    0.0900  -20.4650 C   0  0  0  0  0  0  0  0  0  0  0  0
   -5.7700    0.1430  -22.6290 H   0  0  0  0  0  0  0  0  0  0  0  0
   -4.0270    1.8610  -22.9520 H   0  0  0  0  0  0  0  0  0  0  0  0
   -2.5680    2.5270  -21.0460 H   0  0  0  0  0  0  0  0  0  0  0  0
   -3.0910    1.7150  -18.7540 H   0  0  0  0  0  0  0  0  0  0  0  0
   -4.6360    0.5830  -17.2050 H   0  0  0  0  0  0  0  0  0  0  0  0
   -7.7600   -1.7070  -18.5990 H   0  0  0  0  0  0  0  0  0  0  0  0
   -8.0200   -2.2730  -20.8770 H   0  0  0  0  0  0  0  0  0  0  0  0
   -6.8550   -1.7590  -22.0980 H   0  0  0  0  0  0  0  0  0  0  0  0
   -9.4840   -0.9240  -22.6180 N   0  0  0  0  0  0  0  0  0  0  0  0
   -9.4670   -2.2700  -23.1970 C   0  0  0  0  0  0  0  0  0  0  0  0
  -10.5100   -2.3910  -24.3060 C   0  0  0  0  0  0  0  0  0  0  0  0
  -11.9220   -2.0420  -23.8080 C   0  0  0  0  0  0  0  0  0  0  0  0
  -12.9250   -1.9620  -24.9480 C   0  0  0  0  0  0  0  0  0  0  0  0
  -14.3850   -2.2110  -24.6890 C   0  0  0  0  0  0  0  0  0  0  0  0
  -13.5740   -3.2050  -25.4740 C   0  0  0  0  0  0  0  0  0  0  0  0
  -13.3110   -4.1530  -25.0120 H   0  0  0  0  0  0  0  0  0  0  0  0
  -13.7780   -3.2620  -26.5360 H   0  0  0  0  0  0  0  0  0  0  0  0
  -15.1220   -1.6360  -25.2440 H   0  0  0  0  0  0  0  0  0  0  0  0
  -14.6790   -2.4650  -23.6750 H   0  0  0  0  0  0  0  0  0  0  0  0
  -12.7080   -1.1980  -25.6910 H   0  0  0  0  0  0  0  0  0  0  0  0
  -11.9030   -0.7440  -22.9630 C   0  0  0  0  0  0  0  0  0  0  0  0
  -10.5610   -0.0240  -23.0020 C   0  0  0  0  0  0  0  0  0  0  0  0
  -10.3540    0.3960  -23.9940 H   0  0  0  0  0  0  0  0  0  0  0  0
  -10.5260    0.8070  -22.2980 H   0  0  0  0  0  0  0  0  0  0  0  0
  -12.1210   -0.9980  -21.9220 H   0  0  0  0  0  0  0  0  0  0  0  0
  -12.6930   -0.0530  -23.2830 H   0  0  0  0  0  0  0  0  0  0  0  0
  -12.2450   -2.8640  -23.1510 H   0  0  0  0  0  0  0  0  0  0  0  0
  -10.2340   -1.7120  -25.1180 H   0  0  0  0  0  0  0  0  0  0  0  0
  -10.4870   -3.4050  -24.7230 H   0  0  0  0  0  0  0  0  0  0  0  0
   -9.6670   -3.0320  -22.4300 H   0  0  0  0  0  0  0  0  0  0  0  0
   -8.4720   -2.4810  -23.6060 H   0  0  0  0  0  0  0  0  0  0  0  0
  1  2  2  0  0  0  0
  2  3  1  0  0  0  0
  2 22  1  0  0  0  0
  3  4  1  0  0  0  0
  3 20  1  0  0  0  0
  3 21  1  0  0  0  0
  4  5  2  0  0  0  0
  4 13  1  0  0  0  0
  5  6  1  0  0  0  0
  5 19  1  0  0  0  0
  6  7  2  0  0  0  0
  7  8  1  0  0  0  0
  7 18  1  0  0  0  0
  8  9  2  0  0  0  0
  8 13  1  0  0  0  0
  9 10  1  0  0  0  0
  9 17  1  0  0  0  0
 10 11  2  0  0  0  0
 10 16  1  0  0  0  0
 11 12  1  0  0  0  0
 11 15  1  0  0  0  0
 12 13  2  0  0  0  0
 12 14  1  0  0  0  0
 22 23  1  0  0  0  0
 22 35  1  0  0  0  0
 23 24  1  0  0  0  0
 23 43  1  0  0  0  0
 23 44  1  0  0  0  0
 24 25  1  0  0  0  0
 24 41  1  0  0  0  0
 24 42  1  0  0  0  0
 25 26  1  0  0  0  0
 25 34  1  0  0  0  0
 25 40  1  0  0  0  0
 26 27  1  0  0  0  0
 26 28  1  0  0  0  0
 26 33  1  0  0  0  0
 27 28  1  0  0  0  0
 27 31  1  0  0  0  0
 27 32  1  0  0  0  0
 28 29  1  0  0  0  0
 28 30  1  0  0  0  0
 34 35  1  0  0  0  0
 34 38  1  0  0  0  0
 34 39  1  0  0  0  0
 35 36  1  0  0  0  0
 35 37  1  0  0  0  0
M  END
>  <MODEL>
       1

$$$$
