tmp_first_model_12_45.pdb
 OpenBabel08272523333D

 66 71  0  0  1  0  0  0  0  0999 V2000
   -7.9700    2.5670  -21.9620 C   0  0  0  0  0  0  0  0  0  0  0  0
   -8.8760    2.2160  -23.0390 N   0  0  0  0  0  0  0  0  0  0  0  0
   -8.3950    1.5760  -24.1340 C   0  0  0  0  0  0  0  0  0  0  0  0
   -7.2000    1.4090  -24.3540 O   0  0  0  0  0  0  0  0  0  0  0  0
   -9.4730    0.9740  -25.0470 C   0  0  0  0  0  0  0  0  0  0  0  0
  -10.0930   -0.1180  -24.3200 N   0  0  0  0  0  0  0  0  0  0  0  0
   -9.2940   -1.3120  -24.1140 C   0  0  0  0  0  0  0  0  0  0  0  0
   -9.4560   -1.9140  -22.6930 C   0  0  2  0  0  0  0  0  0  0  0  0
   -8.9100   -0.9540  -21.6020 C   0  0  0  0  0  0  0  0  0  0  0  0
   -9.5340   -0.0800  -21.0340 O   0  0  0  0  0  0  0  0  0  0  0  0
   -7.5970   -1.2870  -21.3520 N   0  0  0  0  0  0  0  0  0  0  0  0
   -6.8500   -0.7320  -20.2800 C   0  0  0  0  0  0  0  0  0  0  0  0
   -7.1560   -1.0580  -18.9790 C   0  0  0  0  0  0  0  0  0  0  0  0
   -6.4290   -0.6590  -17.9090 N   0  0  0  0  0  0  0  0  0  0  0  0
   -5.3830    0.0990  -18.1310 C   0  0  0  0  0  0  0  0  0  0  0  0
   -4.9760    0.5460  -19.4200 C   0  0  0  0  0  0  0  0  0  0  0  0
   -3.8710    1.4210  -19.6050 C   0  0  0  0  0  0  0  0  0  0  0  0
   -3.5230    1.8490  -20.8570 C   0  0  0  0  0  0  0  0  0  0  0  0
   -4.2520    1.4110  -21.9800 C   0  0  0  0  0  0  0  0  0  0  0  0
   -5.3220    0.5560  -21.8270 C   0  0  0  0  0  0  0  0  0  0  0  0
   -5.7210    0.1090  -20.5390 C   0  0  0  0  0  0  0  0  0  0  0  0
   -5.8890    0.2480  -22.6990 H   0  0  0  0  0  0  0  0  0  0  0  0
   -3.9800    1.7650  -22.9700 H   0  0  0  0  0  0  0  0  0  0  0  0
   -2.6820    2.5230  -20.9940 H   0  0  0  0  0  0  0  0  0  0  0  0
   -3.3180    1.7400  -18.7260 H   0  0  0  0  0  0  0  0  0  0  0  0
   -4.7970    0.4010  -17.2640 H   0  0  0  0  0  0  0  0  0  0  0  0
   -8.0110   -1.6960  -18.7590 H   0  0  0  0  0  0  0  0  0  0  0  0
   -7.1700   -2.4620  -22.0890 C   0  0  0  0  0  0  0  0  0  0  0  0
   -8.5030   -3.1310  -22.4740 C   0  0  2  0  0  0  0  0  0  0  0  0
   -8.3580   -4.1300  -23.6340 C   0  0  0  0  0  0  0  0  0  0  0  0
   -7.4650   -5.3210  -23.3490 C   0  0  0  0  0  0  0  0  0  0  0  0
   -6.0940   -5.2720  -23.6220 C   0  0  0  0  0  0  0  0  0  0  0  0
   -5.2850   -6.3930  -23.4520 C   0  0  0  0  0  0  0  0  0  0  0  0
   -5.8300   -7.5850  -22.9810 C   0  0  0  0  0  0  0  0  0  0  0  0
   -7.1830   -7.6340  -22.6590 C   0  0  0  0  0  0  0  0  0  0  0  0
   -7.9880   -6.5120  -22.8420 C   0  0  0  0  0  0  0  0  0  0  0  0
   -9.0490   -6.5780  -22.6100 H   0  0  0  0  0  0  0  0  0  0  0  0
   -7.6210   -8.5570  -22.2860 H   0  0  0  0  0  0  0  0  0  0  0  0
   -5.2030   -8.4680  -22.8650 H   0  0  0  0  0  0  0  0  0  0  0  0
   -4.2290   -6.3420  -23.7090 H   0  0  0  0  0  0  0  0  0  0  0  0
   -5.6550   -4.3450  -23.9890 H   0  0  0  0  0  0  0  0  0  0  0  0
   -9.3590   -4.4750  -23.9190 H   0  0  0  0  0  0  0  0  0  0  0  0
   -7.9540   -3.5990  -24.5070 H   0  0  0  0  0  0  0  0  0  0  0  0
   -8.8620   -3.6650  -21.5820 H   0  0  0  0  0  0  0  0  0  0  0  0
   -6.5350   -3.1040  -21.4770 H   0  0  0  0  0  0  0  0  0  0  0  0
   -6.5880   -2.1760  -22.9820 H   0  0  0  0  0  0  0  0  0  0  0  0
  -10.9410   -2.0710  -22.4660 C   0  0  0  0  0  0  0  0  0  0  0  0
  -11.5020   -3.0990  -21.7090 C   0  0  0  0  0  0  0  0  0  0  0  0
  -12.8270   -3.0010  -21.3110 C   0  0  0  0  0  0  0  0  0  0  0  0
  -13.5130   -4.2070  -20.2830 Cl  0  0  0  0  0  0  0  0  0  0  0  0
  -13.6390   -1.9200  -21.6480 C   0  0  0  0  0  0  0  0  0  0  0  0
  -13.0990   -0.9310  -22.4330 C   0  0  0  0  0  0  0  0  0  0  0  0
  -11.7820   -1.0150  -22.8620 C   0  0  0  0  0  0  0  0  0  0  0  0
  -11.2800    0.1100  -23.7020 C   0  0  0  0  0  0  0  0  0  0  0  0
  -11.8710    1.1860  -23.8050 O   0  0  0  0  0  0  0  0  0  0  0  0
  -13.6820   -0.0680  -22.7310 H   0  0  0  0  0  0  0  0  0  0  0  0
  -14.6560   -1.8650  -21.2770 H   0  0  0  0  0  0  0  0  0  0  0  0
  -10.9110   -3.9520  -21.3890 H   0  0  0  0  0  0  0  0  0  0  0  0
   -8.2480   -1.0420  -24.2890 H   0  0  0  0  0  0  0  0  0  0  0  0
   -9.5860   -2.0640  -24.8560 H   0  0  0  0  0  0  0  0  0  0  0  0
   -9.0190    0.6040  -25.9730 H   0  0  0  0  0  0  0  0  0  0  0  0
  -10.2720    1.6780  -25.2950 H   0  0  0  0  0  0  0  0  0  0  0  0
   -9.8610    2.1040  -22.8090 H   0  0  0  0  0  0  0  0  0  0  0  0
   -8.2310    3.5190  -21.4870 H   0  0  0  0  0  0  0  0  0  0  0  0
   -7.9290    1.7700  -21.2050 H   0  0  0  0  0  0  0  0  0  0  0  0
   -6.9830    2.6980  -22.4070 H   0  0  0  0  0  0  0  0  0  0  0  0
  1  2  1  0  0  0  0
  1 64  1  0  0  0  0
  1 65  1  0  0  0  0
  1 66  1  0  0  0  0
  2  3  1  0  0  0  0
  2 63  1  0  0  0  0
  3  4  2  0  0  0  0
  3  5  1  0  0  0  0
  5  6  1  0  0  0  0
  5 61  1  0  0  0  0
  5 62  1  0  0  0  0
  6  7  1  0  0  0  0
  6 54  1  0  0  0  0
  7  8  1  0  0  0  0
  7 59  1  0  0  0  0
  7 60  1  0  0  0  0
  8  9  1  1  0  0  0
  8 29  1  0  0  0  0
  8 47  1  0  0  0  0
  9 10  2  0  0  0  0
  9 11  1  0  0  0  0
 11 12  1  0  0  0  0
 11 28  1  0  0  0  0
 12 13  2  0  0  0  0
 12 21  1  0  0  0  0
 13 14  1  0  0  0  0
 13 27  1  0  0  0  0
 14 15  2  0  0  0  0
 15 16  1  0  0  0  0
 15 26  1  0  0  0  0
 16 17  2  0  0  0  0
 16 21  1  0  0  0  0
 17 18  1  0  0  0  0
 17 25  1  0  0  0  0
 18 19  2  0  0  0  0
 18 24  1  0  0  0  0
 19 20  1  0  0  0  0
 19 23  1  0  0  0  0
 20 21  2  0  0  0  0
 20 22  1  0  0  0  0
 28 29  1  0  0  0  0
 28 45  1  0  0  0  0
 28 46  1  0  0  0  0
 29 30  1  0  0  0  0
 29 44  1  1  0  0  0
 30 31  1  0  0  0  0
 30 42  1  0  0  0  0
 30 43  1  0  0  0  0
 31 32  2  0  0  0  0
 31 36  1  0  0  0  0
 32 33  1  0  0  0  0
 32 41  1  0  0  0  0
 33 34  2  0  0  0  0
 33 40  1  0  0  0  0
 34 35  1  0  0  0  0
 34 39  1  0  0  0  0
 35 36  2  0  0  0  0
 35 38  1  0  0  0  0
 36 37  1  0  0  0  0
 47 48  2  0  0  0  0
 47 53  1  0  0  0  0
 48 49  1  0  0  0  0
 48 58  1  0  0  0  0
 49 50  1  0  0  0  0
 49 51  2  0  0  0  0
 51 52  1  0  0  0  0
 51 57  1  0  0  0  0
 52 53  2  0  0  0  0
 52 56  1  0  0  0  0
 53 54  1  0  0  0  0
 54 55  2  0  0  0  0
M  END
>  <MODEL>
       1

$$$$
