tmp_first_model_16_5.pdb
 OpenBabel08282501503D

 58 61  0  0  1  0  0  0  0  0999 V2000
   -8.4690   -3.7180  -21.8280 C   0  0  0  0  0  0  0  0  0  0  0  0
   -8.1580   -3.8500  -22.0800 C   0  0  0  0  0  0  0  0  0  0  0  0
   -6.9030   -3.0150  -21.6760 C   0  0  0  0  0  0  0  0  0  0  0  0
   -7.0180   -1.5440  -21.3950 N   0  0  0  0  0  0  0  0  0  0  0  0
   -8.1950   -0.7540  -21.5430 C   0  0  0  0  0  0  0  0  0  0  0  0
   -8.6320   -0.1150  -20.6010 O   0  0  0  0  0  0  0  0  0  0  0  0
   -8.7910   -0.6110  -22.9200 C   0  0  2  0  0  0  0  0  0  0  0  0
   -8.8350    0.8470  -23.4190 C   0  0  0  0  0  0  0  0  0  0  0  0
   -9.1730    0.8170  -24.8290 N   0  0  0  0  0  0  0  0  0  0  0  0
   -8.2280    1.3870  -25.7830 C   0  0  0  0  0  0  0  0  0  0  0  0
   -6.9830    0.4900  -25.8540 C   0  0  0  0  0  0  0  0  0  0  0  0
   -6.0270    0.6690  -25.1130 O   0  0  0  0  0  0  0  0  0  0  0  0
   -7.0560   -0.5510  -26.7260 N   0  0  0  0  0  0  0  0  0  0  0  0
   -5.9850   -1.5240  -26.8260 C   0  0  0  0  0  0  0  0  0  0  0  0
   -6.3200   -2.5280  -26.5460 H   0  0  0  0  0  0  0  0  0  0  0  0
   -5.5670   -1.5470  -27.8380 H   0  0  0  0  0  0  0  0  0  0  0  0
   -5.2030   -1.2120  -26.1310 H   0  0  0  0  0  0  0  0  0  0  0  0
   -7.8930   -0.6710  -27.2780 H   0  0  0  0  0  0  0  0  0  0  0  0
   -8.7350    1.4650  -26.7470 H   0  0  0  0  0  0  0  0  0  0  0  0
   -7.9130    2.3790  -25.4460 H   0  0  0  0  0  0  0  0  0  0  0  0
  -10.0880   -0.0720  -25.3330 C   0  0  0  0  0  0  0  0  0  0  0  0
  -10.3730   -0.0620  -26.5190 O   0  0  0  0  0  0  0  0  0  0  0  0
  -10.7000   -1.0480  -24.3750 C   0  0  0  0  0  0  0  0  0  0  0  0
  -11.8710   -1.7020  -24.7460 C   0  0  0  0  0  0  0  0  0  0  0  0
  -12.5770   -2.4420  -23.8110 C   0  0  0  0  0  0  0  0  0  0  0  0
  -12.1120   -2.4550  -22.4920 C   0  0  0  0  0  0  0  0  0  0  0  0
  -13.0430   -3.3020  -21.2870 Cl  0  0  0  0  0  0  0  0  0  0  0  0
  -10.9520   -1.7830  -22.1160 C   0  0  0  0  0  0  0  0  0  0  0  0
  -10.1530   -1.2150  -23.1050 C   0  0  0  0  0  0  0  0  0  0  0  0
  -10.7210   -1.6450  -21.0630 H   0  0  0  0  0  0  0  0  0  0  0  0
  -13.4780   -2.9810  -24.0850 H   0  0  0  0  0  0  0  0  0  0  0  0
  -12.2210   -1.6020  -25.7670 H   0  0  0  0  0  0  0  0  0  0  0  0
   -7.8500    1.3140  -23.3290 H   0  0  0  0  0  0  0  0  0  0  0  0
   -9.5560    1.4230  -22.8310 H   0  0  0  0  0  0  0  0  0  0  0  0
   -8.1090   -1.1120  -23.6080 H   0  0  0  0  0  0  0  0  0  0  0  0
   -6.2300   -1.1200  -20.2960 C   0  0  0  0  0  0  0  0  0  0  0  0
   -6.5520   -1.5520  -19.0360 C   0  0  0  0  0  0  0  0  0  0  0  0
   -5.9010   -1.1800  -17.9090 N   0  0  0  0  0  0  0  0  0  0  0  0
   -4.8920   -0.3500  -18.0480 C   0  0  0  0  0  0  0  0  0  0  0  0
   -4.4460    0.1710  -19.2990 C   0  0  0  0  0  0  0  0  0  0  0  0
   -3.3470    1.0680  -19.3890 C   0  0  0  0  0  0  0  0  0  0  0  0
   -2.9900    1.6030  -20.5940 C   0  0  0  0  0  0  0  0  0  0  0  0
   -3.7050    1.2640  -21.7660 C   0  0  0  0  0  0  0  0  0  0  0  0
   -4.7560    0.3820  -21.7150 C   0  0  0  0  0  0  0  0  0  0  0  0
   -5.1470   -0.1970  -20.4710 C   0  0  0  0  0  0  0  0  0  0  0  0
   -5.2870    0.1480  -22.6350 H   0  0  0  0  0  0  0  0  0  0  0  0
   -3.4180    1.7110  -22.7120 H   0  0  0  0  0  0  0  0  0  0  0  0
   -2.1580    2.2990  -20.6600 H   0  0  0  0  0  0  0  0  0  0  0  0
   -2.8170    1.3340  -18.4780 H   0  0  0  0  0  0  0  0  0  0  0  0
   -4.3810   -0.0490  -17.1360 H   0  0  0  0  0  0  0  0  0  0  0  0
   -7.4130   -2.2020  -18.8770 H   0  0  0  0  0  0  0  0  0  0  0  0
   -6.6430   -3.5220  -20.7760 H   0  0  0  0  0  0  0  0  0  0  0  0
   -6.1550   -3.1580  -22.4310 H   0  0  0  0  0  0  0  0  0  0  0  0
   -8.5330   -3.5360  -23.5440 C   0  0  0  0  0  0  0  0  0  0  0  0
   -9.4270   -4.0510  -24.1860 O   0  0  0  0  0  0  0  0  0  0  0  0
   -7.5640   -2.8880  -23.9180 O   0  5  0  0  0  0  0  0  0  0  0  0
   -9.6030   -4.0080  -21.6810 H   0  0  0  0  0  0  0  0  0  0  0  0
   -8.9890   -2.9550  -21.2570 H   0  0  0  0  0  0  0  0  0  0  0  0
  1  2  2  0  0  0  0
  1 57  1  0  0  0  0
  1 58  1  0  0  0  0
  2  3  1  0  0  0  0
  2 54  1  0  0  0  0
  3  4  1  0  0  0  0
  3 52  1  0  0  0  0
  3 53  1  0  0  0  0
  4  5  1  0  0  0  0
  4 36  1  0  0  0  0
  5  6  2  0  0  0  0
  5  7  1  0  0  0  0
  7  8  1  0  0  0  0
  7 29  1  0  0  0  0
  7 35  1  6  0  0  0
  8  9  1  0  0  0  0
  8 33  1  0  0  0  0
  8 34  1  0  0  0  0
  9 10  1  0  0  0  0
  9 21  1  0  0  0  0
 10 11  1  0  0  0  0
 10 19  1  0  0  0  0
 10 20  1  0  0  0  0
 11 12  2  0  0  0  0
 11 13  1  0  0  0  0
 13 14  1  0  0  0  0
 13 18  1  0  0  0  0
 14 15  1  0  0  0  0
 14 16  1  0  0  0  0
 14 17  1  0  0  0  0
 21 22  2  0  0  0  0
 21 23  1  0  0  0  0
 23 24  2  0  0  0  0
 23 29  1  0  0  0  0
 24 25  1  0  0  0  0
 24 32  1  0  0  0  0
 25 26  2  0  0  0  0
 25 31  1  0  0  0  0
 26 27  1  0  0  0  0
 26 28  1  0  0  0  0
 28 29  2  0  0  0  0
 28 30  1  0  0  0  0
 36 37  2  0  0  0  0
 36 45  1  0  0  0  0
 37 38  1  0  0  0  0
 37 51  1  0  0  0  0
 38 39  2  0  0  0  0
 39 40  1  0  0  0  0
 39 50  1  0  0  0  0
 40 41  2  0  0  0  0
 40 45  1  0  0  0  0
 41 42  1  0  0  0  0
 41 49  1  0  0  0  0
 42 43  2  0  0  0  0
 42 48  1  0  0  0  0
 43 44  1  0  0  0  0
 43 47  1  0  0  0  0
 44 45  2  0  0  0  0
 44 46  1  0  0  0  0
 54 55  2  0  0  0  0
 54 56  1  0  0  0  0
M  CHG  1  56  -1
M  END
>  <MODEL>
       1

$$$$
