tmp_first_model_1_62.pdb
 OpenBabel08272517043D

 44 47  0  0  0  0  0  0  0  0999 V2000
   -5.5920   -2.9860  -21.6720 O   0  0  0  0  0  0  0  0  0  0  0  0
   -6.7940   -2.8020  -21.7680 C   0  0  0  0  0  0  0  0  0  0  0  0
   -7.4220   -1.4800  -21.2560 C   0  0  0  0  0  0  0  0  0  0  0  0
   -6.5820   -0.8240  -20.1810 C   0  0  0  0  0  0  0  0  0  0  0  0
   -6.8740   -1.0430  -18.8630 C   0  0  0  0  0  0  0  0  0  0  0  0
   -6.1830   -0.5500  -17.8020 N   0  0  0  0  0  0  0  0  0  0  0  0
   -5.1570    0.2200  -18.0670 C   0  0  0  0  0  0  0  0  0  0  0  0
   -4.7210    0.5330  -19.3800 C   0  0  0  0  0  0  0  0  0  0  0  0
   -3.5920    1.3590  -19.6200 C   0  0  0  0  0  0  0  0  0  0  0  0
   -3.1890    1.6330  -20.8980 C   0  0  0  0  0  0  0  0  0  0  0  0
   -3.8990    1.0880  -21.9910 C   0  0  0  0  0  0  0  0  0  0  0  0
   -4.9950    0.2870  -21.7860 C   0  0  0  0  0  0  0  0  0  0  0  0
   -5.4450   -0.0100  -20.4740 C   0  0  0  0  0  0  0  0  0  0  0  0
   -5.5180   -0.1390  -22.6370 H   0  0  0  0  0  0  0  0  0  0  0  0
   -3.5690    1.3080  -23.0040 H   0  0  0  0  0  0  0  0  0  0  0  0
   -2.3270    2.2710  -21.0840 H   0  0  0  0  0  0  0  0  0  0  0  0
   -3.0580    1.7740  -18.7670 H   0  0  0  0  0  0  0  0  0  0  0  0
   -4.6050    0.6280  -17.2150 H   0  0  0  0  0  0  0  0  0  0  0  0
   -7.7220   -1.6700  -18.5860 H   0  0  0  0  0  0  0  0  0  0  0  0
   -7.5640   -0.7920  -22.1010 H   0  0  0  0  0  0  0  0  0  0  0  0
   -8.4250   -1.6850  -20.8500 H   0  0  0  0  0  0  0  0  0  0  0  0
   -7.6320   -3.7640  -22.3060 N   0  0  0  0  0  0  0  0  0  0  0  0
   -8.9780   -3.5140  -22.8040 C   0  0  0  0  0  0  0  0  0  0  0  0
   -9.2710   -4.3250  -24.0640 C   0  0  0  0  0  0  0  0  0  0  0  0
   -9.0030   -5.8180  -23.8640 C   0  0  0  0  0  0  0  0  0  0  0  0
   -9.3590   -6.5980  -25.1320 C   0  0  0  0  0  0  0  0  0  0  0  0
   -8.6140   -6.3640  -26.4200 C   0  0  0  0  0  0  0  0  0  0  0  0
   -8.5080   -7.6910  -25.7210 C   0  0  0  0  0  0  0  0  0  0  0  0
   -8.9940   -8.5500  -26.1830 H   0  0  0  0  0  0  0  0  0  0  0  0
   -7.5630   -7.9380  -25.2460 H   0  0  0  0  0  0  0  0  0  0  0  0
   -9.1610   -6.3180  -27.3610 H   0  0  0  0  0  0  0  0  0  0  0  0
   -7.7430   -5.7140  -26.3810 H   0  0  0  0  0  0  0  0  0  0  0  0
  -10.4310   -6.7450  -25.2650 H   0  0  0  0  0  0  0  0  0  0  0  0
   -7.5650   -6.0030  -23.3810 C   0  0  0  0  0  0  0  0  0  0  0  0
   -7.2880   -5.1760  -22.1360 C   0  0  0  0  0  0  0  0  0  0  0  0
   -7.8610   -5.6080  -21.3020 H   0  0  0  0  0  0  0  0  0  0  0  0
   -6.2350   -5.2310  -21.8610 H   0  0  0  0  0  0  0  0  0  0  0  0
   -7.3760   -7.0590  -23.1600 H   0  0  0  0  0  0  0  0  0  0  0  0
   -6.8560   -5.7220  -24.1670 H   0  0  0  0  0  0  0  0  0  0  0  0
   -9.6710   -6.1700  -23.0670 H   0  0  0  0  0  0  0  0  0  0  0  0
  -10.3110   -4.1650  -24.3640 H   0  0  0  0  0  0  0  0  0  0  0  0
   -8.6540   -3.9580  -24.8920 H   0  0  0  0  0  0  0  0  0  0  0  0
   -9.7310   -3.7630  -22.0380 H   0  0  0  0  0  0  0  0  0  0  0  0
   -9.0790   -2.4510  -23.0280 H   0  0  0  0  0  0  0  0  0  0  0  0
  1  2  2  0  0  0  0
  2  3  1  0  0  0  0
  2 22  1  0  0  0  0
  3  4  1  0  0  0  0
  3 20  1  0  0  0  0
  3 21  1  0  0  0  0
  4  5  2  0  0  0  0
  4 13  1  0  0  0  0
  5  6  1  0  0  0  0
  5 19  1  0  0  0  0
  6  7  2  0  0  0  0
  7  8  1  0  0  0  0
  7 18  1  0  0  0  0
  8  9  2  0  0  0  0
  8 13  1  0  0  0  0
  9 10  1  0  0  0  0
  9 17  1  0  0  0  0
 10 11  2  0  0  0  0
 10 16  1  0  0  0  0
 11 12  1  0  0  0  0
 11 15  1  0  0  0  0
 12 13  2  0  0  0  0
 12 14  1  0  0  0  0
 22 23  1  0  0  0  0
 22 35  1  0  0  0  0
 23 24  1  0  0  0  0
 23 43  1  0  0  0  0
 23 44  1  0  0  0  0
 24 25  1  0  0  0  0
 24 41  1  0  0  0  0
 24 42  1  0  0  0  0
 25 26  1  0  0  0  0
 25 34  1  0  0  0  0
 25 40  1  0  0  0  0
 26 27  1  0  0  0  0
 26 28  1  0  0  0  0
 26 33  1  0  0  0  0
 27 28  1  0  0  0  0
 27 31  1  0  0  0  0
 27 32  1  0  0  0  0
 28 29  1  0  0  0  0
 28 30  1  0  0  0  0
 34 35  1  0  0  0  0
 34 38  1  0  0  0  0
 34 39  1  0  0  0  0
 35 36  1  0  0  0  0
 35 37  1  0  0  0  0
M  END
>  <MODEL>
       1

$$$$
