tmp_first_model_20_54.pdb
 OpenBabel08282503553D

 40 43  0  0  0  0  0  0  0  0999 V2000
   -9.5740   -1.3390  -24.0570 C   0  0  0  0  0  0  0  0  0  0  0  0
   -8.7810   -1.6260  -22.8770 N   0  0  0  0  0  0  0  0  0  0  0  0
   -8.4640   -2.8440  -22.3330 C   0  0  0  0  0  0  0  0  0  0  0  0
   -8.9100   -4.1510  -22.9020 C   0  0  0  0  0  0  0  0  0  0  0  0
   -8.0830   -4.5380  -24.1090 C   0  0  0  0  0  0  0  0  0  0  0  0
   -8.5950   -4.4430  -25.3990 C   0  0  0  0  0  0  0  0  0  0  0  0
   -7.8120   -4.7740  -26.5010 C   0  0  0  0  0  0  0  0  0  0  0  0
   -6.5000   -5.2000  -26.3160 C   0  0  0  0  0  0  0  0  0  0  0  0
   -5.9770   -5.2870  -25.0290 C   0  0  0  0  0  0  0  0  0  0  0  0
   -6.7630   -4.9510  -23.9320 C   0  0  0  0  0  0  0  0  0  0  0  0
   -6.3520   -5.0130  -22.9270 H   0  0  0  0  0  0  0  0  0  0  0  0
   -4.9530   -5.6200  -24.8830 H   0  0  0  0  0  0  0  0  0  0  0  0
   -5.8880   -5.4620  -27.1740 H   0  0  0  0  0  0  0  0  0  0  0  0
   -8.2280   -4.7040  -27.5020 H   0  0  0  0  0  0  0  0  0  0  0  0
   -9.6180   -4.1040  -25.5460 H   0  0  0  0  0  0  0  0  0  0  0  0
   -9.9750   -4.1080  -23.1620 H   0  0  0  0  0  0  0  0  0  0  0  0
   -8.8080   -4.8950  -22.1070 H   0  0  0  0  0  0  0  0  0  0  0  0
   -7.6550   -2.7300  -21.3210 N   0  0  0  0  0  0  0  0  0  0  0  0
   -7.4040   -1.3860  -21.2120 N   0  0  0  0  0  0  0  0  0  0  0  0
   -6.5810   -0.8350  -20.1830 C   0  0  0  0  0  0  0  0  0  0  0  0
   -6.8890   -1.0590  -18.8630 C   0  0  0  0  0  0  0  0  0  0  0  0
   -6.2010   -0.5390  -17.8150 N   0  0  0  0  0  0  0  0  0  0  0  0
   -5.1620    0.2200  -18.0720 C   0  0  0  0  0  0  0  0  0  0  0  0
   -4.7230    0.5310  -19.3890 C   0  0  0  0  0  0  0  0  0  0  0  0
   -3.5870    1.3560  -19.6250 C   0  0  0  0  0  0  0  0  0  0  0  0
   -3.1790    1.6140  -20.9050 C   0  0  0  0  0  0  0  0  0  0  0  0
   -3.8770    1.0550  -21.9980 C   0  0  0  0  0  0  0  0  0  0  0  0
   -4.9720    0.2550  -21.7940 C   0  0  0  0  0  0  0  0  0  0  0  0
   -5.4400   -0.0140  -20.4790 C   0  0  0  0  0  0  0  0  0  0  0  0
   -5.5010   -0.1720  -22.6390 H   0  0  0  0  0  0  0  0  0  0  0  0
   -3.5470    1.2610  -23.0110 H   0  0  0  0  0  0  0  0  0  0  0  0
   -2.3170    2.2460  -21.0970 H   0  0  0  0  0  0  0  0  0  0  0  0
   -3.0480    1.7730  -18.7770 H   0  0  0  0  0  0  0  0  0  0  0  0
   -4.6050    0.6230  -17.2220 H   0  0  0  0  0  0  0  0  0  0  0  0
   -7.7390   -1.6780  -18.5920 H   0  0  0  0  0  0  0  0  0  0  0  0
   -8.1150   -0.6460  -22.1480 C   0  0  0  0  0  0  0  0  0  0  0  0
   -8.1400    0.5560  -22.3060 O   0  0  0  0  0  0  0  0  0  0  0  0
   -9.0050   -1.4810  -24.9820 H   0  0  0  0  0  0  0  0  0  0  0  0
   -9.8960   -0.3000  -24.0230 H   0  0  0  0  0  0  0  0  0  0  0  0
  -10.4720   -1.9610  -24.1010 H   0  0  0  0  0  0  0  0  0  0  0  0
  1  2  1  0  0  0  0
  1 38  1  0  0  0  0
  1 39  1  0  0  0  0
  1 40  1  0  0  0  0
  2  3  1  0  0  0  0
  2 36  1  0  0  0  0
  3  4  1  0  0  0  0
  3 18  2  0  0  0  0
  4  5  1  0  0  0  0
  4 16  1  0  0  0  0
  4 17  1  0  0  0  0
  5  6  2  0  0  0  0
  5 10  1  0  0  0  0
  6  7  1  0  0  0  0
  6 15  1  0  0  0  0
  7  8  2  0  0  0  0
  7 14  1  0  0  0  0
  8  9  1  0  0  0  0
  8 13  1  0  0  0  0
  9 10  2  0  0  0  0
  9 12  1  0  0  0  0
 10 11  1  0  0  0  0
 18 19  1  0  0  0  0
 19 20  1  0  0  0  0
 19 36  1  0  0  0  0
 20 21  2  0  0  0  0
 20 29  1  0  0  0  0
 21 22  1  0  0  0  0
 21 35  1  0  0  0  0
 22 23  2  0  0  0  0
 23 24  1  0  0  0  0
 23 34  1  0  0  0  0
 24 25  2  0  0  0  0
 24 29  1  0  0  0  0
 25 26  1  0  0  0  0
 25 33  1  0  0  0  0
 26 27  2  0  0  0  0
 26 32  1  0  0  0  0
 27 28  1  0  0  0  0
 27 31  1  0  0  0  0
 28 29  2  0  0  0  0
 28 30  1  0  0  0  0
 36 37  2  0  0  0  0
M  END
>  <MODEL>
       1

$$$$
