tmp_first_model_7_28.pdb
 OpenBabel08272520323D

 64 68  0  0  1  0  0  0  0  0999 V2000
   -7.4720    3.2670  -21.9900 C   0  0  0  0  0  0  0  0  0  0  0  0
   -8.5570    2.7080  -22.7800 N   0  0  0  0  0  0  0  0  0  0  0  0
   -8.2560    1.9290  -23.8520 C   0  0  0  0  0  0  0  0  0  0  0  0
   -7.1020    1.6930  -24.1880 O   0  0  0  0  0  0  0  0  0  0  0  0
   -9.4540    1.3480  -24.6200 C   0  0  0  0  0  0  0  0  0  0  0  0
   -9.9470    0.1560  -23.9590 N   0  0  0  0  0  0  0  0  0  0  0  0
   -9.1360   -1.0530  -23.9590 C   0  0  0  0  0  0  0  0  0  0  0  0
   -9.2540   -1.8220  -22.6130 C   0  0  2  0  0  0  0  0  0  0  0  0
   -8.6570   -0.9320  -21.4890 C   0  0  0  0  0  0  0  0  0  0  0  0
   -9.1590    0.0440  -20.9700 O   0  0  0  0  0  0  0  0  0  0  0  0
   -7.4040   -1.4090  -21.1780 N   0  0  0  0  0  0  0  0  0  0  0  0
   -6.6260   -0.8060  -20.1620 C   0  0  0  0  0  0  0  0  0  0  0  0
   -6.9350   -1.0300  -18.8430 C   0  0  0  0  0  0  0  0  0  0  0  0
   -6.2130   -0.5490  -17.8050 N   0  0  0  0  0  0  0  0  0  0  0  0
   -5.1670    0.1910  -18.0800 C   0  0  0  0  0  0  0  0  0  0  0  0
   -4.7430    0.5120  -19.4000 C   0  0  0  0  0  0  0  0  0  0  0  0
   -3.6160    1.3380  -19.6490 C   0  0  0  0  0  0  0  0  0  0  0  0
   -3.2570    1.6550  -20.9320 C   0  0  0  0  0  0  0  0  0  0  0  0
   -4.0130    1.1700  -22.0220 C   0  0  0  0  0  0  0  0  0  0  0  0
   -5.1140    0.3730  -21.8080 C   0  0  0  0  0  0  0  0  0  0  0  0
   -5.4980    0.0120  -20.4870 C   0  0  0  0  0  0  0  0  0  0  0  0
   -5.7180    0.0510  -22.6520 H   0  0  0  0  0  0  0  0  0  0  0  0
   -3.7340    1.4390  -23.0370 H   0  0  0  0  0  0  0  0  0  0  0  0
   -2.4030    2.3010  -21.1150 H   0  0  0  0  0  0  0  0  0  0  0  0
   -3.0730    1.7310  -18.7950 H   0  0  0  0  0  0  0  0  0  0  0  0
   -4.5950    0.5820  -17.2370 H   0  0  0  0  0  0  0  0  0  0  0  0
   -7.8000   -1.6370  -18.5810 H   0  0  0  0  0  0  0  0  0  0  0  0
   -6.9850   -2.5470  -21.9630 C   0  0  0  0  0  0  0  0  0  0  0  0
   -8.3150   -3.0630  -22.5490 C   0  0  2  0  0  0  0  0  0  0  0  0
   -8.1560   -3.8410  -23.8570 C   0  0  0  0  0  0  0  0  0  0  0  0
   -7.4400   -5.4710  -23.6490 S   0  0  0  0  0  0  0  0  0  0  0  0
   -7.7960   -5.9580  -22.3210 O   0  0  0  0  0  0  0  0  0  0  0  0
   -7.7360   -6.2530  -24.8400 O   0  0  0  0  0  0  0  0  0  0  0  0
   -5.7990   -5.1550  -23.6820 N   0  0  0  0  0  0  0  0  0  0  0  0
   -4.9550   -6.3440  -23.8250 C   0  0  0  0  0  0  0  0  0  0  0  0
   -3.9170   -6.0180  -23.8740 H   0  0  0  0  0  0  0  0  0  0  0  0
   -5.1960   -6.8510  -24.7590 H   0  0  0  0  0  0  0  0  0  0  0  0
   -5.0610   -7.0630  -23.0060 H   0  0  0  0  0  0  0  0  0  0  0  0
   -5.5350   -4.5900  -22.8820 H   0  0  0  0  0  0  0  0  0  0  0  0
   -9.1280   -4.0090  -24.3320 H   0  0  0  0  0  0  0  0  0  0  0  0
   -7.5050   -3.3250  -24.5700 H   0  0  0  0  0  0  0  0  0  0  0  0
   -8.7210   -3.7400  -21.7990 H   0  0  0  0  0  0  0  0  0  0  0  0
   -6.2750   -2.2430  -22.7470 H   0  0  0  0  0  0  0  0  0  0  0  0
   -6.4820   -3.2860  -21.3280 H   0  0  0  0  0  0  0  0  0  0  0  0
  -10.7420   -2.0650  -22.3830 C   0  0  0  0  0  0  0  0  0  0  0  0
  -11.2570   -3.1670  -21.6850 C   0  0  0  0  0  0  0  0  0  0  0  0
  -12.6150   -3.2170  -21.3980 C   0  0  0  0  0  0  0  0  0  0  0  0
  -13.2540   -4.3310  -20.2280 Cl  0  0  0  0  0  0  0  0  0  0  0  0
  -13.5150   -2.3000  -21.9310 C   0  0  0  0  0  0  0  0  0  0  0  0
  -13.0220   -1.2130  -22.6130 C   0  0  0  0  0  0  0  0  0  0  0  0
  -11.6480   -1.0670  -22.7760 C   0  0  0  0  0  0  0  0  0  0  0  0
  -11.1610    0.2230  -23.3460 C   0  0  0  0  0  0  0  0  0  0  0  0
  -11.7970    1.2700  -23.2710 O   0  0  0  0  0  0  0  0  0  0  0  0
  -13.6850   -0.4520  -23.0040 H   0  0  0  0  0  0  0  0  0  0  0  0
  -14.5760   -2.4480  -21.7710 H   0  0  0  0  0  0  0  0  0  0  0  0
  -10.6040   -3.9530  -21.3240 H   0  0  0  0  0  0  0  0  0  0  0  0
   -9.4460   -1.6960  -24.7910 H   0  0  0  0  0  0  0  0  0  0  0  0
   -8.0980   -0.7590  -24.1390 H   0  0  0  0  0  0  0  0  0  0  0  0
  -10.2850    2.0600  -24.6510 H   0  0  0  0  0  0  0  0  0  0  0  0
   -9.1420    1.1240  -25.6500 H   0  0  0  0  0  0  0  0  0  0  0  0
   -9.4700    2.6260  -22.3420 H   0  0  0  0  0  0  0  0  0  0  0  0
   -7.8620    4.0480  -21.3270 H   0  0  0  0  0  0  0  0  0  0  0  0
   -6.9690    2.4960  -21.3890 H   0  0  0  0  0  0  0  0  0  0  0  0
   -6.7240    3.6890  -22.6710 H   0  0  0  0  0  0  0  0  0  0  0  0
  1  2  1  0  0  0  0
  1 62  1  0  0  0  0
  1 63  1  0  0  0  0
  1 64  1  0  0  0  0
  2  3  1  0  0  0  0
  2 61  1  0  0  0  0
  3  4  2  0  0  0  0
  3  5  1  0  0  0  0
  5  6  1  0  0  0  0
  5 59  1  0  0  0  0
  5 60  1  0  0  0  0
  6  7  1  0  0  0  0
  6 52  1  0  0  0  0
  7  8  1  0  0  0  0
  7 57  1  0  0  0  0
  7 58  1  0  0  0  0
  8  9  1  1  0  0  0
  8 29  1  0  0  0  0
  8 45  1  0  0  0  0
  9 10  2  0  0  0  0
  9 11  1  0  0  0  0
 11 12  1  0  0  0  0
 11 28  1  0  0  0  0
 12 13  2  0  0  0  0
 12 21  1  0  0  0  0
 13 14  1  0  0  0  0
 13 27  1  0  0  0  0
 14 15  2  0  0  0  0
 15 16  1  0  0  0  0
 15 26  1  0  0  0  0
 16 17  2  0  0  0  0
 16 21  1  0  0  0  0
 17 18  1  0  0  0  0
 17 25  1  0  0  0  0
 18 19  2  0  0  0  0
 18 24  1  0  0  0  0
 19 20  1  0  0  0  0
 19 23  1  0  0  0  0
 20 21  2  0  0  0  0
 20 22  1  0  0  0  0
 28 29  1  0  0  0  0
 28 43  1  0  0  0  0
 28 44  1  0  0  0  0
 29 30  1  0  0  0  0
 29 42  1  1  0  0  0
 30 31  1  0  0  0  0
 30 40  1  0  0  0  0
 30 41  1  0  0  0  0
 31 32  2  0  0  0  0
 31 33  2  0  0  0  0
 31 34  1  0  0  0  0
 34 35  1  0  0  0  0
 34 39  1  0  0  0  0
 35 36  1  0  0  0  0
 35 37  1  0  0  0  0
 35 38  1  0  0  0  0
 45 46  2  0  0  0  0
 45 51  1  0  0  0  0
 46 47  1  0  0  0  0
 46 56  1  0  0  0  0
 47 48  1  0  0  0  0
 47 49  2  0  0  0  0
 49 50  1  0  0  0  0
 49 55  1  0  0  0  0
 50 51  2  0  0  0  0
 50 54  1  0  0  0  0
 51 52  1  0  0  0  0
 52 53  2  0  0  0  0
M  END
>  <MODEL>
       1

$$$$
