tmp_first_model_4_91.pdb
 OpenBabel08272518513D

 66 71  0  0  1  0  0  0  0  0999 V2000
   -7.1390    3.3350  -21.9350 C   0  0  0  0  0  0  0  0  0  0  0  0
   -8.0770    2.8280  -22.9170 N   0  0  0  0  0  0  0  0  0  0  0  0
   -7.6260    2.2780  -24.0730 C   0  0  0  0  0  0  0  0  0  0  0  0
   -6.4440    2.2160  -24.3760 O   0  0  0  0  0  0  0  0  0  0  0  0
   -8.7460    1.7150  -24.9550 C   0  0  0  0  0  0  0  0  0  0  0  0
   -9.4760    0.6980  -24.2150 N   0  0  0  0  0  0  0  0  0  0  0  0
   -8.7560   -0.5510  -24.0390 C   0  0  0  0  0  0  0  0  0  0  0  0
   -9.1680   -1.3220  -22.7660 C   0  0  2  0  0  0  0  0  0  0  0  0
   -8.5870   -0.6240  -21.5060 C   0  0  0  0  0  0  0  0  0  0  0  0
   -9.0070    0.3770  -20.9650 O   0  0  0  0  0  0  0  0  0  0  0  0
   -7.4710   -1.3230  -21.1060 N   0  0  0  0  0  0  0  0  0  0  0  0
   -6.5410   -0.9030  -20.1210 C   0  0  0  0  0  0  0  0  0  0  0  0
   -6.6760   -1.3410  -18.8270 C   0  0  0  0  0  0  0  0  0  0  0  0
   -5.7710   -1.1060  -17.8460 N   0  0  0  0  0  0  0  0  0  0  0  0
   -4.6840   -0.4520  -18.1650 C   0  0  0  0  0  0  0  0  0  0  0  0
   -4.3950    0.0240  -19.4770 C   0  0  0  0  0  0  0  0  0  0  0  0
   -3.1800    0.6910  -19.7870 C   0  0  0  0  0  0  0  0  0  0  0  0
   -2.9500    1.1610  -21.0490 C   0  0  0  0  0  0  0  0  0  0  0  0
   -3.9150    0.9820  -22.0630 C   0  0  0  0  0  0  0  0  0  0  0  0
   -5.0910    0.3230  -21.7930 C   0  0  0  0  0  0  0  0  0  0  0  0
   -5.3530   -0.1930  -20.4920 C   0  0  0  0  0  0  0  0  0  0  0  0
   -5.8430    0.2420  -22.5740 H   0  0  0  0  0  0  0  0  0  0  0  0
   -3.7380    1.3710  -23.0590 H   0  0  0  0  0  0  0  0  0  0  0  0
   -2.0260    1.6830  -21.2770 H   0  0  0  0  0  0  0  0  0  0  0  0
   -2.4780    0.8720  -18.9790 H   0  0  0  0  0  0  0  0  0  0  0  0
   -3.9700   -0.2580  -17.3640 H   0  0  0  0  0  0  0  0  0  0  0  0
   -7.5690   -1.8950  -18.5420 H   0  0  0  0  0  0  0  0  0  0  0  0
   -7.1380   -2.4420  -21.9550 C   0  0  0  0  0  0  0  0  0  0  0  0
   -8.4400   -2.7040  -22.7240 C   0  0  2  0  0  0  0  0  0  0  0  0
   -8.1880   -3.3880  -24.0700 C   0  0  0  0  0  0  0  0  0  0  0  0
   -7.4490   -4.6140  -23.8680 N   0  0  0  0  0  0  0  0  0  0  0  0
   -6.9920   -5.3760  -24.8860 C   0  0  0  0  0  0  0  0  0  0  0  0
   -5.8700   -7.2230  -25.5510 C   0  0  0  0  0  0  0  0  0  0  0  0
   -6.3170   -6.4900  -24.5420 N   0  0  0  0  0  0  0  0  0  0  0  0
   -6.1140   -6.9170  -26.8950 C   0  0  0  0  0  0  0  0  0  0  0  0
   -6.8140   -5.7390  -27.1180 C   0  0  0  0  0  0  0  0  0  0  0  0
   -7.2670   -4.9660  -26.1350 N   0  0  0  0  0  0  0  0  0  0  0  0
   -7.0370   -5.3730  -28.1230 H   0  0  0  0  0  0  0  0  0  0  0  0
   -5.7830   -7.5700  -27.6990 H   0  0  0  0  0  0  0  0  0  0  0  0
   -5.3270   -8.1230  -25.2700 H   0  0  0  0  0  0  0  0  0  0  0  0
   -7.2880   -4.9560  -22.9410 H   0  0  0  0  0  0  0  0  0  0  0  0
   -9.1360   -3.5830  -24.5890 H   0  0  0  0  0  0  0  0  0  0  0  0
   -7.5900   -2.7440  -24.7260 H   0  0  0  0  0  0  0  0  0  0  0  0
   -9.0550   -3.3750  -22.1160 H   0  0  0  0  0  0  0  0  0  0  0  0
   -6.8320   -3.2930  -21.3380 H   0  0  0  0  0  0  0  0  0  0  0  0
   -6.2970   -2.2030  -22.6300 H   0  0  0  0  0  0  0  0  0  0  0  0
  -10.6850   -1.3600  -22.7280 C   0  0  0  0  0  0  0  0  0  0  0  0
  -11.3530   -2.3190  -21.9580 C   0  0  0  0  0  0  0  0  0  0  0  0
  -12.7360   -2.3390  -21.9070 C   0  0  0  0  0  0  0  0  0  0  0  0
  -13.5270   -3.5470  -20.9320 Cl  0  0  0  0  0  0  0  0  0  0  0  0
  -13.5100   -1.4130  -22.6060 C   0  0  0  0  0  0  0  0  0  0  0  0
  -12.8620   -0.4510  -23.3550 C   0  0  0  0  0  0  0  0  0  0  0  0
  -11.4680   -0.4080  -23.4080 C   0  0  0  0  0  0  0  0  0  0  0  0
  -10.8480    0.7040  -24.2060 C   0  0  0  0  0  0  0  0  0  0  0  0
  -11.5170    1.5580  -24.7730 O   0  0  0  0  0  0  0  0  0  0  0  0
  -13.4170    0.3000  -23.9090 H   0  0  0  0  0  0  0  0  0  0  0  0
  -14.5930   -1.4500  -22.5430 H   0  0  0  0  0  0  0  0  0  0  0  0
  -10.8080   -3.0530  -21.3770 H   0  0  0  0  0  0  0  0  0  0  0  0
   -7.6860   -0.3220  -24.0070 H   0  0  0  0  0  0  0  0  0  0  0  0
   -8.9490   -1.1930  -24.9080 H   0  0  0  0  0  0  0  0  0  0  0  0
   -8.2880    1.3010  -25.8610 H   0  0  0  0  0  0  0  0  0  0  0  0
   -9.4670    2.4890  -25.2380 H   0  0  0  0  0  0  0  0  0  0  0  0
   -8.9900    2.5350  -22.5900 H   0  0  0  0  0  0  0  0  0  0  0  0
   -6.4080    3.9780  -22.4330 H   0  0  0  0  0  0  0  0  0  0  0  0
   -6.5980    2.5160  -21.4360 H   0  0  0  0  0  0  0  0  0  0  0  0
   -7.6910    3.9280  -21.1990 H   0  0  0  0  0  0  0  0  0  0  0  0
  1  2  1  0  0  0  0
  1 64  1  0  0  0  0
  1 65  1  0  0  0  0
  1 66  1  0  0  0  0
  2  3  1  0  0  0  0
  2 63  1  0  0  0  0
  3  4  2  0  0  0  0
  3  5  1  0  0  0  0
  5  6  1  0  0  0  0
  5 61  1  0  0  0  0
  5 62  1  0  0  0  0
  6  7  1  0  0  0  0
  6 54  1  0  0  0  0
  7  8  1  0  0  0  0
  7 59  1  0  0  0  0
  7 60  1  0  0  0  0
  8  9  1  1  0  0  0
  8 29  1  0  0  0  0
  8 47  1  0  0  0  0
  9 10  2  0  0  0  0
  9 11  1  0  0  0  0
 11 12  1  0  0  0  0
 11 28  1  0  0  0  0
 12 13  2  0  0  0  0
 12 21  1  0  0  0  0
 13 14  1  0  0  0  0
 13 27  1  0  0  0  0
 14 15  2  0  0  0  0
 15 16  1  0  0  0  0
 15 26  1  0  0  0  0
 16 17  2  0  0  0  0
 16 21  1  0  0  0  0
 17 18  1  0  0  0  0
 17 25  1  0  0  0  0
 18 19  2  0  0  0  0
 18 24  1  0  0  0  0
 19 20  1  0  0  0  0
 19 23  1  0  0  0  0
 20 21  2  0  0  0  0
 20 22  1  0  0  0  0
 28 29  1  0  0  0  0
 28 45  1  0  0  0  0
 28 46  1  0  0  0  0
 29 30  1  0  0  0  0
 29 44  1  1  0  0  0
 30 31  1  0  0  0  0
 30 42  1  0  0  0  0
 30 43  1  0  0  0  0
 31 32  1  0  0  0  0
 31 41  1  0  0  0  0
 32 33  2  0  0  0  0
 32 37  1  0  0  0  0
 33 34  1  0  0  0  0
 33 40  1  0  0  0  0
 34 35  2  0  0  0  0
 35 36  1  0  0  0  0
 35 39  1  0  0  0  0
 36 37  2  0  0  0  0
 36 38  1  0  0  0  0
 47 48  2  0  0  0  0
 47 53  1  0  0  0  0
 48 49  1  0  0  0  0
 48 58  1  0  0  0  0
 49 50  1  0  0  0  0
 49 51  2  0  0  0  0
 51 52  1  0  0  0  0
 51 57  1  0  0  0  0
 52 53  2  0  0  0  0
 52 56  1  0  0  0  0
 53 54  1  0  0  0  0
 54 55  2  0  0  0  0
M  END
>  <MODEL>
       1

$$$$
