tmp_first_model_14_5.pdb
 OpenBabel08282500413D

 58 61  0  0  1  0  0  0  0  0999 V2000
   -5.0860   -3.0920  -22.4240 C   0  0  0  0  0  0  0  0  0  0  0  0
   -6.4050   -3.2700  -22.4080 C   0  0  0  0  0  0  0  0  0  0  0  0
   -7.3740   -2.8150  -21.3570 C   0  0  0  0  0  0  0  0  0  0  0  0
   -7.4020   -1.3680  -21.2080 N   0  0  0  0  0  0  0  0  0  0  0  0
   -8.2250   -0.5020  -21.9140 C   0  0  0  0  0  0  0  0  0  0  0  0
   -8.3710    0.6410  -21.5290 O   0  0  0  0  0  0  0  0  0  0  0  0
   -8.9180   -1.0040  -23.1990 C   0  0  2  0  0  0  0  0  0  0  0  0
   -8.4460   -0.1560  -24.4190 C   0  0  0  0  0  0  0  0  0  0  0  0
   -8.9630    1.2070  -24.3800 N   0  0  0  0  0  0  0  0  0  0  0  0
   -8.1440    2.3050  -24.8580 C   0  0  0  0  0  0  0  0  0  0  0  0
   -7.1310    2.7530  -23.8040 C   0  0  0  0  0  0  0  0  0  0  0  0
   -5.9410    2.4870  -23.9100 O   0  0  0  0  0  0  0  0  0  0  0  0
   -7.6290    3.4510  -22.7600 N   0  0  0  0  0  0  0  0  0  0  0  0
   -6.7570    3.7510  -21.6420 C   0  0  0  0  0  0  0  0  0  0  0  0
   -7.3510    4.2350  -20.8660 H   0  0  0  0  0  0  0  0  0  0  0  0
   -5.9610    4.4330  -21.9570 H   0  0  0  0  0  0  0  0  0  0  0  0
   -6.2900    2.8330  -21.2530 H   0  0  0  0  0  0  0  0  0  0  0  0
   -8.6300    3.4750  -22.6270 H   0  0  0  0  0  0  0  0  0  0  0  0
   -8.8130    3.1270  -25.1240 H   0  0  0  0  0  0  0  0  0  0  0  0
   -7.6040    1.9870  -25.7510 H   0  0  0  0  0  0  0  0  0  0  0  0
  -10.1900    1.5000  -23.8730 C   0  0  0  0  0  0  0  0  0  0  0  0
  -10.5740    2.6620  -23.7410 O   0  0  0  0  0  0  0  0  0  0  0  0
  -11.0350    0.3110  -23.5240 C   0  0  0  0  0  0  0  0  0  0  0  0
  -12.4220    0.3980  -23.5650 C   0  0  0  0  0  0  0  0  0  0  0  0
  -13.2060   -0.5960  -23.0000 C   0  0  0  0  0  0  0  0  0  0  0  0
  -12.5770   -1.6740  -22.3790 C   0  0  0  0  0  0  0  0  0  0  0  0
  -13.5400   -2.8320  -21.5060 Cl  0  0  0  0  0  0  0  0  0  0  0  0
  -11.1980   -1.8240  -22.4300 C   0  0  0  0  0  0  0  0  0  0  0  0
  -10.4200   -0.8470  -23.0510 C   0  0  0  0  0  0  0  0  0  0  0  0
  -10.7480   -2.7220  -22.0130 H   0  0  0  0  0  0  0  0  0  0  0  0
  -14.2890   -0.5040  -22.9790 H   0  0  0  0  0  0  0  0  0  0  0  0
  -12.8810    1.2880  -23.9810 H   0  0  0  0  0  0  0  0  0  0  0  0
   -7.3520   -0.1000  -24.4390 H   0  0  0  0  0  0  0  0  0  0  0  0
   -8.7790   -0.6470  -25.3460 H   0  0  0  0  0  0  0  0  0  0  0  0
   -8.6760   -2.0590  -23.4040 H   0  0  0  0  0  0  0  0  0  0  0  0
   -6.6070   -0.7900  -20.1850 C   0  0  0  0  0  0  0  0  0  0  0  0
   -6.9380   -0.9950  -18.8710 C   0  0  0  0  0  0  0  0  0  0  0  0
   -6.2640   -0.4690  -17.8280 N   0  0  0  0  0  0  0  0  0  0  0  0
   -5.2050    0.2570  -18.0950 C   0  0  0  0  0  0  0  0  0  0  0  0
   -4.7500    0.5470  -19.4110 C   0  0  0  0  0  0  0  0  0  0  0  0
   -3.6030    1.3470  -19.6560 C   0  0  0  0  0  0  0  0  0  0  0  0
   -3.2000    1.6160  -20.9370 C   0  0  0  0  0  0  0  0  0  0  0  0
   -3.9200    1.0950  -22.0310 C   0  0  0  0  0  0  0  0  0  0  0  0
   -5.0220    0.3000  -21.8190 C   0  0  0  0  0  0  0  0  0  0  0  0
   -5.4750    0.0160  -20.5020 C   0  0  0  0  0  0  0  0  0  0  0  0
   -5.5600   -0.1160  -22.6680 H   0  0  0  0  0  0  0  0  0  0  0  0
   -3.6200    1.3420  -23.0440 H   0  0  0  0  0  0  0  0  0  0  0  0
   -2.3300    2.2440  -21.1130 H   0  0  0  0  0  0  0  0  0  0  0  0
   -3.0660    1.7500  -18.8030 H   0  0  0  0  0  0  0  0  0  0  0  0
   -4.6560    0.6640  -17.2460 H   0  0  0  0  0  0  0  0  0  0  0  0
   -7.8060   -1.6080  -18.6280 H   0  0  0  0  0  0  0  0  0  0  0  0
   -8.3420   -3.1970  -21.6880 H   0  0  0  0  0  0  0  0  0  0  0  0
   -7.0870   -3.2180  -20.3860 H   0  0  0  0  0  0  0  0  0  0  0  0
   -7.1550   -3.9060  -23.5630 C   0  0  0  0  0  0  0  0  0  0  0  0
   -8.3970   -3.9440  -23.4360 O   0  0  0  0  0  0  0  0  0  0  0  0
   -6.4680   -4.2910  -24.5250 O   0  5  0  0  0  0  0  0  0  0  0  0
   -4.4650   -3.4620  -23.2350 H   0  0  0  0  0  0  0  0  0  0  0  0
   -4.6080   -2.5290  -21.6220 H   0  0  0  0  0  0  0  0  0  0  0  0
  1  2  2  0  0  0  0
  1 57  1  0  0  0  0
  1 58  1  0  0  0  0
  2  3  1  0  0  0  0
  2 54  1  0  0  0  0
  3  4  1  0  0  0  0
  3 52  1  0  0  0  0
  3 53  1  0  0  0  0
  4  5  1  0  0  0  0
  4 36  1  0  0  0  0
  5  6  2  0  0  0  0
  5  7  1  0  0  0  0
  7  8  1  0  0  0  0
  7 29  1  0  0  0  0
  7 35  1  6  0  0  0
  8  9  1  0  0  0  0
  8 33  1  0  0  0  0
  8 34  1  0  0  0  0
  9 10  1  0  0  0  0
  9 21  1  0  0  0  0
 10 11  1  0  0  0  0
 10 19  1  0  0  0  0
 10 20  1  0  0  0  0
 11 12  2  0  0  0  0
 11 13  1  0  0  0  0
 13 14  1  0  0  0  0
 13 18  1  0  0  0  0
 14 15  1  0  0  0  0
 14 16  1  0  0  0  0
 14 17  1  0  0  0  0
 21 22  2  0  0  0  0
 21 23  1  0  0  0  0
 23 24  2  0  0  0  0
 23 29  1  0  0  0  0
 24 25  1  0  0  0  0
 24 32  1  0  0  0  0
 25 26  2  0  0  0  0
 25 31  1  0  0  0  0
 26 27  1  0  0  0  0
 26 28  1  0  0  0  0
 28 29  2  0  0  0  0
 28 30  1  0  0  0  0
 36 37  2  0  0  0  0
 36 45  1  0  0  0  0
 37 38  1  0  0  0  0
 37 51  1  0  0  0  0
 38 39  2  0  0  0  0
 39 40  1  0  0  0  0
 39 50  1  0  0  0  0
 40 41  2  0  0  0  0
 40 45  1  0  0  0  0
 41 42  1  0  0  0  0
 41 49  1  0  0  0  0
 42 43  2  0  0  0  0
 42 48  1  0  0  0  0
 43 44  1  0  0  0  0
 43 47  1  0  0  0  0
 44 45  2  0  0  0  0
 44 46  1  0  0  0  0
 54 55  2  0  0  0  0
 54 56  1  0  0  0  0
M  CHG  1  56  -1
M  END
>  <MODEL>
       1

$$$$
