tmp_first_model_11_56.pdb
 OpenBabel08272522543D

 57 62  0  0  1  0  0  0  0  0999 V2000
  -10.3230   -0.9780  -23.4730 C   0  0  0  0  0  0  0  0  0  0  0  0
   -8.9370   -1.4270  -23.0370 C   0  0  1  0  0  0  0  0  0  0  0  0
   -8.3650   -0.5190  -21.9390 C   0  0  0  0  0  0  0  0  0  0  0  0
   -7.3880   -1.3650  -21.2740 N   0  0  0  0  0  0  0  0  0  0  0  0
   -6.5860   -0.8890  -20.2100 C   0  0  0  0  0  0  0  0  0  0  0  0
   -6.9000   -1.1620  -18.9020 C   0  0  0  0  0  0  0  0  0  0  0  0
   -6.2570   -0.6180  -17.8370 N   0  0  0  0  0  0  0  0  0  0  0  0
   -5.2490    0.1850  -18.0830 C   0  0  0  0  0  0  0  0  0  0  0  0
   -4.7830    0.5040  -19.3900 C   0  0  0  0  0  0  0  0  0  0  0  0
   -3.6630    1.3450  -19.6090 C   0  0  0  0  0  0  0  0  0  0  0  0
   -3.2420    1.6200  -20.8800 C   0  0  0  0  0  0  0  0  0  0  0  0
   -3.9210    1.0680  -21.9910 C   0  0  0  0  0  0  0  0  0  0  0  0
   -5.0120    0.2550  -21.8050 C   0  0  0  0  0  0  0  0  0  0  0  0
   -5.4700   -0.0440  -20.4950 C   0  0  0  0  0  0  0  0  0  0  0  0
   -5.5320   -0.1750  -22.6560 H   0  0  0  0  0  0  0  0  0  0  0  0
   -3.5810    1.2980  -22.9970 H   0  0  0  0  0  0  0  0  0  0  0  0
   -2.3890    2.2710  -21.0460 H   0  0  0  0  0  0  0  0  0  0  0  0
   -3.1630    1.7760  -18.7450 H   0  0  0  0  0  0  0  0  0  0  0  0
   -4.7370    0.6240  -17.2250 H   0  0  0  0  0  0  0  0  0  0  0  0
   -7.7160   -1.8400  -18.6580 H   0  0  0  0  0  0  0  0  0  0  0  0
   -7.6970   -2.7020  -21.3990 C   0  0  0  0  0  0  0  0  0  0  0  0
   -7.1600   -3.5880  -20.7620 O   0  0  0  0  0  0  0  0  0  0  0  0
   -8.8140   -2.8780  -22.4420 C   0  0  1  0  0  0  0  0  0  0  0  0
  -10.0510   -3.3810  -21.6630 C   0  0  0  0  0  0  0  0  0  0  0  0
  -11.1100   -3.9010  -22.5130 N   0  0  0  0  0  0  0  0  0  0  0  0
  -12.4680   -3.9080  -21.9980 C   0  0  0  0  0  0  0  0  0  0  0  0
  -13.3410   -2.7990  -22.4860 C   0  0  0  0  0  0  0  0  0  0  0  0
  -13.2600   -2.5070  -23.7880 N   0  0  0  0  0  0  0  0  0  0  0  0
  -14.0380   -1.5170  -24.2040 C   0  0  0  0  0  0  0  0  0  0  0  0
  -14.8890   -0.8520  -23.3380 C   0  0  0  0  0  0  0  0  0  0  0  0
  -14.9310   -1.2800  -22.0210 C   0  0  0  0  0  0  0  0  0  0  0  0
  -14.1760   -2.2820  -21.5850 N   0  0  0  0  0  0  0  0  0  0  0  0
  -15.6560   -0.8580  -21.3210 H   0  0  0  0  0  0  0  0  0  0  0  0
  -15.5200   -0.0600  -23.6840 H   0  0  0  0  0  0  0  0  0  0  0  0
  -13.9610   -1.2500  -25.2620 H   0  0  0  0  0  0  0  0  0  0  0  0
  -12.9530   -4.7950  -22.4010 H   0  0  0  0  0  0  0  0  0  0  0  0
  -12.4790   -3.9210  -20.9020 H   0  0  0  0  0  0  0  0  0  0  0  0
  -10.8580   -4.6780  -23.6130 C   0  0  0  0  0  0  0  0  0  0  0  0
  -11.7540   -5.2170  -24.2480 O   0  0  0  0  0  0  0  0  0  0  0  0
   -9.4250   -4.7800  -24.0080 C   0  0  0  0  0  0  0  0  0  0  0  0
   -9.0860   -5.7390  -24.9570 C   0  0  0  0  0  0  0  0  0  0  0  0
   -7.7870   -5.8650  -25.4050 C   0  0  0  0  0  0  0  0  0  0  0  0
   -6.8310   -5.0000  -24.8880 C   0  0  0  0  0  0  0  0  0  0  0  0
   -5.5690   -5.1100  -25.3320 F   0  0  0  0  0  0  0  0  0  0  0  0
   -7.1370   -4.0420  -23.9380 C   0  0  0  0  0  0  0  0  0  0  0  0
   -8.4530   -3.9250  -23.4750 C   0  0  0  0  0  0  0  0  0  0  0  0
   -6.3430   -3.4090  -23.5570 H   0  0  0  0  0  0  0  0  0  0  0  0
   -7.5090   -6.6040  -26.1490 H   0  0  0  0  0  0  0  0  0  0  0  0
   -9.8770   -6.3870  -25.3170 H   0  0  0  0  0  0  0  0  0  0  0  0
   -9.7140   -4.1630  -20.9680 H   0  0  0  0  0  0  0  0  0  0  0  0
  -10.4620   -2.5560  -21.0720 H   0  0  0  0  0  0  0  0  0  0  0  0
   -7.9020    0.3900  -22.3330 H   0  0  0  0  0  0  0  0  0  0  0  0
   -9.1560   -0.2040  -21.2380 H   0  0  0  0  0  0  0  0  0  0  0  0
   -8.2610   -1.3950  -23.9060 H   0  0  0  0  0  0  0  0  0  0  0  0
  -10.3040    0.0460  -23.8630 H   0  0  0  0  0  0  0  0  0  0  0  0
  -11.0040   -0.9900  -22.6170 H   0  0  0  0  0  0  0  0  0  0  0  0
  -10.7320   -1.6360  -24.2430 H   0  0  0  0  0  0  0  0  0  0  0  0
  1  2  1  0  0  0  0
  1 55  1  0  0  0  0
  1 56  1  0  0  0  0
  1 57  1  0  0  0  0
  2  3  1  0  0  0  0
  2 23  1  0  0  0  0
  2 54  1  6  0  0  0
  3  4  1  0  0  0  0
  3 52  1  0  0  0  0
  3 53  1  0  0  0  0
  4  5  1  0  0  0  0
  4 21  1  0  0  0  0
  5  6  2  0  0  0  0
  5 14  1  0  0  0  0
  6  7  1  0  0  0  0
  6 20  1  0  0  0  0
  7  8  2  0  0  0  0
  8  9  1  0  0  0  0
  8 19  1  0  0  0  0
  9 10  2  0  0  0  0
  9 14  1  0  0  0  0
 10 11  1  0  0  0  0
 10 18  1  0  0  0  0
 11 12  2  0  0  0  0
 11 17  1  0  0  0  0
 12 13  1  0  0  0  0
 12 16  1  0  0  0  0
 13 14  2  0  0  0  0
 13 15  1  0  0  0  0
 21 22  2  0  0  0  0
 23 21  1  1  0  0  0
 23 24  1  0  0  0  0
 23 46  1  0  0  0  0
 24 25  1  0  0  0  0
 24 50  1  0  0  0  0
 24 51  1  0  0  0  0
 25 26  1  0  0  0  0
 25 38  1  0  0  0  0
 26 27  1  0  0  0  0
 26 36  1  0  0  0  0
 26 37  1  0  0  0  0
 27 28  2  0  0  0  0
 27 32  1  0  0  0  0
 28 29  1  0  0  0  0
 29 30  2  0  0  0  0
 29 35  1  0  0  0  0
 30 31  1  0  0  0  0
 30 34  1  0  0  0  0
 31 32  2  0  0  0  0
 31 33  1  0  0  0  0
 38 39  2  0  0  0  0
 38 40  1  0  0  0  0
 40 41  2  0  0  0  0
 40 46  1  0  0  0  0
 41 42  1  0  0  0  0
 41 49  1  0  0  0  0
 42 43  2  0  0  0  0
 42 48  1  0  0  0  0
 43 44  1  0  0  0  0
 43 45  1  0  0  0  0
 45 46  2  0  0  0  0
 45 47  1  0  0  0  0
M  END
>  <MODEL>
       1

$$$$
