tmp_first_model_5_49.pdb
 OpenBabel08272519233D

 67 72  0  0  1  0  0  0  0  0999 V2000
   -7.3210    3.3040  -21.7700 C   0  0  0  0  0  0  0  0  0  0  0  0
   -8.2260    2.8720  -22.8230 N   0  0  0  0  0  0  0  0  0  0  0  0
   -7.6940    2.2070  -23.8850 C   0  0  0  0  0  0  0  0  0  0  0  0
   -6.4900    2.0710  -24.0250 O   0  0  0  0  0  0  0  0  0  0  0  0
   -8.6840    1.6210  -24.8970 C   0  0  0  0  0  0  0  0  0  0  0  0
   -9.3600    0.4580  -24.3490 N   0  0  0  0  0  0  0  0  0  0  0  0
   -8.6080   -0.7850  -24.2070 C   0  0  0  0  0  0  0  0  0  0  0  0
   -9.0150   -1.5490  -22.9190 C   0  0  2  0  0  0  0  0  0  0  0  0
   -8.4830   -0.8060  -21.6710 C   0  0  0  0  0  0  0  0  0  0  0  0
   -8.9180    0.2110  -21.1620 O   0  0  0  0  0  0  0  0  0  0  0  0
   -7.3820   -1.4880  -21.2060 N   0  0  0  0  0  0  0  0  0  0  0  0
   -6.5400   -0.9590  -20.2070 C   0  0  0  0  0  0  0  0  0  0  0  0
   -6.8420   -1.1280  -18.8830 C   0  0  0  0  0  0  0  0  0  0  0  0
   -5.9870   -0.8430  -17.8720 N   0  0  0  0  0  0  0  0  0  0  0  0
   -4.8210   -0.3400  -18.2020 C   0  0  0  0  0  0  0  0  0  0  0  0
   -4.4340   -0.0200  -19.5360 C   0  0  0  0  0  0  0  0  0  0  0  0
   -3.2570    0.7230  -19.8250 C   0  0  0  0  0  0  0  0  0  0  0  0
   -3.1530    1.4130  -20.9990 C   0  0  0  0  0  0  0  0  0  0  0  0
   -4.0780    1.1760  -22.0480 C   0  0  0  0  0  0  0  0  0  0  0  0
   -5.1110    0.2900  -21.8590 C   0  0  0  0  0  0  0  0  0  0  0  0
   -5.3640   -0.2430  -20.5660 C   0  0  0  0  0  0  0  0  0  0  0  0
   -5.7420    0.0030  -22.6920 H   0  0  0  0  0  0  0  0  0  0  0  0
   -3.9500    1.6530  -23.0130 H   0  0  0  0  0  0  0  0  0  0  0  0
   -2.2840    2.0360  -21.1900 H   0  0  0  0  0  0  0  0  0  0  0  0
   -2.5370    0.8440  -19.0240 H   0  0  0  0  0  0  0  0  0  0  0  0
   -4.1360   -0.0900  -17.3920 H   0  0  0  0  0  0  0  0  0  0  0  0
   -7.8150   -1.5290  -18.6160 H   0  0  0  0  0  0  0  0  0  0  0  0
   -7.0120   -2.6500  -21.9790 C   0  0  0  0  0  0  0  0  0  0  0  0
   -8.2820   -2.9180  -22.7870 C   0  0  2  0  0  0  0  0  0  0  0  0
   -7.9760   -3.6940  -24.0680 C   0  0  0  0  0  0  0  0  0  0  0  0
   -7.4680   -5.0110  -23.7700 N   0  0  0  0  0  0  0  0  0  0  0  0
   -6.1400   -5.3060  -23.6460 C   0  0  0  0  0  0  0  0  0  0  0  0
   -5.0390   -4.5700  -23.9850 C   0  0  0  0  0  0  0  0  0  0  0  0
   -3.8170   -5.1640  -23.7730 N   0  0  0  0  0  0  0  0  0  0  0  0
   -3.9520   -6.3570  -23.2870 C   0  0  0  0  0  0  0  0  0  0  0  0
   -2.8130   -7.2780  -22.9830 C   0  0  0  0  0  0  0  0  0  0  0  0
   -3.0310   -7.9040  -22.1160 H   0  0  0  0  0  0  0  0  0  0  0  0
   -2.6270   -7.9440  -23.8350 H   0  0  0  0  0  0  0  0  0  0  0  0
   -1.9080   -6.6910  -22.8040 H   0  0  0  0  0  0  0  0  0  0  0  0
   -5.6120   -6.8540  -23.0290 S   0  0  0  0  0  0  0  0  0  0  0  0
   -5.0620   -3.5730  -24.4080 H   0  0  0  0  0  0  0  0  0  0  0  0
   -8.1290   -5.7350  -23.5350 H   0  0  0  0  0  0  0  0  0  0  0  0
   -8.8820   -3.7910  -24.6760 H   0  0  0  0  0  0  0  0  0  0  0  0
   -7.2240   -3.1580  -24.6590 H   0  0  0  0  0  0  0  0  0  0  0  0
   -8.9140   -3.5550  -22.1610 H   0  0  0  0  0  0  0  0  0  0  0  0
   -6.1360   -2.4700  -22.6260 H   0  0  0  0  0  0  0  0  0  0  0  0
   -6.7470   -3.5000  -21.3380 H   0  0  0  0  0  0  0  0  0  0  0  0
  -10.5260   -1.6330  -22.8900 C   0  0  0  0  0  0  0  0  0  0  0  0
  -11.1750   -2.5470  -22.0550 C   0  0  0  0  0  0  0  0  0  0  0  0
  -12.5370   -2.7440  -22.1750 C   0  0  0  0  0  0  0  0  0  0  0  0
  -13.3180   -3.8680  -21.1070 Cl  0  0  0  0  0  0  0  0  0  0  0  0
  -13.2970   -2.0480  -23.1160 C   0  0  0  0  0  0  0  0  0  0  0  0
  -12.6850   -1.0260  -23.8200 C   0  0  0  0  0  0  0  0  0  0  0  0
  -11.3220   -0.7760  -23.6610 C   0  0  0  0  0  0  0  0  0  0  0  0
  -10.7290    0.4490  -24.2940 C   0  0  0  0  0  0  0  0  0  0  0  0
  -11.4170    1.3650  -24.7200 O   0  0  0  0  0  0  0  0  0  0  0  0
  -13.2590   -0.3820  -24.4790 H   0  0  0  0  0  0  0  0  0  0  0  0
  -14.3540   -2.2640  -23.2370 H   0  0  0  0  0  0  0  0  0  0  0  0
  -10.6300   -3.1350  -21.3270 H   0  0  0  0  0  0  0  0  0  0  0  0
   -7.5390   -0.5490  -24.1940 H   0  0  0  0  0  0  0  0  0  0  0  0
   -8.7950   -1.4220  -25.0840 H   0  0  0  0  0  0  0  0  0  0  0  0
   -9.4510    2.3470  -25.1860 H   0  0  0  0  0  0  0  0  0  0  0  0
   -8.1210    1.3460  -25.7950 H   0  0  0  0  0  0  0  0  0  0  0  0
   -9.1930    2.7140  -22.5770 H   0  0  0  0  0  0  0  0  0  0  0  0
   -6.7570    2.4500  -21.3640 H   0  0  0  0  0  0  0  0  0  0  0  0
   -6.6160    4.0370  -22.1720 H   0  0  0  0  0  0  0  0  0  0  0  0
   -7.8890    3.7800  -20.9720 H   0  0  0  0  0  0  0  0  0  0  0  0
  1  2  1  0  0  0  0
  1 65  1  0  0  0  0
  1 66  1  0  0  0  0
  1 67  1  0  0  0  0
  2  3  1  0  0  0  0
  2 64  1  0  0  0  0
  3  4  2  0  0  0  0
  3  5  1  0  0  0  0
  5  6  1  0  0  0  0
  5 62  1  0  0  0  0
  5 63  1  0  0  0  0
  6  7  1  0  0  0  0
  6 55  1  0  0  0  0
  7  8  1  0  0  0  0
  7 60  1  0  0  0  0
  7 61  1  0  0  0  0
  8  9  1  1  0  0  0
  8 29  1  0  0  0  0
  8 48  1  0  0  0  0
  9 10  2  0  0  0  0
  9 11  1  0  0  0  0
 11 12  1  0  0  0  0
 11 28  1  0  0  0  0
 12 13  2  0  0  0  0
 12 21  1  0  0  0  0
 13 14  1  0  0  0  0
 13 27  1  0  0  0  0
 14 15  2  0  0  0  0
 15 16  1  0  0  0  0
 15 26  1  0  0  0  0
 16 17  2  0  0  0  0
 16 21  1  0  0  0  0
 17 18  1  0  0  0  0
 17 25  1  0  0  0  0
 18 19  2  0  0  0  0
 18 24  1  0  0  0  0
 19 20  1  0  0  0  0
 19 23  1  0  0  0  0
 20 21  2  0  0  0  0
 20 22  1  0  0  0  0
 28 29  1  0  0  0  0
 28 46  1  0  0  0  0
 28 47  1  0  0  0  0
 29 30  1  0  0  0  0
 29 45  1  1  0  0  0
 30 31  1  0  0  0  0
 30 43  1  0  0  0  0
 30 44  1  0  0  0  0
 31 32  1  0  0  0  0
 31 42  1  0  0  0  0
 32 33  2  0  0  0  0
 32 40  1  0  0  0  0
 33 34  1  0  0  0  0
 33 41  1  0  0  0  0
 34 35  2  0  0  0  0
 35 36  1  0  0  0  0
 35 40  1  0  0  0  0
 36 37  1  0  0  0  0
 36 38  1  0  0  0  0
 36 39  1  0  0  0  0
 48 49  2  0  0  0  0
 48 54  1  0  0  0  0
 49 50  1  0  0  0  0
 49 59  1  0  0  0  0
 50 51  1  0  0  0  0
 50 52  2  0  0  0  0
 52 53  1  0  0  0  0
 52 58  1  0  0  0  0
 53 54  2  0  0  0  0
 53 57  1  0  0  0  0
 54 55  1  0  0  0  0
 55 56  2  0  0  0  0
M  END
>  <MODEL>
       1

$$$$
