tmp_first_model_18_79.pdb
 OpenBabel08282502533D

 45 49  0  0  0  0  0  0  0  0999 V2000
   -9.9450   -0.6410  -23.6020 C   0  0  0  0  0  0  0  0  0  0  0  0
   -8.9220   -1.1730  -22.7210 N   0  0  0  0  0  0  0  0  0  0  0  0
   -8.3340   -0.3720  -21.7780 C   0  0  0  0  0  0  0  0  0  0  0  0
   -8.5480    0.7950  -21.5490 O   0  0  0  0  0  0  0  0  0  0  0  0
   -7.3970   -1.1850  -21.1180 N   0  0  0  0  0  0  0  0  0  0  0  0
   -6.5630   -0.7000  -20.0860 C   0  0  0  0  0  0  0  0  0  0  0  0
   -6.8880   -0.9460  -18.7810 C   0  0  0  0  0  0  0  0  0  0  0  0
   -6.2090   -0.4380  -17.7240 N   0  0  0  0  0  0  0  0  0  0  0  0
   -5.1720    0.3270  -17.9790 C   0  0  0  0  0  0  0  0  0  0  0  0
   -4.6980    0.6140  -19.2970 C   0  0  0  0  0  0  0  0  0  0  0  0
   -3.5570    1.4270  -19.5440 C   0  0  0  0  0  0  0  0  0  0  0  0
   -3.1400    1.6520  -20.8280 C   0  0  0  0  0  0  0  0  0  0  0  0
   -3.8370    1.0970  -21.9260 C   0  0  0  0  0  0  0  0  0  0  0  0
   -4.9490    0.3180  -21.7180 C   0  0  0  0  0  0  0  0  0  0  0  0
   -5.4080    0.0750  -20.3920 C   0  0  0  0  0  0  0  0  0  0  0  0
   -5.4850   -0.1110  -22.5600 H   0  0  0  0  0  0  0  0  0  0  0  0
   -3.4980    1.2930  -22.9400 H   0  0  0  0  0  0  0  0  0  0  0  0
   -2.2640    2.2660  -21.0220 H   0  0  0  0  0  0  0  0  0  0  0  0
   -3.0280    1.8680  -18.7010 H   0  0  0  0  0  0  0  0  0  0  0  0
   -4.6450    0.7460  -17.1180 H   0  0  0  0  0  0  0  0  0  0  0  0
   -7.7480   -1.5710  -18.5530 H   0  0  0  0  0  0  0  0  0  0  0  0
   -7.4930   -2.5180  -21.4860 C   0  0  0  0  0  0  0  0  0  0  0  0
   -6.8250   -3.4310  -21.0660 O   0  0  0  0  0  0  0  0  0  0  0  0
   -8.6330   -2.5700  -22.4900 C   0  0  0  0  0  0  0  0  0  0  0  0
   -9.7570   -3.5320  -22.0300 C   0  0  0  0  0  0  0  0  0  0  0  0
   -9.5480   -4.3650  -23.2400 N   0  0  0  0  0  0  0  0  0  0  0  0
  -10.8920   -4.3330  -24.2660 S   0  0  0  0  0  0  0  0  0  0  0  0
  -12.0320   -4.7340  -23.4610 O   0  0  0  0  0  0  0  0  0  0  0  0
  -10.9280   -3.0870  -25.0240 O   0  0  0  0  0  0  0  0  0  0  0  0
  -10.3850   -5.6270  -25.3640 C   0  0  0  0  0  0  0  0  0  0  0  0
  -11.2270   -6.1110  -26.5120 C   0  0  0  0  0  0  0  0  0  0  0  0
  -10.0610   -5.2220  -26.7700 C   0  0  0  0  0  0  0  0  0  0  0  0
   -9.1540   -5.6230  -27.2000 H   0  0  0  0  0  0  0  0  0  0  0  0
  -10.2750   -4.1910  -27.0220 H   0  0  0  0  0  0  0  0  0  0  0  0
  -11.1200   -7.1700  -26.7210 H   0  0  0  0  0  0  0  0  0  0  0  0
  -12.2280   -5.7240  -26.6530 H   0  0  0  0  0  0  0  0  0  0  0  0
   -9.7490   -6.3420  -24.8500 H   0  0  0  0  0  0  0  0  0  0  0  0
   -8.4070   -3.5140  -23.6860 C   0  0  0  0  0  0  0  0  0  0  0  0
   -7.4750   -4.0770  -23.6190 H   0  0  0  0  0  0  0  0  0  0  0  0
   -8.5230   -3.0750  -24.6810 H   0  0  0  0  0  0  0  0  0  0  0  0
  -10.7670   -3.1330  -21.9110 H   0  0  0  0  0  0  0  0  0  0  0  0
   -9.4560   -4.0800  -21.1400 H   0  0  0  0  0  0  0  0  0  0  0  0
   -9.7950   -0.9810  -24.6280 H   0  0  0  0  0  0  0  0  0  0  0  0
  -10.9480   -0.9290  -23.2740 H   0  0  0  0  0  0  0  0  0  0  0  0
   -9.8520    0.4420  -23.5510 H   0  0  0  0  0  0  0  0  0  0  0  0
  1  2  1  0  0  0  0
  1 43  1  0  0  0  0
  1 44  1  0  0  0  0
  1 45  1  0  0  0  0
  2  3  1  0  0  0  0
  2 24  1  0  0  0  0
  3  4  2  0  0  0  0
  3  5  1  0  0  0  0
  5  6  1  0  0  0  0
  5 22  1  0  0  0  0
  6  7  2  0  0  0  0
  6 15  1  0  0  0  0
  7  8  1  0  0  0  0
  7 21  1  0  0  0  0
  8  9  2  0  0  0  0
  9 10  1  0  0  0  0
  9 20  1  0  0  0  0
 10 11  2  0  0  0  0
 10 15  1  0  0  0  0
 11 12  1  0  0  0  0
 11 19  1  0  0  0  0
 12 13  2  0  0  0  0
 12 18  1  0  0  0  0
 13 14  1  0  0  0  0
 13 17  1  0  0  0  0
 14 15  2  0  0  0  0
 14 16  1  0  0  0  0
 22 23  2  0  0  0  0
 22 24  1  0  0  0  0
 24 25  1  0  0  0  0
 24 38  1  0  0  0  0
 25 26  1  0  0  0  0
 25 41  1  0  0  0  0
 25 42  1  0  0  0  0
 26 27  1  0  0  0  0
 26 38  1  0  0  0  0
 27 28  2  0  0  0  0
 27 29  2  0  0  0  0
 27 30  1  0  0  0  0
 30 31  1  0  0  0  0
 30 32  1  0  0  0  0
 30 37  1  0  0  0  0
 31 32  1  0  0  0  0
 31 35  1  0  0  0  0
 31 36  1  0  0  0  0
 32 33  1  0  0  0  0
 32 34  1  0  0  0  0
 38 39  1  0  0  0  0
 38 40  1  0  0  0  0
M  END
>  <MODEL>
       1

$$$$
