tmp_first_model_17_58.pdb
 OpenBabel08282502223D

 42 45  0  0  1  0  0  0  0  0999 V2000
  -12.0260   -4.0920  -22.9280 C   0  0  0  0  0  0  0  0  0  0  0  0
  -10.6290   -4.4880  -22.9320 N   0  0  0  0  0  0  0  0  0  0  0  0
   -9.8090   -4.0360  -21.8290 C   0  0  0  0  0  0  0  0  0  0  0  0
   -8.6540   -3.1890  -22.3710 C   0  0  1  0  0  0  0  0  0  0  0  0
   -7.7140   -2.7320  -21.2570 C   0  0  0  0  0  0  0  0  0  0  0  0
   -7.2180   -3.5130  -20.4640 O   0  0  0  0  0  0  0  0  0  0  0  0
   -7.3770   -1.3910  -21.2200 N   0  0  0  0  0  0  0  0  0  0  0  0
   -6.5860   -0.8380  -20.1810 C   0  0  0  0  0  0  0  0  0  0  0  0
   -6.8950   -1.0600  -18.8600 C   0  0  0  0  0  0  0  0  0  0  0  0
   -6.2120   -0.5390  -17.8090 N   0  0  0  0  0  0  0  0  0  0  0  0
   -5.1720    0.2160  -18.0750 C   0  0  0  0  0  0  0  0  0  0  0  0
   -4.7340    0.5280  -19.3910 C   0  0  0  0  0  0  0  0  0  0  0  0
   -3.6050    1.3550  -19.6290 C   0  0  0  0  0  0  0  0  0  0  0  0
   -3.2100    1.6310  -20.9090 C   0  0  0  0  0  0  0  0  0  0  0  0
   -3.9180    1.0880  -22.0050 C   0  0  0  0  0  0  0  0  0  0  0  0
   -5.0120    0.2830  -21.8010 C   0  0  0  0  0  0  0  0  0  0  0  0
   -5.4540   -0.0080  -20.4840 C   0  0  0  0  0  0  0  0  0  0  0  0
   -5.5380   -0.1390  -22.6520 H   0  0  0  0  0  0  0  0  0  0  0  0
   -3.5810    1.3020  -23.0150 H   0  0  0  0  0  0  0  0  0  0  0  0
   -2.3420    2.2580  -21.0960 H   0  0  0  0  0  0  0  0  0  0  0  0
   -3.0680    1.7630  -18.7770 H   0  0  0  0  0  0  0  0  0  0  0  0
   -4.6180    0.6200  -17.2270 H   0  0  0  0  0  0  0  0  0  0  0  0
   -7.7480   -1.6800  -18.5970 H   0  0  0  0  0  0  0  0  0  0  0  0
   -7.6690   -0.7790  -21.9690 H   0  0  0  0  0  0  0  0  0  0  0  0
   -7.9190   -3.9930  -23.4310 C   0  0  0  0  0  0  0  0  0  0  0  0
   -6.5780   -3.7330  -23.7190 C   0  0  0  0  0  0  0  0  0  0  0  0
   -5.9360   -4.4350  -24.7250 C   0  0  0  0  0  0  0  0  0  0  0  0
   -4.2680   -4.0820  -25.0790 Cl  0  0  0  0  0  0  0  0  0  0  0  0
   -6.6050   -5.4110  -25.4590 C   0  0  0  0  0  0  0  0  0  0  0  0
   -7.9400   -5.6650  -25.1790 C   0  0  0  0  0  0  0  0  0  0  0  0
   -8.6060   -4.9580  -24.1770 C   0  0  0  0  0  0  0  0  0  0  0  0
  -10.0830   -5.1780  -23.9860 C   0  0  0  0  0  0  0  0  0  0  0  0
  -10.7350   -5.9110  -24.7180 O   0  0  0  0  0  0  0  0  0  0  0  0
   -8.4890   -6.4030  -25.7550 H   0  0  0  0  0  0  0  0  0  0  0  0
   -6.0820   -5.9420  -26.2490 H   0  0  0  0  0  0  0  0  0  0  0  0
   -6.0350   -2.9780  -23.1580 H   0  0  0  0  0  0  0  0  0  0  0  0
   -9.1000   -2.3060  -22.8450 H   0  0  0  0  0  0  0  0  0  0  0  0
  -10.4450   -3.4580  -21.1540 H   0  0  0  0  0  0  0  0  0  0  0  0
   -9.4090   -4.8900  -21.2760 H   0  0  0  0  0  0  0  0  0  0  0  0
  -12.4990   -4.2470  -21.9510 H   0  0  0  0  0  0  0  0  0  0  0  0
  -12.5790   -4.6830  -23.6570 H   0  0  0  0  0  0  0  0  0  0  0  0
  -12.1190   -3.0180  -23.1510 H   0  0  0  0  0  0  0  0  0  0  0  0
  1  2  1  0  0  0  0
  1 40  1  0  0  0  0
  1 41  1  0  0  0  0
  1 42  1  0  0  0  0
  2  3  1  0  0  0  0
  2 32  1  0  0  0  0
  3  4  1  0  0  0  0
  3 38  1  0  0  0  0
  3 39  1  0  0  0  0
  4  5  1  0  0  0  0
  4 25  1  0  0  0  0
  4 37  1  6  0  0  0
  5  6  2  0  0  0  0
  5  7  1  0  0  0  0
  7  8  1  0  0  0  0
  7 24  1  0  0  0  0
  8  9  2  0  0  0  0
  8 17  1  0  0  0  0
  9 10  1  0  0  0  0
  9 23  1  0  0  0  0
 10 11  2  0  0  0  0
 11 12  1  0  0  0  0
 11 22  1  0  0  0  0
 12 13  2  0  0  0  0
 12 17  1  0  0  0  0
 13 14  1  0  0  0  0
 13 21  1  0  0  0  0
 14 15  2  0  0  0  0
 14 20  1  0  0  0  0
 15 16  1  0  0  0  0
 15 19  1  0  0  0  0
 16 17  2  0  0  0  0
 16 18  1  0  0  0  0
 25 26  2  0  0  0  0
 25 31  1  0  0  0  0
 26 27  1  0  0  0  0
 26 36  1  0  0  0  0
 27 28  1  0  0  0  0
 27 29  2  0  0  0  0
 29 30  1  0  0  0  0
 29 35  1  0  0  0  0
 30 31  2  0  0  0  0
 30 34  1  0  0  0  0
 31 32  1  0  0  0  0
 32 33  2  0  0  0  0
M  END
>  <MODEL>
       1

$$$$
