tmp_first_model_10_6.pdb
 OpenBabel08272522163D

 43 45  0  0  0  0  0  0  0  0999 V2000
  -14.4810   -2.7020  -22.6900 C   0  0  0  0  0  0  0  0  0  0  0  0
  -13.0360   -3.0860  -23.0120 C   0  0  0  0  0  0  0  0  0  0  0  0
  -12.1870   -1.9590  -23.6230 C   0  0  0  0  0  0  0  0  0  0  0  0
  -12.0490   -0.7800  -22.6450 C   0  0  0  0  0  0  0  0  0  0  0  0
  -10.7210   -0.0470  -22.7470 C   0  0  0  0  0  0  0  0  0  0  0  0
   -9.6270   -0.9570  -22.4350 N   0  0  0  0  0  0  0  0  0  0  0  0
   -8.5610   -0.4270  -21.7590 C   0  0  0  0  0  0  0  0  0  0  0  0
   -8.4690    0.7670  -21.5330 O   0  0  0  0  0  0  0  0  0  0  0  0
   -7.4940   -1.4040  -21.2570 C   0  0  0  0  0  0  0  0  0  0  0  0
   -6.6450   -0.8000  -20.1700 C   0  0  0  0  0  0  0  0  0  0  0  0
   -6.9180   -1.0630  -18.8530 C   0  0  0  0  0  0  0  0  0  0  0  0
   -6.2150   -0.5930  -17.7870 N   0  0  0  0  0  0  0  0  0  0  0  0
   -5.2110    0.2100  -18.0520 C   0  0  0  0  0  0  0  0  0  0  0  0
   -4.8250    0.5890  -19.3670 C   0  0  0  0  0  0  0  0  0  0  0  0
   -3.6930    1.4140  -19.6070 C   0  0  0  0  0  0  0  0  0  0  0  0
   -3.4090    1.8550  -20.8700 C   0  0  0  0  0  0  0  0  0  0  0  0
   -4.2170    1.4500  -21.9560 C   0  0  0  0  0  0  0  0  0  0  0  0
   -5.2200    0.5260  -21.7720 C   0  0  0  0  0  0  0  0  0  0  0  0
   -5.5670    0.0900  -20.4610 C   0  0  0  0  0  0  0  0  0  0  0  0
   -5.7740    0.1460  -22.6240 H   0  0  0  0  0  0  0  0  0  0  0  0
   -4.0390    1.8700  -22.9480 H   0  0  0  0  0  0  0  0  0  0  0  0
   -2.5640    2.5220  -21.0450 H   0  0  0  0  0  0  0  0  0  0  0  0
   -3.0890    1.7100  -18.7520 H   0  0  0  0  0  0  0  0  0  0  0  0
   -4.6300    0.5880  -17.2050 H   0  0  0  0  0  0  0  0  0  0  0  0
   -7.7550   -1.7090  -18.5830 H   0  0  0  0  0  0  0  0  0  0  0  0
   -6.8850   -1.7380  -22.1110 H   0  0  0  0  0  0  0  0  0  0  0  0
   -8.0070   -2.2950  -20.8750 H   0  0  0  0  0  0  0  0  0  0  0  0
   -9.7520   -2.3430  -22.8810 C   0  0  0  0  0  0  0  0  0  0  0  0
  -10.7800   -2.4480  -24.0110 C   0  0  0  0  0  0  0  0  0  0  0  0
  -10.4100   -1.8370  -24.8400 H   0  0  0  0  0  0  0  0  0  0  0  0
  -10.8250   -3.4800  -24.3750 H   0  0  0  0  0  0  0  0  0  0  0  0
   -8.7820   -2.6860  -23.2570 H   0  0  0  0  0  0  0  0  0  0  0  0
  -10.0230   -3.0060  -22.0470 H   0  0  0  0  0  0  0  0  0  0  0  0
  -10.5720    0.3800  -23.7440 H   0  0  0  0  0  0  0  0  0  0  0  0
  -10.6440    0.7800  -22.0400 H   0  0  0  0  0  0  0  0  0  0  0  0
  -12.8840   -0.0720  -22.7010 H   0  0  0  0  0  0  0  0  0  0  0  0
  -12.0780   -1.2250  -21.6530 H   0  0  0  0  0  0  0  0  0  0  0  0
  -12.6910   -1.6360  -24.5440 H   0  0  0  0  0  0  0  0  0  0  0  0
  -12.5380   -3.4370  -22.0980 H   0  0  0  0  0  0  0  0  0  0  0  0
  -13.0410   -3.9390  -23.7010 H   0  0  0  0  0  0  0  0  0  0  0  0
  -15.0410   -3.5670  -22.3210 H   0  0  0  0  0  0  0  0  0  0  0  0
  -14.5430   -1.9250  -21.9200 H   0  0  0  0  0  0  0  0  0  0  0  0
  -15.0000   -2.3260  -23.5790 H   0  0  0  0  0  0  0  0  0  0  0  0
  1  2  1  0  0  0  0
  1 41  1  0  0  0  0
  1 42  1  0  0  0  0
  1 43  1  0  0  0  0
  2  3  1  0  0  0  0
  2 39  1  0  0  0  0
  2 40  1  0  0  0  0
  3  4  1  0  0  0  0
  3 29  1  0  0  0  0
  3 38  1  0  0  0  0
  4  5  1  0  0  0  0
  4 36  1  0  0  0  0
  4 37  1  0  0  0  0
  5  6  1  0  0  0  0
  5 34  1  0  0  0  0
  5 35  1  0  0  0  0
  6  7  1  0  0  0  0
  6 28  1  0  0  0  0
  7  8  2  0  0  0  0
  7  9  1  0  0  0  0
  9 10  1  0  0  0  0
  9 26  1  0  0  0  0
  9 27  1  0  0  0  0
 10 11  2  0  0  0  0
 10 19  1  0  0  0  0
 11 12  1  0  0  0  0
 11 25  1  0  0  0  0
 12 13  2  0  0  0  0
 13 14  1  0  0  0  0
 13 24  1  0  0  0  0
 14 15  2  0  0  0  0
 14 19  1  0  0  0  0
 15 16  1  0  0  0  0
 15 23  1  0  0  0  0
 16 17  2  0  0  0  0
 16 22  1  0  0  0  0
 17 18  1  0  0  0  0
 17 21  1  0  0  0  0
 18 19  2  0  0  0  0
 18 20  1  0  0  0  0
 28 29  1  0  0  0  0
 28 32  1  0  0  0  0
 28 33  1  0  0  0  0
 29 30  1  0  0  0  0
 29 31  1  0  0  0  0
M  END
>  <MODEL>
       1

$$$$
