tmp_first_model_7_53.pdb
 OpenBabel08272520323D

 59 63  0  0  1  0  0  0  0  0999 V2000
   -7.7150    4.3850  -22.3580 C   0  0  0  0  0  0  0  0  0  0  0  0
   -6.7570    3.4820  -23.1040 C   0  0  0  0  0  0  0  0  0  0  0  0
   -7.4970    2.7310  -24.0950 N   0  0  0  0  0  0  0  0  0  0  0  0
   -6.9170    1.7070  -24.7420 C   0  0  0  0  0  0  0  0  0  0  0  0
   -5.7090    1.4880  -24.7140 O   0  0  0  0  0  0  0  0  0  0  0  0
   -7.8770    0.8320  -25.5580 C   0  0  0  0  0  0  0  0  0  0  0  0
   -8.8700    0.1390  -24.7440 N   0  0  0  0  0  0  0  0  0  0  0  0
   -8.5200   -1.2010  -24.3150 C   0  0  0  0  0  0  0  0  0  0  0  0
   -8.9970   -1.4950  -22.8690 C   0  0  2  0  0  0  0  0  0  0  0  0
   -8.2250   -0.5890  -21.8880 C   0  0  0  0  0  0  0  0  0  0  0  0
   -8.3090    0.6200  -21.7680 O   0  0  0  0  0  0  0  0  0  0  0  0
   -7.3800   -1.3770  -21.1570 N   0  0  0  0  0  0  0  0  0  0  0  0
   -6.5670   -0.8270  -20.1490 C   0  0  0  0  0  0  0  0  0  0  0  0
   -6.8680   -1.0680  -18.8340 C   0  0  0  0  0  0  0  0  0  0  0  0
   -6.1750   -0.5600  -17.7930 N   0  0  0  0  0  0  0  0  0  0  0  0
   -5.1500    0.2070  -18.0720 C   0  0  0  0  0  0  0  0  0  0  0  0
   -4.7210    0.5160  -19.3930 C   0  0  0  0  0  0  0  0  0  0  0  0
   -3.5950    1.3450  -19.6330 C   0  0  0  0  0  0  0  0  0  0  0  0
   -3.2000    1.6320  -20.9110 C   0  0  0  0  0  0  0  0  0  0  0  0
   -3.9160    1.1040  -22.0080 C   0  0  0  0  0  0  0  0  0  0  0  0
   -5.0040    0.2910  -21.8030 C   0  0  0  0  0  0  0  0  0  0  0  0
   -5.4440   -0.0150  -20.4810 C   0  0  0  0  0  0  0  0  0  0  0  0
   -5.5420   -0.0990  -22.6610 H   0  0  0  0  0  0  0  0  0  0  0  0
   -3.6340    1.3670  -23.0250 H   0  0  0  0  0  0  0  0  0  0  0  0
   -2.3410    2.2730  -21.0860 H   0  0  0  0  0  0  0  0  0  0  0  0
   -3.0710    1.7550  -18.7750 H   0  0  0  0  0  0  0  0  0  0  0  0
   -4.5990    0.6250  -17.2300 H   0  0  0  0  0  0  0  0  0  0  0  0
   -7.7280   -1.6890  -18.5830 H   0  0  0  0  0  0  0  0  0  0  0  0
   -7.3950   -2.7780  -21.4990 C   0  0  0  0  0  0  0  0  0  0  0  0
   -8.6280   -2.9300  -22.4020 C   0  0  2  0  0  0  0  0  0  0  0  0
   -8.4330   -3.9820  -23.4910 C   0  0  0  0  0  0  0  0  0  0  0  0
   -8.2560   -4.9630  -23.0360 H   0  0  0  0  0  0  0  0  0  0  0  0
   -7.5670   -3.7440  -24.1210 H   0  0  0  0  0  0  0  0  0  0  0  0
   -9.3140   -4.0610  -24.1380 H   0  0  0  0  0  0  0  0  0  0  0  0
   -9.4440   -3.2820  -21.7700 H   0  0  0  0  0  0  0  0  0  0  0  0
   -6.4740   -3.0780  -22.0180 H   0  0  0  0  0  0  0  0  0  0  0  0
   -7.4740   -3.3850  -20.5950 H   0  0  0  0  0  0  0  0  0  0  0  0
  -10.4660   -1.1600  -22.7720 C   0  0  0  0  0  0  0  0  0  0  0  0
  -11.3330   -1.8550  -21.9240 C   0  0  0  0  0  0  0  0  0  0  0  0
  -12.6850   -1.5740  -21.9580 C   0  0  0  0  0  0  0  0  0  0  0  0
  -13.7460   -2.5590  -20.9780 Cl  0  0  0  0  0  0  0  0  0  0  0  0
  -13.1870   -0.4820  -22.6730 C   0  0  0  0  0  0  0  0  0  0  0  0
  -12.2870    0.3330  -23.3460 C   0  0  0  0  0  0  0  0  0  0  0  0
  -10.9400   -0.0350  -23.4490 C   0  0  0  0  0  0  0  0  0  0  0  0
   -9.9910    0.7710  -24.2990 C   0  0  0  0  0  0  0  0  0  0  0  0
  -10.2150    1.9550  -24.5640 O   0  0  0  0  0  0  0  0  0  0  0  0
  -12.6290    1.2530  -23.8100 H   0  0  0  0  0  0  0  0  0  0  0  0
  -14.2590   -0.2880  -22.6660 H   0  0  0  0  0  0  0  0  0  0  0  0
  -10.9490   -2.5540  -21.1890 H   0  0  0  0  0  0  0  0  0  0  0  0
   -7.4290   -1.2820  -24.3440 H   0  0  0  0  0  0  0  0  0  0  0  0
   -8.9530   -1.9310  -25.0100 H   0  0  0  0  0  0  0  0  0  0  0  0
   -7.2640    0.0770  -26.0520 H   0  0  0  0  0  0  0  0  0  0  0  0
   -8.3640    1.4280  -26.3380 H   0  0  0  0  0  0  0  0  0  0  0  0
   -8.5090    2.7900  -24.1210 H   0  0  0  0  0  0  0  0  0  0  0  0
   -6.2700    2.7770  -22.4140 H   0  0  0  0  0  0  0  0  0  0  0  0
   -5.9620    4.0360  -23.6120 H   0  0  0  0  0  0  0  0  0  0  0  0
   -8.4700    3.7600  -21.8770 H   0  0  0  0  0  0  0  0  0  0  0  0
   -8.2170    5.0890  -23.0310 H   0  0  0  0  0  0  0  0  0  0  0  0
   -7.2030    4.9600  -21.5830 H   0  0  0  0  0  0  0  0  0  0  0  0
  1  2  1  0  0  0  0
  1 57  1  0  0  0  0
  1 58  1  0  0  0  0
  1 59  1  0  0  0  0
  2  3  1  0  0  0  0
  2 55  1  0  0  0  0
  2 56  1  0  0  0  0
  3  4  1  0  0  0  0
  3 54  1  0  0  0  0
  4  5  2  0  0  0  0
  4  6  1  0  0  0  0
  6  7  1  0  0  0  0
  6 52  1  0  0  0  0
  6 53  1  0  0  0  0
  7  8  1  0  0  0  0
  7 45  1  0  0  0  0
  8  9  1  0  0  0  0
  8 50  1  0  0  0  0
  8 51  1  0  0  0  0
  9 10  1  1  0  0  0
  9 30  1  0  0  0  0
  9 38  1  0  0  0  0
 10 11  2  0  0  0  0
 10 12  1  0  0  0  0
 12 13  1  0  0  0  0
 12 29  1  0  0  0  0
 13 14  2  0  0  0  0
 13 22  1  0  0  0  0
 14 15  1  0  0  0  0
 14 28  1  0  0  0  0
 15 16  2  0  0  0  0
 16 17  1  0  0  0  0
 16 27  1  0  0  0  0
 17 18  2  0  0  0  0
 17 22  1  0  0  0  0
 18 19  1  0  0  0  0
 18 26  1  0  0  0  0
 19 20  2  0  0  0  0
 19 25  1  0  0  0  0
 20 21  1  0  0  0  0
 20 24  1  0  0  0  0
 21 22  2  0  0  0  0
 21 23  1  0  0  0  0
 29 30  1  0  0  0  0
 29 36  1  0  0  0  0
 29 37  1  0  0  0  0
 30 31  1  0  0  0  0
 30 35  1  1  0  0  0
 31 32  1  0  0  0  0
 31 33  1  0  0  0  0
 31 34  1  0  0  0  0
 38 39  2  0  0  0  0
 38 44  1  0  0  0  0
 39 40  1  0  0  0  0
 39 49  1  0  0  0  0
 40 41  1  0  0  0  0
 40 42  2  0  0  0  0
 42 43  1  0  0  0  0
 42 48  1  0  0  0  0
 43 44  2  0  0  0  0
 43 47  1  0  0  0  0
 44 45  1  0  0  0  0
 45 46  2  0  0  0  0
M  END
>  <MODEL>
       1

$$$$
