tmp_first_model_17_78.pdb
 OpenBabel08282502223D

 56 60  0  0  1  0  0  0  0  0999 V2000
  -14.5390   -1.3820  -24.0950 C   0  0  0  0  0  0  0  0  0  0  0  0
  -13.6160   -2.4660  -23.8090 N   0  0  0  0  0  0  0  0  0  0  0  0
  -13.1140   -2.4920  -22.5490 C   0  0  0  0  0  0  0  0  0  0  0  0
  -13.2140   -1.5220  -21.8090 O   0  0  0  0  0  0  0  0  0  0  0  0
  -12.4620   -3.7790  -22.0660 C   0  0  0  0  0  0  0  0  0  0  0  0
  -11.0830   -3.8900  -22.5130 N   0  0  0  0  0  0  0  0  0  0  0  0
  -10.0080   -3.3540  -21.6850 C   0  0  0  0  0  0  0  0  0  0  0  0
   -8.7590   -2.8800  -22.4770 C   0  0  2  0  0  0  0  0  0  0  0  0
   -7.6260   -2.7360  -21.4400 C   0  0  0  0  0  0  0  0  0  0  0  0
   -7.0520   -3.6340  -20.8530 O   0  0  0  0  0  0  0  0  0  0  0  0
   -7.3530   -1.3990  -21.2520 N   0  0  0  0  0  0  0  0  0  0  0  0
   -6.5690   -0.9220  -20.1790 C   0  0  0  0  0  0  0  0  0  0  0  0
   -6.9000   -1.1820  -18.8740 C   0  0  0  0  0  0  0  0  0  0  0  0
   -6.2650   -0.6240  -17.8100 N   0  0  0  0  0  0  0  0  0  0  0  0
   -5.2600    0.1840  -18.0580 C   0  0  0  0  0  0  0  0  0  0  0  0
   -4.7930    0.5080  -19.3670 C   0  0  0  0  0  0  0  0  0  0  0  0
   -3.6830    1.3640  -19.6020 C   0  0  0  0  0  0  0  0  0  0  0  0
   -3.2900    1.6520  -20.8830 C   0  0  0  0  0  0  0  0  0  0  0  0
   -3.9790    1.1010  -21.9870 C   0  0  0  0  0  0  0  0  0  0  0  0
   -5.0450    0.2610  -21.7840 C   0  0  0  0  0  0  0  0  0  0  0  0
   -5.4740   -0.0510  -20.4660 C   0  0  0  0  0  0  0  0  0  0  0  0
   -5.5660   -0.1820  -22.6240 H   0  0  0  0  0  0  0  0  0  0  0  0
   -3.6540    1.3360  -22.9980 H   0  0  0  0  0  0  0  0  0  0  0  0
   -2.4330    2.2940  -21.0640 H   0  0  0  0  0  0  0  0  0  0  0  0
   -3.1500    1.7770  -18.7500 H   0  0  0  0  0  0  0  0  0  0  0  0
   -4.7590    0.6270  -17.1960 H   0  0  0  0  0  0  0  0  0  0  0  0
   -7.7220   -1.8580  -18.6420 H   0  0  0  0  0  0  0  0  0  0  0  0
   -8.3160   -0.5290  -21.8950 C   0  0  0  0  0  0  0  0  0  0  0  0
   -8.8870   -1.4080  -23.0160 C   0  0  2  0  0  0  0  0  0  0  0  0
  -10.2750   -0.9480  -23.4410 C   0  0  0  0  0  0  0  0  0  0  0  0
  -10.9480   -0.8600  -22.5800 H   0  0  0  0  0  0  0  0  0  0  0  0
  -10.2300    0.0370  -23.9140 H   0  0  0  0  0  0  0  0  0  0  0  0
  -10.7160   -1.6530  -24.1510 H   0  0  0  0  0  0  0  0  0  0  0  0
   -8.2040   -1.3470  -23.8740 H   0  0  0  0  0  0  0  0  0  0  0  0
   -7.8340    0.3850  -22.2590 H   0  0  0  0  0  0  0  0  0  0  0  0
   -9.0960   -0.2240  -21.1760 H   0  0  0  0  0  0  0  0  0  0  0  0
   -8.4350   -3.9220  -23.5390 C   0  0  0  0  0  0  0  0  0  0  0  0
   -7.1310   -4.0920  -24.0310 C   0  0  0  0  0  0  0  0  0  0  0  0
   -6.8710   -5.0570  -24.9930 C   0  0  0  0  0  0  0  0  0  0  0  0
   -5.2620   -5.2350  -25.6350 Cl  0  0  0  0  0  0  0  0  0  0  0  0
   -7.8740   -5.8980  -25.4770 C   0  0  0  0  0  0  0  0  0  0  0  0
   -9.1650   -5.7080  -25.0250 C   0  0  0  0  0  0  0  0  0  0  0  0
   -9.4460   -4.7240  -24.0830 C   0  0  0  0  0  0  0  0  0  0  0  0
  -10.8750   -4.5450  -23.6870 C   0  0  0  0  0  0  0  0  0  0  0  0
  -11.8020   -4.9520  -24.3830 O   0  0  0  0  0  0  0  0  0  0  0  0
   -9.9960   -6.3100  -25.3830 H   0  0  0  0  0  0  0  0  0  0  0  0
   -7.6380   -6.6870  -26.1840 H   0  0  0  0  0  0  0  0  0  0  0  0
   -6.3070   -3.5040  -23.6380 H   0  0  0  0  0  0  0  0  0  0  0  0
   -9.6610   -4.1060  -20.9700 H   0  0  0  0  0  0  0  0  0  0  0  0
  -10.4180   -2.5140  -21.1140 H   0  0  0  0  0  0  0  0  0  0  0  0
  -13.0080   -4.6390  -22.4670 H   0  0  0  0  0  0  0  0  0  0  0  0
  -12.5090   -3.7710  -20.9700 H   0  0  0  0  0  0  0  0  0  0  0  0
  -13.3940   -3.1960  -24.4660 H   0  0  0  0  0  0  0  0  0  0  0  0
  -14.0330   -0.4220  -23.9570 H   0  0  0  0  0  0  0  0  0  0  0  0
  -14.9320   -1.4490  -25.1140 H   0  0  0  0  0  0  0  0  0  0  0  0
  -15.3400   -1.4310  -23.3470 H   0  0  0  0  0  0  0  0  0  0  0  0
  1  2  1  0  0  0  0
  1 54  1  0  0  0  0
  1 55  1  0  0  0  0
  1 56  1  0  0  0  0
  2  3  1  0  0  0  0
  2 53  1  0  0  0  0
  3  4  2  0  0  0  0
  3  5  1  0  0  0  0
  5  6  1  0  0  0  0
  5 51  1  0  0  0  0
  5 52  1  0  0  0  0
  6  7  1  0  0  0  0
  6 44  1  0  0  0  0
  7  8  1  0  0  0  0
  7 49  1  0  0  0  0
  7 50  1  0  0  0  0
  8  9  1  1  0  0  0
  8 29  1  0  0  0  0
  8 37  1  0  0  0  0
  9 10  2  0  0  0  0
  9 11  1  0  0  0  0
 11 12  1  0  0  0  0
 11 28  1  0  0  0  0
 12 13  2  0  0  0  0
 12 21  1  0  0  0  0
 13 14  1  0  0  0  0
 13 27  1  0  0  0  0
 14 15  2  0  0  0  0
 15 16  1  0  0  0  0
 15 26  1  0  0  0  0
 16 17  2  0  0  0  0
 16 21  1  0  0  0  0
 17 18  1  0  0  0  0
 17 25  1  0  0  0  0
 18 19  2  0  0  0  0
 18 24  1  0  0  0  0
 19 20  1  0  0  0  0
 19 23  1  0  0  0  0
 20 21  2  0  0  0  0
 20 22  1  0  0  0  0
 28 29  1  0  0  0  0
 28 35  1  0  0  0  0
 28 36  1  0  0  0  0
 29 30  1  0  0  0  0
 29 34  1  6  0  0  0
 30 31  1  0  0  0  0
 30 32  1  0  0  0  0
 30 33  1  0  0  0  0
 37 38  2  0  0  0  0
 37 43  1  0  0  0  0
 38 39  1  0  0  0  0
 38 48  1  0  0  0  0
 39 40  1  0  0  0  0
 39 41  2  0  0  0  0
 41 42  1  0  0  0  0
 41 47  1  0  0  0  0
 42 43  2  0  0  0  0
 42 46  1  0  0  0  0
 43 44  1  0  0  0  0
 44 45  2  0  0  0  0
M  END
>  <MODEL>
       1

$$$$
