tmp_first_model_1_70.pdb
 OpenBabel08272517043D

 52 54  0  0  0  0  0  0  0  0999 V2000
  -10.0220   -6.9160  -27.6320 C   0  0  0  0  0  0  0  0  0  0  0  0
  -10.0630   -5.9800  -26.4250 C   0  0  0  0  0  0  0  0  0  0  0  0
  -11.4140   -6.1200  -25.7180 C   0  0  0  0  0  0  0  0  0  0  0  0
  -11.7010   -5.1910  -25.2190 H   0  0  0  0  0  0  0  0  0  0  0  0
  -11.4000   -6.9460  -25.0000 H   0  0  0  0  0  0  0  0  0  0  0  0
  -12.2190   -6.3300  -26.4230 H   0  0  0  0  0  0  0  0  0  0  0  0
   -8.8540   -6.2550  -25.5190 C   0  0  0  0  0  0  0  0  0  0  0  0
   -8.7300   -5.5130  -24.1840 C   0  0  0  0  0  0  0  0  0  0  0  0
   -9.6840   -6.1020  -23.1730 C   0  0  0  0  0  0  0  0  0  0  0  0
   -9.5370   -7.1820  -23.1940 H   0  0  0  0  0  0  0  0  0  0  0  0
  -10.7330   -5.8720  -23.3520 H   0  0  0  0  0  0  0  0  0  0  0  0
   -9.4420   -5.7760  -22.1670 H   0  0  0  0  0  0  0  0  0  0  0  0
   -8.9350   -3.9980  -24.2990 C   0  0  0  0  0  0  0  0  0  0  0  0
   -8.7800   -3.3590  -22.9220 C   0  0  0  0  0  0  0  0  0  0  0  0
   -7.4740   -3.6790  -22.3500 N   0  0  0  0  0  0  0  0  0  0  0  0
   -6.7060   -2.7890  -21.6570 C   0  0  0  0  0  0  0  0  0  0  0  0
   -5.5560   -3.0350  -21.3320 O   0  0  0  0  0  0  0  0  0  0  0  0
   -7.3800   -1.4710  -21.2620 C   0  0  0  0  0  0  0  0  0  0  0  0
   -6.5990   -0.8040  -20.1840 C   0  0  0  0  0  0  0  0  0  0  0  0
   -6.9080   -1.0570  -18.8760 C   0  0  0  0  0  0  0  0  0  0  0  0
   -6.2280   -0.5750  -17.8070 N   0  0  0  0  0  0  0  0  0  0  0  0
   -5.1950    0.1910  -18.0660 C   0  0  0  0  0  0  0  0  0  0  0  0
   -4.7400    0.5100  -19.3750 C   0  0  0  0  0  0  0  0  0  0  0  0
   -3.6150    1.3390  -19.6110 C   0  0  0  0  0  0  0  0  0  0  0  0
   -3.2050    1.6070  -20.8900 C   0  0  0  0  0  0  0  0  0  0  0  0
   -3.8940    1.0500  -21.9920 C   0  0  0  0  0  0  0  0  0  0  0  0
   -4.9890    0.2500  -21.7930 C   0  0  0  0  0  0  0  0  0  0  0  0
   -5.4520   -0.0210  -20.4770 C   0  0  0  0  0  0  0  0  0  0  0  0
   -5.5000   -0.1870  -22.6470 H   0  0  0  0  0  0  0  0  0  0  0  0
   -3.5570    1.2730  -23.0020 H   0  0  0  0  0  0  0  0  0  0  0  0
   -2.3520    2.2550  -21.0680 H   0  0  0  0  0  0  0  0  0  0  0  0
   -3.0970    1.7660  -18.7550 H   0  0  0  0  0  0  0  0  0  0  0  0
   -4.6530    0.5930  -17.2070 H   0  0  0  0  0  0  0  0  0  0  0  0
   -7.7530   -1.7050  -18.6440 H   0  0  0  0  0  0  0  0  0  0  0  0
   -8.3850   -1.7050  -20.8900 H   0  0  0  0  0  0  0  0  0  0  0  0
   -7.4870   -0.8230  -22.1400 H   0  0  0  0  0  0  0  0  0  0  0  0
   -7.0640   -5.0780  -22.3050 C   0  0  0  0  0  0  0  0  0  0  0  0
   -7.3020   -5.7640  -23.6450 C   0  0  0  0  0  0  0  0  0  0  0  0
   -7.1190   -6.8410  -23.5190 H   0  0  0  0  0  0  0  0  0  0  0  0
   -6.5760   -5.3940  -24.3820 H   0  0  0  0  0  0  0  0  0  0  0  0
   -7.5940   -5.5950  -21.4870 H   0  0  0  0  0  0  0  0  0  0  0  0
   -6.0080   -5.0930  -22.0370 H   0  0  0  0  0  0  0  0  0  0  0  0
   -8.8820   -2.2770  -23.0070 H   0  0  0  0  0  0  0  0  0  0  0  0
   -9.5960   -3.6960  -22.2610 H   0  0  0  0  0  0  0  0  0  0  0  0
   -8.1920   -3.5830  -24.9960 H   0  0  0  0  0  0  0  0  0  0  0  0
   -9.9340   -3.7480  -24.6830 H   0  0  0  0  0  0  0  0  0  0  0  0
   -8.8550   -7.3310  -25.2820 H   0  0  0  0  0  0  0  0  0  0  0  0
   -7.9370   -6.0450  -26.0810 H   0  0  0  0  0  0  0  0  0  0  0  0
   -9.9950   -4.9480  -26.7860 H   0  0  0  0  0  0  0  0  0  0  0  0
  -10.8720   -6.7290  -28.2980 H   0  0  0  0  0  0  0  0  0  0  0  0
  -10.0820   -7.9570  -27.2940 H   0  0  0  0  0  0  0  0  0  0  0  0
   -9.1010   -6.8120  -28.2120 H   0  0  0  0  0  0  0  0  0  0  0  0
  1  2  1  0  0  0  0
  1 50  1  0  0  0  0
  1 51  1  0  0  0  0
  1 52  1  0  0  0  0
  2  3  1  0  0  0  0
  2  7  1  0  0  0  0
  2 49  1  0  0  0  0
  3  4  1  0  0  0  0
  3  5  1  0  0  0  0
  3  6  1  0  0  0  0
  7  8  1  0  0  0  0
  7 47  1  0  0  0  0
  7 48  1  0  0  0  0
  8  9  1  0  0  0  0
  8 13  1  0  0  0  0
  8 38  1  0  0  0  0
  9 10  1  0  0  0  0
  9 11  1  0  0  0  0
  9 12  1  0  0  0  0
 13 14  1  0  0  0  0
 13 45  1  0  0  0  0
 13 46  1  0  0  0  0
 14 15  1  0  0  0  0
 14 43  1  0  0  0  0
 14 44  1  0  0  0  0
 15 16  1  0  0  0  0
 15 37  1  0  0  0  0
 16 17  2  0  0  0  0
 16 18  1  0  0  0  0
 18 19  1  0  0  0  0
 18 35  1  0  0  0  0
 18 36  1  0  0  0  0
 19 20  2  0  0  0  0
 19 28  1  0  0  0  0
 20 21  1  0  0  0  0
 20 34  1  0  0  0  0
 21 22  2  0  0  0  0
 22 23  1  0  0  0  0
 22 33  1  0  0  0  0
 23 24  2  0  0  0  0
 23 28  1  0  0  0  0
 24 25  1  0  0  0  0
 24 32  1  0  0  0  0
 25 26  2  0  0  0  0
 25 31  1  0  0  0  0
 26 27  1  0  0  0  0
 26 30  1  0  0  0  0
 27 28  2  0  0  0  0
 27 29  1  0  0  0  0
 37 38  1  0  0  0  0
 37 41  1  0  0  0  0
 37 42  1  0  0  0  0
 38 39  1  0  0  0  0
 38 40  1  0  0  0  0
M  END
>  <MODEL>
       1

$$$$
