tmp_first_model_1_81.pdb
 OpenBabel08272517043D

 36 38  0  0  0  0  0  0  0  0999 V2000
   -5.9640   -3.3830  -21.2460 O   0  0  0  0  0  0  0  0  0  0  0  0
   -6.6690   -2.6710  -21.9340 C   0  0  0  0  0  0  0  0  0  0  0  0
   -7.3900   -1.4620  -21.2870 C   0  0  0  0  0  0  0  0  0  0  0  0
   -6.5730   -0.8290  -20.1830 C   0  0  0  0  0  0  0  0  0  0  0  0
   -6.8720   -1.0480  -18.8630 C   0  0  0  0  0  0  0  0  0  0  0  0
   -6.1840   -0.5490  -17.8000 N   0  0  0  0  0  0  0  0  0  0  0  0
   -5.1580    0.2220  -18.0640 C   0  0  0  0  0  0  0  0  0  0  0  0
   -4.7210    0.5350  -19.3790 C   0  0  0  0  0  0  0  0  0  0  0  0
   -3.5930    1.3600  -19.6210 C   0  0  0  0  0  0  0  0  0  0  0  0
   -3.1930    1.6380  -20.9000 C   0  0  0  0  0  0  0  0  0  0  0  0
   -3.9080    1.0960  -21.9930 C   0  0  0  0  0  0  0  0  0  0  0  0
   -5.0030    0.2960  -21.7850 C   0  0  0  0  0  0  0  0  0  0  0  0
   -5.4440   -0.0060  -20.4710 C   0  0  0  0  0  0  0  0  0  0  0  0
   -5.5350   -0.1130  -22.6390 H   0  0  0  0  0  0  0  0  0  0  0  0
   -3.5870    1.3210  -23.0050 H   0  0  0  0  0  0  0  0  0  0  0  0
   -2.3340    2.2750  -21.0890 H   0  0  0  0  0  0  0  0  0  0  0  0
   -3.0560    1.7740  -18.7710 H   0  0  0  0  0  0  0  0  0  0  0  0
   -4.6040    0.6280  -17.2150 H   0  0  0  0  0  0  0  0  0  0  0  0
   -7.7220   -1.6710  -18.5890 H   0  0  0  0  0  0  0  0  0  0  0  0
   -7.6810   -0.7060  -22.0250 H   0  0  0  0  0  0  0  0  0  0  0  0
   -8.3270   -1.8370  -20.8520 H   0  0  0  0  0  0  0  0  0  0  0  0
   -6.8180   -2.9340  -23.2890 N   0  0  0  0  0  0  0  0  0  0  0  0
   -6.4340   -4.2690  -23.7400 C   0  0  0  0  0  0  0  0  0  0  0  0
   -7.4890   -5.3360  -23.5910 C   0  0  0  0  0  0  0  0  0  0  0  0
   -8.8170   -5.1860  -23.5220 C   0  0  0  0  0  0  0  0  0  0  0  0
   -9.6370   -3.9560  -23.5550 C   0  0  0  0  0  0  0  0  0  0  0  0
   -9.2450   -2.7030  -23.7980 C   0  0  0  0  0  0  0  0  0  0  0  0
   -7.8310   -2.2950  -24.1150 C   0  0  0  0  0  0  0  0  0  0  0  0
   -7.7110   -1.2090  -24.0770 H   0  0  0  0  0  0  0  0  0  0  0  0
   -7.5970   -2.5800  -25.1470 H   0  0  0  0  0  0  0  0  0  0  0  0
   -9.9870   -1.9050  -23.7710 H   0  0  0  0  0  0  0  0  0  0  0  0
  -10.6960   -4.1280  -23.3740 H   0  0  0  0  0  0  0  0  0  0  0  0
   -9.4080   -6.0960  -23.4320 H   0  0  0  0  0  0  0  0  0  0  0  0
   -7.0960   -6.3550  -23.5430 H   0  0  0  0  0  0  0  0  0  0  0  0
   -5.5190   -4.5680  -23.2210 H   0  0  0  0  0  0  0  0  0  0  0  0
   -6.1720   -4.1830  -24.8010 H   0  0  0  0  0  0  0  0  0  0  0  0
  1  2  2  0  0  0  0
  2  3  1  0  0  0  0
  2 22  1  0  0  0  0
  3  4  1  0  0  0  0
  3 20  1  0  0  0  0
  3 21  1  0  0  0  0
  4  5  2  0  0  0  0
  4 13  1  0  0  0  0
  5  6  1  0  0  0  0
  5 19  1  0  0  0  0
  6  7  2  0  0  0  0
  7  8  1  0  0  0  0
  7 18  1  0  0  0  0
  8  9  2  0  0  0  0
  8 13  1  0  0  0  0
  9 10  1  0  0  0  0
  9 17  1  0  0  0  0
 10 11  2  0  0  0  0
 10 16  1  0  0  0  0
 11 12  1  0  0  0  0
 11 15  1  0  0  0  0
 12 13  2  0  0  0  0
 12 14  1  0  0  0  0
 22 23  1  0  0  0  0
 22 28  1  0  0  0  0
 23 24  1  0  0  0  0
 23 35  1  0  0  0  0
 23 36  1  0  0  0  0
 24 25  2  0  0  0  0
 24 34  1  0  0  0  0
 25 26  1  0  0  0  0
 25 33  1  0  0  0  0
 26 27  2  0  0  0  0
 26 32  1  0  0  0  0
 27 28  1  0  0  0  0
 27 31  1  0  0  0  0
 28 29  1  0  0  0  0
 28 30  1  0  0  0  0
M  END
>  <MODEL>
       1

$$$$
