tmp_first_model_11_3.pdb
 OpenBabel08272522543D

 66 70  0  0  1  0  0  0  0  0999 V2000
   -7.4360    3.3710  -21.7680 C   0  0  0  0  0  0  0  0  0  0  0  0
   -8.3630    2.9530  -22.7960 N   0  0  0  0  0  0  0  0  0  0  0  0
   -7.8350    2.2480  -23.8250 C   0  0  0  0  0  0  0  0  0  0  0  0
   -6.6270    2.1050  -23.9430 O   0  0  0  0  0  0  0  0  0  0  0  0
   -8.7990    1.6450  -24.8320 C   0  0  0  0  0  0  0  0  0  0  0  0
   -9.4640    0.4620  -24.3290 N   0  0  0  0  0  0  0  0  0  0  0  0
   -8.6980   -0.7610  -24.1700 C   0  0  0  0  0  0  0  0  0  0  0  0
   -9.0660   -1.5170  -22.8730 C   0  0  2  0  0  0  0  0  0  0  0  0
   -8.5410   -0.7520  -21.6400 C   0  0  0  0  0  0  0  0  0  0  0  0
   -9.0160    0.2420  -21.1330 O   0  0  0  0  0  0  0  0  0  0  0  0
   -7.4050   -1.3830  -21.1910 N   0  0  0  0  0  0  0  0  0  0  0  0
   -6.6040   -0.8110  -20.1710 C   0  0  0  0  0  0  0  0  0  0  0  0
   -6.9190   -1.0410  -18.8570 C   0  0  0  0  0  0  0  0  0  0  0  0
   -6.2210   -0.5450  -17.8060 N   0  0  0  0  0  0  0  0  0  0  0  0
   -5.1800    0.2060  -18.0760 C   0  0  0  0  0  0  0  0  0  0  0  0
   -4.7380    0.5190  -19.3930 C   0  0  0  0  0  0  0  0  0  0  0  0
   -3.6120    1.3520  -19.6380 C   0  0  0  0  0  0  0  0  0  0  0  0
   -3.2270    1.6500  -20.9160 C   0  0  0  0  0  0  0  0  0  0  0  0
   -3.9520    1.1340  -22.0160 C   0  0  0  0  0  0  0  0  0  0  0  0
   -5.0460    0.3270  -21.8070 C   0  0  0  0  0  0  0  0  0  0  0  0
   -5.4680   -0.0030  -20.4880 C   0  0  0  0  0  0  0  0  0  0  0  0
   -5.6100   -0.0350  -22.6610 H   0  0  0  0  0  0  0  0  0  0  0  0
   -3.6580    1.3880  -23.0300 H   0  0  0  0  0  0  0  0  0  0  0  0
   -2.3730    2.3010  -21.0940 H   0  0  0  0  0  0  0  0  0  0  0  0
   -3.0810    1.7630  -18.7830 H   0  0  0  0  0  0  0  0  0  0  0  0
   -4.6170    0.6050  -17.2290 H   0  0  0  0  0  0  0  0  0  0  0  0
   -7.7800   -1.6580  -18.6090 H   0  0  0  0  0  0  0  0  0  0  0  0
   -7.0410   -2.5660  -21.9410 C   0  0  0  0  0  0  0  0  0  0  0  0
   -8.3020   -2.8710  -22.7640 C   0  0  2  0  0  0  0  0  0  0  0  0
   -7.9760   -3.6060  -24.0700 C   0  0  0  0  0  0  0  0  0  0  0  0
   -9.1320   -3.9150  -24.8160 O   0  0  0  0  0  0  0  0  0  0  0  0
   -9.6990   -5.1960  -24.5690 C   0  0  0  0  0  0  0  0  0  0  0  0
  -11.1960   -5.0550  -24.7540 C   0  0  0  0  0  0  0  0  0  0  0  0
  -11.6970   -6.0100  -24.5610 H   0  0  0  0  0  0  0  0  0  0  0  0
  -11.6030   -4.2970  -24.0770 H   0  0  0  0  0  0  0  0  0  0  0  0
  -11.4130   -4.7450  -25.7800 H   0  0  0  0  0  0  0  0  0  0  0  0
   -9.0960   -6.2320  -25.5050 C   0  0  0  0  0  0  0  0  0  0  0  0
   -9.5480   -7.2140  -25.3380 H   0  0  0  0  0  0  0  0  0  0  0  0
   -8.0170   -6.3320  -25.3590 H   0  0  0  0  0  0  0  0  0  0  0  0
   -9.2730   -5.9430  -26.5440 H   0  0  0  0  0  0  0  0  0  0  0  0
   -9.4900   -5.4830  -23.5300 H   0  0  0  0  0  0  0  0  0  0  0  0
   -7.4060   -4.5220  -23.8520 H   0  0  0  0  0  0  0  0  0  0  0  0
   -7.3380   -2.9770  -24.7060 H   0  0  0  0  0  0  0  0  0  0  0  0
   -8.9490   -3.5320  -22.1830 H   0  0  0  0  0  0  0  0  0  0  0  0
   -6.1750   -2.3730  -22.5920 H   0  0  0  0  0  0  0  0  0  0  0  0
   -6.7680   -3.3810  -21.2650 H   0  0  0  0  0  0  0  0  0  0  0  0
  -10.5770   -1.6190  -22.8160 C   0  0  0  0  0  0  0  0  0  0  0  0
  -11.1930   -2.5260  -21.9450 C   0  0  0  0  0  0  0  0  0  0  0  0
  -12.5730   -2.5570  -21.8420 C   0  0  0  0  0  0  0  0  0  0  0  0
  -13.3310   -3.6260  -20.6940 Cl  0  0  0  0  0  0  0  0  0  0  0  0
  -13.3880   -1.7260  -22.6130 C   0  0  0  0  0  0  0  0  0  0  0  0
  -12.7890   -0.7940  -23.4370 C   0  0  0  0  0  0  0  0  0  0  0  0
  -11.4000   -0.7120  -23.5010 C   0  0  0  0  0  0  0  0  0  0  0  0
  -10.8250    0.4570  -24.2350 C   0  0  0  0  0  0  0  0  0  0  0  0
  -11.5320    1.3550  -24.6850 O   0  0  0  0  0  0  0  0  0  0  0  0
  -13.3680   -0.0700  -24.0060 H   0  0  0  0  0  0  0  0  0  0  0  0
  -14.4660   -1.7990  -22.5140 H   0  0  0  0  0  0  0  0  0  0  0  0
  -10.5990   -3.1760  -21.3100 H   0  0  0  0  0  0  0  0  0  0  0  0
   -8.8940   -1.4320  -25.0150 H   0  0  0  0  0  0  0  0  0  0  0  0
   -7.6390   -0.4920  -24.1660 H   0  0  0  0  0  0  0  0  0  0  0  0
   -9.5950    2.3430  -25.0970 H   0  0  0  0  0  0  0  0  0  0  0  0
   -8.1880    1.4010  -25.7040 H   0  0  0  0  0  0  0  0  0  0  0  0
   -9.3220    2.8060  -22.5230 H   0  0  0  0  0  0  0  0  0  0  0  0
   -6.8140    2.5310  -21.4580 H   0  0  0  0  0  0  0  0  0  0  0  0
   -6.7670    4.1320  -22.1550 H   0  0  0  0  0  0  0  0  0  0  0  0
   -7.9730    3.7690  -20.9140 H   0  0  0  0  0  0  0  0  0  0  0  0
  1  2  1  0  0  0  0
  1 64  1  0  0  0  0
  1 65  1  0  0  0  0
  1 66  1  0  0  0  0
  2  3  1  0  0  0  0
  2 63  1  0  0  0  0
  3  4  2  0  0  0  0
  3  5  1  0  0  0  0
  5  6  1  0  0  0  0
  5 61  1  0  0  0  0
  5 62  1  0  0  0  0
  6  7  1  0  0  0  0
  6 54  1  0  0  0  0
  7  8  1  0  0  0  0
  7 59  1  0  0  0  0
  7 60  1  0  0  0  0
  8  9  1  1  0  0  0
  8 29  1  0  0  0  0
  8 47  1  0  0  0  0
  9 10  2  0  0  0  0
  9 11  1  0  0  0  0
 11 12  1  0  0  0  0
 11 28  1  0  0  0  0
 12 13  2  0  0  0  0
 12 21  1  0  0  0  0
 13 14  1  0  0  0  0
 13 27  1  0  0  0  0
 14 15  2  0  0  0  0
 15 16  1  0  0  0  0
 15 26  1  0  0  0  0
 16 17  2  0  0  0  0
 16 21  1  0  0  0  0
 17 18  1  0  0  0  0
 17 25  1  0  0  0  0
 18 19  2  0  0  0  0
 18 24  1  0  0  0  0
 19 20  1  0  0  0  0
 19 23  1  0  0  0  0
 20 21  2  0  0  0  0
 20 22  1  0  0  0  0
 28 29  1  0  0  0  0
 28 45  1  0  0  0  0
 28 46  1  0  0  0  0
 29 30  1  0  0  0  0
 29 44  1  1  0  0  0
 30 31  1  0  0  0  0
 30 42  1  0  0  0  0
 30 43  1  0  0  0  0
 31 32  1  0  0  0  0
 32 33  1  0  0  0  0
 32 37  1  0  0  0  0
 32 41  1  0  0  0  0
 33 34  1  0  0  0  0
 33 35  1  0  0  0  0
 33 36  1  0  0  0  0
 37 38  1  0  0  0  0
 37 39  1  0  0  0  0
 37 40  1  0  0  0  0
 47 48  2  0  0  0  0
 47 53  1  0  0  0  0
 48 49  1  0  0  0  0
 48 58  1  0  0  0  0
 49 50  1  0  0  0  0
 49 51  2  0  0  0  0
 51 52  1  0  0  0  0
 51 57  1  0  0  0  0
 52 53  2  0  0  0  0
 52 56  1  0  0  0  0
 53 54  1  0  0  0  0
 54 55  2  0  0  0  0
M  END
>  <MODEL>
       1

$$$$
