tmp_first_model_10_35.pdb
 OpenBabel08272522163D

 40 42  0  0  0  0  0  0  0  0999 V2000
   -9.1980   -1.8740  -22.5420 O   0  0  0  0  0  0  0  0  0  0  0  0
   -8.3330   -1.0330  -22.3160 C   0  0  0  0  0  0  0  0  0  0  0  0
   -6.9570   -1.4780  -21.8100 C   0  0  0  0  0  0  0  0  0  0  0  0
   -6.4330   -0.7480  -20.5810 C   0  0  0  0  0  0  0  0  0  0  0  0
   -6.9670   -1.0240  -19.3430 C   0  0  0  0  0  0  0  0  0  0  0  0
   -6.4730   -0.5760  -18.1630 N   0  0  0  0  0  0  0  0  0  0  0  0
   -5.4430    0.2350  -18.2170 C   0  0  0  0  0  0  0  0  0  0  0  0
   -4.8580    0.6990  -19.4260 C   0  0  0  0  0  0  0  0  0  0  0  0
   -3.8430    1.6920  -19.4400 C   0  0  0  0  0  0  0  0  0  0  0  0
   -3.3860    2.2090  -20.6230 C   0  0  0  0  0  0  0  0  0  0  0  0
   -3.8680    1.6940  -21.8430 C   0  0  0  0  0  0  0  0  0  0  0  0
   -4.7610    0.6480  -21.8490 C   0  0  0  0  0  0  0  0  0  0  0  0
   -5.3500    0.1800  -20.6460 C   0  0  0  0  0  0  0  0  0  0  0  0
   -5.0020    0.1860  -22.8010 H   0  0  0  0  0  0  0  0  0  0  0  0
   -3.5020    2.0980  -22.7810 H   0  0  0  0  0  0  0  0  0  0  0  0
   -2.6670    3.0240  -20.6340 H   0  0  0  0  0  0  0  0  0  0  0  0
   -3.4690    2.0660  -18.4890 H   0  0  0  0  0  0  0  0  0  0  0  0
   -5.0300    0.5800  -17.2670 H   0  0  0  0  0  0  0  0  0  0  0  0
   -7.8430   -1.6690  -19.2580 H   0  0  0  0  0  0  0  0  0  0  0  0
   -7.0970   -2.5390  -21.5690 H   0  0  0  0  0  0  0  0  0  0  0  0
   -6.2220   -1.4310  -22.6210 H   0  0  0  0  0  0  0  0  0  0  0  0
   -8.4910    0.3270  -22.4330 N   0  0  0  0  0  0  0  0  0  0  0  0
   -7.5590    1.2240  -23.1760 C   0  0  0  0  0  0  0  0  0  0  0  0
   -8.1690    2.4810  -23.7330 C   0  0  0  0  0  0  0  0  0  0  0  0
   -9.4330    2.8840  -23.6580 C   0  0  0  0  0  0  0  0  0  0  0  0
   -8.4220    5.3790  -22.8690 C   0  0  0  0  0  0  0  0  0  0  0  0
   -7.7560    4.8810  -21.8450 F   0  0  0  0  0  0  0  0  0  0  0  0
   -9.1510    6.4080  -22.4910 F   0  0  0  0  0  0  0  0  0  0  0  0
   -7.5890    5.7210  -23.8400 F   0  0  0  0  0  0  0  0  0  0  0  0
   -9.6880    1.0720  -21.9670 C   0  0  0  0  0  0  0  0  0  0  0  0
   -9.6970    0.9150  -21.7840 C   0  0  0  0  0  0  0  0  0  0  0  0
  -10.4410    0.5250  -22.7500 H   0  0  0  0  0  0  0  0  0  0  0  0
   -9.8810    0.0530  -20.4620 H   0  0  0  0  0  0  0  0  0  0  0  0
  -10.6220    1.8020  -21.6970 H   0  0  0  0  0  0  0  0  0  0  0  0
   -8.9880    1.9350  -21.4690 H   0  0  0  0  0  0  0  0  0  0  0  0
   -9.6540    3.9560  -23.6890 H   0  0  0  0  0  0  0  0  0  0  0  0
   -7.4110    3.1390  -24.1480 H   0  0  0  0  0  0  0  0  0  0  0  0
  -10.2410    2.1870  -23.6120 H   0  0  0  0  0  0  0  0  0  0  0  0
   -7.0570    0.6660  -23.9710 H   0  0  0  0  0  0  0  0  0  0  0  0
   -6.7860    1.5620  -22.4750 H   0  0  0  0  0  0  0  0  0  0  0  0
  1  2  2  0  0  0  0
  2  3  1  0  0  0  0
  2 22  1  0  0  0  0
  3  4  1  0  0  0  0
  3 20  1  0  0  0  0
  3 21  1  0  0  0  0
  4  5  2  0  0  0  0
  4 13  1  0  0  0  0
  5  6  1  0  0  0  0
  5 19  1  0  0  0  0
  6  7  2  0  0  0  0
  7  8  1  0  0  0  0
  7 18  1  0  0  0  0
  8  9  2  0  0  0  0
  8 13  1  0  0  0  0
  9 10  1  0  0  0  0
  9 17  1  0  0  0  0
 10 11  2  0  0  0  0
 10 16  1  0  0  0  0
 11 12  1  0  0  0  0
 11 15  1  0  0  0  0
 12 13  2  0  0  0  0
 12 14  1  0  0  0  0
 22 23  1  0  0  0  0
 22 31  1  0  0  0  0
 23 24  1  0  0  0  0
 23 39  1  0  0  0  0
 23 40  1  0  0  0  0
 24 25  1  0  0  0  0
 24 37  1  0  0  0  0
 24 38  1  0  0  0  0
 25 26  1  0  0  0  0
 25 30  1  0  0  0  0
 25 36  1  0  0  0  0
 26 27  1  0  0  0  0
 26 28  1  0  0  0  0
 26 29  1  0  0  0  0
 30 31  1  0  0  0  0
 30 34  1  0  0  0  0
 30 35  1  0  0  0  0
 31 32  1  0  0  0  0
 31 33  1  0  0  0  0
M  END
>  <MODEL>
       1

$$$$
