tmp_first_model_12_11.pdb
 OpenBabel08272523333D

 48 52  0  0  0  0  0  0  0  0999 V2000
  -10.1250   -0.8050  -23.6510 C   0  0  0  0  0  0  0  0  0  0  0  0
   -9.1140   -1.2900  -22.7400 N   0  0  0  0  0  0  0  0  0  0  0  0
   -8.4050   -0.4150  -21.9710 C   0  0  0  0  0  0  0  0  0  0  0  0
   -8.5210    0.7870  -21.9210 O   0  0  0  0  0  0  0  0  0  0  0  0
   -7.4790   -1.1810  -21.2550 N   0  0  0  0  0  0  0  0  0  0  0  0
   -6.6840   -0.6650  -20.2070 C   0  0  0  0  0  0  0  0  0  0  0  0
   -6.9680   -1.0110  -18.9130 C   0  0  0  0  0  0  0  0  0  0  0  0
   -6.2650   -0.5720  -17.8400 N   0  0  0  0  0  0  0  0  0  0  0  0
   -5.2420    0.2170  -18.0700 C   0  0  0  0  0  0  0  0  0  0  0  0
   -4.8360    0.6300  -19.3730 C   0  0  0  0  0  0  0  0  0  0  0  0
   -3.6930    1.4430  -19.5810 C   0  0  0  0  0  0  0  0  0  0  0  0
   -3.3470    1.8440  -20.8430 C   0  0  0  0  0  0  0  0  0  0  0  0
   -4.1480    1.4890  -21.9530 C   0  0  0  0  0  0  0  0  0  0  0  0
   -5.2610    0.7060  -21.7780 C   0  0  0  0  0  0  0  0  0  0  0  0
   -5.6070    0.2250  -20.4820 C   0  0  0  0  0  0  0  0  0  0  0  0
   -5.9010    0.4750  -22.6230 H   0  0  0  0  0  0  0  0  0  0  0  0
   -3.8810    1.8410  -22.9470 H   0  0  0  0  0  0  0  0  0  0  0  0
   -2.4740    2.4710  -21.0020 H   0  0  0  0  0  0  0  0  0  0  0  0
   -3.1290    1.7570  -18.7080 H   0  0  0  0  0  0  0  0  0  0  0  0
   -4.6780    0.5720  -17.2040 H   0  0  0  0  0  0  0  0  0  0  0  0
   -7.8150   -1.6640  -18.7090 H   0  0  0  0  0  0  0  0  0  0  0  0
   -7.6120   -2.5350  -21.5260 C   0  0  0  0  0  0  0  0  0  0  0  0
   -6.8570   -3.3970  -21.1550 O   0  0  0  0  0  0  0  0  0  0  0  0
   -8.8310   -2.6660  -22.4150 C   0  0  0  0  0  0  0  0  0  0  0  0
   -9.9970   -3.5440  -21.8840 C   0  0  0  0  0  0  0  0  0  0  0  0
   -9.8850   -4.4210  -23.0800 N   0  0  0  0  0  0  0  0  0  0  0  0
  -11.1780   -4.3970  -24.1730 S   0  0  0  0  0  0  0  0  0  0  0  0
  -11.1820   -3.1320  -24.8970 O   0  0  0  0  0  0  0  0  0  0  0  0
  -12.3680   -4.8040  -23.4570 O   0  0  0  0  0  0  0  0  0  0  0  0
  -10.6050   -5.6640  -25.2780 C   0  0  0  0  0  0  0  0  0  0  0  0
  -10.9610   -5.5850  -26.6180 C   0  0  0  0  0  0  0  0  0  0  0  0
  -10.5510   -6.5850  -27.4910 C   0  0  0  0  0  0  0  0  0  0  0  0
   -9.7460   -7.6200  -27.0260 C   0  0  0  0  0  0  0  0  0  0  0  0
   -9.3410   -7.6460  -25.6980 C   0  0  0  0  0  0  0  0  0  0  0  0
   -9.7880   -6.6860  -24.8030 C   0  0  0  0  0  0  0  0  0  0  0  0
   -9.4910   -6.7170  -23.7570 H   0  0  0  0  0  0  0  0  0  0  0  0
   -8.6660   -8.4230  -25.3680 H   0  0  0  0  0  0  0  0  0  0  0  0
   -9.4210   -8.4160  -27.6890 H   0  0  0  0  0  0  0  0  0  0  0  0
  -10.8690   -6.5490  -28.5270 H   0  0  0  0  0  0  0  0  0  0  0  0
  -11.5290   -4.7340  -26.9590 H   0  0  0  0  0  0  0  0  0  0  0  0
   -8.6630   -3.7160  -23.5240 C   0  0  0  0  0  0  0  0  0  0  0  0
   -8.6400   -3.3700  -24.5590 H   0  0  0  0  0  0  0  0  0  0  0  0
   -7.8030   -4.3510  -23.3130 H   0  0  0  0  0  0  0  0  0  0  0  0
   -9.7370   -4.0940  -20.9790 H   0  0  0  0  0  0  0  0  0  0  0  0
  -10.9580   -3.0450  -21.7570 H   0  0  0  0  0  0  0  0  0  0  0  0
  -11.1280   -1.0170  -23.2710 H   0  0  0  0  0  0  0  0  0  0  0  0
   -9.9890   -1.2660  -24.6270 H   0  0  0  0  0  0  0  0  0  0  0  0
  -10.0010    0.2750  -23.7210 H   0  0  0  0  0  0  0  0  0  0  0  0
  1  2  1  0  0  0  0
  1 46  1  0  0  0  0
  1 47  1  0  0  0  0
  1 48  1  0  0  0  0
  2  3  1  0  0  0  0
  2 24  1  0  0  0  0
  3  4  2  0  0  0  0
  3  5  1  0  0  0  0
  5  6  1  0  0  0  0
  5 22  1  0  0  0  0
  6  7  2  0  0  0  0
  6 15  1  0  0  0  0
  7  8  1  0  0  0  0
  7 21  1  0  0  0  0
  8  9  2  0  0  0  0
  9 10  1  0  0  0  0
  9 20  1  0  0  0  0
 10 11  2  0  0  0  0
 10 15  1  0  0  0  0
 11 12  1  0  0  0  0
 11 19  1  0  0  0  0
 12 13  2  0  0  0  0
 12 18  1  0  0  0  0
 13 14  1  0  0  0  0
 13 17  1  0  0  0  0
 14 15  2  0  0  0  0
 14 16  1  0  0  0  0
 22 23  2  0  0  0  0
 22 24  1  0  0  0  0
 24 25  1  0  0  0  0
 24 41  1  0  0  0  0
 25 26  1  0  0  0  0
 25 44  1  0  0  0  0
 25 45  1  0  0  0  0
 26 27  1  0  0  0  0
 26 41  1  0  0  0  0
 27 28  2  0  0  0  0
 27 29  2  0  0  0  0
 27 30  1  0  0  0  0
 30 31  2  0  0  0  0
 30 35  1  0  0  0  0
 31 32  1  0  0  0  0
 31 40  1  0  0  0  0
 32 33  2  0  0  0  0
 32 39  1  0  0  0  0
 33 34  1  0  0  0  0
 33 38  1  0  0  0  0
 34 35  2  0  0  0  0
 34 37  1  0  0  0  0
 35 36  1  0  0  0  0
 41 42  1  0  0  0  0
 41 43  1  0  0  0  0
M  END
>  <MODEL>
       1

$$$$
