tmp_first_model_5_30.pdb
 OpenBabel08272519233D

 58 63  0  0  1  0  0  0  0  0999 V2000
   -8.3080   -4.3310  -23.8920 C   0  0  0  0  0  0  0  0  0  0  0  0
   -8.4100   -3.4190  -22.6810 C   0  0  1  0  0  0  0  0  0  0  0  0
   -7.0780   -2.7840  -22.2830 C   0  0  0  0  0  0  0  0  0  0  0  0
   -7.5090   -1.7760  -21.3460 N   0  0  0  0  0  0  0  0  0  0  0  0
   -6.6730   -1.3250  -20.2910 C   0  0  0  0  0  0  0  0  0  0  0  0
   -6.8500   -1.7330  -18.9900 C   0  0  0  0  0  0  0  0  0  0  0  0
   -5.9200   -1.5740  -18.0120 N   0  0  0  0  0  0  0  0  0  0  0  0
   -4.8180   -0.9280  -18.3180 C   0  0  0  0  0  0  0  0  0  0  0  0
   -4.5800   -0.3190  -19.5800 C   0  0  0  0  0  0  0  0  0  0  0  0
   -3.4730    0.5400  -19.8200 C   0  0  0  0  0  0  0  0  0  0  0  0
   -3.4220    1.2970  -20.9570 C   0  0  0  0  0  0  0  0  0  0  0  0
   -4.3770    1.1060  -21.9860 C   0  0  0  0  0  0  0  0  0  0  0  0
   -5.4210    0.2310  -21.8020 C   0  0  0  0  0  0  0  0  0  0  0  0
   -5.5580   -0.4820  -20.5830 C   0  0  0  0  0  0  0  0  0  0  0  0
   -6.1850    0.1180  -22.5660 H   0  0  0  0  0  0  0  0  0  0  0  0
   -4.2710    1.6620  -22.9130 H   0  0  0  0  0  0  0  0  0  0  0  0
   -2.6310    2.0340  -21.0720 H   0  0  0  0  0  0  0  0  0  0  0  0
   -2.7380    0.6490  -19.0290 H   0  0  0  0  0  0  0  0  0  0  0  0
   -4.0520   -0.8210  -17.5490 H   0  0  0  0  0  0  0  0  0  0  0  0
   -7.7510   -2.2560  -18.6800 H   0  0  0  0  0  0  0  0  0  0  0  0
   -8.8140   -1.3640  -21.5400 C   0  0  0  0  0  0  0  0  0  0  0  0
   -9.3270   -0.4620  -20.9220 O   0  0  0  0  0  0  0  0  0  0  0  0
   -9.4210   -2.2200  -22.7070 C   0  0  1  0  0  0  0  0  0  0  0  0
   -9.3510   -1.3980  -24.0220 C   0  0  0  0  0  0  0  0  0  0  0  0
  -10.4340   -0.4230  -24.1220 N   0  0  0  0  0  0  0  0  0  0  0  0
  -10.2150    0.8920  -24.7090 C   0  0  0  0  0  0  0  0  0  0  0  0
   -9.0560    1.6070  -24.0680 C   0  0  0  0  0  0  0  0  0  0  0  0
   -7.9490    1.9630  -24.7830 C   0  0  0  0  0  0  0  0  0  0  0  0
   -6.7730    2.4710  -24.1100 C   0  0  0  0  0  0  0  0  0  0  0  0
   -5.6750    2.6800  -24.5960 O   0  0  0  0  0  0  0  0  0  0  0  0
   -7.0180    2.7000  -22.7480 N   0  0  0  0  0  0  0  0  0  0  0  0
   -8.1750    2.3480  -22.1240 C   0  0  0  0  0  0  0  0  0  0  0  0
   -9.2020    1.8370  -22.7280 N   0  0  0  0  0  0  0  0  0  0  0  0
   -8.2030    2.5100  -21.0550 H   0  0  0  0  0  0  0  0  0  0  0  0
   -6.2240    2.9900  -22.1870 H   0  0  0  0  0  0  0  0  0  0  0  0
   -7.8980    1.8020  -25.8480 H   0  0  0  0  0  0  0  0  0  0  0  0
  -11.1300    1.4550  -24.5130 H   0  0  0  0  0  0  0  0  0  0  0  0
  -10.0890    0.8350  -25.7980 H   0  0  0  0  0  0  0  0  0  0  0  0
  -11.7360   -0.8310  -24.0220 C   0  0  0  0  0  0  0  0  0  0  0  0
  -12.6660   -0.2460  -24.5510 O   0  0  0  0  0  0  0  0  0  0  0  0
  -11.9480   -2.0100  -23.1490 C   0  0  0  0  0  0  0  0  0  0  0  0
  -13.2680   -2.4010  -22.9290 C   0  0  0  0  0  0  0  0  0  0  0  0
  -13.5780   -3.2930  -21.9270 C   0  0  0  0  0  0  0  0  0  0  0  0
  -12.5220   -3.7760  -21.1680 C   0  0  0  0  0  0  0  0  0  0  0  0
  -12.8200   -4.4520  -20.0470 F   0  0  0  0  0  0  0  0  0  0  0  0
  -11.1980   -3.5320  -21.4830 C   0  0  0  0  0  0  0  0  0  0  0  0
  -10.8740   -2.6070  -22.4750 C   0  0  0  0  0  0  0  0  0  0  0  0
  -10.4230   -4.0000  -20.8870 H   0  0  0  0  0  0  0  0  0  0  0  0
  -14.5980   -3.5840  -21.6960 H   0  0  0  0  0  0  0  0  0  0  0  0
  -14.0510   -1.9330  -23.5180 H   0  0  0  0  0  0  0  0  0  0  0  0
   -9.3980   -2.0920  -24.8730 H   0  0  0  0  0  0  0  0  0  0  0  0
   -8.4030   -0.8590  -24.0670 H   0  0  0  0  0  0  0  0  0  0  0  0
   -6.3750   -3.4800  -21.8120 H   0  0  0  0  0  0  0  0  0  0  0  0
   -6.5650   -2.3480  -23.1560 H   0  0  0  0  0  0  0  0  0  0  0  0
   -8.6990   -4.0310  -21.8200 H   0  0  0  0  0  0  0  0  0  0  0  0
   -9.2670   -4.8060  -24.1180 H   0  0  0  0  0  0  0  0  0  0  0  0
   -7.9720   -3.7810  -24.7790 H   0  0  0  0  0  0  0  0  0  0  0  0
   -7.5770   -5.1270  -23.7050 H   0  0  0  0  0  0  0  0  0  0  0  0
  1  2  1  0  0  0  0
  1 56  1  0  0  0  0
  1 57  1  0  0  0  0
  1 58  1  0  0  0  0
  2  3  1  0  0  0  0
  2 23  1  0  0  0  0
  2 55  1  1  0  0  0
  3  4  1  0  0  0  0
  3 53  1  0  0  0  0
  3 54  1  0  0  0  0
  4  5  1  0  0  0  0
  4 21  1  0  0  0  0
  5  6  2  0  0  0  0
  5 14  1  0  0  0  0
  6  7  1  0  0  0  0
  6 20  1  0  0  0  0
  7  8  2  0  0  0  0
  8  9  1  0  0  0  0
  8 19  1  0  0  0  0
  9 10  2  0  0  0  0
  9 14  1  0  0  0  0
 10 11  1  0  0  0  0
 10 18  1  0  0  0  0
 11 12  2  0  0  0  0
 11 17  1  0  0  0  0
 12 13  1  0  0  0  0
 12 16  1  0  0  0  0
 13 14  2  0  0  0  0
 13 15  1  0  0  0  0
 21 22  2  0  0  0  0
 23 21  1  1  0  0  0
 23 24  1  0  0  0  0
 23 47  1  0  0  0  0
 24 25  1  0  0  0  0
 24 51  1  0  0  0  0
 24 52  1  0  0  0  0
 25 26  1  0  0  0  0
 25 39  1  0  0  0  0
 26 27  1  0  0  0  0
 26 37  1  0  0  0  0
 26 38  1  0  0  0  0
 27 28  2  0  0  0  0
 27 33  1  0  0  0  0
 28 29  1  0  0  0  0
 28 36  1  0  0  0  0
 29 30  2  0  0  0  0
 29 31  1  0  0  0  0
 31 32  1  0  0  0  0
 31 35  1  0  0  0  0
 32 33  2  0  0  0  0
 32 34  1  0  0  0  0
 39 40  2  0  0  0  0
 39 41  1  0  0  0  0
 41 42  2  0  0  0  0
 41 47  1  0  0  0  0
 42 43  1  0  0  0  0
 42 50  1  0  0  0  0
 43 44  2  0  0  0  0
 43 49  1  0  0  0  0
 44 45  1  0  0  0  0
 44 46  1  0  0  0  0
 46 47  2  0  0  0  0
 46 48  1  0  0  0  0
M  END
>  <MODEL>
       1

$$$$
