tmp_first_model_8_12.pdb
 OpenBabel08272521063D

 76 82  0  0  1  0  0  0  0  0999 V2000
  -10.1980    1.6050  -25.4710 O   0  0  0  0  0  0  0  0  0  0  0  0
   -9.9120    0.5950  -24.8340 C   0  0  0  0  0  0  0  0  0  0  0  0
  -10.8860   -0.0330  -23.8790 C   0  0  0  0  0  0  0  0  0  0  0  0
  -12.1840    0.4770  -23.8620 C   0  0  0  0  0  0  0  0  0  0  0  0
  -13.1550   -0.1380  -23.0970 C   0  0  0  0  0  0  0  0  0  0  0  0
  -12.7970   -1.2160  -22.2850 C   0  0  0  0  0  0  0  0  0  0  0  0
  -14.0070   -2.0330  -21.3180 Cl  0  0  0  0  0  0  0  0  0  0  0  0
  -11.4880   -1.6660  -22.2130 C   0  0  0  0  0  0  0  0  0  0  0  0
  -10.5070   -1.0900  -23.0340 C   0  0  0  0  0  0  0  0  0  0  0  0
   -9.0410   -1.4840  -22.9580 C   0  0  1  0  0  0  0  0  0  0  0  0
   -8.4050   -1.3050  -24.3680 C   0  0  0  0  0  0  0  0  0  0  0  0
   -8.6960   -0.0060  -24.9470 N   0  0  0  0  0  0  0  0  0  0  0  0
   -7.6650    0.7230  -25.6700 C   0  0  0  0  0  0  0  0  0  0  0  0
   -7.1390    1.8670  -24.8140 C   0  0  0  0  0  0  0  0  0  0  0  0
   -6.1260    2.6860  -25.5000 N   0  3  0  0  0  0  0  0  0  0  0  0
   -4.9040    1.9050  -25.9240 C   0  0  0  0  0  0  0  0  0  0  0  0
   -3.7690    2.8900  -26.2150 C   0  0  0  0  0  0  0  0  0  0  0  0
   -4.3240    4.1190  -26.6340 O   0  0  0  0  0  0  0  0  0  0  0  0
   -4.8550    4.8080  -25.5180 C   0  0  0  0  0  0  0  0  0  0  0  0
   -5.7630    3.8860  -24.6860 C   0  0  0  0  0  0  0  0  0  0  0  0
   -6.6820    4.4020  -24.3950 H   0  0  0  0  0  0  0  0  0  0  0  0
   -5.2630    3.5580  -23.7670 H   0  0  0  0  0  0  0  0  0  0  0  0
   -5.4060    5.6590  -25.9240 H   0  0  0  0  0  0  0  0  0  0  0  0
   -4.0390    5.1970  -24.8860 H   0  0  0  0  0  0  0  0  0  0  0  0
   -3.1460    3.0430  -25.3190 H   0  0  0  0  0  0  0  0  0  0  0  0
   -3.1290    2.5220  -27.0210 H   0  0  0  0  0  0  0  0  0  0  0  0
   -5.1530    1.3500  -26.8310 H   0  0  0  0  0  0  0  0  0  0  0  0
   -4.6320    1.1910  -25.1390 H   0  0  0  0  0  0  0  0  0  0  0  0
   -6.5550    3.0510  -26.3700 H   0  0  0  0  0  0  0  0  0  0  0  0
   -7.9800    2.5080  -24.5340 H   0  0  0  0  0  0  0  0  0  0  0  0
   -6.7200    1.4640  -23.8870 H   0  0  0  0  0  0  0  0  0  0  0  0
   -8.1020    1.1280  -26.5860 H   0  0  0  0  0  0  0  0  0  0  0  0
   -6.8670    0.0280  -25.9550 H   0  0  0  0  0  0  0  0  0  0  0  0
   -7.3150   -1.4020  -24.2780 H   0  0  0  0  0  0  0  0  0  0  0  0
   -8.7830   -2.0950  -25.0320 H   0  0  0  0  0  0  0  0  0  0  0  0
   -8.2820   -0.5770  -21.9590 C   0  0  0  0  0  0  0  0  0  0  0  0
   -8.3680    0.6290  -21.8380 O   0  0  0  0  0  0  0  0  0  0  0  0
   -7.4490   -1.3620  -21.2000 N   0  0  0  0  0  0  0  0  0  0  0  0
   -6.6420   -0.8220  -20.1830 C   0  0  0  0  0  0  0  0  0  0  0  0
   -6.9210   -1.1140  -18.8720 C   0  0  0  0  0  0  0  0  0  0  0  0
   -6.2290   -0.6250  -17.8190 N   0  0  0  0  0  0  0  0  0  0  0  0
   -5.2160    0.1650  -18.0860 C   0  0  0  0  0  0  0  0  0  0  0  0
   -4.7990    0.5140  -19.4010 C   0  0  0  0  0  0  0  0  0  0  0  0
   -3.6890    1.3680  -19.6220 C   0  0  0  0  0  0  0  0  0  0  0  0
   -3.3080    1.6950  -20.8930 C   0  0  0  0  0  0  0  0  0  0  0  0
   -4.0270    1.1890  -22.0000 C   0  0  0  0  0  0  0  0  0  0  0  0
   -5.0920    0.3420  -21.8140 C   0  0  0  0  0  0  0  0  0  0  0  0
   -5.5230    0.0050  -20.4990 C   0  0  0  0  0  0  0  0  0  0  0  0
   -5.6140   -0.0680  -22.6750 H   0  0  0  0  0  0  0  0  0  0  0  0
   -3.7150    1.4560  -23.0050 H   0  0  0  0  0  0  0  0  0  0  0  0
   -2.4520    2.3410  -21.0550 H   0  0  0  0  0  0  0  0  0  0  0  0
   -3.1600    1.7510  -18.7560 H   0  0  0  0  0  0  0  0  0  0  0  0
   -4.6690    0.5720  -17.2380 H   0  0  0  0  0  0  0  0  0  0  0  0
   -7.7670   -1.7590  -18.6330 H   0  0  0  0  0  0  0  0  0  0  0  0
   -7.4960   -2.7630  -21.5230 C   0  0  0  0  0  0  0  0  0  0  0  0
   -8.7700   -2.8880  -22.3540 C   0  0  2  0  0  0  0  0  0  0  0  0
   -8.6420   -4.0600  -23.3000 C   0  0  0  0  0  0  0  0  0  0  0  0
   -9.8360   -4.3120  -24.0610 N   0  0  0  0  0  0  0  0  0  0  0  0
   -9.8760   -5.3450  -24.9310 C   0  0  0  0  0  0  0  0  0  0  0  0
  -11.0680   -5.6960  -25.4440 N   0  0  0  0  0  0  0  0  0  0  0  0
  -11.0050   -6.6250  -26.3870 C   0  0  0  0  0  0  0  0  0  0  0  0
   -9.8280   -7.2090  -26.8320 C   0  0  0  0  0  0  0  0  0  0  0  0
   -8.6760   -6.8070  -26.1790 C   0  0  0  0  0  0  0  0  0  0  0  0
   -8.6830   -5.9050  -25.2090 N   0  0  0  0  0  0  0  0  0  0  0  0
   -7.7000   -7.1930  -26.4680 H   0  0  0  0  0  0  0  0  0  0  0  0
   -9.8050   -7.9210  -27.6420 H   0  0  0  0  0  0  0  0  0  0  0  0
  -11.9480   -6.9140  -26.8340 H   0  0  0  0  0  0  0  0  0  0  0  0
  -10.7110   -3.8730  -23.8220 H   0  0  0  0  0  0  0  0  0  0  0  0
   -8.3620   -4.9630  -22.7470 H   0  0  0  0  0  0  0  0  0  0  0  0
   -7.8130   -3.8850  -23.9920 H   0  0  0  0  0  0  0  0  0  0  0  0
   -9.5790   -3.1010  -21.6570 H   0  0  0  0  0  0  0  0  0  0  0  0
   -6.6150   -3.0760  -22.1030 H   0  0  0  0  0  0  0  0  0  0  0  0
   -7.5250   -3.3730  -20.6150 H   0  0  0  0  0  0  0  0  0  0  0  0
  -11.2630   -2.4310  -21.4760 H   0  0  0  0  0  0  0  0  0  0  0  0
  -14.1850    0.1980  -23.1220 H   0  0  0  0  0  0  0  0  0  0  0  0
  -12.4070    1.3630  -24.4550 H   0  0  0  0  0  0  0  0  0  0  0  0
  1  2  2  0  0  0  0
  2  3  1  0  0  0  0
  2 12  1  0  0  0  0
  3  4  2  0  0  0  0
  3  9  1  0  0  0  0
  4  5  1  0  0  0  0
  4 76  1  0  0  0  0
  5  6  2  0  0  0  0
  5 75  1  0  0  0  0
  6  7  1  0  0  0  0
  6  8  1  0  0  0  0
  8  9  2  0  0  0  0
  8 74  1  0  0  0  0
 10  9  1  6  0  0  0
 10 11  1  0  0  0  0
 10 36  1  0  0  0  0
 10 56  1  0  0  0  0
 11 12  1  0  0  0  0
 11 34  1  0  0  0  0
 11 35  1  0  0  0  0
 12 13  1  0  0  0  0
 13 14  1  0  0  0  0
 13 32  1  0  0  0  0
 13 33  1  0  0  0  0
 14 15  1  0  0  0  0
 14 30  1  0  0  0  0
 14 31  1  0  0  0  0
 15 16  1  0  0  0  0
 15 20  1  0  0  0  0
 15 29  1  0  0  0  0
 16 17  1  0  0  0  0
 16 27  1  0  0  0  0
 16 28  1  0  0  0  0
 17 18  1  0  0  0  0
 17 25  1  0  0  0  0
 17 26  1  0  0  0  0
 18 19  1  0  0  0  0
 19 20  1  0  0  0  0
 19 23  1  0  0  0  0
 19 24  1  0  0  0  0
 20 21  1  0  0  0  0
 20 22  1  0  0  0  0
 36 37  2  0  0  0  0
 36 38  1  0  0  0  0
 38 39  1  0  0  0  0
 38 55  1  0  0  0  0
 39 40  2  0  0  0  0
 39 48  1  0  0  0  0
 40 41  1  0  0  0  0
 40 54  1  0  0  0  0
 41 42  2  0  0  0  0
 42 43  1  0  0  0  0
 42 53  1  0  0  0  0
 43 44  2  0  0  0  0
 43 48  1  0  0  0  0
 44 45  1  0  0  0  0
 44 52  1  0  0  0  0
 45 46  2  0  0  0  0
 45 51  1  0  0  0  0
 46 47  1  0  0  0  0
 46 50  1  0  0  0  0
 47 48  2  0  0  0  0
 47 49  1  0  0  0  0
 55 56  1  0  0  0  0
 55 72  1  0  0  0  0
 55 73  1  0  0  0  0
 56 57  1  0  0  0  0
 56 71  1  1  0  0  0
 57 58  1  0  0  0  0
 57 69  1  0  0  0  0
 57 70  1  0  0  0  0
 58 59  1  0  0  0  0
 58 68  1  0  0  0  0
 59 60  2  0  0  0  0
 59 64  1  0  0  0  0
 60 61  1  0  0  0  0
 61 62  2  0  0  0  0
 61 67  1  0  0  0  0
 62 63  1  0  0  0  0
 62 66  1  0  0  0  0
 63 64  2  0  0  0  0
 63 65  1  0  0  0  0
M  CHG  1  15   1
M  END
>  <MODEL>
       1

$$$$
