tmp_first_model_19_93.pdb
 OpenBabel08282503233D

 62 67  0  0  1  0  0  0  0  0999 V2000
  -11.3170    4.3020  -25.2310 C   0  0  0  0  0  0  0  0  0  0  0  0
   -9.8230    4.1720  -25.5280 C   0  0  0  0  0  0  0  0  0  0  0  0
   -9.0690    3.5890  -24.4250 N   0  0  0  0  0  0  0  0  0  0  0  0
   -8.4880    4.4120  -23.5380 N   0  0  0  0  0  0  0  0  0  0  0  0
   -7.9030    3.6200  -22.6500 C   0  0  0  0  0  0  0  0  0  0  0  0
   -8.1110    2.2650  -22.9710 C   0  0  0  0  0  0  0  0  0  0  0  0
   -8.8900    2.2760  -24.1050 C   0  0  0  0  0  0  0  0  0  0  0  0
   -9.3910    1.1030  -24.9060 C   0  0  0  0  0  0  0  0  0  0  0  0
   -9.8540    0.0010  -24.0810 N   0  0  0  0  0  0  0  0  0  0  0  0
   -9.0390   -1.1950  -23.9800 C   0  0  0  0  0  0  0  0  0  0  0  0
   -9.2210   -1.9100  -22.6150 C   0  0  2  0  0  0  0  0  0  0  0  0
   -8.6610   -1.0290  -21.4700 C   0  0  0  0  0  0  0  0  0  0  0  0
   -9.2300   -0.1070  -20.9100 O   0  0  0  0  0  0  0  0  0  0  0  0
   -7.3770   -1.4330  -21.1950 N   0  0  0  0  0  0  0  0  0  0  0  0
   -6.6000   -0.8240  -20.1710 C   0  0  0  0  0  0  0  0  0  0  0  0
   -6.9070   -1.0510  -18.8530 C   0  0  0  0  0  0  0  0  0  0  0  0
   -6.1970   -0.5570  -17.8110 N   0  0  0  0  0  0  0  0  0  0  0  0
   -5.1670    0.2030  -18.0820 C   0  0  0  0  0  0  0  0  0  0  0  0
   -4.7320    0.5230  -19.4000 C   0  0  0  0  0  0  0  0  0  0  0  0
   -3.6060    1.3550  -19.6430 C   0  0  0  0  0  0  0  0  0  0  0  0
   -3.2270    1.6570  -20.9200 C   0  0  0  0  0  0  0  0  0  0  0  0
   -3.9560    1.1360  -22.0130 C   0  0  0  0  0  0  0  0  0  0  0  0
   -5.0490    0.3260  -21.8030 C   0  0  0  0  0  0  0  0  0  0  0  0
   -5.4660   -0.0050  -20.4880 C   0  0  0  0  0  0  0  0  0  0  0  0
   -5.6040   -0.0610  -22.6530 H   0  0  0  0  0  0  0  0  0  0  0  0
   -3.6560    1.3900  -23.0250 H   0  0  0  0  0  0  0  0  0  0  0  0
   -2.3770    2.3110  -21.1010 H   0  0  0  0  0  0  0  0  0  0  0  0
   -3.0750    1.7650  -18.7860 H   0  0  0  0  0  0  0  0  0  0  0  0
   -4.6200    0.6150  -17.2320 H   0  0  0  0  0  0  0  0  0  0  0  0
   -7.7570   -1.6750  -18.5870 H   0  0  0  0  0  0  0  0  0  0  0  0
   -6.9630   -2.6140  -21.9360 C   0  0  0  0  0  0  0  0  0  0  0  0
   -8.2900   -3.1590  -22.5100 C   0  0  2  0  0  0  0  0  0  0  0  0
   -8.0950   -3.9860  -23.7850 C   0  0  0  0  0  0  0  0  0  0  0  0
   -7.5550   -3.4110  -24.5490 H   0  0  0  0  0  0  0  0  0  0  0  0
   -7.5060   -4.8900  -23.5820 H   0  0  0  0  0  0  0  0  0  0  0  0
   -9.0510   -4.2990  -24.2210 H   0  0  0  0  0  0  0  0  0  0  0  0
   -8.7270   -3.7980  -21.7360 H   0  0  0  0  0  0  0  0  0  0  0  0
   -6.4630   -3.3260  -21.2690 H   0  0  0  0  0  0  0  0  0  0  0  0
   -6.2550   -2.3620  -22.7400 H   0  0  0  0  0  0  0  0  0  0  0  0
  -10.7060   -2.1430  -22.4240 C   0  0  0  0  0  0  0  0  0  0  0  0
  -11.2050   -3.2320  -21.7020 C   0  0  0  0  0  0  0  0  0  0  0  0
  -12.5610   -3.3300  -21.4810 C   0  0  0  0  0  0  0  0  0  0  0  0
  -13.0400   -4.3500  -20.7490 F   0  0  0  0  0  0  0  0  0  0  0  0
  -13.4690   -2.4010  -21.9680 C   0  0  0  0  0  0  0  0  0  0  0  0
  -12.9820   -1.2990  -22.6400 C   0  0  0  0  0  0  0  0  0  0  0  0
  -11.6140   -1.1690  -22.8750 C   0  0  0  0  0  0  0  0  0  0  0  0
  -11.1450    0.0380  -23.6390 C   0  0  0  0  0  0  0  0  0  0  0  0
  -11.8820    0.9890  -23.8710 O   0  0  0  0  0  0  0  0  0  0  0  0
  -13.6350   -0.5140  -23.0040 H   0  0  0  0  0  0  0  0  0  0  0  0
  -14.5220   -2.5990  -21.8190 H   0  0  0  0  0  0  0  0  0  0  0  0
  -10.5740   -3.9970  -21.2600 H   0  0  0  0  0  0  0  0  0  0  0  0
   -9.2990   -1.9080  -24.7810 H   0  0  0  0  0  0  0  0  0  0  0  0
   -7.9930   -0.8950  -24.0900 H   0  0  0  0  0  0  0  0  0  0  0  0
  -10.2070    1.4060  -25.5700 H   0  0  0  0  0  0  0  0  0  0  0  0
   -8.5750    0.7040  -25.5190 H   0  0  0  0  0  0  0  0  0  0  0  0
   -7.7800    1.3710  -22.4620 H   0  0  0  0  0  0  0  0  0  0  0  0
   -7.3660    4.0660  -21.8190 H   0  0  0  0  0  0  0  0  0  0  0  0
   -9.3670    5.1530  -25.7070 H   0  0  0  0  0  0  0  0  0  0  0  0
   -9.6500    3.5500  -26.4160 H   0  0  0  0  0  0  0  0  0  0  0  0
  -11.7710    3.3210  -25.0410 H   0  0  0  0  0  0  0  0  0  0  0  0
  -11.4840    4.9450  -24.3590 H   0  0  0  0  0  0  0  0  0  0  0  0
  -11.8200    4.7600  -26.0900 H   0  0  0  0  0  0  0  0  0  0  0  0
  1  2  1  0  0  0  0
  1 60  1  0  0  0  0
  1 61  1  0  0  0  0
  1 62  1  0  0  0  0
  2  3  1  0  0  0  0
  2 58  1  0  0  0  0
  2 59  1  0  0  0  0
  3  4  1  0  0  0  0
  3  7  1  0  0  0  0
  4  5  2  0  0  0  0
  5  6  1  0  0  0  0
  5 57  1  0  0  0  0
  6  7  2  0  0  0  0
  6 56  1  0  0  0  0
  7  8  1  0  0  0  0
  8  9  1  0  0  0  0
  8 54  1  0  0  0  0
  8 55  1  0  0  0  0
  9 10  1  0  0  0  0
  9 47  1  0  0  0  0
 10 11  1  0  0  0  0
 10 52  1  0  0  0  0
 10 53  1  0  0  0  0
 11 12  1  1  0  0  0
 11 32  1  0  0  0  0
 11 40  1  0  0  0  0
 12 13  2  0  0  0  0
 12 14  1  0  0  0  0
 14 15  1  0  0  0  0
 14 31  1  0  0  0  0
 15 16  2  0  0  0  0
 15 24  1  0  0  0  0
 16 17  1  0  0  0  0
 16 30  1  0  0  0  0
 17 18  2  0  0  0  0
 18 19  1  0  0  0  0
 18 29  1  0  0  0  0
 19 20  2  0  0  0  0
 19 24  1  0  0  0  0
 20 21  1  0  0  0  0
 20 28  1  0  0  0  0
 21 22  2  0  0  0  0
 21 27  1  0  0  0  0
 22 23  1  0  0  0  0
 22 26  1  0  0  0  0
 23 24  2  0  0  0  0
 23 25  1  0  0  0  0
 31 32  1  0  0  0  0
 31 38  1  0  0  0  0
 31 39  1  0  0  0  0
 32 33  1  0  0  0  0
 32 37  1  1  0  0  0
 33 34  1  0  0  0  0
 33 35  1  0  0  0  0
 33 36  1  0  0  0  0
 40 41  2  0  0  0  0
 40 46  1  0  0  0  0
 41 42  1  0  0  0  0
 41 51  1  0  0  0  0
 42 43  1  0  0  0  0
 42 44  2  0  0  0  0
 44 45  1  0  0  0  0
 44 50  1  0  0  0  0
 45 46  2  0  0  0  0
 45 49  1  0  0  0  0
 46 47  1  0  0  0  0
 47 48  2  0  0  0  0
M  END
>  <MODEL>
       1

$$$$
