tmp_first_model_16_2.pdb
 OpenBabel08282501503D

 60 65  0  0  1  0  0  0  0  0999 V2000
   -6.3300    1.0730  -30.6310 C   0  0  0  0  0  0  0  0  0  0  0  0
   -6.6980    1.2280  -29.1780 C   0  0  0  0  0  0  0  0  0  0  0  0
   -6.0600    0.4850  -28.1820 C   0  0  0  0  0  0  0  0  0  0  0  0
   -6.3740    0.5820  -26.8920 N   0  0  0  0  0  0  0  0  0  0  0  0
   -7.3660    1.4210  -26.5740 C   0  0  0  0  0  0  0  0  0  0  0  0
   -7.7720    1.5320  -25.1240 C   0  0  0  0  0  0  0  0  0  0  0  0
   -8.7250    0.5310  -24.6840 N   0  0  0  0  0  0  0  0  0  0  0  0
   -8.2580   -0.8090  -24.4110 C   0  0  0  0  0  0  0  0  0  0  0  0
   -8.8780   -1.3470  -23.1010 C   0  0  2  0  0  0  0  0  0  0  0  0
   -8.3060   -0.5410  -21.9090 C   0  0  0  0  0  0  0  0  0  0  0  0
   -8.5270    0.6120  -21.6200 O   0  0  0  0  0  0  0  0  0  0  0  0
   -7.4430   -1.3500  -21.2100 N   0  0  0  0  0  0  0  0  0  0  0  0
   -6.6290   -0.8020  -20.1890 C   0  0  0  0  0  0  0  0  0  0  0  0
   -6.9290   -1.0750  -18.8830 C   0  0  0  0  0  0  0  0  0  0  0  0
   -6.1740   -0.6770  -17.8320 N   0  0  0  0  0  0  0  0  0  0  0  0
   -5.1120    0.0480  -18.0850 C   0  0  0  0  0  0  0  0  0  0  0  0
   -4.7200    0.4710  -19.3930 C   0  0  0  0  0  0  0  0  0  0  0  0
   -3.6060    1.3300  -19.6280 C   0  0  0  0  0  0  0  0  0  0  0  0
   -3.2180    1.6370  -20.9050 C   0  0  0  0  0  0  0  0  0  0  0  0
   -3.9240    1.1050  -22.0080 C   0  0  0  0  0  0  0  0  0  0  0  0
   -5.0240    0.3060  -21.8070 C   0  0  0  0  0  0  0  0  0  0  0  0
   -5.4750   -0.0040  -20.4900 C   0  0  0  0  0  0  0  0  0  0  0  0
   -5.5570   -0.1050  -22.6610 H   0  0  0  0  0  0  0  0  0  0  0  0
   -3.5940    1.3390  -23.0160 H   0  0  0  0  0  0  0  0  0  0  0  0
   -2.3580    2.2780  -21.0860 H   0  0  0  0  0  0  0  0  0  0  0  0
   -3.0820    1.7480  -18.7710 H   0  0  0  0  0  0  0  0  0  0  0  0
   -4.5080    0.3300  -17.2190 H   0  0  0  0  0  0  0  0  0  0  0  0
   -7.7990   -1.6790  -18.6290 H   0  0  0  0  0  0  0  0  0  0  0  0
   -7.2360   -2.6590  -21.7930 C   0  0  0  0  0  0  0  0  0  0  0  0
   -8.4100   -2.8060  -22.7860 C   0  0  2  0  0  0  0  0  0  0  0  0
   -8.0440   -3.6970  -23.9810 C   0  0  0  0  0  0  0  0  0  0  0  0
   -7.1700   -3.3040  -24.5160 H   0  0  0  0  0  0  0  0  0  0  0  0
   -8.8670   -3.7740  -24.7010 H   0  0  0  0  0  0  0  0  0  0  0  0
   -7.7940   -4.7120  -23.6490 H   0  0  0  0  0  0  0  0  0  0  0  0
   -9.2360   -3.2780  -22.2490 H   0  0  0  0  0  0  0  0  0  0  0  0
   -6.2660   -2.7180  -22.3140 H   0  0  0  0  0  0  0  0  0  0  0  0
   -7.2310   -3.4310  -21.0140 H   0  0  0  0  0  0  0  0  0  0  0  0
  -10.3820   -1.1270  -23.1680 C   0  0  0  0  0  0  0  0  0  0  0  0
  -11.2330   -1.8020  -22.2830 C   0  0  0  0  0  0  0  0  0  0  0  0
  -12.5920   -1.5810  -22.3500 C   0  0  0  0  0  0  0  0  0  0  0  0
  -13.4020   -2.2520  -21.5160 F   0  0  0  0  0  0  0  0  0  0  0  0
  -13.1610   -0.6840  -23.2460 C   0  0  0  0  0  0  0  0  0  0  0  0
  -12.3190    0.0420  -24.0640 C   0  0  0  0  0  0  0  0  0  0  0  0
  -10.9380   -0.1480  -24.0070 C   0  0  0  0  0  0  0  0  0  0  0  0
  -10.0620    0.7870  -24.7860 C   0  0  0  0  0  0  0  0  0  0  0  0
  -10.4990    1.7280  -25.4360 O   0  0  0  0  0  0  0  0  0  0  0  0
  -12.7000    0.7970  -24.7420 H   0  0  0  0  0  0  0  0  0  0  0  0
  -14.2350   -0.5500  -23.2530 H   0  0  0  0  0  0  0  0  0  0  0  0
  -10.8660   -2.4760  -21.5160 H   0  0  0  0  0  0  0  0  0  0  0  0
   -7.1660   -0.7700  -24.3270 H   0  0  0  0  0  0  0  0  0  0  0  0
   -8.5230   -1.4740  -25.2480 H   0  0  0  0  0  0  0  0  0  0  0  0
   -6.8710    1.4210  -24.5060 H   0  0  0  0  0  0  0  0  0  0  0  0
   -8.2180    2.5140  -24.9430 H   0  0  0  0  0  0  0  0  0  0  0  0
   -7.9800    2.1850  -27.5570 C   0  0  0  0  0  0  0  0  0  0  0  0
   -7.6520    2.0980  -28.8490 N   0  0  0  0  0  0  0  0  0  0  0  0
   -8.7610    2.8940  -27.2950 H   0  0  0  0  0  0  0  0  0  0  0  0
   -5.2800   -0.2240  -28.4440 H   0  0  0  0  0  0  0  0  0  0  0  0
   -6.5030    0.0410  -30.9670 H   0  0  0  0  0  0  0  0  0  0  0  0
   -6.9310    1.7550  -31.2380 H   0  0  0  0  0  0  0  0  0  0  0  0
   -5.2650    1.2910  -30.7830 H   0  0  0  0  0  0  0  0  0  0  0  0
  1  2  1  0  0  0  0
  1 58  1  0  0  0  0
  1 59  1  0  0  0  0
  1 60  1  0  0  0  0
  2  3  2  0  0  0  0
  2 55  1  0  0  0  0
  3  4  1  0  0  0  0
  3 57  1  0  0  0  0
  4  5  2  0  0  0  0
  5  6  1  0  0  0  0
  5 54  1  0  0  0  0
  6  7  1  0  0  0  0
  6 52  1  0  0  0  0
  6 53  1  0  0  0  0
  7  8  1  0  0  0  0
  7 45  1  0  0  0  0
  8  9  1  0  0  0  0
  8 50  1  0  0  0  0
  8 51  1  0  0  0  0
  9 10  1  1  0  0  0
  9 30  1  0  0  0  0
  9 38  1  0  0  0  0
 10 11  2  0  0  0  0
 10 12  1  0  0  0  0
 12 13  1  0  0  0  0
 12 29  1  0  0  0  0
 13 14  2  0  0  0  0
 13 22  1  0  0  0  0
 14 15  1  0  0  0  0
 14 28  1  0  0  0  0
 15 16  2  0  0  0  0
 16 17  1  0  0  0  0
 16 27  1  0  0  0  0
 17 18  2  0  0  0  0
 17 22  1  0  0  0  0
 18 19  1  0  0  0  0
 18 26  1  0  0  0  0
 19 20  2  0  0  0  0
 19 25  1  0  0  0  0
 20 21  1  0  0  0  0
 20 24  1  0  0  0  0
 21 22  2  0  0  0  0
 21 23  1  0  0  0  0
 29 30  1  0  0  0  0
 29 36  1  0  0  0  0
 29 37  1  0  0  0  0
 30 31  1  0  0  0  0
 30 35  1  1  0  0  0
 31 32  1  0  0  0  0
 31 33  1  0  0  0  0
 31 34  1  0  0  0  0
 38 39  2  0  0  0  0
 38 44  1  0  0  0  0
 39 40  1  0  0  0  0
 39 49  1  0  0  0  0
 40 41  1  0  0  0  0
 40 42  2  0  0  0  0
 42 43  1  0  0  0  0
 42 48  1  0  0  0  0
 43 44  2  0  0  0  0
 43 47  1  0  0  0  0
 44 45  1  0  0  0  0
 45 46  2  0  0  0  0
 54 55  2  0  0  0  0
 54 56  1  0  0  0  0
M  END
>  <MODEL>
       1

$$$$
