tmp_first_model_9_20.pdb
 OpenBabel08272521403D

 66 71  0  0  1  0  0  0  0  0999 V2000
   -7.4280    3.3530  -21.7590 C   0  0  0  0  0  0  0  0  0  0  0  0
   -8.3200    2.9050  -22.8170 N   0  0  0  0  0  0  0  0  0  0  0  0
   -7.7580    2.2230  -23.8380 C   0  0  0  0  0  0  0  0  0  0  0  0
   -6.5440    2.1200  -23.9640 O   0  0  0  0  0  0  0  0  0  0  0  0
   -8.7030    1.5950  -24.8660 C   0  0  0  0  0  0  0  0  0  0  0  0
   -9.4190    0.4370  -24.3640 N   0  0  0  0  0  0  0  0  0  0  0  0
   -8.6910   -0.8080  -24.2050 C   0  0  0  0  0  0  0  0  0  0  0  0
   -9.0730   -1.5300  -22.8880 C   0  0  2  0  0  0  0  0  0  0  0  0
   -8.5250   -0.7430  -21.6700 C   0  0  0  0  0  0  0  0  0  0  0  0
   -8.9870    0.2720  -21.1840 O   0  0  0  0  0  0  0  0  0  0  0  0
   -7.3990   -1.3820  -21.2040 N   0  0  0  0  0  0  0  0  0  0  0  0
   -6.6010   -0.8110  -20.1760 C   0  0  0  0  0  0  0  0  0  0  0  0
   -6.9060   -1.0430  -18.8580 C   0  0  0  0  0  0  0  0  0  0  0  0
   -6.2010   -0.5500  -17.8140 N   0  0  0  0  0  0  0  0  0  0  0  0
   -5.1670    0.2090  -18.0800 C   0  0  0  0  0  0  0  0  0  0  0  0
   -4.7290    0.5310  -19.3960 C   0  0  0  0  0  0  0  0  0  0  0  0
   -3.6040    1.3670  -19.6410 C   0  0  0  0  0  0  0  0  0  0  0  0
   -3.2200    1.6580  -20.9210 C   0  0  0  0  0  0  0  0  0  0  0  0
   -3.9430    1.1320  -22.0120 C   0  0  0  0  0  0  0  0  0  0  0  0
   -5.0360    0.3240  -21.8020 C   0  0  0  0  0  0  0  0  0  0  0  0
   -5.4650    0.0030  -20.4860 C   0  0  0  0  0  0  0  0  0  0  0  0
   -5.5910   -0.0620  -22.6530 H   0  0  0  0  0  0  0  0  0  0  0  0
   -3.6500    1.3700  -23.0300 H   0  0  0  0  0  0  0  0  0  0  0  0
   -2.3660    2.3080  -21.1000 H   0  0  0  0  0  0  0  0  0  0  0  0
   -3.0770    1.7760  -18.7830 H   0  0  0  0  0  0  0  0  0  0  0  0
   -4.6180    0.6140  -17.2290 H   0  0  0  0  0  0  0  0  0  0  0  0
   -7.7600   -1.6660  -18.6010 H   0  0  0  0  0  0  0  0  0  0  0  0
   -7.0550   -2.5870  -21.9310 C   0  0  0  0  0  0  0  0  0  0  0  0
   -8.3250   -2.8940  -22.7510 C   0  0  2  0  0  0  0  0  0  0  0  0
   -8.0180   -3.6740  -24.0490 C   0  0  0  0  0  0  0  0  0  0  0  0
   -7.4770   -5.0630  -23.7770 C   0  0  0  0  0  0  0  0  0  0  0  0
   -8.3520   -6.1170  -23.5010 C   0  0  0  0  0  0  0  0  0  0  0  0
   -7.8730   -7.3930  -23.2120 C   0  0  0  0  0  0  0  0  0  0  0  0
   -6.5020   -7.6360  -23.1920 C   0  0  0  0  0  0  0  0  0  0  0  0
   -5.6180   -6.5970  -23.4690 C   0  0  0  0  0  0  0  0  0  0  0  0
   -6.1030   -5.3220  -23.7560 C   0  0  0  0  0  0  0  0  0  0  0  0
   -5.4030   -4.5130  -23.9680 H   0  0  0  0  0  0  0  0  0  0  0  0
   -4.5440   -6.7810  -23.4620 H   0  0  0  0  0  0  0  0  0  0  0  0
   -6.1250   -8.6330  -22.9670 H   0  0  0  0  0  0  0  0  0  0  0  0
   -8.5790   -8.1960  -23.0040 H   0  0  0  0  0  0  0  0  0  0  0  0
   -9.4270   -5.9320  -23.5150 H   0  0  0  0  0  0  0  0  0  0  0  0
   -8.9370   -3.7530  -24.6480 H   0  0  0  0  0  0  0  0  0  0  0  0
   -7.2890   -3.1130  -24.6510 H   0  0  0  0  0  0  0  0  0  0  0  0
   -8.9680   -3.5360  -22.1430 H   0  0  0  0  0  0  0  0  0  0  0  0
   -6.7960   -3.4030  -21.2440 H   0  0  0  0  0  0  0  0  0  0  0  0
   -6.1810   -2.4230  -22.5840 H   0  0  0  0  0  0  0  0  0  0  0  0
  -10.5900   -1.5910  -22.8110 C   0  0  0  0  0  0  0  0  0  0  0  0
  -11.2170   -2.4940  -21.9410 C   0  0  0  0  0  0  0  0  0  0  0  0
  -12.5970   -2.5220  -21.8480 C   0  0  0  0  0  0  0  0  0  0  0  0
  -13.3610   -3.6410  -20.7550 Cl  0  0  0  0  0  0  0  0  0  0  0  0
  -13.3930   -1.6560  -22.5960 C   0  0  0  0  0  0  0  0  0  0  0  0
  -12.7840   -0.7210  -23.4090 C   0  0  0  0  0  0  0  0  0  0  0  0
  -11.3930   -0.6650  -23.4940 C   0  0  0  0  0  0  0  0  0  0  0  0
  -10.7850    0.4690  -24.2650 C   0  0  0  0  0  0  0  0  0  0  0  0
  -11.4710    1.3670  -24.7370 O   0  0  0  0  0  0  0  0  0  0  0  0
  -13.3530    0.0080  -23.9790 H   0  0  0  0  0  0  0  0  0  0  0  0
  -14.4720   -1.7050  -22.5110 H   0  0  0  0  0  0  0  0  0  0  0  0
  -10.6380   -3.1580  -21.3110 H   0  0  0  0  0  0  0  0  0  0  0  0
   -8.9020   -1.4820  -25.0530 H   0  0  0  0  0  0  0  0  0  0  0  0
   -7.6250   -0.5600  -24.1990 H   0  0  0  0  0  0  0  0  0  0  0  0
   -9.4780    2.2980  -25.1820 H   0  0  0  0  0  0  0  0  0  0  0  0
   -8.0680    1.3250  -25.7190 H   0  0  0  0  0  0  0  0  0  0  0  0
   -9.3090    2.8050  -22.6420 H   0  0  0  0  0  0  0  0  0  0  0  0
   -6.7550    4.1320  -22.1340 H   0  0  0  0  0  0  0  0  0  0  0  0
   -8.0150    3.7590  -20.9380 H   0  0  0  0  0  0  0  0  0  0  0  0
   -6.8130    2.5080  -21.4190 H   0  0  0  0  0  0  0  0  0  0  0  0
  1  2  1  0  0  0  0
  1 64  1  0  0  0  0
  1 65  1  0  0  0  0
  1 66  1  0  0  0  0
  2  3  1  0  0  0  0
  2 63  1  0  0  0  0
  3  4  2  0  0  0  0
  3  5  1  0  0  0  0
  5  6  1  0  0  0  0
  5 61  1  0  0  0  0
  5 62  1  0  0  0  0
  6  7  1  0  0  0  0
  6 54  1  0  0  0  0
  7  8  1  0  0  0  0
  7 59  1  0  0  0  0
  7 60  1  0  0  0  0
  8  9  1  1  0  0  0
  8 29  1  0  0  0  0
  8 47  1  0  0  0  0
  9 10  2  0  0  0  0
  9 11  1  0  0  0  0
 11 12  1  0  0  0  0
 11 28  1  0  0  0  0
 12 13  2  0  0  0  0
 12 21  1  0  0  0  0
 13 14  1  0  0  0  0
 13 27  1  0  0  0  0
 14 15  2  0  0  0  0
 15 16  1  0  0  0  0
 15 26  1  0  0  0  0
 16 17  2  0  0  0  0
 16 21  1  0  0  0  0
 17 18  1  0  0  0  0
 17 25  1  0  0  0  0
 18 19  2  0  0  0  0
 18 24  1  0  0  0  0
 19 20  1  0  0  0  0
 19 23  1  0  0  0  0
 20 21  2  0  0  0  0
 20 22  1  0  0  0  0
 28 29  1  0  0  0  0
 28 45  1  0  0  0  0
 28 46  1  0  0  0  0
 29 30  1  0  0  0  0
 29 44  1  1  0  0  0
 30 31  1  0  0  0  0
 30 42  1  0  0  0  0
 30 43  1  0  0  0  0
 31 32  2  0  0  0  0
 31 36  1  0  0  0  0
 32 33  1  0  0  0  0
 32 41  1  0  0  0  0
 33 34  2  0  0  0  0
 33 40  1  0  0  0  0
 34 35  1  0  0  0  0
 34 39  1  0  0  0  0
 35 36  2  0  0  0  0
 35 38  1  0  0  0  0
 36 37  1  0  0  0  0
 47 48  2  0  0  0  0
 47 53  1  0  0  0  0
 48 49  1  0  0  0  0
 48 58  1  0  0  0  0
 49 50  1  0  0  0  0
 49 51  2  0  0  0  0
 51 52  1  0  0  0  0
 51 57  1  0  0  0  0
 52 53  2  0  0  0  0
 52 56  1  0  0  0  0
 53 54  1  0  0  0  0
 54 55  2  0  0  0  0
M  END
>  <MODEL>
       1

$$$$
