tmp_first_model_3_90.pdb
 OpenBabel08272518143D

 64 68  0  0  1  0  0  0  0  0999 V2000
   -7.4920    3.3390  -21.8600 C   0  0  0  0  0  0  0  0  0  0  0  0
   -8.5170    2.8540  -22.7690 N   0  0  0  0  0  0  0  0  0  0  0  0
   -8.0720    2.1140  -23.8250 C   0  0  0  0  0  0  0  0  0  0  0  0
   -6.8830    1.9180  -24.0230 O   0  0  0  0  0  0  0  0  0  0  0  0
   -9.1080    1.5130  -24.7690 C   0  0  0  0  0  0  0  0  0  0  0  0
   -9.6770    0.3170  -24.1830 N   0  0  0  0  0  0  0  0  0  0  0  0
   -8.8690   -0.8930  -24.0830 C   0  0  0  0  0  0  0  0  0  0  0  0
   -9.1450   -1.6570  -22.7630 C   0  0  2  0  0  0  0  0  0  0  0  0
   -8.5970   -0.8560  -21.5590 C   0  0  0  0  0  0  0  0  0  0  0  0
   -9.1060    0.1050  -21.0230 O   0  0  0  0  0  0  0  0  0  0  0  0
   -7.3910   -1.4100  -21.1900 N   0  0  0  0  0  0  0  0  0  0  0  0
   -6.6040   -0.8270  -20.1710 C   0  0  0  0  0  0  0  0  0  0  0  0
   -6.9270   -1.0420  -18.8540 C   0  0  0  0  0  0  0  0  0  0  0  0
   -6.2330   -0.5440  -17.8030 N   0  0  0  0  0  0  0  0  0  0  0  0
   -5.1890    0.2040  -18.0740 C   0  0  0  0  0  0  0  0  0  0  0  0
   -4.7500    0.5180  -19.3940 C   0  0  0  0  0  0  0  0  0  0  0  0
   -3.6270    1.3530  -19.6330 C   0  0  0  0  0  0  0  0  0  0  0  0
   -3.2430    1.6520  -20.9110 C   0  0  0  0  0  0  0  0  0  0  0  0
   -3.9670    1.1390  -22.0100 C   0  0  0  0  0  0  0  0  0  0  0  0
   -5.0630    0.3340  -21.8070 C   0  0  0  0  0  0  0  0  0  0  0  0
   -5.4770   -0.0070  -20.4890 C   0  0  0  0  0  0  0  0  0  0  0  0
   -5.6330   -0.0130  -22.6640 H   0  0  0  0  0  0  0  0  0  0  0  0
   -3.6600    1.3890  -23.0200 H   0  0  0  0  0  0  0  0  0  0  0  0
   -2.3880    2.2960  -21.0880 H   0  0  0  0  0  0  0  0  0  0  0  0
   -3.0960    1.7580  -18.7750 H   0  0  0  0  0  0  0  0  0  0  0  0
   -4.6260    0.6050  -17.2300 H   0  0  0  0  0  0  0  0  0  0  0  0
   -7.7920   -1.6540  -18.6140 H   0  0  0  0  0  0  0  0  0  0  0  0
   -7.0010   -2.5740  -21.9550 C   0  0  0  0  0  0  0  0  0  0  0  0
   -8.3110   -2.9690  -22.6580 C   0  0  2  0  0  0  0  0  0  0  0  0
   -8.1120   -3.7510  -23.9580 C   0  0  0  0  0  0  0  0  0  0  0  0
   -7.4240   -5.3710  -23.6390 S   0  0  0  0  0  0  0  0  0  0  0  0
   -6.0460   -5.2190  -23.1990 O   0  0  0  0  0  0  0  0  0  0  0  0
   -8.3530   -6.1270  -22.8090 O   0  0  0  0  0  0  0  0  0  0  0  0
   -7.3310   -5.9950  -25.1910 N   0  0  0  0  0  0  0  0  0  0  0  0
   -8.5520   -6.4540  -25.8530 C   0  0  0  0  0  0  0  0  0  0  0  0
   -9.1430   -5.5990  -26.1980 H   0  0  0  0  0  0  0  0  0  0  0  0
   -8.2520   -7.0090  -26.7460 H   0  0  0  0  0  0  0  0  0  0  0  0
   -9.1690   -7.1000  -25.2200 H   0  0  0  0  0  0  0  0  0  0  0  0
   -6.5870   -6.6840  -25.1850 H   0  0  0  0  0  0  0  0  0  0  0  0
   -7.4230   -3.2540  -24.6470 H   0  0  0  0  0  0  0  0  0  0  0  0
   -9.0660   -3.8970  -24.4740 H   0  0  0  0  0  0  0  0  0  0  0  0
   -8.8420   -3.6440  -21.9840 H   0  0  0  0  0  0  0  0  0  0  0  0
   -6.6350   -3.3690  -21.3020 H   0  0  0  0  0  0  0  0  0  0  0  0
   -6.2030   -2.3440  -22.6770 H   0  0  0  0  0  0  0  0  0  0  0  0
  -10.6470   -1.8150  -22.6350 C   0  0  0  0  0  0  0  0  0  0  0  0
  -11.1980   -2.7980  -21.8130 C   0  0  0  0  0  0  0  0  0  0  0  0
  -12.5540   -2.8000  -21.5710 C   0  0  0  0  0  0  0  0  0  0  0  0
  -13.0280   -3.7070  -20.7030 F   0  0  0  0  0  0  0  0  0  0  0  0
  -13.4300   -1.8900  -22.1530 C   0  0  0  0  0  0  0  0  0  0  0  0
  -12.9000   -0.9450  -23.0000 C   0  0  0  0  0  0  0  0  0  0  0  0
  -11.5260   -0.8810  -23.2030 C   0  0  0  0  0  0  0  0  0  0  0  0
  -11.0230    0.2920  -23.9720 C   0  0  0  0  0  0  0  0  0  0  0  0
  -11.7700    1.1860  -24.3580 O   0  0  0  0  0  0  0  0  0  0  0  0
  -13.5170   -0.2090  -23.5030 H   0  0  0  0  0  0  0  0  0  0  0  0
  -14.4850   -1.8990  -21.9140 H   0  0  0  0  0  0  0  0  0  0  0  0
  -10.5970   -3.5550  -21.3230 H   0  0  0  0  0  0  0  0  0  0  0  0
   -7.8130   -0.6150  -24.1610 H   0  0  0  0  0  0  0  0  0  0  0  0
   -9.1030   -1.5590  -24.9240 H   0  0  0  0  0  0  0  0  0  0  0  0
   -9.9410    2.1930  -24.9690 H   0  0  0  0  0  0  0  0  0  0  0  0
   -8.6170    1.2700  -25.7200 H   0  0  0  0  0  0  0  0  0  0  0  0
   -9.4400    2.6710  -22.3950 H   0  0  0  0  0  0  0  0  0  0  0  0
   -6.7760    3.9340  -22.4320 H   0  0  0  0  0  0  0  0  0  0  0  0
   -6.9690    2.4760  -21.4170 H   0  0  0  0  0  0  0  0  0  0  0  0
   -7.9160    4.0070  -21.1100 H   0  0  0  0  0  0  0  0  0  0  0  0
  1  2  1  0  0  0  0
  1 62  1  0  0  0  0
  1 63  1  0  0  0  0
  1 64  1  0  0  0  0
  2  3  1  0  0  0  0
  2 61  1  0  0  0  0
  3  4  2  0  0  0  0
  3  5  1  0  0  0  0
  5  6  1  0  0  0  0
  5 59  1  0  0  0  0
  5 60  1  0  0  0  0
  6  7  1  0  0  0  0
  6 52  1  0  0  0  0
  7  8  1  0  0  0  0
  7 57  1  0  0  0  0
  7 58  1  0  0  0  0
  8  9  1  1  0  0  0
  8 29  1  0  0  0  0
  8 45  1  0  0  0  0
  9 10  2  0  0  0  0
  9 11  1  0  0  0  0
 11 12  1  0  0  0  0
 11 28  1  0  0  0  0
 12 13  2  0  0  0  0
 12 21  1  0  0  0  0
 13 14  1  0  0  0  0
 13 27  1  0  0  0  0
 14 15  2  0  0  0  0
 15 16  1  0  0  0  0
 15 26  1  0  0  0  0
 16 17  2  0  0  0  0
 16 21  1  0  0  0  0
 17 18  1  0  0  0  0
 17 25  1  0  0  0  0
 18 19  2  0  0  0  0
 18 24  1  0  0  0  0
 19 20  1  0  0  0  0
 19 23  1  0  0  0  0
 20 21  2  0  0  0  0
 20 22  1  0  0  0  0
 28 29  1  0  0  0  0
 28 43  1  0  0  0  0
 28 44  1  0  0  0  0
 29 30  1  0  0  0  0
 29 42  1  1  0  0  0
 30 31  1  0  0  0  0
 30 40  1  0  0  0  0
 30 41  1  0  0  0  0
 31 32  2  0  0  0  0
 31 33  2  0  0  0  0
 31 34  1  0  0  0  0
 34 35  1  0  0  0  0
 34 39  1  0  0  0  0
 35 36  1  0  0  0  0
 35 37  1  0  0  0  0
 35 38  1  0  0  0  0
 45 46  2  0  0  0  0
 45 51  1  0  0  0  0
 46 47  1  0  0  0  0
 46 56  1  0  0  0  0
 47 48  1  0  0  0  0
 47 49  2  0  0  0  0
 49 50  1  0  0  0  0
 49 55  1  0  0  0  0
 50 51  2  0  0  0  0
 50 54  1  0  0  0  0
 51 52  1  0  0  0  0
 52 53  2  0  0  0  0
M  END
>  <MODEL>
       1

$$$$
