tmp_first_model_13_90.pdb
 OpenBabel08282500103D

 64 68  0  0  1  0  0  0  0  0999 V2000
   -7.3640   -4.1750  -27.2770 C   0  0  0  0  0  0  0  0  0  0  0  0
   -8.3220   -3.1700  -26.8610 N   0  0  0  0  0  0  0  0  0  0  0  0
   -9.3880   -3.4590  -26.0670 C   0  0  0  0  0  0  0  0  0  0  0  0
   -9.6440   -4.5900  -25.6800 O   0  0  0  0  0  0  0  0  0  0  0  0
  -10.2320   -2.2620  -25.6080 C   0  0  0  0  0  0  0  0  0  0  0  0
  -10.3650   -2.2990  -24.1760 N   0  0  0  0  0  0  0  0  0  0  0  0
   -9.4050   -1.5390  -23.3880 C   0  0  0  0  0  0  0  0  0  0  0  0
   -8.9050   -2.2230  -22.1030 C   0  0  2  0  0  0  0  0  0  0  0  0
   -8.2800   -1.1400  -21.2170 C   0  0  0  0  0  0  0  0  0  0  0  0
   -8.8800   -0.2240  -20.6850 O   0  0  0  0  0  0  0  0  0  0  0  0
   -6.9380   -1.3740  -21.0860 N   0  0  0  0  0  0  0  0  0  0  0  0
   -6.2100   -0.7280  -20.0620 C   0  0  0  0  0  0  0  0  0  0  0  0
   -6.5930   -0.8750  -18.7520 C   0  0  0  0  0  0  0  0  0  0  0  0
   -5.9230   -0.3360  -17.7080 N   0  0  0  0  0  0  0  0  0  0  0  0
   -4.8770    0.4040  -17.9750 C   0  0  0  0  0  0  0  0  0  0  0  0
   -4.4090    0.6810  -19.2900 C   0  0  0  0  0  0  0  0  0  0  0  0
   -3.2990    1.5280  -19.5370 C   0  0  0  0  0  0  0  0  0  0  0  0
   -2.9310    1.8260  -20.8180 C   0  0  0  0  0  0  0  0  0  0  0  0
   -3.6470    1.2910  -21.9130 C   0  0  0  0  0  0  0  0  0  0  0  0
   -4.7110    0.4500  -21.7020 C   0  0  0  0  0  0  0  0  0  0  0  0
   -5.1060    0.1170  -20.3800 C   0  0  0  0  0  0  0  0  0  0  0  0
   -5.2740    0.0580  -22.5450 H   0  0  0  0  0  0  0  0  0  0  0  0
   -3.3670    1.5570  -22.9270 H   0  0  0  0  0  0  0  0  0  0  0  0
   -2.0980    2.4970  -21.0040 H   0  0  0  0  0  0  0  0  0  0  0  0
   -2.7740    1.9440  -18.6830 H   0  0  0  0  0  0  0  0  0  0  0  0
   -4.3530    0.8390  -17.1240 H   0  0  0  0  0  0  0  0  0  0  0  0
   -7.4720   -1.4640  -18.4960 H   0  0  0  0  0  0  0  0  0  0  0  0
   -6.4740   -2.4620  -21.9260 C   0  0  0  0  0  0  0  0  0  0  0  0
   -7.7570   -3.2740  -22.2230 C   0  0  2  0  0  0  0  0  0  0  0  0
   -7.6540   -4.0740  -23.5210 C   0  0  0  0  0  0  0  0  0  0  0  0
   -6.4930   -5.4460  -23.5190 S   0  0  0  0  0  0  0  0  0  0  0  0
   -6.5840   -6.0970  -24.8160 O   0  0  0  0  0  0  0  0  0  0  0  0
   -5.2120   -5.0020  -22.9950 O   0  0  0  0  0  0  0  0  0  0  0  0
   -7.1170   -6.5070  -22.4160 N   0  0  0  0  0  0  0  0  0  0  0  0
   -8.3960   -7.1240  -22.7420 C   0  0  0  0  0  0  0  0  0  0  0  0
   -8.2810   -7.7030  -23.6570 H   0  0  0  0  0  0  0  0  0  0  0  0
   -9.2080   -6.4010  -22.8880 H   0  0  0  0  0  0  0  0  0  0  0  0
   -8.6610   -7.7960  -21.9280 H   0  0  0  0  0  0  0  0  0  0  0  0
   -6.9720   -6.1870  -21.4660 H   0  0  0  0  0  0  0  0  0  0  0  0
   -7.3260   -3.4520  -24.3610 H   0  0  0  0  0  0  0  0  0  0  0  0
   -8.6200   -4.5030  -23.7980 H   0  0  0  0  0  0  0  0  0  0  0  0
   -7.9320   -3.9780  -21.4030 H   0  0  0  0  0  0  0  0  0  0  0  0
   -6.0500   -2.0810  -22.8670 H   0  0  0  0  0  0  0  0  0  0  0  0
   -5.7120   -3.0600  -21.4280 H   0  0  0  0  0  0  0  0  0  0  0  0
  -10.1550   -2.6460  -21.3470 C   0  0  0  0  0  0  0  0  0  0  0  0
  -10.6250   -3.8830  -21.4870 C   0  0  0  0  0  0  0  0  0  0  0  0
  -13.4670   -4.0790  -20.6510 C   0  0  0  0  0  0  0  0  0  0  0  0
  -13.3120   -4.8780  -19.5920 F   0  0  0  0  0  0  0  0  0  0  0  0
  -13.4950   -4.0080  -20.6970 C   0  0  0  0  0  0  0  0  0  0  0  0
  -12.9400   -3.3690  -21.7570 C   0  0  0  0  0  0  0  0  0  0  0  0
  -11.5030   -3.2530  -22.2430 C   0  0  0  0  0  0  0  0  0  0  0  0
  -11.5100   -2.9040  -23.6890 C   0  0  0  0  0  0  0  0  0  0  0  0
  -12.4770   -3.1150  -24.4040 O   0  0  0  0  0  0  0  0  0  0  0  0
  -13.7350   -3.1100  -22.3660 H   0  0  0  0  0  0  0  0  0  0  0  0
  -14.7000   -4.3880  -20.9630 H   0  0  0  0  0  0  0  0  0  0  0  0
  -10.4870   -1.8370  -20.6710 H   0  0  0  0  0  0  0  0  0  0  0  0
   -9.8470   -0.5830  -23.0720 H   0  0  0  0  0  0  0  0  0  0  0  0
   -8.5480   -1.3280  -24.0360 H   0  0  0  0  0  0  0  0  0  0  0  0
  -11.2600   -2.3380  -25.9680 H   0  0  0  0  0  0  0  0  0  0  0  0
   -9.8010   -1.3090  -25.9300 H   0  0  0  0  0  0  0  0  0  0  0  0
   -8.2730   -2.2520  -27.2730 H   0  0  0  0  0  0  0  0  0  0  0  0
   -6.3430   -3.8610  -27.0360 H   0  0  0  0  0  0  0  0  0  0  0  0
   -7.4200   -4.3750  -28.3530 H   0  0  0  0  0  0  0  0  0  0  0  0
   -7.5840   -5.0930  -26.7300 H   0  0  0  0  0  0  0  0  0  0  0  0
  1  2  1  0  0  0  0
  1 62  1  0  0  0  0
  1 63  1  0  0  0  0
  1 64  1  0  0  0  0
  2  3  1  0  0  0  0
  2 61  1  0  0  0  0
  3  4  2  0  0  0  0
  3  5  1  0  0  0  0
  5  6  1  0  0  0  0
  5 59  1  0  0  0  0
  5 60  1  0  0  0  0
  6  7  1  0  0  0  0
  6 52  1  0  0  0  0
  7  8  1  0  0  0  0
  7 57  1  0  0  0  0
  7 58  1  0  0  0  0
  8  9  1  1  0  0  0
  8 29  1  0  0  0  0
  8 45  1  0  0  0  0
  9 10  2  0  0  0  0
  9 11  1  0  0  0  0
 11 12  1  0  0  0  0
 11 28  1  0  0  0  0
 12 13  2  0  0  0  0
 12 21  1  0  0  0  0
 13 14  1  0  0  0  0
 13 27  1  0  0  0  0
 14 15  2  0  0  0  0
 15 16  1  0  0  0  0
 15 26  1  0  0  0  0
 16 17  2  0  0  0  0
 16 21  1  0  0  0  0
 17 18  1  0  0  0  0
 17 25  1  0  0  0  0
 18 19  2  0  0  0  0
 18 24  1  0  0  0  0
 19 20  1  0  0  0  0
 19 23  1  0  0  0  0
 20 21  2  0  0  0  0
 20 22  1  0  0  0  0
 28 29  1  0  0  0  0
 28 43  1  0  0  0  0
 28 44  1  0  0  0  0
 29 30  1  0  0  0  0
 29 42  1  1  0  0  0
 30 31  1  0  0  0  0
 30 40  1  0  0  0  0
 30 41  1  0  0  0  0
 31 32  2  0  0  0  0
 31 33  2  0  0  0  0
 31 34  1  0  0  0  0
 34 35  1  0  0  0  0
 34 39  1  0  0  0  0
 35 36  1  0  0  0  0
 35 37  1  0  0  0  0
 35 38  1  0  0  0  0
 45 46  2  0  0  0  0
 45 51  1  0  0  0  0
 46 47  1  0  0  0  0
 46 56  1  0  0  0  0
 47 48  1  0  0  0  0
 47 49  2  0  0  0  0
 49 50  1  0  0  0  0
 49 55  1  0  0  0  0
 50 51  2  0  0  0  0
 50 54  1  0  0  0  0
 51 52  1  0  0  0  0
 52 53  2  0  0  0  0
M  END
>  <MODEL>
       1

$$$$
