tmp_first_model_11_12.pdb
 OpenBabel08272522543D

 76 82  0  0  1  0  0  0  0  0999 V2000
  -11.0710    1.5570  -24.8520 O   0  0  0  0  0  0  0  0  0  0  0  0
  -10.4890    0.5650  -24.4330 C   0  0  0  0  0  0  0  0  0  0  0  0
  -11.1500   -0.4100  -23.5020 C   0  0  0  0  0  0  0  0  0  0  0  0
  -12.5390   -0.4210  -23.3970 C   0  0  0  0  0  0  0  0  0  0  0  0
  -13.1850   -1.3300  -22.5740 C   0  0  0  0  0  0  0  0  0  0  0  0
  -12.4030   -2.1640  -21.7780 C   0  0  0  0  0  0  0  0  0  0  0  0
  -13.1650   -3.3520  -20.7600 Cl  0  0  0  0  0  0  0  0  0  0  0  0
  -11.0220   -2.1230  -21.8300 C   0  0  0  0  0  0  0  0  0  0  0  0
  -10.3760   -1.3180  -22.7720 C   0  0  0  0  0  0  0  0  0  0  0  0
   -8.8780   -1.4520  -23.0230 C   0  0  1  0  0  0  0  0  0  0  0  0
   -8.6340   -1.0290  -24.4940 C   0  0  0  0  0  0  0  0  0  0  0  0
   -9.2040    0.2690  -24.7880 N   0  0  0  0  0  0  0  0  0  0  0  0
   -8.4860    1.2120  -25.6300 C   0  0  0  0  0  0  0  0  0  0  0  0
   -7.8390    2.3230  -24.8000 C   0  0  0  0  0  0  0  0  0  0  0  0
   -7.1790    3.3960  -25.6130 N   0  3  0  0  0  0  0  0  0  0  0  0
   -8.1460    4.2920  -26.3440 C   0  0  0  0  0  0  0  0  0  0  0  0
   -7.3840    5.4170  -27.0300 C   0  0  0  0  0  0  0  0  0  0  0  0
   -6.3960    4.9240  -27.9150 O   0  0  0  0  0  0  0  0  0  0  0  0
   -5.4480    4.1350  -27.2200 C   0  0  0  0  0  0  0  0  0  0  0  0
   -6.0890    2.9270  -26.5510 C   0  0  0  0  0  0  0  0  0  0  0  0
   -5.3460    2.3610  -25.9810 H   0  0  0  0  0  0  0  0  0  0  0  0
   -6.5230    2.2790  -27.3150 H   0  0  0  0  0  0  0  0  0  0  0  0
   -4.9490    4.7470  -26.4490 H   0  0  0  0  0  0  0  0  0  0  0  0
   -4.6990    3.8170  -27.9500 H   0  0  0  0  0  0  0  0  0  0  0  0
   -6.9140    6.0500  -26.2590 H   0  0  0  0  0  0  0  0  0  0  0  0
   -8.0680    6.0340  -27.6190 H   0  0  0  0  0  0  0  0  0  0  0  0
   -8.6850    3.7060  -27.0930 H   0  0  0  0  0  0  0  0  0  0  0  0
   -8.8640    4.6980  -25.6260 H   0  0  0  0  0  0  0  0  0  0  0  0
   -6.7030    4.0020  -24.9130 H   0  0  0  0  0  0  0  0  0  0  0  0
   -7.0880    1.8950  -24.1290 H   0  0  0  0  0  0  0  0  0  0  0  0
   -8.6010    2.8000  -24.1770 H   0  0  0  0  0  0  0  0  0  0  0  0
   -9.1990    1.6330  -26.3450 H   0  0  0  0  0  0  0  0  0  0  0  0
   -7.7150    0.6700  -26.1920 H   0  0  0  0  0  0  0  0  0  0  0  0
   -9.0900   -1.7860  -25.1500 H   0  0  0  0  0  0  0  0  0  0  0  0
   -7.5670   -0.9950  -24.7140 H   0  0  0  0  0  0  0  0  0  0  0  0
   -8.0970   -0.5500  -22.0530 C   0  0  0  0  0  0  0  0  0  0  0  0
   -8.0960    0.6660  -22.0340 O   0  0  0  0  0  0  0  0  0  0  0  0
   -7.3860   -1.3460  -21.1880 N   0  0  0  0  0  0  0  0  0  0  0  0
   -6.5810   -0.8120  -20.1650 C   0  0  0  0  0  0  0  0  0  0  0  0
   -6.8820   -1.0680  -18.8520 C   0  0  0  0  0  0  0  0  0  0  0  0
   -6.2020   -0.5610  -17.7970 N   0  0  0  0  0  0  0  0  0  0  0  0
   -5.1740    0.2080  -18.0700 C   0  0  0  0  0  0  0  0  0  0  0  0
   -4.7340    0.5190  -19.3880 C   0  0  0  0  0  0  0  0  0  0  0  0
   -3.6080    1.3510  -19.6180 C   0  0  0  0  0  0  0  0  0  0  0  0
   -3.1930    1.6220  -20.8930 C   0  0  0  0  0  0  0  0  0  0  0  0
   -3.8760    1.0670  -21.9980 C   0  0  0  0  0  0  0  0  0  0  0  0
   -4.9690    0.2620  -21.8010 C   0  0  0  0  0  0  0  0  0  0  0  0
   -5.4400   -0.0130  -20.4840 C   0  0  0  0  0  0  0  0  0  0  0  0
   -5.4900   -0.1530  -22.6580 H   0  0  0  0  0  0  0  0  0  0  0  0
   -3.5370    1.2890  -23.0050 H   0  0  0  0  0  0  0  0  0  0  0  0
   -2.3380    2.2680  -21.0630 H   0  0  0  0  0  0  0  0  0  0  0  0
   -3.0980    1.7750  -18.7580 H   0  0  0  0  0  0  0  0  0  0  0  0
   -4.6270    0.6260  -17.2260 H   0  0  0  0  0  0  0  0  0  0  0  0
   -7.7430   -1.6910  -18.6130 H   0  0  0  0  0  0  0  0  0  0  0  0
   -7.6520   -2.7610  -21.3160 C   0  0  0  0  0  0  0  0  0  0  0  0
   -8.3510   -2.8810  -22.6850 C   0  0  2  0  0  0  0  0  0  0  0  0
   -7.4530   -3.5220  -23.7540 C   0  0  0  0  0  0  0  0  0  0  0  0
   -7.0890   -4.8750  -23.4090 N   0  0  0  0  0  0  0  0  0  0  0  0
   -7.8750   -5.9520  -23.6790 C   0  0  0  0  0  0  0  0  0  0  0  0
   -7.3940   -7.1450  -23.2730 N   0  0  0  0  0  0  0  0  0  0  0  0
   -8.1470   -8.1930  -23.5560 C   0  0  0  0  0  0  0  0  0  0  0  0
   -9.3530   -8.1140  -24.2500 C   0  0  0  0  0  0  0  0  0  0  0  0
   -9.7520   -6.8380  -24.6100 C   0  0  0  0  0  0  0  0  0  0  0  0
   -9.0440   -5.7460  -24.3120 N   0  0  0  0  0  0  0  0  0  0  0  0
  -10.6900   -6.6890  -25.1500 H   0  0  0  0  0  0  0  0  0  0  0  0
   -9.9650   -8.9800  -24.4670 H   0  0  0  0  0  0  0  0  0  0  0  0
   -7.7490   -9.1470  -23.2140 H   0  0  0  0  0  0  0  0  0  0  0  0
   -6.2040   -5.0640  -22.9680 H   0  0  0  0  0  0  0  0  0  0  0  0
   -6.5480   -2.9240  -23.9200 H   0  0  0  0  0  0  0  0  0  0  0  0
   -8.0070   -3.5900  -24.6920 H   0  0  0  0  0  0  0  0  0  0  0  0
   -9.1990   -3.5690  -22.6140 H   0  0  0  0  0  0  0  0  0  0  0  0
   -6.7090   -3.3160  -21.2570 H   0  0  0  0  0  0  0  0  0  0  0  0
   -8.2970   -3.1270  -20.5030 H   0  0  0  0  0  0  0  0  0  0  0  0
  -10.4680   -2.7590  -21.1470 H   0  0  0  0  0  0  0  0  0  0  0  0
  -14.2680   -1.3500  -22.5120 H   0  0  0  0  0  0  0  0  0  0  0  0
  -13.0970    0.3100  -23.9690 H   0  0  0  0  0  0  0  0  0  0  0  0
  1  2  2  0  0  0  0
  2  3  1  0  0  0  0
  2 12  1  0  0  0  0
  3  4  2  0  0  0  0
  3  9  1  0  0  0  0
  4  5  1  0  0  0  0
  4 76  1  0  0  0  0
  5  6  2  0  0  0  0
  5 75  1  0  0  0  0
  6  7  1  0  0  0  0
  6  8  1  0  0  0  0
  8  9  2  0  0  0  0
  8 74  1  0  0  0  0
 10  9  1  1  0  0  0
 10 11  1  0  0  0  0
 10 36  1  0  0  0  0
 10 56  1  0  0  0  0
 11 12  1  0  0  0  0
 11 34  1  0  0  0  0
 11 35  1  0  0  0  0
 12 13  1  0  0  0  0
 13 14  1  0  0  0  0
 13 32  1  0  0  0  0
 13 33  1  0  0  0  0
 14 15  1  0  0  0  0
 14 30  1  0  0  0  0
 14 31  1  0  0  0  0
 15 16  1  0  0  0  0
 15 20  1  0  0  0  0
 15 29  1  0  0  0  0
 16 17  1  0  0  0  0
 16 27  1  0  0  0  0
 16 28  1  0  0  0  0
 17 18  1  0  0  0  0
 17 25  1  0  0  0  0
 17 26  1  0  0  0  0
 18 19  1  0  0  0  0
 19 20  1  0  0  0  0
 19 23  1  0  0  0  0
 19 24  1  0  0  0  0
 20 21  1  0  0  0  0
 20 22  1  0  0  0  0
 36 37  2  0  0  0  0
 36 38  1  0  0  0  0
 38 39  1  0  0  0  0
 38 55  1  0  0  0  0
 39 40  2  0  0  0  0
 39 48  1  0  0  0  0
 40 41  1  0  0  0  0
 40 54  1  0  0  0  0
 41 42  2  0  0  0  0
 42 43  1  0  0  0  0
 42 53  1  0  0  0  0
 43 44  2  0  0  0  0
 43 48  1  0  0  0  0
 44 45  1  0  0  0  0
 44 52  1  0  0  0  0
 45 46  2  0  0  0  0
 45 51  1  0  0  0  0
 46 47  1  0  0  0  0
 46 50  1  0  0  0  0
 47 48  2  0  0  0  0
 47 49  1  0  0  0  0
 55 56  1  0  0  0  0
 55 72  1  0  0  0  0
 55 73  1  0  0  0  0
 56 57  1  0  0  0  0
 56 71  1  1  0  0  0
 57 58  1  0  0  0  0
 57 69  1  0  0  0  0
 57 70  1  0  0  0  0
 58 59  1  0  0  0  0
 58 68  1  0  0  0  0
 59 60  2  0  0  0  0
 59 64  1  0  0  0  0
 60 61  1  0  0  0  0
 61 62  2  0  0  0  0
 61 67  1  0  0  0  0
 62 63  1  0  0  0  0
 62 66  1  0  0  0  0
 63 64  2  0  0  0  0
 63 65  1  0  0  0  0
M  CHG  1  15   1
M  END
>  <MODEL>
       1

$$$$
