tmp_first_model_6_95.pdb
 OpenBabel08272519583D

 66 71  0  0  1  0  0  0  0  0999 V2000
   -8.4150    2.8330  -28.3280 C   0  0  0  0  0  0  0  0  0  0  0  0
   -8.5480    2.8030  -26.8810 N   0  0  0  0  0  0  0  0  0  0  0  0
   -7.7780    1.9230  -26.1760 C   0  0  0  0  0  0  0  0  0  0  0  0
   -6.8560    1.2940  -26.6680 O   0  0  0  0  0  0  0  0  0  0  0  0
   -8.1090    1.8300  -24.6790 C   0  0  0  0  0  0  0  0  0  0  0  0
   -9.0200    0.7550  -24.3320 N   0  0  0  0  0  0  0  0  0  0  0  0
   -8.5020   -0.5890  -24.1530 C   0  0  0  0  0  0  0  0  0  0  0  0
   -9.1150   -1.2760  -22.9030 C   0  0  2  0  0  0  0  0  0  0  0  0
   -8.6000   -0.6150  -21.5930 C   0  0  0  0  0  0  0  0  0  0  0  0
   -9.1340    0.2700  -20.9630 O   0  0  0  0  0  0  0  0  0  0  0  0
   -7.4250   -1.2360  -21.2340 N   0  0  0  0  0  0  0  0  0  0  0  0
   -6.6300   -0.7310  -20.1680 C   0  0  0  0  0  0  0  0  0  0  0  0
   -6.9300   -1.0580  -18.8700 C   0  0  0  0  0  0  0  0  0  0  0  0
   -6.2220   -0.6460  -17.7860 N   0  0  0  0  0  0  0  0  0  0  0  0
   -5.1940    0.1390  -17.9950 C   0  0  0  0  0  0  0  0  0  0  0  0
   -4.7800    0.5810  -19.2820 C   0  0  0  0  0  0  0  0  0  0  0  0
   -3.6690    1.4510  -19.4520 C   0  0  0  0  0  0  0  0  0  0  0  0
   -3.3030    1.8680  -20.7020 C   0  0  0  0  0  0  0  0  0  0  0  0
   -4.0290    1.4370  -21.8340 C   0  0  0  0  0  0  0  0  0  0  0  0
   -5.1040    0.5940  -21.6950 C   0  0  0  0  0  0  0  0  0  0  0  0
   -5.5110    0.1380  -20.4100 C   0  0  0  0  0  0  0  0  0  0  0  0
   -5.6480    0.2670  -22.5770 H   0  0  0  0  0  0  0  0  0  0  0  0
   -3.7300    1.7680  -22.8240 H   0  0  0  0  0  0  0  0  0  0  0  0
   -2.4560    2.5360  -20.8360 H   0  0  0  0  0  0  0  0  0  0  0  0
   -3.1260    1.7780  -18.5700 H   0  0  0  0  0  0  0  0  0  0  0  0
   -4.6270    0.4630  -17.1210 H   0  0  0  0  0  0  0  0  0  0  0  0
   -7.7870   -1.6930  -18.6550 H   0  0  0  0  0  0  0  0  0  0  0  0
   -7.1360   -2.4060  -22.0480 C   0  0  0  0  0  0  0  0  0  0  0  0
   -8.5100   -2.7150  -22.6970 C   0  0  2  0  0  0  0  0  0  0  0  0
   -8.4310   -3.7050  -23.8950 C   0  0  0  0  0  0  0  0  0  0  0  0
   -7.7500   -4.8990  -23.4980 N   0  0  0  0  0  0  0  0  0  0  0  0
   -8.2990   -6.1240  -23.7590 C   0  0  0  0  0  0  0  0  0  0  0  0
   -9.7610   -6.1550  -24.1850 C   0  0  0  0  0  0  0  0  0  0  0  0
   -9.6360   -5.9480  -24.1380 C   0  0  0  0  0  0  0  0  0  0  0  0
   -9.3600   -8.6510  -23.5520 N   0  0  0  0  0  0  0  0  0  0  0  0
   -8.1410   -8.4140  -23.5150 C   0  0  0  0  0  0  0  0  0  0  0  0
   -7.4830   -7.1210  -23.5980 N   0  0  0  0  0  0  0  0  0  0  0  0
   -7.4070   -9.2430  -23.3910 H   0  0  0  0  0  0  0  0  0  0  0  0
  -10.2420   -5.3990  -24.9930 H   0  0  0  0  0  0  0  0  0  0  0  0
  -10.5810   -5.6080  -23.4850 H   0  0  0  0  0  0  0  0  0  0  0  0
   -6.7410   -4.8780  -23.4090 H   0  0  0  0  0  0  0  0  0  0  0  0
   -7.8620   -3.2160  -24.7130 H   0  0  0  0  0  0  0  0  0  0  0  0
   -9.4160   -3.9050  -24.2700 H   0  0  0  0  0  0  0  0  0  0  0  0
   -9.1170   -3.1970  -21.9250 H   0  0  0  0  0  0  0  0  0  0  0  0
   -6.3940   -2.1800  -22.8340 H   0  0  0  0  0  0  0  0  0  0  0  0
   -6.7290   -3.2150  -21.4260 H   0  0  0  0  0  0  0  0  0  0  0  0
  -10.6190   -1.1060  -22.9790 C   0  0  0  0  0  0  0  0  0  0  0  0
  -11.4560   -1.8720  -22.1590 C   0  0  0  0  0  0  0  0  0  0  0  0
  -12.8310   -1.7590  -22.2750 C   0  0  0  0  0  0  0  0  0  0  0  0
  -13.8560   -2.7770  -21.3010 Cl  0  0  0  0  0  0  0  0  0  0  0  0
  -13.4160   -0.8230  -23.1270 C   0  0  0  0  0  0  0  0  0  0  0  0
  -12.5950    0.0330  -23.8380 C   0  0  0  0  0  0  0  0  0  0  0  0
  -11.2070   -0.0800  -23.7450 C   0  0  0  0  0  0  0  0  0  0  0  0
  -10.3640    0.9740  -24.4080 C   0  0  0  0  0  0  0  0  0  0  0  0
  -10.8390    1.9750  -24.9380 O   0  0  0  0  0  0  0  0  0  0  0  0
  -13.0120    0.8180  -24.4630 H   0  0  0  0  0  0  0  0  0  0  0  0
  -14.4970   -0.7450  -23.1850 H   0  0  0  0  0  0  0  0  0  0  0  0
  -11.0460   -2.5010  -21.3750 H   0  0  0  0  0  0  0  0  0  0  0  0
   -8.7310   -1.1860  -25.0440 H   0  0  0  0  0  0  0  0  0  0  0  0
   -7.4130   -0.5200  -24.0690 H   0  0  0  0  0  0  0  0  0  0  0  0
   -8.5440    2.7660  -24.3170 H   0  0  0  0  0  0  0  0  0  0  0  0
   -7.1660    1.6480  -24.1550 H   0  0  0  0  0  0  0  0  0  0  0  0
   -9.4760    2.9550  -26.5000 H   0  0  0  0  0  0  0  0  0  0  0  0
   -7.3750    3.0380  -28.5960 H   0  0  0  0  0  0  0  0  0  0  0  0
   -9.0500    3.6260  -28.7300 H   0  0  0  0  0  0  0  0  0  0  0  0
   -8.6950    1.8790  -28.7920 H   0  0  0  0  0  0  0  0  0  0  0  0
  1  2  1  0  0  0  0
  1 64  1  0  0  0  0
  1 65  1  0  0  0  0
  1 66  1  0  0  0  0
  2  3  1  0  0  0  0
  2 63  1  0  0  0  0
  3  4  2  0  0  0  0
  3  5  1  0  0  0  0
  5  6  1  0  0  0  0
  5 61  1  0  0  0  0
  5 62  1  0  0  0  0
  6  7  1  0  0  0  0
  6 54  1  0  0  0  0
  7  8  1  0  0  0  0
  7 59  1  0  0  0  0
  7 60  1  0  0  0  0
  8  9  1  1  0  0  0
  8 29  1  0  0  0  0
  8 47  1  0  0  0  0
  9 10  2  0  0  0  0
  9 11  1  0  0  0  0
 11 12  1  0  0  0  0
 11 28  1  0  0  0  0
 12 13  2  0  0  0  0
 12 21  1  0  0  0  0
 13 14  1  0  0  0  0
 13 27  1  0  0  0  0
 14 15  2  0  0  0  0
 15 16  1  0  0  0  0
 15 26  1  0  0  0  0
 16 17  2  0  0  0  0
 16 21  1  0  0  0  0
 17 18  1  0  0  0  0
 17 25  1  0  0  0  0
 18 19  2  0  0  0  0
 18 24  1  0  0  0  0
 19 20  1  0  0  0  0
 19 23  1  0  0  0  0
 20 21  2  0  0  0  0
 20 22  1  0  0  0  0
 28 29  1  0  0  0  0
 28 45  1  0  0  0  0
 28 46  1  0  0  0  0
 29 30  1  0  0  0  0
 29 44  1  1  0  0  0
 30 31  1  0  0  0  0
 30 42  1  0  0  0  0
 30 43  1  0  0  0  0
 31 32  1  0  0  0  0
 31 41  1  0  0  0  0
 32 33  2  0  0  0  0
 32 37  1  0  0  0  0
 33 34  1  0  0  0  0
 33 40  1  0  0  0  0
 34 35  2  0  0  0  0
 34 39  1  0  0  0  0
 35 36  1  0  0  0  0
 36 37  2  0  0  0  0
 36 38  1  0  0  0  0
 47 48  2  0  0  0  0
 47 53  1  0  0  0  0
 48 49  1  0  0  0  0
 48 58  1  0  0  0  0
 49 50  1  0  0  0  0
 49 51  2  0  0  0  0
 51 52  1  0  0  0  0
 51 57  1  0  0  0  0
 52 53  2  0  0  0  0
 52 56  1  0  0  0  0
 53 54  1  0  0  0  0
 54 55  2  0  0  0  0
M  END
>  <MODEL>
       1

$$$$
