tmp_first_model_12_41.pdb
 OpenBabel08272523333D

 67 71  0  0  1  0  0  0  0  0999 V2000
  -10.7050    1.5120  -26.4300 C   0  0  0  0  0  0  0  0  0  0  0  0
  -10.6120    0.1710  -25.8860 N   0  0  0  0  0  0  0  0  0  0  0  0
  -10.0180   -0.8180  -26.6040 C   0  0  0  0  0  0  0  0  0  0  0  0
   -9.6260   -0.6570  -27.7490 O   0  0  0  0  0  0  0  0  0  0  0  0
   -9.8200   -2.1770  -25.9380 C   0  0  0  0  0  0  0  0  0  0  0  0
  -10.0970   -2.2690  -24.5130 N   0  0  0  0  0  0  0  0  0  0  0  0
   -9.2350   -1.4750  -23.6200 C   0  0  0  0  0  0  0  0  0  0  0  0
   -8.9290   -2.1150  -22.2310 C   0  0  2  0  0  0  0  0  0  0  0  0
   -8.3720   -1.0430  -21.3070 C   0  0  0  0  0  0  0  0  0  0  0  0
   -9.0230   -0.1510  -20.7980 O   0  0  0  0  0  0  0  0  0  0  0  0
   -7.0180   -1.2430  -21.1530 N   0  0  0  0  0  0  0  0  0  0  0  0
   -6.3120   -0.6400  -20.0810 C   0  0  0  0  0  0  0  0  0  0  0  0
   -6.5980   -0.9760  -18.7810 C   0  0  0  0  0  0  0  0  0  0  0  0
   -5.9120   -0.5170  -17.7050 N   0  0  0  0  0  0  0  0  0  0  0  0
   -4.9200    0.3130  -17.9290 C   0  0  0  0  0  0  0  0  0  0  0  0
   -4.5280    0.7590  -19.2260 C   0  0  0  0  0  0  0  0  0  0  0  0
   -3.4510    1.6620  -19.4310 C   0  0  0  0  0  0  0  0  0  0  0  0
   -3.1390    2.0880  -20.6930 C   0  0  0  0  0  0  0  0  0  0  0  0
   -3.8950    1.6520  -21.8030 C   0  0  0  0  0  0  0  0  0  0  0  0
   -4.9430    0.7820  -21.6320 C   0  0  0  0  0  0  0  0  0  0  0  0
   -5.2620    0.2930  -20.3400 C   0  0  0  0  0  0  0  0  0  0  0  0
   -5.5390    0.4560  -22.4790 H   0  0  0  0  0  0  0  0  0  0  0  0
   -3.6440    2.0090  -22.7960 H   0  0  0  0  0  0  0  0  0  0  0  0
   -2.3150    2.7790  -20.8490 H   0  0  0  0  0  0  0  0  0  0  0  0
   -2.8990    2.0140  -18.5630 H   0  0  0  0  0  0  0  0  0  0  0  0
   -4.3700    0.6750  -17.0580 H   0  0  0  0  0  0  0  0  0  0  0  0
   -7.4110   -1.6640  -18.5570 H   0  0  0  0  0  0  0  0  0  0  0  0
   -6.5060   -2.3730  -21.9160 C   0  0  0  0  0  0  0  0  0  0  0  0
   -7.7790   -3.1730  -22.2520 C   0  0  2  0  0  0  0  0  0  0  0  0
   -7.7290   -4.0080  -23.5270 C   0  0  0  0  0  0  0  0  0  0  0  0
   -6.5110   -5.3070  -23.5410 S   0  0  0  0  0  0  0  0  0  0  0  0
   -6.6990   -6.0600  -24.7720 O   0  0  0  0  0  0  0  0  0  0  0  0
   -5.2080   -4.7320  -23.2380 O   0  0  0  0  0  0  0  0  0  0  0  0
   -6.9470   -6.2610  -22.2180 N   0  0  0  0  0  0  0  0  0  0  0  0
   -8.2800   -6.8530  -22.3350 C   0  0  0  0  0  0  0  0  0  0  0  0
   -8.4170   -7.5290  -21.4870 H   0  0  0  0  0  0  0  0  0  0  0  0
   -8.4140   -7.4120  -23.2700 H   0  0  0  0  0  0  0  0  0  0  0  0
   -9.0410   -6.0710  -22.2570 H   0  0  0  0  0  0  0  0  0  0  0  0
   -5.9100   -7.2570  -21.9170 C   0  0  0  0  0  0  0  0  0  0  0  0
   -5.8690   -8.0660  -22.6620 H   0  0  0  0  0  0  0  0  0  0  0  0
   -4.9410   -6.7550  -21.8750 H   0  0  0  0  0  0  0  0  0  0  0  0
   -6.1260   -7.6780  -20.9310 H   0  0  0  0  0  0  0  0  0  0  0  0
   -7.4810   -3.4040  -24.4040 H   0  0  0  0  0  0  0  0  0  0  0  0
   -8.6980   -4.4810  -23.7200 H   0  0  0  0  0  0  0  0  0  0  0  0
   -7.9720   -3.8490  -21.4100 H   0  0  0  0  0  0  0  0  0  0  0  0
   -5.9860   -2.0490  -22.8290 H   0  0  0  0  0  0  0  0  0  0  0  0
   -5.7900   -2.9540  -21.3290 H   0  0  0  0  0  0  0  0  0  0  0  0
  -10.2260   -2.6000  -21.6190 C   0  0  0  0  0  0  0  0  0  0  0  0
  -10.4290   -3.9330  -21.5950 C   0  0  0  0  0  0  0  0  0  0  0  0
  -13.1020   -3.6280  -21.0530 C   0  0  0  0  0  0  0  0  0  0  0  0
  -13.4770   -4.4560  -20.0530 F   0  0  0  0  0  0  0  0  0  0  0  0
  -13.1000   -3.4120  -21.2810 C   0  0  0  0  0  0  0  0  0  0  0  0
  -12.5980   -3.8930  -22.4340 C   0  0  0  0  0  0  0  0  0  0  0  0
  -11.1230   -3.5890  -22.6940 C   0  0  0  0  0  0  0  0  0  0  0  0
  -10.8970   -3.3450  -24.1380 C   0  0  0  0  0  0  0  0  0  0  0  0
  -11.4730   -4.0390  -24.9550 O   0  0  0  0  0  0  0  0  0  0  0  0
  -13.2150   -3.4720  -23.1870 H   0  0  0  0  0  0  0  0  0  0  0  0
  -13.0300   -2.6110  -20.3810 H   0  0  0  0  0  0  0  0  0  0  0  0
  -10.7420   -1.8770  -20.9740 H   0  0  0  0  0  0  0  0  0  0  0  0
   -9.6850   -0.4950  -23.4270 H   0  0  0  0  0  0  0  0  0  0  0  0
   -8.2950   -1.2620  -24.1430 H   0  0  0  0  0  0  0  0  0  0  0  0
   -8.7840   -2.4720  -26.1720 H   0  0  0  0  0  0  0  0  0  0  0  0
  -10.4710   -2.8960  -26.4500 H   0  0  0  0  0  0  0  0  0  0  0  0
  -11.1140   -0.0810  -25.0480 H   0  0  0  0  0  0  0  0  0  0  0  0
  -10.7040    1.4500  -27.5200 H   0  0  0  0  0  0  0  0  0  0  0  0
  -11.6280    1.9870  -26.0910 H   0  0  0  0  0  0  0  0  0  0  0  0
   -9.8490    2.1270  -26.1230 H   0  0  0  0  0  0  0  0  0  0  0  0
  1  2  1  0  0  0  0
  1 65  1  0  0  0  0
  1 66  1  0  0  0  0
  1 67  1  0  0  0  0
  2  3  1  0  0  0  0
  2 64  1  0  0  0  0
  3  4  2  0  0  0  0
  3  5  1  0  0  0  0
  5  6  1  0  0  0  0
  5 62  1  0  0  0  0
  5 63  1  0  0  0  0
  6  7  1  0  0  0  0
  6 55  1  0  0  0  0
  7  8  1  0  0  0  0
  7 60  1  0  0  0  0
  7 61  1  0  0  0  0
  8  9  1  1  0  0  0
  8 29  1  0  0  0  0
  8 48  1  0  0  0  0
  9 10  2  0  0  0  0
  9 11  1  0  0  0  0
 11 12  1  0  0  0  0
 11 28  1  0  0  0  0
 12 13  2  0  0  0  0
 12 21  1  0  0  0  0
 13 14  1  0  0  0  0
 13 27  1  0  0  0  0
 14 15  2  0  0  0  0
 15 16  1  0  0  0  0
 15 26  1  0  0  0  0
 16 17  2  0  0  0  0
 16 21  1  0  0  0  0
 17 18  1  0  0  0  0
 17 25  1  0  0  0  0
 18 19  2  0  0  0  0
 18 24  1  0  0  0  0
 19 20  1  0  0  0  0
 19 23  1  0  0  0  0
 20 21  2  0  0  0  0
 20 22  1  0  0  0  0
 28 29  1  0  0  0  0
 28 46  1  0  0  0  0
 28 47  1  0  0  0  0
 29 30  1  0  0  0  0
 29 45  1  1  0  0  0
 30 31  1  0  0  0  0
 30 43  1  0  0  0  0
 30 44  1  0  0  0  0
 31 32  2  0  0  0  0
 31 33  2  0  0  0  0
 31 34  1  0  0  0  0
 34 35  1  0  0  0  0
 34 39  1  0  0  0  0
 35 36  1  0  0  0  0
 35 37  1  0  0  0  0
 35 38  1  0  0  0  0
 39 40  1  0  0  0  0
 39 41  1  0  0  0  0
 39 42  1  0  0  0  0
 48 49  2  0  0  0  0
 48 54  1  0  0  0  0
 49 50  1  0  0  0  0
 49 59  1  0  0  0  0
 50 51  1  0  0  0  0
 50 52  2  0  0  0  0
 52 53  1  0  0  0  0
 52 58  1  0  0  0  0
 53 54  2  0  0  0  0
 53 57  1  0  0  0  0
 54 55  1  0  0  0  0
 55 56  2  0  0  0  0
M  END
>  <MODEL>
       1

$$$$
