tmp_first_model_1_75.pdb
 OpenBabel08272517043D

 66 71  0  0  1  0  0  0  0  0999 V2000
   -5.8040   -0.1900  -29.5400 C   0  0  0  0  0  0  0  0  0  0  0  0
   -5.7210    0.2090  -28.1530 N   0  0  0  0  0  0  0  0  0  0  0  0
   -5.1130   -0.5660  -27.2150 C   0  0  0  0  0  0  0  0  0  0  0  0
   -4.4550   -1.5600  -27.4660 O   0  0  0  0  0  0  0  0  0  0  0  0
   -5.3130   -0.0520  -25.7740 C   0  0  0  0  0  0  0  0  0  0  0  0
   -6.5170   -0.5710  -25.1330 N   0  0  0  0  0  0  0  0  0  0  0  0
   -6.4510   -1.8200  -24.3780 C   0  0  0  0  0  0  0  0  0  0  0  0
   -7.5280   -1.9050  -23.2520 C   0  0  2  0  0  0  0  0  0  0  0  0
   -7.1630   -1.0420  -22.0230 C   0  0  0  0  0  0  0  0  0  0  0  0
   -7.5240    0.0780  -21.7600 O   0  0  0  0  0  0  0  0  0  0  0  0
   -6.3610   -1.8150  -21.1980 N   0  0  0  0  0  0  0  0  0  0  0  0
   -5.7930   -1.2190  -20.0470 C   0  0  0  0  0  0  0  0  0  0  0  0
   -6.2150   -1.5570  -18.7860 C   0  0  0  0  0  0  0  0  0  0  0  0
   -5.8010   -0.9520  -17.6450 N   0  0  0  0  0  0  0  0  0  0  0  0
   -4.9300    0.0240  -17.7590 C   0  0  0  0  0  0  0  0  0  0  0  0
   -4.3800    0.4570  -18.9980 C   0  0  0  0  0  0  0  0  0  0  0  0
   -3.4190    1.5050  -19.0710 C   0  0  0  0  0  0  0  0  0  0  0  0
   -2.9100    1.9010  -20.2790 C   0  0  0  0  0  0  0  0  0  0  0  0
   -3.3230    1.2560  -21.4670 C   0  0  0  0  0  0  0  0  0  0  0  0
   -4.2350    0.2330  -21.4160 C   0  0  0  0  0  0  0  0  0  0  0  0
   -4.8120   -0.1810  -20.1810 C   0  0  0  0  0  0  0  0  0  0  0  0
   -4.5320   -0.2700  -22.3300 H   0  0  0  0  0  0  0  0  0  0  0  0
   -2.9170    1.5760  -22.4230 H   0  0  0  0  0  0  0  0  0  0  0  0
   -2.1880    2.7120  -20.3370 H   0  0  0  0  0  0  0  0  0  0  0  0
   -3.0960    1.9840  -18.1490 H   0  0  0  0  0  0  0  0  0  0  0  0
   -4.6190    0.5160  -16.8370 H   0  0  0  0  0  0  0  0  0  0  0  0
   -6.9580   -2.3440  -18.6710 H   0  0  0  0  0  0  0  0  0  0  0  0
   -6.3470   -3.2270  -21.5730 C   0  0  0  0  0  0  0  0  0  0  0  0
   -7.5240   -3.2940  -22.5560 C   0  0  2  0  0  0  0  0  0  0  0  0
   -7.5920   -4.5190  -23.4710 C   0  0  0  0  0  0  0  0  0  0  0  0
   -7.7600   -5.7700  -22.7490 N   0  0  0  0  0  0  0  0  0  0  0  0
   -6.6490   -6.4590  -22.3020 C   0  0  0  0  0  0  0  0  0  0  0  0
   -5.5200   -6.6530  -23.1240 C   0  0  0  0  0  0  0  0  0  0  0  0
   -4.4580   -7.3160  -22.7060 N   0  0  0  0  0  0  0  0  0  0  0  0
   -4.5050   -7.8180  -21.4700 C   0  0  0  0  0  0  0  0  0  0  0  0
   -5.6150   -7.6460  -20.6720 C   0  0  0  0  0  0  0  0  0  0  0  0
   -6.6930   -6.9750  -21.0790 N   0  0  0  0  0  0  0  0  0  0  0  0
   -5.6590   -8.0790  -19.6760 H   0  0  0  0  0  0  0  0  0  0  0  0
   -3.6280   -8.3520  -21.1180 H   0  0  0  0  0  0  0  0  0  0  0  0
   -5.4970   -6.2870  -24.1470 H   0  0  0  0  0  0  0  0  0  0  0  0
   -8.4770   -5.7380  -22.0340 H   0  0  0  0  0  0  0  0  0  0  0  0
   -8.4260   -4.3920  -24.1700 H   0  0  0  0  0  0  0  0  0  0  0  0
   -6.6820   -4.5930  -24.0710 H   0  0  0  0  0  0  0  0  0  0  0  0
   -8.4310   -3.2960  -21.9470 H   0  0  0  0  0  0  0  0  0  0  0  0
   -5.4080   -3.5000  -22.0820 H   0  0  0  0  0  0  0  0  0  0  0  0
   -6.4710   -3.8640  -20.6900 H   0  0  0  0  0  0  0  0  0  0  0  0
   -8.8580   -1.4840  -23.8070 C   0  0  0  0  0  0  0  0  0  0  0  0
  -10.0580   -1.7930  -23.1530 C   0  0  0  0  0  0  0  0  0  0  0  0
  -11.2730   -1.5310  -23.7630 C   0  0  0  0  0  0  0  0  0  0  0  0
  -12.7260   -2.0240  -22.9290 Cl  0  0  0  0  0  0  0  0  0  0  0  0
  -11.3260   -0.8850  -25.0030 C   0  0  0  0  0  0  0  0  0  0  0  0
  -10.1440   -0.4950  -25.5860 C   0  0  0  0  0  0  0  0  0  0  0  0
   -8.9230   -0.7240  -24.9730 C   0  0  0  0  0  0  0  0  0  0  0  0
   -7.7130   -0.0910  -25.5640 C   0  0  0  0  0  0  0  0  0  0  0  0
   -7.7980    0.8090  -26.4060 O   0  0  0  0  0  0  0  0  0  0  0  0
  -10.1460    0.0280  -26.5250 H   0  0  0  0  0  0  0  0  0  0  0  0
  -12.2360   -0.5890  -25.5060 H   0  0  0  0  0  0  0  0  0  0  0  0
  -10.0560   -2.2240  -22.1590 H   0  0  0  0  0  0  0  0  0  0  0  0
   -5.4490   -1.8990  -23.9450 H   0  0  0  0  0  0  0  0  0  0  0  0
   -6.5860   -2.6610  -25.0730 H   0  0  0  0  0  0  0  0  0  0  0  0
   -4.4470   -0.3510  -25.1800 H   0  0  0  0  0  0  0  0  0  0  0  0
   -5.3700    1.0410  -25.7760 H   0  0  0  0  0  0  0  0  0  0  0  0
   -6.4420    0.8250  -27.8000 H   0  0  0  0  0  0  0  0  0  0  0  0
   -6.4890   -1.0320  -29.6980 H   0  0  0  0  0  0  0  0  0  0  0  0
   -6.1580    0.6720  -30.1130 H   0  0  0  0  0  0  0  0  0  0  0  0
   -4.8180   -0.4770  -29.9100 H   0  0  0  0  0  0  0  0  0  0  0  0
  1  2  1  0  0  0  0
  1 64  1  0  0  0  0
  1 65  1  0  0  0  0
  1 66  1  0  0  0  0
  2  3  1  0  0  0  0
  2 63  1  0  0  0  0
  3  4  2  0  0  0  0
  3  5  1  0  0  0  0
  5  6  1  0  0  0  0
  5 61  1  0  0  0  0
  5 62  1  0  0  0  0
  6  7  1  0  0  0  0
  6 54  1  0  0  0  0
  7  8  1  0  0  0  0
  7 59  1  0  0  0  0
  7 60  1  0  0  0  0
  8  9  1  1  0  0  0
  8 29  1  0  0  0  0
  8 47  1  0  0  0  0
  9 10  2  0  0  0  0
  9 11  1  0  0  0  0
 11 12  1  0  0  0  0
 11 28  1  0  0  0  0
 12 13  2  0  0  0  0
 12 21  1  0  0  0  0
 13 14  1  0  0  0  0
 13 27  1  0  0  0  0
 14 15  2  0  0  0  0
 15 16  1  0  0  0  0
 15 26  1  0  0  0  0
 16 17  2  0  0  0  0
 16 21  1  0  0  0  0
 17 18  1  0  0  0  0
 17 25  1  0  0  0  0
 18 19  2  0  0  0  0
 18 24  1  0  0  0  0
 19 20  1  0  0  0  0
 19 23  1  0  0  0  0
 20 21  2  0  0  0  0
 20 22  1  0  0  0  0
 28 29  1  0  0  0  0
 28 45  1  0  0  0  0
 28 46  1  0  0  0  0
 29 30  1  0  0  0  0
 29 44  1  1  0  0  0
 30 31  1  0  0  0  0
 30 42  1  0  0  0  0
 30 43  1  0  0  0  0
 31 32  1  0  0  0  0
 31 41  1  0  0  0  0
 32 33  2  0  0  0  0
 32 37  1  0  0  0  0
 33 34  1  0  0  0  0
 33 40  1  0  0  0  0
 34 35  2  0  0  0  0
 35 36  1  0  0  0  0
 35 39  1  0  0  0  0
 36 37  2  0  0  0  0
 36 38  1  0  0  0  0
 47 48  2  0  0  0  0
 47 53  1  0  0  0  0
 48 49  1  0  0  0  0
 48 58  1  0  0  0  0
 49 50  1  0  0  0  0
 49 51  2  0  0  0  0
 51 52  1  0  0  0  0
 51 57  1  0  0  0  0
 52 53  2  0  0  0  0
 52 56  1  0  0  0  0
 53 54  1  0  0  0  0
 54 55  2  0  0  0  0
M  END
>  <MODEL>
       1

$$$$
