tmp_first_model_12_82.pdb
 OpenBabel08272523333D

 54 57  0  0  1  0  0  0  0  0999 V2000
  -10.6770    0.3760  -25.3840 C   0  0  0  0  0  0  0  0  0  0  0  0
   -9.8030   -0.6080  -24.8940 O   0  0  0  0  0  0  0  0  0  0  0  0
   -8.4840   -0.5160  -25.2020 C   0  0  0  0  0  0  0  0  0  0  0  0
   -7.9510    0.5120  -25.9800 C   0  0  0  0  0  0  0  0  0  0  0  0
   -6.5840    0.5430  -26.2400 C   0  0  0  0  0  0  0  0  0  0  0  0
   -5.7660   -0.4510  -25.7200 C   0  0  0  0  0  0  0  0  0  0  0  0
   -6.3130   -1.4700  -24.9360 C   0  0  0  0  0  0  0  0  0  0  0  0
   -7.6730   -1.5380  -24.6700 C   0  0  0  0  0  0  0  0  0  0  0  0
   -8.3120   -2.6560  -23.8310 C   0  0  1  0  0  0  0  0  0  0  0  0
   -9.1480   -3.6420  -24.6810 C   0  0  0  0  0  0  0  0  0  0  0  0
   -8.4050   -4.8520  -25.2680 C   0  0  1  0  0  0  0  0  0  0  0  0
   -7.5030   -4.5280  -26.4660 C   0  0  0  0  0  0  0  0  0  0  0  0
   -6.6800   -3.8590  -26.1930 H   0  0  0  0  0  0  0  0  0  0  0  0
   -7.0680   -5.4440  -26.8840 H   0  0  0  0  0  0  0  0  0  0  0  0
   -8.0770   -4.0390  -27.2620 H   0  0  0  0  0  0  0  0  0  0  0  0
   -7.6730   -5.5480  -24.1150 C   0  0  0  0  0  0  0  0  0  0  0  0
   -6.7180   -4.5990  -23.4010 C   0  0  0  0  0  0  0  0  0  0  0  0
   -7.3660   -3.3620  -22.9580 N   0  0  0  0  0  0  0  0  0  0  0  0
   -6.7440   -2.7490  -21.8900 C   0  0  0  0  0  0  0  0  0  0  0  0
   -5.7230   -3.2110  -21.4070 O   0  0  0  0  0  0  0  0  0  0  0  0
   -7.3950   -1.4850  -21.2940 C   0  0  0  0  0  0  0  0  0  0  0  0
   -6.5840   -0.8350  -20.1980 C   0  0  0  0  0  0  0  0  0  0  0  0
   -6.8750   -1.0690  -18.8770 C   0  0  0  0  0  0  0  0  0  0  0  0
   -6.1970   -0.5610  -17.8110 N   0  0  0  0  0  0  0  0  0  0  0  0
   -5.1690    0.2070  -18.0680 C   0  0  0  0  0  0  0  0  0  0  0  0
   -4.7460    0.5520  -19.3800 C   0  0  0  0  0  0  0  0  0  0  0  0
   -3.6210    1.3830  -19.6060 C   0  0  0  0  0  0  0  0  0  0  0  0
   -3.2540    1.7120  -20.8810 C   0  0  0  0  0  0  0  0  0  0  0  0
   -4.0140    1.2500  -21.9790 C   0  0  0  0  0  0  0  0  0  0  0  0
   -5.0980    0.4260  -21.7830 C   0  0  0  0  0  0  0  0  0  0  0  0
   -5.4910    0.0460  -20.4740 C   0  0  0  0  0  0  0  0  0  0  0  0
   -5.6160   -0.0080  -22.6380 H   0  0  0  0  0  0  0  0  0  0  0  0
   -3.6840    1.4790  -22.9910 H   0  0  0  0  0  0  0  0  0  0  0  0
   -2.3580    2.2920  -21.0650 H   0  0  0  0  0  0  0  0  0  0  0  0
   -3.0620    1.7360  -18.7430 H   0  0  0  0  0  0  0  0  0  0  0  0
   -4.6230    0.6170  -17.2150 H   0  0  0  0  0  0  0  0  0  0  0  0
   -7.7270   -1.6890  -18.6010 H   0  0  0  0  0  0  0  0  0  0  0  0
   -7.6100   -0.7750  -22.1010 H   0  0  0  0  0  0  0  0  0  0  0  0
   -8.3690   -1.7880  -20.8880 H   0  0  0  0  0  0  0  0  0  0  0  0
   -6.3220   -5.0590  -22.4950 H   0  0  0  0  0  0  0  0  0  0  0  0
   -5.8520   -4.3780  -24.0460 H   0  0  0  0  0  0  0  0  0  0  0  0
   -8.4170   -5.9170  -23.3930 H   0  0  0  0  0  0  0  0  0  0  0  0
   -7.1030   -6.4140  -24.4860 H   0  0  0  0  0  0  0  0  0  0  0  0
   -9.1800   -5.5430  -25.6270 H   0  0  0  0  0  0  0  0  0  0  0  0
   -9.6260   -3.0610  -25.4780 H   0  0  0  0  0  0  0  0  0  0  0  0
   -9.9400   -4.0290  -24.0250 H   0  0  0  0  0  0  0  0  0  0  0  0
   -9.0380   -2.1590  -23.1750 H   0  0  0  0  0  0  0  0  0  0  0  0
   -5.6670   -2.2570  -24.5460 H   0  0  0  0  0  0  0  0  0  0  0  0
   -4.7010   -0.4570  -25.9230 H   0  0  0  0  0  0  0  0  0  0  0  0
   -6.1690    1.3460  -26.8470 H   0  0  0  0  0  0  0  0  0  0  0  0
   -8.6020    1.2830  -26.3760 H   0  0  0  0  0  0  0  0  0  0  0  0
  -11.6590    0.0600  -25.0270 H   0  0  0  0  0  0  0  0  0  0  0  0
  -10.6540    0.4200  -26.4830 H   0  0  0  0  0  0  0  0  0  0  0  0
  -10.4260    1.3710  -24.9850 H   0  0  0  0  0  0  0  0  0  0  0  0
  1  2  1  0  0  0  0
  1 52  1  0  0  0  0
  1 53  1  0  0  0  0
  1 54  1  0  0  0  0
  2  3  1  0  0  0  0
  3  4  2  0  0  0  0
  3  8  1  0  0  0  0
  4  5  1  0  0  0  0
  4 51  1  0  0  0  0
  5  6  2  0  0  0  0
  5 50  1  0  0  0  0
  6  7  1  0  0  0  0
  6 49  1  0  0  0  0
  7  8  2  0  0  0  0
  7 48  1  0  0  0  0
  8  9  1  0  0  0  0
  9 10  1  0  0  0  0
  9 18  1  0  0  0  0
  9 47  1  1  0  0  0
 10 11  1  0  0  0  0
 10 45  1  0  0  0  0
 10 46  1  0  0  0  0
 11 12  1  0  0  0  0
 11 16  1  0  0  0  0
 11 44  1  6  0  0  0
 12 13  1  0  0  0  0
 12 14  1  0  0  0  0
 12 15  1  0  0  0  0
 16 17  1  0  0  0  0
 16 42  1  0  0  0  0
 16 43  1  0  0  0  0
 17 18  1  0  0  0  0
 17 40  1  0  0  0  0
 17 41  1  0  0  0  0
 18 19  1  0  0  0  0
 19 20  2  0  0  0  0
 19 21  1  0  0  0  0
 21 22  1  0  0  0  0
 21 38  1  0  0  0  0
 21 39  1  0  0  0  0
 22 23  2  0  0  0  0
 22 31  1  0  0  0  0
 23 24  1  0  0  0  0
 23 37  1  0  0  0  0
 24 25  2  0  0  0  0
 25 26  1  0  0  0  0
 25 36  1  0  0  0  0
 26 27  2  0  0  0  0
 26 31  1  0  0  0  0
 27 28  1  0  0  0  0
 27 35  1  0  0  0  0
 28 29  2  0  0  0  0
 28 34  1  0  0  0  0
 29 30  1  0  0  0  0
 29 33  1  0  0  0  0
 30 31  2  0  0  0  0
 30 32  1  0  0  0  0
M  END
>  <MODEL>
       1

$$$$
