tmp_first_model_3_74.pdb
 OpenBabel08272518143D

 43 47  0  0  1  0  0  0  0  0999 V2000
   -9.4250   -0.4520  -20.9850 O   0  0  0  0  0  0  0  0  0  0  0  0
   -8.7450   -1.3650  -21.3790 C   0  0  0  0  0  0  0  0  0  0  0  0
   -9.1370   -2.4470  -22.1200 N   0  0  0  0  0  0  0  0  0  0  0  0
   -8.0400   -3.1470  -22.7410 C   0  0  1  0  0  0  0  0  0  0  0  0
   -8.1060   -4.6900  -22.7170 C   0  0  0  0  0  0  0  0  0  0  0  0
   -8.2240   -4.7230  -24.2750 C   0  0  2  0  0  0  0  0  0  0  0  0
   -7.1760   -5.5220  -24.9870 C   0  0  0  0  0  0  0  0  0  0  0  0
   -5.8200   -5.2770  -24.7420 C   0  0  0  0  0  0  0  0  0  0  0  0
   -4.8300   -6.0100  -25.3860 C   0  0  0  0  0  0  0  0  0  0  0  0
   -5.1800   -7.0120  -26.2900 C   0  0  0  0  0  0  0  0  0  0  0  0
   -6.5200   -7.2760  -26.5440 C   0  0  0  0  0  0  0  0  0  0  0  0
   -7.4980   -6.5330  -25.8930 C   0  0  0  0  0  0  0  0  0  0  0  0
   -9.1680   -6.9150  -26.2480 Cl  0  0  0  0  0  0  0  0  0  0  0  0
   -6.8260   -8.0530  -27.2400 H   0  0  0  0  0  0  0  0  0  0  0  0
   -4.4110   -7.5880  -26.7950 H   0  0  0  0  0  0  0  0  0  0  0  0
   -3.7860   -5.7990  -25.1760 H   0  0  0  0  0  0  0  0  0  0  0  0
   -5.5480   -4.4990  -24.0260 H   0  0  0  0  0  0  0  0  0  0  0  0
   -8.0350   -3.1710  -24.2990 C   0  0  0  0  0  0  0  0  0  0  0  0
   -8.8570   -2.6050  -24.7500 H   0  0  0  0  0  0  0  0  0  0  0  0
   -7.0980   -2.8280  -24.7560 H   0  0  0  0  0  0  0  0  0  0  0  0
   -9.2260   -5.0180  -24.6000 H   0  0  0  0  0  0  0  0  0  0  0  0
   -8.9700   -5.0700  -22.1630 H   0  0  0  0  0  0  0  0  0  0  0  0
   -7.1950   -5.1500  -22.3160 H   0  0  0  0  0  0  0  0  0  0  0  0
   -6.8410   -2.5160  -22.0530 C   0  0  0  0  0  0  0  0  0  0  0  0
   -5.6780   -2.8000  -22.2340 O   0  0  0  0  0  0  0  0  0  0  0  0
   -7.3410   -1.5190  -21.2050 N   0  0  0  0  0  0  0  0  0  0  0  0
   -6.5840   -0.8590  -20.1870 C   0  0  0  0  0  0  0  0  0  0  0  0
   -6.9100   -1.0580  -18.8670 C   0  0  0  0  0  0  0  0  0  0  0  0
   -6.2180   -0.5410  -17.8230 N   0  0  0  0  0  0  0  0  0  0  0  0
   -5.1790    0.2080  -18.0960 C   0  0  0  0  0  0  0  0  0  0  0  0
   -4.7450    0.5220  -19.4120 C   0  0  0  0  0  0  0  0  0  0  0  0
   -3.6150    1.3540  -19.6390 C   0  0  0  0  0  0  0  0  0  0  0  0
   -3.2260    1.6570  -20.9120 C   0  0  0  0  0  0  0  0  0  0  0  0
   -3.9560    1.1440  -22.0080 C   0  0  0  0  0  0  0  0  0  0  0  0
   -5.0500    0.3360  -21.8140 C   0  0  0  0  0  0  0  0  0  0  0  0
   -5.4690   -0.0130  -20.5000 C   0  0  0  0  0  0  0  0  0  0  0  0
   -5.6010   -0.0500  -22.6650 H   0  0  0  0  0  0  0  0  0  0  0  0
   -3.6480    1.3980  -23.0160 H   0  0  0  0  0  0  0  0  0  0  0  0
   -2.3690    2.3040  -21.0890 H   0  0  0  0  0  0  0  0  0  0  0  0
   -3.0860    1.7550  -18.7790 H   0  0  0  0  0  0  0  0  0  0  0  0
   -4.6280    0.6110  -17.2480 H   0  0  0  0  0  0  0  0  0  0  0  0
   -7.7560   -1.6840  -18.5980 H   0  0  0  0  0  0  0  0  0  0  0  0
  -10.1020   -2.6110  -22.3590 H   0  0  0  0  0  0  0  0  0  0  0  0
  1  2  2  0  0  0  0
  2  3  1  0  0  0  0
  2 26  1  0  0  0  0
  3  4  1  0  0  0  0
  3 43  1  0  0  0  0
  4  5  1  0  0  0  0
  4 18  1  0  0  0  0
  4 24  1  1  0  0  0
  5  6  1  0  0  0  0
  5 22  1  0  0  0  0
  5 23  1  0  0  0  0
  6  7  1  0  0  0  0
  6 18  1  0  0  0  0
  6 21  1  6  0  0  0
  7  8  2  0  0  0  0
  7 12  1  0  0  0  0
  8  9  1  0  0  0  0
  8 17  1  0  0  0  0
  9 10  2  0  0  0  0
  9 16  1  0  0  0  0
 10 11  1  0  0  0  0
 10 15  1  0  0  0  0
 11 12  2  0  0  0  0
 11 14  1  0  0  0  0
 12 13  1  0  0  0  0
 18 19  1  0  0  0  0
 18 20  1  0  0  0  0
 24 25  2  0  0  0  0
 24 26  1  0  0  0  0
 26 27  1  0  0  0  0
 27 28  2  0  0  0  0
 27 36  1  0  0  0  0
 28 29  1  0  0  0  0
 28 42  1  0  0  0  0
 29 30  2  0  0  0  0
 30 31  1  0  0  0  0
 30 41  1  0  0  0  0
 31 32  2  0  0  0  0
 31 36  1  0  0  0  0
 32 33  1  0  0  0  0
 32 40  1  0  0  0  0
 33 34  2  0  0  0  0
 33 39  1  0  0  0  0
 34 35  1  0  0  0  0
 34 38  1  0  0  0  0
 35 36  2  0  0  0  0
 35 37  1  0  0  0  0
M  END
>  <MODEL>
       1

$$$$
