tmp_first_model_16_65.pdb
 OpenBabel08282501503D

 55 60  0  0  1  0  0  0  0  0999 V2000
  -10.4400   -1.0280  -23.3940 C   0  0  0  0  0  0  0  0  0  0  0  0
   -9.0090   -1.4150  -23.0250 C   0  0  1  0  0  0  0  0  0  0  0  0
   -8.3980   -0.5100  -21.9390 C   0  0  0  0  0  0  0  0  0  0  0  0
   -7.4130   -1.3780  -21.3050 N   0  0  0  0  0  0  0  0  0  0  0  0
   -6.5790   -0.9640  -20.2460 C   0  0  0  0  0  0  0  0  0  0  0  0
   -6.8680   -1.3250  -18.9550 C   0  0  0  0  0  0  0  0  0  0  0  0
   -6.1150   -0.9690  -17.8890 N   0  0  0  0  0  0  0  0  0  0  0  0
   -5.0680   -0.2120  -18.1110 C   0  0  0  0  0  0  0  0  0  0  0  0
   -4.6880    0.2700  -19.3960 C   0  0  0  0  0  0  0  0  0  0  0  0
   -3.5990    1.1580  -19.5850 C   0  0  0  0  0  0  0  0  0  0  0  0
   -3.2460    1.5570  -20.8450 C   0  0  0  0  0  0  0  0  0  0  0  0
   -3.9520    1.0800  -21.9720 C   0  0  0  0  0  0  0  0  0  0  0  0
   -5.0300    0.2440  -21.8130 C   0  0  0  0  0  0  0  0  0  0  0  0
   -5.4400   -0.1470  -20.5120 C   0  0  0  0  0  0  0  0  0  0  0  0
   -5.5790   -0.1290  -22.6720 H   0  0  0  0  0  0  0  0  0  0  0  0
   -3.6390    1.3760  -22.9680 H   0  0  0  0  0  0  0  0  0  0  0  0
   -2.4140    2.2390  -20.9910 H   0  0  0  0  0  0  0  0  0  0  0  0
   -3.0750    1.5200  -18.7050 H   0  0  0  0  0  0  0  0  0  0  0  0
   -4.4560    0.0470  -17.2480 H   0  0  0  0  0  0  0  0  0  0  0  0
   -7.7450   -1.9320  -18.7350 H   0  0  0  0  0  0  0  0  0  0  0  0
   -7.6820   -2.7200  -21.4840 C   0  0  0  0  0  0  0  0  0  0  0  0
   -7.1030   -3.6190  -20.9100 O   0  0  0  0  0  0  0  0  0  0  0  0
   -8.8380   -2.8740  -22.4730 C   0  0  1  0  0  0  0  0  0  0  0  0
  -10.0660   -3.3400  -21.6520 C   0  0  0  0  0  0  0  0  0  0  0  0
  -11.1650   -3.7930  -22.4800 N   0  0  0  0  0  0  0  0  0  0  0  0
  -12.5370   -3.7030  -22.0040 C   0  0  0  0  0  0  0  0  0  0  0  0
  -13.3520   -2.5760  -22.5410 C   0  0  0  0  0  0  0  0  0  0  0  0
  -14.0020   -2.4960  -23.7240 C   0  0  0  0  0  0  0  0  0  0  0  0
  -14.7530   -1.3550  -23.7090 O   0  0  0  0  0  0  0  0  0  0  0  0
  -14.5010   -0.8030  -22.5070 C   0  0  0  0  0  0  0  0  0  0  0  0
  -13.6760   -1.4680  -21.7690 N   0  0  0  0  0  0  0  0  0  0  0  0
  -15.0030    0.1290  -22.2840 H   0  0  0  0  0  0  0  0  0  0  0  0
  -14.0830   -3.1390  -24.5910 H   0  0  0  0  0  0  0  0  0  0  0  0
  -12.5490   -3.6220  -20.9160 H   0  0  0  0  0  0  0  0  0  0  0  0
  -13.0370   -4.6190  -22.3210 H   0  0  0  0  0  0  0  0  0  0  0  0
  -10.9660   -4.4660  -23.6530 C   0  0  0  0  0  0  0  0  0  0  0  0
  -11.9110   -4.8340  -24.3390 O   0  0  0  0  0  0  0  0  0  0  0  0
   -9.5420   -4.7250  -24.0370 C   0  0  0  0  0  0  0  0  0  0  0  0
   -9.2540   -5.7460  -24.9470 C   0  0  0  0  0  0  0  0  0  0  0  0
   -7.9650   -5.9280  -25.4210 C   0  0  0  0  0  0  0  0  0  0  0  0
   -6.9750   -5.0630  -24.9630 C   0  0  0  0  0  0  0  0  0  0  0  0
   -5.7250   -5.2020  -25.4340 F   0  0  0  0  0  0  0  0  0  0  0  0
   -7.2170   -4.0920  -24.0090 C   0  0  0  0  0  0  0  0  0  0  0  0
   -8.5210   -3.9200  -23.5220 C   0  0  0  0  0  0  0  0  0  0  0  0
   -6.3860   -3.5250  -23.6000 H   0  0  0  0  0  0  0  0  0  0  0  0
   -7.7080   -6.7250  -26.1150 H   0  0  0  0  0  0  0  0  0  0  0  0
  -10.0560   -6.4050  -25.2700 H   0  0  0  0  0  0  0  0  0  0  0  0
  -10.4320   -2.5200  -21.0320 H   0  0  0  0  0  0  0  0  0  0  0  0
   -9.7290   -4.1180  -20.9620 H   0  0  0  0  0  0  0  0  0  0  0  0
   -9.1670   -0.1800  -21.2200 H   0  0  0  0  0  0  0  0  0  0  0  0
   -7.9350    0.3930  -22.3490 H   0  0  0  0  0  0  0  0  0  0  0  0
   -8.3680   -1.3600  -23.9150 H   0  0  0  0  0  0  0  0  0  0  0  0
  -10.4850   -0.0510  -23.8830 H   0  0  0  0  0  0  0  0  0  0  0  0
  -10.8790   -1.7760  -24.0630 H   0  0  0  0  0  0  0  0  0  0  0  0
  -11.0690   -0.9730  -22.4980 H   0  0  0  0  0  0  0  0  0  0  0  0
  1  2  1  0  0  0  0
  1 53  1  0  0  0  0
  1 54  1  0  0  0  0
  1 55  1  0  0  0  0
  2  3  1  0  0  0  0
  2 23  1  0  0  0  0
  2 52  1  6  0  0  0
  3  4  1  0  0  0  0
  3 50  1  0  0  0  0
  3 51  1  0  0  0  0
  4  5  1  0  0  0  0
  4 21  1  0  0  0  0
  5  6  2  0  0  0  0
  5 14  1  0  0  0  0
  6  7  1  0  0  0  0
  6 20  1  0  0  0  0
  7  8  2  0  0  0  0
  8  9  1  0  0  0  0
  8 19  1  0  0  0  0
  9 10  2  0  0  0  0
  9 14  1  0  0  0  0
 10 11  1  0  0  0  0
 10 18  1  0  0  0  0
 11 12  2  0  0  0  0
 11 17  1  0  0  0  0
 12 13  1  0  0  0  0
 12 16  1  0  0  0  0
 13 14  2  0  0  0  0
 13 15  1  0  0  0  0
 21 22  2  0  0  0  0
 23 21  1  1  0  0  0
 23 24  1  0  0  0  0
 23 44  1  0  0  0  0
 24 25  1  0  0  0  0
 24 48  1  0  0  0  0
 24 49  1  0  0  0  0
 25 26  1  0  0  0  0
 25 36  1  0  0  0  0
 26 27  1  0  0  0  0
 26 34  1  0  0  0  0
 26 35  1  0  0  0  0
 27 28  2  0  0  0  0
 27 31  1  0  0  0  0
 28 29  1  0  0  0  0
 28 33  1  0  0  0  0
 29 30  1  0  0  0  0
 30 31  2  0  0  0  0
 30 32  1  0  0  0  0
 36 37  2  0  0  0  0
 36 38  1  0  0  0  0
 38 39  2  0  0  0  0
 38 44  1  0  0  0  0
 39 40  1  0  0  0  0
 39 47  1  0  0  0  0
 40 41  2  0  0  0  0
 40 46  1  0  0  0  0
 41 42  1  0  0  0  0
 41 43  1  0  0  0  0
 43 44  2  0  0  0  0
 43 45  1  0  0  0  0
M  END
>  <MODEL>
       1

$$$$
