tmp_first_model_16_32.pdb
 OpenBabel08282501503D

 57 62  0  0  1  0  0  0  0  0999 V2000
  -10.0730   -0.8420  -23.6940 C   0  0  0  0  0  0  0  0  0  0  0  0
   -8.7730   -1.3500  -23.0940 C   0  0  1  0  0  0  0  0  0  0  0  0
   -8.2220   -0.4800  -21.9620 C   0  0  0  0  0  0  0  0  0  0  0  0
   -7.2670   -1.3730  -21.3090 N   0  0  0  0  0  0  0  0  0  0  0  0
   -6.4210   -0.9900  -20.2410 C   0  0  0  0  0  0  0  0  0  0  0  0
   -6.6620   -1.4390  -18.9650 C   0  0  0  0  0  0  0  0  0  0  0  0
   -5.9480   -1.0720  -17.8750 N   0  0  0  0  0  0  0  0  0  0  0  0
   -4.9520   -0.2380  -18.0550 C   0  0  0  0  0  0  0  0  0  0  0  0
   -4.5730    0.2800  -19.3250 C   0  0  0  0  0  0  0  0  0  0  0  0
   -3.4790    1.1700  -19.4630 C   0  0  0  0  0  0  0  0  0  0  0  0
   -3.1180    1.6310  -20.7000 C   0  0  0  0  0  0  0  0  0  0  0  0
   -3.8410    1.2300  -21.8460 C   0  0  0  0  0  0  0  0  0  0  0  0
   -4.9160    0.3830  -21.7350 C   0  0  0  0  0  0  0  0  0  0  0  0
   -5.3160   -0.1060  -20.4630 C   0  0  0  0  0  0  0  0  0  0  0  0
   -5.4690    0.0810  -22.6190 H   0  0  0  0  0  0  0  0  0  0  0  0
   -3.5430    1.6020  -22.8210 H   0  0  0  0  0  0  0  0  0  0  0  0
   -2.2750    2.3050  -20.8100 H   0  0  0  0  0  0  0  0  0  0  0  0
   -2.9520    1.4820  -18.5650 H   0  0  0  0  0  0  0  0  0  0  0  0
   -4.3940    0.0740  -17.1720 H   0  0  0  0  0  0  0  0  0  0  0  0
   -7.4830   -2.1260  -18.7720 H   0  0  0  0  0  0  0  0  0  0  0  0
   -7.6020   -2.7030  -21.5080 C   0  0  0  0  0  0  0  0  0  0  0  0
   -7.0280   -3.6390  -20.9900 O   0  0  0  0  0  0  0  0  0  0  0  0
   -8.7960   -2.7850  -22.4810 C   0  0  1  0  0  0  0  0  0  0  0  0
  -10.0610   -3.0790  -21.6470 C   0  0  0  0  0  0  0  0  0  0  0  0
  -11.1980   -3.5560  -22.4210 N   0  0  0  0  0  0  0  0  0  0  0  0
  -12.5260   -3.4170  -21.8200 C   0  0  0  0  0  0  0  0  0  0  0  0
  -13.4220   -2.5940  -22.6720 C   0  0  0  0  0  0  0  0  0  0  0  0
  -14.1900   -3.1840  -23.5670 N   0  0  0  0  0  0  0  0  0  0  0  0
  -13.4870   -1.2470  -22.7650 N   0  0  0  0  0  0  0  0  0  0  0  0
  -14.2700   -0.9930  -23.7860 N   0  0  0  0  0  0  0  0  0  0  0  0
  -14.6630   -2.1600  -24.2460 N   0  0  0  0  0  0  0  0  0  0  0  0
  -15.2560   -2.4080  -25.5420 C   0  0  0  0  0  0  0  0  0  0  0  0
  -16.2110   -2.9150  -25.4020 H   0  0  0  0  0  0  0  0  0  0  0  0
  -15.3480   -1.4630  -26.0670 H   0  0  0  0  0  0  0  0  0  0  0  0
  -14.5750   -3.0660  -26.0810 H   0  0  0  0  0  0  0  0  0  0  0  0
  -12.4470   -3.0030  -20.8120 H   0  0  0  0  0  0  0  0  0  0  0  0
  -13.0090   -4.3910  -21.7970 H   0  0  0  0  0  0  0  0  0  0  0  0
  -11.0600   -4.4760  -23.4300 C   0  0  0  0  0  0  0  0  0  0  0  0
  -12.0030   -5.1260  -23.8610 O   0  0  0  0  0  0  0  0  0  0  0  0
   -9.6850   -4.6290  -23.9830 C   0  0  0  0  0  0  0  0  0  0  0  0
   -9.5100   -5.5820  -24.9830 C   0  0  0  0  0  0  0  0  0  0  0  0
   -8.2640   -5.7960  -25.5390 C   0  0  0  0  0  0  0  0  0  0  0  0
   -7.1950   -5.0530  -25.0480 C   0  0  0  0  0  0  0  0  0  0  0  0
   -5.9710   -5.2830  -25.5520 F   0  0  0  0  0  0  0  0  0  0  0  0
   -7.3430   -4.1030  -24.0560 C   0  0  0  0  0  0  0  0  0  0  0  0
   -8.6110   -3.8690  -23.5130 C   0  0  0  0  0  0  0  0  0  0  0  0
   -6.4690   -3.5830  -23.6790 H   0  0  0  0  0  0  0  0  0  0  0  0
   -8.1040   -6.5300  -26.3200 H   0  0  0  0  0  0  0  0  0  0  0  0
  -10.3890   -6.1490  -25.2770 H   0  0  0  0  0  0  0  0  0  0  0  0
  -10.3960   -2.1600  -21.1570 H   0  0  0  0  0  0  0  0  0  0  0  0
   -9.8020   -3.8080  -20.8710 H   0  0  0  0  0  0  0  0  0  0  0  0
   -9.0260   -0.1910  -21.2670 H   0  0  0  0  0  0  0  0  0  0  0  0
   -7.7580    0.4400  -22.3260 H   0  0  0  0  0  0  0  0  0  0  0  0
   -8.0120   -1.3980  -23.8850 H   0  0  0  0  0  0  0  0  0  0  0  0
  -10.8590   -0.7600  -22.9360 H   0  0  0  0  0  0  0  0  0  0  0  0
   -9.9230    0.1470  -24.1400 H   0  0  0  0  0  0  0  0  0  0  0  0
  -10.4340   -1.5220  -24.4740 H   0  0  0  0  0  0  0  0  0  0  0  0
  1  2  1  0  0  0  0
  1 55  1  0  0  0  0
  1 56  1  0  0  0  0
  1 57  1  0  0  0  0
  2  3  1  0  0  0  0
  2 23  1  0  0  0  0
  2 54  1  6  0  0  0
  3  4  1  0  0  0  0
  3 52  1  0  0  0  0
  3 53  1  0  0  0  0
  4  5  1  0  0  0  0
  4 21  1  0  0  0  0
  5  6  2  0  0  0  0
  5 14  1  0  0  0  0
  6  7  1  0  0  0  0
  6 20  1  0  0  0  0
  7  8  2  0  0  0  0
  8  9  1  0  0  0  0
  8 19  1  0  0  0  0
  9 10  2  0  0  0  0
  9 14  1  0  0  0  0
 10 11  1  0  0  0  0
 10 18  1  0  0  0  0
 11 12  2  0  0  0  0
 11 17  1  0  0  0  0
 12 13  1  0  0  0  0
 12 16  1  0  0  0  0
 13 14  2  0  0  0  0
 13 15  1  0  0  0  0
 21 22  2  0  0  0  0
 23 21  1  1  0  0  0
 23 24  1  0  0  0  0
 23 46  1  0  0  0  0
 24 25  1  0  0  0  0
 24 50  1  0  0  0  0
 24 51  1  0  0  0  0
 25 26  1  0  0  0  0
 25 38  1  0  0  0  0
 26 27  1  0  0  0  0
 26 36  1  0  0  0  0
 26 37  1  0  0  0  0
 27 28  2  0  0  0  0
 27 31  1  0  0  0  0
 28 29  1  0  0  0  0
 29 30  2  0  0  0  0
 30 31  1  0  0  0  0
 31 32  1  0  0  0  0
 32 33  1  0  0  0  0
 32 34  1  0  0  0  0
 32 35  1  0  0  0  0
 38 39  2  0  0  0  0
 38 40  1  0  0  0  0
 40 41  2  0  0  0  0
 40 46  1  0  0  0  0
 41 42  1  0  0  0  0
 41 49  1  0  0  0  0
 42 43  2  0  0  0  0
 42 48  1  0  0  0  0
 43 44  1  0  0  0  0
 43 45  1  0  0  0  0
 45 46  2  0  0  0  0
 45 47  1  0  0  0  0
M  END
>  <MODEL>
       1

$$$$
