tmp_first_model_14_48.pdb
 OpenBabel08282500413D

 46 48  0  0  0  0  0  0  0  0999 V2000
  -13.1360   -3.5930  -22.1120 C   0  0  0  0  0  0  0  0  0  0  0  0
  -13.1570   -2.9110  -23.4840 C   0  0  0  0  0  0  0  0  0  0  0  0
  -14.5130   -2.2400  -23.7620 C   0  0  0  0  0  0  0  0  0  0  0  0
  -15.3140   -2.9730  -23.9120 H   0  0  0  0  0  0  0  0  0  0  0  0
  -14.4590   -1.6040  -24.6570 H   0  0  0  0  0  0  0  0  0  0  0  0
  -14.8080   -1.5920  -22.9270 H   0  0  0  0  0  0  0  0  0  0  0  0
  -12.0250   -1.8870  -23.7660 C   0  0  0  0  0  0  0  0  0  0  0  0
  -11.9290   -0.7440  -22.7440 C   0  0  0  0  0  0  0  0  0  0  0  0
  -10.6150    0.0260  -22.8890 C   0  0  0  0  0  0  0  0  0  0  0  0
   -9.5240   -0.8670  -22.4920 N   0  0  0  0  0  0  0  0  0  0  0  0
   -8.5510   -0.4170  -21.6540 C   0  0  0  0  0  0  0  0  0  0  0  0
   -8.5320    0.7330  -21.2290 O   0  0  0  0  0  0  0  0  0  0  0  0
   -7.4570   -1.4260  -21.2620 C   0  0  0  0  0  0  0  0  0  0  0  0
   -6.5800   -0.8430  -20.2060 C   0  0  0  0  0  0  0  0  0  0  0  0
   -6.9430   -0.9900  -18.8920 C   0  0  0  0  0  0  0  0  0  0  0  0
   -6.2920   -0.4370  -17.8400 N   0  0  0  0  0  0  0  0  0  0  0  0
   -5.2340    0.2850  -18.1130 C   0  0  0  0  0  0  0  0  0  0  0  0
   -4.7550    0.5400  -19.4280 C   0  0  0  0  0  0  0  0  0  0  0  0
   -3.6180    1.3460  -19.6740 C   0  0  0  0  0  0  0  0  0  0  0  0
   -3.2260    1.6240  -20.9570 C   0  0  0  0  0  0  0  0  0  0  0  0
   -3.9640    1.1140  -22.0480 C   0  0  0  0  0  0  0  0  0  0  0  0
   -5.0630    0.3240  -21.8360 C   0  0  0  0  0  0  0  0  0  0  0  0
   -5.4730   -0.0040  -20.5150 C   0  0  0  0  0  0  0  0  0  0  0  0
   -5.6390   -0.0400  -22.6820 H   0  0  0  0  0  0  0  0  0  0  0  0
   -3.6570    1.3630  -23.0600 H   0  0  0  0  0  0  0  0  0  0  0  0
   -2.3580    2.2470  -21.1390 H   0  0  0  0  0  0  0  0  0  0  0  0
   -3.0810    1.7510  -18.8240 H   0  0  0  0  0  0  0  0  0  0  0  0
   -4.7100    0.7270  -17.2670 H   0  0  0  0  0  0  0  0  0  0  0  0
   -7.8280   -1.5760  -18.6420 H   0  0  0  0  0  0  0  0  0  0  0  0
   -6.8920   -1.7290  -22.1560 H   0  0  0  0  0  0  0  0  0  0  0  0
   -7.9360   -2.3350  -20.8690 H   0  0  0  0  0  0  0  0  0  0  0  0
   -9.7330   -2.2920  -22.7180 C   0  0  0  0  0  0  0  0  0  0  0  0
  -10.6110   -2.4680  -23.9490 C   0  0  0  0  0  0  0  0  0  0  0  0
  -10.6340   -3.5120  -24.2650 H   0  0  0  0  0  0  0  0  0  0  0  0
  -10.1270   -1.9230  -24.7650 H   0  0  0  0  0  0  0  0  0  0  0  0
   -8.7680   -2.7810  -22.8760 H   0  0  0  0  0  0  0  0  0  0  0  0
  -10.2100   -2.7710  -21.8460 H   0  0  0  0  0  0  0  0  0  0  0  0
  -10.4690    0.3600  -23.9270 H   0  0  0  0  0  0  0  0  0  0  0  0
  -10.5500    0.9160  -22.2550 H   0  0  0  0  0  0  0  0  0  0  0  0
  -12.8090   -0.1070  -22.8160 H   0  0  0  0  0  0  0  0  0  0  0  0
  -11.9170   -1.1540  -21.7330 H   0  0  0  0  0  0  0  0  0  0  0  0
  -12.2980   -1.4350  -24.7340 H   0  0  0  0  0  0  0  0  0  0  0  0
  -13.0090   -3.7190  -24.2140 H   0  0  0  0  0  0  0  0  0  0  0  0
  -13.9250   -4.3560  -22.0540 H   0  0  0  0  0  0  0  0  0  0  0  0
  -13.3210   -2.8840  -21.2990 H   0  0  0  0  0  0  0  0  0  0  0  0
  -12.1810   -4.0940  -21.9100 H   0  0  0  0  0  0  0  0  0  0  0  0
  1  2  1  0  0  0  0
  1 44  1  0  0  0  0
  1 45  1  0  0  0  0
  1 46  1  0  0  0  0
  2  3  1  0  0  0  0
  2  7  1  0  0  0  0
  2 43  1  0  0  0  0
  3  4  1  0  0  0  0
  3  5  1  0  0  0  0
  3  6  1  0  0  0  0
  7  8  1  0  0  0  0
  7 33  1  0  0  0  0
  7 42  1  0  0  0  0
  8  9  1  0  0  0  0
  8 40  1  0  0  0  0
  8 41  1  0  0  0  0
  9 10  1  0  0  0  0
  9 38  1  0  0  0  0
  9 39  1  0  0  0  0
 10 11  1  0  0  0  0
 10 32  1  0  0  0  0
 11 12  2  0  0  0  0
 11 13  1  0  0  0  0
 13 14  1  0  0  0  0
 13 30  1  0  0  0  0
 13 31  1  0  0  0  0
 14 15  2  0  0  0  0
 14 23  1  0  0  0  0
 15 16  1  0  0  0  0
 15 29  1  0  0  0  0
 16 17  2  0  0  0  0
 17 18  1  0  0  0  0
 17 28  1  0  0  0  0
 18 19  2  0  0  0  0
 18 23  1  0  0  0  0
 19 20  1  0  0  0  0
 19 27  1  0  0  0  0
 20 21  2  0  0  0  0
 20 26  1  0  0  0  0
 21 22  1  0  0  0  0
 21 25  1  0  0  0  0
 22 23  2  0  0  0  0
 22 24  1  0  0  0  0
 32 33  1  0  0  0  0
 32 36  1  0  0  0  0
 32 37  1  0  0  0  0
 33 34  1  0  0  0  0
 33 35  1  0  0  0  0
M  END
>  <MODEL>
       1

$$$$
