tmp_first_model_19_52.pdb
 OpenBabel08282503233D

 57 60  0  0  0  0  0  0  0  0999 V2000
  -13.9740   -1.5510  -23.5900 C   0  0  0  0  0  0  0  0  0  0  0  0
  -13.2450   -1.3260  -24.9230 C   0  0  0  0  0  0  0  0  0  0  0  0
  -11.7700   -0.9810  -24.7660 C   0  0  0  0  0  0  0  0  0  0  0  0
  -11.3960    0.1410  -24.4880 O   0  0  0  0  0  0  0  0  0  0  0  0
  -10.8770   -2.0040  -24.9670 N   0  0  0  0  0  0  0  0  0  0  0  0
   -9.4760   -1.7570  -25.0550 C   0  0  0  0  0  0  0  0  0  0  0  0
   -8.9550   -0.9240  -26.0430 C   0  0  0  0  0  0  0  0  0  0  0  0
   -7.5810   -0.7080  -26.0790 C   0  0  0  0  0  0  0  0  0  0  0  0
   -6.7340   -1.2860  -25.1380 C   0  0  0  0  0  0  0  0  0  0  0  0
   -7.2590   -2.1220  -24.1500 C   0  0  0  0  0  0  0  0  0  0  0  0
   -6.3900   -2.7380  -23.2010 N   0  0  0  0  0  0  0  0  0  0  0  0
   -5.3910   -3.6870  -23.7010 C   0  0  0  0  0  0  0  0  0  0  0  0
   -5.9990   -5.0260  -24.0590 C   0  0  0  0  0  0  0  0  0  0  0  0
   -6.6270   -5.2210  -25.2910 C   0  0  0  0  0  0  0  0  0  0  0  0
   -7.2420   -6.4340  -25.5840 C   0  0  0  0  0  0  0  0  0  0  0  0
   -7.2310   -7.4630  -24.6460 C   0  0  0  0  0  0  0  0  0  0  0  0
   -6.5890   -7.2840  -23.4260 C   0  0  0  0  0  0  0  0  0  0  0  0
   -5.9870   -6.0650  -23.1300 C   0  0  0  0  0  0  0  0  0  0  0  0
   -5.5220   -5.9070  -22.1600 H   0  0  0  0  0  0  0  0  0  0  0  0
   -6.5420   -8.0980  -22.7060 H   0  0  0  0  0  0  0  0  0  0  0  0
   -7.7170   -8.4100  -24.8690 H   0  0  0  0  0  0  0  0  0  0  0  0
   -7.7260   -6.5820  -26.5480 H   0  0  0  0  0  0  0  0  0  0  0  0
   -6.6590   -4.4120  -26.0200 H   0  0  0  0  0  0  0  0  0  0  0  0
   -4.9200   -3.2450  -24.5850 H   0  0  0  0  0  0  0  0  0  0  0  0
   -4.6230   -3.8020  -22.9330 H   0  0  0  0  0  0  0  0  0  0  0  0
   -6.5940   -2.6900  -21.8320 C   0  0  0  0  0  0  0  0  0  0  0  0
   -6.1000   -3.5200  -21.0900 O   0  0  0  0  0  0  0  0  0  0  0  0
   -7.3810   -1.5020  -21.2640 C   0  0  0  0  0  0  0  0  0  0  0  0
   -6.5870   -0.8350  -20.1770 C   0  0  0  0  0  0  0  0  0  0  0  0
   -6.8900   -1.0640  -18.8630 C   0  0  0  0  0  0  0  0  0  0  0  0
   -6.2090   -0.5590  -17.8030 N   0  0  0  0  0  0  0  0  0  0  0  0
   -5.1790    0.2050  -18.0740 C   0  0  0  0  0  0  0  0  0  0  0  0
   -4.7330    0.5120  -19.3890 C   0  0  0  0  0  0  0  0  0  0  0  0
   -3.5980    1.3310  -19.6210 C   0  0  0  0  0  0  0  0  0  0  0  0
   -3.1960    1.6170  -20.8940 C   0  0  0  0  0  0  0  0  0  0  0  0
   -3.9110    1.0920  -21.9940 C   0  0  0  0  0  0  0  0  0  0  0  0
   -5.0130    0.2950  -21.7990 C   0  0  0  0  0  0  0  0  0  0  0  0
   -5.4550   -0.0190  -20.4820 C   0  0  0  0  0  0  0  0  0  0  0  0
   -5.5440   -0.0920  -22.6680 H   0  0  0  0  0  0  0  0  0  0  0  0
   -3.5860    1.3330  -23.0010 H   0  0  0  0  0  0  0  0  0  0  0  0
   -2.3330    2.2540  -21.0700 H   0  0  0  0  0  0  0  0  0  0  0  0
   -3.0670    1.7390  -18.7650 H   0  0  0  0  0  0  0  0  0  0  0  0
   -4.6310    0.6180  -17.2270 H   0  0  0  0  0  0  0  0  0  0  0  0
   -7.7400   -1.6980  -18.6090 H   0  0  0  0  0  0  0  0  0  0  0  0
   -7.6340   -0.7900  -22.0530 H   0  0  0  0  0  0  0  0  0  0  0  0
   -8.3240   -1.8900  -20.8560 H   0  0  0  0  0  0  0  0  0  0  0  0
   -8.6320   -2.3640  -24.1310 C   0  0  0  0  0  0  0  0  0  0  0  0
   -9.0760   -3.0160  -23.3850 H   0  0  0  0  0  0  0  0  0  0  0  0
   -5.6650   -1.0900  -25.1640 H   0  0  0  0  0  0  0  0  0  0  0  0
   -7.1570   -0.0690  -26.8460 H   0  0  0  0  0  0  0  0  0  0  0  0
   -9.6100   -0.4790  -26.7880 H   0  0  0  0  0  0  0  0  0  0  0  0
  -11.2060   -2.9420  -25.1540 H   0  0  0  0  0  0  0  0  0  0  0  0
  -13.3810   -2.1880  -25.5900 H   0  0  0  0  0  0  0  0  0  0  0  0
  -13.7060   -0.4600  -25.4080 H   0  0  0  0  0  0  0  0  0  0  0  0
  -13.4810   -2.3000  -22.9620 H   0  0  0  0  0  0  0  0  0  0  0  0
  -14.0420   -0.6180  -23.0170 H   0  0  0  0  0  0  0  0  0  0  0  0
  -14.9920   -1.9110  -23.7840 H   0  0  0  0  0  0  0  0  0  0  0  0
  1  2  1  0  0  0  0
  1 55  1  0  0  0  0
  1 56  1  0  0  0  0
  1 57  1  0  0  0  0
  2  3  1  0  0  0  0
  2 53  1  0  0  0  0
  2 54  1  0  0  0  0
  3  4  2  0  0  0  0
  3  5  1  0  0  0  0
  5  6  1  0  0  0  0
  5 52  1  0  0  0  0
  6  7  2  0  0  0  0
  6 47  1  0  0  0  0
  7  8  1  0  0  0  0
  7 51  1  0  0  0  0
  8  9  2  0  0  0  0
  8 50  1  0  0  0  0
  9 10  1  0  0  0  0
  9 49  1  0  0  0  0
 10 11  1  0  0  0  0
 10 47  2  0  0  0  0
 11 12  1  0  0  0  0
 11 26  1  0  0  0  0
 12 13  1  0  0  0  0
 12 24  1  0  0  0  0
 12 25  1  0  0  0  0
 13 14  2  0  0  0  0
 13 18  1  0  0  0  0
 14 15  1  0  0  0  0
 14 23  1  0  0  0  0
 15 16  2  0  0  0  0
 15 22  1  0  0  0  0
 16 17  1  0  0  0  0
 16 21  1  0  0  0  0
 17 18  2  0  0  0  0
 17 20  1  0  0  0  0
 18 19  1  0  0  0  0
 26 27  2  0  0  0  0
 26 28  1  0  0  0  0
 28 29  1  0  0  0  0
 28 45  1  0  0  0  0
 28 46  1  0  0  0  0
 29 30  2  0  0  0  0
 29 38  1  0  0  0  0
 30 31  1  0  0  0  0
 30 44  1  0  0  0  0
 31 32  2  0  0  0  0
 32 33  1  0  0  0  0
 32 43  1  0  0  0  0
 33 34  2  0  0  0  0
 33 38  1  0  0  0  0
 34 35  1  0  0  0  0
 34 42  1  0  0  0  0
 35 36  2  0  0  0  0
 35 41  1  0  0  0  0
 36 37  1  0  0  0  0
 36 40  1  0  0  0  0
 37 38  2  0  0  0  0
 37 39  1  0  0  0  0
 47 48  1  0  0  0  0
M  END
>  <MODEL>
       1

$$$$
