tmp_first_model_15_84.pdb
 OpenBabel08282501153D

 63 68  0  0  1  0  0  0  0  0999 V2000
   -7.7690   -3.6820  -24.0570 C   0  0  0  0  0  0  0  0  0  0  0  0
   -8.1750   -2.9140  -22.8080 C   0  0  1  0  0  0  0  0  0  0  0  0
   -6.9890   -2.6240  -21.8800 C   0  0  0  0  0  0  0  0  0  0  0  0
   -7.3890   -1.4130  -21.1990 N   0  0  0  0  0  0  0  0  0  0  0  0
   -6.6110   -0.8130  -20.1810 C   0  0  0  0  0  0  0  0  0  0  0  0
   -6.9350   -1.0410  -18.8720 C   0  0  0  0  0  0  0  0  0  0  0  0
   -6.2430   -0.5520  -17.8130 N   0  0  0  0  0  0  0  0  0  0  0  0
   -5.2010    0.2000  -18.0790 C   0  0  0  0  0  0  0  0  0  0  0  0
   -4.7630    0.5240  -19.3980 C   0  0  0  0  0  0  0  0  0  0  0  0
   -3.6380    1.3570  -19.6270 C   0  0  0  0  0  0  0  0  0  0  0  0
   -3.2440    1.6490  -20.9030 C   0  0  0  0  0  0  0  0  0  0  0  0
   -3.9510    1.1260  -22.0080 C   0  0  0  0  0  0  0  0  0  0  0  0
   -5.0450    0.3200  -21.8150 C   0  0  0  0  0  0  0  0  0  0  0  0
   -5.4790    0.0000  -20.4940 C   0  0  0  0  0  0  0  0  0  0  0  0
   -5.5870   -0.0640  -22.6740 H   0  0  0  0  0  0  0  0  0  0  0  0
   -3.6230    1.3680  -23.0140 H   0  0  0  0  0  0  0  0  0  0  0  0
   -2.3820    2.2880  -21.0750 H   0  0  0  0  0  0  0  0  0  0  0  0
   -3.1120    1.7580  -18.7660 H   0  0  0  0  0  0  0  0  0  0  0  0
   -4.6370    0.5930  -17.2330 H   0  0  0  0  0  0  0  0  0  0  0  0
   -7.8040   -1.6550  -18.6460 H   0  0  0  0  0  0  0  0  0  0  0  0
   -8.4420   -0.7430  -21.7820 C   0  0  0  0  0  0  0  0  0  0  0  0
   -8.8840    0.3120  -21.3690 O   0  0  0  0  0  0  0  0  0  0  0  0
   -8.8880   -1.5270  -23.0310 C   0  0  1  0  0  0  0  0  0  0  0  0
   -8.4270   -0.7160  -24.2720 C   0  0  0  0  0  0  0  0  0  0  0  0
   -9.0150   -1.2200  -25.5070 N   0  0  0  0  0  0  0  0  0  0  0  0
   -8.2860   -1.1710  -26.7600 C   0  0  0  0  0  0  0  0  0  0  0  0
   -8.4730    0.1630  -27.4760 C   0  0  0  0  0  0  0  0  0  0  0  0
   -7.9730    1.2000  -27.0650 O   0  0  0  0  0  0  0  0  0  0  0  0
   -9.2220    0.0830  -28.6160 N   0  0  0  0  0  0  0  0  0  0  0  0
   -9.5220    1.2870  -29.3610 C   0  0  0  0  0  0  0  0  0  0  0  0
   -8.3350    1.7760  -30.1760 C   0  0  0  0  0  0  0  0  0  0  0  0
   -7.7600    0.7790  -30.9350 F   0  0  0  0  0  0  0  0  0  0  0  0
   -8.3550    3.1220  -30.8160 C   0  0  0  0  0  0  0  0  0  0  0  0
   -7.4080    2.8310  -29.6720 C   0  0  0  0  0  0  0  0  0  0  0  0
   -7.6120    3.2550  -28.6880 H   0  0  0  0  0  0  0  0  0  0  0  0
   -6.3620    2.7060  -29.9410 H   0  0  0  0  0  0  0  0  0  0  0  0
   -9.2070    3.7810  -30.6560 H   0  0  0  0  0  0  0  0  0  0  0  0
   -7.8940    3.1560  -31.8000 H   0  0  0  0  0  0  0  0  0  0  0  0
   -9.8430    2.0800  -28.6660 H   0  0  0  0  0  0  0  0  0  0  0  0
  -10.3640    1.0810  -30.0340 H   0  0  0  0  0  0  0  0  0  0  0  0
   -9.8690   -0.6910  -28.6910 H   0  0  0  0  0  0  0  0  0  0  0  0
   -7.2240   -1.3250  -26.5590 H   0  0  0  0  0  0  0  0  0  0  0  0
   -8.6420   -1.9910  -27.3920 H   0  0  0  0  0  0  0  0  0  0  0  0
  -10.3610   -1.4070  -25.6170 C   0  0  0  0  0  0  0  0  0  0  0  0
  -10.9250   -1.4050  -26.7060 O   0  0  0  0  0  0  0  0  0  0  0  0
  -11.0770   -1.6440  -24.3350 C   0  0  0  0  0  0  0  0  0  0  0  0
  -12.4500   -1.8750  -24.4000 C   0  0  0  0  0  0  0  0  0  0  0  0
  -13.1720   -2.1830  -23.2640 C   0  0  0  0  0  0  0  0  0  0  0  0
  -12.4750   -2.2590  -22.0650 C   0  0  0  0  0  0  0  0  0  0  0  0
  -13.1340   -2.6480  -20.9630 F   0  0  0  0  0  0  0  0  0  0  0  0
  -11.1260   -1.9740  -21.9610 C   0  0  0  0  0  0  0  0  0  0  0  0
  -10.3950   -1.6760  -23.1140 C   0  0  0  0  0  0  0  0  0  0  0  0
  -10.6500   -1.9820  -20.9890 H   0  0  0  0  0  0  0  0  0  0  0  0
  -14.2440   -2.3530  -23.2900 H   0  0  0  0  0  0  0  0  0  0  0  0
  -12.9180   -1.8160  -25.3740 H   0  0  0  0  0  0  0  0  0  0  0  0
   -8.7180    0.3350  -24.1150 H   0  0  0  0  0  0  0  0  0  0  0  0
   -7.3330   -0.7460  -24.3610 H   0  0  0  0  0  0  0  0  0  0  0  0
   -6.0550   -2.4840  -22.4470 H   0  0  0  0  0  0  0  0  0  0  0  0
   -6.8130   -3.4250  -21.1510 H   0  0  0  0  0  0  0  0  0  0  0  0
   -8.8910   -3.5210  -22.2350 H   0  0  0  0  0  0  0  0  0  0  0  0
   -8.6320   -3.8740  -24.6990 H   0  0  0  0  0  0  0  0  0  0  0  0
   -7.0320   -3.1100  -24.6320 H   0  0  0  0  0  0  0  0  0  0  0  0
   -7.3150   -4.6380  -23.7810 H   0  0  0  0  0  0  0  0  0  0  0  0
  1  2  1  0  0  0  0
  1 61  1  0  0  0  0
  1 62  1  0  0  0  0
  1 63  1  0  0  0  0
  2  3  1  0  0  0  0
  2 23  1  0  0  0  0
  2 60  1  1  0  0  0
  3  4  1  0  0  0  0
  3 58  1  0  0  0  0
  3 59  1  0  0  0  0
  4  5  1  0  0  0  0
  4 21  1  0  0  0  0
  5  6  2  0  0  0  0
  5 14  1  0  0  0  0
  6  7  1  0  0  0  0
  6 20  1  0  0  0  0
  7  8  2  0  0  0  0
  8  9  1  0  0  0  0
  8 19  1  0  0  0  0
  9 10  2  0  0  0  0
  9 14  1  0  0  0  0
 10 11  1  0  0  0  0
 10 18  1  0  0  0  0
 11 12  2  0  0  0  0
 11 17  1  0  0  0  0
 12 13  1  0  0  0  0
 12 16  1  0  0  0  0
 13 14  2  0  0  0  0
 13 15  1  0  0  0  0
 21 22  2  0  0  0  0
 23 21  1  1  0  0  0
 23 24  1  0  0  0  0
 23 52  1  0  0  0  0
 24 25  1  0  0  0  0
 24 56  1  0  0  0  0
 24 57  1  0  0  0  0
 25 26  1  0  0  0  0
 25 44  1  0  0  0  0
 26 27  1  0  0  0  0
 26 42  1  0  0  0  0
 26 43  1  0  0  0  0
 27 28  2  0  0  0  0
 27 29  1  0  0  0  0
 29 30  1  0  0  0  0
 29 41  1  0  0  0  0
 30 31  1  0  0  0  0
 30 39  1  0  0  0  0
 30 40  1  0  0  0  0
 31 32  1  0  0  0  0
 31 33  1  0  0  0  0
 31 34  1  0  0  0  0
 33 34  1  0  0  0  0
 33 37  1  0  0  0  0
 33 38  1  0  0  0  0
 34 35  1  0  0  0  0
 34 36  1  0  0  0  0
 44 45  2  0  0  0  0
 44 46  1  0  0  0  0
 46 47  2  0  0  0  0
 46 52  1  0  0  0  0
 47 48  1  0  0  0  0
 47 55  1  0  0  0  0
 48 49  2  0  0  0  0
 48 54  1  0  0  0  0
 49 50  1  0  0  0  0
 49 51  1  0  0  0  0
 51 52  2  0  0  0  0
 51 53  1  0  0  0  0
M  END
>  <MODEL>
       1

$$$$
