tmp_first_model_11_83.pdb
 OpenBabel08272522543D

 46 50  0  0  1  0  0  0  0  0999 V2000
   -3.6230   -1.0700  -25.3630 N   0  0  0  0  0  0  0  0  0  0  0  0
   -4.5230   -2.0080  -26.3780 S   0  0  0  0  0  0  0  0  0  0  0  0
   -4.2900   -3.3670  -25.9190 O   0  0  0  0  0  0  0  0  0  0  0  0
   -4.1870   -1.5760  -27.7220 O   0  0  0  0  0  0  0  0  0  0  0  0
   -6.2300   -1.5830  -26.0920 C   0  0  0  0  0  0  0  0  0  0  0  0
   -6.9810   -0.9830  -27.1010 C   0  0  0  0  0  0  0  0  0  0  0  0
   -8.2930   -0.6240  -26.8490 C   0  0  0  0  0  0  0  0  0  0  0  0
   -8.8570   -0.8470  -25.5900 C   0  0  0  0  0  0  0  0  0  0  0  0
   -8.1060   -1.4520  -24.5790 C   0  0  0  0  0  0  0  0  0  0  0  0
   -6.7850   -1.8070  -24.8410 C   0  0  0  0  0  0  0  0  0  0  0  0
   -6.1900   -2.2800  -24.0660 H   0  0  0  0  0  0  0  0  0  0  0  0
   -8.6880   -1.6820  -23.1980 C   0  0  1  0  0  0  0  0  0  0  0  0
  -10.2230   -1.5940  -23.2540 C   0  0  0  0  0  0  0  0  0  0  0  0
  -10.6710   -0.4110  -24.0990 C   0  0  0  0  0  0  0  0  0  0  0  0
  -10.1570   -0.4810  -25.4300 O   0  0  0  0  0  0  0  0  0  0  0  0
  -10.3670    0.5320  -23.6260 H   0  0  0  0  0  0  0  0  0  0  0  0
  -11.7580   -0.4210  -24.2260 H   0  0  0  0  0  0  0  0  0  0  0  0
  -10.6030   -1.5120  -22.2320 H   0  0  0  0  0  0  0  0  0  0  0  0
  -10.6180   -2.5240  -23.6840 H   0  0  0  0  0  0  0  0  0  0  0  0
   -8.2580   -2.9200  -22.5940 N   0  0  0  0  0  0  0  0  0  0  0  0
   -7.5150   -2.7860  -21.4590 C   0  0  0  0  0  0  0  0  0  0  0  0
   -7.0190   -3.6640  -20.7950 O   0  0  0  0  0  0  0  0  0  0  0  0
   -7.4060   -1.4000  -21.2200 N   0  0  0  0  0  0  0  0  0  0  0  0
   -6.5920   -0.8340  -20.1970 C   0  0  0  0  0  0  0  0  0  0  0  0
   -6.9030   -1.0670  -18.8810 C   0  0  0  0  0  0  0  0  0  0  0  0
   -6.2170   -0.5460  -17.8350 N   0  0  0  0  0  0  0  0  0  0  0  0
   -5.1800    0.2100  -18.0980 C   0  0  0  0  0  0  0  0  0  0  0  0
   -4.7320    0.5150  -19.4110 C   0  0  0  0  0  0  0  0  0  0  0  0
   -3.5970    1.3390  -19.6400 C   0  0  0  0  0  0  0  0  0  0  0  0
   -3.1810    1.6040  -20.9140 C   0  0  0  0  0  0  0  0  0  0  0  0
   -3.8790    1.0470  -22.0120 C   0  0  0  0  0  0  0  0  0  0  0  0
   -4.9770    0.2500  -21.8170 C   0  0  0  0  0  0  0  0  0  0  0  0
   -5.4470   -0.0270  -20.5020 C   0  0  0  0  0  0  0  0  0  0  0  0
   -5.5170   -0.1670  -22.6660 H   0  0  0  0  0  0  0  0  0  0  0  0
   -3.5450    1.2670  -23.0210 H   0  0  0  0  0  0  0  0  0  0  0  0
   -2.3220    2.2470  -21.0880 H   0  0  0  0  0  0  0  0  0  0  0  0
   -3.0800    1.7610  -18.7820 H   0  0  0  0  0  0  0  0  0  0  0  0
   -4.6340    0.6120  -17.2450 H   0  0  0  0  0  0  0  0  0  0  0  0
   -7.7510   -1.6920  -18.6130 H   0  0  0  0  0  0  0  0  0  0  0  0
   -8.0990   -0.6730  -22.1920 C   0  0  0  0  0  0  0  0  0  0  0  0
   -8.2060    0.5260  -22.2290 O   0  0  0  0  0  0  0  0  0  0  0  0
   -8.4560   -3.8260  -22.9850 H   0  0  0  0  0  0  0  0  0  0  0  0
   -8.9120   -0.1740  -27.6160 H   0  0  0  0  0  0  0  0  0  0  0  0
   -6.5250   -0.8140  -28.0700 H   0  0  0  0  0  0  0  0  0  0  0  0
   -3.7490   -0.0800  -25.5420 H   0  0  0  0  0  0  0  0  0  0  0  0
   -3.7100   -1.3640  -24.3960 H   0  0  0  0  0  0  0  0  0  0  0  0
  1  2  1  0  0  0  0
  1 45  1  0  0  0  0
  1 46  1  0  0  0  0
  2  3  2  0  0  0  0
  2  4  2  0  0  0  0
  2  5  1  0  0  0  0
  5  6  2  0  0  0  0
  5 10  1  0  0  0  0
  6  7  1  0  0  0  0
  6 44  1  0  0  0  0
  7  8  2  0  0  0  0
  7 43  1  0  0  0  0
  8  9  1  0  0  0  0
  8 15  1  0  0  0  0
  9 10  2  0  0  0  0
 10 11  1  0  0  0  0
 12  9  1  6  0  0  0
 12 13  1  0  0  0  0
 12 20  1  0  0  0  0
 12 40  1  0  0  0  0
 13 14  1  0  0  0  0
 13 18  1  0  0  0  0
 13 19  1  0  0  0  0
 14 15  1  0  0  0  0
 14 16  1  0  0  0  0
 14 17  1  0  0  0  0
 20 21  1  0  0  0  0
 20 42  1  0  0  0  0
 21 22  2  0  0  0  0
 21 23  1  0  0  0  0
 23 24  1  0  0  0  0
 23 40  1  0  0  0  0
 24 25  2  0  0  0  0
 24 33  1  0  0  0  0
 25 26  1  0  0  0  0
 25 39  1  0  0  0  0
 26 27  2  0  0  0  0
 27 28  1  0  0  0  0
 27 38  1  0  0  0  0
 28 29  2  0  0  0  0
 28 33  1  0  0  0  0
 29 30  1  0  0  0  0
 29 37  1  0  0  0  0
 30 31  2  0  0  0  0
 30 36  1  0  0  0  0
 31 32  1  0  0  0  0
 31 35  1  0  0  0  0
 32 33  2  0  0  0  0
 32 34  1  0  0  0  0
 40 41  2  0  0  0  0
M  END
>  <MODEL>
       1

$$$$
