tmp_first_model_19_23.pdb
 OpenBabel08282503233D

 68 73  0  0  1  0  0  0  0  0999 V2000
   -7.4400    3.3610  -21.8360 C   0  0  0  0  0  0  0  0  0  0  0  0
   -8.3350    2.8710  -22.8700 N   0  0  0  0  0  0  0  0  0  0  0  0
   -7.7790    2.1580  -23.8930 C   0  0  0  0  0  0  0  0  0  0  0  0
   -6.5710    2.0240  -24.0260 O   0  0  0  0  0  0  0  0  0  0  0  0
   -8.7680    1.5470  -24.8810 C   0  0  0  0  0  0  0  0  0  0  0  0
   -9.4380    0.3980  -24.3180 N   0  0  0  0  0  0  0  0  0  0  0  0
   -8.6940   -0.8370  -24.1640 C   0  0  0  0  0  0  0  0  0  0  0  0
   -9.0650   -1.5720  -22.8550 C   0  0  2  0  0  0  0  0  0  0  0  0
   -8.5460   -0.7810  -21.6330 C   0  0  0  0  0  0  0  0  0  0  0  0
   -9.0420    0.2030  -21.1310 O   0  0  0  0  0  0  0  0  0  0  0  0
   -7.3940   -1.3870  -21.1960 N   0  0  0  0  0  0  0  0  0  0  0  0
   -6.6030   -0.8120  -20.1810 C   0  0  0  0  0  0  0  0  0  0  0  0
   -6.9220   -1.0480  -18.8690 C   0  0  0  0  0  0  0  0  0  0  0  0
   -6.2230   -0.5650  -17.8170 N   0  0  0  0  0  0  0  0  0  0  0  0
   -5.1850    0.1940  -18.0810 C   0  0  0  0  0  0  0  0  0  0  0  0
   -4.7420    0.5140  -19.3980 C   0  0  0  0  0  0  0  0  0  0  0  0
   -3.6130    1.3390  -19.6400 C   0  0  0  0  0  0  0  0  0  0  0  0
   -3.2320    1.6440  -20.9180 C   0  0  0  0  0  0  0  0  0  0  0  0
   -3.9600    1.1410  -22.0210 C   0  0  0  0  0  0  0  0  0  0  0  0
   -5.0570    0.3380  -21.8150 C   0  0  0  0  0  0  0  0  0  0  0  0
   -5.4710   -0.0010  -20.4960 C   0  0  0  0  0  0  0  0  0  0  0  0
   -5.6220   -0.0180  -22.6720 H   0  0  0  0  0  0  0  0  0  0  0  0
   -3.6610    1.3950  -23.0330 H   0  0  0  0  0  0  0  0  0  0  0  0
   -2.3730    2.2830  -21.0930 H   0  0  0  0  0  0  0  0  0  0  0  0
   -3.0780    1.7390  -18.7840 H   0  0  0  0  0  0  0  0  0  0  0  0
   -4.6240    0.5920  -17.2340 H   0  0  0  0  0  0  0  0  0  0  0  0
   -7.7900   -1.6610  -18.6360 H   0  0  0  0  0  0  0  0  0  0  0  0
   -7.0180   -2.5690  -21.9310 C   0  0  0  0  0  0  0  0  0  0  0  0
   -8.2970   -2.9200  -22.7050 C   0  0  2  0  0  0  0  0  0  0  0  0
   -8.0100   -3.7190  -23.9950 C   0  0  0  0  0  0  0  0  0  0  0  0
   -7.5050   -5.0620  -23.8000 N   0  0  0  0  0  0  0  0  0  0  0  0
   -6.2020   -5.3720  -23.4350 C   0  0  0  0  0  0  0  0  0  0  0  0
   -5.1010   -4.6250  -23.8780 C   0  0  0  0  0  0  0  0  0  0  0  0
   -3.8130   -4.9890  -23.4970 C   0  0  0  0  0  0  0  0  0  0  0  0
   -3.5870   -6.0860  -22.6750 C   0  0  0  0  0  0  0  0  0  0  0  0
   -4.6780   -6.8340  -22.2450 C   0  0  0  0  0  0  0  0  0  0  0  0
   -5.9670   -6.4960  -22.6270 C   0  0  0  0  0  0  0  0  0  0  0  0
   -6.8150   -7.0930  -22.2950 H   0  0  0  0  0  0  0  0  0  0  0  0
   -4.5270   -7.7030  -21.6130 H   0  0  0  0  0  0  0  0  0  0  0  0
   -2.5780   -6.3610  -22.3860 H   0  0  0  0  0  0  0  0  0  0  0  0
   -2.9780   -4.4020  -23.8600 H   0  0  0  0  0  0  0  0  0  0  0  0
   -5.2520   -3.7660  -24.5300 H   0  0  0  0  0  0  0  0  0  0  0  0
   -8.1890   -5.7470  -23.5230 H   0  0  0  0  0  0  0  0  0  0  0  0
   -8.9170   -3.7960  -24.6080 H   0  0  0  0  0  0  0  0  0  0  0  0
   -7.2830   -3.1660  -24.5940 H   0  0  0  0  0  0  0  0  0  0  0  0
   -8.9040   -3.5560  -22.0600 H   0  0  0  0  0  0  0  0  0  0  0  0
   -6.1760   -2.3660  -22.6130 H   0  0  0  0  0  0  0  0  0  0  0  0
   -6.7020   -3.3620  -21.2470 H   0  0  0  0  0  0  0  0  0  0  0  0
  -10.5740   -1.6540  -22.7870 C   0  0  0  0  0  0  0  0  0  0  0  0
  -11.1990   -2.5840  -21.9560 C   0  0  0  0  0  0  0  0  0  0  0  0
  -12.5780   -2.6140  -21.8700 C   0  0  0  0  0  0  0  0  0  0  0  0
  -13.3120   -3.7620  -20.7890 Cl  0  0  0  0  0  0  0  0  0  0  0  0
  -13.3880   -1.7400  -22.5960 C   0  0  0  0  0  0  0  0  0  0  0  0
  -12.7740   -0.7820  -23.3740 C   0  0  0  0  0  0  0  0  0  0  0  0
  -11.3850   -0.7130  -23.4350 C   0  0  0  0  0  0  0  0  0  0  0  0
  -10.7900    0.4520  -24.1490 C   0  0  0  0  0  0  0  0  0  0  0  0
  -11.4640    1.4010  -24.5260 O   0  0  0  0  0  0  0  0  0  0  0  0
  -13.3430   -0.0500  -23.9350 H   0  0  0  0  0  0  0  0  0  0  0  0
  -14.4680   -1.8050  -22.5160 H   0  0  0  0  0  0  0  0  0  0  0  0
  -10.6230   -3.2790  -21.3550 H   0  0  0  0  0  0  0  0  0  0  0  0
   -7.6250   -0.6000  -24.1900 H   0  0  0  0  0  0  0  0  0  0  0  0
   -8.9160   -1.5030  -25.0070 H   0  0  0  0  0  0  0  0  0  0  0  0
   -8.2020    1.2620  -25.7720 H   0  0  0  0  0  0  0  0  0  0  0  0
   -9.5490    2.2650  -25.1480 H   0  0  0  0  0  0  0  0  0  0  0  0
   -9.2880    2.6610  -22.5920 H   0  0  0  0  0  0  0  0  0  0  0  0
   -6.9590    2.5330  -21.2880 H   0  0  0  0  0  0  0  0  0  0  0  0
   -7.9700    4.0190  -21.1420 H   0  0  0  0  0  0  0  0  0  0  0  0
   -6.6490    3.9480  -22.3060 H   0  0  0  0  0  0  0  0  0  0  0  0
  1  2  1  0  0  0  0
  1 66  1  0  0  0  0
  1 67  1  0  0  0  0
  1 68  1  0  0  0  0
  2  3  1  0  0  0  0
  2 65  1  0  0  0  0
  3  4  2  0  0  0  0
  3  5  1  0  0  0  0
  5  6  1  0  0  0  0
  5 63  1  0  0  0  0
  5 64  1  0  0  0  0
  6  7  1  0  0  0  0
  6 56  1  0  0  0  0
  7  8  1  0  0  0  0
  7 61  1  0  0  0  0
  7 62  1  0  0  0  0
  8  9  1  1  0  0  0
  8 29  1  0  0  0  0
  8 49  1  0  0  0  0
  9 10  2  0  0  0  0
  9 11  1  0  0  0  0
 11 12  1  0  0  0  0
 11 28  1  0  0  0  0
 12 13  2  0  0  0  0
 12 21  1  0  0  0  0
 13 14  1  0  0  0  0
 13 27  1  0  0  0  0
 14 15  2  0  0  0  0
 15 16  1  0  0  0  0
 15 26  1  0  0  0  0
 16 17  2  0  0  0  0
 16 21  1  0  0  0  0
 17 18  1  0  0  0  0
 17 25  1  0  0  0  0
 18 19  2  0  0  0  0
 18 24  1  0  0  0  0
 19 20  1  0  0  0  0
 19 23  1  0  0  0  0
 20 21  2  0  0  0  0
 20 22  1  0  0  0  0
 28 29  1  0  0  0  0
 28 47  1  0  0  0  0
 28 48  1  0  0  0  0
 29 30  1  0  0  0  0
 29 46  1  1  0  0  0
 30 31  1  0  0  0  0
 30 44  1  0  0  0  0
 30 45  1  0  0  0  0
 31 32  1  0  0  0  0
 31 43  1  0  0  0  0
 32 33  2  0  0  0  0
 32 37  1  0  0  0  0
 33 34  1  0  0  0  0
 33 42  1  0  0  0  0
 34 35  2  0  0  0  0
 34 41  1  0  0  0  0
 35 36  1  0  0  0  0
 35 40  1  0  0  0  0
 36 37  2  0  0  0  0
 36 39  1  0  0  0  0
 37 38  1  0  0  0  0
 49 50  2  0  0  0  0
 49 55  1  0  0  0  0
 50 51  1  0  0  0  0
 50 60  1  0  0  0  0
 51 52  1  0  0  0  0
 51 53  2  0  0  0  0
 53 54  1  0  0  0  0
 53 59  1  0  0  0  0
 54 55  2  0  0  0  0
 54 58  1  0  0  0  0
 55 56  1  0  0  0  0
 56 57  2  0  0  0  0
M  END
>  <MODEL>
       1

$$$$
