tmp_first_model_5_14.pdb
 OpenBabel08272519223D

 73 78  0  0  1  0  0  0  0  0999 V2000
   -6.8310   -2.9490  -24.2020 C   0  0  0  0  0  0  0  0  0  0  0  0
   -7.9130   -2.8330  -23.1150 C   0  0  1  0  0  0  0  0  0  0  0  0
   -7.2750   -2.8070  -21.7060 C   0  0  0  0  0  0  0  0  0  0  0  0
   -7.5370   -1.4710  -21.1940 N   0  0  0  0  0  0  0  0  0  0  0  0
   -6.6340   -0.9790  -20.2010 C   0  0  0  0  0  0  0  0  0  0  0  0
   -6.7800   -1.3860  -18.8990 C   0  0  0  0  0  0  0  0  0  0  0  0
   -5.8670   -1.1860  -17.9180 N   0  0  0  0  0  0  0  0  0  0  0  0
   -4.7610   -0.5620  -18.2500 C   0  0  0  0  0  0  0  0  0  0  0  0
   -4.4900   -0.0570  -19.5500 C   0  0  0  0  0  0  0  0  0  0  0  0
   -3.3300    0.7310  -19.8070 C   0  0  0  0  0  0  0  0  0  0  0  0
   -3.2230    1.4340  -20.9740 C   0  0  0  0  0  0  0  0  0  0  0  0
   -4.1770    1.2380  -22.0020 C   0  0  0  0  0  0  0  0  0  0  0  0
   -5.2750    0.4430  -21.8000 C   0  0  0  0  0  0  0  0  0  0  0  0
   -5.4810   -0.2040  -20.5460 C   0  0  0  0  0  0  0  0  0  0  0  0
   -6.0230    0.3370  -22.5780 H   0  0  0  0  0  0  0  0  0  0  0  0
   -4.0410    1.7460  -22.9530 H   0  0  0  0  0  0  0  0  0  0  0  0
   -2.3760    2.0940  -21.1400 H   0  0  0  0  0  0  0  0  0  0  0  0
   -2.6390    0.8930  -18.9850 H   0  0  0  0  0  0  0  0  0  0  0  0
   -4.0150   -0.4050  -17.4720 H   0  0  0  0  0  0  0  0  0  0  0  0
   -7.6930   -1.8970  -18.5980 H   0  0  0  0  0  0  0  0  0  0  0  0
   -8.2450   -0.6880  -22.0670 C   0  0  0  0  0  0  0  0  0  0  0  0
   -8.3450    0.5300  -21.9910 O   0  0  0  0  0  0  0  0  0  0  0  0
   -8.8180   -1.5510  -23.2060 C   0  0  1  0  0  0  0  0  0  0  0  0
   -8.6630   -0.8090  -24.5730 C   0  0  0  0  0  0  0  0  0  0  0  0
   -9.7020    0.1770  -24.8170 N   0  0  0  0  0  0  0  0  0  0  0  0
   -9.3970    1.4740  -25.4130 C   0  0  0  0  0  0  0  0  0  0  0  0
   -9.4130    2.6080  -24.3840 C   0  0  0  0  0  0  0  0  0  0  0  0
   -8.1300    2.7040  -23.6250 N   0  3  0  0  0  0  0  0  0  0  0  0
   -8.2900    3.4940  -22.3730 C   0  0  0  0  0  0  0  0  0  0  0  0
   -6.9790    3.6580  -21.6070 C   0  0  0  0  0  0  0  0  0  0  0  0
   -5.8960    4.1180  -22.4860 N   0  0  0  0  0  0  0  0  0  0  0  0
   -4.5740    4.8560  -21.8080 S   0  0  0  0  0  0  0  0  0  0  0  0
   -3.4460    4.6200  -22.6920 O   0  0  0  0  0  0  0  0  0  0  0  0
   -4.5320    4.4890  -20.4050 O   0  0  0  0  0  0  0  0  0  0  0  0
   -4.9230    6.6090  -21.8660 C   0  0  0  0  0  0  0  0  0  0  0  0
   -4.1200    7.1060  -21.3130 H   0  0  0  0  0  0  0  0  0  0  0  0
   -5.8830    6.8030  -21.3810 H   0  0  0  0  0  0  0  0  0  0  0  0
   -4.9230    6.9490  -22.9040 H   0  0  0  0  0  0  0  0  0  0  0  0
   -6.2750    4.4160  -23.8630 C   0  0  0  0  0  0  0  0  0  0  0  0
   -6.9980    3.2150  -24.4780 C   0  0  0  0  0  0  0  0  0  0  0  0
   -6.2980    2.3890  -24.6500 H   0  0  0  0  0  0  0  0  0  0  0  0
   -7.4130    3.5110  -25.4460 H   0  0  0  0  0  0  0  0  0  0  0  0
   -6.9210    5.3080  -23.9100 H   0  0  0  0  0  0  0  0  0  0  0  0
   -5.3720    4.6170  -24.4420 H   0  0  0  0  0  0  0  0  0  0  0  0
   -7.1340    4.3780  -20.7970 H   0  0  0  0  0  0  0  0  0  0  0  0
   -6.6630    2.7020  -21.1630 H   0  0  0  0  0  0  0  0  0  0  0  0
   -8.7320    4.4760  -22.5990 H   0  0  0  0  0  0  0  0  0  0  0  0
   -8.9940    2.9360  -21.7610 H   0  0  0  0  0  0  0  0  0  0  0  0
   -7.9330    1.7490  -23.2840 H   0  0  0  0  0  0  0  0  0  0  0  0
  -10.2330    2.4460  -23.6740 H   0  0  0  0  0  0  0  0  0  0  0  0
   -9.6060    3.5650  -24.8840 H   0  0  0  0  0  0  0  0  0  0  0  0
  -10.1520    1.6640  -26.1800 H   0  0  0  0  0  0  0  0  0  0  0  0
   -8.4140    1.4130  -25.8960 H   0  0  0  0  0  0  0  0  0  0  0  0
  -11.0150   -0.0820  -24.5660 C   0  0  0  0  0  0  0  0  0  0  0  0
  -11.9180    0.6330  -24.9770 O   0  0  0  0  0  0  0  0  0  0  0  0
  -11.3060   -1.2410  -23.6810 C   0  0  0  0  0  0  0  0  0  0  0  0
  -12.6370   -1.6390  -23.5770 C   0  0  0  0  0  0  0  0  0  0  0  0
  -13.0030   -2.5680  -22.6310 C   0  0  0  0  0  0  0  0  0  0  0  0
  -12.0290   -3.0740  -21.7770 C   0  0  0  0  0  0  0  0  0  0  0  0
  -12.6420   -4.1440  -20.5530 Cl  0  0  0  0  0  0  0  0  0  0  0  0
  -10.6890   -2.7470  -21.9210 C   0  0  0  0  0  0  0  0  0  0  0  0
  -10.2970   -1.8490  -22.9330 C   0  0  0  0  0  0  0  0  0  0  0  0
   -9.9550   -3.1900  -21.2580 H   0  0  0  0  0  0  0  0  0  0  0  0
  -14.0270   -2.9040  -22.4950 H   0  0  0  0  0  0  0  0  0  0  0  0
  -13.3670   -1.2010  -24.2510 H   0  0  0  0  0  0  0  0  0  0  0  0
   -8.6560   -1.5420  -25.3940 H   0  0  0  0  0  0  0  0  0  0  0  0
   -7.7070   -0.2710  -24.5880 H   0  0  0  0  0  0  0  0  0  0  0  0
   -6.1870   -2.9520  -21.7320 H   0  0  0  0  0  0  0  0  0  0  0  0
   -7.6830   -3.5720  -21.0350 H   0  0  0  0  0  0  0  0  0  0  0  0
   -8.5480   -3.7180  -23.2120 H   0  0  0  0  0  0  0  0  0  0  0  0
   -7.2700   -3.0410  -25.1990 H   0  0  0  0  0  0  0  0  0  0  0  0
   -6.2160   -3.8410  -24.0410 H   0  0  0  0  0  0  0  0  0  0  0  0
   -6.1590   -2.0840  -24.2040 H   0  0  0  0  0  0  0  0  0  0  0  0
  1  2  1  0  0  0  0
  1 71  1  0  0  0  0
  1 72  1  0  0  0  0
  1 73  1  0  0  0  0
  2  3  1  0  0  0  0
  2 23  1  0  0  0  0
  2 70  1  6  0  0  0
  3  4  1  0  0  0  0
  3 68  1  0  0  0  0
  3 69  1  0  0  0  0
  4  5  1  0  0  0  0
  4 21  1  0  0  0  0
  5  6  2  0  0  0  0
  5 14  1  0  0  0  0
  6  7  1  0  0  0  0
  6 20  1  0  0  0  0
  7  8  2  0  0  0  0
  8  9  1  0  0  0  0
  8 19  1  0  0  0  0
  9 10  2  0  0  0  0
  9 14  1  0  0  0  0
 10 11  1  0  0  0  0
 10 18  1  0  0  0  0
 11 12  2  0  0  0  0
 11 17  1  0  0  0  0
 12 13  1  0  0  0  0
 12 16  1  0  0  0  0
 13 14  2  0  0  0  0
 13 15  1  0  0  0  0
 21 22  2  0  0  0  0
 23 21  1  1  0  0  0
 23 24  1  0  0  0  0
 23 62  1  0  0  0  0
 24 25  1  0  0  0  0
 24 66  1  0  0  0  0
 24 67  1  0  0  0  0
 25 26  1  0  0  0  0
 25 54  1  0  0  0  0
 26 27  1  0  0  0  0
 26 52  1  0  0  0  0
 26 53  1  0  0  0  0
 27 28  1  0  0  0  0
 27 50  1  0  0  0  0
 27 51  1  0  0  0  0
 28 29  1  0  0  0  0
 28 40  1  0  0  0  0
 28 49  1  0  0  0  0
 29 30  1  0  0  0  0
 29 47  1  0  0  0  0
 29 48  1  0  0  0  0
 30 31  1  0  0  0  0
 30 45  1  0  0  0  0
 30 46  1  0  0  0  0
 31 32  1  0  0  0  0
 31 39  1  0  0  0  0
 32 33  2  0  0  0  0
 32 34  2  0  0  0  0
 32 35  1  0  0  0  0
 35 36  1  0  0  0  0
 35 37  1  0  0  0  0
 35 38  1  0  0  0  0
 39 40  1  0  0  0  0
 39 43  1  0  0  0  0
 39 44  1  0  0  0  0
 40 41  1  0  0  0  0
 40 42  1  0  0  0  0
 54 55  2  0  0  0  0
 54 56  1  0  0  0  0
 56 57  2  0  0  0  0
 56 62  1  0  0  0  0
 57 58  1  0  0  0  0
 57 65  1  0  0  0  0
 58 59  2  0  0  0  0
 58 64  1  0  0  0  0
 59 60  1  0  0  0  0
 59 61  1  0  0  0  0
 61 62  2  0  0  0  0
 61 63  1  0  0  0  0
M  CHG  1  28   1
M  END
>  <MODEL>
       1

$$$$
