tmp_first_model_8_35.pdb
 OpenBabel08272521063D

 40 42  0  0  0  0  0  0  0  0999 V2000
   -9.1190   -1.9390  -22.7260 O   0  0  0  0  0  0  0  0  0  0  0  0
   -8.2630   -1.1190  -22.4040 C   0  0  0  0  0  0  0  0  0  0  0  0
   -6.9200   -1.5940  -21.8500 C   0  0  0  0  0  0  0  0  0  0  0  0
   -6.3940   -0.8510  -20.6370 C   0  0  0  0  0  0  0  0  0  0  0  0
   -6.9960   -1.0370  -19.4160 C   0  0  0  0  0  0  0  0  0  0  0  0
   -6.5410   -0.5580  -18.2320 N   0  0  0  0  0  0  0  0  0  0  0  0
   -5.4680    0.1940  -18.2670 C   0  0  0  0  0  0  0  0  0  0  0  0
   -4.7930    0.5560  -19.4610 C   0  0  0  0  0  0  0  0  0  0  0  0
   -3.7230    1.4880  -19.4560 C   0  0  0  0  0  0  0  0  0  0  0  0
   -3.1610    1.9070  -20.6300 C   0  0  0  0  0  0  0  0  0  0  0  0
   -3.6110    1.3670  -21.8520 C   0  0  0  0  0  0  0  0  0  0  0  0
   -4.5800    0.3890  -21.8730 C   0  0  0  0  0  0  0  0  0  0  0  0
   -5.2500    0.0030  -20.6830 C   0  0  0  0  0  0  0  0  0  0  0  0
   -4.8380   -0.0710  -22.8250 H   0  0  0  0  0  0  0  0  0  0  0  0
   -3.1510    1.6900  -22.7840 H   0  0  0  0  0  0  0  0  0  0  0  0
   -2.3760    2.6580  -20.6380 H   0  0  0  0  0  0  0  0  0  0  0  0
   -3.3920    1.8910  -18.5010 H   0  0  0  0  0  0  0  0  0  0  0  0
   -5.0900    0.5790  -17.3160 H   0  0  0  0  0  0  0  0  0  0  0  0
   -7.9110   -1.6250  -19.3520 H   0  0  0  0  0  0  0  0  0  0  0  0
   -7.1000   -2.6380  -21.5840 H   0  0  0  0  0  0  0  0  0  0  0  0
   -6.1790   -1.6040  -22.6540 H   0  0  0  0  0  0  0  0  0  0  0  0
   -8.4020    0.2560  -22.4730 N   0  0  0  0  0  0  0  0  0  0  0  0
   -7.4490    1.1310  -23.2100 C   0  0  0  0  0  0  0  0  0  0  0  0
   -8.0250    2.4010  -23.7710 C   0  0  0  0  0  0  0  0  0  0  0  0
   -9.2690    2.8580  -23.6940 C   0  0  0  0  0  0  0  0  0  0  0  0
   -8.5170    5.4280  -22.8360 C   0  0  0  0  0  0  0  0  0  0  0  0
   -7.9410    4.9860  -21.7360 F   0  0  0  0  0  0  0  0  0  0  0  0
   -9.2790    6.4710  -22.5780 F   0  0  0  0  0  0  0  0  0  0  0  0
   -7.6110    5.7170  -23.7540 F   0  0  0  0  0  0  0  0  0  0  0  0
   -9.5850    1.0270  -22.0280 C   0  0  0  0  0  0  0  0  0  0  0  0
   -9.6020    0.8700  -21.8460 C   0  0  0  0  0  0  0  0  0  0  0  0
  -10.3470    0.5020  -22.8180 H   0  0  0  0  0  0  0  0  0  0  0  0
   -9.8880    0.0290  -20.5430 H   0  0  0  0  0  0  0  0  0  0  0  0
  -10.4960    1.7830  -21.7720 H   0  0  0  0  0  0  0  0  0  0  0  0
   -8.8670    1.8660  -21.5040 H   0  0  0  0  0  0  0  0  0  0  0  0
   -9.4420    3.9390  -23.6980 H   0  0  0  0  0  0  0  0  0  0  0  0
   -7.2460    3.0020  -24.2390 H   0  0  0  0  0  0  0  0  0  0  0  0
  -10.1180    2.2080  -23.6490 H   0  0  0  0  0  0  0  0  0  0  0  0
   -7.0100    0.5510  -24.0170 H   0  0  0  0  0  0  0  0  0  0  0  0
   -6.6460    1.4180  -22.5240 H   0  0  0  0  0  0  0  0  0  0  0  0
  1  2  2  0  0  0  0
  2  3  1  0  0  0  0
  2 22  1  0  0  0  0
  3  4  1  0  0  0  0
  3 20  1  0  0  0  0
  3 21  1  0  0  0  0
  4  5  2  0  0  0  0
  4 13  1  0  0  0  0
  5  6  1  0  0  0  0
  5 19  1  0  0  0  0
  6  7  2  0  0  0  0
  7  8  1  0  0  0  0
  7 18  1  0  0  0  0
  8  9  2  0  0  0  0
  8 13  1  0  0  0  0
  9 10  1  0  0  0  0
  9 17  1  0  0  0  0
 10 11  2  0  0  0  0
 10 16  1  0  0  0  0
 11 12  1  0  0  0  0
 11 15  1  0  0  0  0
 12 13  2  0  0  0  0
 12 14  1  0  0  0  0
 22 23  1  0  0  0  0
 22 31  1  0  0  0  0
 23 24  1  0  0  0  0
 23 39  1  0  0  0  0
 23 40  1  0  0  0  0
 24 25  1  0  0  0  0
 24 37  1  0  0  0  0
 24 38  1  0  0  0  0
 25 26  1  0  0  0  0
 25 30  1  0  0  0  0
 25 36  1  0  0  0  0
 26 27  1  0  0  0  0
 26 28  1  0  0  0  0
 26 29  1  0  0  0  0
 30 31  1  0  0  0  0
 30 34  1  0  0  0  0
 30 35  1  0  0  0  0
 31 32  1  0  0  0  0
 31 33  1  0  0  0  0
M  END
>  <MODEL>
       1

$$$$
