tmp_first_model_4_67.pdb
 OpenBabel08272518513D

 58 63  0  0  1  0  0  0  0  0999 V2000
   -8.3990   -7.1490  -27.5920 C   0  0  0  0  0  0  0  0  0  0  0  0
   -7.8380   -5.8040  -27.2550 C   0  0  0  0  0  0  0  0  0  0  0  0
   -8.5350   -4.5710  -27.3550 C   0  0  0  0  0  0  0  0  0  0  0  0
   -7.6310   -3.6520  -26.9510 C   0  0  0  0  0  0  0  0  0  0  0  0
   -7.7160   -2.1640  -26.8050 C   0  0  0  0  0  0  0  0  0  0  0  0
   -8.5530   -1.7700  -25.6800 N   0  0  0  0  0  0  0  0  0  0  0  0
   -7.9360   -1.2480  -24.4700 C   0  0  0  0  0  0  0  0  0  0  0  0
   -8.7510   -1.5390  -23.1830 C   0  0  2  0  0  0  0  0  0  0  0  0
   -8.1630   -0.6150  -22.0950 C   0  0  0  0  0  0  0  0  0  0  0  0
   -8.2800    0.5930  -22.0300 O   0  0  0  0  0  0  0  0  0  0  0  0
   -7.4250   -1.3830  -21.2200 N   0  0  0  0  0  0  0  0  0  0  0  0
   -6.5260   -0.9180  -20.2310 C   0  0  0  0  0  0  0  0  0  0  0  0
   -6.7520   -1.2610  -18.9240 C   0  0  0  0  0  0  0  0  0  0  0  0
   -5.9090   -1.0050  -17.8960 N   0  0  0  0  0  0  0  0  0  0  0  0
   -4.7880   -0.3890  -18.1760 C   0  0  0  0  0  0  0  0  0  0  0  0
   -4.4380    0.0410  -19.4850 C   0  0  0  0  0  0  0  0  0  0  0  0
   -3.2600    0.7880  -19.7200 C   0  0  0  0  0  0  0  0  0  0  0  0
   -2.9970    1.2880  -20.9670 C   0  0  0  0  0  0  0  0  0  0  0  0
   -3.8490    0.9770  -22.0530 C   0  0  0  0  0  0  0  0  0  0  0  0
   -4.9680    0.2110  -21.8600 C   0  0  0  0  0  0  0  0  0  0  0  0
   -5.3170   -0.2310  -20.5550 C   0  0  0  0  0  0  0  0  0  0  0  0
   -5.5950   -0.0600  -22.7040 H   0  0  0  0  0  0  0  0  0  0  0  0
   -3.6220    1.3680  -23.0400 H   0  0  0  0  0  0  0  0  0  0  0  0
   -2.1370    1.9300  -21.1300 H   0  0  0  0  0  0  0  0  0  0  0  0
   -2.6240    1.0070  -18.8670 H   0  0  0  0  0  0  0  0  0  0  0  0
   -4.0820   -0.2070  -17.3640 H   0  0  0  0  0  0  0  0  0  0  0  0
   -7.6690   -1.7970  -18.6830 H   0  0  0  0  0  0  0  0  0  0  0  0
   -7.3750   -2.7790  -21.5730 C   0  0  0  0  0  0  0  0  0  0  0  0
   -8.5340   -2.9580  -22.5480 C   0  0  2  0  0  0  0  0  0  0  0  0
   -8.2750   -4.1070  -23.5020 C   0  0  0  0  0  0  0  0  0  0  0  0
   -7.3040   -3.9680  -23.9870 H   0  0  0  0  0  0  0  0  0  0  0  0
   -9.0430   -4.1650  -24.2770 H   0  0  0  0  0  0  0  0  0  0  0  0
   -8.2450   -5.0470  -22.9430 H   0  0  0  0  0  0  0  0  0  0  0  0
   -9.4440   -3.1710  -21.9650 H   0  0  0  0  0  0  0  0  0  0  0  0
   -7.4830   -3.3640  -20.6660 H   0  0  0  0  0  0  0  0  0  0  0  0
   -6.4080   -3.0540  -22.0280 H   0  0  0  0  0  0  0  0  0  0  0  0
  -10.2130   -1.2570  -23.4580 C   0  0  0  0  0  0  0  0  0  0  0  0
  -11.0830   -0.9870  -22.3990 C   0  0  0  0  0  0  0  0  0  0  0  0
  -12.4300   -0.8040  -22.6540 C   0  0  0  0  0  0  0  0  0  0  0  0
  -13.2670   -0.5530  -21.6410 F   0  0  0  0  0  0  0  0  0  0  0  0
  -12.9780   -0.8910  -23.9270 C   0  0  0  0  0  0  0  0  0  0  0  0
  -12.1170   -1.1780  -24.9640 C   0  0  0  0  0  0  0  0  0  0  0  0
  -10.7530   -1.3630  -24.7400 C   0  0  0  0  0  0  0  0  0  0  0  0
   -9.9030   -1.7400  -25.9030 C   0  0  0  0  0  0  0  0  0  0  0  0
  -10.3970   -2.0280  -26.9870 O   0  0  0  0  0  0  0  0  0  0  0  0
  -12.4820   -1.2750  -25.9770 H   0  0  0  0  0  0  0  0  0  0  0  0
  -14.0450   -0.7470  -24.0780 H   0  0  0  0  0  0  0  0  0  0  0  0
  -10.7000   -0.9350  -21.3870 H   0  0  0  0  0  0  0  0  0  0  0  0
   -6.9280   -1.6690  -24.3650 H   0  0  0  0  0  0  0  0  0  0  0  0
   -7.8100   -0.1600  -24.5590 H   0  0  0  0  0  0  0  0  0  0  0  0
   -8.1740   -1.7530  -27.7090 H   0  0  0  0  0  0  0  0  0  0  0  0
   -6.7220   -1.7320  -26.6930 H   0  0  0  0  0  0  0  0  0  0  0  0
   -6.4840   -4.2620  -26.6210 O   0  0  0  0  0  0  0  0  0  0  0  0
   -6.6120   -5.6300  -26.8170 N   0  0  0  0  0  0  0  0  0  0  0  0
   -9.5560   -4.4260  -27.6860 H   0  0  0  0  0  0  0  0  0  0  0  0
   -9.4750   -7.1610  -27.3930 H   0  0  0  0  0  0  0  0  0  0  0  0
   -7.9340   -7.9260  -26.9940 H   0  0  0  0  0  0  0  0  0  0  0  0
   -8.2490   -7.3860  -28.6510 H   0  0  0  0  0  0  0  0  0  0  0  0
  1  2  1  0  0  0  0
  1 56  1  0  0  0  0
  1 57  1  0  0  0  0
  1 58  1  0  0  0  0
  2  3  1  0  0  0  0
  2 54  2  0  0  0  0
  3  4  2  0  0  0  0
  3 55  1  0  0  0  0
  4  5  1  0  0  0  0
  4 53  1  0  0  0  0
  5  6  1  0  0  0  0
  5 51  1  0  0  0  0
  5 52  1  0  0  0  0
  6  7  1  0  0  0  0
  6 44  1  0  0  0  0
  7  8  1  0  0  0  0
  7 49  1  0  0  0  0
  7 50  1  0  0  0  0
  8  9  1  1  0  0  0
  8 29  1  0  0  0  0
  8 37  1  0  0  0  0
  9 10  2  0  0  0  0
  9 11  1  0  0  0  0
 11 12  1  0  0  0  0
 11 28  1  0  0  0  0
 12 13  2  0  0  0  0
 12 21  1  0  0  0  0
 13 14  1  0  0  0  0
 13 27  1  0  0  0  0
 14 15  2  0  0  0  0
 15 16  1  0  0  0  0
 15 26  1  0  0  0  0
 16 17  2  0  0  0  0
 16 21  1  0  0  0  0
 17 18  1  0  0  0  0
 17 25  1  0  0  0  0
 18 19  2  0  0  0  0
 18 24  1  0  0  0  0
 19 20  1  0  0  0  0
 19 23  1  0  0  0  0
 20 21  2  0  0  0  0
 20 22  1  0  0  0  0
 28 29  1  0  0  0  0
 28 35  1  0  0  0  0
 28 36  1  0  0  0  0
 29 30  1  0  0  0  0
 29 34  1  1  0  0  0
 30 31  1  0  0  0  0
 30 32  1  0  0  0  0
 30 33  1  0  0  0  0
 37 38  2  0  0  0  0
 37 43  1  0  0  0  0
 38 39  1  0  0  0  0
 38 48  1  0  0  0  0
 39 40  1  0  0  0  0
 39 41  2  0  0  0  0
 41 42  1  0  0  0  0
 41 47  1  0  0  0  0
 42 43  2  0  0  0  0
 42 46  1  0  0  0  0
 43 44  1  0  0  0  0
 44 45  2  0  0  0  0
 53 54  1  0  0  0  0
M  END
>  <MODEL>
       1

$$$$
