tmp_first_model_6_5.pdb
 OpenBabel08272519583D

 58 61  0  0  1  0  0  0  0  0999 V2000
   -5.0900   -3.0650  -22.4360 C   0  0  0  0  0  0  0  0  0  0  0  0
   -6.4080   -3.2410  -22.4110 C   0  0  0  0  0  0  0  0  0  0  0  0
   -7.3910   -2.7890  -21.3690 C   0  0  0  0  0  0  0  0  0  0  0  0
   -7.4260   -1.3420  -21.1990 N   0  0  0  0  0  0  0  0  0  0  0  0
   -8.2480   -0.4590  -21.8860 C   0  0  0  0  0  0  0  0  0  0  0  0
   -8.3610    0.6970  -21.5040 O   0  0  0  0  0  0  0  0  0  0  0  0
   -8.9710   -0.9560  -23.1500 C   0  0  2  0  0  0  0  0  0  0  0  0
   -8.5020   -0.1260  -24.3690 C   0  0  0  0  0  0  0  0  0  0  0  0
   -9.0180    1.2380  -24.3480 N   0  0  0  0  0  0  0  0  0  0  0  0
   -8.1870    2.3050  -24.8570 C   0  0  0  0  0  0  0  0  0  0  0  0
   -7.1590    2.7620  -23.8230 C   0  0  0  0  0  0  0  0  0  0  0  0
   -5.9750    2.4950  -23.9380 O   0  0  0  0  0  0  0  0  0  0  0  0
   -7.6480    3.4990  -22.7880 N   0  0  0  0  0  0  0  0  0  0  0  0
   -6.7470    3.7990  -21.6910 C   0  0  0  0  0  0  0  0  0  0  0  0
   -7.2960    4.3160  -20.9010 H   0  0  0  0  0  0  0  0  0  0  0  0
   -5.9450    4.4530  -22.0440 H   0  0  0  0  0  0  0  0  0  0  0  0
   -6.2980    2.8740  -21.3010 H   0  0  0  0  0  0  0  0  0  0  0  0
   -8.6310    3.4030  -22.5620 H   0  0  0  0  0  0  0  0  0  0  0  0
   -8.8550    3.1300  -25.1160 H   0  0  0  0  0  0  0  0  0  0  0  0
   -7.6550    1.9620  -25.7470 H   0  0  0  0  0  0  0  0  0  0  0  0
  -10.2750    1.5610  -23.9320 C   0  0  0  0  0  0  0  0  0  0  0  0
  -10.7190    2.7030  -24.0110 O   0  0  0  0  0  0  0  0  0  0  0  0
  -11.0720    0.4510  -23.3420 C   0  0  0  0  0  0  0  0  0  0  0  0
  -12.4300    0.6710  -23.1220 C   0  0  0  0  0  0  0  0  0  0  0  0
  -13.2130   -0.3160  -22.5580 C   0  0  0  0  0  0  0  0  0  0  0  0
  -12.6100   -1.5220  -22.2040 C   0  0  0  0  0  0  0  0  0  0  0  0
  -13.5700   -2.7590  -21.4560 Cl  0  0  0  0  0  0  0  0  0  0  0  0
  -11.2560   -1.7450  -22.4070 C   0  0  0  0  0  0  0  0  0  0  0  0
  -10.4690   -0.7550  -22.9890 C   0  0  0  0  0  0  0  0  0  0  0  0
  -10.8150   -2.6910  -22.1090 H   0  0  0  0  0  0  0  0  0  0  0  0
  -14.2720   -0.1540  -22.3770 H   0  0  0  0  0  0  0  0  0  0  0  0
  -12.8360    1.6360  -23.4070 H   0  0  0  0  0  0  0  0  0  0  0  0
   -7.4070   -0.0690  -24.3880 H   0  0  0  0  0  0  0  0  0  0  0  0
   -8.8340   -0.6280  -25.2860 H   0  0  0  0  0  0  0  0  0  0  0  0
   -8.7330   -2.0180  -23.3440 H   0  0  0  0  0  0  0  0  0  0  0  0
   -6.6340   -0.7840  -20.1690 C   0  0  0  0  0  0  0  0  0  0  0  0
   -6.9410   -1.0530  -18.8600 C   0  0  0  0  0  0  0  0  0  0  0  0
   -6.2530   -0.5730  -17.8030 N   0  0  0  0  0  0  0  0  0  0  0  0
   -5.2220    0.1990  -18.0650 C   0  0  0  0  0  0  0  0  0  0  0  0
   -4.7980    0.5560  -19.3760 C   0  0  0  0  0  0  0  0  0  0  0  0
   -3.6580    1.3690  -19.6070 C   0  0  0  0  0  0  0  0  0  0  0  0
   -3.2810    1.6970  -20.8810 C   0  0  0  0  0  0  0  0  0  0  0  0
   -4.0230    1.2320  -21.9860 C   0  0  0  0  0  0  0  0  0  0  0  0
   -5.0970    0.3940  -21.7890 C   0  0  0  0  0  0  0  0  0  0  0  0
   -5.5300    0.0570  -20.4780 C   0  0  0  0  0  0  0  0  0  0  0  0
   -5.6160   -0.0220  -22.6490 H   0  0  0  0  0  0  0  0  0  0  0  0
   -3.7480    1.5270  -22.9930 H   0  0  0  0  0  0  0  0  0  0  0  0
   -2.3980    2.3060  -21.0460 H   0  0  0  0  0  0  0  0  0  0  0  0
   -3.0980    1.7210  -18.7460 H   0  0  0  0  0  0  0  0  0  0  0  0
   -4.6580    0.5800  -17.2140 H   0  0  0  0  0  0  0  0  0  0  0  0
   -7.7960   -1.6850  -18.6290 H   0  0  0  0  0  0  0  0  0  0  0  0
   -8.3540   -3.1810  -21.7010 H   0  0  0  0  0  0  0  0  0  0  0  0
   -7.1110   -3.2100  -20.4030 H   0  0  0  0  0  0  0  0  0  0  0  0
   -7.1550   -3.8830  -23.5620 C   0  0  0  0  0  0  0  0  0  0  0  0
   -8.3960   -3.8720  -23.4610 O   0  0  0  0  0  0  0  0  0  0  0  0
   -6.4570   -4.3210  -24.4970 O   0  5  0  0  0  0  0  0  0  0  0  0
   -4.4690   -3.4510  -23.2420 H   0  0  0  0  0  0  0  0  0  0  0  0
   -4.6230   -2.4780  -21.6480 H   0  0  0  0  0  0  0  0  0  0  0  0
  1  2  2  0  0  0  0
  1 57  1  0  0  0  0
  1 58  1  0  0  0  0
  2  3  1  0  0  0  0
  2 54  1  0  0  0  0
  3  4  1  0  0  0  0
  3 52  1  0  0  0  0
  3 53  1  0  0  0  0
  4  5  1  0  0  0  0
  4 36  1  0  0  0  0
  5  6  2  0  0  0  0
  5  7  1  0  0  0  0
  7  8  1  0  0  0  0
  7 29  1  0  0  0  0
  7 35  1  6  0  0  0
  8  9  1  0  0  0  0
  8 33  1  0  0  0  0
  8 34  1  0  0  0  0
  9 10  1  0  0  0  0
  9 21  1  0  0  0  0
 10 11  1  0  0  0  0
 10 19  1  0  0  0  0
 10 20  1  0  0  0  0
 11 12  2  0  0  0  0
 11 13  1  0  0  0  0
 13 14  1  0  0  0  0
 13 18  1  0  0  0  0
 14 15  1  0  0  0  0
 14 16  1  0  0  0  0
 14 17  1  0  0  0  0
 21 22  2  0  0  0  0
 21 23  1  0  0  0  0
 23 24  2  0  0  0  0
 23 29  1  0  0  0  0
 24 25  1  0  0  0  0
 24 32  1  0  0  0  0
 25 26  2  0  0  0  0
 25 31  1  0  0  0  0
 26 27  1  0  0  0  0
 26 28  1  0  0  0  0
 28 29  2  0  0  0  0
 28 30  1  0  0  0  0
 36 37  2  0  0  0  0
 36 45  1  0  0  0  0
 37 38  1  0  0  0  0
 37 51  1  0  0  0  0
 38 39  2  0  0  0  0
 39 40  1  0  0  0  0
 39 50  1  0  0  0  0
 40 41  2  0  0  0  0
 40 45  1  0  0  0  0
 41 42  1  0  0  0  0
 41 49  1  0  0  0  0
 42 43  2  0  0  0  0
 42 48  1  0  0  0  0
 43 44  1  0  0  0  0
 43 47  1  0  0  0  0
 44 45  2  0  0  0  0
 44 46  1  0  0  0  0
 54 55  2  0  0  0  0
 54 56  1  0  0  0  0
M  CHG  1  56  -1
M  END
>  <MODEL>
       1

$$$$
