tmp_first_model_18_55.pdb
 OpenBabel08282502533D

 61 66  0  0  1  0  0  0  0  0999 V2000
   -8.1160   -6.3800  -23.6840 C   0  0  0  0  0  0  0  0  0  0  0  0
   -8.3220   -5.2840  -22.8360 O   0  0  0  0  0  0  0  0  0  0  0  0
   -8.3430   -4.0670  -23.5310 C   0  0  0  0  0  0  0  0  0  0  0  0
   -8.5320   -2.9430  -22.5320 C   0  0  1  0  0  0  0  0  0  0  0  0
   -7.3640   -2.7500  -21.5630 C   0  0  0  0  0  0  0  0  0  0  0  0
   -7.4480   -1.3460  -21.2260 N   0  0  0  0  0  0  0  0  0  0  0  0
   -6.6380   -0.7880  -20.2110 C   0  0  0  0  0  0  0  0  0  0  0  0
   -6.9250   -1.0650  -18.8980 C   0  0  0  0  0  0  0  0  0  0  0  0
   -6.2430   -0.5740  -17.8340 N   0  0  0  0  0  0  0  0  0  0  0  0
   -5.2180    0.2020  -18.0990 C   0  0  0  0  0  0  0  0  0  0  0  0
   -4.7750    0.5230  -19.4140 C   0  0  0  0  0  0  0  0  0  0  0  0
   -3.6370    1.3430  -19.6270 C   0  0  0  0  0  0  0  0  0  0  0  0
   -3.2020    1.6100  -20.8940 C   0  0  0  0  0  0  0  0  0  0  0  0
   -3.8760    1.0610  -22.0080 C   0  0  0  0  0  0  0  0  0  0  0  0
   -4.9860    0.2740  -21.8300 C   0  0  0  0  0  0  0  0  0  0  0  0
   -5.4810   -0.0000  -20.5200 C   0  0  0  0  0  0  0  0  0  0  0  0
   -5.4820   -0.1460  -22.7020 H   0  0  0  0  0  0  0  0  0  0  0  0
   -3.5080    1.2660  -23.0090 H   0  0  0  0  0  0  0  0  0  0  0  0
   -2.3350    2.2420  -21.0520 H   0  0  0  0  0  0  0  0  0  0  0  0
   -3.1320    1.7500  -18.7550 H   0  0  0  0  0  0  0  0  0  0  0  0
   -4.6650    0.6080  -17.2530 H   0  0  0  0  0  0  0  0  0  0  0  0
   -7.7740   -1.7070  -18.6690 H   0  0  0  0  0  0  0  0  0  0  0  0
   -8.2460   -0.5980  -22.0730 C   0  0  0  0  0  0  0  0  0  0  0  0
   -8.4300    0.5910  -21.9590 O   0  0  0  0  0  0  0  0  0  0  0  0
   -8.7760   -1.5580  -23.1750 C   0  0  1  0  0  0  0  0  0  0  0  0
   -7.9330   -1.3660  -24.4510 C   0  0  0  0  0  0  0  0  0  0  0  0
   -8.1860   -0.0600  -25.0180 N   0  0  0  0  0  0  0  0  0  0  0  0
   -7.0730    0.6720  -25.5800 C   0  0  0  0  0  0  0  0  0  0  0  0
   -6.6130    0.1020  -26.8870 C   0  0  0  0  0  0  0  0  0  0  0  0
   -5.7140   -0.8670  -27.1800 C   0  0  0  0  0  0  0  0  0  0  0  0
   -5.7060   -1.0010  -28.5560 N   0  3  0  0  0  0  0  0  0  0  0  0
   -6.5880   -0.1400  -29.0800 C   0  0  0  0  0  0  0  0  0  0  0  0
   -7.1710    0.5320  -28.0770 N   0  0  0  0  0  0  0  0  0  0  0  0
   -7.9580    1.1800  -28.1230 H   0  0  0  0  0  0  0  0  0  0  0  0
   -6.7470    0.0180  -30.1330 H   0  0  0  0  0  0  0  0  0  0  0  0
   -5.1520   -1.6790  -29.0640 H   0  0  0  0  0  0  0  0  0  0  0  0
   -5.0770   -1.4850  -26.5540 H   0  0  0  0  0  0  0  0  0  0  0  0
   -6.2670    0.6640  -24.8370 H   0  0  0  0  0  0  0  0  0  0  0  0
   -7.4080    1.7070  -25.7050 H   0  0  0  0  0  0  0  0  0  0  0  0
   -9.4480    0.2660  -25.4210 C   0  0  0  0  0  0  0  0  0  0  0  0
   -9.6690    1.0790  -26.3150 O   0  0  0  0  0  0  0  0  0  0  0  0
  -10.5200   -0.4280  -24.6460 C   0  0  0  0  0  0  0  0  0  0  0  0
  -11.8400   -0.1130  -24.9580 C   0  0  0  0  0  0  0  0  0  0  0  0
  -12.8750   -0.5740  -24.1710 C   0  0  0  0  0  0  0  0  0  0  0  0
  -12.5610   -1.4030  -23.0960 C   0  0  0  0  0  0  0  0  0  0  0  0
  -13.8180   -1.9380  -22.0260 Cl  0  0  0  0  0  0  0  0  0  0  0  0
  -11.2680   -1.8050  -22.8250 C   0  0  0  0  0  0  0  0  0  0  0  0
  -10.2100   -1.2880  -23.5790 C   0  0  0  0  0  0  0  0  0  0  0  0
  -11.1150   -2.5390  -22.0440 H   0  0  0  0  0  0  0  0  0  0  0  0
  -13.9030   -0.2960  -24.3700 H   0  0  0  0  0  0  0  0  0  0  0  0
  -12.0130    0.4960  -25.8360 H   0  0  0  0  0  0  0  0  0  0  0  0
   -6.8640   -1.4630  -24.2380 H   0  0  0  0  0  0  0  0  0  0  0  0
   -8.1950   -2.1540  -25.1730 H   0  0  0  0  0  0  0  0  0  0  0  0
   -7.4770   -3.3440  -20.6610 H   0  0  0  0  0  0  0  0  0  0  0  0
   -6.3950   -3.0140  -22.0100 H   0  0  0  0  0  0  0  0  0  0  0  0
   -9.3970   -3.2040  -21.9230 H   0  0  0  0  0  0  0  0  0  0  0  0
   -9.1600   -4.0470  -24.2730 H   0  0  0  0  0  0  0  0  0  0  0  0
   -7.4030   -3.9160  -24.0880 H   0  0  0  0  0  0  0  0  0  0  0  0
   -7.1440   -6.3220  -24.1960 H   0  0  0  0  0  0  0  0  0  0  0  0
   -8.9020   -6.4610  -24.4500 H   0  0  0  0  0  0  0  0  0  0  0  0
   -8.1340   -7.2790  -23.0670 H   0  0  0  0  0  0  0  0  0  0  0  0
  1  2  1  0  0  0  0
  1 59  1  0  0  0  0
  1 60  1  0  0  0  0
  1 61  1  0  0  0  0
  2  3  1  0  0  0  0
  3  4  1  0  0  0  0
  3 57  1  0  0  0  0
  3 58  1  0  0  0  0
  4  5  1  0  0  0  0
  4 25  1  0  0  0  0
  4 56  1  1  0  0  0
  5  6  1  0  0  0  0
  5 54  1  0  0  0  0
  5 55  1  0  0  0  0
  6  7  1  0  0  0  0
  6 23  1  0  0  0  0
  7  8  2  0  0  0  0
  7 16  1  0  0  0  0
  8  9  1  0  0  0  0
  8 22  1  0  0  0  0
  9 10  2  0  0  0  0
 10 11  1  0  0  0  0
 10 21  1  0  0  0  0
 11 12  2  0  0  0  0
 11 16  1  0  0  0  0
 12 13  1  0  0  0  0
 12 20  1  0  0  0  0
 13 14  2  0  0  0  0
 13 19  1  0  0  0  0
 14 15  1  0  0  0  0
 14 18  1  0  0  0  0
 15 16  2  0  0  0  0
 15 17  1  0  0  0  0
 23 24  2  0  0  0  0
 25 23  1  1  0  0  0
 25 26  1  0  0  0  0
 25 48  1  0  0  0  0
 26 27  1  0  0  0  0
 26 52  1  0  0  0  0
 26 53  1  0  0  0  0
 27 28  1  0  0  0  0
 27 40  1  0  0  0  0
 28 29  1  0  0  0  0
 28 38  1  0  0  0  0
 28 39  1  0  0  0  0
 29 30  2  0  0  0  0
 29 33  1  0  0  0  0
 30 31  1  0  0  0  0
 30 37  1  0  0  0  0
 31 32  2  0  0  0  0
 31 36  1  0  0  0  0
 32 33  1  0  0  0  0
 32 35  1  0  0  0  0
 33 34  1  0  0  0  0
 40 41  2  0  0  0  0
 40 42  1  0  0  0  0
 42 43  2  0  0  0  0
 42 48  1  0  0  0  0
 43 44  1  0  0  0  0
 43 51  1  0  0  0  0
 44 45  2  0  0  0  0
 44 50  1  0  0  0  0
 45 46  1  0  0  0  0
 45 47  1  0  0  0  0
 47 48  2  0  0  0  0
 47 49  1  0  0  0  0
M  CHG  1  31   1
M  END
>  <MODEL>
       1

$$$$
