tmp_first_model_7_75.pdb
 OpenBabel08272520323D

 66 71  0  0  1  0  0  0  0  0999 V2000
   -7.4760    3.3240  -21.9210 C   0  0  0  0  0  0  0  0  0  0  0  0
   -8.5450    2.8170  -22.7610 N   0  0  0  0  0  0  0  0  0  0  0  0
   -8.2080    2.0440  -23.8220 C   0  0  0  0  0  0  0  0  0  0  0  0
   -7.0420    1.7750  -24.0770 O   0  0  0  0  0  0  0  0  0  0  0  0
   -9.3720    1.4890  -24.6490 C   0  0  0  0  0  0  0  0  0  0  0  0
   -9.9070    0.3110  -23.9950 N   0  0  0  0  0  0  0  0  0  0  0  0
   -9.1330   -0.9220  -24.0270 C   0  0  0  0  0  0  0  0  0  0  0  0
   -9.2780   -1.7200  -22.7020 C   0  0  2  0  0  0  0  0  0  0  0  0
   -8.6620   -0.8730  -21.5490 C   0  0  0  0  0  0  0  0  0  0  0  0
   -9.1400    0.1110  -21.0200 O   0  0  0  0  0  0  0  0  0  0  0  0
   -7.4430   -1.4090  -21.2090 N   0  0  0  0  0  0  0  0  0  0  0  0
   -6.6390   -0.8210  -20.2000 C   0  0  0  0  0  0  0  0  0  0  0  0
   -6.9470   -1.0470  -18.8810 C   0  0  0  0  0  0  0  0  0  0  0  0
   -6.2290   -0.5710  -17.8370 N   0  0  0  0  0  0  0  0  0  0  0  0
   -5.1860    0.1730  -18.1060 C   0  0  0  0  0  0  0  0  0  0  0  0
   -4.7560    0.4940  -19.4230 C   0  0  0  0  0  0  0  0  0  0  0  0
   -3.6310    1.3280  -19.6550 C   0  0  0  0  0  0  0  0  0  0  0  0
   -3.2560    1.6470  -20.9300 C   0  0  0  0  0  0  0  0  0  0  0  0
   -3.9940    1.1550  -22.0290 C   0  0  0  0  0  0  0  0  0  0  0  0
   -5.0940    0.3500  -21.8330 C   0  0  0  0  0  0  0  0  0  0  0  0
   -5.5020   -0.0100  -20.5180 C   0  0  0  0  0  0  0  0  0  0  0  0
   -5.6780    0.0220  -22.6880 H   0  0  0  0  0  0  0  0  0  0  0  0
   -3.6980    1.4260  -23.0380 H   0  0  0  0  0  0  0  0  0  0  0  0
   -2.4010    2.2970  -21.1030 H   0  0  0  0  0  0  0  0  0  0  0  0
   -3.1000    1.7230  -18.7930 H   0  0  0  0  0  0  0  0  0  0  0  0
   -4.6200    0.5670  -17.2600 H   0  0  0  0  0  0  0  0  0  0  0  0
   -7.8140   -1.6530  -18.6290 H   0  0  0  0  0  0  0  0  0  0  0  0
   -7.0710   -2.5680  -21.9880 C   0  0  0  0  0  0  0  0  0  0  0  0
   -8.3780   -2.9910  -22.6810 C   0  0  2  0  0  0  0  0  0  0  0  0
   -8.0410   -3.7030  -23.9990 C   0  0  0  0  0  0  0  0  0  0  0  0
   -9.2190   -4.1520  -24.6950 N   0  0  0  0  0  0  0  0  0  0  0  0
   -9.2390   -4.8070  -25.9000 C   0  0  0  0  0  0  0  0  0  0  0  0
   -8.0810   -5.2420  -26.5830 C   0  0  0  0  0  0  0  0  0  0  0  0
   -8.1510   -5.9430  -27.7070 N   0  0  0  0  0  0  0  0  0  0  0  0
   -9.3650   -6.2140  -28.1990 C   0  0  0  0  0  0  0  0  0  0  0  0
  -10.4990   -5.7350  -27.5670 C   0  0  0  0  0  0  0  0  0  0  0  0
  -10.4340   -5.0420  -26.4350 N   0  0  0  0  0  0  0  0  0  0  0  0
  -11.4940   -5.8980  -27.9790 H   0  0  0  0  0  0  0  0  0  0  0  0
   -9.4340   -6.8230  -29.0990 H   0  0  0  0  0  0  0  0  0  0  0  0
   -7.0870   -5.0270  -26.2000 H   0  0  0  0  0  0  0  0  0  0  0  0
  -10.1260   -3.9050  -24.3210 H   0  0  0  0  0  0  0  0  0  0  0  0
   -7.3960   -4.5630  -23.7700 H   0  0  0  0  0  0  0  0  0  0  0  0
   -7.4420   -3.0280  -24.6310 H   0  0  0  0  0  0  0  0  0  0  0  0
   -8.8800   -3.7100  -22.0300 H   0  0  0  0  0  0  0  0  0  0  0  0
   -6.2980   -2.3130  -22.7280 H   0  0  0  0  0  0  0  0  0  0  0  0
   -6.6650   -3.3620  -21.3510 H   0  0  0  0  0  0  0  0  0  0  0  0
  -10.7710   -1.9190  -22.4500 C   0  0  0  0  0  0  0  0  0  0  0  0
  -11.3180   -3.0110  -21.7610 C   0  0  0  0  0  0  0  0  0  0  0  0
  -12.6740   -3.0350  -21.4660 C   0  0  0  0  0  0  0  0  0  0  0  0
  -13.3330   -4.2260  -20.3850 Cl  0  0  0  0  0  0  0  0  0  0  0  0
  -13.5390   -2.0460  -21.9270 C   0  0  0  0  0  0  0  0  0  0  0  0
  -13.0060   -0.9450  -22.5620 C   0  0  0  0  0  0  0  0  0  0  0  0
  -11.6360   -0.8650  -22.7890 C   0  0  0  0  0  0  0  0  0  0  0  0
  -11.0920    0.4200  -23.3350 C   0  0  0  0  0  0  0  0  0  0  0  0
  -11.6770    1.4910  -23.2160 O   0  0  0  0  0  0  0  0  0  0  0  0
  -13.6360   -0.1170  -22.8710 H   0  0  0  0  0  0  0  0  0  0  0  0
  -14.6050   -2.1540  -21.7650 H   0  0  0  0  0  0  0  0  0  0  0  0
  -10.7090   -3.8380  -21.4140 H   0  0  0  0  0  0  0  0  0  0  0  0
   -8.0800   -0.6710  -24.1830 H   0  0  0  0  0  0  0  0  0  0  0  0
   -9.4660   -1.5330  -24.8730 H   0  0  0  0  0  0  0  0  0  0  0  0
  -10.1800    2.2170  -24.7570 H   0  0  0  0  0  0  0  0  0  0  0  0
   -9.0030    1.2380  -25.6480 H   0  0  0  0  0  0  0  0  0  0  0  0
   -9.4760    2.7690  -22.3770 H   0  0  0  0  0  0  0  0  0  0  0  0
   -7.8830    3.9930  -21.1600 H   0  0  0  0  0  0  0  0  0  0  0  0
   -6.9230    2.4880  -21.4700 H   0  0  0  0  0  0  0  0  0  0  0  0
   -6.7730    3.8960  -22.5300 H   0  0  0  0  0  0  0  0  0  0  0  0
  1  2  1  0  0  0  0
  1 64  1  0  0  0  0
  1 65  1  0  0  0  0
  1 66  1  0  0  0  0
  2  3  1  0  0  0  0
  2 63  1  0  0  0  0
  3  4  2  0  0  0  0
  3  5  1  0  0  0  0
  5  6  1  0  0  0  0
  5 61  1  0  0  0  0
  5 62  1  0  0  0  0
  6  7  1  0  0  0  0
  6 54  1  0  0  0  0
  7  8  1  0  0  0  0
  7 59  1  0  0  0  0
  7 60  1  0  0  0  0
  8  9  1  1  0  0  0
  8 29  1  0  0  0  0
  8 47  1  0  0  0  0
  9 10  2  0  0  0  0
  9 11  1  0  0  0  0
 11 12  1  0  0  0  0
 11 28  1  0  0  0  0
 12 13  2  0  0  0  0
 12 21  1  0  0  0  0
 13 14  1  0  0  0  0
 13 27  1  0  0  0  0
 14 15  2  0  0  0  0
 15 16  1  0  0  0  0
 15 26  1  0  0  0  0
 16 17  2  0  0  0  0
 16 21  1  0  0  0  0
 17 18  1  0  0  0  0
 17 25  1  0  0  0  0
 18 19  2  0  0  0  0
 18 24  1  0  0  0  0
 19 20  1  0  0  0  0
 19 23  1  0  0  0  0
 20 21  2  0  0  0  0
 20 22  1  0  0  0  0
 28 29  1  0  0  0  0
 28 45  1  0  0  0  0
 28 46  1  0  0  0  0
 29 30  1  0  0  0  0
 29 44  1  1  0  0  0
 30 31  1  0  0  0  0
 30 42  1  0  0  0  0
 30 43  1  0  0  0  0
 31 32  1  0  0  0  0
 31 41  1  0  0  0  0
 32 33  2  0  0  0  0
 32 37  1  0  0  0  0
 33 34  1  0  0  0  0
 33 40  1  0  0  0  0
 34 35  2  0  0  0  0
 35 36  1  0  0  0  0
 35 39  1  0  0  0  0
 36 37  2  0  0  0  0
 36 38  1  0  0  0  0
 47 48  2  0  0  0  0
 47 53  1  0  0  0  0
 48 49  1  0  0  0  0
 48 58  1  0  0  0  0
 49 50  1  0  0  0  0
 49 51  2  0  0  0  0
 51 52  1  0  0  0  0
 51 57  1  0  0  0  0
 52 53  2  0  0  0  0
 52 56  1  0  0  0  0
 53 54  1  0  0  0  0
 54 55  2  0  0  0  0
M  END
>  <MODEL>
       1

$$$$
