tmp_first_model_20_39.pdb
 OpenBabel08282503553D

 40 44  0  0  1  0  0  0  0  0999 V2000
   -8.0660   -5.5660  -25.2280 C   0  0  0  0  0  0  0  0  0  0  0  0
   -9.3170   -4.6940  -25.1780 C   0  0  0  0  0  0  0  0  0  0  0  0
  -10.4410   -5.1390  -25.3580 O   0  0  0  0  0  0  0  0  0  0  0  0
   -9.1240   -3.3690  -24.9090 N   0  0  0  0  0  0  0  0  0  0  0  0
  -10.2560   -2.4710  -24.6000 C   0  0  0  0  0  0  0  0  0  0  0  0
   -9.5390   -1.2720  -23.9810 C   0  0  2  0  0  0  0  0  0  0  0  0
   -8.2900   -1.2160  -24.8840 C   0  0  0  0  0  0  0  0  0  0  0  0
   -7.8860   -2.6750  -24.5180 C   0  0  1  0  0  0  0  0  0  0  0  0
   -7.8730   -2.5270  -23.0530 C   0  0  0  0  0  0  0  0  0  0  0  0
   -6.8410   -2.3970  -22.0790 C   0  0  0  0  0  0  0  0  0  0  0  0
   -5.7370   -2.8890  -22.0260 O   0  5  0  0  0  0  0  0  0  0  0  0
   -7.3610   -1.4510  -21.1580 N   0  0  0  0  0  0  0  0  0  0  0  0
   -6.5780   -0.8280  -20.1570 C   0  0  0  0  0  0  0  0  0  0  0  0
   -6.8970   -1.0460  -18.8420 C   0  0  0  0  0  0  0  0  0  0  0  0
   -6.2050   -0.5310  -17.7970 N   0  0  0  0  0  0  0  0  0  0  0  0
   -5.1640    0.2130  -18.0740 C   0  0  0  0  0  0  0  0  0  0  0  0
   -4.7250    0.5270  -19.3920 C   0  0  0  0  0  0  0  0  0  0  0  0
   -3.5970    1.3600  -19.6290 C   0  0  0  0  0  0  0  0  0  0  0  0
   -3.2130    1.6650  -20.9050 C   0  0  0  0  0  0  0  0  0  0  0  0
   -3.9450    1.1550  -22.0020 C   0  0  0  0  0  0  0  0  0  0  0  0
   -5.0410    0.3530  -21.7980 C   0  0  0  0  0  0  0  0  0  0  0  0
   -5.4540    0.0000  -20.4800 C   0  0  0  0  0  0  0  0  0  0  0  0
   -5.5980   -0.0120  -22.6550 H   0  0  0  0  0  0  0  0  0  0  0  0
   -3.6440    1.4080  -23.0150 H   0  0  0  0  0  0  0  0  0  0  0  0
   -2.3600    2.3150  -21.0880 H   0  0  0  0  0  0  0  0  0  0  0  0
   -3.0630    1.7570  -18.7710 H   0  0  0  0  0  0  0  0  0  0  0  0
   -4.6130    0.6130  -17.2230 H   0  0  0  0  0  0  0  0  0  0  0  0
   -7.7490   -1.6720  -18.5910 H   0  0  0  0  0  0  0  0  0  0  0  0
   -8.6080   -0.9580  -21.5730 C   0  0  0  0  0  0  0  0  0  0  0  0
   -9.2250   -0.0540  -21.0660 O   0  0  0  0  0  0  0  0  0  0  0  0
   -8.9220   -1.7040  -22.7050 N   0  0  0  0  0  0  0  0  0  0  0  0
   -6.9900   -3.1090  -24.9700 H   0  0  0  0  0  0  0  0  0  0  0  0
   -7.5730   -0.4960  -24.4980 H   0  0  0  0  0  0  0  0  0  0  0  0
   -8.4930   -1.0520  -25.9450 H   0  0  0  0  0  0  0  0  0  0  0  0
  -10.1470   -0.3910  -23.8300 H   0  0  0  0  0  0  0  0  0  0  0  0
  -10.9790   -2.9600  -23.9400 H   0  0  0  0  0  0  0  0  0  0  0  0
  -10.7440   -2.1520  -25.5280 H   0  0  0  0  0  0  0  0  0  0  0  0
   -8.3940   -6.5910  -25.4060 H   0  0  0  0  0  0  0  0  0  0  0  0
   -7.4930   -5.5250  -24.2920 H   0  0  0  0  0  0  0  0  0  0  0  0
   -7.3780   -5.2570  -26.0250 H   0  0  0  0  0  0  0  0  0  0  0  0
  1  2  1  0  0  0  0
  1 38  1  0  0  0  0
  1 39  1  0  0  0  0
  1 40  1  0  0  0  0
  2  3  2  0  0  0  0
  2  4  1  0  0  0  0
  4  5  1  0  0  0  0
  4  8  1  0  0  0  0
  5  6  1  0  0  0  0
  5 36  1  0  0  0  0
  5 37  1  0  0  0  0
  6  7  1  0  0  0  0
  6 31  1  0  0  0  0
  6 35  1  1  0  0  0
  7  8  1  0  0  0  0
  7 33  1  0  0  0  0
  7 34  1  0  0  0  0
  8  9  1  0  0  0  0
  8 32  1  6  0  0  0
  9 10  2  0  0  0  0
  9 31  1  0  0  0  0
 10 11  1  0  0  0  0
 10 12  1  0  0  0  0
 12 13  1  0  0  0  0
 12 29  1  0  0  0  0
 13 14  2  0  0  0  0
 13 22  1  0  0  0  0
 14 15  1  0  0  0  0
 14 28  1  0  0  0  0
 15 16  2  0  0  0  0
 16 17  1  0  0  0  0
 16 27  1  0  0  0  0
 17 18  2  0  0  0  0
 17 22  1  0  0  0  0
 18 19  1  0  0  0  0
 18 26  1  0  0  0  0
 19 20  2  0  0  0  0
 19 25  1  0  0  0  0
 20 21  1  0  0  0  0
 20 24  1  0  0  0  0
 21 22  2  0  0  0  0
 21 23  1  0  0  0  0
 29 30  2  0  0  0  0
 29 31  1  0  0  0  0
M  CHG  1  11  -1
M  END
>  <MODEL>
       1

$$$$
