tmp_first_model_18_24.pdb
 OpenBabel08282502533D

 65 70  0  0  1  0  0  0  0  0999 V2000
   -6.1630   -8.0310  -25.2620 O   0  0  0  0  0  0  0  0  0  0  0  0
   -6.0300   -7.3520  -24.2550 C   0  0  0  0  0  0  0  0  0  0  0  0
   -7.1860   -6.5950  -23.5930 C   0  0  0  0  0  0  0  0  0  0  0  0
   -7.0860   -5.1010  -23.7860 N   0  3  1  0  0  0  0  0  0  0  0  0
   -7.2680   -4.7530  -25.2790 C   0  0  0  0  0  0  0  0  0  0  0  0
   -7.2100   -3.2680  -25.5140 C   0  0  0  0  0  0  0  0  0  0  0  0
   -6.8450   -2.7850  -26.7690 C   0  0  0  0  0  0  0  0  0  0  0  0
   -6.7770   -1.4250  -27.0360 C   0  0  0  0  0  0  0  0  0  0  0  0
   -7.0850   -0.5320  -26.0160 C   0  0  0  0  0  0  0  0  0  0  0  0
   -6.9900    1.1820  -26.3170 Cl  0  0  0  0  0  0  0  0  0  0  0  0
   -7.4670   -0.9860  -24.7630 C   0  0  0  0  0  0  0  0  0  0  0  0
   -7.5450   -2.3610  -24.5050 C   0  0  0  0  0  0  0  0  0  0  0  0
   -7.9440   -2.8150  -23.1130 C   0  0  2  0  0  0  0  0  0  0  0  0
   -9.1880   -2.0940  -22.5690 C   0  0  0  0  0  0  0  0  0  0  0  0
   -8.7210   -1.1430  -21.4590 C   0  0  0  0  0  0  0  0  0  0  0  0
   -7.3210   -1.4880  -21.2380 N   0  0  0  0  0  0  0  0  0  0  0  0
   -6.5540   -0.8870  -20.1970 C   0  0  0  0  0  0  0  0  0  0  0  0
   -6.8940   -1.0640  -18.8770 C   0  0  0  0  0  0  0  0  0  0  0  0
   -6.2170   -0.5400  -17.8230 N   0  0  0  0  0  0  0  0  0  0  0  0
   -5.1770    0.2140  -18.0870 C   0  0  0  0  0  0  0  0  0  0  0  0
   -4.7350    0.5210  -19.4030 C   0  0  0  0  0  0  0  0  0  0  0  0
   -3.6130    1.3640  -19.6340 C   0  0  0  0  0  0  0  0  0  0  0  0
   -3.2270    1.6680  -20.9090 C   0  0  0  0  0  0  0  0  0  0  0  0
   -3.9500    1.1540  -22.0080 C   0  0  0  0  0  0  0  0  0  0  0  0
   -5.0340    0.3350  -21.8160 C   0  0  0  0  0  0  0  0  0  0  0  0
   -5.4460   -0.0240  -20.5010 C   0  0  0  0  0  0  0  0  0  0  0  0
   -5.5790   -0.0470  -22.6770 H   0  0  0  0  0  0  0  0  0  0  0  0
   -3.6410    1.4040  -23.0190 H   0  0  0  0  0  0  0  0  0  0  0  0
   -2.3710    2.3140  -21.0860 H   0  0  0  0  0  0  0  0  0  0  0  0
   -3.0830    1.7620  -18.7710 H   0  0  0  0  0  0  0  0  0  0  0  0
   -4.6280    0.6190  -17.2350 H   0  0  0  0  0  0  0  0  0  0  0  0
   -7.7500   -1.6800  -18.6010 H   0  0  0  0  0  0  0  0  0  0  0  0
   -6.8400   -2.4380  -22.1170 C   0  0  0  0  0  0  0  0  0  0  0  0
   -5.7440   -2.9700  -22.1250 O   0  0  0  0  0  0  0  0  0  0  0  0
   -9.2970   -1.3410  -20.5610 H   0  0  0  0  0  0  0  0  0  0  0  0
   -8.8490   -0.0800  -21.7140 H   0  0  0  0  0  0  0  0  0  0  0  0
   -9.8630   -2.8390  -22.1360 H   0  0  0  0  0  0  0  0  0  0  0  0
   -9.7510   -1.5830  -23.3540 H   0  0  0  0  0  0  0  0  0  0  0  0
   -8.1500   -4.3370  -23.0170 C   0  0  0  0  0  0  0  0  0  0  0  0
   -8.1290   -4.6160  -21.9610 H   0  0  0  0  0  0  0  0  0  0  0  0
   -9.1300   -4.5930  -23.4290 H   0  0  0  0  0  0  0  0  0  0  0  0
   -7.7010   -0.2560  -23.9900 H   0  0  0  0  0  0  0  0  0  0  0  0
   -6.4840   -1.0500  -28.0120 H   0  0  0  0  0  0  0  0  0  0  0  0
   -6.5990   -3.4920  -27.5560 H   0  0  0  0  0  0  0  0  0  0  0  0
   -6.5070   -5.2720  -25.8620 H   0  0  0  0  0  0  0  0  0  0  0  0
   -8.2370   -5.1560  -25.6010 H   0  0  0  0  0  0  0  0  0  0  0  0
   -6.1650   -4.7190  -23.4580 H   0  0  0  0  0  0  0  0  0  0  0  0
   -7.2470   -6.8050  -22.5200 H   0  0  0  0  0  0  0  0  0  0  0  0
   -8.1080   -6.9640  -24.0500 H   0  0  0  0  0  0  0  0  0  0  0  0
   -4.8270   -7.1920  -23.6460 N   0  0  0  0  0  0  0  0  0  0  0  0
   -3.6680   -7.8680  -24.2080 C   0  0  0  0  0  0  0  0  0  0  0  0
   -2.4040   -7.5800  -23.4070 C   0  0  1  0  0  0  0  0  0  0  0  0
   -1.0880   -8.0430  -24.0960 C   0  0  0  0  0  0  0  0  0  0  0  0
   -0.6190   -6.5770  -24.2030 C   0  0  1  0  0  0  0  0  0  0  0  0
   -0.5030   -6.1210  -25.5100 F   0  0  0  0  0  0  0  0  0  0  0  0
   -1.9110   -6.1090  -23.5050 C   0  0  0  0  0  0  0  0  0  0  0  0
   -1.7830   -5.5680  -22.5590 H   0  0  0  0  0  0  0  0  0  0  0  0
   -2.5450   -5.5170  -24.1710 H   0  0  0  0  0  0  0  0  0  0  0  0
    0.3320   -6.3280  -23.7170 H   0  0  0  0  0  0  0  0  0  0  0  0
   -1.2210   -8.5290  -25.0700 H   0  0  0  0  0  0  0  0  0  0  0  0
   -0.4520   -8.6950  -23.4900 H   0  0  0  0  0  0  0  0  0  0  0  0
   -2.5380   -7.9490  -22.3770 H   0  0  0  0  0  0  0  0  0  0  0  0
   -3.5550   -7.5230  -25.2480 H   0  0  0  0  0  0  0  0  0  0  0  0
   -3.8690   -8.9470  -24.2640 H   0  0  0  0  0  0  0  0  0  0  0  0
   -4.7910   -6.7080  -22.7620 H   0  0  0  0  0  0  0  0  0  0  0  0
  1  2  2  0  0  0  0
  2  3  1  0  0  0  0
  2 50  1  0  0  0  0
  3  4  1  0  0  0  0
  3 48  1  0  0  0  0
  3 49  1  0  0  0  0
  4  5  1  0  0  0  0
  4 39  1  0  0  0  0
  4 47  1  1  0  0  0
  5  6  1  0  0  0  0
  5 45  1  0  0  0  0
  5 46  1  0  0  0  0
  6  7  2  0  0  0  0
  6 12  1  0  0  0  0
  7  8  1  0  0  0  0
  7 44  1  0  0  0  0
  8  9  2  0  0  0  0
  8 43  1  0  0  0  0
  9 10  1  0  0  0  0
  9 11  1  0  0  0  0
 11 12  2  0  0  0  0
 11 42  1  0  0  0  0
 13 12  1  6  0  0  0
 13 14  1  0  0  0  0
 13 33  1  0  0  0  0
 13 39  1  0  0  0  0
 14 15  1  0  0  0  0
 14 37  1  0  0  0  0
 14 38  1  0  0  0  0
 15 16  1  0  0  0  0
 15 35  1  0  0  0  0
 15 36  1  0  0  0  0
 16 17  1  0  0  0  0
 16 33  1  0  0  0  0
 17 18  2  0  0  0  0
 17 26  1  0  0  0  0
 18 19  1  0  0  0  0
 18 32  1  0  0  0  0
 19 20  2  0  0  0  0
 20 21  1  0  0  0  0
 20 31  1  0  0  0  0
 21 22  2  0  0  0  0
 21 26  1  0  0  0  0
 22 23  1  0  0  0  0
 22 30  1  0  0  0  0
 23 24  2  0  0  0  0
 23 29  1  0  0  0  0
 24 25  1  0  0  0  0
 24 28  1  0  0  0  0
 25 26  2  0  0  0  0
 25 27  1  0  0  0  0
 33 34  2  0  0  0  0
 39 40  1  0  0  0  0
 39 41  1  0  0  0  0
 50 51  1  0  0  0  0
 50 65  1  0  0  0  0
 51 52  1  0  0  0  0
 51 63  1  0  0  0  0
 51 64  1  0  0  0  0
 52 53  1  0  0  0  0
 52 56  1  0  0  0  0
 52 62  1  1  0  0  0
 53 54  1  0  0  0  0
 53 60  1  0  0  0  0
 53 61  1  0  0  0  0
 54 55  1  0  0  0  0
 54 56  1  0  0  0  0
 54 59  1  1  0  0  0
 56 57  1  0  0  0  0
 56 58  1  0  0  0  0
M  CHG  1   4   1
M  END
>  <MODEL>
       1

$$$$
