tmp_first_model_7_83.pdb
 OpenBabel08272520323D

 46 50  0  0  1  0  0  0  0  0999 V2000
   -5.4480   -3.3180  -26.9520 N   0  0  0  0  0  0  0  0  0  0  0  0
   -5.8130   -1.6830  -26.9020 S   0  0  0  0  0  0  0  0  0  0  0  0
   -5.9940   -1.1760  -28.2550 O   0  0  0  0  0  0  0  0  0  0  0  0
   -4.8290   -1.0880  -26.0160 O   0  0  0  0  0  0  0  0  0  0  0  0
   -7.3960   -1.7190  -26.1070 C   0  0  0  0  0  0  0  0  0  0  0  0
   -8.5450   -1.8790  -26.8790 C   0  0  0  0  0  0  0  0  0  0  0  0
   -9.7830   -2.0540  -26.2630 C   0  0  0  0  0  0  0  0  0  0  0  0
   -9.8550   -2.0420  -24.8700 C   0  0  0  0  0  0  0  0  0  0  0  0
   -8.6960   -1.7790  -24.1270 C   0  0  0  0  0  0  0  0  0  0  0  0
   -7.4450   -1.6540  -24.7220 C   0  0  0  0  0  0  0  0  0  0  0  0
   -6.5250   -1.5060  -24.1620 H   0  0  0  0  0  0  0  0  0  0  0  0
   -9.0430   -1.6620  -22.6430 C   0  0  1  0  0  0  0  0  0  0  0  0
  -10.5520   -1.3300  -22.7070 C   0  0  0  0  0  0  0  0  0  0  0  0
  -11.0420   -2.1500  -23.9120 C   0  0  0  0  0  0  0  0  0  0  0  0
  -11.1810   -3.5130  -23.5150 O   0  0  0  0  0  0  0  0  0  0  0  0
  -12.0040   -1.8060  -24.3050 H   0  0  0  0  0  0  0  0  0  0  0  0
  -11.9350   -3.5600  -22.9130 H   0  0  0  0  0  0  0  0  0  0  0  0
  -10.6510   -0.2620  -22.9220 H   0  0  0  0  0  0  0  0  0  0  0  0
  -11.0810   -1.5730  -21.7810 H   0  0  0  0  0  0  0  0  0  0  0  0
   -8.7250   -2.8890  -21.8910 N   0  0  0  0  0  0  0  0  0  0  0  0
   -7.5380   -2.7600  -21.2030 C   0  0  0  0  0  0  0  0  0  0  0  0
   -6.8210   -3.6350  -20.7810 O   0  0  0  0  0  0  0  0  0  0  0  0
   -7.2910   -1.3740  -21.0990 N   0  0  0  0  0  0  0  0  0  0  0  0
   -6.4650   -0.8050  -20.0860 C   0  0  0  0  0  0  0  0  0  0  0  0
   -6.7660   -1.0170  -18.7630 C   0  0  0  0  0  0  0  0  0  0  0  0
   -6.0780   -0.4790  -17.7270 N   0  0  0  0  0  0  0  0  0  0  0  0
   -5.0540    0.2840  -18.0130 C   0  0  0  0  0  0  0  0  0  0  0  0
   -4.6160    0.5710  -19.3360 C   0  0  0  0  0  0  0  0  0  0  0  0
   -3.4940    1.4070  -19.5920 C   0  0  0  0  0  0  0  0  0  0  0  0
   -3.1160    1.6800  -20.8770 C   0  0  0  0  0  0  0  0  0  0  0  0
   -3.8380    1.1340  -21.9630 C   0  0  0  0  0  0  0  0  0  0  0  0
   -4.9200    0.3190  -21.7400 C   0  0  0  0  0  0  0  0  0  0  0  0
   -5.3420    0.0190  -20.4150 C   0  0  0  0  0  0  0  0  0  0  0  0
   -5.4790   -0.0940  -22.5780 H   0  0  0  0  0  0  0  0  0  0  0  0
   -3.5420    1.3720  -22.9810 H   0  0  0  0  0  0  0  0  0  0  0  0
   -2.2680    2.3330  -21.0720 H   0  0  0  0  0  0  0  0  0  0  0  0
   -2.9640    1.8400  -18.7470 H   0  0  0  0  0  0  0  0  0  0  0  0
   -4.5170    0.7170  -17.1700 H   0  0  0  0  0  0  0  0  0  0  0  0
   -7.6190   -1.6370  -18.4960 H   0  0  0  0  0  0  0  0  0  0  0  0
   -8.1980   -0.6410  -21.8830 C   0  0  0  0  0  0  0  0  0  0  0  0
   -8.2770    0.5590  -21.9230 O   0  0  0  0  0  0  0  0  0  0  0  0
   -8.8950   -3.7790  -22.3400 H   0  0  0  0  0  0  0  0  0  0  0  0
  -10.6750   -2.1700  -26.8750 H   0  0  0  0  0  0  0  0  0  0  0  0
   -8.4400   -1.8660  -27.9600 H   0  0  0  0  0  0  0  0  0  0  0  0
   -5.8490   -3.7560  -27.7760 H   0  0  0  0  0  0  0  0  0  0  0  0
   -4.4390   -3.4330  -26.8950 H   0  0  0  0  0  0  0  0  0  0  0  0
  1  2  1  0  0  0  0
  1 45  1  0  0  0  0
  1 46  1  0  0  0  0
  2  3  2  0  0  0  0
  2  4  2  0  0  0  0
  2  5  1  0  0  0  0
  5  6  2  0  0  0  0
  5 10  1  0  0  0  0
  6  7  1  0  0  0  0
  6 44  1  0  0  0  0
  7  8  2  0  0  0  0
  7 43  1  0  0  0  0
  8  9  1  0  0  0  0
  8 15  1  0  0  0  0
  9 10  2  0  0  0  0
 10 11  1  0  0  0  0
 12  9  1  6  0  0  0
 12 13  1  0  0  0  0
 12 20  1  0  0  0  0
 12 40  1  0  0  0  0
 13 14  1  0  0  0  0
 13 18  1  0  0  0  0
 13 19  1  0  0  0  0
 14 15  1  0  0  0  0
 14 16  1  0  0  0  0
 14 17  1  0  0  0  0
 20 21  1  0  0  0  0
 20 42  1  0  0  0  0
 21 22  2  0  0  0  0
 21 23  1  0  0  0  0
 23 24  1  0  0  0  0
 23 40  1  0  0  0  0
 24 25  2  0  0  0  0
 24 33  1  0  0  0  0
 25 26  1  0  0  0  0
 25 39  1  0  0  0  0
 26 27  2  0  0  0  0
 27 28  1  0  0  0  0
 27 38  1  0  0  0  0
 28 29  2  0  0  0  0
 28 33  1  0  0  0  0
 29 30  1  0  0  0  0
 29 37  1  0  0  0  0
 30 31  2  0  0  0  0
 30 36  1  0  0  0  0
 31 32  1  0  0  0  0
 31 35  1  0  0  0  0
 32 33  2  0  0  0  0
 32 34  1  0  0  0  0
 40 41  2  0  0  0  0
M  END
>  <MODEL>
       1

$$$$
