tmp_first_model_17_26.pdb
 OpenBabel08282502223D

 55 60  0  0  1  0  0  0  0  0999 V2000
  -10.3530   -1.0180  -23.3850 C   0  0  0  0  0  0  0  0  0  0  0  0
   -8.9290   -1.4280  -23.0140 C   0  0  1  0  0  0  0  0  0  0  0  0
   -8.3440   -0.5360  -21.9080 C   0  0  0  0  0  0  0  0  0  0  0  0
   -7.3650   -1.3920  -21.2590 N   0  0  0  0  0  0  0  0  0  0  0  0
   -6.5760   -0.9090  -20.1880 C   0  0  0  0  0  0  0  0  0  0  0  0
   -6.9040   -1.1690  -18.8810 C   0  0  0  0  0  0  0  0  0  0  0  0
   -6.2650   -0.6150  -17.8170 N   0  0  0  0  0  0  0  0  0  0  0  0
   -5.2590    0.1910  -18.0640 C   0  0  0  0  0  0  0  0  0  0  0  0
   -4.7930    0.5210  -19.3710 C   0  0  0  0  0  0  0  0  0  0  0  0
   -3.6780    1.3720  -19.6020 C   0  0  0  0  0  0  0  0  0  0  0  0
   -3.2820    1.6590  -20.8800 C   0  0  0  0  0  0  0  0  0  0  0  0
   -3.9740    1.1130  -21.9850 C   0  0  0  0  0  0  0  0  0  0  0  0
   -5.0460    0.2790  -21.7860 C   0  0  0  0  0  0  0  0  0  0  0  0
   -5.4800   -0.0340  -20.4710 C   0  0  0  0  0  0  0  0  0  0  0  0
   -5.5660   -0.1650  -22.6270 H   0  0  0  0  0  0  0  0  0  0  0  0
   -3.6420    1.3420  -22.9940 H   0  0  0  0  0  0  0  0  0  0  0  0
   -2.4200    2.2970  -21.0600 H   0  0  0  0  0  0  0  0  0  0  0  0
   -3.1420    1.7810  -18.7480 H   0  0  0  0  0  0  0  0  0  0  0  0
   -4.7530    0.6230  -17.2010 H   0  0  0  0  0  0  0  0  0  0  0  0
   -7.7270   -1.8400  -18.6440 H   0  0  0  0  0  0  0  0  0  0  0  0
   -7.6170   -2.7360  -21.4430 C   0  0  0  0  0  0  0  0  0  0  0  0
   -7.0300   -3.6280  -20.8610 O   0  0  0  0  0  0  0  0  0  0  0  0
   -8.7510   -2.8930  -22.4750 C   0  0  1  0  0  0  0  0  0  0  0  0
   -9.9920   -3.3630  -21.6790 C   0  0  0  0  0  0  0  0  0  0  0  0
  -11.0820   -3.8120  -22.5420 N   0  0  0  0  0  0  0  0  0  0  0  0
  -12.4760   -3.5960  -22.1600 C   0  0  0  0  0  0  0  0  0  0  0  0
  -13.1950   -2.4720  -22.8470 C   0  0  0  0  0  0  0  0  0  0  0  0
  -13.7940   -2.3510  -24.1080 C   0  0  0  0  0  0  0  0  0  0  0  0
  -14.4150   -1.1740  -24.1920 N   0  0  0  0  0  0  0  0  0  0  0  0
  -14.2010   -0.6510  -23.0030 N   0  0  0  0  0  0  0  0  0  0  0  0
  -13.4730   -1.3620  -22.1630 N   0  0  0  0  0  0  0  0  0  0  0  0
  -14.6080    0.2270  -22.7080 H   0  0  0  0  0  0  0  0  0  0  0  0
  -13.8020   -3.0520  -24.9320 H   0  0  0  0  0  0  0  0  0  0  0  0
  -12.5130   -3.3640  -21.0960 H   0  0  0  0  0  0  0  0  0  0  0  0
  -13.0160   -4.5250  -22.3610 H   0  0  0  0  0  0  0  0  0  0  0  0
  -10.8640   -4.5530  -23.6740 C   0  0  0  0  0  0  0  0  0  0  0  0
  -11.7800   -5.0140  -24.3430 O   0  0  0  0  0  0  0  0  0  0  0  0
   -9.4360   -4.7440  -24.0800 C   0  0  0  0  0  0  0  0  0  0  0  0
   -9.1470   -5.7310  -25.0300 C   0  0  0  0  0  0  0  0  0  0  0  0
   -7.8550   -5.9150  -25.4890 C   0  0  0  0  0  0  0  0  0  0  0  0
   -6.8700   -5.0690  -24.9930 C   0  0  0  0  0  0  0  0  0  0  0  0
   -5.6130   -5.2190  -25.4430 F   0  0  0  0  0  0  0  0  0  0  0  0
   -7.1240   -4.1000  -24.0380 C   0  0  0  0  0  0  0  0  0  0  0  0
   -8.4260   -3.9330  -23.5440 C   0  0  0  0  0  0  0  0  0  0  0  0
   -6.2950   -3.5170  -23.6480 H   0  0  0  0  0  0  0  0  0  0  0  0
   -7.5920   -6.7050  -26.1910 H   0  0  0  0  0  0  0  0  0  0  0  0
   -9.9580   -6.3560  -25.3950 H   0  0  0  0  0  0  0  0  0  0  0  0
  -10.3450   -2.5300  -21.0580 H   0  0  0  0  0  0  0  0  0  0  0  0
   -9.6490   -4.1560  -21.0040 H   0  0  0  0  0  0  0  0  0  0  0  0
   -9.1230   -0.2070  -21.1980 H   0  0  0  0  0  0  0  0  0  0  0  0
   -7.8720    0.3690  -22.3000 H   0  0  0  0  0  0  0  0  0  0  0  0
   -8.2780   -1.3560  -23.8960 H   0  0  0  0  0  0  0  0  0  0  0  0
  -10.3800   -0.0440  -23.8830 H   0  0  0  0  0  0  0  0  0  0  0  0
  -10.8170   -1.7510  -24.0500 H   0  0  0  0  0  0  0  0  0  0  0  0
  -10.9940   -0.9430  -22.4990 H   0  0  0  0  0  0  0  0  0  0  0  0
  1  2  1  0  0  0  0
  1 53  1  0  0  0  0
  1 54  1  0  0  0  0
  1 55  1  0  0  0  0
  2  3  1  0  0  0  0
  2 23  1  0  0  0  0
  2 52  1  6  0  0  0
  3  4  1  0  0  0  0
  3 50  1  0  0  0  0
  3 51  1  0  0  0  0
  4  5  1  0  0  0  0
  4 21  1  0  0  0  0
  5  6  2  0  0  0  0
  5 14  1  0  0  0  0
  6  7  1  0  0  0  0
  6 20  1  0  0  0  0
  7  8  2  0  0  0  0
  8  9  1  0  0  0  0
  8 19  1  0  0  0  0
  9 10  2  0  0  0  0
  9 14  1  0  0  0  0
 10 11  1  0  0  0  0
 10 18  1  0  0  0  0
 11 12  2  0  0  0  0
 11 17  1  0  0  0  0
 12 13  1  0  0  0  0
 12 16  1  0  0  0  0
 13 14  2  0  0  0  0
 13 15  1  0  0  0  0
 21 22  2  0  0  0  0
 23 21  1  1  0  0  0
 23 24  1  0  0  0  0
 23 44  1  0  0  0  0
 24 25  1  0  0  0  0
 24 48  1  0  0  0  0
 24 49  1  0  0  0  0
 25 26  1  0  0  0  0
 25 36  1  0  0  0  0
 26 27  1  0  0  0  0
 26 34  1  0  0  0  0
 26 35  1  0  0  0  0
 27 28  1  0  0  0  0
 27 31  2  0  0  0  0
 28 29  2  0  0  0  0
 28 33  1  0  0  0  0
 29 30  1  0  0  0  0
 30 31  1  0  0  0  0
 30 32  1  0  0  0  0
 36 37  2  0  0  0  0
 36 38  1  0  0  0  0
 38 39  2  0  0  0  0
 38 44  1  0  0  0  0
 39 40  1  0  0  0  0
 39 47  1  0  0  0  0
 40 41  2  0  0  0  0
 40 46  1  0  0  0  0
 41 42  1  0  0  0  0
 41 43  1  0  0  0  0
 43 44  2  0  0  0  0
 43 45  1  0  0  0  0
M  END
>  <MODEL>
       1

$$$$
