tmp_first_model_7_16.pdb
 OpenBabel08272520323D

 61 66  0  0  1  0  0  0  0  0999 V2000
  -14.3910   -0.4170  -22.6790 C   0  0  0  0  0  0  0  0  0  0  0  0
  -13.4930   -1.3640  -22.0390 N   0  0  0  0  0  0  0  0  0  0  0  0
  -13.4520   -2.6500  -22.4920 C   0  0  0  0  0  0  0  0  0  0  0  0
  -14.1520   -3.0010  -23.4280 O   0  0  0  0  0  0  0  0  0  0  0  0
  -12.5040   -3.6480  -21.8000 C   0  0  0  0  0  0  0  0  0  0  0  0
  -11.1280   -3.6280  -22.3240 N   0  0  0  0  0  0  0  0  0  0  0  0
  -10.0110   -3.1600  -21.5050 C   0  0  0  0  0  0  0  0  0  0  0  0
   -8.7380   -2.8120  -22.3330 C   0  0  2  0  0  0  0  0  0  0  0  0
   -7.5610   -2.6840  -21.3510 C   0  0  0  0  0  0  0  0  0  0  0  0
   -6.9450   -3.5800  -20.8090 O   0  0  0  0  0  0  0  0  0  0  0  0
   -7.2800   -1.3470  -21.1780 N   0  0  0  0  0  0  0  0  0  0  0  0
   -6.4780   -0.8740  -20.1220 C   0  0  0  0  0  0  0  0  0  0  0  0
   -6.7900   -1.1280  -18.8130 C   0  0  0  0  0  0  0  0  0  0  0  0
   -6.1300   -0.5710  -17.7690 N   0  0  0  0  0  0  0  0  0  0  0  0
   -5.1300    0.2360  -18.0320 C   0  0  0  0  0  0  0  0  0  0  0  0
   -4.6810    0.5480  -19.3490 C   0  0  0  0  0  0  0  0  0  0  0  0
   -3.5710    1.3930  -19.6140 C   0  0  0  0  0  0  0  0  0  0  0  0
   -3.2080    1.6810  -20.9040 C   0  0  0  0  0  0  0  0  0  0  0  0
   -3.9290    1.1380  -21.9900 C   0  0  0  0  0  0  0  0  0  0  0  0
   -4.9890    0.3000  -21.7580 C   0  0  0  0  0  0  0  0  0  0  0  0
   -5.3880   -0.0090  -20.4320 C   0  0  0  0  0  0  0  0  0  0  0  0
   -5.5330   -0.1440  -22.5840 H   0  0  0  0  0  0  0  0  0  0  0  0
   -3.6470    1.3850  -23.0090 H   0  0  0  0  0  0  0  0  0  0  0  0
   -2.3640    2.3350  -21.1010 H   0  0  0  0  0  0  0  0  0  0  0  0
   -3.0250    1.8130  -18.7760 H   0  0  0  0  0  0  0  0  0  0  0  0
   -4.6180    0.6800  -17.1770 H   0  0  0  0  0  0  0  0  0  0  0  0
   -7.6180   -1.7890  -18.5580 H   0  0  0  0  0  0  0  0  0  0  0  0
   -8.2280   -0.4710  -21.8350 C   0  0  0  0  0  0  0  0  0  0  0  0
   -8.7980   -1.3680  -22.9300 C   0  0  2  0  0  0  0  0  0  0  0  0
  -10.1500   -0.8770  -23.4460 C   0  0  0  0  0  0  0  0  0  0  0  0
  -10.0790    0.4900  -23.9370 N   0  0  0  0  0  0  0  0  0  0  0  0
  -10.6300    1.5160  -23.3070 N   0  0  0  0  0  0  0  0  0  0  0  0
  -10.1390    2.5330  -23.9990 C   0  0  0  0  0  0  0  0  0  0  0  0
   -9.3460    2.1340  -25.0150 N   0  0  0  0  0  0  0  0  0  0  0  0
   -9.3140    0.8300  -24.9450 N   0  0  0  0  0  0  0  0  0  0  0  0
  -10.3460    3.5730  -23.7990 H   0  0  0  0  0  0  0  0  0  0  0  0
  -10.8980   -0.8340  -22.6690 H   0  0  0  0  0  0  0  0  0  0  0  0
  -10.5080   -1.5410  -24.2280 H   0  0  0  0  0  0  0  0  0  0  0  0
   -8.0980   -1.3660  -23.7730 H   0  0  0  0  0  0  0  0  0  0  0  0
   -8.9980   -0.1410  -21.1220 H   0  0  0  0  0  0  0  0  0  0  0  0
   -7.7330    0.4200  -22.2260 H   0  0  0  0  0  0  0  0  0  0  0  0
   -8.4530   -3.8920  -23.3600 C   0  0  0  0  0  0  0  0  0  0  0  0
   -7.1750   -4.0760  -23.9280 C   0  0  0  0  0  0  0  0  0  0  0  0
   -6.9810   -5.0360  -24.9100 C   0  0  0  0  0  0  0  0  0  0  0  0
   -5.4190   -5.2320  -25.6560 Cl  0  0  0  0  0  0  0  0  0  0  0  0
   -8.0210   -5.8610  -25.3350 C   0  0  0  0  0  0  0  0  0  0  0  0
   -9.2670   -5.6880  -24.7690 C   0  0  0  0  0  0  0  0  0  0  0  0
   -9.4870   -4.7130  -23.8000 C   0  0  0  0  0  0  0  0  0  0  0  0
  -10.8760   -4.5890  -23.2710 C   0  0  0  0  0  0  0  0  0  0  0  0
  -11.7560   -5.3240  -23.6700 O   0  0  0  0  0  0  0  0  0  0  0  0
  -10.1130   -6.2980  -25.0610 H   0  0  0  0  0  0  0  0  0  0  0  0
   -7.8500   -6.6240  -26.0870 H   0  0  0  0  0  0  0  0  0  0  0  0
   -6.3150   -3.5070  -23.5870 H   0  0  0  0  0  0  0  0  0  0  0  0
  -10.3380   -2.2710  -20.9520 H   0  0  0  0  0  0  0  0  0  0  0  0
   -9.7230   -3.9230  -20.7720 H   0  0  0  0  0  0  0  0  0  0  0  0
  -12.9330   -4.6130  -22.0810 H   0  0  0  0  0  0  0  0  0  0  0  0
  -12.4880   -3.5700  -20.7090 H   0  0  0  0  0  0  0  0  0  0  0  0
  -13.1520   -1.1390  -21.1180 H   0  0  0  0  0  0  0  0  0  0  0  0
  -15.4330   -0.7540  -22.6630 H   0  0  0  0  0  0  0  0  0  0  0  0
  -14.3120    0.5320  -22.1540 H   0  0  0  0  0  0  0  0  0  0  0  0
  -14.1040   -0.2530  -23.7220 H   0  0  0  0  0  0  0  0  0  0  0  0
  1  2  1  0  0  0  0
  1 59  1  0  0  0  0
  1 60  1  0  0  0  0
  1 61  1  0  0  0  0
  2  3  1  0  0  0  0
  2 58  1  0  0  0  0
  3  4  2  0  0  0  0
  3  5  1  0  0  0  0
  5  6  1  0  0  0  0
  5 56  1  0  0  0  0
  5 57  1  0  0  0  0
  6  7  1  0  0  0  0
  6 49  1  0  0  0  0
  7  8  1  0  0  0  0
  7 54  1  0  0  0  0
  7 55  1  0  0  0  0
  8  9  1  1  0  0  0
  8 29  1  0  0  0  0
  8 42  1  0  0  0  0
  9 10  2  0  0  0  0
  9 11  1  0  0  0  0
 11 12  1  0  0  0  0
 11 28  1  0  0  0  0
 12 13  2  0  0  0  0
 12 21  1  0  0  0  0
 13 14  1  0  0  0  0
 13 27  1  0  0  0  0
 14 15  2  0  0  0  0
 15 16  1  0  0  0  0
 15 26  1  0  0  0  0
 16 17  2  0  0  0  0
 16 21  1  0  0  0  0
 17 18  1  0  0  0  0
 17 25  1  0  0  0  0
 18 19  2  0  0  0  0
 18 24  1  0  0  0  0
 19 20  1  0  0  0  0
 19 23  1  0  0  0  0
 20 21  2  0  0  0  0
 20 22  1  0  0  0  0
 28 29  1  0  0  0  0
 28 40  1  0  0  0  0
 28 41  1  0  0  0  0
 29 30  1  0  0  0  0
 29 39  1  6  0  0  0
 30 31  1  0  0  0  0
 30 37  1  0  0  0  0
 30 38  1  0  0  0  0
 31 32  1  0  0  0  0
 31 35  1  0  0  0  0
 32 33  2  0  0  0  0
 33 34  1  0  0  0  0
 33 36  1  0  0  0  0
 34 35  2  0  0  0  0
 42 43  2  0  0  0  0
 42 48  1  0  0  0  0
 43 44  1  0  0  0  0
 43 53  1  0  0  0  0
 44 45  1  0  0  0  0
 44 46  2  0  0  0  0
 46 47  1  0  0  0  0
 46 52  1  0  0  0  0
 47 48  2  0  0  0  0
 47 51  1  0  0  0  0
 48 49  1  0  0  0  0
 49 50  2  0  0  0  0
M  END
>  <MODEL>
       1

$$$$
