tmp_first_model_8_44.pdb
 OpenBabel08272521063D

 60 64  0  0  1  0  0  0  0  0999 V2000
  -12.2550    3.9700  -21.6670 C   0  0  0  0  0  0  0  0  0  0  0  0
  -12.2780    2.8580  -22.5890 N   0  0  0  0  0  0  0  0  0  0  0  0
  -11.1580    2.4550  -23.2450 C   0  0  0  0  0  0  0  0  0  0  0  0
  -10.0500    2.9460  -23.0720 O   0  0  0  0  0  0  0  0  0  0  0  0
  -11.4200    1.3540  -24.2760 C   0  0  0  0  0  0  0  0  0  0  0  0
  -11.3140    0.0380  -23.6930 N   0  0  0  0  0  0  0  0  0  0  0  0
  -10.1160   -0.7690  -23.9350 C   0  0  0  0  0  0  0  0  0  0  0  0
   -9.6770   -1.6490  -22.7130 C   0  0  2  0  0  0  0  0  0  0  0  0
   -9.0340   -0.7450  -21.6170 C   0  0  0  0  0  0  0  0  0  0  0  0
   -9.5220    0.2380  -21.1120 O   0  0  0  0  0  0  0  0  0  0  0  0
   -7.7780   -1.2310  -21.3070 N   0  0  0  0  0  0  0  0  0  0  0  0
   -7.0270   -0.7020  -20.2180 C   0  0  0  0  0  0  0  0  0  0  0  0
   -7.3980   -0.9630  -18.9230 C   0  0  0  0  0  0  0  0  0  0  0  0
   -6.7270   -0.5190  -17.8310 N   0  0  0  0  0  0  0  0  0  0  0  0
   -5.6650    0.2230  -18.0160 C   0  0  0  0  0  0  0  0  0  0  0  0
   -5.1690    0.5810  -19.3000 C   0  0  0  0  0  0  0  0  0  0  0  0
   -4.0310    1.4160  -19.4530 C   0  0  0  0  0  0  0  0  0  0  0  0
   -3.5640    1.7170  -20.7020 C   0  0  0  0  0  0  0  0  0  0  0  0
   -4.2060    1.1940  -21.8470 C   0  0  0  0  0  0  0  0  0  0  0  0
   -5.3160    0.3940  -21.7250 C   0  0  0  0  0  0  0  0  0  0  0  0
   -5.8420    0.0800  -20.4420 C   0  0  0  0  0  0  0  0  0  0  0  0
   -5.8010   -0.0030  -22.6120 H   0  0  0  0  0  0  0  0  0  0  0  0
   -3.8090    1.4280  -22.8310 H   0  0  0  0  0  0  0  0  0  0  0  0
   -2.6970    2.3590  -20.8240 H   0  0  0  0  0  0  0  0  0  0  0  0
   -3.5520    1.8180  -18.5630 H   0  0  0  0  0  0  0  0  0  0  0  0
   -5.1390    0.5740  -17.1250 H   0  0  0  0  0  0  0  0  0  0  0  0
   -8.2810   -1.5630  -18.7080 H   0  0  0  0  0  0  0  0  0  0  0  0
   -7.5550   -2.5660  -21.8190 C   0  0  0  0  0  0  0  0  0  0  0  0
   -8.4970   -2.6410  -23.0380 C   0  0  2  0  0  0  0  0  0  0  0  0
   -7.7090   -2.3370  -24.3210 C   0  0  0  0  0  0  0  0  0  0  0  0
   -6.7210   -3.3330  -24.4700 O   0  0  0  0  0  0  0  0  0  0  0  0
   -5.9290   -3.1430  -25.6160 C   0  0  0  0  0  0  0  0  0  0  0  0
   -5.4420   -2.1570  -25.6040 H   0  0  0  0  0  0  0  0  0  0  0  0
   -6.5200   -3.2330  -26.5420 H   0  0  0  0  0  0  0  0  0  0  0  0
   -5.1540   -3.9140  -25.6170 H   0  0  0  0  0  0  0  0  0  0  0  0
   -7.2290   -1.3430  -24.2740 H   0  0  0  0  0  0  0  0  0  0  0  0
   -8.3870   -2.3560  -25.1870 H   0  0  0  0  0  0  0  0  0  0  0  0
   -8.8460   -3.6650  -23.1950 H   0  0  0  0  0  0  0  0  0  0  0  0
   -6.5070   -2.7150  -22.0970 H   0  0  0  0  0  0  0  0  0  0  0  0
   -7.8050   -3.3260  -21.0660 H   0  0  0  0  0  0  0  0  0  0  0  0
  -10.9760   -2.3430  -22.2100 C   0  0  0  0  0  0  0  0  0  0  0  0
  -11.0820   -3.4690  -21.5100 C   0  0  0  0  0  0  0  0  0  0  0  0
  -12.8830   -3.7180  -21.1070 C   0  0  0  0  0  0  0  0  0  0  0  0
  -12.5690   -5.2470  -19.0930 Cl  0  0  0  0  0  0  0  0  0  0  0  0
  -12.9230   -3.7890  -20.7670 C   0  0  0  0  0  0  0  0  0  0  0  0
  -13.3900   -2.2840  -21.6910 C   0  0  0  0  0  0  0  0  0  0  0  0
  -12.2880   -1.6830  -22.3630 C   0  0  0  0  0  0  0  0  0  0  0  0
  -12.4380   -0.4190  -23.0590 C   0  0  0  0  0  0  0  0  0  0  0  0
  -13.4900    0.2320  -23.0690 O   0  0  0  0  0  0  0  0  0  0  0  0
  -14.3230   -2.3990  -22.2180 H   0  0  0  0  0  0  0  0  0  0  0  0
  -12.9620   -3.1660  -19.8790 H   0  0  0  0  0  0  0  0  0  0  0  0
  -10.3790   -4.2740  -21.4110 H   0  0  0  0  0  0  0  0  0  0  0  0
   -9.3160   -0.0800  -24.2220 H   0  0  0  0  0  0  0  0  0  0  0  0
  -10.3150   -1.4520  -24.7680 H   0  0  0  0  0  0  0  0  0  0  0  0
  -12.4400    1.4850  -24.6430 H   0  0  0  0  0  0  0  0  0  0  0  0
  -10.7110    1.4720  -25.0970 H   0  0  0  0  0  0  0  0  0  0  0  0
  -13.1190    2.2940  -22.6630 H   0  0  0  0  0  0  0  0  0  0  0  0
  -12.2610    3.6340  -20.6220 H   0  0  0  0  0  0  0  0  0  0  0  0
  -13.1270    4.6010  -21.8560 H   0  0  0  0  0  0  0  0  0  0  0  0
  -11.3370    4.5380  -21.8440 H   0  0  0  0  0  0  0  0  0  0  0  0
  1  2  1  0  0  0  0
  1 58  1  0  0  0  0
  1 59  1  0  0  0  0
  1 60  1  0  0  0  0
  2  3  1  0  0  0  0
  2 57  1  0  0  0  0
  3  4  2  0  0  0  0
  3  5  1  0  0  0  0
  5  6  1  0  0  0  0
  5 55  1  0  0  0  0
  5 56  1  0  0  0  0
  6  7  1  0  0  0  0
  6 48  1  0  0  0  0
  7  8  1  0  0  0  0
  7 53  1  0  0  0  0
  7 54  1  0  0  0  0
  8  9  1  1  0  0  0
  8 29  1  0  0  0  0
  8 41  1  0  0  0  0
  9 10  2  0  0  0  0
  9 11  1  0  0  0  0
 11 12  1  0  0  0  0
 11 28  1  0  0  0  0
 12 13  2  0  0  0  0
 12 21  1  0  0  0  0
 13 14  1  0  0  0  0
 13 27  1  0  0  0  0
 14 15  2  0  0  0  0
 15 16  1  0  0  0  0
 15 26  1  0  0  0  0
 16 17  2  0  0  0  0
 16 21  1  0  0  0  0
 17 18  1  0  0  0  0
 17 25  1  0  0  0  0
 18 19  2  0  0  0  0
 18 24  1  0  0  0  0
 19 20  1  0  0  0  0
 19 23  1  0  0  0  0
 20 21  2  0  0  0  0
 20 22  1  0  0  0  0
 28 29  1  0  0  0  0
 28 39  1  0  0  0  0
 28 40  1  0  0  0  0
 29 30  1  0  0  0  0
 29 38  1  6  0  0  0
 30 31  1  0  0  0  0
 30 36  1  0  0  0  0
 30 37  1  0  0  0  0
 31 32  1  0  0  0  0
 32 33  1  0  0  0  0
 32 34  1  0  0  0  0
 32 35  1  0  0  0  0
 41 42  2  0  0  0  0
 41 47  1  0  0  0  0
 42 43  1  0  0  0  0
 42 52  1  0  0  0  0
 43 44  1  0  0  0  0
 43 45  2  0  0  0  0
 45 46  1  0  0  0  0
 45 51  1  0  0  0  0
 46 47  2  0  0  0  0
 46 50  1  0  0  0  0
 47 48  1  0  0  0  0
 48 49  2  0  0  0  0
M  END
>  <MODEL>
       1

$$$$
