tmp_first_model_1_1.pdb
 OpenBabel08272517043D

 68 73  0  0  1  0  0  0  0  0999 V2000
   -6.9320    3.4040  -22.0840 C   0  0  0  0  0  0  0  0  0  0  0  0
   -7.5960    2.8570  -23.2540 N   0  0  0  0  0  0  0  0  0  0  0  0
   -6.8400    2.2140  -24.1780 C   0  0  0  0  0  0  0  0  0  0  0  0
   -5.6190    2.2740  -24.1920 O   0  0  0  0  0  0  0  0  0  0  0  0
   -7.6050    1.3510  -25.1890 C   0  0  0  0  0  0  0  0  0  0  0  0
   -8.3240    0.2640  -24.5430 N   0  0  0  0  0  0  0  0  0  0  0  0
   -7.6230   -0.9720  -24.2390 C   0  0  0  0  0  0  0  0  0  0  0  0
   -8.1350   -1.6770  -22.9440 C   0  0  2  0  0  0  0  0  0  0  0  0
   -7.6630   -0.9350  -21.6890 C   0  0  0  0  0  0  0  0  0  0  0  0
   -8.0470    0.1510  -21.2960 O   0  0  0  0  0  0  0  0  0  0  0  0
   -6.7110   -1.7040  -21.0540 N   0  0  0  0  0  0  0  0  0  0  0  0
   -6.0310   -1.0730  -19.9820 C   0  0  0  0  0  0  0  0  0  0  0  0
   -6.4260   -1.2700  -18.6840 C   0  0  0  0  0  0  0  0  0  0  0  0
   -5.8820   -0.6230  -17.6240 N   0  0  0  0  0  0  0  0  0  0  0  0
   -4.9310    0.2500  -17.8690 C   0  0  0  0  0  0  0  0  0  0  0  0
   -4.4340    0.5490  -19.1710 C   0  0  0  0  0  0  0  0  0  0  0  0
   -3.3920    1.4860  -19.4050 C   0  0  0  0  0  0  0  0  0  0  0  0
   -3.0310    1.8320  -20.6790 C   0  0  0  0  0  0  0  0  0  0  0  0
   -3.7060    1.2680  -21.7850 C   0  0  0  0  0  0  0  0  0  0  0  0
   -4.6820    0.3240  -21.5870 C   0  0  0  0  0  0  0  0  0  0  0  0
   -5.0490   -0.0830  -20.2710 C   0  0  0  0  0  0  0  0  0  0  0  0
   -5.2080   -0.0910  -22.4430 H   0  0  0  0  0  0  0  0  0  0  0  0
   -3.4780    1.6020  -22.7910 H   0  0  0  0  0  0  0  0  0  0  0  0
   -2.2360    2.5550  -20.8480 H   0  0  0  0  0  0  0  0  0  0  0  0
   -2.8880    1.9140  -18.5450 H   0  0  0  0  0  0  0  0  0  0  0  0
   -4.5190    0.7950  -17.0180 H   0  0  0  0  0  0  0  0  0  0  0  0
   -7.2320   -1.9710  -18.4610 H   0  0  0  0  0  0  0  0  0  0  0  0
   -6.2570   -2.8210  -21.8880 C   0  0  0  0  0  0  0  0  0  0  0  0
   -7.5100   -3.0820  -22.7410 C   0  0  2  0  0  0  0  0  0  0  0  0
   -7.3490   -3.8950  -24.0340 C   0  0  0  0  0  0  0  0  0  0  0  0
   -7.0190   -5.3000  -23.8710 N   0  0  0  0  0  0  0  0  0  0  0  0
   -5.6890   -5.6360  -23.6150 C   0  0  0  0  0  0  0  0  0  0  0  0
   -5.1360   -6.7900  -22.9970 C   0  0  0  0  0  0  0  0  0  0  0  0
   -3.8070   -6.7320  -22.9610 N   0  0  0  0  0  0  0  0  0  0  0  0
   -3.4870   -5.5830  -23.5650 N   0  0  0  0  0  0  0  0  0  0  0  0
   -2.1200   -5.1220  -23.6090 C   0  0  0  0  0  0  0  0  0  0  0  0
   -1.7290   -5.0190  -22.5920 H   0  0  0  0  0  0  0  0  0  0  0  0
   -2.0980   -4.1460  -24.1040 H   0  0  0  0  0  0  0  0  0  0  0  0
   -1.4970   -5.8200  -24.1720 H   0  0  0  0  0  0  0  0  0  0  0  0
   -4.5840   -4.8990  -23.9790 C   0  0  0  0  0  0  0  0  0  0  0  0
   -4.5030   -3.9530  -24.5040 H   0  0  0  0  0  0  0  0  0  0  0  0
   -5.6370   -7.6530  -22.5680 H   0  0  0  0  0  0  0  0  0  0  0  0
   -7.7110   -5.8620  -23.3930 H   0  0  0  0  0  0  0  0  0  0  0  0
   -6.5740   -3.4290  -24.6510 H   0  0  0  0  0  0  0  0  0  0  0  0
   -8.2800   -3.8270  -24.6110 H   0  0  0  0  0  0  0  0  0  0  0  0
   -8.2170   -3.6350  -22.1200 H   0  0  0  0  0  0  0  0  0  0  0  0
   -5.4200   -2.5280  -22.5440 H   0  0  0  0  0  0  0  0  0  0  0  0
   -5.9300   -3.6760  -21.2890 H   0  0  0  0  0  0  0  0  0  0  0  0
   -9.6290   -1.6950  -22.9370 C   0  0  0  0  0  0  0  0  0  0  0  0
  -10.3300   -2.4720  -22.0080 C   0  0  0  0  0  0  0  0  0  0  0  0
  -11.6970   -2.5810  -22.1590 C   0  0  0  0  0  0  0  0  0  0  0  0
  -12.6770   -3.4170  -21.0050 Cl  0  0  0  0  0  0  0  0  0  0  0  0
  -12.3430   -1.9840  -23.2340 C   0  0  0  0  0  0  0  0  0  0  0  0
  -11.6570   -1.0680  -24.0250 C   0  0  0  0  0  0  0  0  0  0  0  0
  -10.3220   -0.8200  -23.7670 C   0  0  0  0  0  0  0  0  0  0  0  0
   -9.6360    0.4340  -24.2340 C   0  0  0  0  0  0  0  0  0  0  0  0
  -10.1720    1.5360  -24.2680 O   0  0  0  0  0  0  0  0  0  0  0  0
  -12.1400   -0.4300  -24.7610 H   0  0  0  0  0  0  0  0  0  0  0  0
  -13.4020   -2.1890  -23.3540 H   0  0  0  0  0  0  0  0  0  0  0  0
   -9.8400   -2.9460  -21.1650 H   0  0  0  0  0  0  0  0  0  0  0  0
   -6.5690   -0.7150  -24.1200 H   0  0  0  0  0  0  0  0  0  0  0  0
   -7.7210   -1.6370  -25.1050 H   0  0  0  0  0  0  0  0  0  0  0  0
   -8.3460    1.9420  -25.7370 H   0  0  0  0  0  0  0  0  0  0  0  0
   -6.8650    0.9580  -25.8910 H   0  0  0  0  0  0  0  0  0  0  0  0
   -8.5950    2.6790  -23.2150 H   0  0  0  0  0  0  0  0  0  0  0  0
   -6.1070    4.0510  -22.3980 H   0  0  0  0  0  0  0  0  0  0  0  0
   -7.6350    4.0030  -21.4960 H   0  0  0  0  0  0  0  0  0  0  0  0
   -6.5180    2.5860  -21.4730 H   0  0  0  0  0  0  0  0  0  0  0  0
  1  2  1  0  0  0  0
  1 66  1  0  0  0  0
  1 67  1  0  0  0  0
  1 68  1  0  0  0  0
  2  3  1  0  0  0  0
  2 65  1  0  0  0  0
  3  4  2  0  0  0  0
  3  5  1  0  0  0  0
  5  6  1  0  0  0  0
  5 63  1  0  0  0  0
  5 64  1  0  0  0  0
  6  7  1  0  0  0  0
  6 56  1  0  0  0  0
  7  8  1  0  0  0  0
  7 61  1  0  0  0  0
  7 62  1  0  0  0  0
  8  9  1  1  0  0  0
  8 29  1  0  0  0  0
  8 49  1  0  0  0  0
  9 10  2  0  0  0  0
  9 11  1  0  0  0  0
 11 12  1  0  0  0  0
 11 28  1  0  0  0  0
 12 13  2  0  0  0  0
 12 21  1  0  0  0  0
 13 14  1  0  0  0  0
 13 27  1  0  0  0  0
 14 15  2  0  0  0  0
 15 16  1  0  0  0  0
 15 26  1  0  0  0  0
 16 17  2  0  0  0  0
 16 21  1  0  0  0  0
 17 18  1  0  0  0  0
 17 25  1  0  0  0  0
 18 19  2  0  0  0  0
 18 24  1  0  0  0  0
 19 20  1  0  0  0  0
 19 23  1  0  0  0  0
 20 21  2  0  0  0  0
 20 22  1  0  0  0  0
 28 29  1  0  0  0  0
 28 47  1  0  0  0  0
 28 48  1  0  0  0  0
 29 30  1  0  0  0  0
 29 46  1  1  0  0  0
 30 31  1  0  0  0  0
 30 44  1  0  0  0  0
 30 45  1  0  0  0  0
 31 32  1  0  0  0  0
 31 43  1  0  0  0  0
 32 33  1  0  0  0  0
 32 40  2  0  0  0  0
 33 34  2  0  0  0  0
 33 42  1  0  0  0  0
 34 35  1  0  0  0  0
 35 36  1  0  0  0  0
 35 40  1  0  0  0  0
 36 37  1  0  0  0  0
 36 38  1  0  0  0  0
 36 39  1  0  0  0  0
 40 41  1  0  0  0  0
 49 50  2  0  0  0  0
 49 55  1  0  0  0  0
 50 51  1  0  0  0  0
 50 60  1  0  0  0  0
 51 52  1  0  0  0  0
 51 53  2  0  0  0  0
 53 54  1  0  0  0  0
 53 59  1  0  0  0  0
 54 55  2  0  0  0  0
 54 58  1  0  0  0  0
 55 56  1  0  0  0  0
 56 57  2  0  0  0  0
M  END
>  <MODEL>
       1

$$$$
