tmp_first_model_20_85.pdb
 OpenBabel08282503553D

 57 62  0  0  1  0  0  0  0  0999 V2000
   -8.7470    1.1760  -29.4120 C   0  0  0  0  0  0  0  0  0  0  0  0
   -8.8640    1.4750  -27.9930 N   0  0  0  0  0  0  0  0  0  0  0  0
   -8.1760    0.6840  -27.1170 C   0  0  0  0  0  0  0  0  0  0  0  0
   -7.4730   -0.2470  -27.4690 O   0  0  0  0  0  0  0  0  0  0  0  0
   -8.3000    1.0840  -25.6430 C   0  0  0  0  0  0  0  0  0  0  0  0
   -9.1490    0.1900  -24.8890 N   0  0  0  0  0  0  0  0  0  0  0  0
   -8.6600   -1.1250  -24.5220 C   0  0  0  0  0  0  0  0  0  0  0  0
   -8.9660   -1.4800  -23.0460 C   0  0  2  0  0  0  0  0  0  0  0  0
   -8.1660   -0.5630  -22.0920 C   0  0  0  0  0  0  0  0  0  0  0  0
   -8.1810    0.6440  -22.0690 O   0  0  0  0  0  0  0  0  0  0  0  0
   -7.3870   -1.3440  -21.2570 N   0  0  0  0  0  0  0  0  0  0  0  0
   -6.5970   -0.8070  -20.2100 C   0  0  0  0  0  0  0  0  0  0  0  0
   -6.9080   -1.0600  -18.8960 C   0  0  0  0  0  0  0  0  0  0  0  0
   -6.2300   -0.5590  -17.8320 N   0  0  0  0  0  0  0  0  0  0  0  0
   -5.1890    0.1960  -18.0880 C   0  0  0  0  0  0  0  0  0  0  0  0
   -4.7330    0.5090  -19.4000 C   0  0  0  0  0  0  0  0  0  0  0  0
   -3.5990    1.3350  -19.6220 C   0  0  0  0  0  0  0  0  0  0  0  0
   -3.1800    1.6110  -20.8940 C   0  0  0  0  0  0  0  0  0  0  0  0
   -3.8630    1.0650  -22.0030 C   0  0  0  0  0  0  0  0  0  0  0  0
   -4.9580    0.2610  -21.8150 C   0  0  0  0  0  0  0  0  0  0  0  0
   -5.4390   -0.0160  -20.5030 C   0  0  0  0  0  0  0  0  0  0  0  0
   -5.4810   -0.1500  -22.6720 H   0  0  0  0  0  0  0  0  0  0  0  0
   -3.5250    1.2940  -23.0100 H   0  0  0  0  0  0  0  0  0  0  0  0
   -2.3250    2.2590  -21.0640 H   0  0  0  0  0  0  0  0  0  0  0  0
   -3.0800    1.7440  -18.7600 H   0  0  0  0  0  0  0  0  0  0  0  0
   -4.6430    0.6000  -17.2340 H   0  0  0  0  0  0  0  0  0  0  0  0
   -7.7710   -1.6770  -18.6480 H   0  0  0  0  0  0  0  0  0  0  0  0
   -7.6360   -2.7560  -21.3810 C   0  0  0  0  0  0  0  0  0  0  0  0
   -8.4710   -2.8800  -22.6450 C   0  0  0  0  0  0  0  0  0  0  0  0
   -9.3310   -4.0950  -22.8200 C   0  0  0  0  0  0  0  0  0  0  0  0
   -8.0860   -3.9420  -23.6430 C   0  0  0  0  0  0  0  0  0  0  0  0
   -7.2330   -4.5790  -23.4130 H   0  0  0  0  0  0  0  0  0  0  0  0
   -8.1910   -3.7170  -24.7000 H   0  0  0  0  0  0  0  0  0  0  0  0
   -9.3490   -4.8250  -22.0130 H   0  0  0  0  0  0  0  0  0  0  0  0
  -10.2860   -3.9540  -23.3170 H   0  0  0  0  0  0  0  0  0  0  0  0
   -6.6940   -3.3130  -21.4390 H   0  0  0  0  0  0  0  0  0  0  0  0
   -8.1960   -3.1210  -20.5190 H   0  0  0  0  0  0  0  0  0  0  0  0
  -10.4600   -1.2370  -22.8640 C   0  0  0  0  0  0  0  0  0  0  0  0
  -11.1950   -1.9760  -21.9370 C   0  0  0  0  0  0  0  0  0  0  0  0
  -12.5660   -1.8110  -21.8570 C   0  0  0  0  0  0  0  0  0  0  0  0
  -13.4670   -2.9520  -20.8950 Cl  0  0  0  0  0  0  0  0  0  0  0  0
  -13.2230   -0.7570  -22.4900 C   0  0  0  0  0  0  0  0  0  0  0  0
  -12.4760    0.0330  -23.3450 C   0  0  0  0  0  0  0  0  0  0  0  0
  -11.1340   -0.2430  -23.5880 C   0  0  0  0  0  0  0  0  0  0  0  0
  -10.4190    0.5920  -24.6030 C   0  0  0  0  0  0  0  0  0  0  0  0
  -10.9180    1.5790  -25.1350 O   0  0  0  0  0  0  0  0  0  0  0  0
  -12.9080    0.8800  -23.8620 H   0  0  0  0  0  0  0  0  0  0  0  0
  -14.2820   -0.5770  -22.3200 H   0  0  0  0  0  0  0  0  0  0  0  0
  -10.7150   -2.7190  -21.3100 H   0  0  0  0  0  0  0  0  0  0  0  0
   -7.5870   -1.1560  -24.7090 H   0  0  0  0  0  0  0  0  0  0  0  0
   -9.1320   -1.8770  -25.1640 H   0  0  0  0  0  0  0  0  0  0  0  0
   -8.7000    2.0970  -25.5380 H   0  0  0  0  0  0  0  0  0  0  0  0
   -7.2940    1.0370  -25.2080 H   0  0  0  0  0  0  0  0  0  0  0  0
   -9.7320    1.8800  -27.6630 H   0  0  0  0  0  0  0  0  0  0  0  0
   -9.1290    0.1770  -29.6530 H   0  0  0  0  0  0  0  0  0  0  0  0
   -9.3050    1.9190  -29.9870 H   0  0  0  0  0  0  0  0  0  0  0  0
   -7.6930    1.2130  -29.6990 H   0  0  0  0  0  0  0  0  0  0  0  0
  1  2  1  0  0  0  0
  1 55  1  0  0  0  0
  1 56  1  0  0  0  0
  1 57  1  0  0  0  0
  2  3  1  0  0  0  0
  2 54  1  0  0  0  0
  3  4  2  0  0  0  0
  3  5  1  0  0  0  0
  5  6  1  0  0  0  0
  5 52  1  0  0  0  0
  5 53  1  0  0  0  0
  6  7  1  0  0  0  0
  6 45  1  0  0  0  0
  7  8  1  0  0  0  0
  7 50  1  0  0  0  0
  7 51  1  0  0  0  0
  8  9  1  1  0  0  0
  8 29  1  0  0  0  0
  8 38  1  0  0  0  0
  9 10  2  0  0  0  0
  9 11  1  0  0  0  0
 11 12  1  0  0  0  0
 11 28  1  0  0  0  0
 12 13  2  0  0  0  0
 12 21  1  0  0  0  0
 13 14  1  0  0  0  0
 13 27  1  0  0  0  0
 14 15  2  0  0  0  0
 15 16  1  0  0  0  0
 15 26  1  0  0  0  0
 16 17  2  0  0  0  0
 16 21  1  0  0  0  0
 17 18  1  0  0  0  0
 17 25  1  0  0  0  0
 18 19  2  0  0  0  0
 18 24  1  0  0  0  0
 19 20  1  0  0  0  0
 19 23  1  0  0  0  0
 20 21  2  0  0  0  0
 20 22  1  0  0  0  0
 28 29  1  0  0  0  0
 28 36  1  0  0  0  0
 28 37  1  0  0  0  0
 29 30  1  0  0  0  0
 29 31  1  0  0  0  0
 30 31  1  0  0  0  0
 30 34  1  0  0  0  0
 30 35  1  0  0  0  0
 31 32  1  0  0  0  0
 31 33  1  0  0  0  0
 38 39  2  0  0  0  0
 38 44  1  0  0  0  0
 39 40  1  0  0  0  0
 39 49  1  0  0  0  0
 40 41  1  0  0  0  0
 40 42  2  0  0  0  0
 42 43  1  0  0  0  0
 42 48  1  0  0  0  0
 43 44  2  0  0  0  0
 43 47  1  0  0  0  0
 44 45  1  0  0  0  0
 45 46  2  0  0  0  0
M  END
>  <MODEL>
       1

$$$$
