tmp_first_model_13_69.pdb
 OpenBabel08282500103D

 63 67  0  0  0  0  0  0  0  0999 V2000
  -15.4250   -5.2140  -24.9730 C   0  0  0  0  0  0  0  0  0  0  0  0
  -14.5890   -4.5430  -24.1800 C   0  0  0  0  0  0  0  0  0  0  0  0
  -13.5440   -3.6290  -24.7340 C   0  0  0  0  0  0  0  0  0  0  0  0
  -13.4830   -3.3590  -25.9190 O   0  0  0  0  0  0  0  0  0  0  0  0
  -12.6200   -3.1340  -23.8030 N   0  0  0  0  0  0  0  0  0  0  0  0
  -13.0670   -2.7380  -22.4730 C   0  0  0  0  0  0  0  0  0  0  0  0
  -12.8740   -1.2400  -22.3540 C   0  0  0  0  0  0  0  0  0  0  0  0
  -11.3800   -0.9700  -22.3630 C   0  0  0  0  0  0  0  0  0  0  0  0
  -10.6790   -1.6390  -23.5250 C   0  0  0  0  0  0  0  0  0  0  0  0
  -11.3310   -2.6870  -24.2120 C   0  0  0  0  0  0  0  0  0  0  0  0
  -10.6810   -3.3140  -25.2800 C   0  0  0  0  0  0  0  0  0  0  0  0
   -9.4350   -2.8820  -25.7020 C   0  0  0  0  0  0  0  0  0  0  0  0
   -8.7870   -1.8450  -25.0400 C   0  0  0  0  0  0  0  0  0  0  0  0
   -9.3880   -1.2770  -23.9260 C   0  0  0  0  0  0  0  0  0  0  0  0
   -8.5620   -0.1710  -23.2060 N   0  3  0  0  0  0  0  0  0  0  0  0
   -8.9170    1.2770  -23.6300 C   0  0  0  0  0  0  0  0  0  0  0  0
   -7.7350    2.2050  -23.4500 C   0  0  0  0  0  0  0  0  0  0  0  0
   -7.6770    3.0480  -22.3390 C   0  0  0  0  0  0  0  0  0  0  0  0
   -6.7050    4.0320  -22.2520 C   0  0  0  0  0  0  0  0  0  0  0  0
   -5.7090    4.1370  -23.2160 C   0  0  0  0  0  0  0  0  0  0  0  0
   -5.6960    3.2120  -24.2580 C   0  0  0  0  0  0  0  0  0  0  0  0
   -4.3530    3.1960  -25.3870 Cl  0  0  0  0  0  0  0  0  0  0  0  0
   -6.7140    2.2760  -24.4000 C   0  0  0  0  0  0  0  0  0  0  0  0
   -6.7100    1.6100  -25.2590 H   0  0  0  0  0  0  0  0  0  0  0  0
   -4.9640    4.9240  -23.1530 H   0  0  0  0  0  0  0  0  0  0  0  0
   -6.7270    4.7470  -21.4360 H   0  0  0  0  0  0  0  0  0  0  0  0
   -8.4060    2.9070  -21.5510 H   0  0  0  0  0  0  0  0  0  0  0  0
   -9.2670    1.2440  -24.6640 H   0  0  0  0  0  0  0  0  0  0  0  0
   -9.7370    1.5950  -22.9870 H   0  0  0  0  0  0  0  0  0  0  0  0
   -8.4370   -0.2740  -21.7320 C   0  0  0  0  0  0  0  0  0  0  0  0
   -9.0960    0.4210  -21.0020 O   0  0  0  0  0  0  0  0  0  0  0  0
   -7.4810   -1.3570  -21.2370 C   0  0  0  0  0  0  0  0  0  0  0  0
   -6.5800   -0.8130  -20.1600 C   0  0  0  0  0  0  0  0  0  0  0  0
   -6.8540   -1.0470  -18.8390 C   0  0  0  0  0  0  0  0  0  0  0  0
   -6.1490   -0.5430  -17.7930 N   0  0  0  0  0  0  0  0  0  0  0  0
   -5.1380    0.2360  -18.0780 C   0  0  0  0  0  0  0  0  0  0  0  0
   -4.7310    0.5650  -19.3990 C   0  0  0  0  0  0  0  0  0  0  0  0
   -3.6120    1.3970  -19.6480 C   0  0  0  0  0  0  0  0  0  0  0  0
   -3.2220    1.6730  -20.9270 C   0  0  0  0  0  0  0  0  0  0  0  0
   -3.9380    1.1250  -22.0160 C   0  0  0  0  0  0  0  0  0  0  0  0
   -5.0410    0.3360  -21.8030 C   0  0  0  0  0  0  0  0  0  0  0  0
   -5.4690    0.0270  -20.4820 C   0  0  0  0  0  0  0  0  0  0  0  0
   -5.5760   -0.0590  -22.6620 H   0  0  0  0  0  0  0  0  0  0  0  0
   -3.6000    1.3250  -23.0310 H   0  0  0  0  0  0  0  0  0  0  0  0
   -2.3630    2.3120  -21.1130 H   0  0  0  0  0  0  0  0  0  0  0  0
   -3.0740    1.8070  -18.7970 H   0  0  0  0  0  0  0  0  0  0  0  0
   -4.5740    0.6460  -17.2380 H   0  0  0  0  0  0  0  0  0  0  0  0
   -7.6870   -1.6940  -18.5610 H   0  0  0  0  0  0  0  0  0  0  0  0
   -6.9050   -1.7700  -22.0710 H   0  0  0  0  0  0  0  0  0  0  0  0
   -8.1070   -2.1710  -20.8440 H   0  0  0  0  0  0  0  0  0  0  0  0
   -7.6050   -0.3430  -23.5760 H   0  0  0  0  0  0  0  0  0  0  0  0
   -7.8210   -1.4980  -25.3960 H   0  0  0  0  0  0  0  0  0  0  0  0
   -8.9700   -3.3440  -26.5710 H   0  0  0  0  0  0  0  0  0  0  0  0
  -11.1700   -4.1280  -25.7990 H   0  0  0  0  0  0  0  0  0  0  0  0
  -11.1900    0.1050  -22.3530 H   0  0  0  0  0  0  0  0  0  0  0  0
  -10.9500   -1.3650  -21.4330 H   0  0  0  0  0  0  0  0  0  0  0  0
  -13.3520   -0.7600  -23.2160 H   0  0  0  0  0  0  0  0  0  0  0  0
  -13.3490   -0.8470  -21.4490 H   0  0  0  0  0  0  0  0  0  0  0  0
  -12.4930   -3.2740  -21.7050 H   0  0  0  0  0  0  0  0  0  0  0  0
  -14.1150   -3.0020  -22.3490 H   0  0  0  0  0  0  0  0  0  0  0  0
  -14.6120   -4.6840  -23.1070 H   0  0  0  0  0  0  0  0  0  0  0  0
  -16.1960   -5.8650  -24.5720 H   0  0  0  0  0  0  0  0  0  0  0  0
  -15.3370   -5.1390  -26.0530 H   0  0  0  0  0  0  0  0  0  0  0  0
  1  2  2  0  0  0  0
  1 62  1  0  0  0  0
  1 63  1  0  0  0  0
  2  3  1  0  0  0  0
  2 61  1  0  0  0  0
  3  4  2  0  0  0  0
  3  5  1  0  0  0  0
  5  6  1  0  0  0  0
  5 10  1  0  0  0  0
  6  7  1  0  0  0  0
  6 59  1  0  0  0  0
  6 60  1  0  0  0  0
  7  8  1  0  0  0  0
  7 57  1  0  0  0  0
  7 58  1  0  0  0  0
  8  9  1  0  0  0  0
  8 55  1  0  0  0  0
  8 56  1  0  0  0  0
  9 10  2  0  0  0  0
  9 14  1  0  0  0  0
 10 11  1  0  0  0  0
 11 12  2  0  0  0  0
 11 54  1  0  0  0  0
 12 13  1  0  0  0  0
 12 53  1  0  0  0  0
 13 14  2  0  0  0  0
 13 52  1  0  0  0  0
 14 15  1  0  0  0  0
 15 16  1  0  0  0  0
 15 30  1  0  0  0  0
 15 51  1  0  0  0  0
 16 17  1  0  0  0  0
 16 28  1  0  0  0  0
 16 29  1  0  0  0  0
 17 18  2  0  0  0  0
 17 23  1  0  0  0  0
 18 19  1  0  0  0  0
 18 27  1  0  0  0  0
 19 20  2  0  0  0  0
 19 26  1  0  0  0  0
 20 21  1  0  0  0  0
 20 25  1  0  0  0  0
 21 22  1  0  0  0  0
 21 23  2  0  0  0  0
 23 24  1  0  0  0  0
 30 31  2  0  0  0  0
 30 32  1  0  0  0  0
 32 33  1  0  0  0  0
 32 49  1  0  0  0  0
 32 50  1  0  0  0  0
 33 34  2  0  0  0  0
 33 42  1  0  0  0  0
 34 35  1  0  0  0  0
 34 48  1  0  0  0  0
 35 36  2  0  0  0  0
 36 37  1  0  0  0  0
 36 47  1  0  0  0  0
 37 38  2  0  0  0  0
 37 42  1  0  0  0  0
 38 39  1  0  0  0  0
 38 46  1  0  0  0  0
 39 40  2  0  0  0  0
 39 45  1  0  0  0  0
 40 41  1  0  0  0  0
 40 44  1  0  0  0  0
 41 42  2  0  0  0  0
 41 43  1  0  0  0  0
M  CHG  1  15   1
M  END
>  <MODEL>
       1

$$$$
