tmp_first_model_20_12.pdb
 OpenBabel08282503553D

 76 82  0  0  1  0  0  0  0  0999 V2000
  -10.2380    1.4530  -25.7090 O   0  0  0  0  0  0  0  0  0  0  0  0
   -9.9330    0.5130  -24.9830 C   0  0  0  0  0  0  0  0  0  0  0  0
  -10.9180   -0.0890  -24.0330 C   0  0  0  0  0  0  0  0  0  0  0  0
  -12.2280    0.3810  -24.0880 C   0  0  0  0  0  0  0  0  0  0  0  0
  -13.1990   -0.0940  -23.2290 C   0  0  0  0  0  0  0  0  0  0  0  0
  -12.8140   -1.0480  -22.2880 C   0  0  0  0  0  0  0  0  0  0  0  0
  -14.0080   -1.7520  -21.2390 Cl  0  0  0  0  0  0  0  0  0  0  0  0
  -11.5000   -1.4750  -22.1730 C   0  0  0  0  0  0  0  0  0  0  0  0
  -10.5210   -1.0270  -23.0680 C   0  0  0  0  0  0  0  0  0  0  0  0
   -9.0650   -1.4500  -22.9570 C   0  0  1  0  0  0  0  0  0  0  0  0
   -8.4120   -1.3070  -24.3610 C   0  0  0  0  0  0  0  0  0  0  0  0
   -8.6790   -0.0180  -24.9680 N   0  0  0  0  0  0  0  0  0  0  0  0
   -7.6500    0.7110  -25.6820 C   0  0  0  0  0  0  0  0  0  0  0  0
   -7.1410    1.8660  -24.8210 C   0  0  0  0  0  0  0  0  0  0  0  0
   -6.1270    2.6950  -25.5120 N   0  3  0  0  0  0  0  0  0  0  0  0
   -4.9000    1.9180  -25.9450 C   0  0  0  0  0  0  0  0  0  0  0  0
   -3.7580    2.9020  -26.2170 C   0  0  0  0  0  0  0  0  0  0  0  0
   -4.2940    4.1450  -26.6210 O   0  0  0  0  0  0  0  0  0  0  0  0
   -4.8430    4.8260  -25.5080 C   0  0  0  0  0  0  0  0  0  0  0  0
   -5.7680    3.9040  -24.6970 C   0  0  0  0  0  0  0  0  0  0  0  0
   -6.6920    4.4210  -24.4220 H   0  0  0  0  0  0  0  0  0  0  0  0
   -5.2840    3.5750  -23.7690 H   0  0  0  0  0  0  0  0  0  0  0  0
   -5.3860    5.6900  -25.9040 H   0  0  0  0  0  0  0  0  0  0  0  0
   -4.0370    5.1990  -24.8580 H   0  0  0  0  0  0  0  0  0  0  0  0
   -3.1330    3.0270  -25.3180 H   0  0  0  0  0  0  0  0  0  0  0  0
   -3.1190    2.5350  -27.0250 H   0  0  0  0  0  0  0  0  0  0  0  0
   -5.1490    1.3740  -26.8600 H   0  0  0  0  0  0  0  0  0  0  0  0
   -4.6260    1.1940  -25.1690 H   0  0  0  0  0  0  0  0  0  0  0  0
   -6.5610    3.0550  -26.3840 H   0  0  0  0  0  0  0  0  0  0  0  0
   -7.9900    2.5040  -24.5490 H   0  0  0  0  0  0  0  0  0  0  0  0
   -6.7220    1.4790  -23.8820 H   0  0  0  0  0  0  0  0  0  0  0  0
   -8.0910    1.0970  -26.6090 H   0  0  0  0  0  0  0  0  0  0  0  0
   -6.8440    0.0140  -25.9390 H   0  0  0  0  0  0  0  0  0  0  0  0
   -7.3280   -1.4450  -24.2790 H   0  0  0  0  0  0  0  0  0  0  0  0
   -8.8030   -2.1010  -25.0070 H   0  0  0  0  0  0  0  0  0  0  0  0
   -8.2990   -0.5480  -21.9650 C   0  0  0  0  0  0  0  0  0  0  0  0
   -8.3750    0.6600  -21.8540 O   0  0  0  0  0  0  0  0  0  0  0  0
   -7.4540   -1.3380  -21.2230 N   0  0  0  0  0  0  0  0  0  0  0  0
   -6.6270   -0.8200  -20.2060 C   0  0  0  0  0  0  0  0  0  0  0  0
   -6.9290   -1.0730  -18.8910 C   0  0  0  0  0  0  0  0  0  0  0  0
   -6.2460   -0.5760  -17.8310 N   0  0  0  0  0  0  0  0  0  0  0  0
   -5.2070    0.1800  -18.1000 C   0  0  0  0  0  0  0  0  0  0  0  0
   -4.7700    0.4960  -19.4190 C   0  0  0  0  0  0  0  0  0  0  0  0
   -3.6360    1.3220  -19.6380 C   0  0  0  0  0  0  0  0  0  0  0  0
   -3.2200    1.6050  -20.9120 C   0  0  0  0  0  0  0  0  0  0  0  0
   -3.9090    1.0680  -22.0220 C   0  0  0  0  0  0  0  0  0  0  0  0
   -5.0120    0.2670  -21.8350 C   0  0  0  0  0  0  0  0  0  0  0  0
   -5.4830   -0.0250  -20.5210 C   0  0  0  0  0  0  0  0  0  0  0  0
   -5.5340   -0.1290  -22.7010 H   0  0  0  0  0  0  0  0  0  0  0  0
   -3.5600    1.2960  -23.0280 H   0  0  0  0  0  0  0  0  0  0  0  0
   -2.3570    2.2420  -21.0720 H   0  0  0  0  0  0  0  0  0  0  0  0
   -3.1140    1.7210  -18.7730 H   0  0  0  0  0  0  0  0  0  0  0  0
   -4.6480    0.5910  -17.2580 H   0  0  0  0  0  0  0  0  0  0  0  0
   -7.7910   -1.6960  -18.6610 H   0  0  0  0  0  0  0  0  0  0  0  0
   -7.5220   -2.7380  -21.5450 C   0  0  0  0  0  0  0  0  0  0  0  0
   -8.8170   -2.8670  -22.3470 C   0  0  2  0  0  0  0  0  0  0  0  0
   -8.6950   -4.0380  -23.3130 C   0  0  0  0  0  0  0  0  0  0  0  0
   -9.9100   -4.2530  -24.0590 N   0  0  0  0  0  0  0  0  0  0  0  0
   -9.9820   -5.2270  -24.9990 C   0  0  0  0  0  0  0  0  0  0  0  0
  -11.1570   -5.3760  -25.6370 N   0  0  0  0  0  0  0  0  0  0  0  0
  -11.1640   -6.2460  -26.6370 C   0  0  0  0  0  0  0  0  0  0  0  0
  -10.0480   -6.9800  -27.0200 C   0  0  0  0  0  0  0  0  0  0  0  0
   -8.9200   -6.8230  -26.2270 C   0  0  0  0  0  0  0  0  0  0  0  0
   -8.8680   -5.9610  -25.2130 N   0  0  0  0  0  0  0  0  0  0  0  0
   -8.0130   -7.4080  -26.4120 H   0  0  0  0  0  0  0  0  0  0  0  0
  -10.0700   -7.6330  -27.8860 H   0  0  0  0  0  0  0  0  0  0  0  0
  -12.1030   -6.3750  -27.1800 H   0  0  0  0  0  0  0  0  0  0  0  0
  -10.7350   -3.6950  -23.8780 H   0  0  0  0  0  0  0  0  0  0  0  0
   -8.4560   -4.9550  -22.7590 H   0  0  0  0  0  0  0  0  0  0  0  0
   -7.8690   -3.8620  -24.0220 H   0  0  0  0  0  0  0  0  0  0  0  0
   -9.6350   -3.0860  -21.6490 H   0  0  0  0  0  0  0  0  0  0  0  0
   -6.6560   -3.0690  -22.1400 H   0  0  0  0  0  0  0  0  0  0  0  0
   -7.5290   -3.3390  -20.6380 H   0  0  0  0  0  0  0  0  0  0  0  0
  -11.2650   -2.1410  -21.3510 H   0  0  0  0  0  0  0  0  0  0  0  0
  -14.2190    0.2800  -23.2740 H   0  0  0  0  0  0  0  0  0  0  0  0
  -12.4410    1.1500  -24.8200 H   0  0  0  0  0  0  0  0  0  0  0  0
  1  2  2  0  0  0  0
  2  3  1  0  0  0  0
  2 12  1  0  0  0  0
  3  4  2  0  0  0  0
  3  9  1  0  0  0  0
  4  5  1  0  0  0  0
  4 76  1  0  0  0  0
  5  6  2  0  0  0  0
  5 75  1  0  0  0  0
  6  7  1  0  0  0  0
  6  8  1  0  0  0  0
  8  9  2  0  0  0  0
  8 74  1  0  0  0  0
 10  9  1  6  0  0  0
 10 11  1  0  0  0  0
 10 36  1  0  0  0  0
 10 56  1  0  0  0  0
 11 12  1  0  0  0  0
 11 34  1  0  0  0  0
 11 35  1  0  0  0  0
 12 13  1  0  0  0  0
 13 14  1  0  0  0  0
 13 32  1  0  0  0  0
 13 33  1  0  0  0  0
 14 15  1  0  0  0  0
 14 30  1  0  0  0  0
 14 31  1  0  0  0  0
 15 16  1  0  0  0  0
 15 20  1  0  0  0  0
 15 29  1  0  0  0  0
 16 17  1  0  0  0  0
 16 27  1  0  0  0  0
 16 28  1  0  0  0  0
 17 18  1  0  0  0  0
 17 25  1  0  0  0  0
 17 26  1  0  0  0  0
 18 19  1  0  0  0  0
 19 20  1  0  0  0  0
 19 23  1  0  0  0  0
 19 24  1  0  0  0  0
 20 21  1  0  0  0  0
 20 22  1  0  0  0  0
 36 37  2  0  0  0  0
 36 38  1  0  0  0  0
 38 39  1  0  0  0  0
 38 55  1  0  0  0  0
 39 40  2  0  0  0  0
 39 48  1  0  0  0  0
 40 41  1  0  0  0  0
 40 54  1  0  0  0  0
 41 42  2  0  0  0  0
 42 43  1  0  0  0  0
 42 53  1  0  0  0  0
 43 44  2  0  0  0  0
 43 48  1  0  0  0  0
 44 45  1  0  0  0  0
 44 52  1  0  0  0  0
 45 46  2  0  0  0  0
 45 51  1  0  0  0  0
 46 47  1  0  0  0  0
 46 50  1  0  0  0  0
 47 48  2  0  0  0  0
 47 49  1  0  0  0  0
 55 56  1  0  0  0  0
 55 72  1  0  0  0  0
 55 73  1  0  0  0  0
 56 57  1  0  0  0  0
 56 71  1  1  0  0  0
 57 58  1  0  0  0  0
 57 69  1  0  0  0  0
 57 70  1  0  0  0  0
 58 59  1  0  0  0  0
 58 68  1  0  0  0  0
 59 60  2  0  0  0  0
 59 64  1  0  0  0  0
 60 61  1  0  0  0  0
 61 62  2  0  0  0  0
 61 67  1  0  0  0  0
 62 63  1  0  0  0  0
 62 66  1  0  0  0  0
 63 64  2  0  0  0  0
 63 65  1  0  0  0  0
M  CHG  1  15   1
M  END
>  <MODEL>
       1

$$$$
