tmp_first_model_7_14.pdb
 OpenBabel08272520323D

 73 78  0  0  1  0  0  0  0  0999 V2000
   -7.6070   -4.1320  -23.6700 C   0  0  0  0  0  0  0  0  0  0  0  0
   -8.0680   -3.2760  -22.4870 C   0  0  1  0  0  0  0  0  0  0  0  0
   -6.8530   -2.8030  -21.6750 C   0  0  0  0  0  0  0  0  0  0  0  0
   -7.2890   -1.5630  -21.0610 N   0  0  0  0  0  0  0  0  0  0  0  0
   -6.5400   -0.8710  -20.0650 C   0  0  0  0  0  0  0  0  0  0  0  0
   -6.8670   -1.0190  -18.7440 C   0  0  0  0  0  0  0  0  0  0  0  0
   -6.1700   -0.4760  -17.7120 N   0  0  0  0  0  0  0  0  0  0  0  0
   -5.1250    0.2590  -17.9980 C   0  0  0  0  0  0  0  0  0  0  0  0
   -4.6820    0.5260  -19.3250 C   0  0  0  0  0  0  0  0  0  0  0  0
   -3.5680    1.3630  -19.5940 C   0  0  0  0  0  0  0  0  0  0  0  0
   -3.2200    1.6610  -20.8810 C   0  0  0  0  0  0  0  0  0  0  0  0
   -3.9650    1.1310  -21.9560 C   0  0  0  0  0  0  0  0  0  0  0  0
   -5.0290    0.2950  -21.7240 C   0  0  0  0  0  0  0  0  0  0  0  0
   -5.4160   -0.0360  -20.3980 C   0  0  0  0  0  0  0  0  0  0  0  0
   -5.6090   -0.0990  -22.5530 H   0  0  0  0  0  0  0  0  0  0  0  0
   -3.6990    1.3980  -22.9730 H   0  0  0  0  0  0  0  0  0  0  0  0
   -2.3860    2.3260  -21.0840 H   0  0  0  0  0  0  0  0  0  0  0  0
   -3.0260    1.7920  -18.7560 H   0  0  0  0  0  0  0  0  0  0  0  0
   -4.5770    0.6940  -17.1600 H   0  0  0  0  0  0  0  0  0  0  0  0
   -7.7350   -1.6120  -18.4640 H   0  0  0  0  0  0  0  0  0  0  0  0
   -8.4930   -1.0960  -21.5460 C   0  0  0  0  0  0  0  0  0  0  0  0
   -9.0700   -0.1190  -21.1060 O   0  0  0  0  0  0  0  0  0  0  0  0
   -8.8930   -1.9710  -22.7570 C   0  0  1  0  0  0  0  0  0  0  0  0
   -8.4680   -1.1810  -24.0210 C   0  0  0  0  0  0  0  0  0  0  0  0
   -8.8210   -1.8370  -25.2750 N   0  0  0  0  0  0  0  0  0  0  0  0
   -8.3610   -1.1390  -26.4860 C   0  0  0  0  0  0  0  0  0  0  0  0
   -7.9130   -2.0140  -27.6650 C   0  0  0  0  0  0  0  0  0  0  0  0
   -6.9310   -3.0760  -27.2960 N   0  3  0  0  0  0  0  0  0  0  0  0
   -6.8910   -4.1720  -28.3460 C   0  0  0  0  0  0  0  0  0  0  0  0
   -5.9320   -5.2880  -27.9410 C   0  0  0  0  0  0  0  0  0  0  0  0
   -4.5700   -4.7970  -27.6820 N   0  0  0  0  0  0  0  0  0  0  0  0
   -3.6170   -4.5800  -29.0580 S   0  0  0  0  0  0  0  0  0  0  0  0
   -3.8600   -3.2650  -29.6420 O   0  0  0  0  0  0  0  0  0  0  0  0
   -3.7610   -5.7680  -29.8870 O   0  0  0  0  0  0  0  0  0  0  0  0
   -1.9670   -4.5820  -28.3880 C   0  0  0  0  0  0  0  0  0  0  0  0
   -1.8600   -5.4310  -27.7070 H   0  0  0  0  0  0  0  0  0  0  0  0
   -1.7590   -3.6380  -27.8770 H   0  0  0  0  0  0  0  0  0  0  0  0
   -1.2890   -4.6990  -29.2380 H   0  0  0  0  0  0  0  0  0  0  0  0
   -4.5750   -3.6940  -26.7120 C   0  0  0  0  0  0  0  0  0  0  0  0
   -5.5240   -2.5540  -27.0800 C   0  0  0  0  0  0  0  0  0  0  0  0
   -5.1780   -2.0830  -28.0050 H   0  0  0  0  0  0  0  0  0  0  0  0
   -5.5260   -1.8050  -26.2840 H   0  0  0  0  0  0  0  0  0  0  0  0
   -3.5580   -3.3200  -26.5810 H   0  0  0  0  0  0  0  0  0  0  0  0
   -4.8790   -4.1340  -25.7540 H   0  0  0  0  0  0  0  0  0  0  0  0
   -6.2810   -5.7540  -27.0110 H   0  0  0  0  0  0  0  0  0  0  0  0
   -5.8760   -6.0540  -28.7170 H   0  0  0  0  0  0  0  0  0  0  0  0
   -7.9020   -4.5710  -28.4730 H   0  0  0  0  0  0  0  0  0  0  0  0
   -6.5740   -3.7350  -29.3040 H   0  0  0  0  0  0  0  0  0  0  0  0
   -7.2900   -3.4770  -26.4020 H   0  0  0  0  0  0  0  0  0  0  0  0
   -7.4700   -1.3550  -28.4320 H   0  0  0  0  0  0  0  0  0  0  0  0
   -8.7800   -2.5020  -28.1120 H   0  0  0  0  0  0  0  0  0  0  0  0
   -9.1480   -0.4740  -26.8650 H   0  0  0  0  0  0  0  0  0  0  0  0
   -7.5270   -0.5050  -26.1820 H   0  0  0  0  0  0  0  0  0  0  0  0
  -10.0770   -2.4120  -25.3710 C   0  0  0  0  0  0  0  0  0  0  0  0
  -10.4420   -2.9280  -26.4170 O   0  0  0  0  0  0  0  0  0  0  0  0
  -10.9560   -2.3120  -24.1430 C   0  0  0  0  0  0  0  0  0  0  0  0
  -12.3470   -2.3180  -24.2710 C   0  0  0  0  0  0  0  0  0  0  0  0
  -13.1890   -2.4110  -23.1810 C   0  0  0  0  0  0  0  0  0  0  0  0
  -12.5980   -2.4180  -21.9170 C   0  0  0  0  0  0  0  0  0  0  0  0
  -13.6250   -2.7220  -20.5470 Cl  0  0  0  0  0  0  0  0  0  0  0  0
  -11.2360   -2.2180  -21.7570 C   0  0  0  0  0  0  0  0  0  0  0  0
  -10.3860   -2.1810  -22.8740 C   0  0  0  0  0  0  0  0  0  0  0  0
  -10.8300   -2.0220  -20.7750 H   0  0  0  0  0  0  0  0  0  0  0  0
  -14.2670   -2.4770  -23.3110 H   0  0  0  0  0  0  0  0  0  0  0  0
  -12.7820   -2.2380  -25.2660 H   0  0  0  0  0  0  0  0  0  0  0  0
   -8.9470   -0.1930  -23.9460 H   0  0  0  0  0  0  0  0  0  0  0  0
   -7.3830   -1.0330  -24.0080 H   0  0  0  0  0  0  0  0  0  0  0  0
   -6.5570   -3.5410  -20.9180 H   0  0  0  0  0  0  0  0  0  0  0  0
   -5.9930   -2.6480  -22.3480 H   0  0  0  0  0  0  0  0  0  0  0  0
   -8.7080   -3.8930  -21.8420 H   0  0  0  0  0  0  0  0  0  0  0  0
   -6.9130   -3.5570  -24.2990 H   0  0  0  0  0  0  0  0  0  0  0  0
   -7.0640   -5.0030  -23.2790 H   0  0  0  0  0  0  0  0  0  0  0  0
   -8.4340   -4.4830  -24.2990 H   0  0  0  0  0  0  0  0  0  0  0  0
  1  2  1  0  0  0  0
  1 71  1  0  0  0  0
  1 72  1  0  0  0  0
  1 73  1  0  0  0  0
  2  3  1  0  0  0  0
  2 23  1  0  0  0  0
  2 70  1  1  0  0  0
  3  4  1  0  0  0  0
  3 68  1  0  0  0  0
  3 69  1  0  0  0  0
  4  5  1  0  0  0  0
  4 21  1  0  0  0  0
  5  6  2  0  0  0  0
  5 14  1  0  0  0  0
  6  7  1  0  0  0  0
  6 20  1  0  0  0  0
  7  8  2  0  0  0  0
  8  9  1  0  0  0  0
  8 19  1  0  0  0  0
  9 10  2  0  0  0  0
  9 14  1  0  0  0  0
 10 11  1  0  0  0  0
 10 18  1  0  0  0  0
 11 12  2  0  0  0  0
 11 17  1  0  0  0  0
 12 13  1  0  0  0  0
 12 16  1  0  0  0  0
 13 14  2  0  0  0  0
 13 15  1  0  0  0  0
 21 22  2  0  0  0  0
 23 21  1  1  0  0  0
 23 24  1  0  0  0  0
 23 62  1  0  0  0  0
 24 25  1  0  0  0  0
 24 66  1  0  0  0  0
 24 67  1  0  0  0  0
 25 26  1  0  0  0  0
 25 54  1  0  0  0  0
 26 27  1  0  0  0  0
 26 52  1  0  0  0  0
 26 53  1  0  0  0  0
 27 28  1  0  0  0  0
 27 50  1  0  0  0  0
 27 51  1  0  0  0  0
 28 29  1  0  0  0  0
 28 40  1  0  0  0  0
 28 49  1  0  0  0  0
 29 30  1  0  0  0  0
 29 47  1  0  0  0  0
 29 48  1  0  0  0  0
 30 31  1  0  0  0  0
 30 45  1  0  0  0  0
 30 46  1  0  0  0  0
 31 32  1  0  0  0  0
 31 39  1  0  0  0  0
 32 33  2  0  0  0  0
 32 34  2  0  0  0  0
 32 35  1  0  0  0  0
 35 36  1  0  0  0  0
 35 37  1  0  0  0  0
 35 38  1  0  0  0  0
 39 40  1  0  0  0  0
 39 43  1  0  0  0  0
 39 44  1  0  0  0  0
 40 41  1  0  0  0  0
 40 42  1  0  0  0  0
 54 55  2  0  0  0  0
 54 56  1  0  0  0  0
 56 57  2  0  0  0  0
 56 62  1  0  0  0  0
 57 58  1  0  0  0  0
 57 65  1  0  0  0  0
 58 59  2  0  0  0  0
 58 64  1  0  0  0  0
 59 60  1  0  0  0  0
 59 61  1  0  0  0  0
 61 62  2  0  0  0  0
 61 63  1  0  0  0  0
M  CHG  1  28   1
M  END
>  <MODEL>
       1

$$$$
