tmp_first_model_7_76.pdb
 OpenBabel08272520323D

 66 71  0  0  1  0  0  0  0  0999 V2000
   -8.1620   -3.7340  -23.9330 C   0  0  0  0  0  0  0  0  0  0  0  0
   -8.3480   -3.0070  -22.6050 C   0  0  1  0  0  0  0  0  0  0  0  0
   -7.0190   -2.5390  -21.9810 C   0  0  0  0  0  0  0  0  0  0  0  0
   -7.4060   -1.3910  -21.1860 N   0  0  0  0  0  0  0  0  0  0  0  0
   -6.6120   -0.8060  -20.1730 C   0  0  0  0  0  0  0  0  0  0  0  0
   -6.9210   -1.0350  -18.8550 C   0  0  0  0  0  0  0  0  0  0  0  0
   -6.2130   -0.5430  -17.8110 N   0  0  0  0  0  0  0  0  0  0  0  0
   -5.1790    0.2140  -18.0870 C   0  0  0  0  0  0  0  0  0  0  0  0
   -4.7560    0.5380  -19.4060 C   0  0  0  0  0  0  0  0  0  0  0  0
   -3.6270    1.3620  -19.6470 C   0  0  0  0  0  0  0  0  0  0  0  0
   -3.2480    1.6660  -20.9250 C   0  0  0  0  0  0  0  0  0  0  0  0
   -3.9830    1.1700  -22.0220 C   0  0  0  0  0  0  0  0  0  0  0  0
   -5.0800    0.3640  -21.8180 C   0  0  0  0  0  0  0  0  0  0  0  0
   -5.4890    0.0170  -20.5000 C   0  0  0  0  0  0  0  0  0  0  0  0
   -5.6260   -0.0120  -22.6790 H   0  0  0  0  0  0  0  0  0  0  0  0
   -3.6740    1.4240  -23.0340 H   0  0  0  0  0  0  0  0  0  0  0  0
   -2.3800    2.2940  -21.1000 H   0  0  0  0  0  0  0  0  0  0  0  0
   -3.0810    1.7470  -18.7910 H   0  0  0  0  0  0  0  0  0  0  0  0
   -4.6000    0.6070  -17.2480 H   0  0  0  0  0  0  0  0  0  0  0  0
   -7.7830   -1.6500  -18.6080 H   0  0  0  0  0  0  0  0  0  0  0  0
   -8.6670   -0.9300  -21.4600 C   0  0  0  0  0  0  0  0  0  0  0  0
   -9.2120   -0.0040  -20.8830 O   0  0  0  0  0  0  0  0  0  0  0  0
   -9.2470   -1.7440  -22.6300 C   0  0  1  0  0  0  0  0  0  0  0  0
   -9.0680   -0.9240  -23.9370 C   0  0  0  0  0  0  0  0  0  0  0  0
   -9.8350    0.3010  -23.8970 N   0  0  0  0  0  0  0  0  0  0  0  0
   -9.2360    1.5460  -24.3040 C   0  0  0  0  0  0  0  0  0  0  0  0
   -8.4280    2.1750  -23.1640 C   0  0  0  0  0  0  0  0  0  0  0  0
   -7.8530    3.4980  -23.5990 N   0  3  0  0  0  0  0  0  0  0  0  0
   -8.7940    4.6440  -23.2680 C   0  0  0  0  0  0  0  0  0  0  0  0
   -8.5130    5.2790  -21.8860 C   0  0  0  0  0  0  0  0  0  0  0  0
   -7.7500    4.4440  -21.0350 O   0  0  0  0  0  0  0  0  0  0  0  0
   -6.4940    4.0320  -21.5550 C   0  0  0  0  0  0  0  0  0  0  0  0
   -6.4870    3.8450  -23.0750 C   0  0  0  0  0  0  0  0  0  0  0  0
   -6.1760    4.7620  -23.5860 H   0  0  0  0  0  0  0  0  0  0  0  0
   -5.7660    3.0640  -23.3400 H   0  0  0  0  0  0  0  0  0  0  0  0
   -5.7220    4.7630  -21.2760 H   0  0  0  0  0  0  0  0  0  0  0  0
   -6.2260    3.0750  -21.0840 H   0  0  0  0  0  0  0  0  0  0  0  0
   -9.4730    5.4660  -21.3860 H   0  0  0  0  0  0  0  0  0  0  0  0
   -8.0290    6.2580  -22.0050 H   0  0  0  0  0  0  0  0  0  0  0  0
   -8.6950    5.3930  -24.0560 H   0  0  0  0  0  0  0  0  0  0  0  0
   -9.8140    4.2480  -23.2990 H   0  0  0  0  0  0  0  0  0  0  0  0
   -7.7690    3.4270  -24.6270 H   0  0  0  0  0  0  0  0  0  0  0  0
   -9.0570    2.3410  -22.2870 H   0  0  0  0  0  0  0  0  0  0  0  0
   -7.6180    1.5060  -22.8600 H   0  0  0  0  0  0  0  0  0  0  0  0
  -10.0480    2.2110  -24.6130 H   0  0  0  0  0  0  0  0  0  0  0  0
   -8.5900    1.3520  -25.1700 H   0  0  0  0  0  0  0  0  0  0  0  0
  -11.0850    0.3530  -23.3670 C   0  0  0  0  0  0  0  0  0  0  0  0
  -11.7300    1.3940  -23.3190 O   0  0  0  0  0  0  0  0  0  0  0  0
  -11.6170   -0.9440  -22.8450 C   0  0  0  0  0  0  0  0  0  0  0  0
  -12.9960   -1.0940  -22.7180 C   0  0  0  0  0  0  0  0  0  0  0  0
  -13.5100   -2.1610  -22.0100 C   0  0  0  0  0  0  0  0  0  0  0  0
  -12.6200   -3.0750  -21.4470 C   0  0  0  0  0  0  0  0  0  0  0  0
  -13.2270   -4.2400  -20.3120 Cl  0  0  0  0  0  0  0  0  0  0  0  0
  -11.2590   -3.0200  -21.6920 C   0  0  0  0  0  0  0  0  0  0  0  0
  -10.7340   -1.9500  -22.4230 C   0  0  0  0  0  0  0  0  0  0  0  0
  -10.6310   -3.7980  -21.2700 H   0  0  0  0  0  0  0  0  0  0  0  0
  -14.5750   -2.2710  -21.8340 H   0  0  0  0  0  0  0  0  0  0  0  0
  -13.6460   -0.3400  -23.1520 H   0  0  0  0  0  0  0  0  0  0  0  0
   -8.0130   -0.6710  -24.1040 H   0  0  0  0  0  0  0  0  0  0  0  0
   -9.4210   -1.5370  -24.7750 H   0  0  0  0  0  0  0  0  0  0  0  0
   -6.2890   -2.2580  -22.7540 H   0  0  0  0  0  0  0  0  0  0  0  0
   -6.5660   -3.3090  -21.3460 H   0  0  0  0  0  0  0  0  0  0  0  0
   -8.7950   -3.7010  -21.8890 H   0  0  0  0  0  0  0  0  0  0  0  0
   -9.1220   -3.9990  -24.3890 H   0  0  0  0  0  0  0  0  0  0  0  0
   -7.6080   -3.1100  -24.6440 H   0  0  0  0  0  0  0  0  0  0  0  0
   -7.5890   -4.6560  -23.7930 H   0  0  0  0  0  0  0  0  0  0  0  0
  1  2  1  0  0  0  0
  1 64  1  0  0  0  0
  1 65  1  0  0  0  0
  1 66  1  0  0  0  0
  2  3  1  0  0  0  0
  2 23  1  0  0  0  0
  2 63  1  1  0  0  0
  3  4  1  0  0  0  0
  3 61  1  0  0  0  0
  3 62  1  0  0  0  0
  4  5  1  0  0  0  0
  4 21  1  0  0  0  0
  5  6  2  0  0  0  0
  5 14  1  0  0  0  0
  6  7  1  0  0  0  0
  6 20  1  0  0  0  0
  7  8  2  0  0  0  0
  8  9  1  0  0  0  0
  8 19  1  0  0  0  0
  9 10  2  0  0  0  0
  9 14  1  0  0  0  0
 10 11  1  0  0  0  0
 10 18  1  0  0  0  0
 11 12  2  0  0  0  0
 11 17  1  0  0  0  0
 12 13  1  0  0  0  0
 12 16  1  0  0  0  0
 13 14  2  0  0  0  0
 13 15  1  0  0  0  0
 21 22  2  0  0  0  0
 23 21  1  1  0  0  0
 23 24  1  0  0  0  0
 23 55  1  0  0  0  0
 24 25  1  0  0  0  0
 24 59  1  0  0  0  0
 24 60  1  0  0  0  0
 25 26  1  0  0  0  0
 25 47  1  0  0  0  0
 26 27  1  0  0  0  0
 26 45  1  0  0  0  0
 26 46  1  0  0  0  0
 27 28  1  0  0  0  0
 27 43  1  0  0  0  0
 27 44  1  0  0  0  0
 28 29  1  0  0  0  0
 28 33  1  0  0  0  0
 28 42  1  0  0  0  0
 29 30  1  0  0  0  0
 29 40  1  0  0  0  0
 29 41  1  0  0  0  0
 30 31  1  0  0  0  0
 30 38  1  0  0  0  0
 30 39  1  0  0  0  0
 31 32  1  0  0  0  0
 32 33  1  0  0  0  0
 32 36  1  0  0  0  0
 32 37  1  0  0  0  0
 33 34  1  0  0  0  0
 33 35  1  0  0  0  0
 47 48  2  0  0  0  0
 47 49  1  0  0  0  0
 49 50  2  0  0  0  0
 49 55  1  0  0  0  0
 50 51  1  0  0  0  0
 50 58  1  0  0  0  0
 51 52  2  0  0  0  0
 51 57  1  0  0  0  0
 52 53  1  0  0  0  0
 52 54  1  0  0  0  0
 54 55  2  0  0  0  0
 54 56  1  0  0  0  0
M  CHG  1  28   1
M  END
>  <MODEL>
       1

$$$$
