tmp_first_model_7_74.pdb
 OpenBabel08272520323D

 43 47  0  0  1  0  0  0  0  0999 V2000
   -9.4230   -0.4510  -20.9900 O   0  0  0  0  0  0  0  0  0  0  0  0
   -8.7430   -1.3640  -21.3800 C   0  0  0  0  0  0  0  0  0  0  0  0
   -9.1370   -2.4540  -22.1110 N   0  0  0  0  0  0  0  0  0  0  0  0
   -8.0400   -3.1480  -22.7400 C   0  0  1  0  0  0  0  0  0  0  0  0
   -8.1050   -4.6900  -22.7160 C   0  0  0  0  0  0  0  0  0  0  0  0
   -8.2240   -4.7220  -24.2750 C   0  0  2  0  0  0  0  0  0  0  0  0
   -7.1760   -5.5210  -24.9850 C   0  0  0  0  0  0  0  0  0  0  0  0
   -5.8200   -5.2770  -24.7400 C   0  0  0  0  0  0  0  0  0  0  0  0
   -4.8300   -6.0100  -25.3830 C   0  0  0  0  0  0  0  0  0  0  0  0
   -5.1790   -7.0110  -26.2880 C   0  0  0  0  0  0  0  0  0  0  0  0
   -6.5190   -7.2720  -26.5440 C   0  0  0  0  0  0  0  0  0  0  0  0
   -7.4980   -6.5320  -25.8910 C   0  0  0  0  0  0  0  0  0  0  0  0
   -9.1670   -6.9160  -26.2460 Cl  0  0  0  0  0  0  0  0  0  0  0  0
   -6.8230   -8.0380  -27.2500 H   0  0  0  0  0  0  0  0  0  0  0  0
   -4.4100   -7.5860  -26.7960 H   0  0  0  0  0  0  0  0  0  0  0  0
   -3.7860   -5.7920  -25.1770 H   0  0  0  0  0  0  0  0  0  0  0  0
   -5.5450   -4.4940  -24.0300 H   0  0  0  0  0  0  0  0  0  0  0  0
   -8.0350   -3.1700  -24.2980 C   0  0  0  0  0  0  0  0  0  0  0  0
   -8.8570   -2.6030  -24.7510 H   0  0  0  0  0  0  0  0  0  0  0  0
   -7.0980   -2.8280  -24.7560 H   0  0  0  0  0  0  0  0  0  0  0  0
   -9.2250   -5.0180  -24.6030 H   0  0  0  0  0  0  0  0  0  0  0  0
   -8.9690   -5.0680  -22.1630 H   0  0  0  0  0  0  0  0  0  0  0  0
   -7.1930   -5.1500  -22.3160 H   0  0  0  0  0  0  0  0  0  0  0  0
   -6.8390   -2.5170  -22.0520 C   0  0  0  0  0  0  0  0  0  0  0  0
   -5.6780   -2.8070  -22.2250 O   0  0  0  0  0  0  0  0  0  0  0  0
   -7.3400   -1.5170  -21.2070 N   0  0  0  0  0  0  0  0  0  0  0  0
   -6.5830   -0.8580  -20.1890 C   0  0  0  0  0  0  0  0  0  0  0  0
   -6.9070   -1.0600  -18.8690 C   0  0  0  0  0  0  0  0  0  0  0  0
   -6.2090   -0.5450  -17.8310 N   0  0  0  0  0  0  0  0  0  0  0  0
   -5.1740    0.2060  -18.1010 C   0  0  0  0  0  0  0  0  0  0  0  0
   -4.7410    0.5210  -19.4150 C   0  0  0  0  0  0  0  0  0  0  0  0
   -3.6110    1.3510  -19.6410 C   0  0  0  0  0  0  0  0  0  0  0  0
   -3.2230    1.6580  -20.9140 C   0  0  0  0  0  0  0  0  0  0  0  0
   -3.9580    1.1480  -22.0090 C   0  0  0  0  0  0  0  0  0  0  0  0
   -5.0500    0.3380  -21.8150 C   0  0  0  0  0  0  0  0  0  0  0  0
   -5.4680   -0.0130  -20.5020 C   0  0  0  0  0  0  0  0  0  0  0  0
   -5.6000   -0.0500  -22.6660 H   0  0  0  0  0  0  0  0  0  0  0  0
   -3.6530    1.4050  -23.0170 H   0  0  0  0  0  0  0  0  0  0  0  0
   -2.3690    2.3080  -21.0900 H   0  0  0  0  0  0  0  0  0  0  0  0
   -3.0830    1.7540  -18.7820 H   0  0  0  0  0  0  0  0  0  0  0  0
   -4.6260    0.6090  -17.2500 H   0  0  0  0  0  0  0  0  0  0  0  0
   -7.7540   -1.6830  -18.5950 H   0  0  0  0  0  0  0  0  0  0  0  0
  -10.1000   -2.6000  -22.3700 H   0  0  0  0  0  0  0  0  0  0  0  0
  1  2  2  0  0  0  0
  2  3  1  0  0  0  0
  2 26  1  0  0  0  0
  3  4  1  0  0  0  0
  3 43  1  0  0  0  0
  4  5  1  0  0  0  0
  4 18  1  0  0  0  0
  4 24  1  1  0  0  0
  5  6  1  0  0  0  0
  5 22  1  0  0  0  0
  5 23  1  0  0  0  0
  6  7  1  0  0  0  0
  6 18  1  0  0  0  0
  6 21  1  6  0  0  0
  7  8  2  0  0  0  0
  7 12  1  0  0  0  0
  8  9  1  0  0  0  0
  8 17  1  0  0  0  0
  9 10  2  0  0  0  0
  9 16  1  0  0  0  0
 10 11  1  0  0  0  0
 10 15  1  0  0  0  0
 11 12  2  0  0  0  0
 11 14  1  0  0  0  0
 12 13  1  0  0  0  0
 18 19  1  0  0  0  0
 18 20  1  0  0  0  0
 24 25  2  0  0  0  0
 24 26  1  0  0  0  0
 26 27  1  0  0  0  0
 27 28  2  0  0  0  0
 27 36  1  0  0  0  0
 28 29  1  0  0  0  0
 28 42  1  0  0  0  0
 29 30  2  0  0  0  0
 30 31  1  0  0  0  0
 30 41  1  0  0  0  0
 31 32  2  0  0  0  0
 31 36  1  0  0  0  0
 32 33  1  0  0  0  0
 32 40  1  0  0  0  0
 33 34  2  0  0  0  0
 33 39  1  0  0  0  0
 34 35  1  0  0  0  0
 34 38  1  0  0  0  0
 35 36  2  0  0  0  0
 35 37  1  0  0  0  0
M  END
>  <MODEL>
       1

$$$$
