tmp_first_model_18_29.pdb
 OpenBabel08282502533D

 55 60  0  0  1  0  0  0  0  0999 V2000
  -10.2860   -1.1550  -23.5520 C   0  0  0  0  0  0  0  0  0  0  0  0
   -8.8770   -1.4150  -23.0230 C   0  0  1  0  0  0  0  0  0  0  0  0
   -8.3950   -0.4600  -21.9160 C   0  0  0  0  0  0  0  0  0  0  0  0
   -7.3850   -1.2480  -21.2260 N   0  0  0  0  0  0  0  0  0  0  0  0
   -6.5940   -0.7640  -20.1640 C   0  0  0  0  0  0  0  0  0  0  0  0
   -6.8970   -1.0640  -18.8600 C   0  0  0  0  0  0  0  0  0  0  0  0
   -6.2210   -0.5590  -17.7970 N   0  0  0  0  0  0  0  0  0  0  0  0
   -5.2060    0.2330  -18.0530 C   0  0  0  0  0  0  0  0  0  0  0  0
   -4.7530    0.5700  -19.3650 C   0  0  0  0  0  0  0  0  0  0  0  0
   -3.6200    1.3880  -19.6110 C   0  0  0  0  0  0  0  0  0  0  0  0
   -3.2120    1.6340  -20.8930 C   0  0  0  0  0  0  0  0  0  0  0  0
   -3.9040    1.0800  -21.9940 C   0  0  0  0  0  0  0  0  0  0  0  0
   -5.0090    0.2950  -21.7850 C   0  0  0  0  0  0  0  0  0  0  0  0
   -5.4600    0.0440  -20.4620 C   0  0  0  0  0  0  0  0  0  0  0  0
   -5.5370   -0.1570  -22.6180 H   0  0  0  0  0  0  0  0  0  0  0  0
   -3.5620    1.2690  -23.0070 H   0  0  0  0  0  0  0  0  0  0  0  0
   -2.3400    2.2550  -21.0780 H   0  0  0  0  0  0  0  0  0  0  0  0
   -3.0900    1.7980  -18.7560 H   0  0  0  0  0  0  0  0  0  0  0  0
   -4.6760    0.6410  -17.1960 H   0  0  0  0  0  0  0  0  0  0  0  0
   -7.7190   -1.7400  -18.6260 H   0  0  0  0  0  0  0  0  0  0  0  0
   -7.4740   -2.5990  -21.4620 C   0  0  0  0  0  0  0  0  0  0  0  0
   -6.7050   -3.4130  -20.9850 O   0  0  0  0  0  0  0  0  0  0  0  0
   -8.6740   -2.8330  -22.3870 C   0  0  1  0  0  0  0  0  0  0  0  0
   -9.8730   -3.2360  -21.4790 C   0  0  0  0  0  0  0  0  0  0  0  0
  -11.0440   -3.6990  -22.2180 N   0  0  0  0  0  0  0  0  0  0  0  0
  -12.4190   -3.6690  -21.6980 C   0  0  0  0  0  0  0  0  0  0  0  0
  -13.2880   -2.5470  -22.2240 C   0  0  0  0  0  0  0  0  0  0  0  0
  -14.1220   -1.6040  -21.5950 C   0  0  0  0  0  0  0  0  0  0  0  0
  -14.8110   -0.9370  -22.5120 N   0  0  0  0  0  0  0  0  0  0  0  0
  -14.3820   -1.4650  -23.6370 N   0  0  0  0  0  0  0  0  0  0  0  0
  -13.4940   -2.4320  -23.5340 N   0  0  0  0  0  0  0  0  0  0  0  0
  -14.7360   -1.1520  -24.5280 H   0  0  0  0  0  0  0  0  0  0  0  0
  -14.2670   -1.3770  -20.5500 H   0  0  0  0  0  0  0  0  0  0  0  0
  -12.4360   -3.6910  -20.6100 H   0  0  0  0  0  0  0  0  0  0  0  0
  -12.8840   -4.5960  -22.0500 H   0  0  0  0  0  0  0  0  0  0  0  0
  -10.8540   -4.5360  -23.2820 C   0  0  0  0  0  0  0  0  0  0  0  0
  -11.7820   -5.1370  -23.7880 O   0  0  0  0  0  0  0  0  0  0  0  0
   -9.4720   -4.7020  -23.8240 C   0  0  0  0  0  0  0  0  0  0  0  0
   -9.2820   -5.6870  -24.7930 C   0  0  0  0  0  0  0  0  0  0  0  0
   -8.0390   -5.8880  -25.3660 C   0  0  0  0  0  0  0  0  0  0  0  0
   -6.9860   -5.0760  -24.9510 C   0  0  0  0  0  0  0  0  0  0  0  0
   -5.7890   -5.2240  -25.5490 F   0  0  0  0  0  0  0  0  0  0  0  0
   -7.1400   -4.0990  -23.9830 C   0  0  0  0  0  0  0  0  0  0  0  0
   -8.4070   -3.9110  -23.4020 C   0  0  0  0  0  0  0  0  0  0  0  0
   -6.2820   -3.4940  -23.6920 H   0  0  0  0  0  0  0  0  0  0  0  0
   -7.8740   -6.6330  -26.1420 H   0  0  0  0  0  0  0  0  0  0  0  0
  -10.1320   -6.2950  -25.0810 H   0  0  0  0  0  0  0  0  0  0  0  0
   -9.5060   -4.0340  -20.8360 H   0  0  0  0  0  0  0  0  0  0  0  0
  -10.1200   -2.3870  -20.8350 H   0  0  0  0  0  0  0  0  0  0  0  0
   -7.9760    0.4770  -22.2960 H   0  0  0  0  0  0  0  0  0  0  0  0
   -9.2090   -0.1840  -21.2300 H   0  0  0  0  0  0  0  0  0  0  0  0
   -8.1700   -1.3460  -23.8640 H   0  0  0  0  0  0  0  0  0  0  0  0
  -10.4030   -0.1290  -23.9120 H   0  0  0  0  0  0  0  0  0  0  0  0
  -10.5180   -1.8500  -24.3670 H   0  0  0  0  0  0  0  0  0  0  0  0
  -11.0380   -1.3260  -22.7780 H   0  0  0  0  0  0  0  0  0  0  0  0
  1  2  1  0  0  0  0
  1 53  1  0  0  0  0
  1 54  1  0  0  0  0
  1 55  1  0  0  0  0
  2  3  1  0  0  0  0
  2 23  1  0  0  0  0
  2 52  1  6  0  0  0
  3  4  1  0  0  0  0
  3 50  1  0  0  0  0
  3 51  1  0  0  0  0
  4  5  1  0  0  0  0
  4 21  1  0  0  0  0
  5  6  2  0  0  0  0
  5 14  1  0  0  0  0
  6  7  1  0  0  0  0
  6 20  1  0  0  0  0
  7  8  2  0  0  0  0
  8  9  1  0  0  0  0
  8 19  1  0  0  0  0
  9 10  2  0  0  0  0
  9 14  1  0  0  0  0
 10 11  1  0  0  0  0
 10 18  1  0  0  0  0
 11 12  2  0  0  0  0
 11 17  1  0  0  0  0
 12 13  1  0  0  0  0
 12 16  1  0  0  0  0
 13 14  2  0  0  0  0
 13 15  1  0  0  0  0
 21 22  2  0  0  0  0
 23 21  1  1  0  0  0
 23 24  1  0  0  0  0
 23 44  1  0  0  0  0
 24 25  1  0  0  0  0
 24 48  1  0  0  0  0
 24 49  1  0  0  0  0
 25 26  1  0  0  0  0
 25 36  1  0  0  0  0
 26 27  1  0  0  0  0
 26 34  1  0  0  0  0
 26 35  1  0  0  0  0
 27 28  1  0  0  0  0
 27 31  2  0  0  0  0
 28 29  2  0  0  0  0
 28 33  1  0  0  0  0
 29 30  1  0  0  0  0
 30 31  1  0  0  0  0
 30 32  1  0  0  0  0
 36 37  2  0  0  0  0
 36 38  1  0  0  0  0
 38 39  2  0  0  0  0
 38 44  1  0  0  0  0
 39 40  1  0  0  0  0
 39 47  1  0  0  0  0
 40 41  2  0  0  0  0
 40 46  1  0  0  0  0
 41 42  1  0  0  0  0
 41 43  1  0  0  0  0
 43 44  2  0  0  0  0
 43 45  1  0  0  0  0
M  END
>  <MODEL>
       1

$$$$
