tmp_first_model_10_56.pdb
 OpenBabel08272522163D

 57 62  0  0  1  0  0  0  0  0999 V2000
   -8.2780   -4.1530  -23.4800 C   0  0  0  0  0  0  0  0  0  0  0  0
   -8.5220   -3.0000  -22.5230 C   0  0  1  0  0  0  0  0  0  0  0  0
   -7.3900   -2.8070  -21.5030 C   0  0  0  0  0  0  0  0  0  0  0  0
   -7.4440   -1.3880  -21.2010 N   0  0  0  0  0  0  0  0  0  0  0  0
   -6.6620   -0.7880  -20.1840 C   0  0  0  0  0  0  0  0  0  0  0  0
   -6.9170   -1.0980  -18.8720 C   0  0  0  0  0  0  0  0  0  0  0  0
   -6.2280   -0.6110  -17.8120 N   0  0  0  0  0  0  0  0  0  0  0  0
   -5.2170    0.1840  -18.0730 C   0  0  0  0  0  0  0  0  0  0  0  0
   -4.8310    0.5760  -19.3860 C   0  0  0  0  0  0  0  0  0  0  0  0
   -3.7210    1.4340  -19.6040 C   0  0  0  0  0  0  0  0  0  0  0  0
   -3.4310    1.8890  -20.8590 C   0  0  0  0  0  0  0  0  0  0  0  0
   -4.2230    1.4820  -21.9580 C   0  0  0  0  0  0  0  0  0  0  0  0
   -5.2190    0.5560  -21.7940 C   0  0  0  0  0  0  0  0  0  0  0  0
   -5.5870    0.1100  -20.4880 C   0  0  0  0  0  0  0  0  0  0  0  0
   -5.7660    0.2090  -22.6680 H   0  0  0  0  0  0  0  0  0  0  0  0
   -4.0200    1.8980  -22.9390 H   0  0  0  0  0  0  0  0  0  0  0  0
   -2.6360    2.6120  -21.0110 H   0  0  0  0  0  0  0  0  0  0  0  0
   -3.1160    1.7180  -18.7460 H   0  0  0  0  0  0  0  0  0  0  0  0
   -4.6430    0.5600  -17.2240 H   0  0  0  0  0  0  0  0  0  0  0  0
   -7.7490   -1.7590  -18.6340 H   0  0  0  0  0  0  0  0  0  0  0  0
   -8.1620   -0.6530  -22.1190 C   0  0  0  0  0  0  0  0  0  0  0  0
   -8.2850    0.5570  -22.0830 O   0  0  0  0  0  0  0  0  0  0  0  0
   -8.7400   -1.5930  -23.1890 C   0  0  1  0  0  0  0  0  0  0  0  0
   -7.9510   -1.3200  -24.4940 C   0  0  0  0  0  0  0  0  0  0  0  0
   -8.5920   -1.8870  -25.6770 N   0  0  0  0  0  0  0  0  0  0  0  0
   -7.7810   -2.3050  -26.8100 C   0  0  0  0  0  0  0  0  0  0  0  0
   -7.6820   -3.8110  -26.8630 C   0  0  0  0  0  0  0  0  0  0  0  0
   -8.7730   -4.4930  -27.2410 N   0  0  0  0  0  0  0  0  0  0  0  0
   -8.6290   -5.8120  -27.3610 C   0  0  0  0  0  0  0  0  0  0  0  0
   -7.4370   -6.4620  -27.0700 C   0  0  0  0  0  0  0  0  0  0  0  0
   -6.3930   -5.6580  -26.6490 C   0  0  0  0  0  0  0  0  0  0  0  0
   -6.5060   -4.3320  -26.5130 N   0  0  0  0  0  0  0  0  0  0  0  0
   -5.4160   -6.0860  -26.4290 H   0  0  0  0  0  0  0  0  0  0  0  0
   -7.3320   -7.5410  -27.1630 H   0  0  0  0  0  0  0  0  0  0  0  0
   -9.4910   -6.3810  -27.7140 H   0  0  0  0  0  0  0  0  0  0  0  0
   -6.7790   -1.8740  -26.7240 H   0  0  0  0  0  0  0  0  0  0  0  0
   -8.2770   -1.9340  -27.7160 H   0  0  0  0  0  0  0  0  0  0  0  0
   -9.9290   -1.7390  -25.9300 C   0  0  0  0  0  0  0  0  0  0  0  0
  -10.4130   -1.8900  -27.0410 O   0  0  0  0  0  0  0  0  0  0  0  0
  -10.7560   -1.4060  -24.7490 C   0  0  0  0  0  0  0  0  0  0  0  0
  -12.1180   -1.2360  -24.9760 C   0  0  0  0  0  0  0  0  0  0  0  0
  -12.9720   -0.9400  -23.9390 C   0  0  0  0  0  0  0  0  0  0  0  0
  -12.4170   -0.8500  -22.6680 C   0  0  0  0  0  0  0  0  0  0  0  0
  -13.2480   -0.6100  -21.6490 F   0  0  0  0  0  0  0  0  0  0  0  0
  -11.0680   -1.0250  -22.4140 C   0  0  0  0  0  0  0  0  0  0  0  0
  -10.2030   -1.3110  -23.4700 C   0  0  0  0  0  0  0  0  0  0  0  0
  -10.6750   -0.9460  -21.4080 H   0  0  0  0  0  0  0  0  0  0  0  0
  -14.0360   -0.7820  -24.0940 H   0  0  0  0  0  0  0  0  0  0  0  0
  -12.4710   -1.3580  -25.9930 H   0  0  0  0  0  0  0  0  0  0  0  0
   -7.8640   -0.2290  -24.6110 H   0  0  0  0  0  0  0  0  0  0  0  0
   -6.9330   -1.7230  -24.4170 H   0  0  0  0  0  0  0  0  0  0  0  0
   -7.5460   -3.4000  -20.5960 H   0  0  0  0  0  0  0  0  0  0  0  0
   -6.4060   -3.0870  -21.9120 H   0  0  0  0  0  0  0  0  0  0  0  0
   -9.4370   -3.2000  -21.9440 H   0  0  0  0  0  0  0  0  0  0  0  0
   -7.3260   -4.0170  -24.0030 H   0  0  0  0  0  0  0  0  0  0  0  0
   -8.2360   -5.1000  -22.9320 H   0  0  0  0  0  0  0  0  0  0  0  0
   -9.0820   -4.2080  -24.2210 H   0  0  0  0  0  0  0  0  0  0  0  0
  1  2  1  0  0  0  0
  1 55  1  0  0  0  0
  1 56  1  0  0  0  0
  1 57  1  0  0  0  0
  2  3  1  0  0  0  0
  2 23  1  0  0  0  0
  2 54  1  1  0  0  0
  3  4  1  0  0  0  0
  3 52  1  0  0  0  0
  3 53  1  0  0  0  0
  4  5  1  0  0  0  0
  4 21  1  0  0  0  0
  5  6  2  0  0  0  0
  5 14  1  0  0  0  0
  6  7  1  0  0  0  0
  6 20  1  0  0  0  0
  7  8  2  0  0  0  0
  8  9  1  0  0  0  0
  8 19  1  0  0  0  0
  9 10  2  0  0  0  0
  9 14  1  0  0  0  0
 10 11  1  0  0  0  0
 10 18  1  0  0  0  0
 11 12  2  0  0  0  0
 11 17  1  0  0  0  0
 12 13  1  0  0  0  0
 12 16  1  0  0  0  0
 13 14  2  0  0  0  0
 13 15  1  0  0  0  0
 21 22  2  0  0  0  0
 23 21  1  1  0  0  0
 23 24  1  0  0  0  0
 23 46  1  0  0  0  0
 24 25  1  0  0  0  0
 24 50  1  0  0  0  0
 24 51  1  0  0  0  0
 25 26  1  0  0  0  0
 25 38  1  0  0  0  0
 26 27  1  0  0  0  0
 26 36  1  0  0  0  0
 26 37  1  0  0  0  0
 27 28  2  0  0  0  0
 27 32  1  0  0  0  0
 28 29  1  0  0  0  0
 29 30  2  0  0  0  0
 29 35  1  0  0  0  0
 30 31  1  0  0  0  0
 30 34  1  0  0  0  0
 31 32  2  0  0  0  0
 31 33  1  0  0  0  0
 38 39  2  0  0  0  0
 38 40  1  0  0  0  0
 40 41  2  0  0  0  0
 40 46  1  0  0  0  0
 41 42  1  0  0  0  0
 41 49  1  0  0  0  0
 42 43  2  0  0  0  0
 42 48  1  0  0  0  0
 43 44  1  0  0  0  0
 43 45  1  0  0  0  0
 45 46  2  0  0  0  0
 45 47  1  0  0  0  0
M  END
>  <MODEL>
       1

$$$$
