tmp_first_model_14_62.pdb
 OpenBabel08282500413D

 44 47  0  0  0  0  0  0  0  0999 V2000
   -8.4630    0.7480  -21.4980 O   0  0  0  0  0  0  0  0  0  0  0  0
   -8.5270   -0.4400  -21.7800 C   0  0  0  0  0  0  0  0  0  0  0  0
   -7.4640   -1.4250  -21.2810 C   0  0  0  0  0  0  0  0  0  0  0  0
   -6.5970   -0.8240  -20.2070 C   0  0  0  0  0  0  0  0  0  0  0  0
   -6.9150   -1.0160  -18.8880 C   0  0  0  0  0  0  0  0  0  0  0  0
   -6.2440   -0.4880  -17.8310 N   0  0  0  0  0  0  0  0  0  0  0  0
   -5.1890    0.2410  -18.0950 C   0  0  0  0  0  0  0  0  0  0  0  0
   -4.7400    0.5320  -19.4080 C   0  0  0  0  0  0  0  0  0  0  0  0
   -3.6070    1.3500  -19.6390 C   0  0  0  0  0  0  0  0  0  0  0  0
   -3.2150    1.6460  -20.9160 C   0  0  0  0  0  0  0  0  0  0  0  0
   -3.9400    1.1290  -22.0150 C   0  0  0  0  0  0  0  0  0  0  0  0
   -5.0400    0.3310  -21.8140 C   0  0  0  0  0  0  0  0  0  0  0  0
   -5.4710    0.0030  -20.5010 C   0  0  0  0  0  0  0  0  0  0  0  0
   -5.6060   -0.0400  -22.6650 H   0  0  0  0  0  0  0  0  0  0  0  0
   -3.6250    1.3780  -23.0270 H   0  0  0  0  0  0  0  0  0  0  0  0
   -2.3610    2.2960  -21.0920 H   0  0  0  0  0  0  0  0  0  0  0  0
   -3.0770    1.7510  -18.7750 H   0  0  0  0  0  0  0  0  0  0  0  0
   -4.6260    0.6440  -17.2490 H   0  0  0  0  0  0  0  0  0  0  0  0
   -7.7590   -1.6510  -18.6140 H   0  0  0  0  0  0  0  0  0  0  0  0
   -7.9970   -2.2900  -20.8700 H   0  0  0  0  0  0  0  0  0  0  0  0
   -6.8770   -1.8030  -22.1300 H   0  0  0  0  0  0  0  0  0  0  0  0
   -9.5740   -0.9560  -22.4980 N   0  0  0  0  0  0  0  0  0  0  0  0
  -10.6270   -0.0100  -22.8570 C   0  0  0  0  0  0  0  0  0  0  0  0
  -11.9110   -0.7430  -23.2740 C   0  0  0  0  0  0  0  0  0  0  0  0
  -12.1010   -2.1060  -22.5830 C   0  0  0  0  0  0  0  0  0  0  0  0
  -13.3830   -2.7830  -23.0190 C   0  0  0  0  0  0  0  0  0  0  0  0
  -14.6800   -2.4340  -22.3700 C   0  0  0  0  0  0  0  0  0  0  0  0
  -14.0740   -3.7920  -22.1470 C   0  0  0  0  0  0  0  0  0  0  0  0
  -13.6190   -4.0130  -21.1830 H   0  0  0  0  0  0  0  0  0  0  0  0
  -14.5590   -4.6500  -22.5990 H   0  0  0  0  0  0  0  0  0  0  0  0
  -14.6890   -1.7240  -21.5480 H   0  0  0  0  0  0  0  0  0  0  0  0
  -15.5200   -2.3480  -23.0450 H   0  0  0  0  0  0  0  0  0  0  0  0
  -13.4520   -2.9670  -24.0900 H   0  0  0  0  0  0  0  0  0  0  0  0
  -10.8880   -3.0350  -22.7920 C   0  0  0  0  0  0  0  0  0  0  0  0
   -9.6300   -2.2470  -23.1810 C   0  0  0  0  0  0  0  0  0  0  0  0
   -9.6430   -2.0810  -24.2700 H   0  0  0  0  0  0  0  0  0  0  0  0
   -8.7230   -2.8180  -22.9670 H   0  0  0  0  0  0  0  0  0  0  0  0
  -10.7230   -3.6160  -21.8770 H   0  0  0  0  0  0  0  0  0  0  0  0
  -11.0890   -3.7650  -23.5850 H   0  0  0  0  0  0  0  0  0  0  0  0
  -12.1780   -1.9130  -21.5110 H   0  0  0  0  0  0  0  0  0  0  0  0
  -12.7810   -0.0960  -23.0930 H   0  0  0  0  0  0  0  0  0  0  0  0
  -11.8660   -0.9050  -24.3570 H   0  0  0  0  0  0  0  0  0  0  0  0
  -10.7790    0.6410  -21.9930 H   0  0  0  0  0  0  0  0  0  0  0  0
  -10.2630    0.6300  -23.6800 H   0  0  0  0  0  0  0  0  0  0  0  0
  1  2  2  0  0  0  0
  2  3  1  0  0  0  0
  2 22  1  0  0  0  0
  3  4  1  0  0  0  0
  3 20  1  0  0  0  0
  3 21  1  0  0  0  0
  4  5  2  0  0  0  0
  4 13  1  0  0  0  0
  5  6  1  0  0  0  0
  5 19  1  0  0  0  0
  6  7  2  0  0  0  0
  7  8  1  0  0  0  0
  7 18  1  0  0  0  0
  8  9  2  0  0  0  0
  8 13  1  0  0  0  0
  9 10  1  0  0  0  0
  9 17  1  0  0  0  0
 10 11  2  0  0  0  0
 10 16  1  0  0  0  0
 11 12  1  0  0  0  0
 11 15  1  0  0  0  0
 12 13  2  0  0  0  0
 12 14  1  0  0  0  0
 22 23  1  0  0  0  0
 22 35  1  0  0  0  0
 23 24  1  0  0  0  0
 23 43  1  0  0  0  0
 23 44  1  0  0  0  0
 24 25  1  0  0  0  0
 24 41  1  0  0  0  0
 24 42  1  0  0  0  0
 25 26  1  0  0  0  0
 25 34  1  0  0  0  0
 25 40  1  0  0  0  0
 26 27  1  0  0  0  0
 26 28  1  0  0  0  0
 26 33  1  0  0  0  0
 27 28  1  0  0  0  0
 27 31  1  0  0  0  0
 27 32  1  0  0  0  0
 28 29  1  0  0  0  0
 28 30  1  0  0  0  0
 34 35  1  0  0  0  0
 34 38  1  0  0  0  0
 34 39  1  0  0  0  0
 35 36  1  0  0  0  0
 35 37  1  0  0  0  0
M  END
>  <MODEL>
       1

$$$$
