tmp_first_model_1_57.pdb
 OpenBabel08272517043D

 59 63  0  0  1  0  0  0  0  0999 V2000
   -2.6110   -4.6960  -22.8620 C   0  0  0  0  0  0  0  0  0  0  0  0
   -3.7630   -5.1760  -23.5970 N   0  0  0  0  0  0  0  0  0  0  0  0
   -4.8160   -5.6490  -22.8890 C   0  0  0  0  0  0  0  0  0  0  0  0
   -4.7720   -5.8010  -21.6810 O   0  0  0  0  0  0  0  0  0  0  0  0
   -6.0580   -5.9990  -23.7200 C   0  0  0  0  0  0  0  0  0  0  0  0
   -6.8130   -4.8350  -24.1460 N   0  0  0  0  0  0  0  0  0  0  0  0
   -7.9080   -4.3490  -23.3290 C   0  0  0  0  0  0  0  0  0  0  0  0
   -7.8830   -2.8110  -23.1220 C   0  0  2  0  0  0  0  0  0  0  0  0
   -6.7940   -2.4080  -22.0890 C   0  0  0  0  0  0  0  0  0  0  0  0
   -5.6500   -2.8120  -22.0400 O   0  0  0  0  0  0  0  0  0  0  0  0
   -7.3280   -1.4680  -21.2330 N   0  0  0  0  0  0  0  0  0  0  0  0
   -6.5700   -0.8580  -20.1950 C   0  0  0  0  0  0  0  0  0  0  0  0
   -6.8950   -1.0590  -18.8760 C   0  0  0  0  0  0  0  0  0  0  0  0
   -6.2070   -0.5510  -17.8230 N   0  0  0  0  0  0  0  0  0  0  0  0
   -5.1720    0.2100  -18.0850 C   0  0  0  0  0  0  0  0  0  0  0  0
   -4.7350    0.5250  -19.4030 C   0  0  0  0  0  0  0  0  0  0  0  0
   -3.6090    1.3620  -19.6340 C   0  0  0  0  0  0  0  0  0  0  0  0
   -3.2220    1.6620  -20.9100 C   0  0  0  0  0  0  0  0  0  0  0  0
   -3.9480    1.1510  -22.0090 C   0  0  0  0  0  0  0  0  0  0  0  0
   -5.0420    0.3460  -21.8160 C   0  0  0  0  0  0  0  0  0  0  0  0
   -5.4550   -0.0080  -20.4980 C   0  0  0  0  0  0  0  0  0  0  0  0
   -5.5960   -0.0330  -22.6730 H   0  0  0  0  0  0  0  0  0  0  0  0
   -3.6310    1.3970  -23.0180 H   0  0  0  0  0  0  0  0  0  0  0  0
   -2.3640    2.3040  -21.0890 H   0  0  0  0  0  0  0  0  0  0  0  0
   -3.0760    1.7620  -18.7740 H   0  0  0  0  0  0  0  0  0  0  0  0
   -4.6230    0.6160  -17.2330 H   0  0  0  0  0  0  0  0  0  0  0  0
   -7.7460   -1.6820  -18.6060 H   0  0  0  0  0  0  0  0  0  0  0  0
   -8.7280   -1.1820  -21.4840 C   0  0  0  0  0  0  0  0  0  0  0  0
   -9.2160   -2.2860  -22.4550 C   0  0  0  0  0  0  0  0  0  0  0  0
  -10.3080   -1.7850  -23.4110 C   0  0  0  0  0  0  0  0  0  0  0  0
  -10.0700   -0.8400  -23.9060 H   0  0  0  0  0  0  0  0  0  0  0  0
  -10.5180   -2.5420  -24.1750 H   0  0  0  0  0  0  0  0  0  0  0  0
  -11.2310   -1.6370  -22.8370 H   0  0  0  0  0  0  0  0  0  0  0  0
   -9.9040   -3.3640  -21.6020 C   0  0  0  0  0  0  0  0  0  0  0  0
  -10.7780   -2.8890  -21.1550 H   0  0  0  0  0  0  0  0  0  0  0  0
  -10.2570   -4.2180  -22.1860 H   0  0  0  0  0  0  0  0  0  0  0  0
   -9.2440   -3.7220  -20.8160 H   0  0  0  0  0  0  0  0  0  0  0  0
   -8.8720   -0.1670  -21.8790 H   0  0  0  0  0  0  0  0  0  0  0  0
   -9.2800   -1.2430  -20.5560 H   0  0  0  0  0  0  0  0  0  0  0  0
   -7.5110   -2.1350  -24.4390 C   0  0  0  0  0  0  0  0  0  0  0  0
   -7.6010   -0.7400  -24.5480 C   0  0  0  0  0  0  0  0  0  0  0  0
   -7.3050   -0.1130  -25.7450 C   0  0  0  0  0  0  0  0  0  0  0  0
   -7.4620    1.6150  -25.8790 Cl  0  0  0  0  0  0  0  0  0  0  0  0
   -6.8620   -0.8420  -26.8470 C   0  0  0  0  0  0  0  0  0  0  0  0
   -6.6830   -2.2030  -26.7160 C   0  0  0  0  0  0  0  0  0  0  0  0
   -6.9700   -2.8460  -25.5150 C   0  0  0  0  0  0  0  0  0  0  0  0
   -6.5340   -4.2710  -25.3590 C   0  0  0  0  0  0  0  0  0  0  0  0
   -5.8850   -4.8580  -26.2200 O   0  0  0  0  0  0  0  0  0  0  0  0
   -6.2800   -2.8140  -27.5160 H   0  0  0  0  0  0  0  0  0  0  0  0
   -6.6280   -0.3340  -27.7730 H   0  0  0  0  0  0  0  0  0  0  0  0
   -7.9130   -0.1200  -23.7110 H   0  0  0  0  0  0  0  0  0  0  0  0
   -8.8750   -4.6200  -23.7850 H   0  0  0  0  0  0  0  0  0  0  0  0
   -7.8160   -4.8390  -22.3590 H   0  0  0  0  0  0  0  0  0  0  0  0
   -6.6790   -6.6270  -23.0800 H   0  0  0  0  0  0  0  0  0  0  0  0
   -5.7870   -6.5390  -24.6300 H   0  0  0  0  0  0  0  0  0  0  0  0
   -3.8320   -5.0630  -24.6000 H   0  0  0  0  0  0  0  0  0  0  0  0
   -1.9020   -4.2670  -23.5740 H   0  0  0  0  0  0  0  0  0  0  0  0
   -2.1240   -5.5080  -22.3060 H   0  0  0  0  0  0  0  0  0  0  0  0
   -2.9510   -3.9470  -22.1370 H   0  0  0  0  0  0  0  0  0  0  0  0
  1  2  1  0  0  0  0
  1 57  1  0  0  0  0
  1 58  1  0  0  0  0
  1 59  1  0  0  0  0
  2  3  1  0  0  0  0
  2 56  1  0  0  0  0
  3  4  2  0  0  0  0
  3  5  1  0  0  0  0
  5  6  1  0  0  0  0
  5 54  1  0  0  0  0
  5 55  1  0  0  0  0
  6  7  1  0  0  0  0
  6 47  1  0  0  0  0
  7  8  1  0  0  0  0
  7 52  1  0  0  0  0
  7 53  1  0  0  0  0
  8  9  1  1  0  0  0
  8 29  1  0  0  0  0
  8 40  1  0  0  0  0
  9 10  2  0  0  0  0
  9 11  1  0  0  0  0
 11 12  1  0  0  0  0
 11 28  1  0  0  0  0
 12 13  2  0  0  0  0
 12 21  1  0  0  0  0
 13 14  1  0  0  0  0
 13 27  1  0  0  0  0
 14 15  2  0  0  0  0
 15 16  1  0  0  0  0
 15 26  1  0  0  0  0
 16 17  2  0  0  0  0
 16 21  1  0  0  0  0
 17 18  1  0  0  0  0
 17 25  1  0  0  0  0
 18 19  2  0  0  0  0
 18 24  1  0  0  0  0
 19 20  1  0  0  0  0
 19 23  1  0  0  0  0
 20 21  2  0  0  0  0
 20 22  1  0  0  0  0
 28 29  1  0  0  0  0
 28 38  1  0  0  0  0
 28 39  1  0  0  0  0
 29 30  1  0  0  0  0
 29 34  1  0  0  0  0
 30 31  1  0  0  0  0
 30 32  1  0  0  0  0
 30 33  1  0  0  0  0
 34 35  1  0  0  0  0
 34 36  1  0  0  0  0
 34 37  1  0  0  0  0
 40 41  2  0  0  0  0
 40 46  1  0  0  0  0
 41 42  1  0  0  0  0
 41 51  1  0  0  0  0
 42 43  1  0  0  0  0
 42 44  2  0  0  0  0
 44 45  1  0  0  0  0
 44 50  1  0  0  0  0
 45 46  2  0  0  0  0
 45 49  1  0  0  0  0
 46 47  1  0  0  0  0
 47 48  2  0  0  0  0
M  END
>  <MODEL>
       1

$$$$
