tmp_first_model_5_58.pdb
 OpenBabel08272519233D

 42 45  0  0  1  0  0  0  0  0999 V2000
   -7.2940   -5.4020  -21.7650 C   0  0  0  0  0  0  0  0  0  0  0  0
   -7.9640   -4.3340  -22.4960 N   0  0  0  0  0  0  0  0  0  0  0  0
   -9.2280   -3.7940  -22.0090 C   0  0  0  0  0  0  0  0  0  0  0  0
   -9.4090   -2.3000  -22.3250 C   0  0  1  0  0  0  0  0  0  0  0  0
   -8.6310   -1.3750  -21.3850 C   0  0  0  0  0  0  0  0  0  0  0  0
   -9.1550   -0.4420  -20.8030 O   0  0  0  0  0  0  0  0  0  0  0  0
   -7.2940   -1.6250  -21.2650 N   0  0  0  0  0  0  0  0  0  0  0  0
   -6.5140   -1.0560  -20.2500 C   0  0  0  0  0  0  0  0  0  0  0  0
   -6.8400   -1.2210  -18.9290 C   0  0  0  0  0  0  0  0  0  0  0  0
   -6.0100   -0.9100  -17.9060 N   0  0  0  0  0  0  0  0  0  0  0  0
   -4.8420   -0.4040  -18.2260 C   0  0  0  0  0  0  0  0  0  0  0  0
   -4.4500   -0.0520  -19.5510 C   0  0  0  0  0  0  0  0  0  0  0  0
   -3.2880    0.7190  -19.8200 C   0  0  0  0  0  0  0  0  0  0  0  0
   -3.1780    1.3900  -21.0050 C   0  0  0  0  0  0  0  0  0  0  0  0
   -4.0970    1.1480  -22.0600 C   0  0  0  0  0  0  0  0  0  0  0  0
   -5.1170    0.2450  -21.8860 C   0  0  0  0  0  0  0  0  0  0  0  0
   -5.3520   -0.3090  -20.6010 C   0  0  0  0  0  0  0  0  0  0  0  0
   -5.7580   -0.0530  -22.7150 H   0  0  0  0  0  0  0  0  0  0  0  0
   -3.9490    1.6240  -23.0260 H   0  0  0  0  0  0  0  0  0  0  0  0
   -2.3070    2.0070  -21.1990 H   0  0  0  0  0  0  0  0  0  0  0  0
   -2.5720    0.8610  -19.0170 H   0  0  0  0  0  0  0  0  0  0  0  0
   -4.1590   -0.1890  -17.4040 H   0  0  0  0  0  0  0  0  0  0  0  0
   -7.8180   -1.6080  -18.6470 H   0  0  0  0  0  0  0  0  0  0  0  0
   -6.8190   -2.2370  -21.9120 H   0  0  0  0  0  0  0  0  0  0  0  0
   -9.0320   -2.0200  -23.7550 C   0  0  0  0  0  0  0  0  0  0  0  0
   -9.5350   -0.8890  -24.4020 C   0  0  0  0  0  0  0  0  0  0  0  0
   -9.1140   -0.5910  -25.6880 C   0  0  0  0  0  0  0  0  0  0  0  0
   -9.7320    0.8160  -26.5010 Cl  0  0  0  0  0  0  0  0  0  0  0  0
   -8.1840   -1.3970  -26.3440 C   0  0  0  0  0  0  0  0  0  0  0  0
   -7.6810   -2.5130  -25.6990 C   0  0  0  0  0  0  0  0  0  0  0  0
   -8.1010   -2.8240  -24.4080 C   0  0  0  0  0  0  0  0  0  0  0  0
   -7.4730   -4.0150  -23.7310 C   0  0  0  0  0  0  0  0  0  0  0  0
   -6.5420   -4.6220  -24.2380 O   0  0  0  0  0  0  0  0  0  0  0  0
   -6.9470   -3.1680  -26.1580 H   0  0  0  0  0  0  0  0  0  0  0  0
   -7.8520   -1.1530  -27.3440 H   0  0  0  0  0  0  0  0  0  0  0  0
  -10.2270   -0.2310  -23.8880 H   0  0  0  0  0  0  0  0  0  0  0  0
  -10.4520   -2.0330  -22.1320 H   0  0  0  0  0  0  0  0  0  0  0  0
  -10.0740   -4.3560  -22.4330 H   0  0  0  0  0  0  0  0  0  0  0  0
   -9.2610   -3.9100  -20.9280 H   0  0  0  0  0  0  0  0  0  0  0  0
   -8.0310   -6.0180  -21.2430 H   0  0  0  0  0  0  0  0  0  0  0  0
   -6.7390   -6.0040  -22.4870 H   0  0  0  0  0  0  0  0  0  0  0  0
   -6.5660   -5.0270  -21.0370 H   0  0  0  0  0  0  0  0  0  0  0  0
  1  2  1  0  0  0  0
  1 40  1  0  0  0  0
  1 41  1  0  0  0  0
  1 42  1  0  0  0  0
  2  3  1  0  0  0  0
  2 32  1  0  0  0  0
  3  4  1  0  0  0  0
  3 38  1  0  0  0  0
  3 39  1  0  0  0  0
  4  5  1  0  0  0  0
  4 25  1  0  0  0  0
  4 37  1  1  0  0  0
  5  6  2  0  0  0  0
  5  7  1  0  0  0  0
  7  8  1  0  0  0  0
  7 24  1  0  0  0  0
  8  9  2  0  0  0  0
  8 17  1  0  0  0  0
  9 10  1  0  0  0  0
  9 23  1  0  0  0  0
 10 11  2  0  0  0  0
 11 12  1  0  0  0  0
 11 22  1  0  0  0  0
 12 13  2  0  0  0  0
 12 17  1  0  0  0  0
 13 14  1  0  0  0  0
 13 21  1  0  0  0  0
 14 15  2  0  0  0  0
 14 20  1  0  0  0  0
 15 16  1  0  0  0  0
 15 19  1  0  0  0  0
 16 17  2  0  0  0  0
 16 18  1  0  0  0  0
 25 26  2  0  0  0  0
 25 31  1  0  0  0  0
 26 27  1  0  0  0  0
 26 36  1  0  0  0  0
 27 28  1  0  0  0  0
 27 29  2  0  0  0  0
 29 30  1  0  0  0  0
 29 35  1  0  0  0  0
 30 31  2  0  0  0  0
 30 34  1  0  0  0  0
 31 32  1  0  0  0  0
 32 33  2  0  0  0  0
M  END
>  <MODEL>
       1

$$$$
