tmp_first_model_18_25.pdb
 OpenBabel08282502533D

 70 75  0  0  1  0  0  0  0  0999 V2000
   -8.1260   -6.6790  -24.3900 O   0  0  0  0  0  0  0  0  0  0  0  0
   -8.0820   -6.0580  -23.3450 C   0  0  0  0  0  0  0  0  0  0  0  0
   -9.1610   -5.0760  -22.9090 C   0  0  0  0  0  0  0  0  0  0  0  0
   -8.7460   -3.6690  -23.1630 N   0  3  1  0  0  0  0  0  0  0  0  0
   -8.4000   -3.4210  -24.6420 C   0  0  0  0  0  0  0  0  0  0  0  0
   -8.0070   -1.9840  -24.8700 C   0  0  0  0  0  0  0  0  0  0  0  0
   -7.2080   -1.6000  -25.9520 C   0  0  0  0  0  0  0  0  0  0  0  0
   -6.8970   -0.2640  -26.1830 C   0  0  0  0  0  0  0  0  0  0  0  0
   -7.3690    0.6990  -25.2960 C   0  0  0  0  0  0  0  0  0  0  0  0
   -6.9920    2.3840  -25.5370 Cl  0  0  0  0  0  0  0  0  0  0  0  0
   -8.1480    0.3370  -24.2120 C   0  0  0  0  0  0  0  0  0  0  0  0
   -8.4800   -1.0020  -24.0070 C   0  0  0  0  0  0  0  0  0  0  0  0
   -9.3400   -1.2820  -22.8040 C   0  0  2  0  0  0  0  0  0  0  0  0
   -8.6310   -0.8410  -21.5200 C   0  0  0  0  0  0  0  0  0  0  0  0
   -9.0860   -0.0200  -20.7460 O   0  0  0  0  0  0  0  0  0  0  0  0
   -7.4250   -1.4530  -21.2490 N   0  0  0  0  0  0  0  0  0  0  0  0
   -6.6130   -0.9160  -20.2180 C   0  0  0  0  0  0  0  0  0  0  0  0
   -6.9460   -1.1310  -18.9090 C   0  0  0  0  0  0  0  0  0  0  0  0
   -6.2630   -0.6230  -17.8540 N   0  0  0  0  0  0  0  0  0  0  0  0
   -5.2290    0.1430  -18.1100 C   0  0  0  0  0  0  0  0  0  0  0  0
   -4.7840    0.4580  -19.4240 C   0  0  0  0  0  0  0  0  0  0  0  0
   -3.6700    1.3080  -19.6460 C   0  0  0  0  0  0  0  0  0  0  0  0
   -3.2870    1.6260  -20.9200 C   0  0  0  0  0  0  0  0  0  0  0  0
   -3.9990    1.1010  -22.0290 C   0  0  0  0  0  0  0  0  0  0  0  0
   -5.0720    0.2640  -21.8380 C   0  0  0  0  0  0  0  0  0  0  0  0
   -5.4880   -0.0820  -20.5230 C   0  0  0  0  0  0  0  0  0  0  0  0
   -5.6120   -0.1300  -22.6950 H   0  0  0  0  0  0  0  0  0  0  0  0
   -3.6940    1.3700  -23.0390 H   0  0  0  0  0  0  0  0  0  0  0  0
   -2.4450    2.2940  -21.0920 H   0  0  0  0  0  0  0  0  0  0  0  0
   -3.1550    1.7150  -18.7790 H   0  0  0  0  0  0  0  0  0  0  0  0
   -4.6860    0.5550  -17.2570 H   0  0  0  0  0  0  0  0  0  0  0  0
   -7.8130   -1.7400  -18.6620 H   0  0  0  0  0  0  0  0  0  0  0  0
   -6.9510   -1.9130  -22.0090 H   0  0  0  0  0  0  0  0  0  0  0  0
   -9.8190   -2.7220  -22.7020 C   0  0  0  0  0  0  0  0  0  0  0  0
  -10.6990   -2.8970  -23.3310 H   0  0  0  0  0  0  0  0  0  0  0  0
  -10.0780   -2.9570  -21.6670 H   0  0  0  0  0  0  0  0  0  0  0  0
  -10.2190   -0.6490  -22.9000 H   0  0  0  0  0  0  0  0  0  0  0  0
   -8.5370    1.0890  -23.5310 H   0  0  0  0  0  0  0  0  0  0  0  0
   -6.2780    0.0350  -27.0260 H   0  0  0  0  0  0  0  0  0  0  0  0
   -6.8380   -2.3540  -26.6440 H   0  0  0  0  0  0  0  0  0  0  0  0
   -7.6070   -4.1080  -24.9360 H   0  0  0  0  0  0  0  0  0  0  0  0
   -9.2830   -3.6920  -25.2280 H   0  0  0  0  0  0  0  0  0  0  0  0
   -7.8840   -3.4890  -22.6100 H   0  0  0  0  0  0  0  0  0  0  0  0
  -10.0810   -5.3170  -23.4450 H   0  0  0  0  0  0  0  0  0  0  0  0
   -9.3620   -5.1790  -21.8360 H   0  0  0  0  0  0  0  0  0  0  0  0
   -7.0480   -6.1420  -22.4560 N   0  0  0  0  0  0  0  0  0  0  0  0
   -5.8220   -6.7520  -22.7610 C   0  0  0  0  0  0  0  0  0  0  0  0
   -5.0790   -7.3490  -21.7460 C   0  0  0  0  0  0  0  0  0  0  0  0
   -3.8430   -7.8950  -22.0240 C   0  0  0  0  0  0  0  0  0  0  0  0
   -3.3270   -7.8390  -23.3170 C   0  0  0  0  0  0  0  0  0  0  0  0
   -2.0800   -8.4140  -23.6180 N   0  0  0  0  0  0  0  0  0  0  0  0
   -1.8890   -8.8440  -24.9920 C   0  0  0  0  0  0  0  0  0  0  0  0
   -0.6460   -9.7020  -25.1430 C   0  0  0  0  0  0  0  0  0  0  0  0
    0.4480   -9.1800  -24.4280 O   0  0  0  0  0  0  0  0  0  0  0  0
    0.1910   -9.1250  -23.0470 C   0  0  0  0  0  0  0  0  0  0  0  0
   -1.0590   -8.3340  -22.7000 C   0  0  0  0  0  0  0  0  0  0  0  0
   -1.1370   -7.6980  -21.6670 O   0  0  0  0  0  0  0  0  0  0  0  0
    1.0280   -8.6210  -22.5670 H   0  0  0  0  0  0  0  0  0  0  0  0
    0.1120  -10.1340  -22.6160 H   0  0  0  0  0  0  0  0  0  0  0  0
   -0.3550   -9.7460  -26.1950 H   0  0  0  0  0  0  0  0  0  0  0  0
   -0.8570  -10.7340  -24.8360 H   0  0  0  0  0  0  0  0  0  0  0  0
   -1.8320   -7.9620  -25.6380 H   0  0  0  0  0  0  0  0  0  0  0  0
   -2.7630   -9.4310  -25.2940 H   0  0  0  0  0  0  0  0  0  0  0  0
   -4.0900   -7.2670  -24.3350 C   0  0  0  0  0  0  0  0  0  0  0  0
   -5.3310   -6.7280  -24.0640 C   0  0  0  0  0  0  0  0  0  0  0  0
   -5.9190   -6.3010  -24.8670 H   0  0  0  0  0  0  0  0  0  0  0  0
   -3.7380   -7.2330  -25.3610 H   0  0  0  0  0  0  0  0  0  0  0  0
   -3.3070   -8.4150  -21.2390 H   0  0  0  0  0  0  0  0  0  0  0  0
   -5.4650   -7.3830  -20.7290 H   0  0  0  0  0  0  0  0  0  0  0  0
   -7.1390   -5.6980  -21.5510 H   0  0  0  0  0  0  0  0  0  0  0  0
  1  2  2  0  0  0  0
  2  3  1  0  0  0  0
  2 46  1  0  0  0  0
  3  4  1  0  0  0  0
  3 44  1  0  0  0  0
  3 45  1  0  0  0  0
  4  5  1  0  0  0  0
  4 34  1  0  0  0  0
  4 43  1  1  0  0  0
  5  6  1  0  0  0  0
  5 41  1  0  0  0  0
  5 42  1  0  0  0  0
  6  7  2  0  0  0  0
  6 12  1  0  0  0  0
  7  8  1  0  0  0  0
  7 40  1  0  0  0  0
  8  9  2  0  0  0  0
  8 39  1  0  0  0  0
  9 10  1  0  0  0  0
  9 11  1  0  0  0  0
 11 12  2  0  0  0  0
 11 38  1  0  0  0  0
 12 13  1  0  0  0  0
 13 14  1  0  0  0  0
 13 34  1  0  0  0  0
 13 37  1  6  0  0  0
 14 15  2  0  0  0  0
 14 16  1  0  0  0  0
 16 17  1  0  0  0  0
 16 33  1  0  0  0  0
 17 18  2  0  0  0  0
 17 26  1  0  0  0  0
 18 19  1  0  0  0  0
 18 32  1  0  0  0  0
 19 20  2  0  0  0  0
 20 21  1  0  0  0  0
 20 31  1  0  0  0  0
 21 22  2  0  0  0  0
 21 26  1  0  0  0  0
 22 23  1  0  0  0  0
 22 30  1  0  0  0  0
 23 24  2  0  0  0  0
 23 29  1  0  0  0  0
 24 25  1  0  0  0  0
 24 28  1  0  0  0  0
 25 26  2  0  0  0  0
 25 27  1  0  0  0  0
 34 35  1  0  0  0  0
 34 36  1  0  0  0  0
 46 47  1  0  0  0  0
 46 70  1  0  0  0  0
 47 48  2  0  0  0  0
 47 65  1  0  0  0  0
 48 49  1  0  0  0  0
 48 69  1  0  0  0  0
 49 50  2  0  0  0  0
 49 68  1  0  0  0  0
 50 51  1  0  0  0  0
 50 64  1  0  0  0  0
 51 52  1  0  0  0  0
 51 56  1  0  0  0  0
 52 53  1  0  0  0  0
 52 62  1  0  0  0  0
 52 63  1  0  0  0  0
 53 54  1  0  0  0  0
 53 60  1  0  0  0  0
 53 61  1  0  0  0  0
 54 55  1  0  0  0  0
 55 56  1  0  0  0  0
 55 58  1  0  0  0  0
 55 59  1  0  0  0  0
 56 57  2  0  0  0  0
 64 65  2  0  0  0  0
 64 67  1  0  0  0  0
 65 66  1  0  0  0  0
M  CHG  1   4   1
M  END
>  <MODEL>
       1

$$$$
