tmp_first_model_9_91.pdb
 OpenBabel08272521403D

 66 71  0  0  1  0  0  0  0  0999 V2000
   -7.4760    3.2820  -21.8500 C   0  0  0  0  0  0  0  0  0  0  0  0
   -8.5650    2.8270  -22.7020 N   0  0  0  0  0  0  0  0  0  0  0  0
   -8.2240    2.0600  -23.7750 C   0  0  0  0  0  0  0  0  0  0  0  0
   -7.0600    1.7820  -24.0290 O   0  0  0  0  0  0  0  0  0  0  0  0
   -9.3430    1.5180  -24.6580 C   0  0  0  0  0  0  0  0  0  0  0  0
   -9.8940    0.3180  -24.0560 N   0  0  0  0  0  0  0  0  0  0  0  0
   -9.0770   -0.8890  -24.0250 C   0  0  0  0  0  0  0  0  0  0  0  0
   -9.2790   -1.6690  -22.6990 C   0  0  2  0  0  0  0  0  0  0  0  0
   -8.6680   -0.8400  -21.5340 C   0  0  0  0  0  0  0  0  0  0  0  0
   -9.1470    0.1430  -21.0070 O   0  0  0  0  0  0  0  0  0  0  0  0
   -7.4470   -1.3890  -21.2020 N   0  0  0  0  0  0  0  0  0  0  0  0
   -6.6290   -0.8200  -20.1920 C   0  0  0  0  0  0  0  0  0  0  0  0
   -6.9340   -1.0470  -18.8720 C   0  0  0  0  0  0  0  0  0  0  0  0
   -6.2230   -0.5640  -17.8280 N   0  0  0  0  0  0  0  0  0  0  0  0
   -5.1860    0.1890  -18.0980 C   0  0  0  0  0  0  0  0  0  0  0  0
   -4.7610    0.5120  -19.4160 C   0  0  0  0  0  0  0  0  0  0  0  0
   -3.6400    1.3530  -19.6460 C   0  0  0  0  0  0  0  0  0  0  0  0
   -3.2530    1.6550  -20.9220 C   0  0  0  0  0  0  0  0  0  0  0  0
   -3.9720    1.1400  -22.0220 C   0  0  0  0  0  0  0  0  0  0  0  0
   -5.0720    0.3340  -21.8260 C   0  0  0  0  0  0  0  0  0  0  0  0
   -5.4930   -0.0090  -20.5110 C   0  0  0  0  0  0  0  0  0  0  0  0
   -5.6390   -0.0030  -22.6880 H   0  0  0  0  0  0  0  0  0  0  0  0
   -3.6540    1.3790  -23.0320 H   0  0  0  0  0  0  0  0  0  0  0  0
   -2.3930    2.2970  -21.0950 H   0  0  0  0  0  0  0  0  0  0  0  0
   -3.1150    1.7540  -18.7840 H   0  0  0  0  0  0  0  0  0  0  0  0
   -4.6200    0.5890  -17.2560 H   0  0  0  0  0  0  0  0  0  0  0  0
   -7.7950   -1.6610  -18.6240 H   0  0  0  0  0  0  0  0  0  0  0  0
   -7.0990   -2.5610  -21.9810 C   0  0  0  0  0  0  0  0  0  0  0  0
   -8.4270   -2.9670  -22.6320 C   0  0  2  0  0  0  0  0  0  0  0  0
   -8.1950   -3.7430  -23.9270 C   0  0  0  0  0  0  0  0  0  0  0  0
   -9.4200   -4.2550  -24.4780 N   0  0  0  0  0  0  0  0  0  0  0  0
   -9.4820   -4.9700  -25.6410 C   0  0  0  0  0  0  0  0  0  0  0  0
   -8.3550   -5.2140  -26.4680 C   0  0  0  0  0  0  0  0  0  0  0  0
   -8.4580   -5.8160  -27.6420 N   0  0  0  0  0  0  0  0  0  0  0  0
   -9.6810   -6.2130  -28.0100 C   0  0  0  0  0  0  0  0  0  0  0  0
  -10.7690   -6.0410  -27.1690 C   0  0  0  0  0  0  0  0  0  0  0  0
  -10.6820   -5.4320  -25.9870 N   0  0  0  0  0  0  0  0  0  0  0  0
  -11.7590   -6.3860  -27.4580 H   0  0  0  0  0  0  0  0  0  0  0  0
   -9.7840   -6.6670  -28.9920 H   0  0  0  0  0  0  0  0  0  0  0  0
   -7.3560   -4.9030  -26.1740 H   0  0  0  0  0  0  0  0  0  0  0  0
  -10.3150   -4.0910  -24.0310 H   0  0  0  0  0  0  0  0  0  0  0  0
   -7.5150   -4.5810  -23.7190 H   0  0  0  0  0  0  0  0  0  0  0  0
   -7.6900   -3.0960  -24.6640 H   0  0  0  0  0  0  0  0  0  0  0  0
   -8.9370   -3.6360  -21.9340 H   0  0  0  0  0  0  0  0  0  0  0  0
   -6.3350   -2.3340  -22.7410 H   0  0  0  0  0  0  0  0  0  0  0  0
   -6.7090   -3.3600  -21.3430 H   0  0  0  0  0  0  0  0  0  0  0  0
  -10.7760   -1.8740  -22.5100 C   0  0  0  0  0  0  0  0  0  0  0  0
  -11.3060   -2.9230  -21.7460 C   0  0  0  0  0  0  0  0  0  0  0  0
  -12.6570   -2.9540  -21.4470 C   0  0  0  0  0  0  0  0  0  0  0  0
  -13.2610   -4.1200  -20.3190 Cl  0  0  0  0  0  0  0  0  0  0  0  0
  -13.5510   -2.0070  -21.9320 C   0  0  0  0  0  0  0  0  0  0  0  0
  -13.0480   -0.9890  -22.7090 C   0  0  0  0  0  0  0  0  0  0  0  0
  -11.6850   -0.9200  -22.9930 C   0  0  0  0  0  0  0  0  0  0  0  0
  -11.2280    0.2730  -23.7740 C   0  0  0  0  0  0  0  0  0  0  0  0
  -12.0080    1.1550  -24.1190 O   0  0  0  0  0  0  0  0  0  0  0  0
  -13.6760   -0.1850  -23.0750 H   0  0  0  0  0  0  0  0  0  0  0  0
  -14.5960   -2.0480  -21.6490 H   0  0  0  0  0  0  0  0  0  0  0  0
  -10.6930   -3.6980  -21.2980 H   0  0  0  0  0  0  0  0  0  0  0  0
   -8.0290   -0.5950  -24.1460 H   0  0  0  0  0  0  0  0  0  0  0  0
   -9.3550   -1.5400  -24.8670 H   0  0  0  0  0  0  0  0  0  0  0  0
  -10.1640    2.2270  -24.7920 H   0  0  0  0  0  0  0  0  0  0  0  0
   -8.9220    1.2860  -25.6470 H   0  0  0  0  0  0  0  0  0  0  0  0
   -9.4790    2.7300  -22.2740 H   0  0  0  0  0  0  0  0  0  0  0  0
   -7.8940    3.8320  -21.0070 H   0  0  0  0  0  0  0  0  0  0  0  0
   -6.8890    2.4140  -21.5140 H   0  0  0  0  0  0  0  0  0  0  0  0
   -6.8260    3.9630  -22.4090 H   0  0  0  0  0  0  0  0  0  0  0  0
  1  2  1  0  0  0  0
  1 64  1  0  0  0  0
  1 65  1  0  0  0  0
  1 66  1  0  0  0  0
  2  3  1  0  0  0  0
  2 63  1  0  0  0  0
  3  4  2  0  0  0  0
  3  5  1  0  0  0  0
  5  6  1  0  0  0  0
  5 61  1  0  0  0  0
  5 62  1  0  0  0  0
  6  7  1  0  0  0  0
  6 54  1  0  0  0  0
  7  8  1  0  0  0  0
  7 59  1  0  0  0  0
  7 60  1  0  0  0  0
  8  9  1  1  0  0  0
  8 29  1  0  0  0  0
  8 47  1  0  0  0  0
  9 10  2  0  0  0  0
  9 11  1  0  0  0  0
 11 12  1  0  0  0  0
 11 28  1  0  0  0  0
 12 13  2  0  0  0  0
 12 21  1  0  0  0  0
 13 14  1  0  0  0  0
 13 27  1  0  0  0  0
 14 15  2  0  0  0  0
 15 16  1  0  0  0  0
 15 26  1  0  0  0  0
 16 17  2  0  0  0  0
 16 21  1  0  0  0  0
 17 18  1  0  0  0  0
 17 25  1  0  0  0  0
 18 19  2  0  0  0  0
 18 24  1  0  0  0  0
 19 20  1  0  0  0  0
 19 23  1  0  0  0  0
 20 21  2  0  0  0  0
 20 22  1  0  0  0  0
 28 29  1  0  0  0  0
 28 45  1  0  0  0  0
 28 46  1  0  0  0  0
 29 30  1  0  0  0  0
 29 44  1  1  0  0  0
 30 31  1  0  0  0  0
 30 42  1  0  0  0  0
 30 43  1  0  0  0  0
 31 32  1  0  0  0  0
 31 41  1  0  0  0  0
 32 33  2  0  0  0  0
 32 37  1  0  0  0  0
 33 34  1  0  0  0  0
 33 40  1  0  0  0  0
 34 35  2  0  0  0  0
 35 36  1  0  0  0  0
 35 39  1  0  0  0  0
 36 37  2  0  0  0  0
 36 38  1  0  0  0  0
 47 48  2  0  0  0  0
 47 53  1  0  0  0  0
 48 49  1  0  0  0  0
 48 58  1  0  0  0  0
 49 50  1  0  0  0  0
 49 51  2  0  0  0  0
 51 52  1  0  0  0  0
 51 57  1  0  0  0  0
 52 53  2  0  0  0  0
 52 56  1  0  0  0  0
 53 54  1  0  0  0  0
 54 55  2  0  0  0  0
M  END
>  <MODEL>
       1

$$$$
