tmp_first_model_16_62.pdb
 OpenBabel08282501503D

 44 47  0  0  0  0  0  0  0  0999 V2000
   -8.4880    0.7390  -21.4890 O   0  0  0  0  0  0  0  0  0  0  0  0
   -8.5320   -0.4410  -21.7970 C   0  0  0  0  0  0  0  0  0  0  0  0
   -7.4810   -1.4330  -21.3040 C   0  0  0  0  0  0  0  0  0  0  0  0
   -6.6160   -0.8640  -20.2220 C   0  0  0  0  0  0  0  0  0  0  0  0
   -6.9170   -1.1270  -18.9140 C   0  0  0  0  0  0  0  0  0  0  0  0
   -6.1560   -0.7810  -17.8460 N   0  0  0  0  0  0  0  0  0  0  0  0
   -5.0890   -0.0570  -18.0930 C   0  0  0  0  0  0  0  0  0  0  0  0
   -4.7220    0.3950  -19.3920 C   0  0  0  0  0  0  0  0  0  0  0  0
   -3.6240    1.2710  -19.6030 C   0  0  0  0  0  0  0  0  0  0  0  0
   -3.2530    1.6190  -20.8710 C   0  0  0  0  0  0  0  0  0  0  0  0
   -3.9680    1.1230  -21.9850 C   0  0  0  0  0  0  0  0  0  0  0  0
   -5.0680    0.3220  -21.8040 C   0  0  0  0  0  0  0  0  0  0  0  0
   -5.4820   -0.0470  -20.4960 C   0  0  0  0  0  0  0  0  0  0  0  0
   -5.6290   -0.0320  -22.6630 H   0  0  0  0  0  0  0  0  0  0  0  0
   -3.6360    1.3790  -22.9870 H   0  0  0  0  0  0  0  0  0  0  0  0
   -2.4000    2.2730  -21.0380 H   0  0  0  0  0  0  0  0  0  0  0  0
   -3.1030    1.6760  -18.7370 H   0  0  0  0  0  0  0  0  0  0  0  0
   -4.4510    0.2180  -17.2510 H   0  0  0  0  0  0  0  0  0  0  0  0
   -7.8350   -1.6710  -18.6850 H   0  0  0  0  0  0  0  0  0  0  0  0
   -8.0250   -2.2980  -20.9040 H   0  0  0  0  0  0  0  0  0  0  0  0
   -6.8840   -1.8000  -22.1520 H   0  0  0  0  0  0  0  0  0  0  0  0
   -9.5440   -0.9520  -22.5600 N   0  0  0  0  0  0  0  0  0  0  0  0
   -9.5640   -2.2390  -23.2430 C   0  0  0  0  0  0  0  0  0  0  0  0
  -10.8500   -3.0150  -22.9400 C   0  0  0  0  0  0  0  0  0  0  0  0
  -12.0720   -2.0790  -22.8210 C   0  0  0  0  0  0  0  0  0  0  0  0
  -13.3170   -2.7520  -23.3670 C   0  0  0  0  0  0  0  0  0  0  0  0
  -14.6660   -2.4150  -22.8180 C   0  0  0  0  0  0  0  0  0  0  0  0
  -14.0660   -3.7730  -22.5610 C   0  0  0  0  0  0  0  0  0  0  0  0
  -13.6910   -3.9930  -21.5650 H   0  0  0  0  0  0  0  0  0  0  0  0
  -14.5190   -4.6200  -23.0700 H   0  0  0  0  0  0  0  0  0  0  0  0
  -14.7230   -1.7090  -21.9920 H   0  0  0  0  0  0  0  0  0  0  0  0
  -15.4760   -2.3560  -23.5340 H   0  0  0  0  0  0  0  0  0  0  0  0
  -13.2940   -2.9410  -24.4400 H   0  0  0  0  0  0  0  0  0  0  0  0
  -11.8170   -0.7260  -23.5010 C   0  0  0  0  0  0  0  0  0  0  0  0
  -10.5880   -0.0060  -22.9410 C   0  0  0  0  0  0  0  0  0  0  0  0
  -10.1780    0.7030  -23.6730 H   0  0  0  0  0  0  0  0  0  0  0  0
  -10.8340    0.5770  -22.0530 H   0  0  0  0  0  0  0  0  0  0  0  0
  -12.6910   -0.0670  -23.4040 H   0  0  0  0  0  0  0  0  0  0  0  0
  -11.6680   -0.8890  -24.5730 H   0  0  0  0  0  0  0  0  0  0  0  0
  -12.2360   -1.8730  -21.7540 H   0  0  0  0  0  0  0  0  0  0  0  0
  -10.7440   -3.5970  -22.0180 H   0  0  0  0  0  0  0  0  0  0  0  0
  -11.0000   -3.7470  -23.7420 H   0  0  0  0  0  0  0  0  0  0  0  0
   -9.4970   -2.0710  -24.3260 H   0  0  0  0  0  0  0  0  0  0  0  0
   -8.6830   -2.8200  -22.9700 H   0  0  0  0  0  0  0  0  0  0  0  0
  1  2  2  0  0  0  0
  2  3  1  0  0  0  0
  2 22  1  0  0  0  0
  3  4  1  0  0  0  0
  3 20  1  0  0  0  0
  3 21  1  0  0  0  0
  4  5  2  0  0  0  0
  4 13  1  0  0  0  0
  5  6  1  0  0  0  0
  5 19  1  0  0  0  0
  6  7  2  0  0  0  0
  7  8  1  0  0  0  0
  7 18  1  0  0  0  0
  8  9  2  0  0  0  0
  8 13  1  0  0  0  0
  9 10  1  0  0  0  0
  9 17  1  0  0  0  0
 10 11  2  0  0  0  0
 10 16  1  0  0  0  0
 11 12  1  0  0  0  0
 11 15  1  0  0  0  0
 12 13  2  0  0  0  0
 12 14  1  0  0  0  0
 22 23  1  0  0  0  0
 22 35  1  0  0  0  0
 23 24  1  0  0  0  0
 23 43  1  0  0  0  0
 23 44  1  0  0  0  0
 24 25  1  0  0  0  0
 24 41  1  0  0  0  0
 24 42  1  0  0  0  0
 25 26  1  0  0  0  0
 25 34  1  0  0  0  0
 25 40  1  0  0  0  0
 26 27  1  0  0  0  0
 26 28  1  0  0  0  0
 26 33  1  0  0  0  0
 27 28  1  0  0  0  0
 27 31  1  0  0  0  0
 27 32  1  0  0  0  0
 28 29  1  0  0  0  0
 28 30  1  0  0  0  0
 34 35  1  0  0  0  0
 34 38  1  0  0  0  0
 34 39  1  0  0  0  0
 35 36  1  0  0  0  0
 35 37  1  0  0  0  0
M  END
>  <MODEL>
       1

$$$$
