tmp_first_model_11_81.pdb
 OpenBabel08272522543D

 36 38  0  0  0  0  0  0  0  0999 V2000
   -8.8880    0.4660  -21.2330 O   0  0  0  0  0  0  0  0  0  0  0  0
   -8.3520   -0.3650  -21.9400 C   0  0  0  0  0  0  0  0  0  0  0  0
   -7.4200   -1.4150  -21.2870 C   0  0  0  0  0  0  0  0  0  0  0  0
   -6.5770   -0.8230  -20.1800 C   0  0  0  0  0  0  0  0  0  0  0  0
   -6.8790   -1.0370  -18.8590 C   0  0  0  0  0  0  0  0  0  0  0  0
   -6.1940   -0.5340  -17.7940 N   0  0  0  0  0  0  0  0  0  0  0  0
   -5.1570    0.2220  -18.0640 C   0  0  0  0  0  0  0  0  0  0  0  0
   -4.7210    0.5320  -19.3800 C   0  0  0  0  0  0  0  0  0  0  0  0
   -3.5950    1.3600  -19.6220 C   0  0  0  0  0  0  0  0  0  0  0  0
   -3.2060    1.6530  -20.9020 C   0  0  0  0  0  0  0  0  0  0  0  0
   -3.9300    1.1230  -21.9950 C   0  0  0  0  0  0  0  0  0  0  0  0
   -5.0220    0.3180  -21.7870 C   0  0  0  0  0  0  0  0  0  0  0  0
   -5.4490   -0.0010  -20.4720 C   0  0  0  0  0  0  0  0  0  0  0  0
   -5.5690   -0.0720  -22.6420 H   0  0  0  0  0  0  0  0  0  0  0  0
   -3.6180    1.3620  -23.0060 H   0  0  0  0  0  0  0  0  0  0  0  0
   -2.3510    2.2980  -21.0870 H   0  0  0  0  0  0  0  0  0  0  0  0
   -3.0590    1.7760  -18.7730 H   0  0  0  0  0  0  0  0  0  0  0  0
   -4.6020    0.6270  -17.2160 H   0  0  0  0  0  0  0  0  0  0  0  0
   -7.7290   -1.6600  -18.5860 H   0  0  0  0  0  0  0  0  0  0  0  0
   -8.0720   -2.1850  -20.8500 H   0  0  0  0  0  0  0  0  0  0  0  0
   -6.7870   -1.9320  -22.0160 H   0  0  0  0  0  0  0  0  0  0  0  0
   -8.5770   -0.3750  -23.3090 N   0  0  0  0  0  0  0  0  0  0  0  0
   -8.1670   -1.4700  -24.1740 C   0  0  0  0  0  0  0  0  0  0  0  0
   -8.9280   -2.7520  -23.9680 C   0  0  0  0  0  0  0  0  0  0  0  0
  -10.2500   -2.8320  -23.7980 C   0  0  0  0  0  0  0  0  0  0  0  0
  -11.2390   -1.7330  -23.7540 C   0  0  0  0  0  0  0  0  0  0  0  0
  -11.0540   -0.4080  -23.7410 C   0  0  0  0  0  0  0  0  0  0  0  0
   -9.7520    0.3540  -23.7830 C   0  0  0  0  0  0  0  0  0  0  0  0
   -9.5510    0.6390  -24.8220 H   0  0  0  0  0  0  0  0  0  0  0  0
   -9.8400    1.2860  -23.2180 H   0  0  0  0  0  0  0  0  0  0  0  0
  -11.9440    0.2250  -23.6930 H   0  0  0  0  0  0  0  0  0  0  0  0
  -12.2700   -2.0820  -23.7240 H   0  0  0  0  0  0  0  0  0  0  0  0
  -10.6870   -3.8230  -23.6920 H   0  0  0  0  0  0  0  0  0  0  0  0
   -8.3430   -3.6730  -23.9660 H   0  0  0  0  0  0  0  0  0  0  0  0
   -8.3310   -1.1140  -25.1980 H   0  0  0  0  0  0  0  0  0  0  0  0
   -7.0870   -1.6260  -24.0880 H   0  0  0  0  0  0  0  0  0  0  0  0
  1  2  2  0  0  0  0
  2  3  1  0  0  0  0
  2 22  1  0  0  0  0
  3  4  1  0  0  0  0
  3 20  1  0  0  0  0
  3 21  1  0  0  0  0
  4  5  2  0  0  0  0
  4 13  1  0  0  0  0
  5  6  1  0  0  0  0
  5 19  1  0  0  0  0
  6  7  2  0  0  0  0
  7  8  1  0  0  0  0
  7 18  1  0  0  0  0
  8  9  2  0  0  0  0
  8 13  1  0  0  0  0
  9 10  1  0  0  0  0
  9 17  1  0  0  0  0
 10 11  2  0  0  0  0
 10 16  1  0  0  0  0
 11 12  1  0  0  0  0
 11 15  1  0  0  0  0
 12 13  2  0  0  0  0
 12 14  1  0  0  0  0
 22 23  1  0  0  0  0
 22 28  1  0  0  0  0
 23 24  1  0  0  0  0
 23 35  1  0  0  0  0
 23 36  1  0  0  0  0
 24 25  2  0  0  0  0
 24 34  1  0  0  0  0
 25 26  1  0  0  0  0
 25 33  1  0  0  0  0
 26 27  2  0  0  0  0
 26 32  1  0  0  0  0
 27 28  1  0  0  0  0
 27 31  1  0  0  0  0
 28 29  1  0  0  0  0
 28 30  1  0  0  0  0
M  END
>  <MODEL>
       1

$$$$
