tmp_first_model_5_88.pdb
 OpenBabel08272519233D

 40 42  0  0  0  0  0  0  0  0999 V2000
   -8.8300   -3.2950  -21.5610 O   0  0  0  0  0  0  0  0  0  0  0  0
   -7.6920   -2.8690  -21.6680 C   0  0  0  0  0  0  0  0  0  0  0  0
   -7.4330   -1.3750  -21.4180 C   0  0  0  0  0  0  0  0  0  0  0  0
   -6.4550   -0.9910  -20.3240 C   0  0  0  0  0  0  0  0  0  0  0  0
   -6.7140   -1.2820  -18.9990 C   0  0  0  0  0  0  0  0  0  0  0  0
   -5.8510   -1.0910  -17.9710 N   0  0  0  0  0  0  0  0  0  0  0  0
   -4.6980   -0.5390  -18.2610 C   0  0  0  0  0  0  0  0  0  0  0  0
   -4.3510   -0.0510  -19.5510 C   0  0  0  0  0  0  0  0  0  0  0  0
   -3.1820    0.7310  -19.7690 C   0  0  0  0  0  0  0  0  0  0  0  0
   -3.0260    1.4520  -20.9200 C   0  0  0  0  0  0  0  0  0  0  0  0
   -3.9340    1.2710  -21.9890 C   0  0  0  0  0  0  0  0  0  0  0  0
   -4.9740    0.3760  -21.8690 C   0  0  0  0  0  0  0  0  0  0  0  0
   -5.2740   -0.2340  -20.6130 C   0  0  0  0  0  0  0  0  0  0  0  0
   -5.5260    0.0930  -22.7670 H   0  0  0  0  0  0  0  0  0  0  0  0
   -3.7890    1.8380  -22.9070 H   0  0  0  0  0  0  0  0  0  0  0  0
   -2.1460    2.0820  -21.0520 H   0  0  0  0  0  0  0  0  0  0  0  0
   -2.4620    0.8230  -18.9650 H   0  0  0  0  0  0  0  0  0  0  0  0
   -3.9900   -0.4280  -17.4360 H   0  0  0  0  0  0  0  0  0  0  0  0
   -7.6650   -1.7130  -18.6960 H   0  0  0  0  0  0  0  0  0  0  0  0
   -7.1350   -0.9190  -22.3690 H   0  0  0  0  0  0  0  0  0  0  0  0
   -8.4390   -1.0100  -21.1920 H   0  0  0  0  0  0  0  0  0  0  0  0
   -6.6740   -3.6880  -22.0990 N   0  0  0  0  0  0  0  0  0  0  0  0
   -7.1320   -4.9100  -22.7730 C   0  0  0  0  0  0  0  0  0  0  0  0
   -6.0420   -5.9630  -22.8630 C   0  0  0  0  0  0  0  0  0  0  0  0
   -4.7900   -5.3840  -23.5190 C   0  0  0  0  0  0  0  0  0  0  0  0
   -3.7150   -6.4460  -23.6500 C   0  0  0  0  0  0  0  0  0  0  0  0
   -3.4140   -6.9440  -22.4130 F   0  0  0  0  0  0  0  0  0  0  0  0
   -4.1700   -7.4820  -24.4150 F   0  0  0  0  0  0  0  0  0  0  0  0
   -2.7790   -6.0900  -24.1000 H   0  0  0  0  0  0  0  0  0  0  0  0
   -4.3240   -4.2020  -22.6750 C   0  0  0  0  0  0  0  0  0  0  0  0
   -5.4000   -3.1310  -22.5490 C   0  0  0  0  0  0  0  0  0  0  0  0
   -5.5210   -2.6140  -23.5150 H   0  0  0  0  0  0  0  0  0  0  0  0
   -5.0800   -2.3920  -21.8170 H   0  0  0  0  0  0  0  0  0  0  0  0
   -4.0830   -4.5740  -21.6780 H   0  0  0  0  0  0  0  0  0  0  0  0
   -3.4190   -3.7510  -23.0960 H   0  0  0  0  0  0  0  0  0  0  0  0
   -5.0170   -5.0510  -24.5420 H   0  0  0  0  0  0  0  0  0  0  0  0
   -6.3990   -6.8300  -23.4310 H   0  0  0  0  0  0  0  0  0  0  0  0
   -5.7820   -6.3080  -21.8550 H   0  0  0  0  0  0  0  0  0  0  0  0
   -7.4900   -4.6650  -23.7870 H   0  0  0  0  0  0  0  0  0  0  0  0
   -7.9930   -5.2810  -22.2140 H   0  0  0  0  0  0  0  0  0  0  0  0
  1  2  2  0  0  0  0
  2  3  1  0  0  0  0
  2 22  1  0  0  0  0
  3  4  1  0  0  0  0
  3 20  1  0  0  0  0
  3 21  1  0  0  0  0
  4  5  2  0  0  0  0
  4 13  1  0  0  0  0
  5  6  1  0  0  0  0
  5 19  1  0  0  0  0
  6  7  2  0  0  0  0
  7  8  1  0  0  0  0
  7 18  1  0  0  0  0
  8  9  2  0  0  0  0
  8 13  1  0  0  0  0
  9 10  1  0  0  0  0
  9 17  1  0  0  0  0
 10 11  2  0  0  0  0
 10 16  1  0  0  0  0
 11 12  1  0  0  0  0
 11 15  1  0  0  0  0
 12 13  2  0  0  0  0
 12 14  1  0  0  0  0
 22 23  1  0  0  0  0
 22 31  1  0  0  0  0
 23 24  1  0  0  0  0
 23 39  1  0  0  0  0
 23 40  1  0  0  0  0
 24 25  1  0  0  0  0
 24 37  1  0  0  0  0
 24 38  1  0  0  0  0
 25 26  1  0  0  0  0
 25 30  1  0  0  0  0
 25 36  1  0  0  0  0
 26 27  1  0  0  0  0
 26 28  1  0  0  0  0
 26 29  1  0  0  0  0
 30 31  1  0  0  0  0
 30 34  1  0  0  0  0
 30 35  1  0  0  0  0
 31 32  1  0  0  0  0
 31 33  1  0  0  0  0
M  END
>  <MODEL>
       1

$$$$
