tmp_first_model_10_16.pdb
 OpenBabel08272522163D

 61 66  0  0  1  0  0  0  0  0999 V2000
   -7.3350    3.4310  -21.9120 C   0  0  0  0  0  0  0  0  0  0  0  0
   -8.2210    2.9480  -22.9550 N   0  0  0  0  0  0  0  0  0  0  0  0
   -7.6710    2.2300  -23.9720 C   0  0  0  0  0  0  0  0  0  0  0  0
   -6.4670    2.0510  -24.0710 O   0  0  0  0  0  0  0  0  0  0  0  0
   -8.6430    1.6280  -24.9850 C   0  0  0  0  0  0  0  0  0  0  0  0
   -9.3300    0.4930  -24.3990 N   0  0  0  0  0  0  0  0  0  0  0  0
   -8.6010   -0.7540  -24.2130 C   0  0  0  0  0  0  0  0  0  0  0  0
   -9.0090   -1.4710  -22.9030 C   0  0  2  0  0  0  0  0  0  0  0  0
   -8.4980   -0.6850  -21.6740 C   0  0  0  0  0  0  0  0  0  0  0  0
   -8.9310    0.3530  -21.2180 O   0  0  0  0  0  0  0  0  0  0  0  0
   -7.4250   -1.3630  -21.1500 N   0  0  0  0  0  0  0  0  0  0  0  0
   -6.6310   -0.7850  -20.1370 C   0  0  0  0  0  0  0  0  0  0  0  0
   -6.9270   -1.0500  -18.8270 C   0  0  0  0  0  0  0  0  0  0  0  0
   -6.2280   -0.5670  -17.7750 N   0  0  0  0  0  0  0  0  0  0  0  0
   -5.1870    0.1850  -18.0440 C   0  0  0  0  0  0  0  0  0  0  0  0
   -4.7870    0.5600  -19.3610 C   0  0  0  0  0  0  0  0  0  0  0  0
   -3.7010    1.4430  -19.6040 C   0  0  0  0  0  0  0  0  0  0  0  0
   -3.4420    1.8900  -20.8690 C   0  0  0  0  0  0  0  0  0  0  0  0
   -4.2470    1.4840  -21.9570 C   0  0  0  0  0  0  0  0  0  0  0  0
   -5.2400    0.5490  -21.7620 C   0  0  0  0  0  0  0  0  0  0  0  0
   -5.5560    0.0950  -20.4510 C   0  0  0  0  0  0  0  0  0  0  0  0
   -5.8160    0.2040  -22.6140 H   0  0  0  0  0  0  0  0  0  0  0  0
   -4.0880    1.9110  -22.9420 H   0  0  0  0  0  0  0  0  0  0  0  0
   -2.6240    2.5860  -21.0410 H   0  0  0  0  0  0  0  0  0  0  0  0
   -3.0940    1.7570  -18.7590 H   0  0  0  0  0  0  0  0  0  0  0  0
   -4.6250    0.5700  -17.1940 H   0  0  0  0  0  0  0  0  0  0  0  0
   -7.7780   -1.6870  -18.6000 H   0  0  0  0  0  0  0  0  0  0  0  0
   -7.0450   -2.5560  -21.8640 C   0  0  0  0  0  0  0  0  0  0  0  0
   -8.2620   -2.8370  -22.7570 C   0  0  2  0  0  0  0  0  0  0  0  0
   -7.8120   -3.5400  -24.0470 C   0  0  0  0  0  0  0  0  0  0  0  0
   -7.1790   -4.8160  -23.7430 N   0  0  0  0  0  0  0  0  0  0  0  0
   -7.8440   -5.8810  -23.3440 N   0  0  0  0  0  0  0  0  0  0  0  0
   -6.8720   -6.7730  -23.2110 C   0  0  0  0  0  0  0  0  0  0  0  0
   -5.6610   -6.2490  -23.4960 N   0  0  0  0  0  0  0  0  0  0  0  0
   -5.8810   -5.0060  -23.8280 N   0  0  0  0  0  0  0  0  0  0  0  0
   -7.0470   -7.8040  -22.9290 H   0  0  0  0  0  0  0  0  0  0  0  0
   -8.6470   -3.7240  -24.7270 H   0  0  0  0  0  0  0  0  0  0  0  0
   -7.0560   -2.9470  -24.5690 H   0  0  0  0  0  0  0  0  0  0  0  0
   -8.9220   -3.5370  -22.2380 H   0  0  0  0  0  0  0  0  0  0  0  0
   -6.8390   -3.3800  -21.1780 H   0  0  0  0  0  0  0  0  0  0  0  0
   -6.1250   -2.3970  -22.4510 H   0  0  0  0  0  0  0  0  0  0  0  0
  -10.5250   -1.5260  -22.8520 C   0  0  0  0  0  0  0  0  0  0  0  0
  -11.1770   -2.4160  -21.9920 C   0  0  0  0  0  0  0  0  0  0  0  0
  -12.5580   -2.4200  -21.9070 C   0  0  0  0  0  0  0  0  0  0  0  0
  -13.3360   -3.5300  -20.8170 Cl  0  0  0  0  0  0  0  0  0  0  0  0
  -13.3410   -1.5450  -22.6590 C   0  0  0  0  0  0  0  0  0  0  0  0
  -12.7030   -0.6330  -23.4720 C   0  0  0  0  0  0  0  0  0  0  0  0
  -11.3120   -0.5960  -23.5450 C   0  0  0  0  0  0  0  0  0  0  0  0
  -10.6960    0.5180  -24.3340 C   0  0  0  0  0  0  0  0  0  0  0  0
  -11.3690    1.3960  -24.8540 O   0  0  0  0  0  0  0  0  0  0  0  0
  -13.2590    0.0910  -24.0550 H   0  0  0  0  0  0  0  0  0  0  0  0
  -14.4230   -1.5650  -22.5830 H   0  0  0  0  0  0  0  0  0  0  0  0
  -10.6230   -3.1030  -21.3630 H   0  0  0  0  0  0  0  0  0  0  0  0
   -7.5270   -0.5390  -24.2060 H   0  0  0  0  0  0  0  0  0  0  0  0
   -8.8070   -1.4340  -25.0510 H   0  0  0  0  0  0  0  0  0  0  0  0
   -8.0860    1.3180  -25.8760 H   0  0  0  0  0  0  0  0  0  0  0  0
   -9.4060    2.3480  -25.2950 H   0  0  0  0  0  0  0  0  0  0  0  0
   -9.1740    2.7440  -22.6920 H   0  0  0  0  0  0  0  0  0  0  0  0
   -6.6160    4.1400  -22.3290 H   0  0  0  0  0  0  0  0  0  0  0  0
   -7.9140    3.9480  -21.1470 H   0  0  0  0  0  0  0  0  0  0  0  0
   -6.7860    2.5930  -21.4690 H   0  0  0  0  0  0  0  0  0  0  0  0
  1  2  1  0  0  0  0
  1 59  1  0  0  0  0
  1 60  1  0  0  0  0
  1 61  1  0  0  0  0
  2  3  1  0  0  0  0
  2 58  1  0  0  0  0
  3  4  2  0  0  0  0
  3  5  1  0  0  0  0
  5  6  1  0  0  0  0
  5 56  1  0  0  0  0
  5 57  1  0  0  0  0
  6  7  1  0  0  0  0
  6 49  1  0  0  0  0
  7  8  1  0  0  0  0
  7 54  1  0  0  0  0
  7 55  1  0  0  0  0
  8  9  1  1  0  0  0
  8 29  1  0  0  0  0
  8 42  1  0  0  0  0
  9 10  2  0  0  0  0
  9 11  1  0  0  0  0
 11 12  1  0  0  0  0
 11 28  1  0  0  0  0
 12 13  2  0  0  0  0
 12 21  1  0  0  0  0
 13 14  1  0  0  0  0
 13 27  1  0  0  0  0
 14 15  2  0  0  0  0
 15 16  1  0  0  0  0
 15 26  1  0  0  0  0
 16 17  2  0  0  0  0
 16 21  1  0  0  0  0
 17 18  1  0  0  0  0
 17 25  1  0  0  0  0
 18 19  2  0  0  0  0
 18 24  1  0  0  0  0
 19 20  1  0  0  0  0
 19 23  1  0  0  0  0
 20 21  2  0  0  0  0
 20 22  1  0  0  0  0
 28 29  1  0  0  0  0
 28 40  1  0  0  0  0
 28 41  1  0  0  0  0
 29 30  1  0  0  0  0
 29 39  1  1  0  0  0
 30 31  1  0  0  0  0
 30 37  1  0  0  0  0
 30 38  1  0  0  0  0
 31 32  1  0  0  0  0
 31 35  1  0  0  0  0
 32 33  2  0  0  0  0
 33 34  1  0  0  0  0
 33 36  1  0  0  0  0
 34 35  2  0  0  0  0
 42 43  2  0  0  0  0
 42 48  1  0  0  0  0
 43 44  1  0  0  0  0
 43 53  1  0  0  0  0
 44 45  1  0  0  0  0
 44 46  2  0  0  0  0
 46 47  1  0  0  0  0
 46 52  1  0  0  0  0
 47 48  2  0  0  0  0
 47 51  1  0  0  0  0
 48 49  1  0  0  0  0
 49 50  2  0  0  0  0
M  END
>  <MODEL>
       1

$$$$
