tmp_first_model_8_41.pdb
 OpenBabel08272521063D

 67 71  0  0  1  0  0  0  0  0999 V2000
   -7.3690    3.4110  -21.8030 C   0  0  0  0  0  0  0  0  0  0  0  0
   -8.3430    2.9470  -22.7810 N   0  0  0  0  0  0  0  0  0  0  0  0
   -7.8570    2.2240  -23.8360 C   0  0  0  0  0  0  0  0  0  0  0  0
   -6.6600    2.0220  -23.9980 O   0  0  0  0  0  0  0  0  0  0  0  0
   -8.8790    1.6550  -24.8170 C   0  0  0  0  0  0  0  0  0  0  0  0
   -9.5130    0.4840  -24.2500 N   0  0  0  0  0  0  0  0  0  0  0  0
   -8.7480   -0.7460  -24.1370 C   0  0  0  0  0  0  0  0  0  0  0  0
   -9.0960   -1.5190  -22.8450 C   0  0  2  0  0  0  0  0  0  0  0  0
   -8.5570   -0.7630  -21.6120 C   0  0  0  0  0  0  0  0  0  0  0  0
   -9.0260    0.2270  -21.0840 O   0  0  0  0  0  0  0  0  0  0  0  0
   -7.4090   -1.3940  -21.1930 N   0  0  0  0  0  0  0  0  0  0  0  0
   -6.6120   -0.8260  -20.1760 C   0  0  0  0  0  0  0  0  0  0  0  0
   -6.9310   -1.0580  -18.8640 C   0  0  0  0  0  0  0  0  0  0  0  0
   -6.2310   -0.5780  -17.8110 N   0  0  0  0  0  0  0  0  0  0  0  0
   -5.1960    0.1850  -18.0770 C   0  0  0  0  0  0  0  0  0  0  0  0
   -4.7690    0.5240  -19.3930 C   0  0  0  0  0  0  0  0  0  0  0  0
   -3.6480    1.3650  -19.6270 C   0  0  0  0  0  0  0  0  0  0  0  0
   -3.2830    1.6940  -20.9040 C   0  0  0  0  0  0  0  0  0  0  0  0
   -4.0200    1.2060  -22.0050 C   0  0  0  0  0  0  0  0  0  0  0  0
   -5.0970    0.3740  -21.8070 C   0  0  0  0  0  0  0  0  0  0  0  0
   -5.4960    0.0080  -20.4900 C   0  0  0  0  0  0  0  0  0  0  0  0
   -5.6530    0.0160  -22.6670 H   0  0  0  0  0  0  0  0  0  0  0  0
   -3.7280    1.4790  -23.0140 H   0  0  0  0  0  0  0  0  0  0  0  0
   -2.4190    2.3260  -21.0790 H   0  0  0  0  0  0  0  0  0  0  0  0
   -3.1040    1.7480  -18.7690 H   0  0  0  0  0  0  0  0  0  0  0  0
   -4.6310    0.5720  -17.2290 H   0  0  0  0  0  0  0  0  0  0  0  0
   -7.8000   -1.6690  -18.6320 H   0  0  0  0  0  0  0  0  0  0  0  0
   -7.0370   -2.5590  -21.9650 C   0  0  0  0  0  0  0  0  0  0  0  0
   -8.3190   -2.8680  -22.7600 C   0  0  2  0  0  0  0  0  0  0  0  0
   -8.0400   -3.5870  -24.0850 C   0  0  0  0  0  0  0  0  0  0  0  0
   -7.2450   -5.1620  -23.7660 S   0  0  0  0  0  0  0  0  0  0  0  0
   -8.1130   -5.9210  -22.8790 O   0  0  0  0  0  0  0  0  0  0  0  0
   -5.8660   -4.9080  -23.3520 O   0  0  0  0  0  0  0  0  0  0  0  0
   -7.2720   -5.9400  -25.2680 N   0  0  0  0  0  0  0  0  0  0  0  0
   -6.4860   -5.3230  -26.3350 C   0  0  0  0  0  0  0  0  0  0  0  0
   -5.4290   -5.1870  -26.0720 H   0  0  0  0  0  0  0  0  0  0  0  0
   -6.5460   -5.9830  -27.2040 H   0  0  0  0  0  0  0  0  0  0  0  0
   -6.9240   -4.3710  -26.6440 H   0  0  0  0  0  0  0  0  0  0  0  0
   -6.9510   -7.3660  -25.1190 C   0  0  0  0  0  0  0  0  0  0  0  0
   -5.9160   -7.5270  -24.7760 H   0  0  0  0  0  0  0  0  0  0  0  0
   -7.6500   -7.8160  -24.4090 H   0  0  0  0  0  0  0  0  0  0  0  0
   -7.0830   -7.8490  -26.0940 H   0  0  0  0  0  0  0  0  0  0  0  0
   -7.3690   -3.0010  -24.7180 H   0  0  0  0  0  0  0  0  0  0  0  0
   -8.9580   -3.7870  -24.6450 H   0  0  0  0  0  0  0  0  0  0  0  0
   -8.9150   -3.5600  -22.1660 H   0  0  0  0  0  0  0  0  0  0  0  0
   -6.1850   -2.3520  -22.6280 H   0  0  0  0  0  0  0  0  0  0  0  0
   -6.7530   -3.3840  -21.3090 H   0  0  0  0  0  0  0  0  0  0  0  0
  -10.6030   -1.6180  -22.7560 C   0  0  0  0  0  0  0  0  0  0  0  0
  -11.2060   -2.5740  -21.9370 C   0  0  0  0  0  0  0  0  0  0  0  0
  -12.5810   -2.5960  -21.8270 C   0  0  0  0  0  0  0  0  0  0  0  0
  -13.1410   -3.5090  -21.0220 F   0  0  0  0  0  0  0  0  0  0  0  0
  -13.4180   -1.7140  -22.4980 C   0  0  0  0  0  0  0  0  0  0  0  0
  -12.8210   -0.7440  -23.2720 C   0  0  0  0  0  0  0  0  0  0  0  0
  -11.4340   -0.6720  -23.3680 C   0  0  0  0  0  0  0  0  0  0  0  0
  -10.8660    0.5070  -24.0810 C   0  0  0  0  0  0  0  0  0  0  0  0
  -11.5620    1.4400  -24.4630 O   0  0  0  0  0  0  0  0  0  0  0  0
  -13.3940    0.0030  -23.8040 H   0  0  0  0  0  0  0  0  0  0  0  0
  -14.4940   -1.7800  -22.3820 H   0  0  0  0  0  0  0  0  0  0  0  0
  -10.6260   -3.2910  -21.3680 H   0  0  0  0  0  0  0  0  0  0  0  0
   -7.6810   -0.4980  -24.1550 H   0  0  0  0  0  0  0  0  0  0  0  0
   -8.9620   -1.3950  -24.9960 H   0  0  0  0  0  0  0  0  0  0  0  0
   -9.6820    2.3580  -25.0630 H   0  0  0  0  0  0  0  0  0  0  0  0
   -8.3410    1.3850  -25.7320 H   0  0  0  0  0  0  0  0  0  0  0  0
   -9.2840    2.7820  -22.4410 H   0  0  0  0  0  0  0  0  0  0  0  0
   -7.8960    3.8690  -20.9630 H   0  0  0  0  0  0  0  0  0  0  0  0
   -6.7190    4.1780  -22.2390 H   0  0  0  0  0  0  0  0  0  0  0  0
   -6.7490    2.5630  -21.4770 H   0  0  0  0  0  0  0  0  0  0  0  0
  1  2  1  0  0  0  0
  1 65  1  0  0  0  0
  1 66  1  0  0  0  0
  1 67  1  0  0  0  0
  2  3  1  0  0  0  0
  2 64  1  0  0  0  0
  3  4  2  0  0  0  0
  3  5  1  0  0  0  0
  5  6  1  0  0  0  0
  5 62  1  0  0  0  0
  5 63  1  0  0  0  0
  6  7  1  0  0  0  0
  6 55  1  0  0  0  0
  7  8  1  0  0  0  0
  7 60  1  0  0  0  0
  7 61  1  0  0  0  0
  8  9  1  1  0  0  0
  8 29  1  0  0  0  0
  8 48  1  0  0  0  0
  9 10  2  0  0  0  0
  9 11  1  0  0  0  0
 11 12  1  0  0  0  0
 11 28  1  0  0  0  0
 12 13  2  0  0  0  0
 12 21  1  0  0  0  0
 13 14  1  0  0  0  0
 13 27  1  0  0  0  0
 14 15  2  0  0  0  0
 15 16  1  0  0  0  0
 15 26  1  0  0  0  0
 16 17  2  0  0  0  0
 16 21  1  0  0  0  0
 17 18  1  0  0  0  0
 17 25  1  0  0  0  0
 18 19  2  0  0  0  0
 18 24  1  0  0  0  0
 19 20  1  0  0  0  0
 19 23  1  0  0  0  0
 20 21  2  0  0  0  0
 20 22  1  0  0  0  0
 28 29  1  0  0  0  0
 28 46  1  0  0  0  0
 28 47  1  0  0  0  0
 29 30  1  0  0  0  0
 29 45  1  1  0  0  0
 30 31  1  0  0  0  0
 30 43  1  0  0  0  0
 30 44  1  0  0  0  0
 31 32  2  0  0  0  0
 31 33  2  0  0  0  0
 31 34  1  0  0  0  0
 34 35  1  0  0  0  0
 34 39  1  0  0  0  0
 35 36  1  0  0  0  0
 35 37  1  0  0  0  0
 35 38  1  0  0  0  0
 39 40  1  0  0  0  0
 39 41  1  0  0  0  0
 39 42  1  0  0  0  0
 48 49  2  0  0  0  0
 48 54  1  0  0  0  0
 49 50  1  0  0  0  0
 49 59  1  0  0  0  0
 50 51  1  0  0  0  0
 50 52  2  0  0  0  0
 52 53  1  0  0  0  0
 52 58  1  0  0  0  0
 53 54  2  0  0  0  0
 53 57  1  0  0  0  0
 54 55  1  0  0  0  0
 55 56  2  0  0  0  0
M  END
>  <MODEL>
       1

$$$$
