tmp_first_model_12_78.pdb
 OpenBabel08272523333D

 56 60  0  0  1  0  0  0  0  0999 V2000
  -14.5900   -1.0620  -22.7770 C   0  0  0  0  0  0  0  0  0  0  0  0
  -13.4710   -1.9460  -22.5770 N   0  0  0  0  0  0  0  0  0  0  0  0
  -13.3100   -2.6260  -21.4120 C   0  0  0  0  0  0  0  0  0  0  0  0
  -13.9040   -2.3700  -20.3790 O   0  0  0  0  0  0  0  0  0  0  0  0
  -12.3630   -3.8080  -21.5280 C   0  0  0  0  0  0  0  0  0  0  0  0
  -11.1240   -3.6350  -22.2750 N   0  0  0  0  0  0  0  0  0  0  0  0
   -9.9480   -3.2020  -21.5300 C   0  0  0  0  0  0  0  0  0  0  0  0
   -8.7770   -2.7360  -22.4280 C   0  0  2  0  0  0  0  0  0  0  0  0
   -7.5710   -2.5090  -21.4960 C   0  0  0  0  0  0  0  0  0  0  0  0
   -6.8330   -3.3460  -21.0210 O   0  0  0  0  0  0  0  0  0  0  0  0
   -7.4220   -1.1550  -21.2640 N   0  0  0  0  0  0  0  0  0  0  0  0
   -6.6290   -0.6850  -20.1890 C   0  0  0  0  0  0  0  0  0  0  0  0
   -6.8710   -1.0890  -18.9010 C   0  0  0  0  0  0  0  0  0  0  0  0
   -6.1860   -0.6360  -17.8190 N   0  0  0  0  0  0  0  0  0  0  0  0
   -5.2060    0.2100  -18.0310 C   0  0  0  0  0  0  0  0  0  0  0  0
   -4.8200    0.6750  -19.3230 C   0  0  0  0  0  0  0  0  0  0  0  0
   -3.7050    1.5280  -19.5370 C   0  0  0  0  0  0  0  0  0  0  0  0
   -3.3910    1.9520  -20.7990 C   0  0  0  0  0  0  0  0  0  0  0  0
   -4.1780    1.5620  -21.9060 C   0  0  0  0  0  0  0  0  0  0  0  0
   -5.2510    0.7270  -21.7300 C   0  0  0  0  0  0  0  0  0  0  0  0
   -5.5780    0.2490  -20.4360 C   0  0  0  0  0  0  0  0  0  0  0  0
   -5.8440    0.4050  -22.5800 H   0  0  0  0  0  0  0  0  0  0  0  0
   -3.9310    1.9240  -22.8980 H   0  0  0  0  0  0  0  0  0  0  0  0
   -2.5460    2.6150  -20.9600 H   0  0  0  0  0  0  0  0  0  0  0  0
   -3.1190    1.8410  -18.6780 H   0  0  0  0  0  0  0  0  0  0  0  0
   -4.6610    0.5660  -17.1550 H   0  0  0  0  0  0  0  0  0  0  0  0
   -7.6600   -1.8080  -18.6910 H   0  0  0  0  0  0  0  0  0  0  0  0
   -8.4840   -0.3770  -21.8770 C   0  0  0  0  0  0  0  0  0  0  0  0
   -8.9670   -1.2950  -23.0070 C   0  0  2  0  0  0  0  0  0  0  0  0
  -10.3520   -0.9420  -23.5140 C   0  0  0  0  0  0  0  0  0  0  0  0
  -11.0740   -0.9630  -22.6950 H   0  0  0  0  0  0  0  0  0  0  0  0
  -10.3600    0.0600  -23.9540 H   0  0  0  0  0  0  0  0  0  0  0  0
  -10.6810   -1.6560  -24.2770 H   0  0  0  0  0  0  0  0  0  0  0  0
   -8.2560   -1.2140  -23.8400 H   0  0  0  0  0  0  0  0  0  0  0  0
   -8.1160    0.5860  -22.2400 H   0  0  0  0  0  0  0  0  0  0  0  0
   -9.2940   -0.1690  -21.1570 H   0  0  0  0  0  0  0  0  0  0  0  0
   -8.5380   -3.8130  -23.4690 C   0  0  0  0  0  0  0  0  0  0  0  0
   -7.2710   -4.0310  -24.0290 C   0  0  0  0  0  0  0  0  0  0  0  0
   -7.0830   -5.0450  -24.9540 C   0  0  0  0  0  0  0  0  0  0  0  0
   -5.5070   -5.3070  -25.6430 Cl  0  0  0  0  0  0  0  0  0  0  0  0
   -8.1330   -5.8620  -25.3720 C   0  0  0  0  0  0  0  0  0  0  0  0
   -9.3900   -5.6200  -24.8530 C   0  0  0  0  0  0  0  0  0  0  0  0
   -9.5980   -4.6110  -23.9140 C   0  0  0  0  0  0  0  0  0  0  0  0
  -10.9850   -4.4220  -23.3980 C   0  0  0  0  0  0  0  0  0  0  0  0
  -11.9470   -4.9270  -23.9590 O   0  0  0  0  0  0  0  0  0  0  0  0
  -10.2480   -6.2070  -25.1610 H   0  0  0  0  0  0  0  0  0  0  0  0
   -7.9560   -6.6610  -26.0870 H   0  0  0  0  0  0  0  0  0  0  0  0
   -6.4220   -3.4280  -23.7280 H   0  0  0  0  0  0  0  0  0  0  0  0
   -9.5580   -4.0140  -20.8990 H   0  0  0  0  0  0  0  0  0  0  0  0
  -10.2650   -2.3840  -20.8800 H   0  0  0  0  0  0  0  0  0  0  0  0
  -12.9370   -4.5410  -22.1000 H   0  0  0  0  0  0  0  0  0  0  0  0
  -12.1890   -4.1980  -20.5270 H   0  0  0  0  0  0  0  0  0  0  0  0
  -13.0580   -2.3850  -23.3850 H   0  0  0  0  0  0  0  0  0  0  0  0
  -14.2580   -0.0750  -23.1090 H   0  0  0  0  0  0  0  0  0  0  0  0
  -15.2750   -1.4670  -23.5190 H   0  0  0  0  0  0  0  0  0  0  0  0
  -15.1150   -1.0090  -21.8250 H   0  0  0  0  0  0  0  0  0  0  0  0
  1  2  1  0  0  0  0
  1 54  1  0  0  0  0
  1 55  1  0  0  0  0
  1 56  1  0  0  0  0
  2  3  1  0  0  0  0
  2 53  1  0  0  0  0
  3  4  2  0  0  0  0
  3  5  1  0  0  0  0
  5  6  1  0  0  0  0
  5 51  1  0  0  0  0
  5 52  1  0  0  0  0
  6  7  1  0  0  0  0
  6 44  1  0  0  0  0
  7  8  1  0  0  0  0
  7 49  1  0  0  0  0
  7 50  1  0  0  0  0
  8  9  1  1  0  0  0
  8 29  1  0  0  0  0
  8 37  1  0  0  0  0
  9 10  2  0  0  0  0
  9 11  1  0  0  0  0
 11 12  1  0  0  0  0
 11 28  1  0  0  0  0
 12 13  2  0  0  0  0
 12 21  1  0  0  0  0
 13 14  1  0  0  0  0
 13 27  1  0  0  0  0
 14 15  2  0  0  0  0
 15 16  1  0  0  0  0
 15 26  1  0  0  0  0
 16 17  2  0  0  0  0
 16 21  1  0  0  0  0
 17 18  1  0  0  0  0
 17 25  1  0  0  0  0
 18 19  2  0  0  0  0
 18 24  1  0  0  0  0
 19 20  1  0  0  0  0
 19 23  1  0  0  0  0
 20 21  2  0  0  0  0
 20 22  1  0  0  0  0
 28 29  1  0  0  0  0
 28 35  1  0  0  0  0
 28 36  1  0  0  0  0
 29 30  1  0  0  0  0
 29 34  1  6  0  0  0
 30 31  1  0  0  0  0
 30 32  1  0  0  0  0
 30 33  1  0  0  0  0
 37 38  2  0  0  0  0
 37 43  1  0  0  0  0
 38 39  1  0  0  0  0
 38 48  1  0  0  0  0
 39 40  1  0  0  0  0
 39 41  2  0  0  0  0
 41 42  1  0  0  0  0
 41 47  1  0  0  0  0
 42 43  2  0  0  0  0
 42 46  1  0  0  0  0
 43 44  1  0  0  0  0
 44 45  2  0  0  0  0
M  END
>  <MODEL>
       1

$$$$
