tmp_first_model_2_90.pdb
 OpenBabel08272517383D

 64 68  0  0  1  0  0  0  0  0999 V2000
   -7.4710    3.3250  -21.8480 C   0  0  0  0  0  0  0  0  0  0  0  0
   -8.5160    2.8480  -22.7400 N   0  0  0  0  0  0  0  0  0  0  0  0
   -8.0960    2.1020  -23.8070 C   0  0  0  0  0  0  0  0  0  0  0  0
   -6.9120    1.8930  -24.0260 O   0  0  0  0  0  0  0  0  0  0  0  0
   -9.1590    1.5140  -24.7320 C   0  0  0  0  0  0  0  0  0  0  0  0
   -9.7310    0.3270  -24.1370 N   0  0  0  0  0  0  0  0  0  0  0  0
   -8.9170   -0.8710  -24.0600 C   0  0  0  0  0  0  0  0  0  0  0  0
   -9.1640   -1.6480  -22.7500 C   0  0  2  0  0  0  0  0  0  0  0  0
   -8.6150   -0.8510  -21.5450 C   0  0  0  0  0  0  0  0  0  0  0  0
   -9.1240    0.1080  -21.0000 O   0  0  0  0  0  0  0  0  0  0  0  0
   -7.4030   -1.3980  -21.1880 N   0  0  0  0  0  0  0  0  0  0  0  0
   -6.6120   -0.8190  -20.1670 C   0  0  0  0  0  0  0  0  0  0  0  0
   -6.9310   -1.0410  -18.8510 C   0  0  0  0  0  0  0  0  0  0  0  0
   -6.2330   -0.5480  -17.8000 N   0  0  0  0  0  0  0  0  0  0  0  0
   -5.1910    0.2020  -18.0730 C   0  0  0  0  0  0  0  0  0  0  0  0
   -4.7540    0.5190  -19.3910 C   0  0  0  0  0  0  0  0  0  0  0  0
   -3.6310    1.3560  -19.6300 C   0  0  0  0  0  0  0  0  0  0  0  0
   -3.2450    1.6530  -20.9070 C   0  0  0  0  0  0  0  0  0  0  0  0
   -3.9650    1.1370  -22.0070 C   0  0  0  0  0  0  0  0  0  0  0  0
   -5.0630    0.3330  -21.8060 C   0  0  0  0  0  0  0  0  0  0  0  0
   -5.4810   -0.0050  -20.4870 C   0  0  0  0  0  0  0  0  0  0  0  0
   -5.6290   -0.0120  -22.6660 H   0  0  0  0  0  0  0  0  0  0  0  0
   -3.6540    1.3830  -23.0180 H   0  0  0  0  0  0  0  0  0  0  0  0
   -2.3890    2.2970  -21.0840 H   0  0  0  0  0  0  0  0  0  0  0  0
   -3.1020    1.7590  -18.7700 H   0  0  0  0  0  0  0  0  0  0  0  0
   -4.6280    0.6020  -17.2290 H   0  0  0  0  0  0  0  0  0  0  0  0
   -7.7940   -1.6570  -18.6100 H   0  0  0  0  0  0  0  0  0  0  0  0
   -7.0020   -2.5490  -21.9670 C   0  0  0  0  0  0  0  0  0  0  0  0
   -8.2950   -2.9390  -22.7160 C   0  0  2  0  0  0  0  0  0  0  0  0
   -8.0300   -3.6230  -24.0640 C   0  0  0  0  0  0  0  0  0  0  0  0
   -7.1610   -5.1610  -23.7810 S   0  0  0  0  0  0  0  0  0  0  0  0
   -5.7390   -4.9060  -23.5900 O   0  0  0  0  0  0  0  0  0  0  0  0
   -7.8850   -5.8830  -22.7380 O   0  0  0  0  0  0  0  0  0  0  0  0
   -7.2450   -5.9220  -25.2630 N   0  0  0  0  0  0  0  0  0  0  0  0
   -8.5060   -6.4040  -25.8260 C   0  0  0  0  0  0  0  0  0  0  0  0
   -9.1120   -5.5630  -26.1750 H   0  0  0  0  0  0  0  0  0  0  0  0
   -8.2610   -6.9900  -26.7170 H   0  0  0  0  0  0  0  0  0  0  0  0
   -9.0960   -7.0270  -25.1420 H   0  0  0  0  0  0  0  0  0  0  0  0
   -6.5210   -6.6310  -25.2480 H   0  0  0  0  0  0  0  0  0  0  0  0
   -7.4010   -3.0250  -24.7270 H   0  0  0  0  0  0  0  0  0  0  0  0
   -8.9670   -3.8380  -24.5920 H   0  0  0  0  0  0  0  0  0  0  0  0
   -8.8110   -3.6880  -22.1140 H   0  0  0  0  0  0  0  0  0  0  0  0
   -6.6520   -3.3480  -21.3090 H   0  0  0  0  0  0  0  0  0  0  0  0
   -6.1730   -2.2980  -22.6480 H   0  0  0  0  0  0  0  0  0  0  0  0
  -10.6640   -1.8320  -22.6130 C   0  0  0  0  0  0  0  0  0  0  0  0
  -11.2040   -2.8430  -21.8160 C   0  0  0  0  0  0  0  0  0  0  0  0
  -12.5710   -2.9050  -21.6310 C   0  0  0  0  0  0  0  0  0  0  0  0
  -13.0660   -3.8540  -20.8230 F   0  0  0  0  0  0  0  0  0  0  0  0
  -13.4660   -2.0240  -22.2250 C   0  0  0  0  0  0  0  0  0  0  0  0
  -12.9370   -1.0220  -23.0060 C   0  0  0  0  0  0  0  0  0  0  0  0
  -11.5600   -0.9070  -23.1720 C   0  0  0  0  0  0  0  0  0  0  0  0
  -11.0780    0.2860  -23.9260 C   0  0  0  0  0  0  0  0  0  0  0  0
  -11.8320    1.1700  -24.3070 O   0  0  0  0  0  0  0  0  0  0  0  0
  -13.5590   -0.2830  -23.4940 H   0  0  0  0  0  0  0  0  0  0  0  0
  -14.5320   -2.1220  -22.0530 H   0  0  0  0  0  0  0  0  0  0  0  0
  -10.5820   -3.5780  -21.3170 H   0  0  0  0  0  0  0  0  0  0  0  0
   -7.8640   -0.5830  -24.1400 H   0  0  0  0  0  0  0  0  0  0  0  0
   -9.1580   -1.5360  -24.8980 H   0  0  0  0  0  0  0  0  0  0  0  0
   -9.9930    2.1940  -24.9360 H   0  0  0  0  0  0  0  0  0  0  0  0
   -8.6560    1.2520  -25.6730 H   0  0  0  0  0  0  0  0  0  0  0  0
   -9.4320    2.6860  -22.3400 H   0  0  0  0  0  0  0  0  0  0  0  0
   -6.8150    4.0120  -22.3920 H   0  0  0  0  0  0  0  0  0  0  0  0
   -6.8820    2.4690  -21.4850 H   0  0  0  0  0  0  0  0  0  0  0  0
   -7.9090    3.8850  -21.0180 H   0  0  0  0  0  0  0  0  0  0  0  0
  1  2  1  0  0  0  0
  1 62  1  0  0  0  0
  1 63  1  0  0  0  0
  1 64  1  0  0  0  0
  2  3  1  0  0  0  0
  2 61  1  0  0  0  0
  3  4  2  0  0  0  0
  3  5  1  0  0  0  0
  5  6  1  0  0  0  0
  5 59  1  0  0  0  0
  5 60  1  0  0  0  0
  6  7  1  0  0  0  0
  6 52  1  0  0  0  0
  7  8  1  0  0  0  0
  7 57  1  0  0  0  0
  7 58  1  0  0  0  0
  8  9  1  1  0  0  0
  8 29  1  0  0  0  0
  8 45  1  0  0  0  0
  9 10  2  0  0  0  0
  9 11  1  0  0  0  0
 11 12  1  0  0  0  0
 11 28  1  0  0  0  0
 12 13  2  0  0  0  0
 12 21  1  0  0  0  0
 13 14  1  0  0  0  0
 13 27  1  0  0  0  0
 14 15  2  0  0  0  0
 15 16  1  0  0  0  0
 15 26  1  0  0  0  0
 16 17  2  0  0  0  0
 16 21  1  0  0  0  0
 17 18  1  0  0  0  0
 17 25  1  0  0  0  0
 18 19  2  0  0  0  0
 18 24  1  0  0  0  0
 19 20  1  0  0  0  0
 19 23  1  0  0  0  0
 20 21  2  0  0  0  0
 20 22  1  0  0  0  0
 28 29  1  0  0  0  0
 28 43  1  0  0  0  0
 28 44  1  0  0  0  0
 29 30  1  0  0  0  0
 29 42  1  1  0  0  0
 30 31  1  0  0  0  0
 30 40  1  0  0  0  0
 30 41  1  0  0  0  0
 31 32  2  0  0  0  0
 31 33  2  0  0  0  0
 31 34  1  0  0  0  0
 34 35  1  0  0  0  0
 34 39  1  0  0  0  0
 35 36  1  0  0  0  0
 35 37  1  0  0  0  0
 35 38  1  0  0  0  0
 45 46  2  0  0  0  0
 45 51  1  0  0  0  0
 46 47  1  0  0  0  0
 46 56  1  0  0  0  0
 47 48  1  0  0  0  0
 47 49  2  0  0  0  0
 49 50  1  0  0  0  0
 49 55  1  0  0  0  0
 50 51  2  0  0  0  0
 50 54  1  0  0  0  0
 51 52  1  0  0  0  0
 52 53  2  0  0  0  0
M  END
>  <MODEL>
       1

$$$$
