tmp_first_model_11_62.pdb
 OpenBabel08272522543D

 44 47  0  0  0  0  0  0  0  0999 V2000
   -8.3640    0.7570  -21.5950 O   0  0  0  0  0  0  0  0  0  0  0  0
   -8.4680   -0.4290  -21.8520 C   0  0  0  0  0  0  0  0  0  0  0  0
   -7.4490   -1.4390  -21.2640 C   0  0  0  0  0  0  0  0  0  0  0  0
   -6.5790   -0.8320  -20.1820 C   0  0  0  0  0  0  0  0  0  0  0  0
   -6.8760   -1.0400  -18.8570 C   0  0  0  0  0  0  0  0  0  0  0  0
   -6.1940   -0.5350  -17.7960 N   0  0  0  0  0  0  0  0  0  0  0  0
   -5.1560    0.2220  -18.0630 C   0  0  0  0  0  0  0  0  0  0  0  0
   -4.7230    0.5340  -19.3820 C   0  0  0  0  0  0  0  0  0  0  0  0
   -3.5960    1.3650  -19.6200 C   0  0  0  0  0  0  0  0  0  0  0  0
   -3.2100    1.6610  -20.9020 C   0  0  0  0  0  0  0  0  0  0  0  0
   -3.9340    1.1360  -21.9930 C   0  0  0  0  0  0  0  0  0  0  0  0
   -5.0270    0.3250  -21.7870 C   0  0  0  0  0  0  0  0  0  0  0  0
   -5.4540    0.0010  -20.4720 C   0  0  0  0  0  0  0  0  0  0  0  0
   -5.5810   -0.0530  -22.6380 H   0  0  0  0  0  0  0  0  0  0  0  0
   -3.6250    1.3810  -23.0050 H   0  0  0  0  0  0  0  0  0  0  0  0
   -2.3540    2.3050  -21.0860 H   0  0  0  0  0  0  0  0  0  0  0  0
   -3.0540    1.7780  -18.7730 H   0  0  0  0  0  0  0  0  0  0  0  0
   -4.5990    0.6290  -17.2170 H   0  0  0  0  0  0  0  0  0  0  0  0
   -7.7290   -1.6600  -18.5870 H   0  0  0  0  0  0  0  0  0  0  0  0
   -7.9860   -2.3010  -20.8420 H   0  0  0  0  0  0  0  0  0  0  0  0
   -6.8090   -1.8390  -22.0630 H   0  0  0  0  0  0  0  0  0  0  0  0
   -9.4950   -0.9120  -22.6370 N   0  0  0  0  0  0  0  0  0  0  0  0
   -9.4850   -2.2470  -23.2380 C   0  0  0  0  0  0  0  0  0  0  0  0
  -10.5420   -2.3940  -24.3280 C   0  0  0  0  0  0  0  0  0  0  0  0
  -11.9440   -2.0300  -23.8410 C   0  0  0  0  0  0  0  0  0  0  0  0
  -12.9290   -1.9540  -24.9880 C   0  0  0  0  0  0  0  0  0  0  0  0
  -14.3770   -2.2340  -24.7300 C   0  0  0  0  0  0  0  0  0  0  0  0
  -13.5500   -3.2120  -25.5030 C   0  0  0  0  0  0  0  0  0  0  0  0
  -13.2670   -4.1340  -25.0110 H   0  0  0  0  0  0  0  0  0  0  0  0
  -13.7500   -3.3130  -26.5580 H   0  0  0  0  0  0  0  0  0  0  0  0
  -15.1280   -1.6710  -25.2710 H   0  0  0  0  0  0  0  0  0  0  0  0
  -14.6390   -2.5050  -23.7160 H   0  0  0  0  0  0  0  0  0  0  0  0
  -12.7320   -1.1900  -25.7260 H   0  0  0  0  0  0  0  0  0  0  0  0
  -11.9360   -0.7530  -22.9820 C   0  0  0  0  0  0  0  0  0  0  0  0
  -10.5990   -0.0170  -23.0010 C   0  0  0  0  0  0  0  0  0  0  0  0
  -10.4290    0.4230  -23.9930 H   0  0  0  0  0  0  0  0  0  0  0  0
  -10.6270    0.8160  -22.2970 H   0  0  0  0  0  0  0  0  0  0  0  0
  -12.1810   -1.0090  -21.9450 H   0  0  0  0  0  0  0  0  0  0  0  0
  -12.7300   -0.0780  -23.3190 H   0  0  0  0  0  0  0  0  0  0  0  0
  -12.2840   -2.8490  -23.1970 H   0  0  0  0  0  0  0  0  0  0  0  0
  -10.2740   -1.7800  -25.1950 H   0  0  0  0  0  0  0  0  0  0  0  0
  -10.5410   -3.4290  -24.6910 H   0  0  0  0  0  0  0  0  0  0  0  0
   -9.6470   -3.0150  -22.4690 H   0  0  0  0  0  0  0  0  0  0  0  0
   -8.5010   -2.4460  -23.6820 H   0  0  0  0  0  0  0  0  0  0  0  0
  1  2  2  0  0  0  0
  2  3  1  0  0  0  0
  2 22  1  0  0  0  0
  3  4  1  0  0  0  0
  3 20  1  0  0  0  0
  3 21  1  0  0  0  0
  4  5  2  0  0  0  0
  4 13  1  0  0  0  0
  5  6  1  0  0  0  0
  5 19  1  0  0  0  0
  6  7  2  0  0  0  0
  7  8  1  0  0  0  0
  7 18  1  0  0  0  0
  8  9  2  0  0  0  0
  8 13  1  0  0  0  0
  9 10  1  0  0  0  0
  9 17  1  0  0  0  0
 10 11  2  0  0  0  0
 10 16  1  0  0  0  0
 11 12  1  0  0  0  0
 11 15  1  0  0  0  0
 12 13  2  0  0  0  0
 12 14  1  0  0  0  0
 22 23  1  0  0  0  0
 22 35  1  0  0  0  0
 23 24  1  0  0  0  0
 23 43  1  0  0  0  0
 23 44  1  0  0  0  0
 24 25  1  0  0  0  0
 24 41  1  0  0  0  0
 24 42  1  0  0  0  0
 25 26  1  0  0  0  0
 25 34  1  0  0  0  0
 25 40  1  0  0  0  0
 26 27  1  0  0  0  0
 26 28  1  0  0  0  0
 26 33  1  0  0  0  0
 27 28  1  0  0  0  0
 27 31  1  0  0  0  0
 27 32  1  0  0  0  0
 28 29  1  0  0  0  0
 28 30  1  0  0  0  0
 34 35  1  0  0  0  0
 34 38  1  0  0  0  0
 34 39  1  0  0  0  0
 35 36  1  0  0  0  0
 35 37  1  0  0  0  0
M  END
>  <MODEL>
       1

$$$$
