tmp_first_model_11_84.pdb
 OpenBabel08272522543D

 63 68  0  0  1  0  0  0  0  0999 V2000
   -7.9310   -3.4620  -24.1440 C   0  0  0  0  0  0  0  0  0  0  0  0
   -8.3050   -2.7830  -22.8270 C   0  0  1  0  0  0  0  0  0  0  0  0
   -7.0770   -2.5490  -21.9310 C   0  0  0  0  0  0  0  0  0  0  0  0
   -7.4190   -1.3620  -21.1810 N   0  0  0  0  0  0  0  0  0  0  0  0
   -6.6050   -0.8070  -20.1660 C   0  0  0  0  0  0  0  0  0  0  0  0
   -6.9230   -1.0340  -18.8530 C   0  0  0  0  0  0  0  0  0  0  0  0
   -6.2240   -0.5450  -17.8010 N   0  0  0  0  0  0  0  0  0  0  0  0
   -5.1830    0.2070  -18.0740 C   0  0  0  0  0  0  0  0  0  0  0  0
   -4.7470    0.5250  -19.3920 C   0  0  0  0  0  0  0  0  0  0  0  0
   -3.6210    1.3560  -19.6370 C   0  0  0  0  0  0  0  0  0  0  0  0
   -3.2380    1.6510  -20.9170 C   0  0  0  0  0  0  0  0  0  0  0  0
   -3.9580    1.1320  -22.0160 C   0  0  0  0  0  0  0  0  0  0  0  0
   -5.0530    0.3280  -21.8070 C   0  0  0  0  0  0  0  0  0  0  0  0
   -5.4740    0.0030  -20.4860 C   0  0  0  0  0  0  0  0  0  0  0  0
   -5.6140   -0.0340  -22.6630 H   0  0  0  0  0  0  0  0  0  0  0  0
   -3.6620    1.3850  -23.0300 H   0  0  0  0  0  0  0  0  0  0  0  0
   -2.3790    2.2930  -21.0930 H   0  0  0  0  0  0  0  0  0  0  0  0
   -3.0910    1.7660  -18.7820 H   0  0  0  0  0  0  0  0  0  0  0  0
   -4.6190    0.6040  -17.2290 H   0  0  0  0  0  0  0  0  0  0  0  0
   -7.7910   -1.6440  -18.6150 H   0  0  0  0  0  0  0  0  0  0  0  0
   -8.4830   -0.6520  -21.6840 C   0  0  0  0  0  0  0  0  0  0  0  0
   -8.8810    0.3960  -21.2120 O   0  0  0  0  0  0  0  0  0  0  0  0
   -9.0360   -1.4040  -22.9170 C   0  0  1  0  0  0  0  0  0  0  0  0
   -8.6640   -0.6620  -24.2230 C   0  0  0  0  0  0  0  0  0  0  0  0
   -9.4280    0.5570  -24.4070 N   0  0  0  0  0  0  0  0  0  0  0  0
   -8.7400    1.7230  -24.9210 C   0  0  0  0  0  0  0  0  0  0  0  0
   -7.7190    2.1910  -23.8820 C   0  0  0  0  0  0  0  0  0  0  0  0
   -6.5360    1.8990  -23.9410 O   0  0  0  0  0  0  0  0  0  0  0  0
   -8.2640    2.9170  -22.8710 N   0  0  0  0  0  0  0  0  0  0  0  0
   -7.4070    3.4880  -21.8550 C   0  0  0  0  0  0  0  0  0  0  0  0
   -6.7350    4.7660  -22.2910 C   0  0  0  0  0  0  0  0  0  0  0  0
   -5.8120    4.5630  -23.2840 F   0  0  0  0  0  0  0  0  0  0  0  0
   -7.4990    6.0510  -22.3410 C   0  0  0  0  0  0  0  0  0  0  0  0
   -6.4410    5.8130  -21.2830 C   0  0  0  0  0  0  0  0  0  0  0  0
   -5.4650    6.2980  -21.3270 H   0  0  0  0  0  0  0  0  0  0  0  0
   -6.8290    5.6070  -20.2940 H   0  0  0  0  0  0  0  0  0  0  0  0
   -7.2610    6.7380  -23.1480 H   0  0  0  0  0  0  0  0  0  0  0  0
   -8.5530    6.0000  -22.0520 H   0  0  0  0  0  0  0  0  0  0  0  0
   -8.0140    3.7230  -20.9810 H   0  0  0  0  0  0  0  0  0  0  0  0
   -6.6480    2.7490  -21.5760 H   0  0  0  0  0  0  0  0  0  0  0  0
   -9.2610    2.8680  -22.7120 H   0  0  0  0  0  0  0  0  0  0  0  0
   -9.4990    2.4830  -25.1300 H   0  0  0  0  0  0  0  0  0  0  0  0
   -8.2220    1.4750  -25.8530 H   0  0  0  0  0  0  0  0  0  0  0  0
  -10.7830    0.5900  -24.2690 C   0  0  0  0  0  0  0  0  0  0  0  0
  -11.4700    1.5020  -24.7040 O   0  0  0  0  0  0  0  0  0  0  0  0
  -11.3650   -0.5580  -23.5080 C   0  0  0  0  0  0  0  0  0  0  0  0
  -12.7520   -0.6320  -23.4310 C   0  0  0  0  0  0  0  0  0  0  0  0
  -13.3630   -1.5570  -22.6120 C   0  0  0  0  0  0  0  0  0  0  0  0
  -12.5400   -2.4020  -21.8780 C   0  0  0  0  0  0  0  0  0  0  0  0
  -13.1140   -3.2830  -21.0460 F   0  0  0  0  0  0  0  0  0  0  0  0
  -11.1640   -2.3790  -21.9680 C   0  0  0  0  0  0  0  0  0  0  0  0
  -10.5470   -1.4710  -22.8310 C   0  0  0  0  0  0  0  0  0  0  0  0
  -10.5930   -3.0600  -21.3470 H   0  0  0  0  0  0  0  0  0  0  0  0
  -14.4400   -1.6120  -22.4950 H   0  0  0  0  0  0  0  0  0  0  0  0
  -13.3230    0.0920  -23.9970 H   0  0  0  0  0  0  0  0  0  0  0  0
   -7.6030   -0.4000  -24.2110 H   0  0  0  0  0  0  0  0  0  0  0  0
   -8.8400   -1.3370  -25.0710 H   0  0  0  0  0  0  0  0  0  0  0  0
   -6.8940   -3.3900  -21.2540 H   0  0  0  0  0  0  0  0  0  0  0  0
   -6.1630   -2.4050  -22.5280 H   0  0  0  0  0  0  0  0  0  0  0  0
   -8.9770   -3.4580  -22.2940 H   0  0  0  0  0  0  0  0  0  0  0  0
   -7.1960   -2.8690  -24.7000 H   0  0  0  0  0  0  0  0  0  0  0  0
   -7.4840   -4.4430  -23.9530 H   0  0  0  0  0  0  0  0  0  0  0  0
   -8.8020   -3.6110  -24.7910 H   0  0  0  0  0  0  0  0  0  0  0  0
  1  2  1  0  0  0  0
  1 61  1  0  0  0  0
  1 62  1  0  0  0  0
  1 63  1  0  0  0  0
  2  3  1  0  0  0  0
  2 23  1  0  0  0  0
  2 60  1  1  0  0  0
  3  4  1  0  0  0  0
  3 58  1  0  0  0  0
  3 59  1  0  0  0  0
  4  5  1  0  0  0  0
  4 21  1  0  0  0  0
  5  6  2  0  0  0  0
  5 14  1  0  0  0  0
  6  7  1  0  0  0  0
  6 20  1  0  0  0  0
  7  8  2  0  0  0  0
  8  9  1  0  0  0  0
  8 19  1  0  0  0  0
  9 10  2  0  0  0  0
  9 14  1  0  0  0  0
 10 11  1  0  0  0  0
 10 18  1  0  0  0  0
 11 12  2  0  0  0  0
 11 17  1  0  0  0  0
 12 13  1  0  0  0  0
 12 16  1  0  0  0  0
 13 14  2  0  0  0  0
 13 15  1  0  0  0  0
 21 22  2  0  0  0  0
 23 21  1  1  0  0  0
 23 24  1  0  0  0  0
 23 52  1  0  0  0  0
 24 25  1  0  0  0  0
 24 56  1  0  0  0  0
 24 57  1  0  0  0  0
 25 26  1  0  0  0  0
 25 44  1  0  0  0  0
 26 27  1  0  0  0  0
 26 42  1  0  0  0  0
 26 43  1  0  0  0  0
 27 28  2  0  0  0  0
 27 29  1  0  0  0  0
 29 30  1  0  0  0  0
 29 41  1  0  0  0  0
 30 31  1  0  0  0  0
 30 39  1  0  0  0  0
 30 40  1  0  0  0  0
 31 32  1  0  0  0  0
 31 33  1  0  0  0  0
 31 34  1  0  0  0  0
 33 34  1  0  0  0  0
 33 37  1  0  0  0  0
 33 38  1  0  0  0  0
 34 35  1  0  0  0  0
 34 36  1  0  0  0  0
 44 45  2  0  0  0  0
 44 46  1  0  0  0  0
 46 47  2  0  0  0  0
 46 52  1  0  0  0  0
 47 48  1  0  0  0  0
 47 55  1  0  0  0  0
 48 49  2  0  0  0  0
 48 54  1  0  0  0  0
 49 50  1  0  0  0  0
 49 51  1  0  0  0  0
 51 52  2  0  0  0  0
 51 53  1  0  0  0  0
M  END
>  <MODEL>
       1

$$$$
