tmp_first_model_20_61.pdb
 OpenBabel08282503553D

 44 47  0  0  0  0  0  0  0  0999 V2000
   -8.8740    0.4470  -20.9730 O   0  0  0  0  0  0  0  0  0  0  0  0
   -8.2770   -0.2750  -21.7460 C   0  0  0  0  0  0  0  0  0  0  0  0
   -7.4510   -1.4460  -21.2120 C   0  0  0  0  0  0  0  0  0  0  0  0
   -6.5660   -0.9100  -20.1280 C   0  0  0  0  0  0  0  0  0  0  0  0
   -6.8970   -1.0870  -18.8100 C   0  0  0  0  0  0  0  0  0  0  0  0
   -6.2250   -0.5600  -17.7570 N   0  0  0  0  0  0  0  0  0  0  0  0
   -5.1820    0.1790  -18.0460 C   0  0  0  0  0  0  0  0  0  0  0  0
   -4.7370    0.4700  -19.3640 C   0  0  0  0  0  0  0  0  0  0  0  0
   -3.6120    1.2990  -19.5990 C   0  0  0  0  0  0  0  0  0  0  0  0
   -3.2290    1.6070  -20.8750 C   0  0  0  0  0  0  0  0  0  0  0  0
   -3.9540    1.0920  -21.9720 C   0  0  0  0  0  0  0  0  0  0  0  0
   -5.0430    0.2770  -21.7730 C   0  0  0  0  0  0  0  0  0  0  0  0
   -5.4620   -0.0670  -20.4510 C   0  0  0  0  0  0  0  0  0  0  0  0
   -5.5900   -0.0880  -22.6390 H   0  0  0  0  0  0  0  0  0  0  0  0
   -3.6510    1.3570  -22.9840 H   0  0  0  0  0  0  0  0  0  0  0  0
   -2.3760    2.2580  -21.0530 H   0  0  0  0  0  0  0  0  0  0  0  0
   -3.0750    1.6900  -18.7380 H   0  0  0  0  0  0  0  0  0  0  0  0
   -4.6360    0.6050  -17.2050 H   0  0  0  0  0  0  0  0  0  0  0  0
   -7.7700   -1.6840  -18.5430 H   0  0  0  0  0  0  0  0  0  0  0  0
   -6.8700   -1.9360  -21.9970 H   0  0  0  0  0  0  0  0  0  0  0  0
   -8.1510   -2.1800  -20.7980 H   0  0  0  0  0  0  0  0  0  0  0  0
   -8.2770   -0.0380  -23.1010 N   0  0  0  0  0  0  0  0  0  0  0  0
   -7.9170   -1.0560  -24.0710 C   0  0  0  0  0  0  0  0  0  0  0  0
   -8.6670   -0.8120  -25.3690 C   0  0  0  0  0  0  0  0  0  0  0  0
   -8.4230    0.5910  -25.9230 C   0  0  0  0  0  0  0  0  0  0  0  0
   -9.0440    0.7840  -27.3230 C   0  0  0  0  0  0  0  0  0  0  0  0
   -7.7050    1.2670  -27.9120 C   0  0  0  0  0  0  0  0  0  0  0  0
   -7.0300    0.8830  -26.5650 C   0  0  0  0  0  0  0  0  0  0  0  0
   -6.4060    1.6470  -26.0800 H   0  0  0  0  0  0  0  0  0  0  0  0
   -6.4400   -0.0340  -26.6540 H   0  0  0  0  0  0  0  0  0  0  0  0
   -7.3480    0.7680  -28.8250 H   0  0  0  0  0  0  0  0  0  0  0  0
   -7.7190    2.3400  -28.1250 H   0  0  0  0  0  0  0  0  0  0  0  0
   -9.3440   -0.1800  -27.7320 H   0  0  0  0  0  0  0  0  0  0  0  0
   -9.8790    1.4820  -27.3880 H   0  0  0  0  0  0  0  0  0  0  0  0
   -8.8830    1.5780  -24.8510 C   0  0  0  0  0  0  0  0  0  0  0  0
   -8.1730    1.3600  -23.5190 C   0  0  0  0  0  0  0  0  0  0  0  0
   -7.1100    1.6630  -23.5670 H   0  0  0  0  0  0  0  0  0  0  0  0
   -8.6450    1.9550  -22.7340 H   0  0  0  0  0  0  0  0  0  0  0  0
   -8.7620    2.6120  -25.1990 H   0  0  0  0  0  0  0  0  0  0  0  0
   -9.9530    1.4020  -24.6760 H   0  0  0  0  0  0  0  0  0  0  0  0
   -8.4120   -1.5830  -26.1070 H   0  0  0  0  0  0  0  0  0  0  0  0
   -9.7400   -0.9110  -25.1550 H   0  0  0  0  0  0  0  0  0  0  0  0
   -6.8290   -1.0680  -24.2430 H   0  0  0  0  0  0  0  0  0  0  0  0
   -8.2050   -2.0300  -23.6690 H   0  0  0  0  0  0  0  0  0  0  0  0
  1  2  2  0  0  0  0
  2  3  1  0  0  0  0
  2 22  1  0  0  0  0
  3  4  1  0  0  0  0
  3 20  1  0  0  0  0
  3 21  1  0  0  0  0
  4  5  2  0  0  0  0
  4 13  1  0  0  0  0
  5  6  1  0  0  0  0
  5 19  1  0  0  0  0
  6  7  2  0  0  0  0
  7  8  1  0  0  0  0
  7 18  1  0  0  0  0
  8  9  2  0  0  0  0
  8 13  1  0  0  0  0
  9 10  1  0  0  0  0
  9 17  1  0  0  0  0
 10 11  2  0  0  0  0
 10 16  1  0  0  0  0
 11 12  1  0  0  0  0
 11 15  1  0  0  0  0
 12 13  2  0  0  0  0
 12 14  1  0  0  0  0
 22 23  1  0  0  0  0
 22 36  1  0  0  0  0
 23 24  1  0  0  0  0
 23 43  1  0  0  0  0
 23 44  1  0  0  0  0
 24 25  1  0  0  0  0
 24 41  1  0  0  0  0
 24 42  1  0  0  0  0
 25 26  1  0  0  0  0
 25 28  1  0  0  0  0
 25 35  1  0  0  0  0
 26 27  1  0  0  0  0
 26 33  1  0  0  0  0
 26 34  1  0  0  0  0
 27 28  1  0  0  0  0
 27 31  1  0  0  0  0
 27 32  1  0  0  0  0
 28 29  1  0  0  0  0
 28 30  1  0  0  0  0
 35 36  1  0  0  0  0
 35 39  1  0  0  0  0
 35 40  1  0  0  0  0
 36 37  1  0  0  0  0
 36 38  1  0  0  0  0
M  END
>  <MODEL>
       1

$$$$
