tmp_first_model_17_55.pdb
 OpenBabel08282502223D

 61 66  0  0  1  0  0  0  0  0999 V2000
   -7.0050   -5.4640  -25.0490 C   0  0  0  0  0  0  0  0  0  0  0  0
   -7.3280   -4.8020  -23.8530 O   0  0  0  0  0  0  0  0  0  0  0  0
   -7.9840   -3.5810  -24.0790 C   0  0  0  0  0  0  0  0  0  0  0  0
   -8.2850   -2.9260  -22.7350 C   0  0  1  0  0  0  0  0  0  0  0  0
   -7.0050   -2.5610  -21.9560 C   0  0  0  0  0  0  0  0  0  0  0  0
   -7.3890   -1.3820  -21.2030 N   0  0  0  0  0  0  0  0  0  0  0  0
   -6.6050   -0.8100  -20.1730 C   0  0  0  0  0  0  0  0  0  0  0  0
   -6.9240   -1.0400  -18.8590 C   0  0  0  0  0  0  0  0  0  0  0  0
   -6.2260   -0.5470  -17.8070 N   0  0  0  0  0  0  0  0  0  0  0  0
   -5.1890    0.2110  -18.0760 C   0  0  0  0  0  0  0  0  0  0  0  0
   -4.7560    0.5390  -19.3930 C   0  0  0  0  0  0  0  0  0  0  0  0
   -3.6360    1.3780  -19.6330 C   0  0  0  0  0  0  0  0  0  0  0  0
   -3.2550    1.6760  -20.9120 C   0  0  0  0  0  0  0  0  0  0  0  0
   -3.9560    1.1350  -22.0100 C   0  0  0  0  0  0  0  0  0  0  0  0
   -5.0300    0.3010  -21.8040 C   0  0  0  0  0  0  0  0  0  0  0  0
   -5.4700   -0.0020  -20.4860 C   0  0  0  0  0  0  0  0  0  0  0  0
   -5.5880   -0.0740  -22.6560 H   0  0  0  0  0  0  0  0  0  0  0  0
   -3.6370    1.3920  -23.0180 H   0  0  0  0  0  0  0  0  0  0  0  0
   -2.3970    2.3160  -21.0930 H   0  0  0  0  0  0  0  0  0  0  0  0
   -3.0900    1.7680  -18.7800 H   0  0  0  0  0  0  0  0  0  0  0  0
   -4.6230    0.6060  -17.2310 H   0  0  0  0  0  0  0  0  0  0  0  0
   -7.7850   -1.6590  -18.6170 H   0  0  0  0  0  0  0  0  0  0  0  0
   -8.5870   -0.8220  -21.5840 C   0  0  0  0  0  0  0  0  0  0  0  0
   -9.1020    0.1400  -21.0500 O   0  0  0  0  0  0  0  0  0  0  0  0
   -9.1200   -1.6160  -22.8000 C   0  0  1  0  0  0  0  0  0  0  0  0
   -8.8190   -0.8420  -24.1080 C   0  0  0  0  0  0  0  0  0  0  0  0
   -9.6150    0.3610  -24.2130 N   0  0  0  0  0  0  0  0  0  0  0  0
   -8.9880    1.5970  -24.6370 C   0  0  0  0  0  0  0  0  0  0  0  0
   -8.1910    2.2630  -23.5630 C   0  0  0  0  0  0  0  0  0  0  0  0
   -6.8520    2.3780  -23.3960 C   0  0  0  0  0  0  0  0  0  0  0  0
   -6.6390    3.1130  -22.2550 N   0  3  0  0  0  0  0  0  0  0  0  0
   -7.8160    3.4580  -21.7300 C   0  0  0  0  0  0  0  0  0  0  0  0
   -8.7810    2.9520  -22.5150 N   0  0  0  0  0  0  0  0  0  0  0  0
   -9.7630    2.9010  -22.2440 H   0  0  0  0  0  0  0  0  0  0  0  0
   -7.9530    4.1050  -20.8760 H   0  0  0  0  0  0  0  0  0  0  0  0
   -5.7320    3.1770  -21.8090 H   0  0  0  0  0  0  0  0  0  0  0  0
   -6.0150    1.9870  -23.9520 H   0  0  0  0  0  0  0  0  0  0  0  0
   -9.8080    2.2370  -24.9690 H   0  0  0  0  0  0  0  0  0  0  0  0
   -8.3630    1.3860  -25.5080 H   0  0  0  0  0  0  0  0  0  0  0  0
  -10.9700    0.3270  -24.0540 C   0  0  0  0  0  0  0  0  0  0  0  0
  -11.7010    1.2260  -24.4420 O   0  0  0  0  0  0  0  0  0  0  0  0
  -11.4940   -0.8610  -23.3120 C   0  0  0  0  0  0  0  0  0  0  0  0
  -12.8740   -0.9350  -23.1480 C   0  0  0  0  0  0  0  0  0  0  0  0
  -13.4130   -1.8340  -22.2560 C   0  0  0  0  0  0  0  0  0  0  0  0
  -12.5470   -2.6870  -21.5760 C   0  0  0  0  0  0  0  0  0  0  0  0
  -13.1960   -3.7100  -20.3400 Cl  0  0  0  0  0  0  0  0  0  0  0  0
  -11.1840   -2.6950  -21.8100 C   0  0  0  0  0  0  0  0  0  0  0  0
  -10.6240   -1.7680  -22.6910 C   0  0  0  0  0  0  0  0  0  0  0  0
  -10.5670   -3.4110  -21.2800 H   0  0  0  0  0  0  0  0  0  0  0  0
  -14.4740   -1.8650  -22.0370 H   0  0  0  0  0  0  0  0  0  0  0  0
  -13.4810   -0.2360  -23.7110 H   0  0  0  0  0  0  0  0  0  0  0  0
   -9.0430   -1.5010  -24.9580 H   0  0  0  0  0  0  0  0  0  0  0  0
   -7.7600   -0.5650  -24.1570 H   0  0  0  0  0  0  0  0  0  0  0  0
   -6.1650   -2.3530  -22.6340 H   0  0  0  0  0  0  0  0  0  0  0  0
   -6.6930   -3.3620  -21.2820 H   0  0  0  0  0  0  0  0  0  0  0  0
   -8.8390   -3.6580  -22.1460 H   0  0  0  0  0  0  0  0  0  0  0  0
   -8.9200   -3.7450  -24.6420 H   0  0  0  0  0  0  0  0  0  0  0  0
   -7.3460   -2.9180  -24.6900 H   0  0  0  0  0  0  0  0  0  0  0  0
   -6.5400   -6.4160  -24.7840 H   0  0  0  0  0  0  0  0  0  0  0  0
   -7.8980   -5.6680  -25.6610 H   0  0  0  0  0  0  0  0  0  0  0  0
   -6.2960   -4.8840  -25.6600 H   0  0  0  0  0  0  0  0  0  0  0  0
  1  2  1  0  0  0  0
  1 59  1  0  0  0  0
  1 60  1  0  0  0  0
  1 61  1  0  0  0  0
  2  3  1  0  0  0  0
  3  4  1  0  0  0  0
  3 57  1  0  0  0  0
  3 58  1  0  0  0  0
  4  5  1  0  0  0  0
  4 25  1  0  0  0  0
  4 56  1  1  0  0  0
  5  6  1  0  0  0  0
  5 54  1  0  0  0  0
  5 55  1  0  0  0  0
  6  7  1  0  0  0  0
  6 23  1  0  0  0  0
  7  8  2  0  0  0  0
  7 16  1  0  0  0  0
  8  9  1  0  0  0  0
  8 22  1  0  0  0  0
  9 10  2  0  0  0  0
 10 11  1  0  0  0  0
 10 21  1  0  0  0  0
 11 12  2  0  0  0  0
 11 16  1  0  0  0  0
 12 13  1  0  0  0  0
 12 20  1  0  0  0  0
 13 14  2  0  0  0  0
 13 19  1  0  0  0  0
 14 15  1  0  0  0  0
 14 18  1  0  0  0  0
 15 16  2  0  0  0  0
 15 17  1  0  0  0  0
 23 24  2  0  0  0  0
 25 23  1  1  0  0  0
 25 26  1  0  0  0  0
 25 48  1  0  0  0  0
 26 27  1  0  0  0  0
 26 52  1  0  0  0  0
 26 53  1  0  0  0  0
 27 28  1  0  0  0  0
 27 40  1  0  0  0  0
 28 29  1  0  0  0  0
 28 38  1  0  0  0  0
 28 39  1  0  0  0  0
 29 30  2  0  0  0  0
 29 33  1  0  0  0  0
 30 31  1  0  0  0  0
 30 37  1  0  0  0  0
 31 32  2  0  0  0  0
 31 36  1  0  0  0  0
 32 33  1  0  0  0  0
 32 35  1  0  0  0  0
 33 34  1  0  0  0  0
 40 41  2  0  0  0  0
 40 42  1  0  0  0  0
 42 43  2  0  0  0  0
 42 48  1  0  0  0  0
 43 44  1  0  0  0  0
 43 51  1  0  0  0  0
 44 45  2  0  0  0  0
 44 50  1  0  0  0  0
 45 46  1  0  0  0  0
 45 47  1  0  0  0  0
 47 48  2  0  0  0  0
 47 49  1  0  0  0  0
M  CHG  1  31   1
M  END
>  <MODEL>
       1

$$$$
