tmp_first_model_2_15.pdb
 OpenBabel08272517383D

 63 68  0  0  1  0  0  0  0  0999 V2000
   -7.4030    3.3710  -21.8400 C   0  0  0  0  0  0  0  0  0  0  0  0
   -8.3790    2.8970  -22.8110 N   0  0  0  0  0  0  0  0  0  0  0  0
   -7.8790    2.1720  -23.8580 C   0  0  0  0  0  0  0  0  0  0  0  0
   -6.6800    1.9910  -24.0180 O   0  0  0  0  0  0  0  0  0  0  0  0
   -8.8940    1.5830  -24.8370 C   0  0  0  0  0  0  0  0  0  0  0  0
   -9.5180    0.4060  -24.2700 N   0  0  0  0  0  0  0  0  0  0  0  0
   -8.7390   -0.8130  -24.1380 C   0  0  0  0  0  0  0  0  0  0  0  0
   -9.0780   -1.5690  -22.8300 C   0  0  2  0  0  0  0  0  0  0  0  0
   -8.5500   -0.7820  -21.6100 C   0  0  0  0  0  0  0  0  0  0  0  0
   -9.0400    0.2060  -21.0970 O   0  0  0  0  0  0  0  0  0  0  0  0
   -7.3880   -1.3830  -21.1890 N   0  0  0  0  0  0  0  0  0  0  0  0
   -6.5990   -0.8130  -20.1670 C   0  0  0  0  0  0  0  0  0  0  0  0
   -6.9250   -1.0410  -18.8570 C   0  0  0  0  0  0  0  0  0  0  0  0
   -6.2340   -0.5480  -17.8030 N   0  0  0  0  0  0  0  0  0  0  0  0
   -5.1920    0.2040  -18.0720 C   0  0  0  0  0  0  0  0  0  0  0  0
   -4.7500    0.5240  -19.3890 C   0  0  0  0  0  0  0  0  0  0  0  0
   -3.6270    1.3600  -19.6310 C   0  0  0  0  0  0  0  0  0  0  0  0
   -3.2460    1.6590  -20.9100 C   0  0  0  0  0  0  0  0  0  0  0  0
   -3.9670    1.1470  -22.0110 C   0  0  0  0  0  0  0  0  0  0  0  0
   -5.0590    0.3380  -21.8070 C   0  0  0  0  0  0  0  0  0  0  0  0
   -5.4710    0.0010  -20.4860 C   0  0  0  0  0  0  0  0  0  0  0  0
   -5.6250   -0.0180  -22.6640 H   0  0  0  0  0  0  0  0  0  0  0  0
   -3.6660    1.4020  -23.0240 H   0  0  0  0  0  0  0  0  0  0  0  0
   -2.3870    2.2980  -21.0860 H   0  0  0  0  0  0  0  0  0  0  0  0
   -3.0940    1.7610  -18.7740 H   0  0  0  0  0  0  0  0  0  0  0  0
   -4.6310    0.6020  -17.2260 H   0  0  0  0  0  0  0  0  0  0  0  0
   -7.7920   -1.6560  -18.6260 H   0  0  0  0  0  0  0  0  0  0  0  0
   -7.0100   -2.5630  -21.9280 C   0  0  0  0  0  0  0  0  0  0  0  0
   -8.2820   -2.9000  -22.7170 C   0  0  2  0  0  0  0  0  0  0  0  0
   -7.9600   -3.6150  -24.0370 C   0  0  0  0  0  0  0  0  0  0  0  0
   -7.3790   -4.9290  -23.8320 N   0  0  0  0  0  0  0  0  0  0  0  0
   -8.0530   -6.0810  -23.6390 C   0  0  0  0  0  0  0  0  0  0  0  0
   -7.1240   -7.0540  -23.3680 C   0  0  0  0  0  0  0  0  0  0  0  0
   -5.8890   -6.3850  -23.4500 C   0  0  0  0  0  0  0  0  0  0  0  0
   -6.0530   -5.0910  -23.7140 N   0  0  0  0  0  0  0  0  0  0  0  0
   -4.8890   -6.7940  -23.3480 H   0  0  0  0  0  0  0  0  0  0  0  0
   -7.3180   -8.0860  -23.1200 H   0  0  0  0  0  0  0  0  0  0  0  0
   -9.1280   -6.1270  -23.7390 H   0  0  0  0  0  0  0  0  0  0  0  0
   -7.2390   -3.0390  -24.6250 H   0  0  0  0  0  0  0  0  0  0  0  0
   -8.8670   -3.7550  -24.6330 H   0  0  0  0  0  0  0  0  0  0  0  0
   -8.8780   -3.5860  -22.1140 H   0  0  0  0  0  0  0  0  0  0  0  0
   -6.1590   -2.3780  -22.6050 H   0  0  0  0  0  0  0  0  0  0  0  0
   -6.7170   -3.3650  -21.2450 H   0  0  0  0  0  0  0  0  0  0  0  0
  -10.5860   -1.6900  -22.7470 C   0  0  0  0  0  0  0  0  0  0  0  0
  -11.1830   -2.6440  -21.9210 C   0  0  0  0  0  0  0  0  0  0  0  0
  -12.5590   -2.6890  -21.8000 C   0  0  0  0  0  0  0  0  0  0  0  0
  -13.2630   -3.8460  -20.7160 Cl  0  0  0  0  0  0  0  0  0  0  0  0
  -13.3970   -1.8140  -22.4890 C   0  0  0  0  0  0  0  0  0  0  0  0
  -12.8120   -0.8490  -23.2770 C   0  0  0  0  0  0  0  0  0  0  0  0
  -11.4270   -0.7650  -23.3760 C   0  0  0  0  0  0  0  0  0  0  0  0
  -10.8730    0.4070  -24.1140 C   0  0  0  0  0  0  0  0  0  0  0  0
  -11.5820    1.3170  -24.5210 O   0  0  0  0  0  0  0  0  0  0  0  0
  -13.3980   -0.1140  -23.8140 H   0  0  0  0  0  0  0  0  0  0  0  0
  -14.4740   -1.8790  -22.3760 H   0  0  0  0  0  0  0  0  0  0  0  0
  -10.5890   -3.3430  -21.3430 H   0  0  0  0  0  0  0  0  0  0  0  0
   -8.9510   -1.4770  -24.9850 H   0  0  0  0  0  0  0  0  0  0  0  0
   -7.6740   -0.5550  -24.1710 H   0  0  0  0  0  0  0  0  0  0  0  0
   -9.7000    2.2840  -25.0840 H   0  0  0  0  0  0  0  0  0  0  0  0
   -8.3430    1.3180  -25.7470 H   0  0  0  0  0  0  0  0  0  0  0  0
   -9.3160    2.7250  -22.4620 H   0  0  0  0  0  0  0  0  0  0  0  0
   -6.7820    2.5290  -21.4920 H   0  0  0  0  0  0  0  0  0  0  0  0
   -7.9230    3.8430  -21.0030 H   0  0  0  0  0  0  0  0  0  0  0  0
   -6.7530    4.1250  -22.2970 H   0  0  0  0  0  0  0  0  0  0  0  0
  1  2  1  0  0  0  0
  1 61  1  0  0  0  0
  1 62  1  0  0  0  0
  1 63  1  0  0  0  0
  2  3  1  0  0  0  0
  2 60  1  0  0  0  0
  3  4  2  0  0  0  0
  3  5  1  0  0  0  0
  5  6  1  0  0  0  0
  5 58  1  0  0  0  0
  5 59  1  0  0  0  0
  6  7  1  0  0  0  0
  6 51  1  0  0  0  0
  7  8  1  0  0  0  0
  7 56  1  0  0  0  0
  7 57  1  0  0  0  0
  8  9  1  1  0  0  0
  8 29  1  0  0  0  0
  8 44  1  0  0  0  0
  9 10  2  0  0  0  0
  9 11  1  0  0  0  0
 11 12  1  0  0  0  0
 11 28  1  0  0  0  0
 12 13  2  0  0  0  0
 12 21  1  0  0  0  0
 13 14  1  0  0  0  0
 13 27  1  0  0  0  0
 14 15  2  0  0  0  0
 15 16  1  0  0  0  0
 15 26  1  0  0  0  0
 16 17  2  0  0  0  0
 16 21  1  0  0  0  0
 17 18  1  0  0  0  0
 17 25  1  0  0  0  0
 18 19  2  0  0  0  0
 18 24  1  0  0  0  0
 19 20  1  0  0  0  0
 19 23  1  0  0  0  0
 20 21  2  0  0  0  0
 20 22  1  0  0  0  0
 28 29  1  0  0  0  0
 28 42  1  0  0  0  0
 28 43  1  0  0  0  0
 29 30  1  0  0  0  0
 29 41  1  1  0  0  0
 30 31  1  0  0  0  0
 30 39  1  0  0  0  0
 30 40  1  0  0  0  0
 31 32  1  0  0  0  0
 31 35  1  0  0  0  0
 32 33  2  0  0  0  0
 32 38  1  0  0  0  0
 33 34  1  0  0  0  0
 33 37  1  0  0  0  0
 34 35  2  0  0  0  0
 34 36  1  0  0  0  0
 44 45  2  0  0  0  0
 44 50  1  0  0  0  0
 45 46  1  0  0  0  0
 45 55  1  0  0  0  0
 46 47  1  0  0  0  0
 46 48  2  0  0  0  0
 48 49  1  0  0  0  0
 48 54  1  0  0  0  0
 49 50  2  0  0  0  0
 49 53  1  0  0  0  0
 50 51  1  0  0  0  0
 51 52  2  0  0  0  0
M  END
>  <MODEL>
       1

$$$$
