tmp_first_model_18_3.pdb
 OpenBabel08282502533D

 66 70  0  0  1  0  0  0  0  0999 V2000
   -6.9460    3.4140  -23.1340 C   0  0  0  0  0  0  0  0  0  0  0  0
   -7.6860    2.6390  -24.1160 N   0  0  0  0  0  0  0  0  0  0  0  0
   -7.0580    1.6300  -24.7770 C   0  0  0  0  0  0  0  0  0  0  0  0
   -5.8580    1.4330  -24.6830 O   0  0  0  0  0  0  0  0  0  0  0  0
   -7.9480    0.7650  -25.6760 C   0  0  0  0  0  0  0  0  0  0  0  0
   -8.8560   -0.0690  -24.9150 N   0  0  0  0  0  0  0  0  0  0  0  0
   -8.3900   -1.3410  -24.3860 C   0  0  0  0  0  0  0  0  0  0  0  0
   -9.0260   -1.6410  -22.9990 C   0  0  2  0  0  0  0  0  0  0  0  0
   -8.4040   -0.6540  -21.9790 C   0  0  0  0  0  0  0  0  0  0  0  0
   -8.6420    0.5270  -21.8740 O   0  0  0  0  0  0  0  0  0  0  0  0
   -7.4870   -1.3520  -21.2160 N   0  0  0  0  0  0  0  0  0  0  0  0
   -6.6740   -0.7710  -20.2100 C   0  0  0  0  0  0  0  0  0  0  0  0
   -6.9460   -1.0500  -18.8940 C   0  0  0  0  0  0  0  0  0  0  0  0
   -6.2480   -0.5700  -17.8380 N   0  0  0  0  0  0  0  0  0  0  0  0
   -5.2210    0.2010  -18.1020 C   0  0  0  0  0  0  0  0  0  0  0  0
   -4.7910    0.5290  -19.4180 C   0  0  0  0  0  0  0  0  0  0  0  0
   -3.6480    1.3420  -19.6380 C   0  0  0  0  0  0  0  0  0  0  0  0
   -3.2270    1.6180  -20.9090 C   0  0  0  0  0  0  0  0  0  0  0  0
   -3.9280    1.0910  -22.0170 C   0  0  0  0  0  0  0  0  0  0  0  0
   -5.0410    0.3050  -21.8320 C   0  0  0  0  0  0  0  0  0  0  0  0
   -5.5190    0.0180  -20.5210 C   0  0  0  0  0  0  0  0  0  0  0  0
   -5.5510   -0.0920  -22.7030 H   0  0  0  0  0  0  0  0  0  0  0  0
   -3.6030    1.3200  -23.0280 H   0  0  0  0  0  0  0  0  0  0  0  0
   -2.3500    2.2380  -21.0740 H   0  0  0  0  0  0  0  0  0  0  0  0
   -3.1250    1.7370  -18.7710 H   0  0  0  0  0  0  0  0  0  0  0  0
   -4.6620    0.6010  -17.2560 H   0  0  0  0  0  0  0  0  0  0  0  0
   -7.7860   -1.7010  -18.6530 H   0  0  0  0  0  0  0  0  0  0  0  0
   -7.3360   -2.7440  -21.5800 C   0  0  0  0  0  0  0  0  0  0  0  0
   -8.5740   -3.0210  -22.4430 C   0  0  2  0  0  0  0  0  0  0  0  0
   -8.3530   -4.0750  -23.5160 C   0  0  0  0  0  0  0  0  0  0  0  0
   -8.1220   -5.3250  -22.9100 O   0  0  0  0  0  0  0  0  0  0  0  0
   -7.6100   -6.2930  -23.8140 C   0  0  0  0  0  0  0  0  0  0  0  0
   -8.1450   -7.6510  -23.4030 C   0  0  0  0  0  0  0  0  0  0  0  0
   -9.2270   -7.7150  -23.4980 H   0  0  0  0  0  0  0  0  0  0  0  0
   -7.8670   -7.8480  -22.3630 H   0  0  0  0  0  0  0  0  0  0  0  0
   -7.7020   -8.4130  -24.0470 H   0  0  0  0  0  0  0  0  0  0  0  0
   -6.0860   -6.3190  -23.7860 C   0  0  0  0  0  0  0  0  0  0  0  0
   -5.7280   -7.0970  -24.4700 H   0  0  0  0  0  0  0  0  0  0  0  0
   -5.7460   -6.5670  -22.7760 H   0  0  0  0  0  0  0  0  0  0  0  0
   -5.6390   -5.3640  -24.0830 H   0  0  0  0  0  0  0  0  0  0  0  0
   -7.9510   -6.0490  -24.8340 H   0  0  0  0  0  0  0  0  0  0  0  0
   -7.4870   -3.7880  -24.1370 H   0  0  0  0  0  0  0  0  0  0  0  0
   -9.2370   -4.1270  -24.1770 H   0  0  0  0  0  0  0  0  0  0  0  0
   -9.3470   -3.4080  -21.7770 H   0  0  0  0  0  0  0  0  0  0  0  0
   -6.3920   -2.9300  -22.1160 H   0  0  0  0  0  0  0  0  0  0  0  0
   -7.3140   -3.3580  -20.6810 H   0  0  0  0  0  0  0  0  0  0  0  0
  -10.5330   -1.4850  -23.1450 C   0  0  0  0  0  0  0  0  0  0  0  0
  -11.4300   -2.1660  -22.3090 C   0  0  0  0  0  0  0  0  0  0  0  0
  -12.7960   -1.9810  -22.4310 C   0  0  0  0  0  0  0  0  0  0  0  0
  -13.8470   -2.7780  -21.2890 Cl  0  0  0  0  0  0  0  0  0  0  0  0
  -13.3340   -1.1980  -23.4520 C   0  0  0  0  0  0  0  0  0  0  0  0
  -12.4610   -0.5370  -24.2950 C   0  0  0  0  0  0  0  0  0  0  0  0
  -11.0790   -0.6250  -24.1080 C   0  0  0  0  0  0  0  0  0  0  0  0
  -10.1910    0.2220  -24.9700 C   0  0  0  0  0  0  0  0  0  0  0  0
  -10.6310    1.1250  -25.6720 O   0  0  0  0  0  0  0  0  0  0  0  0
  -12.8310    0.0980  -25.0950 H   0  0  0  0  0  0  0  0  0  0  0  0
  -14.4070   -1.1040  -23.5790 H   0  0  0  0  0  0  0  0  0  0  0  0
  -11.0820   -2.8490  -21.5460 H   0  0  0  0  0  0  0  0  0  0  0  0
   -7.3010   -1.2930  -24.2860 H   0  0  0  0  0  0  0  0  0  0  0  0
   -8.6370   -2.1430  -25.0970 H   0  0  0  0  0  0  0  0  0  0  0  0
   -7.3070    0.1470  -26.3100 H   0  0  0  0  0  0  0  0  0  0  0  0
   -8.5690    1.3930  -26.3210 H   0  0  0  0  0  0  0  0  0  0  0  0
   -8.6920    2.6100  -24.0380 H   0  0  0  0  0  0  0  0  0  0  0  0
   -6.5110    2.7570  -22.3670 H   0  0  0  0  0  0  0  0  0  0  0  0
   -7.6190    4.1320  -22.6610 H   0  0  0  0  0  0  0  0  0  0  0  0
   -6.1340    3.9620  -23.6230 H   0  0  0  0  0  0  0  0  0  0  0  0
  1  2  1  0  0  0  0
  1 64  1  0  0  0  0
  1 65  1  0  0  0  0
  1 66  1  0  0  0  0
  2  3  1  0  0  0  0
  2 63  1  0  0  0  0
  3  4  2  0  0  0  0
  3  5  1  0  0  0  0
  5  6  1  0  0  0  0
  5 61  1  0  0  0  0
  5 62  1  0  0  0  0
  6  7  1  0  0  0  0
  6 54  1  0  0  0  0
  7  8  1  0  0  0  0
  7 59  1  0  0  0  0
  7 60  1  0  0  0  0
  8  9  1  1  0  0  0
  8 29  1  0  0  0  0
  8 47  1  0  0  0  0
  9 10  2  0  0  0  0
  9 11  1  0  0  0  0
 11 12  1  0  0  0  0
 11 28  1  0  0  0  0
 12 13  2  0  0  0  0
 12 21  1  0  0  0  0
 13 14  1  0  0  0  0
 13 27  1  0  0  0  0
 14 15  2  0  0  0  0
 15 16  1  0  0  0  0
 15 26  1  0  0  0  0
 16 17  2  0  0  0  0
 16 21  1  0  0  0  0
 17 18  1  0  0  0  0
 17 25  1  0  0  0  0
 18 19  2  0  0  0  0
 18 24  1  0  0  0  0
 19 20  1  0  0  0  0
 19 23  1  0  0  0  0
 20 21  2  0  0  0  0
 20 22  1  0  0  0  0
 28 29  1  0  0  0  0
 28 45  1  0  0  0  0
 28 46  1  0  0  0  0
 29 30  1  0  0  0  0
 29 44  1  1  0  0  0
 30 31  1  0  0  0  0
 30 42  1  0  0  0  0
 30 43  1  0  0  0  0
 31 32  1  0  0  0  0
 32 33  1  0  0  0  0
 32 37  1  0  0  0  0
 32 41  1  0  0  0  0
 33 34  1  0  0  0  0
 33 35  1  0  0  0  0
 33 36  1  0  0  0  0
 37 38  1  0  0  0  0
 37 39  1  0  0  0  0
 37 40  1  0  0  0  0
 47 48  2  0  0  0  0
 47 53  1  0  0  0  0
 48 49  1  0  0  0  0
 48 58  1  0  0  0  0
 49 50  1  0  0  0  0
 49 51  2  0  0  0  0
 51 52  1  0  0  0  0
 51 57  1  0  0  0  0
 52 53  2  0  0  0  0
 52 56  1  0  0  0  0
 53 54  1  0  0  0  0
 54 55  2  0  0  0  0
M  END
>  <MODEL>
       1

$$$$
