tmp_first_model_7_88.pdb
 OpenBabel08272520323D

 40 42  0  0  0  0  0  0  0  0999 V2000
   -5.5910   -2.9710  -21.6800 O   0  0  0  0  0  0  0  0  0  0  0  0
   -6.7930   -2.7990  -21.7760 C   0  0  0  0  0  0  0  0  0  0  0  0
   -7.4240   -1.4820  -21.2550 C   0  0  0  0  0  0  0  0  0  0  0  0
   -6.5820   -0.8240  -20.1820 C   0  0  0  0  0  0  0  0  0  0  0  0
   -6.8720   -1.0410  -18.8590 C   0  0  0  0  0  0  0  0  0  0  0  0
   -6.1820   -0.5420  -17.8030 N   0  0  0  0  0  0  0  0  0  0  0  0
   -5.1540    0.2250  -18.0670 C   0  0  0  0  0  0  0  0  0  0  0  0
   -4.7180    0.5320  -19.3830 C   0  0  0  0  0  0  0  0  0  0  0  0
   -3.5880    1.3560  -19.6210 C   0  0  0  0  0  0  0  0  0  0  0  0
   -3.1870    1.6340  -20.9000 C   0  0  0  0  0  0  0  0  0  0  0  0
   -3.9020    1.0940  -21.9910 C   0  0  0  0  0  0  0  0  0  0  0  0
   -4.9970    0.2900  -21.7860 C   0  0  0  0  0  0  0  0  0  0  0  0
   -5.4440   -0.0100  -20.4730 C   0  0  0  0  0  0  0  0  0  0  0  0
   -5.5180   -0.1380  -22.6360 H   0  0  0  0  0  0  0  0  0  0  0  0
   -3.5760    1.3170  -23.0030 H   0  0  0  0  0  0  0  0  0  0  0  0
   -2.3280    2.2740  -21.0830 H   0  0  0  0  0  0  0  0  0  0  0  0
   -3.0550    1.7760  -18.7710 H   0  0  0  0  0  0  0  0  0  0  0  0
   -4.6010    0.6290  -17.2170 H   0  0  0  0  0  0  0  0  0  0  0  0
   -7.7180   -1.6690  -18.5840 H   0  0  0  0  0  0  0  0  0  0  0  0
   -8.4250   -1.6850  -20.8470 H   0  0  0  0  0  0  0  0  0  0  0  0
   -7.5640   -0.7900  -22.0960 H   0  0  0  0  0  0  0  0  0  0  0  0
   -7.6210   -3.7650  -22.3130 N   0  0  0  0  0  0  0  0  0  0  0  0
   -7.2630   -5.1770  -22.1480 C   0  0  0  0  0  0  0  0  0  0  0  0
   -7.5490   -6.0010  -23.3960 C   0  0  0  0  0  0  0  0  0  0  0  0
   -8.9880   -5.8060  -23.8510 C   0  0  0  0  0  0  0  0  0  0  0  0
   -9.3350   -6.6220  -25.0810 C   0  0  0  0  0  0  0  0  0  0  0  0
   -8.5080   -6.2810  -26.1110 F   0  0  0  0  0  0  0  0  0  0  0  0
   -9.1520   -7.9560  -24.8520 F   0  0  0  0  0  0  0  0  0  0  0  0
  -10.3690   -6.4860  -25.4270 H   0  0  0  0  0  0  0  0  0  0  0  0
   -9.2770   -4.3280  -24.0590 C   0  0  0  0  0  0  0  0  0  0  0  0
   -8.9720   -3.5170  -22.8030 C   0  0  0  0  0  0  0  0  0  0  0  0
   -9.7210   -3.7510  -22.0320 H   0  0  0  0  0  0  0  0  0  0  0  0
   -9.0780   -2.4580  -23.0380 H   0  0  0  0  0  0  0  0  0  0  0  0
   -8.6820   -3.9620  -24.8990 H   0  0  0  0  0  0  0  0  0  0  0  0
  -10.3270   -4.1840  -24.3390 H   0  0  0  0  0  0  0  0  0  0  0  0
   -9.6360   -6.1710  -23.0620 H   0  0  0  0  0  0  0  0  0  0  0  0
   -6.8730   -5.7040  -24.1990 H   0  0  0  0  0  0  0  0  0  0  0  0
   -7.3560   -7.0620  -23.1960 H   0  0  0  0  0  0  0  0  0  0  0  0
   -6.2070   -5.2350  -21.8910 H   0  0  0  0  0  0  0  0  0  0  0  0
   -7.8180   -5.6140  -21.3060 H   0  0  0  0  0  0  0  0  0  0  0  0
  1  2  2  0  0  0  0
  2  3  1  0  0  0  0
  2 22  1  0  0  0  0
  3  4  1  0  0  0  0
  3 20  1  0  0  0  0
  3 21  1  0  0  0  0
  4  5  2  0  0  0  0
  4 13  1  0  0  0  0
  5  6  1  0  0  0  0
  5 19  1  0  0  0  0
  6  7  2  0  0  0  0
  7  8  1  0  0  0  0
  7 18  1  0  0  0  0
  8  9  2  0  0  0  0
  8 13  1  0  0  0  0
  9 10  1  0  0  0  0
  9 17  1  0  0  0  0
 10 11  2  0  0  0  0
 10 16  1  0  0  0  0
 11 12  1  0  0  0  0
 11 15  1  0  0  0  0
 12 13  2  0  0  0  0
 12 14  1  0  0  0  0
 22 23  1  0  0  0  0
 22 31  1  0  0  0  0
 23 24  1  0  0  0  0
 23 39  1  0  0  0  0
 23 40  1  0  0  0  0
 24 25  1  0  0  0  0
 24 37  1  0  0  0  0
 24 38  1  0  0  0  0
 25 26  1  0  0  0  0
 25 30  1  0  0  0  0
 25 36  1  0  0  0  0
 26 27  1  0  0  0  0
 26 28  1  0  0  0  0
 26 29  1  0  0  0  0
 30 31  1  0  0  0  0
 30 34  1  0  0  0  0
 30 35  1  0  0  0  0
 31 32  1  0  0  0  0
 31 33  1  0  0  0  0
M  END
>  <MODEL>
       1

$$$$
