tmp_first_model_18_49.pdb
 OpenBabel08282502533D

 67 72  0  0  1  0  0  0  0  0999 V2000
   -6.8760    0.3600  -29.2870 C   0  0  0  0  0  0  0  0  0  0  0  0
   -7.2670    0.8270  -27.9740 N   0  0  0  0  0  0  0  0  0  0  0  0
   -6.6780    0.2790  -26.8820 C   0  0  0  0  0  0  0  0  0  0  0  0
   -5.8170   -0.5850  -26.9470 O   0  0  0  0  0  0  0  0  0  0  0  0
   -7.2040    0.8090  -25.5490 C   0  0  0  0  0  0  0  0  0  0  0  0
   -8.2770   -0.0240  -25.0510 N   0  0  0  0  0  0  0  0  0  0  0  0
   -7.9660   -1.3230  -24.4800 C   0  0  0  0  0  0  0  0  0  0  0  0
   -8.7760   -1.5490  -23.1740 C   0  0  2  0  0  0  0  0  0  0  0  0
   -8.2390   -0.6180  -22.0540 C   0  0  0  0  0  0  0  0  0  0  0  0
   -8.4520    0.5640  -21.9000 O   0  0  0  0  0  0  0  0  0  0  0  0
   -7.4180   -1.3730  -21.2370 N   0  0  0  0  0  0  0  0  0  0  0  0
   -6.6230   -0.8100  -20.2110 C   0  0  0  0  0  0  0  0  0  0  0  0
   -6.9200   -1.0750  -18.8980 C   0  0  0  0  0  0  0  0  0  0  0  0
   -6.2400   -0.5780  -17.8340 N   0  0  0  0  0  0  0  0  0  0  0  0
   -5.2130    0.1960  -18.0960 C   0  0  0  0  0  0  0  0  0  0  0  0
   -4.7700    0.5190  -19.4090 C   0  0  0  0  0  0  0  0  0  0  0  0
   -3.6350    1.3430  -19.6260 C   0  0  0  0  0  0  0  0  0  0  0  0
   -3.2040    1.6110  -20.8950 C   0  0  0  0  0  0  0  0  0  0  0  0
   -3.8840    1.0650  -22.0070 C   0  0  0  0  0  0  0  0  0  0  0  0
   -4.9920    0.2750  -21.8250 C   0  0  0  0  0  0  0  0  0  0  0  0
   -5.4760   -0.0070  -20.5140 C   0  0  0  0  0  0  0  0  0  0  0  0
   -5.4980   -0.1420  -22.6940 H   0  0  0  0  0  0  0  0  0  0  0  0
   -3.5240    1.2750  -23.0090 H   0  0  0  0  0  0  0  0  0  0  0  0
   -2.3360    2.2440  -21.0560 H   0  0  0  0  0  0  0  0  0  0  0  0
   -3.1240    1.7490  -18.7560 H   0  0  0  0  0  0  0  0  0  0  0  0
   -4.6650    0.6050  -17.2460 H   0  0  0  0  0  0  0  0  0  0  0  0
   -7.7700   -1.7150  -18.6640 H   0  0  0  0  0  0  0  0  0  0  0  0
   -7.3020   -2.7610  -21.6240 C   0  0  0  0  0  0  0  0  0  0  0  0
   -8.5000   -2.9430  -22.5600 C   0  0  2  0  0  0  0  0  0  0  0  0
   -8.3420   -4.0720  -23.5810 C   0  0  0  0  0  0  0  0  0  0  0  0
   -8.3360   -5.3760  -22.9650 N   0  0  0  0  0  0  0  0  0  0  0  0
   -7.1660   -5.9080  -22.5020 C   0  0  0  0  0  0  0  0  0  0  0  0
   -5.8800   -5.5500  -22.8060 C   0  0  0  0  0  0  0  0  0  0  0  0
   -4.8860   -6.2490  -22.1610 N   0  0  0  0  0  0  0  0  0  0  0  0
   -5.3860   -7.1690  -21.4030 C   0  0  0  0  0  0  0  0  0  0  0  0
   -4.6080   -8.1310  -20.5660 C   0  0  0  0  0  0  0  0  0  0  0  0
   -5.0550   -9.1130  -20.6230 H   0  0  0  0  0  0  0  0  0  0  0  0
   -3.5910   -8.2650  -20.9410 H   0  0  0  0  0  0  0  0  0  0  0  0
   -4.6050   -7.8020  -19.5190 H   0  0  0  0  0  0  0  0  0  0  0  0
   -7.1380   -7.2520  -21.3980 S   0  0  0  0  0  0  0  0  0  0  0  0
   -5.6150   -4.7800  -23.5260 H   0  0  0  0  0  0  0  0  0  0  0  0
   -9.2160   -5.7730  -22.6680 H   0  0  0  0  0  0  0  0  0  0  0  0
   -7.3890   -3.9460  -24.1140 H   0  0  0  0  0  0  0  0  0  0  0  0
   -9.1610   -4.0290  -24.3110 H   0  0  0  0  0  0  0  0  0  0  0  0
   -9.3430   -3.1830  -21.9060 H   0  0  0  0  0  0  0  0  0  0  0  0
   -7.3480   -3.4130  -20.7510 H   0  0  0  0  0  0  0  0  0  0  0  0
   -6.3400   -2.9680  -22.1180 H   0  0  0  0  0  0  0  0  0  0  0  0
  -10.2340   -1.2850  -23.5100 C   0  0  0  0  0  0  0  0  0  0  0  0
  -11.2620   -1.8320  -22.7310 C   0  0  0  0  0  0  0  0  0  0  0  0
  -12.5760   -1.4760  -22.9640 C   0  0  0  0  0  0  0  0  0  0  0  0
  -13.7980   -2.0340  -21.8590 Cl  0  0  0  0  0  0  0  0  0  0  0  0
  -12.9380   -0.6650  -24.0390 C   0  0  0  0  0  0  0  0  0  0  0  0
  -11.9360   -0.1590  -24.8410 C   0  0  0  0  0  0  0  0  0  0  0  0
  -10.5980   -0.4240  -24.5590 C   0  0  0  0  0  0  0  0  0  0  0  0
   -9.5640    0.3160  -25.3500 C   0  0  0  0  0  0  0  0  0  0  0  0
   -9.8410    1.1900  -26.1670 O   0  0  0  0  0  0  0  0  0  0  0  0
  -12.1500    0.4730  -25.6960 H   0  0  0  0  0  0  0  0  0  0  0  0
  -13.9770   -0.4080  -24.2090 H   0  0  0  0  0  0  0  0  0  0  0  0
  -11.0660   -2.5190  -21.9180 H   0  0  0  0  0  0  0  0  0  0  0  0
   -6.8840   -1.3660  -24.3080 H   0  0  0  0  0  0  0  0  0  0  0  0
   -8.2120   -2.1140  -25.2070 H   0  0  0  0  0  0  0  0  0  0  0  0
   -6.3950    0.8090  -24.8110 H   0  0  0  0  0  0  0  0  0  0  0  0
   -7.5830    1.8290  -25.6580 H   0  0  0  0  0  0  0  0  0  0  0  0
   -8.1420    1.3170  -27.8400 H   0  0  0  0  0  0  0  0  0  0  0  0
   -7.0530   -0.7180  -29.3910 H   0  0  0  0  0  0  0  0  0  0  0  0
   -7.4460    0.9040  -30.0430 H   0  0  0  0  0  0  0  0  0  0  0  0
   -5.8060    0.5470  -29.4350 H   0  0  0  0  0  0  0  0  0  0  0  0
  1  2  1  0  0  0  0
  1 65  1  0  0  0  0
  1 66  1  0  0  0  0
  1 67  1  0  0  0  0
  2  3  1  0  0  0  0
  2 64  1  0  0  0  0
  3  4  2  0  0  0  0
  3  5  1  0  0  0  0
  5  6  1  0  0  0  0
  5 62  1  0  0  0  0
  5 63  1  0  0  0  0
  6  7  1  0  0  0  0
  6 55  1  0  0  0  0
  7  8  1  0  0  0  0
  7 60  1  0  0  0  0
  7 61  1  0  0  0  0
  8  9  1  1  0  0  0
  8 29  1  0  0  0  0
  8 48  1  0  0  0  0
  9 10  2  0  0  0  0
  9 11  1  0  0  0  0
 11 12  1  0  0  0  0
 11 28  1  0  0  0  0
 12 13  2  0  0  0  0
 12 21  1  0  0  0  0
 13 14  1  0  0  0  0
 13 27  1  0  0  0  0
 14 15  2  0  0  0  0
 15 16  1  0  0  0  0
 15 26  1  0  0  0  0
 16 17  2  0  0  0  0
 16 21  1  0  0  0  0
 17 18  1  0  0  0  0
 17 25  1  0  0  0  0
 18 19  2  0  0  0  0
 18 24  1  0  0  0  0
 19 20  1  0  0  0  0
 19 23  1  0  0  0  0
 20 21  2  0  0  0  0
 20 22  1  0  0  0  0
 28 29  1  0  0  0  0
 28 46  1  0  0  0  0
 28 47  1  0  0  0  0
 29 30  1  0  0  0  0
 29 45  1  1  0  0  0
 30 31  1  0  0  0  0
 30 43  1  0  0  0  0
 30 44  1  0  0  0  0
 31 32  1  0  0  0  0
 31 42  1  0  0  0  0
 32 33  2  0  0  0  0
 32 40  1  0  0  0  0
 33 34  1  0  0  0  0
 33 41  1  0  0  0  0
 34 35  2  0  0  0  0
 35 36  1  0  0  0  0
 35 40  1  0  0  0  0
 36 37  1  0  0  0  0
 36 38  1  0  0  0  0
 36 39  1  0  0  0  0
 48 49  2  0  0  0  0
 48 54  1  0  0  0  0
 49 50  1  0  0  0  0
 49 59  1  0  0  0  0
 50 51  1  0  0  0  0
 50 52  2  0  0  0  0
 52 53  1  0  0  0  0
 52 58  1  0  0  0  0
 53 54  2  0  0  0  0
 53 57  1  0  0  0  0
 54 55  1  0  0  0  0
 55 56  2  0  0  0  0
M  END
>  <MODEL>
       1

$$$$
