tmp_first_model_19_67.pdb
 OpenBabel08282503233D

 58 63  0  0  1  0  0  0  0  0999 V2000
   -5.7330    4.0790  -22.3470 C   0  0  0  0  0  0  0  0  0  0  0  0
   -6.8130    3.5250  -23.2190 C   0  0  0  0  0  0  0  0  0  0  0  0
   -6.7380    2.4010  -24.0890 C   0  0  0  0  0  0  0  0  0  0  0  0
   -7.9920    2.3020  -24.6000 C   0  0  0  0  0  0  0  0  0  0  0  0
   -8.6500    1.3120  -25.5080 C   0  0  0  0  0  0  0  0  0  0  0  0
   -9.3570    0.2870  -24.7640 N   0  0  0  0  0  0  0  0  0  0  0  0
   -8.7340   -0.9910  -24.4820 C   0  0  0  0  0  0  0  0  0  0  0  0
   -8.9590   -1.4660  -23.0240 C   0  0  2  0  0  0  0  0  0  0  0  0
   -8.2150   -0.5560  -22.0210 C   0  0  0  0  0  0  0  0  0  0  0  0
   -8.3510    0.6370  -21.8860 O   0  0  0  0  0  0  0  0  0  0  0  0
   -7.3620   -1.3370  -21.2700 N   0  0  0  0  0  0  0  0  0  0  0  0
   -6.5870   -0.8050  -20.2180 C   0  0  0  0  0  0  0  0  0  0  0  0
   -6.8920   -1.0740  -18.9090 C   0  0  0  0  0  0  0  0  0  0  0  0
   -6.2130   -0.5820  -17.8450 N   0  0  0  0  0  0  0  0  0  0  0  0
   -5.1880    0.2000  -18.0960 C   0  0  0  0  0  0  0  0  0  0  0  0
   -4.7380    0.5220  -19.4090 C   0  0  0  0  0  0  0  0  0  0  0  0
   -3.6010    1.3390  -19.6390 C   0  0  0  0  0  0  0  0  0  0  0  0
   -3.1870    1.6130  -20.9130 C   0  0  0  0  0  0  0  0  0  0  0  0
   -3.8820    1.0820  -22.0190 C   0  0  0  0  0  0  0  0  0  0  0  0
   -4.9840    0.2880  -21.8290 C   0  0  0  0  0  0  0  0  0  0  0  0
   -5.4470   -0.0000  -20.5130 C   0  0  0  0  0  0  0  0  0  0  0  0
   -5.5150   -0.1210  -22.6820 H   0  0  0  0  0  0  0  0  0  0  0  0
   -3.5350    1.3060  -23.0250 H   0  0  0  0  0  0  0  0  0  0  0  0
   -2.3180    2.2430  -21.0800 H   0  0  0  0  0  0  0  0  0  0  0  0
   -3.0800    1.7490  -18.7800 H   0  0  0  0  0  0  0  0  0  0  0  0
   -4.6400    0.6070  -17.2450 H   0  0  0  0  0  0  0  0  0  0  0  0
   -7.7520   -1.7000  -18.6690 H   0  0  0  0  0  0  0  0  0  0  0  0
   -7.6470   -2.7470  -21.3820 C   0  0  0  0  0  0  0  0  0  0  0  0
   -8.3590   -2.8800  -22.7430 C   0  0  2  0  0  0  0  0  0  0  0  0
   -7.4470   -3.4610  -23.8250 C   0  0  0  0  0  0  0  0  0  0  0  0
   -7.1040   -4.4550  -23.5230 H   0  0  0  0  0  0  0  0  0  0  0  0
   -6.5670   -2.8400  -24.0120 H   0  0  0  0  0  0  0  0  0  0  0  0
   -7.9900   -3.5820  -24.7660 H   0  0  0  0  0  0  0  0  0  0  0  0
   -9.1770   -3.5980  -22.6660 H   0  0  0  0  0  0  0  0  0  0  0  0
   -8.3050   -3.0800  -20.5700 H   0  0  0  0  0  0  0  0  0  0  0  0
   -6.7180   -3.3210  -21.3250 H   0  0  0  0  0  0  0  0  0  0  0  0
  -10.4590   -1.3830  -22.7690 C   0  0  0  0  0  0  0  0  0  0  0  0
  -11.1160   -2.2730  -21.9200 C   0  0  0  0  0  0  0  0  0  0  0  0
  -12.4850   -2.1810  -21.7790 C   0  0  0  0  0  0  0  0  0  0  0  0
  -13.0970   -3.1400  -21.0620 F   0  0  0  0  0  0  0  0  0  0  0  0
  -13.2530   -1.1560  -22.3200 C   0  0  0  0  0  0  0  0  0  0  0  0
  -12.5880   -0.2290  -23.0990 C   0  0  0  0  0  0  0  0  0  0  0  0
  -11.2220   -0.3640  -23.3530 C   0  0  0  0  0  0  0  0  0  0  0  0
  -10.6120    0.5960  -24.3230 C   0  0  0  0  0  0  0  0  0  0  0  0
  -11.2150    1.5840  -24.7200 O   0  0  0  0  0  0  0  0  0  0  0  0
  -13.1050    0.6140  -23.5360 H   0  0  0  0  0  0  0  0  0  0  0  0
  -14.3260   -1.1310  -22.1520 H   0  0  0  0  0  0  0  0  0  0  0  0
  -10.6060   -3.0670  -21.3820 H   0  0  0  0  0  0  0  0  0  0  0  0
   -7.6700   -0.9260  -24.7090 H   0  0  0  0  0  0  0  0  0  0  0  0
   -9.1630   -1.7490  -25.1450 H   0  0  0  0  0  0  0  0  0  0  0  0
   -9.3700    1.8230  -26.1480 H   0  0  0  0  0  0  0  0  0  0  0  0
   -7.9020    0.8420  -26.1470 H   0  0  0  0  0  0  0  0  0  0  0  0
   -8.7540    3.2870  -24.1100 O   0  0  0  0  0  0  0  0  0  0  0  0
   -8.0120    4.0590  -23.2460 N   0  0  0  0  0  0  0  0  0  0  0  0
   -5.8880    1.7620  -24.2750 H   0  0  0  0  0  0  0  0  0  0  0  0
   -5.6820    3.5090  -21.4130 H   0  0  0  0  0  0  0  0  0  0  0  0
   -4.7590    3.9750  -22.8360 H   0  0  0  0  0  0  0  0  0  0  0  0
   -5.9070    5.1310  -22.1150 H   0  0  0  0  0  0  0  0  0  0  0  0
  1  2  1  0  0  0  0
  1 56  1  0  0  0  0
  1 57  1  0  0  0  0
  1 58  1  0  0  0  0
  2  3  1  0  0  0  0
  2 54  2  0  0  0  0
  3  4  2  0  0  0  0
  3 55  1  0  0  0  0
  4  5  1  0  0  0  0
  4 53  1  0  0  0  0
  5  6  1  0  0  0  0
  5 51  1  0  0  0  0
  5 52  1  0  0  0  0
  6  7  1  0  0  0  0
  6 44  1  0  0  0  0
  7  8  1  0  0  0  0
  7 49  1  0  0  0  0
  7 50  1  0  0  0  0
  8  9  1  1  0  0  0
  8 29  1  0  0  0  0
  8 37  1  0  0  0  0
  9 10  2  0  0  0  0
  9 11  1  0  0  0  0
 11 12  1  0  0  0  0
 11 28  1  0  0  0  0
 12 13  2  0  0  0  0
 12 21  1  0  0  0  0
 13 14  1  0  0  0  0
 13 27  1  0  0  0  0
 14 15  2  0  0  0  0
 15 16  1  0  0  0  0
 15 26  1  0  0  0  0
 16 17  2  0  0  0  0
 16 21  1  0  0  0  0
 17 18  1  0  0  0  0
 17 25  1  0  0  0  0
 18 19  2  0  0  0  0
 18 24  1  0  0  0  0
 19 20  1  0  0  0  0
 19 23  1  0  0  0  0
 20 21  2  0  0  0  0
 20 22  1  0  0  0  0
 28 29  1  0  0  0  0
 28 35  1  0  0  0  0
 28 36  1  0  0  0  0
 29 30  1  0  0  0  0
 29 34  1  1  0  0  0
 30 31  1  0  0  0  0
 30 32  1  0  0  0  0
 30 33  1  0  0  0  0
 37 38  2  0  0  0  0
 37 43  1  0  0  0  0
 38 39  1  0  0  0  0
 38 48  1  0  0  0  0
 39 40  1  0  0  0  0
 39 41  2  0  0  0  0
 41 42  1  0  0  0  0
 41 47  1  0  0  0  0
 42 43  2  0  0  0  0
 42 46  1  0  0  0  0
 43 44  1  0  0  0  0
 44 45  2  0  0  0  0
 53 54  1  0  0  0  0
M  END
>  <MODEL>
       1

$$$$
