tmp_first_model_1_91.pdb
 OpenBabel08272517043D

 66 71  0  0  1  0  0  0  0  0999 V2000
   -5.8130   -0.1850  -29.5320 C   0  0  0  0  0  0  0  0  0  0  0  0
   -5.7120    0.2330  -28.1520 N   0  0  0  0  0  0  0  0  0  0  0  0
   -5.0880   -0.5480  -27.2290 C   0  0  0  0  0  0  0  0  0  0  0  0
   -4.4280   -1.5360  -27.5060 O   0  0  0  0  0  0  0  0  0  0  0  0
   -5.2690   -0.0630  -25.7740 C   0  0  0  0  0  0  0  0  0  0  0  0
   -6.4720   -0.5760  -25.1220 N   0  0  0  0  0  0  0  0  0  0  0  0
   -6.4100   -1.8180  -24.3600 C   0  0  0  0  0  0  0  0  0  0  0  0
   -7.5120   -1.9080  -23.2560 C   0  0  2  0  0  0  0  0  0  0  0  0
   -7.1510   -1.0620  -22.0250 C   0  0  0  0  0  0  0  0  0  0  0  0
   -7.5230    0.0610  -21.7530 O   0  0  0  0  0  0  0  0  0  0  0  0
   -6.3410   -1.8290  -21.2070 N   0  0  0  0  0  0  0  0  0  0  0  0
   -5.7970   -1.2320  -20.0540 C   0  0  0  0  0  0  0  0  0  0  0  0
   -6.2510   -1.5540  -18.8010 C   0  0  0  0  0  0  0  0  0  0  0  0
   -5.8490   -0.9380  -17.6640 N   0  0  0  0  0  0  0  0  0  0  0  0
   -4.9670    0.0290  -17.7730 C   0  0  0  0  0  0  0  0  0  0  0  0
   -4.3980    0.4500  -19.0070 C   0  0  0  0  0  0  0  0  0  0  0  0
   -3.4260    1.4860  -19.0790 C   0  0  0  0  0  0  0  0  0  0  0  0
   -2.9250    1.8810  -20.2900 C   0  0  0  0  0  0  0  0  0  0  0  0
   -3.3560    1.2540  -21.4820 C   0  0  0  0  0  0  0  0  0  0  0  0
   -4.2750    0.2380  -21.4310 C   0  0  0  0  0  0  0  0  0  0  0  0
   -4.8300   -0.1860  -20.1890 C   0  0  0  0  0  0  0  0  0  0  0  0
   -4.5960   -0.2490  -22.3470 H   0  0  0  0  0  0  0  0  0  0  0  0
   -2.9570    1.5820  -22.4380 H   0  0  0  0  0  0  0  0  0  0  0  0
   -2.1920    2.6800  -20.3490 H   0  0  0  0  0  0  0  0  0  0  0  0
   -3.0960    1.9580  -18.1570 H   0  0  0  0  0  0  0  0  0  0  0  0
   -4.6620    0.5280  -16.8530 H   0  0  0  0  0  0  0  0  0  0  0  0
   -7.0070   -2.3290  -18.6830 H   0  0  0  0  0  0  0  0  0  0  0  0
   -6.3280   -3.2360  -21.5890 C   0  0  0  0  0  0  0  0  0  0  0  0
   -7.5120   -3.2920  -22.5660 C   0  0  2  0  0  0  0  0  0  0  0  0
   -7.5910   -4.5140  -23.4840 C   0  0  0  0  0  0  0  0  0  0  0  0
   -7.7490   -5.7680  -22.7660 N   0  0  0  0  0  0  0  0  0  0  0  0
   -6.6290   -6.4500  -22.3190 C   0  0  0  0  0  0  0  0  0  0  0  0
   -5.4980   -6.6550  -23.1430 C   0  0  0  0  0  0  0  0  0  0  0  0
   -4.4500   -7.3490  -22.7340 N   0  0  0  0  0  0  0  0  0  0  0  0
   -4.5050   -7.8560  -21.4980 C   0  0  0  0  0  0  0  0  0  0  0  0
   -5.6120   -7.6650  -20.6910 C   0  0  0  0  0  0  0  0  0  0  0  0
   -6.6740   -6.9640  -21.0930 N   0  0  0  0  0  0  0  0  0  0  0  0
   -5.6780   -8.1050  -19.6930 H   0  0  0  0  0  0  0  0  0  0  0  0
   -3.6380   -8.4160  -21.1510 H   0  0  0  0  0  0  0  0  0  0  0  0
   -5.4580   -6.2650  -24.1600 H   0  0  0  0  0  0  0  0  0  0  0  0
   -8.4650   -5.7560  -22.0490 H   0  0  0  0  0  0  0  0  0  0  0  0
   -8.4280   -4.3860  -24.1810 H   0  0  0  0  0  0  0  0  0  0  0  0
   -6.6850   -4.5940  -24.0890 H   0  0  0  0  0  0  0  0  0  0  0  0
   -8.4230   -3.2890  -21.9610 H   0  0  0  0  0  0  0  0  0  0  0  0
   -5.3930   -3.5090  -22.0990 H   0  0  0  0  0  0  0  0  0  0  0  0
   -6.4310   -3.8930  -20.7200 H   0  0  0  0  0  0  0  0  0  0  0  0
   -8.8400   -1.4920  -23.8220 C   0  0  0  0  0  0  0  0  0  0  0  0
  -10.0500   -1.7770  -23.1720 C   0  0  0  0  0  0  0  0  0  0  0  0
  -11.2580   -1.4830  -23.7810 C   0  0  0  0  0  0  0  0  0  0  0  0
  -12.7130   -1.9810  -22.9540 Cl  0  0  0  0  0  0  0  0  0  0  0  0
  -11.2910   -0.8540  -25.0280 C   0  0  0  0  0  0  0  0  0  0  0  0
  -10.1000   -0.4710  -25.5970 C   0  0  0  0  0  0  0  0  0  0  0  0
   -8.8850   -0.7260  -24.9830 C   0  0  0  0  0  0  0  0  0  0  0  0
   -7.6670   -0.0920  -25.5560 C   0  0  0  0  0  0  0  0  0  0  0  0
   -7.7470    0.8210  -26.3800 O   0  0  0  0  0  0  0  0  0  0  0  0
  -10.0970    0.0640  -26.5280 H   0  0  0  0  0  0  0  0  0  0  0  0
  -12.1930   -0.6150  -25.5720 H   0  0  0  0  0  0  0  0  0  0  0  0
  -10.0650   -2.1480  -22.1550 H   0  0  0  0  0  0  0  0  0  0  0  0
   -5.4120   -1.8910  -23.9120 H   0  0  0  0  0  0  0  0  0  0  0  0
   -6.5250   -2.6670  -25.0480 H   0  0  0  0  0  0  0  0  0  0  0  0
   -4.3930   -0.3900  -25.2120 H   0  0  0  0  0  0  0  0  0  0  0  0
   -5.3110    1.0300  -25.7390 H   0  0  0  0  0  0  0  0  0  0  0  0
   -6.4500    0.8320  -27.7970 H   0  0  0  0  0  0  0  0  0  0  0  0
   -6.5010   -1.0290  -29.6640 H   0  0  0  0  0  0  0  0  0  0  0  0
   -6.1780    0.6620  -30.1180 H   0  0  0  0  0  0  0  0  0  0  0  0
   -4.8350   -0.4810  -29.9190 H   0  0  0  0  0  0  0  0  0  0  0  0
  1  2  1  0  0  0  0
  1 64  1  0  0  0  0
  1 65  1  0  0  0  0
  1 66  1  0  0  0  0
  2  3  1  0  0  0  0
  2 63  1  0  0  0  0
  3  4  2  0  0  0  0
  3  5  1  0  0  0  0
  5  6  1  0  0  0  0
  5 61  1  0  0  0  0
  5 62  1  0  0  0  0
  6  7  1  0  0  0  0
  6 54  1  0  0  0  0
  7  8  1  0  0  0  0
  7 59  1  0  0  0  0
  7 60  1  0  0  0  0
  8  9  1  1  0  0  0
  8 29  1  0  0  0  0
  8 47  1  0  0  0  0
  9 10  2  0  0  0  0
  9 11  1  0  0  0  0
 11 12  1  0  0  0  0
 11 28  1  0  0  0  0
 12 13  2  0  0  0  0
 12 21  1  0  0  0  0
 13 14  1  0  0  0  0
 13 27  1  0  0  0  0
 14 15  2  0  0  0  0
 15 16  1  0  0  0  0
 15 26  1  0  0  0  0
 16 17  2  0  0  0  0
 16 21  1  0  0  0  0
 17 18  1  0  0  0  0
 17 25  1  0  0  0  0
 18 19  2  0  0  0  0
 18 24  1  0  0  0  0
 19 20  1  0  0  0  0
 19 23  1  0  0  0  0
 20 21  2  0  0  0  0
 20 22  1  0  0  0  0
 28 29  1  0  0  0  0
 28 45  1  0  0  0  0
 28 46  1  0  0  0  0
 29 30  1  0  0  0  0
 29 44  1  1  0  0  0
 30 31  1  0  0  0  0
 30 42  1  0  0  0  0
 30 43  1  0  0  0  0
 31 32  1  0  0  0  0
 31 41  1  0  0  0  0
 32 33  2  0  0  0  0
 32 37  1  0  0  0  0
 33 34  1  0  0  0  0
 33 40  1  0  0  0  0
 34 35  2  0  0  0  0
 35 36  1  0  0  0  0
 35 39  1  0  0  0  0
 36 37  2  0  0  0  0
 36 38  1  0  0  0  0
 47 48  2  0  0  0  0
 47 53  1  0  0  0  0
 48 49  1  0  0  0  0
 48 58  1  0  0  0  0
 49 50  1  0  0  0  0
 49 51  2  0  0  0  0
 51 52  1  0  0  0  0
 51 57  1  0  0  0  0
 52 53  2  0  0  0  0
 52 56  1  0  0  0  0
 53 54  1  0  0  0  0
 54 55  2  0  0  0  0
M  END
>  <MODEL>
       1

$$$$
