tmp_first_model_6_97.pdb
 OpenBabel08272519583D

 40 43  0  0  1  0  0  0  0  0999 V2000
   -9.8890   -5.2240  -22.7130 C   0  0  0  0  0  0  0  0  0  0  0  0
  -10.6320   -4.0420  -22.0800 C   0  0  2  0  0  0  0  0  0  0  0  0
  -11.4800   -3.2510  -23.0670 C   0  0  0  0  0  0  0  0  0  0  0  0
  -10.6560   -2.5920  -24.0090 O   0  0  0  0  0  0  0  0  0  0  0  0
   -9.8130   -1.5980  -23.4630 C   0  0  0  0  0  0  0  0  0  0  0  0
   -8.9000   -2.1350  -22.3570 C   0  0  1  0  0  0  0  0  0  0  0  0
   -9.7000   -3.0440  -21.4170 C   0  0  0  0  0  0  0  0  0  0  0  0
  -10.2770   -2.3430  -20.8090 H   0  0  0  0  0  0  0  0  0  0  0  0
   -8.9800   -3.5600  -20.7800 H   0  0  0  0  0  0  0  0  0  0  0  0
   -7.6580   -2.7580  -22.8160 N   0  0  0  0  0  0  0  0  0  0  0  0
   -6.6310   -2.5210  -21.9200 C   0  0  0  0  0  0  0  0  0  0  0  0
   -5.6090   -3.1430  -21.7720 O   0  0  0  0  0  0  0  0  0  0  0  0
   -7.0370   -1.3970  -21.1750 N   0  0  0  0  0  0  0  0  0  0  0  0
   -6.3280   -0.8080  -20.1010 C   0  0  0  0  0  0  0  0  0  0  0  0
   -6.7100   -1.0440  -18.8090 C   0  0  0  0  0  0  0  0  0  0  0  0
   -6.0730   -0.5280  -17.7310 N   0  0  0  0  0  0  0  0  0  0  0  0
   -5.0550    0.2730  -17.9510 C   0  0  0  0  0  0  0  0  0  0  0  0
   -4.5880    0.6350  -19.2530 C   0  0  0  0  0  0  0  0  0  0  0  0
   -3.4950    1.5170  -19.4880 C   0  0  0  0  0  0  0  0  0  0  0  0
   -3.1800    1.9010  -20.7640 C   0  0  0  0  0  0  0  0  0  0  0  0
   -3.9320    1.4360  -21.8670 C   0  0  0  0  0  0  0  0  0  0  0  0
   -4.9720    0.5640  -21.6780 C   0  0  0  0  0  0  0  0  0  0  0  0
   -5.2850    0.1210  -20.3660 C   0  0  0  0  0  0  0  0  0  0  0  0
   -5.5680    0.2160  -22.5180 H   0  0  0  0  0  0  0  0  0  0  0  0
   -3.6960    1.7610  -22.8750 H   0  0  0  0  0  0  0  0  0  0  0  0
   -2.3520    2.5820  -20.9500 H   0  0  0  0  0  0  0  0  0  0  0  0
   -2.9280    1.8960  -18.6430 H   0  0  0  0  0  0  0  0  0  0  0  0
   -4.5650    0.6980  -17.0720 H   0  0  0  0  0  0  0  0  0  0  0  0
   -7.5750   -1.6700  -18.5960 H   0  0  0  0  0  0  0  0  0  0  0  0
   -8.3500   -1.0470  -21.4480 C   0  0  0  0  0  0  0  0  0  0  0  0
   -8.9470   -0.1140  -20.9600 O   0  0  0  0  0  0  0  0  0  0  0  0
   -7.7110   -3.6920  -23.1960 H   0  0  0  0  0  0  0  0  0  0  0  0
   -9.2280   -1.2250  -24.3060 H   0  0  0  0  0  0  0  0  0  0  0  0
  -10.3950   -0.7550  -23.0620 H   0  0  0  0  0  0  0  0  0  0  0  0
  -12.0960   -2.5170  -22.5150 H   0  0  0  0  0  0  0  0  0  0  0  0
  -12.1570   -3.9190  -23.6190 H   0  0  0  0  0  0  0  0  0  0  0  0
  -11.2840   -4.4060  -21.2810 H   0  0  0  0  0  0  0  0  0  0  0  0
   -9.2340   -4.8950  -23.5230 H   0  0  0  0  0  0  0  0  0  0  0  0
  -10.5650   -5.9680  -23.1460 H   0  0  0  0  0  0  0  0  0  0  0  0
   -9.2780   -5.7540  -21.9730 H   0  0  0  0  0  0  0  0  0  0  0  0
  1  2  1  0  0  0  0
  1 38  1  0  0  0  0
  1 39  1  0  0  0  0
  1 40  1  0  0  0  0
  2  3  1  0  0  0  0
  2  7  1  0  0  0  0
  2 37  1  1  0  0  0
  3  4  1  0  0  0  0
  3 35  1  0  0  0  0
  3 36  1  0  0  0  0
  4  5  1  0  0  0  0
  5  6  1  0  0  0  0
  5 33  1  0  0  0  0
  5 34  1  0  0  0  0
  6  7  1  0  0  0  0
  6 10  1  0  0  0  0
  6 30  1  1  0  0  0
  7  8  1  0  0  0  0
  7  9  1  0  0  0  0
 10 11  1  0  0  0  0
 10 32  1  0  0  0  0
 11 12  2  0  0  0  0
 11 13  1  0  0  0  0
 13 14  1  0  0  0  0
 13 30  1  0  0  0  0
 14 15  2  0  0  0  0
 14 23  1  0  0  0  0
 15 16  1  0  0  0  0
 15 29  1  0  0  0  0
 16 17  2  0  0  0  0
 17 18  1  0  0  0  0
 17 28  1  0  0  0  0
 18 19  2  0  0  0  0
 18 23  1  0  0  0  0
 19 20  1  0  0  0  0
 19 27  1  0  0  0  0
 20 21  2  0  0  0  0
 20 26  1  0  0  0  0
 21 22  1  0  0  0  0
 21 25  1  0  0  0  0
 22 23  2  0  0  0  0
 22 24  1  0  0  0  0
 30 31  2  0  0  0  0
M  END
>  <MODEL>
       1

$$$$
