tmp_first_model_16_13.pdb
 OpenBabel08282501503D

 69 74  0  0  1  0  0  0  0  0999 V2000
  -10.8550    2.8120  -26.9840 C   0  0  0  0  0  0  0  0  0  0  0  0
  -10.3460    1.4560  -26.9970 N   0  0  0  0  0  0  0  0  0  0  0  0
   -9.9540    0.8660  -25.8420 C   0  0  0  0  0  0  0  0  0  0  0  0
  -10.1180    1.4150  -24.7650 O   0  0  0  0  0  0  0  0  0  0  0  0
   -9.2700   -0.5030  -25.9980 C   0  0  0  0  0  0  0  0  0  0  0  0
   -9.4340   -1.3610  -24.8450 N   0  0  0  0  0  0  0  0  0  0  0  0
   -8.6410   -0.9820  -23.6790 C   0  0  0  0  0  0  0  0  0  0  0  0
   -8.6120   -2.0270  -22.5440 C   0  0  2  0  0  0  0  0  0  0  0  0
   -8.1240   -1.2580  -21.2990 C   0  0  0  0  0  0  0  0  0  0  0  0
   -8.7310   -0.4160  -20.6690 O   0  0  0  0  0  0  0  0  0  0  0  0
   -6.8080   -1.5970  -21.0600 N   0  0  0  0  0  0  0  0  0  0  0  0
   -6.0930   -1.0280  -19.9840 C   0  0  0  0  0  0  0  0  0  0  0  0
   -6.4360   -1.3410  -18.6950 C   0  0  0  0  0  0  0  0  0  0  0  0
   -5.7250   -0.9630  -17.6060 N   0  0  0  0  0  0  0  0  0  0  0  0
   -4.6670   -0.2120  -17.8070 C   0  0  0  0  0  0  0  0  0  0  0  0
   -4.2380    0.2400  -19.0880 C   0  0  0  0  0  0  0  0  0  0  0  0
   -3.1290    1.1110  -19.2510 C   0  0  0  0  0  0  0  0  0  0  0  0
   -2.8110    1.5970  -20.4890 C   0  0  0  0  0  0  0  0  0  0  0  0
   -3.5760    1.2350  -21.6200 C   0  0  0  0  0  0  0  0  0  0  0  0
   -4.6350    0.3690  -21.4930 C   0  0  0  0  0  0  0  0  0  0  0  0
   -4.9840   -0.1560  -20.2200 C   0  0  0  0  0  0  0  0  0  0  0  0
   -5.2310    0.1010  -22.3600 H   0  0  0  0  0  0  0  0  0  0  0  0
   -3.3230    1.6490  -22.5920 H   0  0  0  0  0  0  0  0  0  0  0  0
   -1.9700    2.2730  -20.6120 H   0  0  0  0  0  0  0  0  0  0  0  0
   -2.5700    1.4040  -18.3680 H   0  0  0  0  0  0  0  0  0  0  0  0
   -4.1060    0.1030  -16.9270 H   0  0  0  0  0  0  0  0  0  0  0  0
   -7.3230   -1.9410  -18.5010 H   0  0  0  0  0  0  0  0  0  0  0  0
   -6.3050   -2.6940  -21.8650 C   0  0  0  0  0  0  0  0  0  0  0  0
   -7.5750   -3.2090  -22.5220 C   0  0  2  0  0  0  0  0  0  0  0  0
   -7.4040   -4.0300  -23.7910 C   0  0  0  0  0  0  0  0  0  0  0  0
   -6.7310   -3.3070  -24.8490 N   0  0  0  0  0  0  0  0  0  0  0  0
   -6.9090   -3.5760  -26.1730 C   0  0  0  0  0  0  0  0  0  0  0  0
   -7.4640   -4.7820  -26.6390 C   0  0  0  0  0  0  0  0  0  0  0  0
   -7.5290   -4.9270  -28.0060 C   0  0  0  0  0  0  0  0  0  0  0  0
   -7.1010   -4.0060  -28.8750 N   0  0  0  0  0  0  0  0  0  0  0  0
   -6.5960   -2.8980  -28.3330 C   0  0  0  0  0  0  0  0  0  0  0  0
   -6.1070   -1.8360  -29.2770 C   0  0  0  0  0  0  0  0  0  0  0  0
   -6.9500   -1.2540  -29.6640 H   0  0  0  0  0  0  0  0  0  0  0  0
   -5.5990   -2.2900  -30.1300 H   0  0  0  0  0  0  0  0  0  0  0  0
   -5.4330   -1.1590  -28.7490 H   0  0  0  0  0  0  0  0  0  0  0  0
   -6.4850   -2.6330  -27.0290 N   0  0  0  0  0  0  0  0  0  0  0  0
   -7.9410   -5.8370  -28.4430 H   0  0  0  0  0  0  0  0  0  0  0  0
   -7.8040   -5.5620  -25.9630 H   0  0  0  0  0  0  0  0  0  0  0  0
   -6.3760   -2.3780  -24.6750 H   0  0  0  0  0  0  0  0  0  0  0  0
   -8.4060   -4.3140  -24.1270 H   0  0  0  0  0  0  0  0  0  0  0  0
   -6.8680   -4.9620  -23.5610 H   0  0  0  0  0  0  0  0  0  0  0  0
   -8.2440   -3.8290  -21.8160 H   0  0  0  0  0  0  0  0  0  0  0  0
   -5.5690   -2.3540  -22.6050 H   0  0  0  0  0  0  0  0  0  0  0  0
   -5.8170   -3.4470  -21.2360 H   0  0  0  0  0  0  0  0  0  0  0  0
   -9.9870   -2.7630  -22.4330 C   0  0  0  0  0  0  0  0  0  0  0  0
   -9.8270   -3.7890  -21.5770 C   0  0  0  0  0  0  0  0  0  0  0  0
  -12.4940   -3.7080  -21.8280 C   0  0  0  0  0  0  0  0  0  0  0  0
  -11.9520   -4.9320  -24.2760 Cl  0  0  0  0  0  0  0  0  0  0  0  0
  -12.3250   -3.6660  -21.8990 C   0  0  0  0  0  0  0  0  0  0  0  0
  -12.1810   -3.3370  -23.3020 C   0  0  0  0  0  0  0  0  0  0  0  0
  -10.9410   -2.6300  -23.4420 C   0  0  0  0  0  0  0  0  0  0  0  0
  -10.6910   -1.9240  -24.6920 C   0  0  0  0  0  0  0  0  0  0  0  0
  -11.5370   -1.8460  -25.5760 O   0  0  0  0  0  0  0  0  0  0  0  0
  -12.9280   -2.7820  -23.7920 H   0  0  0  0  0  0  0  0  0  0  0  0
  -13.4340   -3.0750  -21.7840 H   0  0  0  0  0  0  0  0  0  0  0  0
  -10.4190   -4.2050  -20.7750 H   0  0  0  0  0  0  0  0  0  0  0  0
   -9.0280   -0.0390  -23.2640 H   0  0  0  0  0  0  0  0  0  0  0  0
   -7.6220   -0.7690  -24.0160 H   0  0  0  0  0  0  0  0  0  0  0  0
   -8.1940   -0.3580  -26.1510 H   0  0  0  0  0  0  0  0  0  0  0  0
   -9.6400   -1.0220  -26.8790 H   0  0  0  0  0  0  0  0  0  0  0  0
  -10.2190    0.9850  -27.8740 H   0  0  0  0  0  0  0  0  0  0  0  0
  -10.1070    3.4970  -26.5770 H   0  0  0  0  0  0  0  0  0  0  0  0
  -11.7510    2.8930  -26.3650 H   0  0  0  0  0  0  0  0  0  0  0  0
  -11.0970    3.1190  -28.0020 H   0  0  0  0  0  0  0  0  0  0  0  0
  1  2  1  0  0  0  0
  1 67  1  0  0  0  0
  1 68  1  0  0  0  0
  1 69  1  0  0  0  0
  2  3  1  0  0  0  0
  2 66  1  0  0  0  0
  3  4  2  0  0  0  0
  3  5  1  0  0  0  0
  5  6  1  0  0  0  0
  5 64  1  0  0  0  0
  5 65  1  0  0  0  0
  6  7  1  0  0  0  0
  6 57  1  0  0  0  0
  7  8  1  0  0  0  0
  7 62  1  0  0  0  0
  7 63  1  0  0  0  0
  8  9  1  1  0  0  0
  8 29  1  0  0  0  0
  8 50  1  0  0  0  0
  9 10  2  0  0  0  0
  9 11  1  0  0  0  0
 11 12  1  0  0  0  0
 11 28  1  0  0  0  0
 12 13  2  0  0  0  0
 12 21  1  0  0  0  0
 13 14  1  0  0  0  0
 13 27  1  0  0  0  0
 14 15  2  0  0  0  0
 15 16  1  0  0  0  0
 15 26  1  0  0  0  0
 16 17  2  0  0  0  0
 16 21  1  0  0  0  0
 17 18  1  0  0  0  0
 17 25  1  0  0  0  0
 18 19  2  0  0  0  0
 18 24  1  0  0  0  0
 19 20  1  0  0  0  0
 19 23  1  0  0  0  0
 20 21  2  0  0  0  0
 20 22  1  0  0  0  0
 28 29  1  0  0  0  0
 28 48  1  0  0  0  0
 28 49  1  0  0  0  0
 29 30  1  0  0  0  0
 29 47  1  1  0  0  0
 30 31  1  0  0  0  0
 30 45  1  0  0  0  0
 30 46  1  0  0  0  0
 31 32  1  0  0  0  0
 31 44  1  0  0  0  0
 32 33  2  0  0  0  0
 32 41  1  0  0  0  0
 33 34  1  0  0  0  0
 33 43  1  0  0  0  0
 34 35  2  0  0  0  0
 34 42  1  0  0  0  0
 35 36  1  0  0  0  0
 36 37  1  0  0  0  0
 36 41  2  0  0  0  0
 37 38  1  0  0  0  0
 37 39  1  0  0  0  0
 37 40  1  0  0  0  0
 50 51  2  0  0  0  0
 50 56  1  0  0  0  0
 51 52  1  0  0  0  0
 51 61  1  0  0  0  0
 52 53  1  0  0  0  0
 52 54  2  0  0  0  0
 54 55  1  0  0  0  0
 54 60  1  0  0  0  0
 55 56  2  0  0  0  0
 55 59  1  0  0  0  0
 56 57  1  0  0  0  0
 57 58  2  0  0  0  0
M  END
>  <MODEL>
       1

$$$$
