tmp_first_model_11_59.pdb
 OpenBabel08272522543D

 60 65  0  0  1  0  0  0  0  0999 V2000
  -14.3860   -1.4440  -23.8180 C   0  0  0  0  0  0  0  0  0  0  0  0
  -13.6680   -2.6120  -23.3590 N   0  0  0  0  0  0  0  0  0  0  0  0
  -13.2710   -2.6250  -22.0620 C   0  0  0  0  0  0  0  0  0  0  0  0
  -13.5390   -1.7180  -21.2890 O   0  0  0  0  0  0  0  0  0  0  0  0
  -12.4820   -3.8580  -21.6660 C   0  0  0  0  0  0  0  0  0  0  0  0
  -11.1290   -3.9200  -22.1900 N   0  0  0  0  0  0  0  0  0  0  0  0
  -10.0130   -3.4000  -21.4090 C   0  0  0  0  0  0  0  0  0  0  0  0
   -8.8070   -2.9550  -22.2700 C   0  0  2  0  0  0  0  0  0  0  0  0
   -7.6370   -2.7090  -21.3190 C   0  0  0  0  0  0  0  0  0  0  0  0
   -7.0200   -3.5460  -20.6910 O   0  0  0  0  0  0  0  0  0  0  0  0
   -7.3910   -1.3530  -21.2370 N   0  0  0  0  0  0  0  0  0  0  0  0
   -6.5910   -0.8420  -20.1910 C   0  0  0  0  0  0  0  0  0  0  0  0
   -6.9040   -1.0950  -18.8790 C   0  0  0  0  0  0  0  0  0  0  0  0
   -6.2360   -0.5700  -17.8220 N   0  0  0  0  0  0  0  0  0  0  0  0
   -5.2070    0.2000  -18.0870 C   0  0  0  0  0  0  0  0  0  0  0  0
   -4.7530    0.5060  -19.4030 C   0  0  0  0  0  0  0  0  0  0  0  0
   -3.6230    1.3290  -19.6390 C   0  0  0  0  0  0  0  0  0  0  0  0
   -3.2210    1.5980  -20.9170 C   0  0  0  0  0  0  0  0  0  0  0  0
   -3.9220    1.0600  -22.0190 C   0  0  0  0  0  0  0  0  0  0  0  0
   -5.0210    0.2600  -21.8190 C   0  0  0  0  0  0  0  0  0  0  0  0
   -5.4640   -0.0240  -20.5000 C   0  0  0  0  0  0  0  0  0  0  0  0
   -5.5550   -0.1620  -22.6650 H   0  0  0  0  0  0  0  0  0  0  0  0
   -3.5940    1.2920  -23.0270 H   0  0  0  0  0  0  0  0  0  0  0  0
   -2.3650    2.2420  -21.0920 H   0  0  0  0  0  0  0  0  0  0  0  0
   -3.1070    1.7490  -18.7810 H   0  0  0  0  0  0  0  0  0  0  0  0
   -4.6690    0.6260  -17.2380 H   0  0  0  0  0  0  0  0  0  0  0  0
   -7.7400   -1.7460  -18.6330 H   0  0  0  0  0  0  0  0  0  0  0  0
   -8.3810   -0.5460  -21.9330 C   0  0  0  0  0  0  0  0  0  0  0  0
   -9.0140   -1.5470  -22.9070 C   0  0  2  0  0  0  0  0  0  0  0  0
  -10.4670   -1.2170  -23.2540 C   0  0  0  0  0  0  0  0  0  0  0  0
  -10.5510    0.0430  -24.0190 C   0  0  0  0  0  0  0  0  0  0  0  0
  -10.7660    1.2360  -23.4810 N   0  0  0  0  0  0  0  0  0  0  0  0
  -10.6850    2.0850  -24.5030 N   0  0  0  0  0  0  0  0  0  0  0  0
  -10.4350    1.4210  -25.6000 N   0  5  0  0  0  0  0  0  0  0  0  0
  -10.3500    0.1230  -25.3270 N   0  0  0  0  0  0  0  0  0  0  0  0
  -11.0760   -1.1150  -22.3520 H   0  0  0  0  0  0  0  0  0  0  0  0
  -10.8710   -2.0170  -23.8730 H   0  0  0  0  0  0  0  0  0  0  0  0
   -8.4330   -1.5300  -23.8400 H   0  0  0  0  0  0  0  0  0  0  0  0
   -9.1300   -0.1400  -21.2360 H   0  0  0  0  0  0  0  0  0  0  0  0
   -7.9260    0.3020  -22.4560 H   0  0  0  0  0  0  0  0  0  0  0  0
   -8.5290   -4.0110  -23.3120 C   0  0  0  0  0  0  0  0  0  0  0  0
   -7.2610   -4.1310  -23.8840 C   0  0  0  0  0  0  0  0  0  0  0  0
   -7.0400   -5.0620  -24.8820 C   0  0  0  0  0  0  0  0  0  0  0  0
   -5.4880   -5.1300  -25.6480 Cl  0  0  0  0  0  0  0  0  0  0  0  0
   -8.0520   -5.9070  -25.3290 C   0  0  0  0  0  0  0  0  0  0  0  0
   -9.3130   -5.7730  -24.7790 C   0  0  0  0  0  0  0  0  0  0  0  0
   -9.5660   -4.8020  -23.8140 C   0  0  0  0  0  0  0  0  0  0  0  0
  -10.9710   -4.5630  -23.3760 C   0  0  0  0  0  0  0  0  0  0  0  0
  -11.9450   -4.8900  -24.0610 O   0  0  0  0  0  0  0  0  0  0  0  0
  -10.1240   -6.4220  -25.0900 H   0  0  0  0  0  0  0  0  0  0  0  0
   -7.8510   -6.6350  -26.1090 H   0  0  0  0  0  0  0  0  0  0  0  0
   -6.4500   -3.4930  -23.5540 H   0  0  0  0  0  0  0  0  0  0  0  0
  -10.3550   -2.5140  -20.8620 H   0  0  0  0  0  0  0  0  0  0  0  0
   -9.6780   -4.1600  -20.6930 H   0  0  0  0  0  0  0  0  0  0  0  0
  -12.4850   -3.9790  -20.5820 H   0  0  0  0  0  0  0  0  0  0  0  0
  -13.0310   -4.6750  -22.1360 H   0  0  0  0  0  0  0  0  0  0  0  0
  -13.4500   -3.4010  -23.9580 H   0  0  0  0  0  0  0  0  0  0  0  0
  -14.7230   -1.5810  -24.8450 H   0  0  0  0  0  0  0  0  0  0  0  0
  -15.2510   -1.2630  -23.1720 H   0  0  0  0  0  0  0  0  0  0  0  0
  -13.7420   -0.5550  -23.7730 H   0  0  0  0  0  0  0  0  0  0  0  0
  1  2  1  0  0  0  0
  1 58  1  0  0  0  0
  1 59  1  0  0  0  0
  1 60  1  0  0  0  0
  2  3  1  0  0  0  0
  2 57  1  0  0  0  0
  3  4  2  0  0  0  0
  3  5  1  0  0  0  0
  5  6  1  0  0  0  0
  5 55  1  0  0  0  0
  5 56  1  0  0  0  0
  6  7  1  0  0  0  0
  6 48  1  0  0  0  0
  7  8  1  0  0  0  0
  7 53  1  0  0  0  0
  7 54  1  0  0  0  0
  8  9  1  1  0  0  0
  8 29  1  0  0  0  0
  8 41  1  0  0  0  0
  9 10  2  0  0  0  0
  9 11  1  0  0  0  0
 11 12  1  0  0  0  0
 11 28  1  0  0  0  0
 12 13  2  0  0  0  0
 12 21  1  0  0  0  0
 13 14  1  0  0  0  0
 13 27  1  0  0  0  0
 14 15  2  0  0  0  0
 15 16  1  0  0  0  0
 15 26  1  0  0  0  0
 16 17  2  0  0  0  0
 16 21  1  0  0  0  0
 17 18  1  0  0  0  0
 17 25  1  0  0  0  0
 18 19  2  0  0  0  0
 18 24  1  0  0  0  0
 19 20  1  0  0  0  0
 19 23  1  0  0  0  0
 20 21  2  0  0  0  0
 20 22  1  0  0  0  0
 28 29  1  0  0  0  0
 28 39  1  0  0  0  0
 28 40  1  0  0  0  0
 29 30  1  0  0  0  0
 29 38  1  6  0  0  0
 30 31  1  0  0  0  0
 30 36  1  0  0  0  0
 30 37  1  0  0  0  0
 31 32  1  0  0  0  0
 31 35  2  0  0  0  0
 32 33  2  0  0  0  0
 33 34  1  0  0  0  0
 34 35  1  0  0  0  0
 41 42  2  0  0  0  0
 41 47  1  0  0  0  0
 42 43  1  0  0  0  0
 42 52  1  0  0  0  0
 43 44  1  0  0  0  0
 43 45  2  0  0  0  0
 45 46  1  0  0  0  0
 45 51  1  0  0  0  0
 46 47  2  0  0  0  0
 46 50  1  0  0  0  0
 47 48  1  0  0  0  0
 48 49  2  0  0  0  0
M  CHG  1  34  -1
M  END
>  <MODEL>
       1

$$$$
