tmp_first_model_5_39.pdb
 OpenBabel08272519233D

 40 44  0  0  1  0  0  0  0  0999 V2000
  -10.1690   -0.5080  -25.6910 C   0  0  0  0  0  0  0  0  0  0  0  0
  -10.3120   -2.0030  -25.4640 C   0  0  0  0  0  0  0  0  0  0  0  0
  -10.1280   -2.8410  -26.3310 O   0  0  0  0  0  0  0  0  0  0  0  0
  -10.7140   -2.3750  -24.2030 N   0  0  0  0  0  0  0  0  0  0  0  0
  -10.3870   -3.7540  -23.7460 C   0  0  0  0  0  0  0  0  0  0  0  0
  -10.0400   -3.5070  -22.2810 C   0  0  2  0  0  0  0  0  0  0  0  0
  -11.0570   -2.4160  -21.9130 C   0  0  0  0  0  0  0  0  0  0  0  0
  -10.5640   -1.4760  -23.0340 C   0  0  1  0  0  0  0  0  0  0  0  0
   -9.1340   -1.4280  -22.6820 C   0  0  0  0  0  0  0  0  0  0  0  0
   -8.2310   -0.5300  -22.0290 C   0  0  0  0  0  0  0  0  0  0  0  0
   -8.1760    0.6760  -21.9910 O   0  5  0  0  0  0  0  0  0  0  0  0
   -7.3460   -1.4050  -21.3140 N   0  0  0  0  0  0  0  0  0  0  0  0
   -6.4820   -0.9810  -20.2720 C   0  0  0  0  0  0  0  0  0  0  0  0
   -6.7890   -1.1980  -18.9470 C   0  0  0  0  0  0  0  0  0  0  0  0
   -5.9440   -0.9180  -17.9180 N   0  0  0  0  0  0  0  0  0  0  0  0
   -4.7660   -0.4270  -18.2250 C   0  0  0  0  0  0  0  0  0  0  0  0
   -4.3800   -0.0410  -19.5440 C   0  0  0  0  0  0  0  0  0  0  0  0
   -3.2050    0.7250  -19.8000 C   0  0  0  0  0  0  0  0  0  0  0  0
   -3.0810    1.4220  -20.9690 C   0  0  0  0  0  0  0  0  0  0  0  0
   -4.0030    1.2090  -22.0180 C   0  0  0  0  0  0  0  0  0  0  0  0
   -5.0130    0.2970  -21.8660 C   0  0  0  0  0  0  0  0  0  0  0  0
   -5.2940   -0.2580  -20.5920 C   0  0  0  0  0  0  0  0  0  0  0  0
   -5.6100   -0.0160  -22.7090 H   0  0  0  0  0  0  0  0  0  0  0  0
   -3.8410    1.6770  -22.9800 H   0  0  0  0  0  0  0  0  0  0  0  0
   -2.2170    2.0560  -21.1430 H   0  0  0  0  0  0  0  0  0  0  0  0
   -2.4690    0.8340  -19.0140 H   0  0  0  0  0  0  0  0  0  0  0  0
   -4.0820   -0.2390  -17.3930 H   0  0  0  0  0  0  0  0  0  0  0  0
   -7.7630   -1.5860  -18.6460 H   0  0  0  0  0  0  0  0  0  0  0  0
   -7.6500   -2.7600  -21.5460 C   0  0  0  0  0  0  0  0  0  0  0  0
   -7.0310   -3.7330  -21.1870 O   0  0  0  0  0  0  0  0  0  0  0  0
   -8.7920   -2.7100  -22.3160 N   0  0  0  0  0  0  0  0  0  0  0  0
  -11.0710   -0.5150  -23.1540 H   0  0  0  0  0  0  0  0  0  0  0  0
  -10.8420   -1.9970  -20.9350 H   0  0  0  0  0  0  0  0  0  0  0  0
  -12.1000   -2.7140  -22.0260 H   0  0  0  0  0  0  0  0  0  0  0  0
   -9.9340   -4.3670  -21.6320 H   0  0  0  0  0  0  0  0  0  0  0  0
   -9.5130   -4.1320  -24.2770 H   0  0  0  0  0  0  0  0  0  0  0  0
  -11.2280   -4.4390  -23.8920 H   0  0  0  0  0  0  0  0  0  0  0  0
  -11.1290   -0.0060  -25.5390 H   0  0  0  0  0  0  0  0  0  0  0  0
   -9.4790   -0.0640  -24.9670 H   0  0  0  0  0  0  0  0  0  0  0  0
   -9.8260   -0.3160  -26.7090 H   0  0  0  0  0  0  0  0  0  0  0  0
  1  2  1  0  0  0  0
  1 38  1  0  0  0  0
  1 39  1  0  0  0  0
  1 40  1  0  0  0  0
  2  3  2  0  0  0  0
  2  4  1  0  0  0  0
  4  5  1  0  0  0  0
  4  8  1  0  0  0  0
  5  6  1  0  0  0  0
  5 36  1  0  0  0  0
  5 37  1  0  0  0  0
  6  7  1  0  0  0  0
  6 31  1  0  0  0  0
  6 35  1  1  0  0  0
  7  8  1  0  0  0  0
  7 33  1  0  0  0  0
  7 34  1  0  0  0  0
  8  9  1  0  0  0  0
  8 32  1  6  0  0  0
  9 10  2  0  0  0  0
  9 31  1  0  0  0  0
 10 11  1  0  0  0  0
 10 12  1  0  0  0  0
 12 13  1  0  0  0  0
 12 29  1  0  0  0  0
 13 14  2  0  0  0  0
 13 22  1  0  0  0  0
 14 15  1  0  0  0  0
 14 28  1  0  0  0  0
 15 16  2  0  0  0  0
 16 17  1  0  0  0  0
 16 27  1  0  0  0  0
 17 18  2  0  0  0  0
 17 22  1  0  0  0  0
 18 19  1  0  0  0  0
 18 26  1  0  0  0  0
 19 20  2  0  0  0  0
 19 25  1  0  0  0  0
 20 21  1  0  0  0  0
 20 24  1  0  0  0  0
 21 22  2  0  0  0  0
 21 23  1  0  0  0  0
 29 30  2  0  0  0  0
 29 31  1  0  0  0  0
M  CHG  1  11  -1
M  END
>  <MODEL>
       1

$$$$
