tmp_first_model_18_30.pdb
 OpenBabel08282502533D

 58 63  0  0  1  0  0  0  0  0999 V2000
  -10.2180   -1.0150  -23.6830 C   0  0  0  0  0  0  0  0  0  0  0  0
   -8.8700   -1.3280  -23.0450 C   0  0  1  0  0  0  0  0  0  0  0  0
   -8.4180   -0.3900  -21.9090 C   0  0  0  0  0  0  0  0  0  0  0  0
   -7.4170   -1.1890  -21.2230 N   0  0  0  0  0  0  0  0  0  0  0  0
   -6.6100   -0.7280  -20.1590 C   0  0  0  0  0  0  0  0  0  0  0  0
   -6.8990   -1.0500  -18.8580 C   0  0  0  0  0  0  0  0  0  0  0  0
   -6.2240   -0.5500  -17.7910 N   0  0  0  0  0  0  0  0  0  0  0  0
   -5.2150    0.2550  -18.0310 C   0  0  0  0  0  0  0  0  0  0  0  0
   -4.7610    0.5990  -19.3420 C   0  0  0  0  0  0  0  0  0  0  0  0
   -3.6220    1.4110  -19.5880 C   0  0  0  0  0  0  0  0  0  0  0  0
   -3.2050    1.6480  -20.8700 C   0  0  0  0  0  0  0  0  0  0  0  0
   -3.8940    1.0910  -21.9710 C   0  0  0  0  0  0  0  0  0  0  0  0
   -5.0080    0.3200  -21.7630 C   0  0  0  0  0  0  0  0  0  0  0  0
   -5.4680    0.0750  -20.4430 C   0  0  0  0  0  0  0  0  0  0  0  0
   -5.5330   -0.1360  -22.5960 H   0  0  0  0  0  0  0  0  0  0  0  0
   -3.5460    1.2690  -22.9840 H   0  0  0  0  0  0  0  0  0  0  0  0
   -2.3320    2.2660  -21.0590 H   0  0  0  0  0  0  0  0  0  0  0  0
   -3.0940    1.8360  -18.7410 H   0  0  0  0  0  0  0  0  0  0  0  0
   -4.6860    0.6560  -17.1650 H   0  0  0  0  0  0  0  0  0  0  0  0
   -7.7130   -1.7380  -18.6330 H   0  0  0  0  0  0  0  0  0  0  0  0
   -7.5340   -2.5360  -21.4730 C   0  0  0  0  0  0  0  0  0  0  0  0
   -6.7880   -3.3710  -20.9990 O   0  0  0  0  0  0  0  0  0  0  0  0
   -8.7250   -2.7540  -22.4170 C   0  0  1  0  0  0  0  0  0  0  0  0
   -9.9480   -3.1460  -21.5280 C   0  0  0  0  0  0  0  0  0  0  0  0
  -11.1030   -3.6360  -22.2730 N   0  0  0  0  0  0  0  0  0  0  0  0
  -12.4600   -3.6130  -21.7170 C   0  0  0  0  0  0  0  0  0  0  0  0
  -13.3890   -2.4750  -22.0990 C   0  0  0  0  0  0  0  0  0  0  0  0
  -14.0530   -1.7950  -21.1270 C   0  0  0  0  0  0  0  0  0  0  0  0
  -14.9630   -0.7040  -21.4290 C   0  0  0  0  0  0  0  0  0  0  0  0
  -15.5570    0.0120  -20.6440 O   0  0  0  0  0  0  0  0  0  0  0  0
  -15.1550   -0.5650  -22.8240 N   0  0  0  0  0  0  0  0  0  0  0  0
  -14.4580   -1.3110  -23.7330 C   0  0  0  0  0  0  0  0  0  0  0  0
  -13.5960   -2.2320  -23.4390 N   0  0  0  0  0  0  0  0  0  0  0  0
  -14.6570   -1.0930  -24.7830 H   0  0  0  0  0  0  0  0  0  0  0  0
  -15.7550    0.2070  -23.1200 H   0  0  0  0  0  0  0  0  0  0  0  0
  -13.8790   -2.0330  -20.0870 H   0  0  0  0  0  0  0  0  0  0  0  0
  -12.9460   -4.5260  -22.0610 H   0  0  0  0  0  0  0  0  0  0  0  0
  -12.4410   -3.6370  -20.6310 H   0  0  0  0  0  0  0  0  0  0  0  0
  -10.8920   -4.4970  -23.3110 C   0  0  0  0  0  0  0  0  0  0  0  0
  -11.7900   -5.1620  -23.7880 O   0  0  0  0  0  0  0  0  0  0  0  0
   -9.5110   -4.6320  -23.8580 C   0  0  0  0  0  0  0  0  0  0  0  0
   -9.3270   -5.6230  -24.8190 C   0  0  0  0  0  0  0  0  0  0  0  0
   -8.0840   -5.8540  -25.3710 C   0  0  0  0  0  0  0  0  0  0  0  0
   -7.0260   -5.0560  -24.9470 C   0  0  0  0  0  0  0  0  0  0  0  0
   -5.8120   -5.2750  -25.4840 F   0  0  0  0  0  0  0  0  0  0  0  0
   -7.1800   -4.0680  -23.9900 C   0  0  0  0  0  0  0  0  0  0  0  0
   -8.4500   -3.8420  -23.4270 C   0  0  0  0  0  0  0  0  0  0  0  0
   -6.3090   -3.4990  -23.6790 H   0  0  0  0  0  0  0  0  0  0  0  0
   -7.9180   -6.6270  -26.1140 H   0  0  0  0  0  0  0  0  0  0  0  0
  -10.1950   -6.2070  -25.1040 H   0  0  0  0  0  0  0  0  0  0  0  0
   -9.5780   -3.9070  -20.8300 H   0  0  0  0  0  0  0  0  0  0  0  0
  -10.2750   -2.2770  -20.9540 H   0  0  0  0  0  0  0  0  0  0  0  0
   -9.2390   -0.1420  -21.2200 H   0  0  0  0  0  0  0  0  0  0  0  0
   -7.9910    0.5510  -22.2690 H   0  0  0  0  0  0  0  0  0  0  0  0
   -8.1090   -1.2660  -23.8390 H   0  0  0  0  0  0  0  0  0  0  0  0
  -11.0520   -1.1230  -22.9820 H   0  0  0  0  0  0  0  0  0  0  0  0
  -10.4210   -1.7040  -24.5100 H   0  0  0  0  0  0  0  0  0  0  0  0
  -10.2330    0.0000  -24.0870 H   0  0  0  0  0  0  0  0  0  0  0  0
  1  2  1  0  0  0  0
  1 56  1  0  0  0  0
  1 57  1  0  0  0  0
  1 58  1  0  0  0  0
  2  3  1  0  0  0  0
  2 23  1  0  0  0  0
  2 55  1  6  0  0  0
  3  4  1  0  0  0  0
  3 53  1  0  0  0  0
  3 54  1  0  0  0  0
  4  5  1  0  0  0  0
  4 21  1  0  0  0  0
  5  6  2  0  0  0  0
  5 14  1  0  0  0  0
  6  7  1  0  0  0  0
  6 20  1  0  0  0  0
  7  8  2  0  0  0  0
  8  9  1  0  0  0  0
  8 19  1  0  0  0  0
  9 10  2  0  0  0  0
  9 14  1  0  0  0  0
 10 11  1  0  0  0  0
 10 18  1  0  0  0  0
 11 12  2  0  0  0  0
 11 17  1  0  0  0  0
 12 13  1  0  0  0  0
 12 16  1  0  0  0  0
 13 14  2  0  0  0  0
 13 15  1  0  0  0  0
 21 22  2  0  0  0  0
 23 21  1  1  0  0  0
 23 24  1  0  0  0  0
 23 47  1  0  0  0  0
 24 25  1  0  0  0  0
 24 51  1  0  0  0  0
 24 52  1  0  0  0  0
 25 26  1  0  0  0  0
 25 39  1  0  0  0  0
 26 27  1  0  0  0  0
 26 37  1  0  0  0  0
 26 38  1  0  0  0  0
 27 28  2  0  0  0  0
 27 33  1  0  0  0  0
 28 29  1  0  0  0  0
 28 36  1  0  0  0  0
 29 30  2  0  0  0  0
 29 31  1  0  0  0  0
 31 32  1  0  0  0  0
 31 35  1  0  0  0  0
 32 33  2  0  0  0  0
 32 34  1  0  0  0  0
 39 40  2  0  0  0  0
 39 41  1  0  0  0  0
 41 42  2  0  0  0  0
 41 47  1  0  0  0  0
 42 43  1  0  0  0  0
 42 50  1  0  0  0  0
 43 44  2  0  0  0  0
 43 49  1  0  0  0  0
 44 45  1  0  0  0  0
 44 46  1  0  0  0  0
 46 47  2  0  0  0  0
 46 48  1  0  0  0  0
M  END
>  <MODEL>
       1

$$$$
