tmp_first_model_5_68.pdb
 OpenBabel08272519233D

 65 70  0  0  1  0  0  0  0  0999 V2000
   -8.7840    0.3220  -20.8400 O   0  0  0  0  0  0  0  0  0  0  0  0
   -8.3540   -0.3250  -21.7790 C   0  0  0  0  0  0  0  0  0  0  0  0
   -7.4720   -1.5270  -21.4450 C   0  0  0  0  0  0  0  0  0  0  0  0
   -6.5070   -1.1550  -20.3590 C   0  0  0  0  0  0  0  0  0  0  0  0
   -6.7250   -1.5180  -19.0560 C   0  0  0  0  0  0  0  0  0  0  0  0
   -5.8180   -1.3950  -18.0510 N   0  0  0  0  0  0  0  0  0  0  0  0
   -4.6890   -0.8010  -18.3560 C   0  0  0  0  0  0  0  0  0  0  0  0
   -4.4240   -0.1960  -19.6220 C   0  0  0  0  0  0  0  0  0  0  0  0
   -3.3010    0.6480  -19.8430 C   0  0  0  0  0  0  0  0  0  0  0  0
   -3.2110    1.4020  -20.9780 C   0  0  0  0  0  0  0  0  0  0  0  0
   -4.1410    1.2240  -22.0250 C   0  0  0  0  0  0  0  0  0  0  0  0
   -5.1770    0.3340  -21.8870 C   0  0  0  0  0  0  0  0  0  0  0  0
   -5.3720   -0.3540  -20.6560 C   0  0  0  0  0  0  0  0  0  0  0  0
   -5.8790    0.1970  -22.7050 H   0  0  0  0  0  0  0  0  0  0  0  0
   -4.0220    1.7750  -22.9520 H   0  0  0  0  0  0  0  0  0  0  0  0
   -2.3730    2.0730  -21.1400 H   0  0  0  0  0  0  0  0  0  0  0  0
   -2.5760    0.7670  -19.0480 H   0  0  0  0  0  0  0  0  0  0  0  0
   -3.9180   -0.7780  -17.5810 H   0  0  0  0  0  0  0  0  0  0  0  0
   -7.6830   -1.9500  -18.7650 H   0  0  0  0  0  0  0  0  0  0  0  0
   -8.1460   -2.3050  -21.0700 H   0  0  0  0  0  0  0  0  0  0  0  0
   -6.9310   -1.9100  -22.3140 H   0  0  0  0  0  0  0  0  0  0  0  0
   -8.5980   -0.0030  -23.1020 N   0  0  0  0  0  0  0  0  0  0  0  0
   -8.5330   -1.0320  -24.1440 C   0  0  0  0  0  0  0  0  0  0  0  0
   -9.4790   -2.1930  -23.8910 C   0  0  0  0  0  0  0  0  0  0  0  0
  -10.8370   -1.9500  -23.6870 C   0  0  0  0  0  0  0  0  0  0  0  0
  -11.7210   -3.0020  -23.4790 C   0  0  0  0  0  0  0  0  0  0  0  0
  -11.2680   -4.3180  -23.4500 C   0  0  0  0  0  0  0  0  0  0  0  0
   -9.9110   -4.5530  -23.6280 C   0  0  0  0  0  0  0  0  0  0  0  0
   -9.2650   -6.1710  -23.5430 Cl  0  0  0  0  0  0  0  0  0  0  0  0
   -9.0190   -3.5090  -23.8690 C   0  0  0  0  0  0  0  0  0  0  0  0
   -7.9720   -3.7510  -24.0410 H   0  0  0  0  0  0  0  0  0  0  0  0
  -11.9710   -5.1320  -23.2970 H   0  0  0  0  0  0  0  0  0  0  0  0
  -12.7760   -2.7910  -23.3340 H   0  0  0  0  0  0  0  0  0  0  0  0
  -11.2230   -0.9320  -23.6890 H   0  0  0  0  0  0  0  0  0  0  0  0
   -7.5110   -1.4120  -24.2610 H   0  0  0  0  0  0  0  0  0  0  0  0
   -8.7960   -0.5670  -25.0940 H   0  0  0  0  0  0  0  0  0  0  0  0
   -8.8450    1.4140  -23.4000 C   0  0  2  0  0  0  0  0  0  0  0  0
   -7.6540    2.3560  -23.0680 C   0  0  0  0  0  0  0  0  0  0  0  0
   -8.2860    3.7720  -23.0510 C   0  0  0  0  0  0  0  0  0  0  0  0
   -9.7570    3.4690  -23.3200 C   0  0  2  0  0  0  0  0  0  0  0  0
   -9.9930    2.1170  -22.6580 C   0  0  0  0  0  0  0  0  0  0  0  0
  -10.9750    1.7030  -22.9090 H   0  0  0  0  0  0  0  0  0  0  0  0
   -9.8450    2.0800  -21.5850 H   0  0  0  0  0  0  0  0  0  0  0  0
   -9.8190    3.1050  -24.8160 N   0  3  2  0  0  0  0  0  0  0  0  0
  -11.1590    3.2280  -25.4540 C   0  0  0  0  0  0  0  0  0  0  0  0
  -11.6170    4.6740  -25.5230 C   0  0  0  0  0  0  0  0  0  0  0  0
  -12.9200    4.9320  -26.2920 C   0  0  0  0  0  0  0  0  0  0  0  0
  -13.5640    5.4900  -25.1350 O   0  0  0  0  0  0  0  0  0  0  0  0
  -12.4080    5.2330  -24.3270 C   0  0  0  0  0  0  0  0  0  0  0  0
  -12.6220    4.4890  -23.5460 H   0  0  0  0  0  0  0  0  0  0  0  0
  -12.0180    6.1520  -23.8690 H   0  0  0  0  0  0  0  0  0  0  0  0
  -12.8710    5.6490  -27.1190 H   0  0  0  0  0  0  0  0  0  0  0  0
  -13.4250    4.0220  -26.6440 H   0  0  0  0  0  0  0  0  0  0  0  0
  -10.7650    5.2940  -25.8200 H   0  0  0  0  0  0  0  0  0  0  0  0
  -11.1180    2.8030  -26.4650 H   0  0  0  0  0  0  0  0  0  0  0  0
  -11.8900    2.6300  -24.8880 H   0  0  0  0  0  0  0  0  0  0  0  0
   -9.2680    1.7010  -24.8490 C   0  0  0  0  0  0  0  0  0  0  0  0
   -8.4440    1.6210  -25.5600 H   0  0  0  0  0  0  0  0  0  0  0  0
  -10.0790    1.0310  -25.1530 H   0  0  0  0  0  0  0  0  0  0  0  0
   -9.1840    3.7290  -25.3460 H   0  0  0  0  0  0  0  0  0  0  0  0
  -10.4540    4.2710  -23.0970 H   0  0  0  0  0  0  0  0  0  0  0  0
   -7.8890    4.4340  -23.8290 H   0  0  0  0  0  0  0  0  0  0  0  0
   -8.1420    4.2680  -22.0880 H   0  0  0  0  0  0  0  0  0  0  0  0
   -6.8360    2.2540  -23.7890 H   0  0  0  0  0  0  0  0  0  0  0  0
   -7.2790    2.1290  -22.0660 H   0  0  0  0  0  0  0  0  0  0  0  0
  1  2  2  0  0  0  0
  2  3  1  0  0  0  0
  2 22  1  0  0  0  0
  3  4  1  0  0  0  0
  3 20  1  0  0  0  0
  3 21  1  0  0  0  0
  4  5  2  0  0  0  0
  4 13  1  0  0  0  0
  5  6  1  0  0  0  0
  5 19  1  0  0  0  0
  6  7  2  0  0  0  0
  7  8  1  0  0  0  0
  7 18  1  0  0  0  0
  8  9  2  0  0  0  0
  8 13  1  0  0  0  0
  9 10  1  0  0  0  0
  9 17  1  0  0  0  0
 10 11  2  0  0  0  0
 10 16  1  0  0  0  0
 11 12  1  0  0  0  0
 11 15  1  0  0  0  0
 12 13  2  0  0  0  0
 12 14  1  0  0  0  0
 22 23  1  0  0  0  0
 23 24  1  0  0  0  0
 23 35  1  0  0  0  0
 23 36  1  0  0  0  0
 24 25  2  0  0  0  0
 24 30  1  0  0  0  0
 25 26  1  0  0  0  0
 25 34  1  0  0  0  0
 26 27  2  0  0  0  0
 26 33  1  0  0  0  0
 27 28  1  0  0  0  0
 27 32  1  0  0  0  0
 28 29  1  0  0  0  0
 28 30  2  0  0  0  0
 30 31  1  0  0  0  0
 37 22  1  1  0  0  0
 37 38  1  0  0  0  0
 37 41  1  0  0  0  0
 37 57  1  0  0  0  0
 38 39  1  0  0  0  0
 38 64  1  0  0  0  0
 38 65  1  0  0  0  0
 39 40  1  0  0  0  0
 39 62  1  0  0  0  0
 39 63  1  0  0  0  0
 40 41  1  0  0  0  0
 40 44  1  0  0  0  0
 40 61  1  1  0  0  0
 41 42  1  0  0  0  0
 41 43  1  0  0  0  0
 44 45  1  0  0  0  0
 44 57  1  0  0  0  0
 44 60  1  6  0  0  0
 45 46  1  0  0  0  0
 45 55  1  0  0  0  0
 45 56  1  0  0  0  0
 46 47  1  0  0  0  0
 46 49  1  0  0  0  0
 46 54  1  0  0  0  0
 47 48  1  0  0  0  0
 47 52  1  0  0  0  0
 47 53  1  0  0  0  0
 48 49  1  0  0  0  0
 49 50  1  0  0  0  0
 49 51  1  0  0  0  0
 57 58  1  0  0  0  0
 57 59  1  0  0  0  0
M  CHG  1  44   1
M  END
>  <MODEL>
       1

$$$$
