tmp_first_model_15_37.pdb
 OpenBabel08282501153D

 56 60  0  0  1  0  0  0  0  0999 V2000
  -14.4730   -1.6290  -23.6990 C   0  0  0  0  0  0  0  0  0  0  0  0
  -13.8060   -2.8250  -23.2370 N   0  0  0  0  0  0  0  0  0  0  0  0
  -13.3660   -2.8170  -21.9540 C   0  0  0  0  0  0  0  0  0  0  0  0
  -13.7140   -1.9710  -21.1450 O   0  0  0  0  0  0  0  0  0  0  0  0
  -12.4440   -3.9850  -21.6370 C   0  0  0  0  0  0  0  0  0  0  0  0
  -11.1320   -3.8910  -22.2560 N   0  0  0  0  0  0  0  0  0  0  0  0
  -10.0100   -3.3860  -21.4770 C   0  0  0  0  0  0  0  0  0  0  0  0
   -8.8090   -2.9190  -22.3280 C   0  0  2  0  0  0  0  0  0  0  0  0
   -7.5780   -2.7030  -21.4300 C   0  0  0  0  0  0  0  0  0  0  0  0
   -6.8210   -3.5510  -21.0040 O   0  0  0  0  0  0  0  0  0  0  0  0
   -7.4060   -1.3500  -21.2300 N   0  0  0  0  0  0  0  0  0  0  0  0
   -6.5900   -0.8520  -20.1890 C   0  0  0  0  0  0  0  0  0  0  0  0
   -6.9060   -1.0960  -18.8760 C   0  0  0  0  0  0  0  0  0  0  0  0
   -6.2340   -0.5720  -17.8190 N   0  0  0  0  0  0  0  0  0  0  0  0
   -5.2080    0.2030  -18.0820 C   0  0  0  0  0  0  0  0  0  0  0  0
   -4.7600    0.5130  -19.3990 C   0  0  0  0  0  0  0  0  0  0  0  0
   -3.6330    1.3400  -19.6330 C   0  0  0  0  0  0  0  0  0  0  0  0
   -3.2240    1.6070  -20.9110 C   0  0  0  0  0  0  0  0  0  0  0  0
   -3.9210    1.0650  -22.0130 C   0  0  0  0  0  0  0  0  0  0  0  0
   -5.0200    0.2640  -21.8160 C   0  0  0  0  0  0  0  0  0  0  0  0
   -5.4670   -0.0250  -20.4970 C   0  0  0  0  0  0  0  0  0  0  0  0
   -5.5470   -0.1580  -22.6670 H   0  0  0  0  0  0  0  0  0  0  0  0
   -3.5890    1.2910  -23.0220 H   0  0  0  0  0  0  0  0  0  0  0  0
   -2.3650    2.2480  -21.0880 H   0  0  0  0  0  0  0  0  0  0  0  0
   -3.1170    1.7610  -18.7750 H   0  0  0  0  0  0  0  0  0  0  0  0
   -4.6650    0.6300  -17.2350 H   0  0  0  0  0  0  0  0  0  0  0  0
   -7.7460   -1.7400  -18.6270 H   0  0  0  0  0  0  0  0  0  0  0  0
   -8.3950   -0.5310  -21.9030 C   0  0  0  0  0  0  0  0  0  0  0  0
   -9.0270   -1.4870  -22.9200 C   0  0  2  0  0  0  0  0  0  0  0  0
  -10.4730   -1.1520  -23.2560 C   0  0  0  0  0  0  0  0  0  0  0  0
  -10.9000   -1.9200  -23.9060 H   0  0  0  0  0  0  0  0  0  0  0  0
  -10.5530   -0.1860  -23.7580 H   0  0  0  0  0  0  0  0  0  0  0  0
  -11.0810   -1.1160  -22.3450 H   0  0  0  0  0  0  0  0  0  0  0  0
   -8.4290   -1.4540  -23.8390 H   0  0  0  0  0  0  0  0  0  0  0  0
   -9.1440   -0.1530  -21.1930 H   0  0  0  0  0  0  0  0  0  0  0  0
   -7.9310    0.3350  -22.3830 H   0  0  0  0  0  0  0  0  0  0  0  0
   -8.5410   -3.9500  -23.3920 C   0  0  0  0  0  0  0  0  0  0  0  0
   -7.2670   -4.1060  -23.9390 C   0  0  0  0  0  0  0  0  0  0  0  0
   -7.0360   -5.0450  -24.9300 C   0  0  0  0  0  0  0  0  0  0  0  0
   -8.0680   -5.8600  -25.3910 C   0  0  0  0  0  0  0  0  0  0  0  0
   -9.3420   -5.6850  -24.8870 C   0  0  0  0  0  0  0  0  0  0  0  0
   -9.5830   -4.7110  -23.9210 C   0  0  0  0  0  0  0  0  0  0  0  0
  -10.9820   -4.4920  -23.4650 C   0  0  0  0  0  0  0  0  0  0  0  0
  -11.9580   -4.8450  -24.1320 O   0  0  0  0  0  0  0  0  0  0  0  0
  -10.1690   -6.2950  -25.2280 H   0  0  0  0  0  0  0  0  0  0  0  0
   -7.8700   -6.6290  -26.1330 H   0  0  0  0  0  0  0  0  0  0  0  0
   -6.0490   -5.1240  -25.3660 H   0  0  0  0  0  0  0  0  0  0  0  0
   -6.4500   -3.5010  -23.5610 H   0  0  0  0  0  0  0  0  0  0  0  0
  -10.3530   -2.5370  -20.8820 H   0  0  0  0  0  0  0  0  0  0  0  0
   -9.6850   -4.1690  -20.7940 H   0  0  0  0  0  0  0  0  0  0  0  0
  -12.3710   -4.0890  -20.5570 H   0  0  0  0  0  0  0  0  0  0  0  0
  -12.9160   -4.8700  -22.0620 H   0  0  0  0  0  0  0  0  0  0  0  0
  -13.4230   -3.5230  -23.8650 H   0  0  0  0  0  0  0  0  0  0  0  0
  -13.7960   -0.7640  -23.6690 H   0  0  0  0  0  0  0  0  0  0  0  0
  -15.3180   -1.4190  -23.0400 H   0  0  0  0  0  0  0  0  0  0  0  0
  -14.8330   -1.7590  -24.7190 H   0  0  0  0  0  0  0  0  0  0  0  0
  1  2  1  0  0  0  0
  1 54  1  0  0  0  0
  1 55  1  0  0  0  0
  1 56  1  0  0  0  0
  2  3  1  0  0  0  0
  2 53  1  0  0  0  0
  3  4  2  0  0  0  0
  3  5  1  0  0  0  0
  5  6  1  0  0  0  0
  5 51  1  0  0  0  0
  5 52  1  0  0  0  0
  6  7  1  0  0  0  0
  6 43  1  0  0  0  0
  7  8  1  0  0  0  0
  7 49  1  0  0  0  0
  7 50  1  0  0  0  0
  8  9  1  1  0  0  0
  8 29  1  0  0  0  0
  8 37  1  0  0  0  0
  9 10  2  0  0  0  0
  9 11  1  0  0  0  0
 11 12  1  0  0  0  0
 11 28  1  0  0  0  0
 12 13  2  0  0  0  0
 12 21  1  0  0  0  0
 13 14  1  0  0  0  0
 13 27  1  0  0  0  0
 14 15  2  0  0  0  0
 15 16  1  0  0  0  0
 15 26  1  0  0  0  0
 16 17  2  0  0  0  0
 16 21  1  0  0  0  0
 17 18  1  0  0  0  0
 17 25  1  0  0  0  0
 18 19  2  0  0  0  0
 18 24  1  0  0  0  0
 19 20  1  0  0  0  0
 19 23  1  0  0  0  0
 20 21  2  0  0  0  0
 20 22  1  0  0  0  0
 28 29  1  0  0  0  0
 28 35  1  0  0  0  0
 28 36  1  0  0  0  0
 29 30  1  0  0  0  0
 29 34  1  6  0  0  0
 30 31  1  0  0  0  0
 30 32  1  0  0  0  0
 30 33  1  0  0  0  0
 37 38  2  0  0  0  0
 37 42  1  0  0  0  0
 38 39  1  0  0  0  0
 38 48  1  0  0  0  0
 39 40  2  0  0  0  0
 39 47  1  0  0  0  0
 40 41  1  0  0  0  0
 40 46  1  0  0  0  0
 41 42  2  0  0  0  0
 41 45  1  0  0  0  0
 42 43  1  0  0  0  0
 43 44  2  0  0  0  0
M  END
>  <MODEL>
       1

$$$$
