tmp_first_model_18_6.pdb
 OpenBabel08282502533D

 43 45  0  0  0  0  0  0  0  0999 V2000
   -8.9370   -7.9590  -25.1510 C   0  0  0  0  0  0  0  0  0  0  0  0
   -9.2280   -6.4660  -25.3380 C   0  0  0  0  0  0  0  0  0  0  0  0
   -8.8230   -5.6120  -24.1260 C   0  0  0  0  0  0  0  0  0  0  0  0
   -7.3990   -5.8650  -23.6210 C   0  0  0  0  0  0  0  0  0  0  0  0
   -7.2060   -5.1320  -22.3060 C   0  0  0  0  0  0  0  0  0  0  0  0
   -7.5590   -3.7200  -22.3980 N   0  0  0  0  0  0  0  0  0  0  0  0
   -6.7480   -2.8500  -21.7080 C   0  0  0  0  0  0  0  0  0  0  0  0
   -5.5960   -3.1310  -21.4230 O   0  0  0  0  0  0  0  0  0  0  0  0
   -7.3810   -1.5260  -21.2660 C   0  0  0  0  0  0  0  0  0  0  0  0
   -6.5830   -0.8570  -20.1840 C   0  0  0  0  0  0  0  0  0  0  0  0
   -6.8990   -1.0660  -18.8690 C   0  0  0  0  0  0  0  0  0  0  0  0
   -6.2320   -0.5550  -17.8000 N   0  0  0  0  0  0  0  0  0  0  0  0
   -5.1970    0.2070  -18.0670 C   0  0  0  0  0  0  0  0  0  0  0  0
   -4.7450    0.5050  -19.3800 C   0  0  0  0  0  0  0  0  0  0  0  0
   -3.6240    1.3390  -19.6140 C   0  0  0  0  0  0  0  0  0  0  0  0
   -3.2150    1.6130  -20.8900 C   0  0  0  0  0  0  0  0  0  0  0  0
   -3.9080    1.0580  -21.9890 C   0  0  0  0  0  0  0  0  0  0  0  0
   -4.9910    0.2390  -21.7890 C   0  0  0  0  0  0  0  0  0  0  0  0
   -5.4460   -0.0500  -20.4770 C   0  0  0  0  0  0  0  0  0  0  0  0
   -5.5020   -0.1970  -22.6430 H   0  0  0  0  0  0  0  0  0  0  0  0
   -3.5820    1.2880  -23.0000 H   0  0  0  0  0  0  0  0  0  0  0  0
   -2.3600    2.2580  -21.0700 H   0  0  0  0  0  0  0  0  0  0  0  0
   -3.1060    1.7620  -18.7570 H   0  0  0  0  0  0  0  0  0  0  0  0
   -4.6500    0.6290  -17.2220 H   0  0  0  0  0  0  0  0  0  0  0  0
   -7.7560   -1.6890  -18.6090 H   0  0  0  0  0  0  0  0  0  0  0  0
   -7.5040   -0.8830  -22.1470 H   0  0  0  0  0  0  0  0  0  0  0  0
   -8.3850   -1.7570  -20.8820 H   0  0  0  0  0  0  0  0  0  0  0  0
   -8.9170   -3.4490  -22.8730 C   0  0  0  0  0  0  0  0  0  0  0  0
   -9.1410   -4.1080  -24.2420 C   0  0  0  0  0  0  0  0  0  0  0  0
   -8.5450   -3.5990  -25.0130 H   0  0  0  0  0  0  0  0  0  0  0  0
  -10.1950   -3.9660  -24.5200 H   0  0  0  0  0  0  0  0  0  0  0  0
   -9.6730   -3.8600  -22.1760 H   0  0  0  0  0  0  0  0  0  0  0  0
   -9.0840   -2.3680  -22.9160 H   0  0  0  0  0  0  0  0  0  0  0  0
   -7.8410   -5.6260  -21.5500 H   0  0  0  0  0  0  0  0  0  0  0  0
   -6.1800   -5.1750  -21.9420 H   0  0  0  0  0  0  0  0  0  0  0  0
   -6.6380   -5.6000  -24.3660 H   0  0  0  0  0  0  0  0  0  0  0  0
   -7.2670   -6.9320  -23.4080 H   0  0  0  0  0  0  0  0  0  0  0  0
   -9.4400   -5.9280  -23.2810 H   0  0  0  0  0  0  0  0  0  0  0  0
  -10.3080   -6.3430  -25.4730 H   0  0  0  0  0  0  0  0  0  0  0  0
   -8.7400   -6.0940  -26.2550 H   0  0  0  0  0  0  0  0  0  0  0  0
   -9.3790   -8.3570  -24.2260 H   0  0  0  0  0  0  0  0  0  0  0  0
   -7.8590   -8.1450  -25.0860 H   0  0  0  0  0  0  0  0  0  0  0  0
   -9.3350   -8.5450  -25.9880 H   0  0  0  0  0  0  0  0  0  0  0  0
  1  2  1  0  0  0  0
  1 41  1  0  0  0  0
  1 42  1  0  0  0  0
  1 43  1  0  0  0  0
  2  3  1  0  0  0  0
  2 39  1  0  0  0  0
  2 40  1  0  0  0  0
  3  4  1  0  0  0  0
  3 29  1  0  0  0  0
  3 38  1  0  0  0  0
  4  5  1  0  0  0  0
  4 36  1  0  0  0  0
  4 37  1  0  0  0  0
  5  6  1  0  0  0  0
  5 34  1  0  0  0  0
  5 35  1  0  0  0  0
  6  7  1  0  0  0  0
  6 28  1  0  0  0  0
  7  8  2  0  0  0  0
  7  9  1  0  0  0  0
  9 10  1  0  0  0  0
  9 26  1  0  0  0  0
  9 27  1  0  0  0  0
 10 11  2  0  0  0  0
 10 19  1  0  0  0  0
 11 12  1  0  0  0  0
 11 25  1  0  0  0  0
 12 13  2  0  0  0  0
 13 14  1  0  0  0  0
 13 24  1  0  0  0  0
 14 15  2  0  0  0  0
 14 19  1  0  0  0  0
 15 16  1  0  0  0  0
 15 23  1  0  0  0  0
 16 17  2  0  0  0  0
 16 22  1  0  0  0  0
 17 18  1  0  0  0  0
 17 21  1  0  0  0  0
 18 19  2  0  0  0  0
 18 20  1  0  0  0  0
 28 29  1  0  0  0  0
 28 32  1  0  0  0  0
 28 33  1  0  0  0  0
 29 30  1  0  0  0  0
 29 31  1  0  0  0  0
M  END
>  <MODEL>
       1

$$$$
