tmp_first_model_6_1.pdb
 OpenBabel08272519583D

 68 73  0  0  1  0  0  0  0  0999 V2000
   -7.2920    3.4960  -21.9930 C   0  0  0  0  0  0  0  0  0  0  0  0
   -8.2610    2.9190  -22.9050 N   0  0  0  0  0  0  0  0  0  0  0  0
   -7.8350    2.2500  -24.0050 C   0  0  0  0  0  0  0  0  0  0  0  0
   -6.6480    2.1120  -24.2730 O   0  0  0  0  0  0  0  0  0  0  0  0
   -8.9370    1.6880  -24.8970 C   0  0  0  0  0  0  0  0  0  0  0  0
   -9.5520    0.5160  -24.3040 N   0  0  0  0  0  0  0  0  0  0  0  0
   -8.7120   -0.6520  -24.0800 C   0  0  0  0  0  0  0  0  0  0  0  0
   -9.1060   -1.4300  -22.7960 C   0  0  2  0  0  0  0  0  0  0  0  0
   -8.6630   -0.6220  -21.5460 C   0  0  0  0  0  0  0  0  0  0  0  0
   -9.2170    0.3520  -21.0800 O   0  0  0  0  0  0  0  0  0  0  0  0
   -7.5100   -1.1850  -21.0510 N   0  0  0  0  0  0  0  0  0  0  0  0
   -6.7070   -0.6180  -20.0360 C   0  0  0  0  0  0  0  0  0  0  0  0
   -6.9410   -0.9420  -18.7280 C   0  0  0  0  0  0  0  0  0  0  0  0
   -6.1770   -0.5230  -17.6910 N   0  0  0  0  0  0  0  0  0  0  0  0
   -5.1430    0.2350  -17.9700 C   0  0  0  0  0  0  0  0  0  0  0  0
   -4.7640    0.6170  -19.2910 C   0  0  0  0  0  0  0  0  0  0  0  0
   -3.6270    1.4300  -19.5580 C   0  0  0  0  0  0  0  0  0  0  0  0
   -3.3020    1.7750  -20.8430 C   0  0  0  0  0  0  0  0  0  0  0  0
   -4.0960    1.3300  -21.9240 C   0  0  0  0  0  0  0  0  0  0  0  0
   -5.1950    0.5370  -21.6930 C   0  0  0  0  0  0  0  0  0  0  0  0
   -5.5630    0.1700  -20.3670 C   0  0  0  0  0  0  0  0  0  0  0  0
   -5.8090    0.2220  -22.5320 H   0  0  0  0  0  0  0  0  0  0  0  0
   -3.8560    1.6200  -22.9430 H   0  0  0  0  0  0  0  0  0  0  0  0
   -2.4380    2.4030  -21.0410 H   0  0  0  0  0  0  0  0  0  0  0  0
   -3.0290    1.7710  -18.7170 H   0  0  0  0  0  0  0  0  0  0  0  0
   -4.5370    0.5800  -17.1310 H   0  0  0  0  0  0  0  0  0  0  0  0
   -7.7870   -1.5810  -18.4840 H   0  0  0  0  0  0  0  0  0  0  0  0
   -7.0400   -2.3360  -21.7780 C   0  0  0  0  0  0  0  0  0  0  0  0
   -8.2570   -2.7360  -22.6230 C   0  0  2  0  0  0  0  0  0  0  0  0
   -7.8070   -3.4820  -23.8760 C   0  0  0  0  0  0  0  0  0  0  0  0
   -8.9310   -4.1180  -24.5200 N   0  0  0  0  0  0  0  0  0  0  0  0
   -8.7850   -4.6350  -25.8080 C   0  0  0  0  0  0  0  0  0  0  0  0
   -7.6360   -4.6550  -26.6450 C   0  0  0  0  0  0  0  0  0  0  0  0
   -7.8900   -5.2530  -27.8030 N   0  0  0  0  0  0  0  0  0  0  0  0
   -9.1650   -5.6320  -27.7260 N   0  0  0  0  0  0  0  0  0  0  0  0
   -9.8650   -6.0900  -28.8940 C   0  0  0  0  0  0  0  0  0  0  0  0
  -10.5830   -5.3230  -29.1920 H   0  0  0  0  0  0  0  0  0  0  0  0
  -10.3770   -7.0320  -28.6890 H   0  0  0  0  0  0  0  0  0  0  0  0
   -9.1420   -6.2220  -29.6960 H   0  0  0  0  0  0  0  0  0  0  0  0
   -9.7460   -5.2980  -26.5440 C   0  0  0  0  0  0  0  0  0  0  0  0
  -10.7690   -5.5760  -26.3160 H   0  0  0  0  0  0  0  0  0  0  0  0
   -6.6510   -4.2240  -26.4900 H   0  0  0  0  0  0  0  0  0  0  0  0
   -9.8280   -3.6810  -24.3320 H   0  0  0  0  0  0  0  0  0  0  0  0
   -7.2700   -2.7930  -24.5550 H   0  0  0  0  0  0  0  0  0  0  0  0
   -7.0640   -4.2380  -23.5920 H   0  0  0  0  0  0  0  0  0  0  0  0
   -8.8540   -3.4310  -22.0230 H   0  0  0  0  0  0  0  0  0  0  0  0
   -6.1610   -2.0930  -22.3980 H   0  0  0  0  0  0  0  0  0  0  0  0
   -6.7240   -3.1200  -21.0790 H   0  0  0  0  0  0  0  0  0  0  0  0
  -10.6230   -1.5870  -22.7770 C   0  0  0  0  0  0  0  0  0  0  0  0
  -11.2320   -2.4370  -21.8430 C   0  0  0  0  0  0  0  0  0  0  0  0
  -12.6100   -2.4110  -21.6750 C   0  0  0  0  0  0  0  0  0  0  0  0
  -13.3730   -3.2530  -20.3600 Cl  0  0  0  0  0  0  0  0  0  0  0  0
  -13.4420   -1.6360  -22.4810 C   0  0  0  0  0  0  0  0  0  0  0  0
  -12.8530   -0.7870  -23.3910 C   0  0  0  0  0  0  0  0  0  0  0  0
  -11.4630   -0.7230  -23.5020 C   0  0  0  0  0  0  0  0  0  0  0  0
  -10.9160    0.4360  -24.2720 C   0  0  0  0  0  0  0  0  0  0  0  0
  -11.6550    1.2770  -24.7710 O   0  0  0  0  0  0  0  0  0  0  0  0
  -13.4450   -0.0990  -23.9860 H   0  0  0  0  0  0  0  0  0  0  0  0
  -14.5210   -1.6930  -22.3590 H   0  0  0  0  0  0  0  0  0  0  0  0
  -10.6380   -3.1100  -21.2350 H   0  0  0  0  0  0  0  0  0  0  0  0
   -7.6830   -0.2910  -23.9920 H   0  0  0  0  0  0  0  0  0  0  0  0
   -8.7690   -1.3200  -24.9530 H   0  0  0  0  0  0  0  0  0  0  0  0
   -9.7350    2.4240  -25.0270 H   0  0  0  0  0  0  0  0  0  0  0  0
   -8.4910    1.4690  -25.8740 H   0  0  0  0  0  0  0  0  0  0  0  0
   -9.1930    2.7370  -22.5630 H   0  0  0  0  0  0  0  0  0  0  0  0
   -6.5750    4.0830  -22.5740 H   0  0  0  0  0  0  0  0  0  0  0  0
   -7.8060    4.1510  -21.2830 H   0  0  0  0  0  0  0  0  0  0  0  0
   -6.7450    2.7120  -21.4500 H   0  0  0  0  0  0  0  0  0  0  0  0
  1  2  1  0  0  0  0
  1 66  1  0  0  0  0
  1 67  1  0  0  0  0
  1 68  1  0  0  0  0
  2  3  1  0  0  0  0
  2 65  1  0  0  0  0
  3  4  2  0  0  0  0
  3  5  1  0  0  0  0
  5  6  1  0  0  0  0
  5 63  1  0  0  0  0
  5 64  1  0  0  0  0
  6  7  1  0  0  0  0
  6 56  1  0  0  0  0
  7  8  1  0  0  0  0
  7 61  1  0  0  0  0
  7 62  1  0  0  0  0
  8  9  1  1  0  0  0
  8 29  1  0  0  0  0
  8 49  1  0  0  0  0
  9 10  2  0  0  0  0
  9 11  1  0  0  0  0
 11 12  1  0  0  0  0
 11 28  1  0  0  0  0
 12 13  2  0  0  0  0
 12 21  1  0  0  0  0
 13 14  1  0  0  0  0
 13 27  1  0  0  0  0
 14 15  2  0  0  0  0
 15 16  1  0  0  0  0
 15 26  1  0  0  0  0
 16 17  2  0  0  0  0
 16 21  1  0  0  0  0
 17 18  1  0  0  0  0
 17 25  1  0  0  0  0
 18 19  2  0  0  0  0
 18 24  1  0  0  0  0
 19 20  1  0  0  0  0
 19 23  1  0  0  0  0
 20 21  2  0  0  0  0
 20 22  1  0  0  0  0
 28 29  1  0  0  0  0
 28 47  1  0  0  0  0
 28 48  1  0  0  0  0
 29 30  1  0  0  0  0
 29 46  1  1  0  0  0
 30 31  1  0  0  0  0
 30 44  1  0  0  0  0
 30 45  1  0  0  0  0
 31 32  1  0  0  0  0
 31 43  1  0  0  0  0
 32 33  1  0  0  0  0
 32 40  2  0  0  0  0
 33 34  2  0  0  0  0
 33 42  1  0  0  0  0
 34 35  1  0  0  0  0
 35 36  1  0  0  0  0
 35 40  1  0  0  0  0
 36 37  1  0  0  0  0
 36 38  1  0  0  0  0
 36 39  1  0  0  0  0
 40 41  1  0  0  0  0
 49 50  2  0  0  0  0
 49 55  1  0  0  0  0
 50 51  1  0  0  0  0
 50 60  1  0  0  0  0
 51 52  1  0  0  0  0
 51 53  2  0  0  0  0
 53 54  1  0  0  0  0
 53 59  1  0  0  0  0
 54 55  2  0  0  0  0
 54 58  1  0  0  0  0
 55 56  1  0  0  0  0
 56 57  2  0  0  0  0
M  END
>  <MODEL>
       1

$$$$
