tmp_first_model_15_41.pdb
 OpenBabel08282501153D

 67 71  0  0  1  0  0  0  0  0999 V2000
   -7.6560    2.8890  -21.9920 C   0  0  0  0  0  0  0  0  0  0  0  0
   -8.7710    2.4130  -22.7990 N   0  0  0  0  0  0  0  0  0  0  0  0
   -8.5060    1.6570  -23.9000 C   0  0  0  0  0  0  0  0  0  0  0  0
   -7.3650    1.4110  -24.2630 O   0  0  0  0  0  0  0  0  0  0  0  0
   -9.7240    1.0780  -24.6280 C   0  0  0  0  0  0  0  0  0  0  0  0
  -10.1590   -0.1250  -23.9470 N   0  0  0  0  0  0  0  0  0  0  0  0
   -9.2520   -1.2610  -23.9020 C   0  0  0  0  0  0  0  0  0  0  0  0
   -9.3020   -1.9820  -22.5260 C   0  0  2  0  0  0  0  0  0  0  0  0
   -8.7060   -1.0330  -21.4490 C   0  0  0  0  0  0  0  0  0  0  0  0
   -9.2390   -0.0620  -20.9480 O   0  0  0  0  0  0  0  0  0  0  0  0
   -7.4120   -1.4390  -21.1790 N   0  0  0  0  0  0  0  0  0  0  0  0
   -6.6300   -0.8320  -20.1630 C   0  0  0  0  0  0  0  0  0  0  0  0
   -6.9460   -1.0470  -18.8420 C   0  0  0  0  0  0  0  0  0  0  0  0
   -6.2390   -0.5530  -17.7990 N   0  0  0  0  0  0  0  0  0  0  0  0
   -5.1950    0.1900  -18.0760 C   0  0  0  0  0  0  0  0  0  0  0  0
   -4.7570    0.4960  -19.3940 C   0  0  0  0  0  0  0  0  0  0  0  0
   -3.6400    1.3390  -19.6350 C   0  0  0  0  0  0  0  0  0  0  0  0
   -3.2630    1.6410  -20.9140 C   0  0  0  0  0  0  0  0  0  0  0  0
   -3.9910    1.1290  -22.0110 C   0  0  0  0  0  0  0  0  0  0  0  0
   -5.0880    0.3200  -21.8040 C   0  0  0  0  0  0  0  0  0  0  0  0
   -5.4920   -0.0280  -20.4850 C   0  0  0  0  0  0  0  0  0  0  0  0
   -5.6810    0.0000  -22.6570 H   0  0  0  0  0  0  0  0  0  0  0  0
   -3.6950    1.3870  -23.0230 H   0  0  0  0  0  0  0  0  0  0  0  0
   -2.4120    2.2950  -21.0950 H   0  0  0  0  0  0  0  0  0  0  0  0
   -3.1150    1.7530  -18.7790 H   0  0  0  0  0  0  0  0  0  0  0  0
   -4.6390    0.6000  -17.2320 H   0  0  0  0  0  0  0  0  0  0  0  0
   -7.8060   -1.6630  -18.5870 H   0  0  0  0  0  0  0  0  0  0  0  0
   -6.9720   -2.5730  -21.9690 C   0  0  0  0  0  0  0  0  0  0  0  0
   -8.3060   -3.1750  -22.4510 C   0  0  2  0  0  0  0  0  0  0  0  0
   -8.2030   -3.9800  -23.7460 C   0  0  0  0  0  0  0  0  0  0  0  0
   -7.2700   -5.4830  -23.5230 S   0  0  0  0  0  0  0  0  0  0  0  0
   -5.8700   -5.1180  -23.3630 O   0  0  0  0  0  0  0  0  0  0  0  0
   -7.9660   -6.2890  -22.5300 O   0  0  0  0  0  0  0  0  0  0  0  0
   -7.4160   -6.2520  -24.9830 N   0  0  0  0  0  0  0  0  0  0  0  0
   -8.6670   -6.9500  -25.2500 C   0  0  0  0  0  0  0  0  0  0  0  0
   -9.4950   -6.2820  -25.5380 H   0  0  0  0  0  0  0  0  0  0  0  0
   -8.5000   -7.6520  -26.0720 H   0  0  0  0  0  0  0  0  0  0  0  0
   -8.9520   -7.5200  -24.3630 H   0  0  0  0  0  0  0  0  0  0  0  0
   -6.7490   -5.6510  -26.1330 C   0  0  0  0  0  0  0  0  0  0  0  0
   -7.3000   -4.8030  -26.5700 H   0  0  0  0  0  0  0  0  0  0  0  0
   -6.6480   -6.4170  -26.9070 H   0  0  0  0  0  0  0  0  0  0  0  0
   -5.7470   -5.3250  -25.8460 H   0  0  0  0  0  0  0  0  0  0  0  0
   -9.2060   -4.2620  -24.0850 H   0  0  0  0  0  0  0  0  0  0  0  0
   -7.7030   -3.3940  -24.5260 H   0  0  0  0  0  0  0  0  0  0  0  0
   -8.6410   -3.8430  -21.6510 H   0  0  0  0  0  0  0  0  0  0  0  0
   -6.3350   -2.2600  -22.8110 H   0  0  0  0  0  0  0  0  0  0  0  0
   -6.3930   -3.2850  -21.3770 H   0  0  0  0  0  0  0  0  0  0  0  0
  -10.7670   -2.3210  -22.2760 C   0  0  0  0  0  0  0  0  0  0  0  0
  -11.1940   -3.4640  -21.5850 C   0  0  0  0  0  0  0  0  0  0  0  0
  -12.5210   -3.5840  -21.2130 C   0  0  0  0  0  0  0  0  0  0  0  0
  -12.8890   -4.5690  -20.3770 F   0  0  0  0  0  0  0  0  0  0  0  0
  -13.5040   -2.6930  -21.6140 C   0  0  0  0  0  0  0  0  0  0  0  0
  -13.1060   -1.6090  -22.3620 C   0  0  0  0  0  0  0  0  0  0  0  0
  -11.7610   -1.4130  -22.6770 C   0  0  0  0  0  0  0  0  0  0  0  0
  -11.4270   -0.1820  -23.4540 C   0  0  0  0  0  0  0  0  0  0  0  0
  -12.2520    0.7090  -23.6310 O   0  0  0  0  0  0  0  0  0  0  0  0
  -13.8270   -0.8890  -22.7280 H   0  0  0  0  0  0  0  0  0  0  0  0
  -14.5360   -2.8600  -21.3210 H   0  0  0  0  0  0  0  0  0  0  0  0
  -10.5090   -4.2310  -21.2410 H   0  0  0  0  0  0  0  0  0  0  0  0
   -9.5120   -1.9650  -24.7060 H   0  0  0  0  0  0  0  0  0  0  0  0
   -8.2470   -0.8760  -24.0910 H   0  0  0  0  0  0  0  0  0  0  0  0
   -9.4720    0.8590  -25.6740 H   0  0  0  0  0  0  0  0  0  0  0  0
  -10.5720    1.7630  -24.6220 H   0  0  0  0  0  0  0  0  0  0  0  0
   -9.6550    2.2490  -22.3400 H   0  0  0  0  0  0  0  0  0  0  0  0
   -8.0330    3.5370  -21.2040 H   0  0  0  0  0  0  0  0  0  0  0  0
   -7.1050    2.0500  -21.5360 H   0  0  0  0  0  0  0  0  0  0  0  0
   -6.9890    3.5080  -22.6060 H   0  0  0  0  0  0  0  0  0  0  0  0
  1  2  1  0  0  0  0
  1 65  1  0  0  0  0
  1 66  1  0  0  0  0
  1 67  1  0  0  0  0
  2  3  1  0  0  0  0
  2 64  1  0  0  0  0
  3  4  2  0  0  0  0
  3  5  1  0  0  0  0
  5  6  1  0  0  0  0
  5 62  1  0  0  0  0
  5 63  1  0  0  0  0
  6  7  1  0  0  0  0
  6 55  1  0  0  0  0
  7  8  1  0  0  0  0
  7 60  1  0  0  0  0
  7 61  1  0  0  0  0
  8  9  1  1  0  0  0
  8 29  1  0  0  0  0
  8 48  1  0  0  0  0
  9 10  2  0  0  0  0
  9 11  1  0  0  0  0
 11 12  1  0  0  0  0
 11 28  1  0  0  0  0
 12 13  2  0  0  0  0
 12 21  1  0  0  0  0
 13 14  1  0  0  0  0
 13 27  1  0  0  0  0
 14 15  2  0  0  0  0
 15 16  1  0  0  0  0
 15 26  1  0  0  0  0
 16 17  2  0  0  0  0
 16 21  1  0  0  0  0
 17 18  1  0  0  0  0
 17 25  1  0  0  0  0
 18 19  2  0  0  0  0
 18 24  1  0  0  0  0
 19 20  1  0  0  0  0
 19 23  1  0  0  0  0
 20 21  2  0  0  0  0
 20 22  1  0  0  0  0
 28 29  1  0  0  0  0
 28 46  1  0  0  0  0
 28 47  1  0  0  0  0
 29 30  1  0  0  0  0
 29 45  1  1  0  0  0
 30 31  1  0  0  0  0
 30 43  1  0  0  0  0
 30 44  1  0  0  0  0
 31 32  2  0  0  0  0
 31 33  2  0  0  0  0
 31 34  1  0  0  0  0
 34 35  1  0  0  0  0
 34 39  1  0  0  0  0
 35 36  1  0  0  0  0
 35 37  1  0  0  0  0
 35 38  1  0  0  0  0
 39 40  1  0  0  0  0
 39 41  1  0  0  0  0
 39 42  1  0  0  0  0
 48 49  2  0  0  0  0
 48 54  1  0  0  0  0
 49 50  1  0  0  0  0
 49 59  1  0  0  0  0
 50 51  1  0  0  0  0
 50 52  2  0  0  0  0
 52 53  1  0  0  0  0
 52 58  1  0  0  0  0
 53 54  2  0  0  0  0
 53 57  1  0  0  0  0
 54 55  1  0  0  0  0
 55 56  2  0  0  0  0
M  END
>  <MODEL>
       1

$$$$
