tmp_first_model_15_35.pdb
 OpenBabel08282501153D

 40 42  0  0  0  0  0  0  0  0999 V2000
   -9.2920   -1.8570  -22.5410 O   0  0  0  0  0  0  0  0  0  0  0  0
   -8.4210   -1.0470  -22.2440 C   0  0  0  0  0  0  0  0  0  0  0  0
   -7.0920   -1.5560  -21.7040 C   0  0  0  0  0  0  0  0  0  0  0  0
   -6.4590   -0.8380  -20.5150 C   0  0  0  0  0  0  0  0  0  0  0  0
   -7.0020   -0.9650  -19.2560 C   0  0  0  0  0  0  0  0  0  0  0  0
   -6.4680   -0.4660  -18.1080 N   0  0  0  0  0  0  0  0  0  0  0  0
   -5.3610    0.2290  -18.2180 C   0  0  0  0  0  0  0  0  0  0  0  0
   -4.7050    0.4980  -19.4520 C   0  0  0  0  0  0  0  0  0  0  0  0
   -3.5770    1.3580  -19.5420 C   0  0  0  0  0  0  0  0  0  0  0  0
   -3.0430    1.6820  -20.7600 C   0  0  0  0  0  0  0  0  0  0  0  0
   -3.5740    1.1150  -21.9350 C   0  0  0  0  0  0  0  0  0  0  0  0
   -4.6230    0.2270  -21.8650 C   0  0  0  0  0  0  0  0  0  0  0  0
   -5.2560   -0.0670  -20.6310 C   0  0  0  0  0  0  0  0  0  0  0  0
   -4.9980   -0.2090  -22.7870 H   0  0  0  0  0  0  0  0  0  0  0  0
   -3.1830    1.4070  -22.9030 H   0  0  0  0  0  0  0  0  0  0  0  0
   -2.2350    2.4010  -20.8340 H   0  0  0  0  0  0  0  0  0  0  0  0
   -3.1870    1.7970  -18.6270 H   0  0  0  0  0  0  0  0  0  0  0  0
   -4.9350    0.6400  -17.3020 H   0  0  0  0  0  0  0  0  0  0  0  0
   -7.9340   -1.5190  -19.1210 H   0  0  0  0  0  0  0  0  0  0  0  0
   -7.3050   -2.5960  -21.4350 H   0  0  0  0  0  0  0  0  0  0  0  0
   -6.3930   -1.5770  -22.5390 H   0  0  0  0  0  0  0  0  0  0  0  0
   -8.5190    0.3130  -22.3200 N   0  0  0  0  0  0  0  0  0  0  0  0
   -9.7200    0.9380  -21.6920 C   0  0  0  0  0  0  0  0  0  0  0  0
   -9.7090    1.0850  -21.8840 C   0  0  0  0  0  0  0  0  0  0  0  0
   -9.3220    2.8120  -23.5790 C   0  0  0  0  0  0  0  0  0  0  0  0
   -8.5190    5.3160  -22.6390 C   0  0  0  0  0  0  0  0  0  0  0  0
   -7.8660    5.5520  -23.7650 F   0  0  0  0  0  0  0  0  0  0  0  0
   -9.3200    6.3040  -22.3190 F   0  0  0  0  0  0  0  0  0  0  0  0
   -7.7080    4.9920  -21.6550 F   0  0  0  0  0  0  0  0  0  0  0  0
   -8.0780    2.3760  -23.6870 C   0  0  0  0  0  0  0  0  0  0  0  0
   -7.5220    1.1170  -23.0830 C   0  0  0  0  0  0  0  0  0  0  0  0
   -7.0590    0.4960  -23.8470 H   0  0  0  0  0  0  0  0  0  0  0  0
   -6.7340    1.4200  -22.3880 H   0  0  0  0  0  0  0  0  0  0  0  0
  -10.1630    2.1310  -23.6160 H   0  0  0  0  0  0  0  0  0  0  0  0
   -7.3170    3.0300  -24.1060 H   0  0  0  0  0  0  0  0  0  0  0  0
   -9.5100    3.8690  -23.3710 H   0  0  0  0  0  0  0  0  0  0  0  0
  -10.6350    1.8350  -21.6580 H   0  0  0  0  0  0  0  0  0  0  0  0
   -9.0150    1.9670  -21.4240 H   0  0  0  0  0  0  0  0  0  0  0  0
   -9.8780    0.1800  -20.3210 H   0  0  0  0  0  0  0  0  0  0  0  0
  -10.4750    0.4950  -22.6300 H   0  0  0  0  0  0  0  0  0  0  0  0
  1  2  2  0  0  0  0
  2  3  1  0  0  0  0
  2 22  1  0  0  0  0
  3  4  1  0  0  0  0
  3 20  1  0  0  0  0
  3 21  1  0  0  0  0
  4  5  2  0  0  0  0
  4 13  1  0  0  0  0
  5  6  1  0  0  0  0
  5 19  1  0  0  0  0
  6  7  2  0  0  0  0
  7  8  1  0  0  0  0
  7 18  1  0  0  0  0
  8  9  2  0  0  0  0
  8 13  1  0  0  0  0
  9 10  1  0  0  0  0
  9 17  1  0  0  0  0
 10 11  2  0  0  0  0
 10 16  1  0  0  0  0
 11 12  1  0  0  0  0
 11 15  1  0  0  0  0
 12 13  2  0  0  0  0
 12 14  1  0  0  0  0
 22 23  1  0  0  0  0
 22 31  1  0  0  0  0
 23 24  1  0  0  0  0
 23 39  1  0  0  0  0
 23 40  1  0  0  0  0
 24 25  1  0  0  0  0
 24 37  1  0  0  0  0
 24 38  1  0  0  0  0
 25 26  1  0  0  0  0
 25 30  1  0  0  0  0
 25 36  1  0  0  0  0
 26 27  1  0  0  0  0
 26 28  1  0  0  0  0
 26 29  1  0  0  0  0
 30 31  1  0  0  0  0
 30 34  1  0  0  0  0
 30 35  1  0  0  0  0
 31 32  1  0  0  0  0
 31 33  1  0  0  0  0
M  END
>  <MODEL>
       1

$$$$
