tmp_first_model_6_40.pdb
 OpenBabel08272519583D

 40 42  0  0  0  0  0  0  0  0999 V2000
  -10.2680   -6.4030  -23.5580 C   0  0  0  0  0  0  0  0  0  0  0  0
   -8.9250   -5.7140  -23.8400 C   0  0  0  0  0  0  0  0  0  0  0  0
   -7.9970   -5.9650  -22.6410 C   0  0  0  0  0  0  0  0  0  0  0  0
   -6.8490   -4.9740  -22.5860 C   0  0  0  0  0  0  0  0  0  0  0  0
   -7.4220   -3.6510  -22.3530 N   0  0  0  0  0  0  0  0  0  0  0  0
   -6.6700   -2.7570  -21.6590 C   0  0  0  0  0  0  0  0  0  0  0  0
   -5.5010   -2.9760  -21.3770 O   0  0  0  0  0  0  0  0  0  0  0  0
   -7.3810   -1.4700  -21.2310 C   0  0  0  0  0  0  0  0  0  0  0  0
   -6.6140   -0.7890  -20.1520 C   0  0  0  0  0  0  0  0  0  0  0  0
   -6.9030   -1.0640  -18.8450 C   0  0  0  0  0  0  0  0  0  0  0  0
   -6.2280   -0.5750  -17.7760 N   0  0  0  0  0  0  0  0  0  0  0  0
   -5.2000    0.1990  -18.0360 C   0  0  0  0  0  0  0  0  0  0  0  0
   -4.7660    0.5430  -19.3450 C   0  0  0  0  0  0  0  0  0  0  0  0
   -3.6440    1.3740  -19.5770 C   0  0  0  0  0  0  0  0  0  0  0  0
   -3.2830    1.7140  -20.8520 C   0  0  0  0  0  0  0  0  0  0  0  0
   -4.0250    1.2340  -21.9510 C   0  0  0  0  0  0  0  0  0  0  0  0
   -5.0970    0.3990  -21.7570 C   0  0  0  0  0  0  0  0  0  0  0  0
   -5.5000    0.0430  -20.4440 C   0  0  0  0  0  0  0  0  0  0  0  0
   -5.6150   -0.0130  -22.6170 H   0  0  0  0  0  0  0  0  0  0  0  0
   -3.7300    1.5110  -22.9580 H   0  0  0  0  0  0  0  0  0  0  0  0
   -2.4320    2.3620  -21.0260 H   0  0  0  0  0  0  0  0  0  0  0  0
   -3.0930    1.7540  -18.7220 H   0  0  0  0  0  0  0  0  0  0  0  0
   -4.6510    0.5870  -17.1790 H   0  0  0  0  0  0  0  0  0  0  0  0
   -7.7380   -1.7250  -18.6120 H   0  0  0  0  0  0  0  0  0  0  0  0
   -8.3860   -1.7250  -20.8660 H   0  0  0  0  0  0  0  0  0  0  0  0
   -7.4990   -0.8230  -22.1080 H   0  0  0  0  0  0  0  0  0  0  0  0
   -8.7820   -3.3800  -22.8100 C   0  0  0  0  0  0  0  0  0  0  0  0
   -9.0940   -4.1940  -24.0610 C   0  0  0  0  0  0  0  0  0  0  0  0
   -8.4710   -3.8220  -24.8860 H   0  0  0  0  0  0  0  0  0  0  0  0
  -10.1220   -3.9950  -24.3630 H   0  0  0  0  0  0  0  0  0  0  0  0
   -8.8920   -2.3180  -23.0460 H   0  0  0  0  0  0  0  0  0  0  0  0
   -9.5250   -3.6020  -22.0270 H   0  0  0  0  0  0  0  0  0  0  0  0
   -6.1720   -5.2230  -21.7640 H   0  0  0  0  0  0  0  0  0  0  0  0
   -6.2330   -4.9670  -23.4990 H   0  0  0  0  0  0  0  0  0  0  0  0
   -7.6140   -6.9890  -22.6590 H   0  0  0  0  0  0  0  0  0  0  0  0
   -8.5650   -5.8450  -21.7010 H   0  0  0  0  0  0  0  0  0  0  0  0
   -8.4540   -6.1250  -24.7510 H   0  0  0  0  0  0  0  0  0  0  0  0
  -10.9670   -6.2960  -24.3980 H   0  0  0  0  0  0  0  0  0  0  0  0
  -10.7100   -5.9350  -22.6580 H   0  0  0  0  0  0  0  0  0  0  0  0
  -10.1350   -7.4780  -23.3580 H   0  0  0  0  0  0  0  0  0  0  0  0
  1  2  1  0  0  0  0
  1 38  1  0  0  0  0
  1 39  1  0  0  0  0
  1 40  1  0  0  0  0
  2  3  1  0  0  0  0
  2 28  1  0  0  0  0
  2 37  1  0  0  0  0
  3  4  1  0  0  0  0
  3 35  1  0  0  0  0
  3 36  1  0  0  0  0
  4  5  1  0  0  0  0
  4 33  1  0  0  0  0
  4 34  1  0  0  0  0
  5  6  1  0  0  0  0
  5 27  1  0  0  0  0
  6  7  2  0  0  0  0
  6  8  1  0  0  0  0
  8  9  1  0  0  0  0
  8 25  1  0  0  0  0
  8 26  1  0  0  0  0
  9 10  2  0  0  0  0
  9 18  1  0  0  0  0
 10 11  1  0  0  0  0
 10 24  1  0  0  0  0
 11 12  2  0  0  0  0
 12 13  1  0  0  0  0
 12 23  1  0  0  0  0
 13 14  2  0  0  0  0
 13 18  1  0  0  0  0
 14 15  1  0  0  0  0
 14 22  1  0  0  0  0
 15 16  2  0  0  0  0
 15 21  1  0  0  0  0
 16 17  1  0  0  0  0
 16 20  1  0  0  0  0
 17 18  2  0  0  0  0
 17 19  1  0  0  0  0
 27 28  1  0  0  0  0
 27 31  1  0  0  0  0
 27 32  1  0  0  0  0
 28 29  1  0  0  0  0
 28 30  1  0  0  0  0
M  END
>  <MODEL>
       1

$$$$
