tmp_first_model_8_57.pdb
 OpenBabel08272521063D

 59 63  0  0  1  0  0  0  0  0999 V2000
  -14.5200   -1.2280  -23.5510 C   0  0  0  0  0  0  0  0  0  0  0  0
  -13.8000   -2.4210  -23.1550 N   0  0  0  0  0  0  0  0  0  0  0  0
  -13.4740   -2.6020  -21.8470 C   0  0  0  0  0  0  0  0  0  0  0  0
  -13.9380   -1.9220  -20.9480 O   0  0  0  0  0  0  0  0  0  0  0  0
  -12.5560   -3.7960  -21.5820 C   0  0  0  0  0  0  0  0  0  0  0  0
  -11.2320   -3.7280  -22.1930 N   0  0  0  0  0  0  0  0  0  0  0  0
  -10.0820   -3.2850  -21.4110 C   0  0  0  0  0  0  0  0  0  0  0  0
   -8.8450   -2.9450  -22.2880 C   0  0  2  0  0  0  0  0  0  0  0  0
   -7.6250   -2.7320  -21.3720 C   0  0  0  0  0  0  0  0  0  0  0  0
   -6.9460   -3.5980  -20.8550 O   0  0  0  0  0  0  0  0  0  0  0  0
   -7.3880   -1.3790  -21.2390 N   0  0  0  0  0  0  0  0  0  0  0  0
   -6.5930   -0.8600  -20.1860 C   0  0  0  0  0  0  0  0  0  0  0  0
   -6.9000   -1.1150  -18.8730 C   0  0  0  0  0  0  0  0  0  0  0  0
   -6.2270   -0.5940  -17.8160 N   0  0  0  0  0  0  0  0  0  0  0  0
   -5.2110    0.1930  -18.0760 C   0  0  0  0  0  0  0  0  0  0  0  0
   -4.7740    0.5230  -19.3900 C   0  0  0  0  0  0  0  0  0  0  0  0
   -3.6510    1.3590  -19.6220 C   0  0  0  0  0  0  0  0  0  0  0  0
   -3.2740    1.6670  -20.8990 C   0  0  0  0  0  0  0  0  0  0  0  0
   -4.0010    1.1610  -22.0000 C   0  0  0  0  0  0  0  0  0  0  0  0
   -5.0710    0.3260  -21.8030 C   0  0  0  0  0  0  0  0  0  0  0  0
   -5.4880   -0.0040  -20.4870 C   0  0  0  0  0  0  0  0  0  0  0  0
   -5.5930   -0.0990  -22.6530 H   0  0  0  0  0  0  0  0  0  0  0  0
   -3.6870    1.4150  -23.0080 H   0  0  0  0  0  0  0  0  0  0  0  0
   -2.4100    2.3000  -21.0780 H   0  0  0  0  0  0  0  0  0  0  0  0
   -3.1120    1.7490  -18.7630 H   0  0  0  0  0  0  0  0  0  0  0  0
   -4.6700    0.6110  -17.2260 H   0  0  0  0  0  0  0  0  0  0  0  0
   -7.7380   -1.7630  -18.6260 H   0  0  0  0  0  0  0  0  0  0  0  0
   -8.3880   -0.5690  -21.9170 C   0  0  0  0  0  0  0  0  0  0  0  0
   -9.0000   -1.5150  -22.9790 C   0  0  0  0  0  0  0  0  0  0  0  0
  -10.4490   -1.1120  -23.2680 C   0  0  0  0  0  0  0  0  0  0  0  0
  -11.0520   -1.0830  -22.3550 H   0  0  0  0  0  0  0  0  0  0  0  0
  -10.9050   -1.8320  -23.9520 H   0  0  0  0  0  0  0  0  0  0  0  0
  -10.4870   -0.1220  -23.7290 H   0  0  0  0  0  0  0  0  0  0  0  0
   -8.2210   -1.4490  -24.3030 C   0  0  0  0  0  0  0  0  0  0  0  0
   -8.6400   -2.1750  -25.0080 H   0  0  0  0  0  0  0  0  0  0  0  0
   -8.3140   -0.4510  -24.7430 H   0  0  0  0  0  0  0  0  0  0  0  0
   -7.1570   -1.6860  -24.1760 H   0  0  0  0  0  0  0  0  0  0  0  0
   -7.9360    0.3260  -22.3570 H   0  0  0  0  0  0  0  0  0  0  0  0
   -9.1570   -0.2320  -21.2010 H   0  0  0  0  0  0  0  0  0  0  0  0
   -8.6050   -4.1110  -23.2220 C   0  0  0  0  0  0  0  0  0  0  0  0
   -7.3180   -4.4630  -23.6590 C   0  0  0  0  0  0  0  0  0  0  0  0
   -7.1610   -5.4600  -24.6070 C   0  0  0  0  0  0  0  0  0  0  0  0
   -5.5700   -5.8080  -25.2190 Cl  0  0  0  0  0  0  0  0  0  0  0  0
   -8.2480   -6.1710  -25.1140 C   0  0  0  0  0  0  0  0  0  0  0  0
   -9.5120   -5.8420  -24.6590 C   0  0  0  0  0  0  0  0  0  0  0  0
   -9.6920   -4.8130  -23.7390 C   0  0  0  0  0  0  0  0  0  0  0  0
  -11.0780   -4.4680  -23.3300 C   0  0  0  0  0  0  0  0  0  0  0  0
  -12.0500   -4.8350  -23.9760 O   0  0  0  0  0  0  0  0  0  0  0  0
  -10.3850   -6.3860  -24.9980 H   0  0  0  0  0  0  0  0  0  0  0  0
   -8.0980   -6.9530  -25.8540 H   0  0  0  0  0  0  0  0  0  0  0  0
   -6.4440   -3.9530  -23.2670 H   0  0  0  0  0  0  0  0  0  0  0  0
  -10.3580   -2.3820  -20.8560 H   0  0  0  0  0  0  0  0  0  0  0  0
   -9.8080   -4.0640  -20.6940 H   0  0  0  0  0  0  0  0  0  0  0  0
  -12.5010   -3.9580  -20.5020 H   0  0  0  0  0  0  0  0  0  0  0  0
  -13.0710   -4.6380  -22.0590 H   0  0  0  0  0  0  0  0  0  0  0  0
  -13.5340   -3.1270  -23.8230 H   0  0  0  0  0  0  0  0  0  0  0  0
  -13.8760   -0.3430  -23.5270 H   0  0  0  0  0  0  0  0  0  0  0  0
  -14.9130   -1.3580  -24.5580 H   0  0  0  0  0  0  0  0  0  0  0  0
  -15.3380   -1.0520  -22.8530 H   0  0  0  0  0  0  0  0  0  0  0  0
  1  2  1  0  0  0  0
  1 57  1  0  0  0  0
  1 58  1  0  0  0  0
  1 59  1  0  0  0  0
  2  3  1  0  0  0  0
  2 56  1  0  0  0  0
  3  4  2  0  0  0  0
  3  5  1  0  0  0  0
  5  6  1  0  0  0  0
  5 54  1  0  0  0  0
  5 55  1  0  0  0  0
  6  7  1  0  0  0  0
  6 47  1  0  0  0  0
  7  8  1  0  0  0  0
  7 52  1  0  0  0  0
  7 53  1  0  0  0  0
  8  9  1  1  0  0  0
  8 29  1  0  0  0  0
  8 40  1  0  0  0  0
  9 10  2  0  0  0  0
  9 11  1  0  0  0  0
 11 12  1  0  0  0  0
 11 28  1  0  0  0  0
 12 13  2  0  0  0  0
 12 21  1  0  0  0  0
 13 14  1  0  0  0  0
 13 27  1  0  0  0  0
 14 15  2  0  0  0  0
 15 16  1  0  0  0  0
 15 26  1  0  0  0  0
 16 17  2  0  0  0  0
 16 21  1  0  0  0  0
 17 18  1  0  0  0  0
 17 25  1  0  0  0  0
 18 19  2  0  0  0  0
 18 24  1  0  0  0  0
 19 20  1  0  0  0  0
 19 23  1  0  0  0  0
 20 21  2  0  0  0  0
 20 22  1  0  0  0  0
 28 29  1  0  0  0  0
 28 38  1  0  0  0  0
 28 39  1  0  0  0  0
 29 30  1  0  0  0  0
 29 34  1  0  0  0  0
 30 31  1  0  0  0  0
 30 32  1  0  0  0  0
 30 33  1  0  0  0  0
 34 35  1  0  0  0  0
 34 36  1  0  0  0  0
 34 37  1  0  0  0  0
 40 41  2  0  0  0  0
 40 46  1  0  0  0  0
 41 42  1  0  0  0  0
 41 51  1  0  0  0  0
 42 43  1  0  0  0  0
 42 44  2  0  0  0  0
 44 45  1  0  0  0  0
 44 50  1  0  0  0  0
 45 46  2  0  0  0  0
 45 49  1  0  0  0  0
 46 47  1  0  0  0  0
 47 48  2  0  0  0  0
M  END
>  <MODEL>
       1

$$$$
