tmp_first_model_19_46.pdb
 OpenBabel08282503233D

 50 54  0  0  1  0  0  0  0  0999 V2000
  -10.5370   -2.5710  -22.6790 C   0  0  0  0  0  0  0  0  0  0  0  0
   -9.1130   -1.9920  -22.6800 C   0  0  1  0  0  0  0  0  0  0  0  0
   -8.7760   -1.3250  -21.3290 C   0  0  0  0  0  0  0  0  0  0  0  0
   -7.3320   -1.4430  -21.2300 N   0  0  0  0  0  0  0  0  0  0  0  0
   -6.5700   -0.8500  -20.1950 C   0  0  0  0  0  0  0  0  0  0  0  0
   -6.8930   -1.0600  -18.8790 C   0  0  0  0  0  0  0  0  0  0  0  0
   -6.2110   -0.5500  -17.8290 N   0  0  0  0  0  0  0  0  0  0  0  0
   -5.1730    0.2080  -18.0880 C   0  0  0  0  0  0  0  0  0  0  0  0
   -4.7280    0.5220  -19.4040 C   0  0  0  0  0  0  0  0  0  0  0  0
   -3.5990    1.3550  -19.6370 C   0  0  0  0  0  0  0  0  0  0  0  0
   -3.2160    1.6610  -20.9140 C   0  0  0  0  0  0  0  0  0  0  0  0
   -3.9480    1.1580  -22.0120 C   0  0  0  0  0  0  0  0  0  0  0  0
   -5.0380    0.3510  -21.8100 C   0  0  0  0  0  0  0  0  0  0  0  0
   -5.4470   -0.0080  -20.4950 C   0  0  0  0  0  0  0  0  0  0  0  0
   -5.5990   -0.0370  -22.6540 H   0  0  0  0  0  0  0  0  0  0  0  0
   -3.6420    1.4090  -23.0240 H   0  0  0  0  0  0  0  0  0  0  0  0
   -2.3620    2.3110  -21.0870 H   0  0  0  0  0  0  0  0  0  0  0  0
   -3.0730    1.7570  -18.7760 H   0  0  0  0  0  0  0  0  0  0  0  0
   -4.6330    0.6100  -17.2330 H   0  0  0  0  0  0  0  0  0  0  0  0
   -7.7450   -1.6830  -18.6070 H   0  0  0  0  0  0  0  0  0  0  0  0
   -6.8090   -2.4280  -22.0410 C   0  0  0  0  0  0  0  0  0  0  0  0
   -5.6530   -2.7910  -22.0120 O   0  0  0  0  0  0  0  0  0  0  0  0
   -7.9400   -2.9850  -22.9550 C   0  0  1  0  0  0  0  0  0  0  0  0
   -8.3190   -4.4130  -22.5040 C   0  0  0  0  0  0  0  0  0  0  0  0
   -7.2910   -5.3740  -22.8130 N   0  0  0  0  0  0  0  0  0  0  0  0
   -6.8490   -6.3430  -21.8330 C   0  0  0  0  0  0  0  0  0  0  0  0
   -5.4600   -6.0570  -21.4540 C   0  0  0  0  0  0  0  0  0  0  0  0
   -4.3560   -5.8190  -21.2350 N   0  0  0  0  0  0  0  0  0  0  0  0
   -6.8860   -7.3530  -22.2560 H   0  0  0  0  0  0  0  0  0  0  0  0
   -7.4930   -6.2850  -20.9500 H   0  0  0  0  0  0  0  0  0  0  0  0
   -6.7640   -5.4680  -24.0730 C   0  0  0  0  0  0  0  0  0  0  0  0
   -6.1660   -6.4690  -24.4410 O   0  0  0  0  0  0  0  0  0  0  0  0
   -6.9360   -4.2450  -24.9220 C   0  0  0  0  0  0  0  0  0  0  0  0
   -6.4990   -4.3060  -26.2420 C   0  0  0  0  0  0  0  0  0  0  0  0
   -6.5030   -3.1750  -27.0290 C   0  0  0  0  0  0  0  0  0  0  0  0
   -6.9270   -1.9830  -26.4590 C   0  0  0  0  0  0  0  0  0  0  0  0
   -6.8840   -0.8670  -27.2030 F   0  0  0  0  0  0  0  0  0  0  0  0
   -7.3880   -1.8960  -25.1660 C   0  0  0  0  0  0  0  0  0  0  0  0
   -7.4500   -3.0560  -24.3850 C   0  0  0  0  0  0  0  0  0  0  0  0
   -7.6670   -0.9170  -24.7910 H   0  0  0  0  0  0  0  0  0  0  0  0
   -6.1710   -3.1820  -28.0580 H   0  0  0  0  0  0  0  0  0  0  0  0
   -6.1450   -5.2630  -26.6080 H   0  0  0  0  0  0  0  0  0  0  0  0
   -8.4360   -4.3780  -21.4240 H   0  0  0  0  0  0  0  0  0  0  0  0
   -9.2690   -4.7130  -22.9820 H   0  0  0  0  0  0  0  0  0  0  0  0
   -9.0710   -0.2700  -21.2910 H   0  0  0  0  0  0  0  0  0  0  0  0
   -9.2860   -1.8550  -20.5090 H   0  0  0  0  0  0  0  0  0  0  0  0
   -9.0470   -1.2280  -23.4590 H   0  0  0  0  0  0  0  0  0  0  0  0
  -11.2870   -1.7790  -22.5470 H   0  0  0  0  0  0  0  0  0  0  0  0
  -10.7690   -3.0970  -23.6130 H   0  0  0  0  0  0  0  0  0  0  0  0
  -10.6770   -3.2880  -21.8570 H   0  0  0  0  0  0  0  0  0  0  0  0
  1  2  1  0  0  0  0
  1 48  1  0  0  0  0
  1 49  1  0  0  0  0
  1 50  1  0  0  0  0
  2  3  1  0  0  0  0
  2 23  1  0  0  0  0
  2 47  1  6  0  0  0
  3  4  1  0  0  0  0
  3 45  1  0  0  0  0
  3 46  1  0  0  0  0
  4  5  1  0  0  0  0
  4 21  1  0  0  0  0
  5  6  2  0  0  0  0
  5 14  1  0  0  0  0
  6  7  1  0  0  0  0
  6 20  1  0  0  0  0
  7  8  2  0  0  0  0
  8  9  1  0  0  0  0
  8 19  1  0  0  0  0
  9 10  2  0  0  0  0
  9 14  1  0  0  0  0
 10 11  1  0  0  0  0
 10 18  1  0  0  0  0
 11 12  2  0  0  0  0
 11 17  1  0  0  0  0
 12 13  1  0  0  0  0
 12 16  1  0  0  0  0
 13 14  2  0  0  0  0
 13 15  1  0  0  0  0
 21 22  2  0  0  0  0
 23 21  1  1  0  0  0
 23 24  1  0  0  0  0
 23 39  1  0  0  0  0
 24 25  1  0  0  0  0
 24 43  1  0  0  0  0
 24 44  1  0  0  0  0
 25 26  1  0  0  0  0
 25 31  1  0  0  0  0
 26 27  1  0  0  0  0
 26 29  1  0  0  0  0
 26 30  1  0  0  0  0
 27 28  3  0  0  0  0
 31 32  2  0  0  0  0
 31 33  1  0  0  0  0
 33 34  2  0  0  0  0
 33 39  1  0  0  0  0
 34 35  1  0  0  0  0
 34 42  1  0  0  0  0
 35 36  2  0  0  0  0
 35 41  1  0  0  0  0
 36 37  1  0  0  0  0
 36 38  1  0  0  0  0
 38 39  2  0  0  0  0
 38 40  1  0  0  0  0
M  END
>  <MODEL>
       1

$$$$
