tmp_first_model_9_40.pdb
 OpenBabel08272521403D

 40 42  0  0  0  0  0  0  0  0999 V2000
   -9.3050   -6.6300  -25.1080 C   0  0  0  0  0  0  0  0  0  0  0  0
   -8.9990   -5.8140  -23.8550 C   0  0  0  0  0  0  0  0  0  0  0  0
   -7.5580   -5.9910  -23.4020 C   0  0  0  0  0  0  0  0  0  0  0  0
   -7.2580   -5.1700  -22.1600 C   0  0  0  0  0  0  0  0  0  0  0  0
   -7.6220   -3.7630  -22.3160 N   0  0  0  0  0  0  0  0  0  0  0  0
   -6.7870   -2.8020  -21.7710 C   0  0  0  0  0  0  0  0  0  0  0  0
   -5.5890   -2.9890  -21.6720 O   0  0  0  0  0  0  0  0  0  0  0  0
   -7.4210   -1.4840  -21.2560 C   0  0  0  0  0  0  0  0  0  0  0  0
   -6.5810   -0.8260  -20.1830 C   0  0  0  0  0  0  0  0  0  0  0  0
   -6.8730   -1.0420  -18.8620 C   0  0  0  0  0  0  0  0  0  0  0  0
   -6.1820   -0.5420  -17.8060 N   0  0  0  0  0  0  0  0  0  0  0  0
   -5.1540    0.2240  -18.0690 C   0  0  0  0  0  0  0  0  0  0  0  0
   -4.7200    0.5320  -19.3840 C   0  0  0  0  0  0  0  0  0  0  0  0
   -3.5910    1.3580  -19.6210 C   0  0  0  0  0  0  0  0  0  0  0  0
   -3.1890    1.6350  -20.8990 C   0  0  0  0  0  0  0  0  0  0  0  0
   -3.9030    1.0940  -21.9900 C   0  0  0  0  0  0  0  0  0  0  0  0
   -4.9970    0.2900  -21.7860 C   0  0  0  0  0  0  0  0  0  0  0  0
   -5.4450   -0.0100  -20.4750 C   0  0  0  0  0  0  0  0  0  0  0  0
   -5.5160   -0.1410  -22.6360 H   0  0  0  0  0  0  0  0  0  0  0  0
   -3.5750    1.3080  -23.0030 H   0  0  0  0  0  0  0  0  0  0  0  0
   -2.3270    2.2730  -21.0830 H   0  0  0  0  0  0  0  0  0  0  0  0
   -3.0620    1.7740  -18.7670 H   0  0  0  0  0  0  0  0  0  0  0  0
   -4.6040    0.6280  -17.2170 H   0  0  0  0  0  0  0  0  0  0  0  0
   -7.7180   -1.6680  -18.5810 H   0  0  0  0  0  0  0  0  0  0  0  0
   -7.5630   -0.7950  -22.0990 H   0  0  0  0  0  0  0  0  0  0  0  0
   -8.4230   -1.6900  -20.8500 H   0  0  0  0  0  0  0  0  0  0  0  0
   -8.9720   -3.5140  -22.7990 C   0  0  0  0  0  0  0  0  0  0  0  0
   -9.2780   -4.3320  -24.0510 C   0  0  0  0  0  0  0  0  0  0  0  0
  -10.3250   -4.1840  -24.3330 H   0  0  0  0  0  0  0  0  0  0  0  0
   -8.6800   -3.9650  -24.8910 H   0  0  0  0  0  0  0  0  0  0  0  0
   -9.0720   -2.4530  -23.0290 H   0  0  0  0  0  0  0  0  0  0  0  0
   -9.7180   -3.7530  -22.0250 H   0  0  0  0  0  0  0  0  0  0  0  0
   -7.8200   -5.6250  -21.3340 H   0  0  0  0  0  0  0  0  0  0  0  0
   -6.2030   -5.2170  -21.8970 H   0  0  0  0  0  0  0  0  0  0  0  0
   -6.8820   -5.6980  -24.2100 H   0  0  0  0  0  0  0  0  0  0  0  0
   -7.3610   -7.0500  -23.1960 H   0  0  0  0  0  0  0  0  0  0  0  0
   -9.6500   -6.1670  -23.0510 H   0  0  0  0  0  0  0  0  0  0  0  0
   -9.1220   -7.7000  -24.9480 H   0  0  0  0  0  0  0  0  0  0  0  0
  -10.3490   -6.5110  -25.4230 H   0  0  0  0  0  0  0  0  0  0  0  0
   -8.6690   -6.3070  -25.9400 H   0  0  0  0  0  0  0  0  0  0  0  0
  1  2  1  0  0  0  0
  1 38  1  0  0  0  0
  1 39  1  0  0  0  0
  1 40  1  0  0  0  0
  2  3  1  0  0  0  0
  2 28  1  0  0  0  0
  2 37  1  0  0  0  0
  3  4  1  0  0  0  0
  3 35  1  0  0  0  0
  3 36  1  0  0  0  0
  4  5  1  0  0  0  0
  4 33  1  0  0  0  0
  4 34  1  0  0  0  0
  5  6  1  0  0  0  0
  5 27  1  0  0  0  0
  6  7  2  0  0  0  0
  6  8  1  0  0  0  0
  8  9  1  0  0  0  0
  8 25  1  0  0  0  0
  8 26  1  0  0  0  0
  9 10  2  0  0  0  0
  9 18  1  0  0  0  0
 10 11  1  0  0  0  0
 10 24  1  0  0  0  0
 11 12  2  0  0  0  0
 12 13  1  0  0  0  0
 12 23  1  0  0  0  0
 13 14  2  0  0  0  0
 13 18  1  0  0  0  0
 14 15  1  0  0  0  0
 14 22  1  0  0  0  0
 15 16  2  0  0  0  0
 15 21  1  0  0  0  0
 16 17  1  0  0  0  0
 16 20  1  0  0  0  0
 17 18  2  0  0  0  0
 17 19  1  0  0  0  0
 27 28  1  0  0  0  0
 27 31  1  0  0  0  0
 27 32  1  0  0  0  0
 28 29  1  0  0  0  0
 28 30  1  0  0  0  0
M  END
>  <MODEL>
       1

$$$$
