tmp_first_model_18_76.pdb
 OpenBabel08282502533D

 66 71  0  0  1  0  0  0  0  0999 V2000
   -7.9690   -3.6800  -23.9990 C   0  0  0  0  0  0  0  0  0  0  0  0
   -8.2940   -2.8300  -22.7780 C   0  0  1  0  0  0  0  0  0  0  0  0
   -7.1280   -2.5900  -21.8140 C   0  0  0  0  0  0  0  0  0  0  0  0
   -7.4790   -1.3300  -21.1810 N   0  0  0  0  0  0  0  0  0  0  0  0
   -6.6630   -0.7680  -20.1640 C   0  0  0  0  0  0  0  0  0  0  0  0
   -6.9390   -1.0410  -18.8500 C   0  0  0  0  0  0  0  0  0  0  0  0
   -6.2320   -0.5590  -17.7980 N   0  0  0  0  0  0  0  0  0  0  0  0
   -5.2070    0.2120  -18.0760 C   0  0  0  0  0  0  0  0  0  0  0  0
   -4.7880    0.5460  -19.3950 C   0  0  0  0  0  0  0  0  0  0  0  0
   -3.6600    1.3760  -19.6290 C   0  0  0  0  0  0  0  0  0  0  0  0
   -3.2490    1.6470  -20.9050 C   0  0  0  0  0  0  0  0  0  0  0  0
   -3.9430    1.0990  -22.0070 C   0  0  0  0  0  0  0  0  0  0  0  0
   -5.0430    0.2970  -21.8040 C   0  0  0  0  0  0  0  0  0  0  0  0
   -5.5130    0.0180  -20.4880 C   0  0  0  0  0  0  0  0  0  0  0  0
   -5.5430   -0.1330  -22.6680 H   0  0  0  0  0  0  0  0  0  0  0  0
   -3.6010    1.3090  -23.0160 H   0  0  0  0  0  0  0  0  0  0  0  0
   -2.3820    2.2790  -21.0770 H   0  0  0  0  0  0  0  0  0  0  0  0
   -3.1380    1.7790  -18.7650 H   0  0  0  0  0  0  0  0  0  0  0  0
   -4.6410    0.6100  -17.2350 H   0  0  0  0  0  0  0  0  0  0  0  0
   -7.7860   -1.6810  -18.6090 H   0  0  0  0  0  0  0  0  0  0  0  0
   -8.3970   -0.5780  -21.8840 C   0  0  0  0  0  0  0  0  0  0  0  0
   -8.7240    0.5590  -21.5970 O   0  0  0  0  0  0  0  0  0  0  0  0
   -8.8590   -1.4120  -23.1040 C   0  0  1  0  0  0  0  0  0  0  0  0
   -8.2170   -0.8120  -24.3810 C   0  0  0  0  0  0  0  0  0  0  0  0
   -8.8830    0.4240  -24.7630 N   0  0  0  0  0  0  0  0  0  0  0  0
   -8.0640    1.5200  -25.2490 C   0  0  0  0  0  0  0  0  0  0  0  0
   -7.3710    2.2920  -24.1270 C   0  0  0  0  0  0  0  0  0  0  0  0
   -8.2750    3.1460  -23.2830 N   0  3  0  0  0  0  0  0  0  0  0  0
   -8.8630    4.2870  -24.0900 C   0  0  0  0  0  0  0  0  0  0  0  0
   -9.2170    5.4830  -23.2210 C   0  0  0  0  0  0  0  0  0  0  0  0
   -8.1000    6.0430  -22.5530 O   0  0  0  0  0  0  0  0  0  0  0  0
   -7.0730    5.1210  -22.2290 C   0  0  0  0  0  0  0  0  0  0  0  0
   -7.5730    3.6910  -22.0480 C   0  0  0  0  0  0  0  0  0  0  0  0
   -6.7400    3.0260  -21.8040 H   0  0  0  0  0  0  0  0  0  0  0  0
   -8.2800    3.6540  -21.2190 H   0  0  0  0  0  0  0  0  0  0  0  0
   -6.6310    5.4620  -21.2860 H   0  0  0  0  0  0  0  0  0  0  0  0
   -6.2890    5.1550  -23.0030 H   0  0  0  0  0  0  0  0  0  0  0  0
   -9.6270    6.2740  -23.8590 H   0  0  0  0  0  0  0  0  0  0  0  0
   -9.9900    5.2030  -22.4890 H   0  0  0  0  0  0  0  0  0  0  0  0
   -9.7580    3.9360  -24.6110 H   0  0  0  0  0  0  0  0  0  0  0  0
   -8.1240    4.5960  -24.8410 H   0  0  0  0  0  0  0  0  0  0  0  0
   -9.0300    2.5300  -22.9280 H   0  0  0  0  0  0  0  0  0  0  0  0
   -6.8790    1.5800  -23.4620 H   0  0  0  0  0  0  0  0  0  0  0  0
   -6.5960    2.9260  -24.5760 H   0  0  0  0  0  0  0  0  0  0  0  0
   -8.7140    2.1600  -25.8460 H   0  0  0  0  0  0  0  0  0  0  0  0
   -7.2920    1.1110  -25.9160 H   0  0  0  0  0  0  0  0  0  0  0  0
  -10.2190    0.3720  -25.0760 C   0  0  0  0  0  0  0  0  0  0  0  0
  -10.7460    1.0540  -25.9430 O   0  0  0  0  0  0  0  0  0  0  0  0
  -11.0020   -0.5680  -24.2040 C   0  0  0  0  0  0  0  0  0  0  0  0
  -12.3920   -0.5020  -24.2740 C   0  0  0  0  0  0  0  0  0  0  0  0
  -13.1750   -1.1870  -23.3630 C   0  0  0  0  0  0  0  0  0  0  0  0
  -12.5480   -1.9750  -22.3960 C   0  0  0  0  0  0  0  0  0  0  0  0
  -13.4950   -2.8680  -21.2330 Cl  0  0  0  0  0  0  0  0  0  0  0  0
  -11.1730   -2.1000  -22.3620 C   0  0  0  0  0  0  0  0  0  0  0  0
  -10.3670   -1.3760  -23.2540 C   0  0  0  0  0  0  0  0  0  0  0  0
  -10.7480   -2.7750  -21.6320 H   0  0  0  0  0  0  0  0  0  0  0  0
  -14.2530   -1.0930  -23.3810 H   0  0  0  0  0  0  0  0  0  0  0  0
  -12.8110    0.1100  -25.0650 H   0  0  0  0  0  0  0  0  0  0  0  0
   -7.1540   -0.6020  -24.2080 H   0  0  0  0  0  0  0  0  0  0  0  0
   -8.2860   -1.5470  -25.1990 H   0  0  0  0  0  0  0  0  0  0  0  0
   -7.0330   -3.3820  -21.0640 H   0  0  0  0  0  0  0  0  0  0  0  0
   -6.1630   -2.5290  -22.3410 H   0  0  0  0  0  0  0  0  0  0  0  0
   -9.0560   -3.3640  -22.2030 H   0  0  0  0  0  0  0  0  0  0  0  0
   -7.6850   -4.6960  -23.7160 H   0  0  0  0  0  0  0  0  0  0  0  0
   -8.8480   -3.7350  -24.6510 H   0  0  0  0  0  0  0  0  0  0  0  0
   -7.1440   -3.2440  -24.5740 H   0  0  0  0  0  0  0  0  0  0  0  0
  1  2  1  0  0  0  0
  1 64  1  0  0  0  0
  1 65  1  0  0  0  0
  1 66  1  0  0  0  0
  2  3  1  0  0  0  0
  2 23  1  0  0  0  0
  2 63  1  1  0  0  0
  3  4  1  0  0  0  0
  3 61  1  0  0  0  0
  3 62  1  0  0  0  0
  4  5  1  0  0  0  0
  4 21  1  0  0  0  0
  5  6  2  0  0  0  0
  5 14  1  0  0  0  0
  6  7  1  0  0  0  0
  6 20  1  0  0  0  0
  7  8  2  0  0  0  0
  8  9  1  0  0  0  0
  8 19  1  0  0  0  0
  9 10  2  0  0  0  0
  9 14  1  0  0  0  0
 10 11  1  0  0  0  0
 10 18  1  0  0  0  0
 11 12  2  0  0  0  0
 11 17  1  0  0  0  0
 12 13  1  0  0  0  0
 12 16  1  0  0  0  0
 13 14  2  0  0  0  0
 13 15  1  0  0  0  0
 21 22  2  0  0  0  0
 23 21  1  1  0  0  0
 23 24  1  0  0  0  0
 23 55  1  0  0  0  0
 24 25  1  0  0  0  0
 24 59  1  0  0  0  0
 24 60  1  0  0  0  0
 25 26  1  0  0  0  0
 25 47  1  0  0  0  0
 26 27  1  0  0  0  0
 26 45  1  0  0  0  0
 26 46  1  0  0  0  0
 27 28  1  0  0  0  0
 27 43  1  0  0  0  0
 27 44  1  0  0  0  0
 28 29  1  0  0  0  0
 28 33  1  0  0  0  0
 28 42  1  0  0  0  0
 29 30  1  0  0  0  0
 29 40  1  0  0  0  0
 29 41  1  0  0  0  0
 30 31  1  0  0  0  0
 30 38  1  0  0  0  0
 30 39  1  0  0  0  0
 31 32  1  0  0  0  0
 32 33  1  0  0  0  0
 32 36  1  0  0  0  0
 32 37  1  0  0  0  0
 33 34  1  0  0  0  0
 33 35  1  0  0  0  0
 47 48  2  0  0  0  0
 47 49  1  0  0  0  0
 49 50  2  0  0  0  0
 49 55  1  0  0  0  0
 50 51  1  0  0  0  0
 50 58  1  0  0  0  0
 51 52  2  0  0  0  0
 51 57  1  0  0  0  0
 52 53  1  0  0  0  0
 52 54  1  0  0  0  0
 54 55  2  0  0  0  0
 54 56  1  0  0  0  0
M  CHG  1  28   1
M  END
>  <MODEL>
       1

$$$$
