tmp_first_model_5_97.pdb
 OpenBabel08272519233D

 40 43  0  0  1  0  0  0  0  0999 V2000
  -12.5800   -3.7900  -21.2710 C   0  0  0  0  0  0  0  0  0  0  0  0
  -11.4810   -2.9080  -21.8630 C   0  0  2  0  0  0  0  0  0  0  0  0
  -11.9280   -2.3400  -23.2070 C   0  0  0  0  0  0  0  0  0  0  0  0
  -11.0270   -1.3490  -23.6420 O   0  0  0  0  0  0  0  0  0  0  0  0
   -9.7500   -1.8900  -23.8910 C   0  0  0  0  0  0  0  0  0  0  0  0
   -9.1160   -2.5440  -22.6450 C   0  0  1  0  0  0  0  0  0  0  0  0
  -10.1030   -3.5610  -22.0230 C   0  0  0  0  0  0  0  0  0  0  0  0
  -10.1380   -4.4660  -22.6500 H   0  0  0  0  0  0  0  0  0  0  0  0
   -9.6920   -3.8830  -21.0590 H   0  0  0  0  0  0  0  0  0  0  0  0
   -7.8270   -3.1370  -22.9780 N   0  0  0  0  0  0  0  0  0  0  0  0
   -6.8190   -2.7610  -22.1240 C   0  0  0  0  0  0  0  0  0  0  0  0
   -5.7090   -3.2220  -22.0000 O   0  0  0  0  0  0  0  0  0  0  0  0
   -7.3330   -1.7030  -21.3600 N   0  0  0  0  0  0  0  0  0  0  0  0
   -6.5580   -1.1170  -20.3230 C   0  0  0  0  0  0  0  0  0  0  0  0
   -6.8390   -1.3830  -19.0090 C   0  0  0  0  0  0  0  0  0  0  0  0
   -5.9680   -1.1750  -17.9920 N   0  0  0  0  0  0  0  0  0  0  0  0
   -4.8060   -0.6410  -18.3000 C   0  0  0  0  0  0  0  0  0  0  0  0
   -4.4710   -0.1400  -19.5920 C   0  0  0  0  0  0  0  0  0  0  0  0
   -3.3190    0.6650  -19.8300 C   0  0  0  0  0  0  0  0  0  0  0  0
   -3.2140    1.3810  -20.9890 C   0  0  0  0  0  0  0  0  0  0  0  0
   -4.1500    1.1930  -22.0310 C   0  0  0  0  0  0  0  0  0  0  0  0
   -5.2110    0.3430  -21.8710 C   0  0  0  0  0  0  0  0  0  0  0  0
   -5.4040   -0.3330  -20.6350 C   0  0  0  0  0  0  0  0  0  0  0  0
   -5.9530    0.2400  -22.6530 H   0  0  0  0  0  0  0  0  0  0  0  0
   -4.0180    1.7190  -22.9700 H   0  0  0  0  0  0  0  0  0  0  0  0
   -2.3630    2.0300  -21.1670 H   0  0  0  0  0  0  0  0  0  0  0  0
   -2.5870    0.8190  -19.0440 H   0  0  0  0  0  0  0  0  0  0  0  0
   -4.0910   -0.5600  -17.4830 H   0  0  0  0  0  0  0  0  0  0  0  0
   -7.8110   -1.7820  -18.7300 H   0  0  0  0  0  0  0  0  0  0  0  0
   -8.6810   -1.4910  -21.6000 C   0  0  0  0  0  0  0  0  0  0  0  0
   -9.3400   -0.6260  -21.0760 O   0  0  0  0  0  0  0  0  0  0  0  0
   -7.7580   -4.0380  -23.4310 H   0  0  0  0  0  0  0  0  0  0  0  0
   -9.1110   -1.0710  -24.2360 H   0  0  0  0  0  0  0  0  0  0  0  0
   -9.8110   -2.6390  -24.6990 H   0  0  0  0  0  0  0  0  0  0  0  0
  -12.9240   -1.8820  -23.1360 H   0  0  0  0  0  0  0  0  0  0  0  0
  -11.9880   -3.1420  -23.9670 H   0  0  0  0  0  0  0  0  0  0  0  0
  -11.2920   -2.0520  -21.2140 H   0  0  0  0  0  0  0  0  0  0  0  0
  -12.2270   -4.3910  -20.4280 H   0  0  0  0  0  0  0  0  0  0  0  0
  -12.9900   -4.4710  -22.0260 H   0  0  0  0  0  0  0  0  0  0  0  0
  -13.4120   -3.1750  -20.9070 H   0  0  0  0  0  0  0  0  0  0  0  0
  1  2  1  0  0  0  0
  1 38  1  0  0  0  0
  1 39  1  0  0  0  0
  1 40  1  0  0  0  0
  2  3  1  0  0  0  0
  2  7  1  0  0  0  0
  2 37  1  1  0  0  0
  3  4  1  0  0  0  0
  3 35  1  0  0  0  0
  3 36  1  0  0  0  0
  4  5  1  0  0  0  0
  5  6  1  0  0  0  0
  5 33  1  0  0  0  0
  5 34  1  0  0  0  0
  6  7  1  0  0  0  0
  6 10  1  0  0  0  0
  6 30  1  1  0  0  0
  7  8  1  0  0  0  0
  7  9  1  0  0  0  0
 10 11  1  0  0  0  0
 10 32  1  0  0  0  0
 11 12  2  0  0  0  0
 11 13  1  0  0  0  0
 13 14  1  0  0  0  0
 13 30  1  0  0  0  0
 14 15  2  0  0  0  0
 14 23  1  0  0  0  0
 15 16  1  0  0  0  0
 15 29  1  0  0  0  0
 16 17  2  0  0  0  0
 17 18  1  0  0  0  0
 17 28  1  0  0  0  0
 18 19  2  0  0  0  0
 18 23  1  0  0  0  0
 19 20  1  0  0  0  0
 19 27  1  0  0  0  0
 20 21  2  0  0  0  0
 20 26  1  0  0  0  0
 21 22  1  0  0  0  0
 21 25  1  0  0  0  0
 22 23  2  0  0  0  0
 22 24  1  0  0  0  0
 30 31  2  0  0  0  0
M  END
>  <MODEL>
       1

$$$$
