tmp_first_model_10_32.pdb
 OpenBabel08272522163D

 57 62  0  0  1  0  0  0  0  0999 V2000
   -8.0640   -4.0270  -23.7510 C   0  0  0  0  0  0  0  0  0  0  0  0
   -8.2770   -3.1600  -22.5120 C   0  0  1  0  0  0  0  0  0  0  0  0
   -7.0120   -2.4000  -22.0710 C   0  0  0  0  0  0  0  0  0  0  0  0
   -7.5410   -1.3250  -21.2570 N   0  0  0  0  0  0  0  0  0  0  0  0
   -6.8160   -0.7400  -20.1840 C   0  0  0  0  0  0  0  0  0  0  0  0
   -7.0790   -1.0880  -18.8800 C   0  0  0  0  0  0  0  0  0  0  0  0
   -6.3190   -0.7120  -17.8200 N   0  0  0  0  0  0  0  0  0  0  0  0
   -5.2950    0.0770  -18.0460 C   0  0  0  0  0  0  0  0  0  0  0  0
   -4.9440    0.5620  -19.3380 C   0  0  0  0  0  0  0  0  0  0  0  0
   -3.8800    1.4830  -19.5420 C   0  0  0  0  0  0  0  0  0  0  0  0
   -3.6080    1.9590  -20.7950 C   0  0  0  0  0  0  0  0  0  0  0  0
   -4.3490    1.5070  -21.9080 C   0  0  0  0  0  0  0  0  0  0  0  0
   -5.3860    0.6210  -21.7350 C   0  0  0  0  0  0  0  0  0  0  0  0
   -5.7160    0.1380  -20.4450 C   0  0  0  0  0  0  0  0  0  0  0  0
   -6.0040    0.3470  -22.5870 H   0  0  0  0  0  0  0  0  0  0  0  0
   -4.1300    1.8850  -22.9040 H   0  0  0  0  0  0  0  0  0  0  0  0
   -2.8270    2.6990  -20.9440 H   0  0  0  0  0  0  0  0  0  0  0  0
   -3.3100    1.8210  -18.6790 H   0  0  0  0  0  0  0  0  0  0  0  0
   -4.6790    0.3660  -17.1910 H   0  0  0  0  0  0  0  0  0  0  0  0
   -7.9260   -1.7290  -18.6450 H   0  0  0  0  0  0  0  0  0  0  0  0
   -8.8610   -1.0350  -21.5390 C   0  0  0  0  0  0  0  0  0  0  0  0
   -9.4900   -0.1400  -21.0200 O   0  0  0  0  0  0  0  0  0  0  0  0
   -9.3690   -2.0440  -22.6260 C   0  0  1  0  0  0  0  0  0  0  0  0
   -9.3140   -1.4120  -24.0420 C   0  0  0  0  0  0  0  0  0  0  0  0
  -10.3820   -0.4640  -24.3150 N   0  0  0  0  0  0  0  0  0  0  0  0
  -10.0120    0.7230  -25.0680 C   0  0  0  0  0  0  0  0  0  0  0  0
   -9.1970    1.6070  -24.1690 C   0  0  0  0  0  0  0  0  0  0  0  0
   -7.8920    1.7600  -24.1940 N   0  0  0  0  0  0  0  0  0  0  0  0
   -7.5850    2.4610  -23.0810 N   0  0  0  0  0  0  0  0  0  0  0  0
   -8.6370    2.7170  -22.3880 N   0  0  0  0  0  0  0  0  0  0  0  0
   -9.6720    2.1860  -23.0490 N   0  0  0  0  0  0  0  0  0  0  0  0
  -11.0200    2.3790  -22.5410 C   0  0  0  0  0  0  0  0  0  0  0  0
  -11.1990    1.6940  -21.7040 H   0  0  0  0  0  0  0  0  0  0  0  0
  -11.7190    2.1910  -23.3590 H   0  0  0  0  0  0  0  0  0  0  0  0
  -11.1170    3.4160  -22.2010 H   0  0  0  0  0  0  0  0  0  0  0  0
  -10.9290    1.1800  -25.4480 H   0  0  0  0  0  0  0  0  0  0  0  0
   -9.4030    0.4240  -25.9250 H   0  0  0  0  0  0  0  0  0  0  0  0
  -11.6580   -0.6050  -23.8650 C   0  0  0  0  0  0  0  0  0  0  0  0
  -12.5810    0.1160  -24.2390 O   0  0  0  0  0  0  0  0  0  0  0  0
  -11.8750   -1.6910  -22.8700 C   0  0  0  0  0  0  0  0  0  0  0  0
  -13.1880   -1.9020  -22.4520 C   0  0  0  0  0  0  0  0  0  0  0  0
  -13.5000   -2.9960  -21.6700 C   0  0  0  0  0  0  0  0  0  0  0  0
  -12.4550   -3.8060  -21.2430 C   0  0  0  0  0  0  0  0  0  0  0  0
  -12.7260   -4.8390  -20.4240 F   0  0  0  0  0  0  0  0  0  0  0  0
  -11.1380   -3.5610  -21.5760 C   0  0  0  0  0  0  0  0  0  0  0  0
  -10.8100   -2.4680  -22.3840 C   0  0  0  0  0  0  0  0  0  0  0  0
  -10.3880   -4.1860  -21.1080 H   0  0  0  0  0  0  0  0  0  0  0  0
  -14.5160   -3.2360  -21.3890 H   0  0  0  0  0  0  0  0  0  0  0  0
  -13.9350   -1.1730  -22.7500 H   0  0  0  0  0  0  0  0  0  0  0  0
   -8.3600   -0.8900  -24.1660 H   0  0  0  0  0  0  0  0  0  0  0  0
   -9.3730   -2.2240  -24.7760 H   0  0  0  0  0  0  0  0  0  0  0  0
   -6.4760   -2.0090  -22.9500 H   0  0  0  0  0  0  0  0  0  0  0  0
   -6.3080   -3.0060  -21.4940 H   0  0  0  0  0  0  0  0  0  0  0  0
   -8.5410   -3.8120  -21.6730 H   0  0  0  0  0  0  0  0  0  0  0  0
   -7.3850   -4.8600  -23.5490 H   0  0  0  0  0  0  0  0  0  0  0  0
   -9.0070   -4.4440  -24.1200 H   0  0  0  0  0  0  0  0  0  0  0  0
   -7.6250   -3.4410  -24.5670 H   0  0  0  0  0  0  0  0  0  0  0  0
  1  2  1  0  0  0  0
  1 55  1  0  0  0  0
  1 56  1  0  0  0  0
  1 57  1  0  0  0  0
  2  3  1  0  0  0  0
  2 23  1  0  0  0  0
  2 54  1  1  0  0  0
  3  4  1  0  0  0  0
  3 52  1  0  0  0  0
  3 53  1  0  0  0  0
  4  5  1  0  0  0  0
  4 21  1  0  0  0  0
  5  6  2  0  0  0  0
  5 14  1  0  0  0  0
  6  7  1  0  0  0  0
  6 20  1  0  0  0  0
  7  8  2  0  0  0  0
  8  9  1  0  0  0  0
  8 19  1  0  0  0  0
  9 10  2  0  0  0  0
  9 14  1  0  0  0  0
 10 11  1  0  0  0  0
 10 18  1  0  0  0  0
 11 12  2  0  0  0  0
 11 17  1  0  0  0  0
 12 13  1  0  0  0  0
 12 16  1  0  0  0  0
 13 14  2  0  0  0  0
 13 15  1  0  0  0  0
 21 22  2  0  0  0  0
 23 21  1  1  0  0  0
 23 24  1  0  0  0  0
 23 46  1  0  0  0  0
 24 25  1  0  0  0  0
 24 50  1  0  0  0  0
 24 51  1  0  0  0  0
 25 26  1  0  0  0  0
 25 38  1  0  0  0  0
 26 27  1  0  0  0  0
 26 36  1  0  0  0  0
 26 37  1  0  0  0  0
 27 28  2  0  0  0  0
 27 31  1  0  0  0  0
 28 29  1  0  0  0  0
 29 30  2  0  0  0  0
 30 31  1  0  0  0  0
 31 32  1  0  0  0  0
 32 33  1  0  0  0  0
 32 34  1  0  0  0  0
 32 35  1  0  0  0  0
 38 39  2  0  0  0  0
 38 40  1  0  0  0  0
 40 41  2  0  0  0  0
 40 46  1  0  0  0  0
 41 42  1  0  0  0  0
 41 49  1  0  0  0  0
 42 43  2  0  0  0  0
 42 48  1  0  0  0  0
 43 44  1  0  0  0  0
 43 45  1  0  0  0  0
 45 46  2  0  0  0  0
 45 47  1  0  0  0  0
M  END
>  <MODEL>
       1

$$$$
