tmp_first_model_11_49.pdb
 OpenBabel08272522543D

 67 72  0  0  1  0  0  0  0  0999 V2000
   -7.9100   -0.3910  -29.2030 C   0  0  0  0  0  0  0  0  0  0  0  0
   -8.1370   -1.3570  -28.1490 N   0  0  0  0  0  0  0  0  0  0  0  0
   -7.1970   -1.5660  -27.1980 C   0  0  0  0  0  0  0  0  0  0  0  0
   -6.1640   -0.9160  -27.1140 O   0  0  0  0  0  0  0  0  0  0  0  0
   -7.5250   -2.7040  -26.2260 C   0  0  0  0  0  0  0  0  0  0  0  0
   -8.5390   -2.3690  -25.2470 N   0  0  0  0  0  0  0  0  0  0  0  0
   -8.1680   -1.5590  -24.1070 C   0  0  0  0  0  0  0  0  0  0  0  0
   -8.9730   -1.9030  -22.8280 C   0  0  2  0  0  0  0  0  0  0  0  0
   -8.5860   -0.8010  -21.7980 C   0  0  0  0  0  0  0  0  0  0  0  0
   -9.0590    0.3010  -21.6460 O   0  0  0  0  0  0  0  0  0  0  0  0
   -7.5030   -1.2940  -21.0820 N   0  0  0  0  0  0  0  0  0  0  0  0
   -6.7760   -0.5850  -20.0860 C   0  0  0  0  0  0  0  0  0  0  0  0
   -7.1240   -0.7410  -18.7660 C   0  0  0  0  0  0  0  0  0  0  0  0
   -6.4160   -0.2620  -17.7110 N   0  0  0  0  0  0  0  0  0  0  0  0
   -5.3120    0.3910  -17.9850 C   0  0  0  0  0  0  0  0  0  0  0  0
   -4.8270    0.6320  -19.3030 C   0  0  0  0  0  0  0  0  0  0  0  0
   -3.6250    1.3480  -19.5340 C   0  0  0  0  0  0  0  0  0  0  0  0
   -3.1820    1.5670  -20.8090 C   0  0  0  0  0  0  0  0  0  0  0  0
   -3.9290    1.0960  -21.9090 C   0  0  0  0  0  0  0  0  0  0  0  0
   -5.1040    0.4120  -21.7120 C   0  0  0  0  0  0  0  0  0  0  0  0
   -5.5790    0.1460  -20.3990 C   0  0  0  0  0  0  0  0  0  0  0  0
   -5.6920    0.0830  -22.5640 H   0  0  0  0  0  0  0  0  0  0  0  0
   -3.5770    1.2920  -22.9170 H   0  0  0  0  0  0  0  0  0  0  0  0
   -2.2610    2.1150  -20.9810 H   0  0  0  0  0  0  0  0  0  0  0  0
   -3.0830    1.7340  -18.6750 H   0  0  0  0  0  0  0  0  0  0  0  0
   -4.7340    0.7660  -17.1410 H   0  0  0  0  0  0  0  0  0  0  0  0
   -8.0250   -1.3040  -18.5230 H   0  0  0  0  0  0  0  0  0  0  0  0
   -7.2000   -2.6810  -21.3770 C   0  0  0  0  0  0  0  0  0  0  0  0
   -8.4850   -3.1640  -22.0410 C   0  0  2  0  0  0  0  0  0  0  0  0
   -8.2780   -4.4740  -22.7900 C   0  0  0  0  0  0  0  0  0  0  0  0
   -9.4940   -4.9970  -23.3750 N   0  0  0  0  0  0  0  0  0  0  0  0
   -9.5030   -5.5660  -24.6170 C   0  0  0  0  0  0  0  0  0  0  0  0
   -8.4510   -6.0310  -25.3630 C   0  0  0  0  0  0  0  0  0  0  0  0
   -8.7360   -6.4040  -26.6530 N   0  0  0  0  0  0  0  0  0  0  0  0
   -9.9960   -6.2490  -26.9140 C   0  0  0  0  0  0  0  0  0  0  0  0
  -10.5790   -6.4400  -28.2750 C   0  0  0  0  0  0  0  0  0  0  0  0
   -9.9270   -7.1040  -28.8420 H   0  0  0  0  0  0  0  0  0  0  0  0
  -11.5840   -6.8600  -28.2370 H   0  0  0  0  0  0  0  0  0  0  0  0
  -10.6240   -5.4760  -28.8000 H   0  0  0  0  0  0  0  0  0  0  0  0
  -10.9790   -5.7460  -25.5470 S   0  0  0  0  0  0  0  0  0  0  0  0
   -7.4260   -6.1090  -25.0210 H   0  0  0  0  0  0  0  0  0  0  0  0
  -10.3870   -4.6770  -23.0210 H   0  0  0  0  0  0  0  0  0  0  0  0
   -7.5520   -4.3120  -23.5930 H   0  0  0  0  0  0  0  0  0  0  0  0
   -7.8420   -5.2080  -22.1030 H   0  0  0  0  0  0  0  0  0  0  0  0
   -9.2390   -3.3270  -21.2570 H   0  0  0  0  0  0  0  0  0  0  0  0
   -6.3590   -2.7750  -22.0850 H   0  0  0  0  0  0  0  0  0  0  0  0
   -6.9190   -3.2270  -20.4710 H   0  0  0  0  0  0  0  0  0  0  0  0
  -10.4330   -1.9770  -23.2000 C   0  0  0  0  0  0  0  0  0  0  0  0
  -11.4100   -1.8560  -22.2000 C   0  0  0  0  0  0  0  0  0  0  0  0
  -12.7490   -1.8640  -22.5530 C   0  0  0  0  0  0  0  0  0  0  0  0
  -13.9910   -1.6980  -21.3440 Cl  0  0  0  0  0  0  0  0  0  0  0  0
  -13.1460   -2.0390  -23.8780 C   0  0  0  0  0  0  0  0  0  0  0  0
  -12.1880   -2.2690  -24.8470 C   0  0  0  0  0  0  0  0  0  0  0  0
  -10.8360   -2.2310  -24.5230 C   0  0  0  0  0  0  0  0  0  0  0  0
   -9.8410   -2.5250  -25.6020 C   0  0  0  0  0  0  0  0  0  0  0  0
  -10.1590   -2.9140  -26.7290 O   0  0  0  0  0  0  0  0  0  0  0  0
  -12.4820   -2.4800  -25.8700 H   0  0  0  0  0  0  0  0  0  0  0  0
  -14.1970   -2.0110  -24.1400 H   0  0  0  0  0  0  0  0  0  0  0  0
  -11.1100   -1.7190  -21.1640 H   0  0  0  0  0  0  0  0  0  0  0  0
   -8.3240   -0.4910  -24.3240 H   0  0  0  0  0  0  0  0  0  0  0  0
   -7.0990   -1.7080  -23.9270 H   0  0  0  0  0  0  0  0  0  0  0  0
   -6.6100   -2.9680  -25.6950 H   0  0  0  0  0  0  0  0  0  0  0  0
   -7.9100   -3.5750  -26.7620 H   0  0  0  0  0  0  0  0  0  0  0  0
   -9.0000   -1.8850  -28.1050 H   0  0  0  0  0  0  0  0  0  0  0  0
   -7.8300    0.6290  -28.8060 H   0  0  0  0  0  0  0  0  0  0  0  0
   -8.7430   -0.4400  -29.9090 H   0  0  0  0  0  0  0  0  0  0  0  0
   -6.9820   -0.6210  -29.7390 H   0  0  0  0  0  0  0  0  0  0  0  0
  1  2  1  0  0  0  0
  1 65  1  0  0  0  0
  1 66  1  0  0  0  0
  1 67  1  0  0  0  0
  2  3  1  0  0  0  0
  2 64  1  0  0  0  0
  3  4  2  0  0  0  0
  3  5  1  0  0  0  0
  5  6  1  0  0  0  0
  5 62  1  0  0  0  0
  5 63  1  0  0  0  0
  6  7  1  0  0  0  0
  6 55  1  0  0  0  0
  7  8  1  0  0  0  0
  7 60  1  0  0  0  0
  7 61  1  0  0  0  0
  8  9  1  1  0  0  0
  8 29  1  0  0  0  0
  8 48  1  0  0  0  0
  9 10  2  0  0  0  0
  9 11  1  0  0  0  0
 11 12  1  0  0  0  0
 11 28  1  0  0  0  0
 12 13  2  0  0  0  0
 12 21  1  0  0  0  0
 13 14  1  0  0  0  0
 13 27  1  0  0  0  0
 14 15  2  0  0  0  0
 15 16  1  0  0  0  0
 15 26  1  0  0  0  0
 16 17  2  0  0  0  0
 16 21  1  0  0  0  0
 17 18  1  0  0  0  0
 17 25  1  0  0  0  0
 18 19  2  0  0  0  0
 18 24  1  0  0  0  0
 19 20  1  0  0  0  0
 19 23  1  0  0  0  0
 20 21  2  0  0  0  0
 20 22  1  0  0  0  0
 28 29  1  0  0  0  0
 28 46  1  0  0  0  0
 28 47  1  0  0  0  0
 29 30  1  0  0  0  0
 29 45  1  1  0  0  0
 30 31  1  0  0  0  0
 30 43  1  0  0  0  0
 30 44  1  0  0  0  0
 31 32  1  0  0  0  0
 31 42  1  0  0  0  0
 32 33  2  0  0  0  0
 32 40  1  0  0  0  0
 33 34  1  0  0  0  0
 33 41  1  0  0  0  0
 34 35  2  0  0  0  0
 35 36  1  0  0  0  0
 35 40  1  0  0  0  0
 36 37  1  0  0  0  0
 36 38  1  0  0  0  0
 36 39  1  0  0  0  0
 48 49  2  0  0  0  0
 48 54  1  0  0  0  0
 49 50  1  0  0  0  0
 49 59  1  0  0  0  0
 50 51  1  0  0  0  0
 50 52  2  0  0  0  0
 52 53  1  0  0  0  0
 52 58  1  0  0  0  0
 53 54  2  0  0  0  0
 53 57  1  0  0  0  0
 54 55  1  0  0  0  0
 55 56  2  0  0  0  0
M  END
>  <MODEL>
       1

$$$$
