tmp_first_model_6_19.pdb
 OpenBabel08272519583D

 42 45  0  0  1  0  0  0  0  0999 V2000
   -9.1470   -0.0650  -20.7250 O   0  0  0  0  0  0  0  0  0  0  0  0
   -8.6540   -0.9070  -21.4510 C   0  0  0  0  0  0  0  0  0  0  0  0
   -9.3670   -1.5020  -22.6780 C   0  0  1  0  0  0  0  0  0  0  0  0
  -10.4390   -0.5580  -23.1890 C   0  0  0  0  0  0  0  0  0  0  0  0
  -10.1010    0.7530  -23.5140 C   0  0  0  0  0  0  0  0  0  0  0  0
  -11.0720    1.6260  -23.9720 C   0  0  0  0  0  0  0  0  0  0  0  0
  -12.4000    1.2390  -24.0860 C   0  0  0  0  0  0  0  0  0  0  0  0
  -13.5500    2.5020  -24.3740 Cl  0  0  0  0  0  0  0  0  0  0  0  0
  -12.7280   -0.1000  -23.8640 C   0  0  0  0  0  0  0  0  0  0  0  0
  -14.3300   -0.6930  -24.1140 Cl  0  0  0  0  0  0  0  0  0  0  0  0
  -11.7480   -0.9860  -23.4060 C   0  0  0  0  0  0  0  0  0  0  0  0
  -12.0450   -2.0130  -23.1870 H   0  0  0  0  0  0  0  0  0  0  0  0
  -10.8320    2.6510  -24.2100 H   0  0  0  0  0  0  0  0  0  0  0  0
   -9.0890    1.1200  -23.3420 H   0  0  0  0  0  0  0  0  0  0  0  0
   -8.3340   -1.7860  -23.7770 C   0  0  0  0  0  0  0  0  0  0  0  0
   -7.2410   -2.7550  -23.3390 C   0  0  2  0  0  0  0  0  0  0  0  0
   -7.5400   -4.1050  -23.6620 O   0  0  0  0  0  0  0  0  0  0  0  0
   -8.3920   -4.3240  -23.2620 H   0  0  0  0  0  0  0  0  0  0  0  0
   -6.9330   -2.6360  -21.8360 C   0  0  0  0  0  0  0  0  0  0  0  0
   -7.3750   -1.3770  -21.2540 N   0  0  0  0  0  0  0  0  0  0  0  0
   -6.6090   -0.8070  -20.1920 C   0  0  0  0  0  0  0  0  0  0  0  0
   -6.9080   -1.0560  -18.8780 C   0  0  0  0  0  0  0  0  0  0  0  0
   -6.1990   -0.5690  -17.8280 N   0  0  0  0  0  0  0  0  0  0  0  0
   -5.1680    0.2000  -18.0790 C   0  0  0  0  0  0  0  0  0  0  0  0
   -4.7310    0.5320  -19.3920 C   0  0  0  0  0  0  0  0  0  0  0  0
   -3.6030    1.3640  -19.6310 C   0  0  0  0  0  0  0  0  0  0  0  0
   -3.2290    1.6700  -20.9110 C   0  0  0  0  0  0  0  0  0  0  0  0
   -3.9730    1.1670  -22.0000 C   0  0  0  0  0  0  0  0  0  0  0  0
   -5.0560    0.3500  -21.7920 C   0  0  0  0  0  0  0  0  0  0  0  0
   -5.4680    0.0140  -20.4800 C   0  0  0  0  0  0  0  0  0  0  0  0
   -5.5880   -0.0830  -22.6320 H   0  0  0  0  0  0  0  0  0  0  0  0
   -3.6480    1.3710  -23.0150 H   0  0  0  0  0  0  0  0  0  0  0  0
   -2.3590    2.2910  -21.1020 H   0  0  0  0  0  0  0  0  0  0  0  0
   -3.0610    1.7630  -18.7770 H   0  0  0  0  0  0  0  0  0  0  0  0
   -4.6250    0.6100  -17.2250 H   0  0  0  0  0  0  0  0  0  0  0  0
   -7.7580   -1.6730  -18.5980 H   0  0  0  0  0  0  0  0  0  0  0  0
   -7.3910   -3.5100  -21.3390 H   0  0  0  0  0  0  0  0  0  0  0  0
   -5.8580   -2.6940  -21.6670 H   0  0  0  0  0  0  0  0  0  0  0  0
   -6.3400   -2.5450  -23.9210 H   0  0  0  0  0  0  0  0  0  0  0  0
   -7.8960   -0.8280  -24.0870 H   0  0  0  0  0  0  0  0  0  0  0  0
   -8.8250   -2.2060  -24.6600 H   0  0  0  0  0  0  0  0  0  0  0  0
   -9.8460   -2.4440  -22.3760 H   0  0  0  0  0  0  0  0  0  0  0  0
  1  2  2  0  0  0  0
  2  3  1  0  0  0  0
  2 20  1  0  0  0  0
  3  4  1  0  0  0  0
  3 15  1  0  0  0  0
  3 42  1  1  0  0  0
  4  5  2  0  0  0  0
  4 11  1  0  0  0  0
  5  6  1  0  0  0  0
  5 14  1  0  0  0  0
  6  7  2  0  0  0  0
  6 13  1  0  0  0  0
  7  8  1  0  0  0  0
  7  9  1  0  0  0  0
  9 10  1  0  0  0  0
  9 11  2  0  0  0  0
 11 12  1  0  0  0  0
 15 16  1  0  0  0  0
 15 40  1  0  0  0  0
 15 41  1  0  0  0  0
 16 17  1  0  0  0  0
 16 19  1  0  0  0  0
 16 39  1  6  0  0  0
 17 18  1  0  0  0  0
 19 20  1  0  0  0  0
 19 37  1  0  0  0  0
 19 38  1  0  0  0  0
 20 21  1  0  0  0  0
 21 22  2  0  0  0  0
 21 30  1  0  0  0  0
 22 23  1  0  0  0  0
 22 36  1  0  0  0  0
 23 24  2  0  0  0  0
 24 25  1  0  0  0  0
 24 35  1  0  0  0  0
 25 26  2  0  0  0  0
 25 30  1  0  0  0  0
 26 27  1  0  0  0  0
 26 34  1  0  0  0  0
 27 28  2  0  0  0  0
 27 33  1  0  0  0  0
 28 29  1  0  0  0  0
 28 32  1  0  0  0  0
 29 30  2  0  0  0  0
 29 31  1  0  0  0  0
M  END
>  <MODEL>
       1

$$$$
