tmp_first_model_12_48.pdb
 OpenBabel08272523333D

 46 48  0  0  0  0  0  0  0  0999 V2000
   -6.9700   -5.5060  -27.2420 C   0  0  0  0  0  0  0  0  0  0  0  0
   -6.2020   -4.1860  -27.3580 C   0  0  0  0  0  0  0  0  0  0  0  0
   -6.7420   -3.3780  -28.5410 C   0  0  0  0  0  0  0  0  0  0  0  0
   -7.8050   -3.1420  -28.4110 H   0  0  0  0  0  0  0  0  0  0  0  0
   -6.6470   -3.9510  -29.4710 H   0  0  0  0  0  0  0  0  0  0  0  0
   -6.2010   -2.4350  -28.6740 H   0  0  0  0  0  0  0  0  0  0  0  0
   -6.1650   -3.3570  -26.0580 C   0  0  0  0  0  0  0  0  0  0  0  0
   -5.2990   -4.0280  -24.9930 C   0  0  0  0  0  0  0  0  0  0  0  0
   -5.1700   -3.1590  -23.7630 C   0  0  0  0  0  0  0  0  0  0  0  0
   -6.4690   -2.7580  -23.2380 N   0  0  0  0  0  0  0  0  0  0  0  0
   -6.5030   -2.6210  -21.8670 C   0  0  0  0  0  0  0  0  0  0  0  0
   -5.8400   -3.3410  -21.1410 O   0  0  0  0  0  0  0  0  0  0  0  0
   -7.3670   -1.4980  -21.2790 C   0  0  0  0  0  0  0  0  0  0  0  0
   -6.6240   -0.7760  -20.1820 C   0  0  0  0  0  0  0  0  0  0  0  0
   -6.8980   -1.0540  -18.8700 C   0  0  0  0  0  0  0  0  0  0  0  0
   -6.2130   -0.5760  -17.7960 N   0  0  0  0  0  0  0  0  0  0  0  0
   -5.2090    0.2280  -18.0510 C   0  0  0  0  0  0  0  0  0  0  0  0
   -4.8080    0.6100  -19.3620 C   0  0  0  0  0  0  0  0  0  0  0  0
   -3.6560    1.4080  -19.5820 C   0  0  0  0  0  0  0  0  0  0  0  0
   -3.2940    1.7740  -20.8510 C   0  0  0  0  0  0  0  0  0  0  0  0
   -4.0830    1.3650  -21.9530 C   0  0  0  0  0  0  0  0  0  0  0  0
   -5.1740    0.5480  -21.7700 C   0  0  0  0  0  0  0  0  0  0  0  0
   -5.5470    0.1190  -20.4650 C   0  0  0  0  0  0  0  0  0  0  0  0
   -5.7460    0.2290  -22.6390 H   0  0  0  0  0  0  0  0  0  0  0  0
   -3.8190    1.7050  -22.9500 H   0  0  0  0  0  0  0  0  0  0  0  0
   -2.4090    2.3820  -21.0200 H   0  0  0  0  0  0  0  0  0  0  0  0
   -3.0710    1.7160  -18.7210 H   0  0  0  0  0  0  0  0  0  0  0  0
   -4.6300    0.5950  -17.2000 H   0  0  0  0  0  0  0  0  0  0  0  0
   -7.7270   -1.7210  -18.6290 H   0  0  0  0  0  0  0  0  0  0  0  0
   -7.6590   -0.8120  -22.0820 H   0  0  0  0  0  0  0  0  0  0  0  0
   -8.2780   -1.9670  -20.8760 H   0  0  0  0  0  0  0  0  0  0  0  0
   -7.3940   -2.1630  -24.2030 C   0  0  0  0  0  0  0  0  0  0  0  0
   -7.5310   -3.0570  -25.4370 C   0  0  0  0  0  0  0  0  0  0  0  0
   -8.0020   -3.9960  -25.1300 H   0  0  0  0  0  0  0  0  0  0  0  0
   -8.2110   -2.5960  -26.1620 H   0  0  0  0  0  0  0  0  0  0  0  0
   -8.3720   -2.0210  -23.7350 H   0  0  0  0  0  0  0  0  0  0  0  0
   -7.0500   -1.1670  -24.5270 H   0  0  0  0  0  0  0  0  0  0  0  0
   -4.5630   -2.2670  -23.9910 H   0  0  0  0  0  0  0  0  0  0  0  0
   -4.6780   -3.6800  -22.9450 H   0  0  0  0  0  0  0  0  0  0  0  0
   -5.7490   -4.9860  -24.7130 H   0  0  0  0  0  0  0  0  0  0  0  0
   -4.2990   -4.2550  -25.3790 H   0  0  0  0  0  0  0  0  0  0  0  0
   -5.6900   -2.3950  -26.3150 H   0  0  0  0  0  0  0  0  0  0  0  0
   -5.1570   -4.4340  -27.5870 H   0  0  0  0  0  0  0  0  0  0  0  0
   -6.5930   -6.1480  -26.4380 H   0  0  0  0  0  0  0  0  0  0  0  0
   -8.0370   -5.3300  -27.0620 H   0  0  0  0  0  0  0  0  0  0  0  0
   -6.8910   -6.0780  -28.1750 H   0  0  0  0  0  0  0  0  0  0  0  0
  1  2  1  0  0  0  0
  1 44  1  0  0  0  0
  1 45  1  0  0  0  0
  1 46  1  0  0  0  0
  2  3  1  0  0  0  0
  2  7  1  0  0  0  0
  2 43  1  0  0  0  0
  3  4  1  0  0  0  0
  3  5  1  0  0  0  0
  3  6  1  0  0  0  0
  7  8  1  0  0  0  0
  7 33  1  0  0  0  0
  7 42  1  0  0  0  0
  8  9  1  0  0  0  0
  8 40  1  0  0  0  0
  8 41  1  0  0  0  0
  9 10  1  0  0  0  0
  9 38  1  0  0  0  0
  9 39  1  0  0  0  0
 10 11  1  0  0  0  0
 10 32  1  0  0  0  0
 11 12  2  0  0  0  0
 11 13  1  0  0  0  0
 13 14  1  0  0  0  0
 13 30  1  0  0  0  0
 13 31  1  0  0  0  0
 14 15  2  0  0  0  0
 14 23  1  0  0  0  0
 15 16  1  0  0  0  0
 15 29  1  0  0  0  0
 16 17  2  0  0  0  0
 17 18  1  0  0  0  0
 17 28  1  0  0  0  0
 18 19  2  0  0  0  0
 18 23  1  0  0  0  0
 19 20  1  0  0  0  0
 19 27  1  0  0  0  0
 20 21  2  0  0  0  0
 20 26  1  0  0  0  0
 21 22  1  0  0  0  0
 21 25  1  0  0  0  0
 22 23  2  0  0  0  0
 22 24  1  0  0  0  0
 32 33  1  0  0  0  0
 32 36  1  0  0  0  0
 32 37  1  0  0  0  0
 33 34  1  0  0  0  0
 33 35  1  0  0  0  0
M  END
>  <MODEL>
       1

$$$$
