tmp_first_model_17_4.pdb
 OpenBabel08282502223D

 59 64  0  0  1  0  0  0  0  0999 V2000
  -10.1380   -3.0080  -22.0560 C   0  0  0  0  0  0  0  0  0  0  0  0
   -9.1100   -2.0430  -22.6690 C   0  0  1  0  0  0  0  0  0  0  0  0
   -8.6470   -0.9930  -21.6340 C   0  0  0  0  0  0  0  0  0  0  0  0
   -7.3700   -1.4940  -21.1850 N   0  0  0  0  0  0  0  0  0  0  0  0
   -6.6090   -0.8760  -20.1710 C   0  0  0  0  0  0  0  0  0  0  0  0
   -6.9740   -1.0490  -18.8610 C   0  0  0  0  0  0  0  0  0  0  0  0
   -6.3050   -0.5240  -17.8050 N   0  0  0  0  0  0  0  0  0  0  0  0
   -5.2450    0.2020  -18.0750 C   0  0  0  0  0  0  0  0  0  0  0  0
   -4.7850    0.4910  -19.3920 C   0  0  0  0  0  0  0  0  0  0  0  0
   -3.6670    1.3360  -19.6160 C   0  0  0  0  0  0  0  0  0  0  0  0
   -3.2920    1.6630  -20.8900 C   0  0  0  0  0  0  0  0  0  0  0  0
   -4.0050    1.1500  -21.9990 C   0  0  0  0  0  0  0  0  0  0  0  0
   -5.0710    0.3000  -21.8130 C   0  0  0  0  0  0  0  0  0  0  0  0
   -5.4850   -0.0520  -20.4900 C   0  0  0  0  0  0  0  0  0  0  0  0
   -5.6070   -0.0880  -22.6780 H   0  0  0  0  0  0  0  0  0  0  0  0
   -3.6960    1.4310  -23.0010 H   0  0  0  0  0  0  0  0  0  0  0  0
   -2.4410    2.3160  -21.0600 H   0  0  0  0  0  0  0  0  0  0  0  0
   -3.1300    1.7170  -18.7530 H   0  0  0  0  0  0  0  0  0  0  0  0
   -4.7000    0.6230  -17.2300 H   0  0  0  0  0  0  0  0  0  0  0  0
   -7.8450   -1.6590  -18.6250 H   0  0  0  0  0  0  0  0  0  0  0  0
   -6.8440   -2.4920  -21.9670 C   0  0  0  0  0  0  0  0  0  0  0  0
   -5.8340   -3.1090  -21.7000 O   0  0  0  0  0  0  0  0  0  0  0  0
   -7.7750   -2.6970  -23.1770 C   0  0  1  0  0  0  0  0  0  0  0  0
   -7.8490   -4.2120  -23.4430 C   0  0  0  0  0  0  0  0  0  0  0  0
   -6.5960   -4.7060  -23.9930 N   0  0  0  0  0  0  0  0  0  0  0  0
   -6.0710   -5.9630  -23.4960 C   0  0  0  0  0  0  0  0  0  0  0  0
   -7.0580   -7.0700  -23.7080 C   0  0  0  0  0  0  0  0  0  0  0  0
   -7.6320   -7.7290  -22.7260 N   0  0  0  0  0  0  0  0  0  0  0  0
   -8.6660   -8.4110  -23.3110 C   0  0  0  0  0  0  0  0  0  0  0  0
   -8.7050   -8.1620  -24.6490 C   0  0  0  0  0  0  0  0  0  0  0  0
   -7.6410   -7.3290  -24.9160 N   0  0  0  0  0  0  0  0  0  0  0  0
   -7.2760   -6.8800  -26.2500 C   0  0  0  0  0  0  0  0  0  0  0  0
   -7.9250   -7.3910  -26.9620 H   0  0  0  0  0  0  0  0  0  0  0  0
   -7.4230   -5.8060  -26.3620 H   0  0  0  0  0  0  0  0  0  0  0  0
   -6.2400   -7.1010  -26.5080 H   0  0  0  0  0  0  0  0  0  0  0  0
   -9.4140   -8.4360  -25.4120 H   0  0  0  0  0  0  0  0  0  0  0  0
   -9.3570   -8.9800  -22.7070 H   0  0  0  0  0  0  0  0  0  0  0  0
   -5.1180   -6.1080  -24.0040 H   0  0  0  0  0  0  0  0  0  0  0  0
   -5.8810   -5.8800  -22.4200 H   0  0  0  0  0  0  0  0  0  0  0  0
   -5.9930   -4.1070  -25.0620 C   0  0  0  0  0  0  0  0  0  0  0  0
   -5.1180   -4.6520  -25.7220 O   0  0  0  0  0  0  0  0  0  0  0  0
   -6.4680   -2.7240  -25.3700 C   0  0  0  0  0  0  0  0  0  0  0  0
   -6.0830   -2.1590  -26.5860 C   0  0  0  0  0  0  0  0  0  0  0  0
   -6.3970   -0.8500  -26.8890 C   0  0  0  0  0  0  0  0  0  0  0  0
   -7.0880   -0.1270  -25.9290 C   0  0  0  0  0  0  0  0  0  0  0  0
   -7.3670    1.1610  -26.1930 F   0  0  0  0  0  0  0  0  0  0  0  0
   -7.5080   -0.6680  -24.7270 C   0  0  0  0  0  0  0  0  0  0  0  0
   -7.2400   -2.0160  -24.4420 C   0  0  0  0  0  0  0  0  0  0  0  0
   -8.0660   -0.0220  -24.0610 H   0  0  0  0  0  0  0  0  0  0  0  0
   -6.0980   -0.3820  -27.8210 H   0  0  0  0  0  0  0  0  0  0  0  0
   -5.5460   -2.7920  -27.2820 H   0  0  0  0  0  0  0  0  0  0  0  0
   -8.6760   -4.4370  -24.1270 H   0  0  0  0  0  0  0  0  0  0  0  0
   -8.0270   -4.7350  -22.5030 H   0  0  0  0  0  0  0  0  0  0  0  0
   -9.3330   -0.9060  -20.7890 H   0  0  0  0  0  0  0  0  0  0  0  0
   -8.5370    0.0150  -22.0610 H   0  0  0  0  0  0  0  0  0  0  0  0
   -9.6130   -1.5490  -23.5060 H   0  0  0  0  0  0  0  0  0  0  0  0
   -9.7310   -3.5700  -21.2080 H   0  0  0  0  0  0  0  0  0  0  0  0
  -10.5020   -3.7230  -22.8020 H   0  0  0  0  0  0  0  0  0  0  0  0
  -11.0110   -2.4530  -21.6890 H   0  0  0  0  0  0  0  0  0  0  0  0
  1  2  1  0  0  0  0
  1 57  1  0  0  0  0
  1 58  1  0  0  0  0
  1 59  1  0  0  0  0
  2  3  1  0  0  0  0
  2 23  1  0  0  0  0
  2 56  1  6  0  0  0
  3  4  1  0  0  0  0
  3 54  1  0  0  0  0
  3 55  1  0  0  0  0
  4  5  1  0  0  0  0
  4 21  1  0  0  0  0
  5  6  2  0  0  0  0
  5 14  1  0  0  0  0
  6  7  1  0  0  0  0
  6 20  1  0  0  0  0
  7  8  2  0  0  0  0
  8  9  1  0  0  0  0
  8 19  1  0  0  0  0
  9 10  2  0  0  0  0
  9 14  1  0  0  0  0
 10 11  1  0  0  0  0
 10 18  1  0  0  0  0
 11 12  2  0  0  0  0
 11 17  1  0  0  0  0
 12 13  1  0  0  0  0
 12 16  1  0  0  0  0
 13 14  2  0  0  0  0
 13 15  1  0  0  0  0
 21 22  2  0  0  0  0
 23 21  1  1  0  0  0
 23 24  1  0  0  0  0
 23 48  1  0  0  0  0
 24 25  1  0  0  0  0
 24 52  1  0  0  0  0
 24 53  1  0  0  0  0
 25 26  1  0  0  0  0
 25 40  1  0  0  0  0
 26 27  1  0  0  0  0
 26 38  1  0  0  0  0
 26 39  1  0  0  0  0
 27 28  2  0  0  0  0
 27 31  1  0  0  0  0
 28 29  1  0  0  0  0
 29 30  2  0  0  0  0
 29 37  1  0  0  0  0
 30 31  1  0  0  0  0
 30 36  1  0  0  0  0
 31 32  1  0  0  0  0
 32 33  1  0  0  0  0
 32 34  1  0  0  0  0
 32 35  1  0  0  0  0
 40 41  2  0  0  0  0
 40 42  1  0  0  0  0
 42 43  2  0  0  0  0
 42 48  1  0  0  0  0
 43 44  1  0  0  0  0
 43 51  1  0  0  0  0
 44 45  2  0  0  0  0
 44 50  1  0  0  0  0
 45 46  1  0  0  0  0
 45 47  1  0  0  0  0
 47 48  2  0  0  0  0
 47 49  1  0  0  0  0
M  END
>  <MODEL>
       1

$$$$
