tmp_first_model_5_3.pdb
 OpenBabel08272519223D

 66 70  0  0  1  0  0  0  0  0999 V2000
   -7.3750    3.5700  -22.7050 C   0  0  0  0  0  0  0  0  0  0  0  0
   -8.3260    2.9910  -23.6390 N   0  0  0  0  0  0  0  0  0  0  0  0
   -7.8830    2.0640  -24.5300 C   0  0  0  0  0  0  0  0  0  0  0  0
   -6.6980    1.7950  -24.6730 O   0  0  0  0  0  0  0  0  0  0  0  0
   -8.9680    1.3670  -25.3510 C   0  0  0  0  0  0  0  0  0  0  0  0
   -9.5290    0.2260  -24.6320 N   0  0  0  0  0  0  0  0  0  0  0  0
   -8.7540   -0.9990  -24.4540 C   0  0  0  0  0  0  0  0  0  0  0  0
   -8.9490   -1.6800  -23.0010 C   0  0  2  0  0  0  0  0  0  0  0  0
   -8.2000   -0.7170  -21.9930 C   0  0  0  0  0  0  0  0  0  0  0  0
   -8.3420    0.4830  -21.8780 O   0  0  0  0  0  0  0  0  0  0  0  0
   -7.3440   -1.4690  -21.2390 N   0  0  0  0  0  0  0  0  0  0  0  0
   -6.5060   -0.9460  -20.2300 C   0  0  0  0  0  0  0  0  0  0  0  0
   -6.8180   -1.1360  -18.9090 C   0  0  0  0  0  0  0  0  0  0  0  0
   -6.0350   -0.7450  -17.8730 N   0  0  0  0  0  0  0  0  0  0  0  0
   -4.8890   -0.1820  -18.1820 C   0  0  0  0  0  0  0  0  0  0  0  0
   -4.4410    0.0560  -19.5270 C   0  0  0  0  0  0  0  0  0  0  0  0
   -3.2730    0.8350  -19.7950 C   0  0  0  0  0  0  0  0  0  0  0  0
   -3.1400    1.4630  -21.0050 C   0  0  0  0  0  0  0  0  0  0  0  0
   -4.0000    1.1330  -22.0810 C   0  0  0  0  0  0  0  0  0  0  0  0
   -5.0300    0.2450  -21.8890 C   0  0  0  0  0  0  0  0  0  0  0  0
   -5.3170   -0.2480  -20.5840 C   0  0  0  0  0  0  0  0  0  0  0  0
   -5.6560   -0.0440  -22.7230 H   0  0  0  0  0  0  0  0  0  0  0  0
   -3.8270    1.5620  -23.0620 H   0  0  0  0  0  0  0  0  0  0  0  0
   -2.3220    2.1590  -21.1600 H   0  0  0  0  0  0  0  0  0  0  0  0
   -2.6480    1.1040  -18.9440 H   0  0  0  0  0  0  0  0  0  0  0  0
   -4.2990    0.2240  -17.3540 H   0  0  0  0  0  0  0  0  0  0  0  0
   -7.7660   -1.5950  -18.6390 H   0  0  0  0  0  0  0  0  0  0  0  0
   -7.3530   -2.8790  -21.5090 C   0  0  0  0  0  0  0  0  0  0  0  0
   -8.1570   -3.0060  -22.8220 C   0  0  2  0  0  0  0  0  0  0  0  0
   -7.2120   -3.3910  -23.9630 C   0  0  0  0  0  0  0  0  0  0  0  0
   -6.1610   -2.4590  -24.0620 O   0  0  0  0  0  0  0  0  0  0  0  0
   -5.2740   -2.7070  -25.1400 C   0  0  0  0  0  0  0  0  0  0  0  0
   -5.5860   -1.8060  -26.3300 C   0  0  0  0  0  0  0  0  0  0  0  0
   -6.5710   -2.0080  -26.7650 H   0  0  0  0  0  0  0  0  0  0  0  0
   -5.5560   -0.7590  -26.0000 H   0  0  0  0  0  0  0  0  0  0  0  0
   -4.8280   -1.9420  -27.1120 H   0  0  0  0  0  0  0  0  0  0  0  0
   -3.9240   -2.3550  -24.5910 C   0  0  0  0  0  0  0  0  0  0  0  0
   -3.1450   -2.4480  -25.3580 H   0  0  0  0  0  0  0  0  0  0  0  0
   -3.6580   -2.9590  -23.7190 H   0  0  0  0  0  0  0  0  0  0  0  0
   -4.0100   -1.3090  -24.2640 H   0  0  0  0  0  0  0  0  0  0  0  0
   -5.3210   -3.7690  -25.4290 H   0  0  0  0  0  0  0  0  0  0  0  0
   -6.7900   -4.3900  -23.7640 H   0  0  0  0  0  0  0  0  0  0  0  0
   -7.7580   -3.4430  -24.9130 H   0  0  0  0  0  0  0  0  0  0  0  0
   -8.9050   -3.8000  -22.7510 H   0  0  0  0  0  0  0  0  0  0  0  0
   -7.8200   -3.4030  -20.6750 H   0  0  0  0  0  0  0  0  0  0  0  0
   -6.3190   -3.2370  -21.5930 H   0  0  0  0  0  0  0  0  0  0  0  0
  -10.4140   -1.9030  -22.7360 C   0  0  0  0  0  0  0  0  0  0  0  0
  -11.1200   -3.0860  -22.2140 C   0  0  0  0  0  0  0  0  0  0  0  0
  -12.5220   -2.5050  -22.0940 C   0  0  0  0  0  0  0  0  0  0  0  0
  -12.7190   -4.0710  -20.3250 Cl  0  0  0  0  0  0  0  0  0  0  0  0
  -12.5240   -2.5030  -22.0960 C   0  0  0  0  0  0  0  0  0  0  0  0
  -12.4900   -1.1550  -22.9440 C   0  0  0  0  0  0  0  0  0  0  0  0
  -11.2820   -0.8780  -23.2470 C   0  0  0  0  0  0  0  0  0  0  0  0
  -10.8210    0.2970  -24.1710 C   0  0  0  0  0  0  0  0  0  0  0  0
  -11.5500    1.2360  -24.4710 O   0  0  0  0  0  0  0  0  0  0  0  0
  -13.4470   -1.0720  -23.3710 H   0  0  0  0  0  0  0  0  0  0  0  0
  -13.6500   -2.5150  -22.4710 H   0  0  0  0  0  0  0  0  0  0  0  0
  -11.1510   -3.0500  -21.2560 H   0  0  0  0  0  0  0  0  0  0  0  0
   -9.0450   -1.7200  -25.2360 H   0  0  0  0  0  0  0  0  0  0  0  0
   -7.7130   -0.7500  -24.6340 H   0  0  0  0  0  0  0  0  0  0  0  0
   -9.7990    2.0420  -25.5670 H   0  0  0  0  0  0  0  0  0  0  0  0
   -8.5140    1.0470  -26.2960 H   0  0  0  0  0  0  0  0  0  0  0  0
   -9.3010    2.9740  -23.3750 H   0  0  0  0  0  0  0  0  0  0  0  0
   -6.6590    4.1920  -23.2500 H   0  0  0  0  0  0  0  0  0  0  0  0
   -6.8190    2.7840  -22.1760 H   0  0  0  0  0  0  0  0  0  0  0  0
   -7.9090    4.1960  -21.9860 H   0  0  0  0  0  0  0  0  0  0  0  0
  1  2  1  0  0  0  0
  1 64  1  0  0  0  0
  1 65  1  0  0  0  0
  1 66  1  0  0  0  0
  2  3  1  0  0  0  0
  2 63  1  0  0  0  0
  3  4  2  0  0  0  0
  3  5  1  0  0  0  0
  5  6  1  0  0  0  0
  5 61  1  0  0  0  0
  5 62  1  0  0  0  0
  6  7  1  0  0  0  0
  6 54  1  0  0  0  0
  7  8  1  0  0  0  0
  7 59  1  0  0  0  0
  7 60  1  0  0  0  0
  8  9  1  1  0  0  0
  8 29  1  0  0  0  0
  8 47  1  0  0  0  0
  9 10  2  0  0  0  0
  9 11  1  0  0  0  0
 11 12  1  0  0  0  0
 11 28  1  0  0  0  0
 12 13  2  0  0  0  0
 12 21  1  0  0  0  0
 13 14  1  0  0  0  0
 13 27  1  0  0  0  0
 14 15  2  0  0  0  0
 15 16  1  0  0  0  0
 15 26  1  0  0  0  0
 16 17  2  0  0  0  0
 16 21  1  0  0  0  0
 17 18  1  0  0  0  0
 17 25  1  0  0  0  0
 18 19  2  0  0  0  0
 18 24  1  0  0  0  0
 19 20  1  0  0  0  0
 19 23  1  0  0  0  0
 20 21  2  0  0  0  0
 20 22  1  0  0  0  0
 28 29  1  0  0  0  0
 28 45  1  0  0  0  0
 28 46  1  0  0  0  0
 29 30  1  0  0  0  0
 29 44  1  1  0  0  0
 30 31  1  0  0  0  0
 30 42  1  0  0  0  0
 30 43  1  0  0  0  0
 31 32  1  0  0  0  0
 32 33  1  0  0  0  0
 32 37  1  0  0  0  0
 32 41  1  0  0  0  0
 33 34  1  0  0  0  0
 33 35  1  0  0  0  0
 33 36  1  0  0  0  0
 37 38  1  0  0  0  0
 37 39  1  0  0  0  0
 37 40  1  0  0  0  0
 47 48  2  0  0  0  0
 47 53  1  0  0  0  0
 48 49  1  0  0  0  0
 48 58  1  0  0  0  0
 49 50  1  0  0  0  0
 49 51  2  0  0  0  0
 51 52  1  0  0  0  0
 51 57  1  0  0  0  0
 52 53  2  0  0  0  0
 52 56  1  0  0  0  0
 53 54  1  0  0  0  0
 54 55  2  0  0  0  0
M  END
>  <MODEL>
       1

$$$$
