tmp_first_model_10_74.pdb
 OpenBabel08272522163D

 43 47  0  0  1  0  0  0  0  0999 V2000
   -5.5270   -3.0640  -21.6540 O   0  0  0  0  0  0  0  0  0  0  0  0
   -6.5920   -2.5270  -21.8350 C   0  0  0  0  0  0  0  0  0  0  0  0
   -7.5140   -2.7620  -22.8370 N   0  0  0  0  0  0  0  0  0  0  0  0
   -8.5960   -1.7950  -22.8320 C   0  0  1  0  0  0  0  0  0  0  0  0
   -8.7370   -0.8340  -24.0410 C   0  0  0  0  0  0  0  0  0  0  0  0
  -10.1290   -1.4400  -24.3590 C   0  0  2  0  0  0  0  0  0  0  0  0
  -11.2880   -0.4940  -24.3450 C   0  0  0  0  0  0  0  0  0  0  0  0
  -11.4250    0.4260  -23.3020 C   0  0  0  0  0  0  0  0  0  0  0  0
  -12.6260    1.0890  -23.0800 C   0  0  0  0  0  0  0  0  0  0  0  0
  -13.7280    0.8250  -23.8870 C   0  0  0  0  0  0  0  0  0  0  0  0
  -13.5870   -0.0350  -24.9660 C   0  0  0  0  0  0  0  0  0  0  0  0
  -12.3590   -0.6230  -25.2240 C   0  0  0  0  0  0  0  0  0  0  0  0
  -12.1720   -1.5450  -26.6900 Cl  0  0  0  0  0  0  0  0  0  0  0  0
  -14.4090   -0.3230  -25.6030 H   0  0  0  0  0  0  0  0  0  0  0  0
  -14.6790    1.2940  -23.6520 H   0  0  0  0  0  0  0  0  0  0  0  0
  -12.7360    1.7680  -22.2420 H   0  0  0  0  0  0  0  0  0  0  0  0
  -10.5930    0.6080  -22.6220 H   0  0  0  0  0  0  0  0  0  0  0  0
  -10.0320   -2.3010  -23.0550 C   0  0  0  0  0  0  0  0  0  0  0  0
  -10.7020   -1.9520  -22.2610 H   0  0  0  0  0  0  0  0  0  0  0  0
  -10.1350   -3.3840  -23.1470 H   0  0  0  0  0  0  0  0  0  0  0  0
  -10.1170   -2.0490  -25.2630 H   0  0  0  0  0  0  0  0  0  0  0  0
   -8.7880    0.2090  -23.7170 H   0  0  0  0  0  0  0  0  0  0  0  0
   -7.9530   -0.9190  -24.7980 H   0  0  0  0  0  0  0  0  0  0  0  0
   -8.3760   -1.0700  -21.5230 C   0  0  0  0  0  0  0  0  0  0  0  0
   -9.0790   -0.2290  -21.0080 O   0  0  0  0  0  0  0  0  0  0  0  0
   -7.1530   -1.5100  -21.0330 N   0  0  0  0  0  0  0  0  0  0  0  0
   -6.4530   -0.8090  -20.0110 C   0  0  0  0  0  0  0  0  0  0  0  0
   -6.7670   -1.0470  -18.7030 C   0  0  0  0  0  0  0  0  0  0  0  0
   -6.0710   -0.5380  -17.6560 N   0  0  0  0  0  0  0  0  0  0  0  0
   -5.0680    0.2610  -17.9340 C   0  0  0  0  0  0  0  0  0  0  0  0
   -4.7110    0.6790  -19.2500 C   0  0  0  0  0  0  0  0  0  0  0  0
   -3.6710    1.6110  -19.4940 C   0  0  0  0  0  0  0  0  0  0  0  0
   -3.4750    2.1080  -20.7520 C   0  0  0  0  0  0  0  0  0  0  0  0
   -4.2960    1.6860  -21.8180 C   0  0  0  0  0  0  0  0  0  0  0  0
   -5.2810    0.7570  -21.6110 C   0  0  0  0  0  0  0  0  0  0  0  0
   -5.4810    0.1960  -20.3230 C   0  0  0  0  0  0  0  0  0  0  0  0
   -5.9330    0.4730  -22.4270 H   0  0  0  0  0  0  0  0  0  0  0  0
   -4.1510    2.1100  -22.8040 H   0  0  0  0  0  0  0  0  0  0  0  0
   -2.7090    2.8540  -20.9270 H   0  0  0  0  0  0  0  0  0  0  0  0
   -3.0590    1.9190  -18.6560 H   0  0  0  0  0  0  0  0  0  0  0  0
   -4.4980    0.6430  -17.0900 H   0  0  0  0  0  0  0  0  0  0  0  0
   -7.6240   -1.6770  -18.4720 H   0  0  0  0  0  0  0  0  0  0  0  0
   -7.1620   -3.1570  -23.6990 H   0  0  0  0  0  0  0  0  0  0  0  0
  1  2  2  0  0  0  0
  2  3  1  0  0  0  0
  2 26  1  0  0  0  0
  3  4  1  0  0  0  0
  3 43  1  0  0  0  0
  4  5  1  0  0  0  0
  4 18  1  0  0  0  0
  4 24  1  1  0  0  0
  5  6  1  0  0  0  0
  5 22  1  0  0  0  0
  5 23  1  0  0  0  0
  6  7  1  0  0  0  0
  6 18  1  0  0  0  0
  6 21  1  6  0  0  0
  7  8  2  0  0  0  0
  7 12  1  0  0  0  0
  8  9  1  0  0  0  0
  8 17  1  0  0  0  0
  9 10  2  0  0  0  0
  9 16  1  0  0  0  0
 10 11  1  0  0  0  0
 10 15  1  0  0  0  0
 11 12  2  0  0  0  0
 11 14  1  0  0  0  0
 12 13  1  0  0  0  0
 18 19  1  0  0  0  0
 18 20  1  0  0  0  0
 24 25  2  0  0  0  0
 24 26  1  0  0  0  0
 26 27  1  0  0  0  0
 27 28  2  0  0  0  0
 27 36  1  0  0  0  0
 28 29  1  0  0  0  0
 28 42  1  0  0  0  0
 29 30  2  0  0  0  0
 30 31  1  0  0  0  0
 30 41  1  0  0  0  0
 31 32  2  0  0  0  0
 31 36  1  0  0  0  0
 32 33  1  0  0  0  0
 32 40  1  0  0  0  0
 33 34  2  0  0  0  0
 33 39  1  0  0  0  0
 34 35  1  0  0  0  0
 34 38  1  0  0  0  0
 35 36  2  0  0  0  0
 35 37  1  0  0  0  0
M  END
>  <MODEL>
       1

$$$$
