tmp_first_model_16_3.pdb
 OpenBabel08282501503D

 66 70  0  0  1  0  0  0  0  0999 V2000
   -7.4510    3.3790  -21.7810 C   0  0  0  0  0  0  0  0  0  0  0  0
   -8.3440    2.9110  -22.8250 N   0  0  0  0  0  0  0  0  0  0  0  0
   -7.8020    2.2160  -23.8620 C   0  0  0  0  0  0  0  0  0  0  0  0
   -6.5960    2.0780  -23.9990 O   0  0  0  0  0  0  0  0  0  0  0  0
   -8.7970    1.6260  -24.8550 C   0  0  0  0  0  0  0  0  0  0  0  0
   -9.4640    0.4580  -24.3280 N   0  0  0  0  0  0  0  0  0  0  0  0
   -8.6980   -0.7610  -24.1680 C   0  0  0  0  0  0  0  0  0  0  0  0
   -9.0770   -1.5160  -22.8750 C   0  0  2  0  0  0  0  0  0  0  0  0
   -8.5620   -0.7520  -21.6390 C   0  0  0  0  0  0  0  0  0  0  0  0
   -9.0540    0.2230  -21.1120 O   0  0  0  0  0  0  0  0  0  0  0  0
   -7.4100   -1.3640  -21.2230 N   0  0  0  0  0  0  0  0  0  0  0  0
   -6.6150   -0.8290  -20.1930 C   0  0  0  0  0  0  0  0  0  0  0  0
   -6.9310   -1.1130  -18.8920 C   0  0  0  0  0  0  0  0  0  0  0  0
   -6.1580   -0.7730  -17.8400 N   0  0  0  0  0  0  0  0  0  0  0  0
   -5.0890   -0.0530  -18.0920 C   0  0  0  0  0  0  0  0  0  0  0  0
   -4.7140    0.4030  -19.3910 C   0  0  0  0  0  0  0  0  0  0  0  0
   -3.6180    1.2790  -19.6120 C   0  0  0  0  0  0  0  0  0  0  0  0
   -3.2540    1.6280  -20.8850 C   0  0  0  0  0  0  0  0  0  0  0  0
   -3.9750    1.1390  -21.9980 C   0  0  0  0  0  0  0  0  0  0  0  0
   -5.0700    0.3310  -21.8090 C   0  0  0  0  0  0  0  0  0  0  0  0
   -5.4720   -0.0370  -20.4950 C   0  0  0  0  0  0  0  0  0  0  0  0
   -5.6330   -0.0150  -22.6700 H   0  0  0  0  0  0  0  0  0  0  0  0
   -3.6660    1.4000  -23.0040 H   0  0  0  0  0  0  0  0  0  0  0  0
   -2.4020    2.2800  -21.0530 H   0  0  0  0  0  0  0  0  0  0  0  0
   -3.0930    1.6840  -18.7530 H   0  0  0  0  0  0  0  0  0  0  0  0
   -4.4510    0.2040  -17.2490 H   0  0  0  0  0  0  0  0  0  0  0  0
   -7.8560   -1.6430  -18.6790 H   0  0  0  0  0  0  0  0  0  0  0  0
   -7.0480   -2.5530  -21.9580 C   0  0  0  0  0  0  0  0  0  0  0  0
   -8.3130   -2.8660  -22.7680 C   0  0  2  0  0  0  0  0  0  0  0  0
   -7.9830   -3.6020  -24.0690 C   0  0  0  0  0  0  0  0  0  0  0  0
   -9.1360   -3.9140  -24.8170 O   0  0  0  0  0  0  0  0  0  0  0  0
   -9.6990   -5.1990  -24.5630 C   0  0  0  0  0  0  0  0  0  0  0  0
  -11.1950   -5.0510  -24.7500 C   0  0  0  0  0  0  0  0  0  0  0  0
  -11.7130   -6.0010  -24.5700 H   0  0  0  0  0  0  0  0  0  0  0  0
  -11.5940   -4.2920  -24.0710 H   0  0  0  0  0  0  0  0  0  0  0  0
  -11.3940   -4.7250  -25.7740 H   0  0  0  0  0  0  0  0  0  0  0  0
   -9.0990   -6.2390  -25.5040 C   0  0  0  0  0  0  0  0  0  0  0  0
   -9.5530   -7.2220  -25.3370 H   0  0  0  0  0  0  0  0  0  0  0  0
   -8.0180   -6.3370  -25.3580 H   0  0  0  0  0  0  0  0  0  0  0  0
   -9.2780   -5.9440  -26.5420 H   0  0  0  0  0  0  0  0  0  0  0  0
   -9.4890   -5.4940  -23.5220 H   0  0  0  0  0  0  0  0  0  0  0  0
   -7.4020   -4.5130  -23.8490 H   0  0  0  0  0  0  0  0  0  0  0  0
   -7.3540   -2.9660  -24.7060 H   0  0  0  0  0  0  0  0  0  0  0  0
   -8.9490   -3.5300  -22.1790 H   0  0  0  0  0  0  0  0  0  0  0  0
   -6.1790   -2.3740  -22.6110 H   0  0  0  0  0  0  0  0  0  0  0  0
   -6.7790   -3.3560  -21.2670 H   0  0  0  0  0  0  0  0  0  0  0  0
  -10.5830   -1.6170  -22.8220 C   0  0  0  0  0  0  0  0  0  0  0  0
  -11.1970   -2.5270  -21.9540 C   0  0  0  0  0  0  0  0  0  0  0  0
  -12.5770   -2.5480  -21.8480 C   0  0  0  0  0  0  0  0  0  0  0  0
  -13.3250   -3.6130  -20.6900 Cl  0  0  0  0  0  0  0  0  0  0  0  0
  -13.3930   -1.7120  -22.6110 C   0  0  0  0  0  0  0  0  0  0  0  0
  -12.7900   -0.7780  -23.4280 C   0  0  0  0  0  0  0  0  0  0  0  0
  -11.4020   -0.7040  -23.5000 C   0  0  0  0  0  0  0  0  0  0  0  0
  -10.8270    0.4560  -24.2460 C   0  0  0  0  0  0  0  0  0  0  0  0
  -11.5230    1.3470  -24.7100 O   0  0  0  0  0  0  0  0  0  0  0  0
  -13.3620   -0.0540  -23.9960 H   0  0  0  0  0  0  0  0  0  0  0  0
  -14.4720   -1.7820  -22.5150 H   0  0  0  0  0  0  0  0  0  0  0  0
  -10.6020   -3.1910  -21.3330 H   0  0  0  0  0  0  0  0  0  0  0  0
   -8.8880   -1.4330  -25.0130 H   0  0  0  0  0  0  0  0  0  0  0  0
   -7.6370   -0.5000  -24.1600 H   0  0  0  0  0  0  0  0  0  0  0  0
   -9.5850    2.3430  -25.1020 H   0  0  0  0  0  0  0  0  0  0  0  0
   -8.2300    1.3730  -25.7520 H   0  0  0  0  0  0  0  0  0  0  0  0
   -9.3010    2.7160  -22.5550 H   0  0  0  0  0  0  0  0  0  0  0  0
   -6.9760    2.5450  -21.2430 H   0  0  0  0  0  0  0  0  0  0  0  0
   -6.6530    3.9640  -22.2360 H   0  0  0  0  0  0  0  0  0  0  0  0
   -7.9800    4.0330  -21.0880 H   0  0  0  0  0  0  0  0  0  0  0  0
  1  2  1  0  0  0  0
  1 64  1  0  0  0  0
  1 65  1  0  0  0  0
  1 66  1  0  0  0  0
  2  3  1  0  0  0  0
  2 63  1  0  0  0  0
  3  4  2  0  0  0  0
  3  5  1  0  0  0  0
  5  6  1  0  0  0  0
  5 61  1  0  0  0  0
  5 62  1  0  0  0  0
  6  7  1  0  0  0  0
  6 54  1  0  0  0  0
  7  8  1  0  0  0  0
  7 59  1  0  0  0  0
  7 60  1  0  0  0  0
  8  9  1  1  0  0  0
  8 29  1  0  0  0  0
  8 47  1  0  0  0  0
  9 10  2  0  0  0  0
  9 11  1  0  0  0  0
 11 12  1  0  0  0  0
 11 28  1  0  0  0  0
 12 13  2  0  0  0  0
 12 21  1  0  0  0  0
 13 14  1  0  0  0  0
 13 27  1  0  0  0  0
 14 15  2  0  0  0  0
 15 16  1  0  0  0  0
 15 26  1  0  0  0  0
 16 17  2  0  0  0  0
 16 21  1  0  0  0  0
 17 18  1  0  0  0  0
 17 25  1  0  0  0  0
 18 19  2  0  0  0  0
 18 24  1  0  0  0  0
 19 20  1  0  0  0  0
 19 23  1  0  0  0  0
 20 21  2  0  0  0  0
 20 22  1  0  0  0  0
 28 29  1  0  0  0  0
 28 45  1  0  0  0  0
 28 46  1  0  0  0  0
 29 30  1  0  0  0  0
 29 44  1  1  0  0  0
 30 31  1  0  0  0  0
 30 42  1  0  0  0  0
 30 43  1  0  0  0  0
 31 32  1  0  0  0  0
 32 33  1  0  0  0  0
 32 37  1  0  0  0  0
 32 41  1  0  0  0  0
 33 34  1  0  0  0  0
 33 35  1  0  0  0  0
 33 36  1  0  0  0  0
 37 38  1  0  0  0  0
 37 39  1  0  0  0  0
 37 40  1  0  0  0  0
 47 48  2  0  0  0  0
 47 53  1  0  0  0  0
 48 49  1  0  0  0  0
 48 58  1  0  0  0  0
 49 50  1  0  0  0  0
 49 51  2  0  0  0  0
 51 52  1  0  0  0  0
 51 57  1  0  0  0  0
 52 53  2  0  0  0  0
 52 56  1  0  0  0  0
 53 54  1  0  0  0  0
 54 55  2  0  0  0  0
M  END
>  <MODEL>
       1

$$$$
