tmp_first_model_13_23.pdb
 OpenBabel08282500103D

 68 73  0  0  1  0  0  0  0  0999 V2000
   -7.3410    3.4130  -21.7990 C   0  0  0  0  0  0  0  0  0  0  0  0
   -8.1310    2.9260  -22.9100 N   0  0  0  0  0  0  0  0  0  0  0  0
   -7.5210    2.2710  -23.9210 C   0  0  0  0  0  0  0  0  0  0  0  0
   -6.3030    2.2060  -24.0190 O   0  0  0  0  0  0  0  0  0  0  0  0
   -8.4470    1.6320  -24.9670 C   0  0  0  0  0  0  0  0  0  0  0  0
   -9.2440    0.5290  -24.4580 N   0  0  0  0  0  0  0  0  0  0  0  0
   -8.6000   -0.7590  -24.2630 C   0  0  0  0  0  0  0  0  0  0  0  0
   -9.0500   -1.4380  -22.9420 C   0  0  2  0  0  0  0  0  0  0  0  0
   -8.4870   -0.6550  -21.7220 C   0  0  0  0  0  0  0  0  0  0  0  0
   -8.8890    0.3950  -21.2700 O   0  0  0  0  0  0  0  0  0  0  0  0
   -7.4190   -1.3550  -21.2050 N   0  0  0  0  0  0  0  0  0  0  0  0
   -6.6090   -0.8000  -20.1780 C   0  0  0  0  0  0  0  0  0  0  0  0
   -6.9070   -1.0380  -18.8620 C   0  0  0  0  0  0  0  0  0  0  0  0
   -6.1960   -0.5480  -17.8180 N   0  0  0  0  0  0  0  0  0  0  0  0
   -5.1620    0.2090  -18.0800 C   0  0  0  0  0  0  0  0  0  0  0  0
   -4.7260    0.5330  -19.3950 C   0  0  0  0  0  0  0  0  0  0  0  0
   -3.5970    1.3630  -19.6400 C   0  0  0  0  0  0  0  0  0  0  0  0
   -3.2070    1.6490  -20.9190 C   0  0  0  0  0  0  0  0  0  0  0  0
   -3.9280    1.1160  -22.0120 C   0  0  0  0  0  0  0  0  0  0  0  0
   -5.0250    0.3150  -21.7990 C   0  0  0  0  0  0  0  0  0  0  0  0
   -5.4640    0.0070  -20.4850 C   0  0  0  0  0  0  0  0  0  0  0  0
   -5.5770   -0.0770  -22.6490 H   0  0  0  0  0  0  0  0  0  0  0  0
   -3.6380    1.3510  -23.0290 H   0  0  0  0  0  0  0  0  0  0  0  0
   -2.3540    2.2970  -21.1010 H   0  0  0  0  0  0  0  0  0  0  0  0
   -3.0670    1.7730  -18.7830 H   0  0  0  0  0  0  0  0  0  0  0  0
   -4.6160    0.6120  -17.2270 H   0  0  0  0  0  0  0  0  0  0  0  0
   -7.7570   -1.6630  -18.5990 H   0  0  0  0  0  0  0  0  0  0  0  0
   -7.1120   -2.5800  -21.9140 C   0  0  0  0  0  0  0  0  0  0  0  0
   -8.3800   -2.8420  -22.7500 C   0  0  2  0  0  0  0  0  0  0  0  0
   -8.0840   -3.6800  -24.0260 C   0  0  0  0  0  0  0  0  0  0  0  0
   -7.6920   -5.0600  -23.7950 N   0  0  0  0  0  0  0  0  0  0  0  0
   -6.4440   -5.4660  -23.3400 C   0  0  0  0  0  0  0  0  0  0  0  0
   -6.3290   -6.5790  -22.4880 C   0  0  0  0  0  0  0  0  0  0  0  0
   -5.0840   -7.0150  -22.0550 C   0  0  0  0  0  0  0  0  0  0  0  0
   -3.9210   -6.3660  -22.4650 C   0  0  0  0  0  0  0  0  0  0  0  0
   -4.0270   -5.2680  -23.3120 C   0  0  0  0  0  0  0  0  0  0  0  0
   -5.2690   -4.8180  -23.7440 C   0  0  0  0  0  0  0  0  0  0  0  0
   -5.3300   -3.9650  -24.4190 H   0  0  0  0  0  0  0  0  0  0  0  0
   -3.1320   -4.7500  -23.6530 H   0  0  0  0  0  0  0  0  0  0  0  0
   -2.9450   -6.7170  -22.1520 H   0  0  0  0  0  0  0  0  0  0  0  0
   -5.0220   -7.8830  -21.4010 H   0  0  0  0  0  0  0  0  0  0  0  0
   -7.2260   -7.1040  -22.1640 H   0  0  0  0  0  0  0  0  0  0  0  0
   -8.4430   -5.6910  -23.5650 H   0  0  0  0  0  0  0  0  0  0  0  0
   -8.9860   -3.7180  -24.6480 H   0  0  0  0  0  0  0  0  0  0  0  0
   -7.2980   -3.1830  -24.6160 H   0  0  0  0  0  0  0  0  0  0  0  0
   -9.0750   -3.4190  -22.1330 H   0  0  0  0  0  0  0  0  0  0  0  0
   -6.8900   -3.3970  -21.2190 H   0  0  0  0  0  0  0  0  0  0  0  0
   -6.2210   -2.4580  -22.5530 H   0  0  0  0  0  0  0  0  0  0  0  0
  -10.5700   -1.4030  -22.8910 C   0  0  0  0  0  0  0  0  0  0  0  0
  -11.2730   -2.2410  -22.0160 C   0  0  0  0  0  0  0  0  0  0  0  0
  -12.6520   -2.1850  -21.9550 C   0  0  0  0  0  0  0  0  0  0  0  0
  -13.5060   -3.2430  -20.8690 Cl  0  0  0  0  0  0  0  0  0  0  0  0
  -13.3810   -1.2850  -22.7320 C   0  0  0  0  0  0  0  0  0  0  0  0
  -12.6920   -0.4040  -23.5400 C   0  0  0  0  0  0  0  0  0  0  0  0
  -11.2990   -0.4350  -23.6020 C   0  0  0  0  0  0  0  0  0  0  0  0
  -10.6060    0.6520  -24.3740 C   0  0  0  0  0  0  0  0  0  0  0  0
  -11.2190    1.5950  -24.8540 O   0  0  0  0  0  0  0  0  0  0  0  0
  -13.2080    0.3490  -24.1260 H   0  0  0  0  0  0  0  0  0  0  0  0
  -14.4630   -1.2670  -22.6690 H   0  0  0  0  0  0  0  0  0  0  0  0
  -10.7580   -2.9250  -21.3510 H   0  0  0  0  0  0  0  0  0  0  0  0
   -7.5210   -0.5750  -24.2320 H   0  0  0  0  0  0  0  0  0  0  0  0
   -8.8220   -1.4300  -25.1100 H   0  0  0  0  0  0  0  0  0  0  0  0
   -7.7780    1.2970  -25.7670 H   0  0  0  0  0  0  0  0  0  0  0  0
   -9.1650    2.3540  -25.3700 H   0  0  0  0  0  0  0  0  0  0  0  0
   -9.1360    2.8700  -22.8090 H   0  0  0  0  0  0  0  0  0  0  0  0
   -6.6490    4.2010  -22.1220 H   0  0  0  0  0  0  0  0  0  0  0  0
   -6.7530    2.6010  -21.3420 H   0  0  0  0  0  0  0  0  0  0  0  0
   -8.0420    3.8270  -21.0800 H   0  0  0  0  0  0  0  0  0  0  0  0
  1  2  1  0  0  0  0
  1 66  1  0  0  0  0
  1 67  1  0  0  0  0
  1 68  1  0  0  0  0
  2  3  1  0  0  0  0
  2 65  1  0  0  0  0
  3  4  2  0  0  0  0
  3  5  1  0  0  0  0
  5  6  1  0  0  0  0
  5 63  1  0  0  0  0
  5 64  1  0  0  0  0
  6  7  1  0  0  0  0
  6 56  1  0  0  0  0
  7  8  1  0  0  0  0
  7 61  1  0  0  0  0
  7 62  1  0  0  0  0
  8  9  1  1  0  0  0
  8 29  1  0  0  0  0
  8 49  1  0  0  0  0
  9 10  2  0  0  0  0
  9 11  1  0  0  0  0
 11 12  1  0  0  0  0
 11 28  1  0  0  0  0
 12 13  2  0  0  0  0
 12 21  1  0  0  0  0
 13 14  1  0  0  0  0
 13 27  1  0  0  0  0
 14 15  2  0  0  0  0
 15 16  1  0  0  0  0
 15 26  1  0  0  0  0
 16 17  2  0  0  0  0
 16 21  1  0  0  0  0
 17 18  1  0  0  0  0
 17 25  1  0  0  0  0
 18 19  2  0  0  0  0
 18 24  1  0  0  0  0
 19 20  1  0  0  0  0
 19 23  1  0  0  0  0
 20 21  2  0  0  0  0
 20 22  1  0  0  0  0
 28 29  1  0  0  0  0
 28 47  1  0  0  0  0
 28 48  1  0  0  0  0
 29 30  1  0  0  0  0
 29 46  1  1  0  0  0
 30 31  1  0  0  0  0
 30 44  1  0  0  0  0
 30 45  1  0  0  0  0
 31 32  1  0  0  0  0
 31 43  1  0  0  0  0
 32 33  2  0  0  0  0
 32 37  1  0  0  0  0
 33 34  1  0  0  0  0
 33 42  1  0  0  0  0
 34 35  2  0  0  0  0
 34 41  1  0  0  0  0
 35 36  1  0  0  0  0
 35 40  1  0  0  0  0
 36 37  2  0  0  0  0
 36 39  1  0  0  0  0
 37 38  1  0  0  0  0
 49 50  2  0  0  0  0
 49 55  1  0  0  0  0
 50 51  1  0  0  0  0
 50 60  1  0  0  0  0
 51 52  1  0  0  0  0
 51 53  2  0  0  0  0
 53 54  1  0  0  0  0
 53 59  1  0  0  0  0
 54 55  2  0  0  0  0
 54 58  1  0  0  0  0
 55 56  1  0  0  0  0
 56 57  2  0  0  0  0
M  END
>  <MODEL>
       1

$$$$
