tmp_first_model_3_88.pdb
 OpenBabel08272518143D

 40 42  0  0  0  0  0  0  0  0999 V2000
   -5.5830   -3.0080  -21.6310 O   0  0  0  0  0  0  0  0  0  0  0  0
   -6.7750   -2.7890  -21.7890 C   0  0  0  0  0  0  0  0  0  0  0  0
   -7.4100   -1.4850  -21.2640 C   0  0  0  0  0  0  0  0  0  0  0  0
   -6.5820   -0.8300  -20.1820 C   0  0  0  0  0  0  0  0  0  0  0  0
   -6.8810   -1.0460  -18.8610 C   0  0  0  0  0  0  0  0  0  0  0  0
   -6.1970   -0.5370  -17.7990 N   0  0  0  0  0  0  0  0  0  0  0  0
   -5.1620    0.2190  -18.0700 C   0  0  0  0  0  0  0  0  0  0  0  0
   -4.7220    0.5240  -19.3850 C   0  0  0  0  0  0  0  0  0  0  0  0
   -3.5950    1.3500  -19.6220 C   0  0  0  0  0  0  0  0  0  0  0  0
   -3.1910    1.6260  -20.9000 C   0  0  0  0  0  0  0  0  0  0  0  0
   -3.9010    1.0820  -21.9950 C   0  0  0  0  0  0  0  0  0  0  0  0
   -4.9950    0.2790  -21.7900 C   0  0  0  0  0  0  0  0  0  0  0  0
   -5.4440   -0.0180  -20.4760 C   0  0  0  0  0  0  0  0  0  0  0  0
   -5.5250   -0.1480  -22.6360 H   0  0  0  0  0  0  0  0  0  0  0  0
   -3.5790    1.3140  -23.0060 H   0  0  0  0  0  0  0  0  0  0  0  0
   -2.3350    2.2700  -21.0770 H   0  0  0  0  0  0  0  0  0  0  0  0
   -3.0770    1.7680  -18.7620 H   0  0  0  0  0  0  0  0  0  0  0  0
   -4.6140    0.6280  -17.2180 H   0  0  0  0  0  0  0  0  0  0  0  0
   -7.7290   -1.6700  -18.5820 H   0  0  0  0  0  0  0  0  0  0  0  0
   -8.4100   -1.7100  -20.8640 H   0  0  0  0  0  0  0  0  0  0  0  0
   -7.5640   -0.8010  -22.1100 H   0  0  0  0  0  0  0  0  0  0  0  0
   -7.5900   -3.7060  -22.4190 N   0  0  0  0  0  0  0  0  0  0  0  0
   -7.2960   -5.1170  -22.2140 C   0  0  0  0  0  0  0  0  0  0  0  0
   -7.5130   -5.9620  -23.4620 C   0  0  0  0  0  0  0  0  0  0  0  0
   -8.9620   -5.7740  -23.8950 C   0  0  0  0  0  0  0  0  0  0  0  0
   -9.3210   -6.6020  -25.1070 C   0  0  0  0  0  0  0  0  0  0  0  0
   -8.5030   -6.2730  -26.1510 F   0  0  0  0  0  0  0  0  0  0  0  0
   -9.1380   -7.9270  -24.8350 F   0  0  0  0  0  0  0  0  0  0  0  0
  -10.3610   -6.4750  -25.4340 H   0  0  0  0  0  0  0  0  0  0  0  0
   -9.2650   -4.2900  -24.0910 C   0  0  0  0  0  0  0  0  0  0  0  0
   -8.9640   -3.4750  -22.8280 C   0  0  0  0  0  0  0  0  0  0  0  0
   -9.6770   -3.7740  -22.0290 H   0  0  0  0  0  0  0  0  0  0  0  0
   -9.0990   -2.4080  -23.0160 H   0  0  0  0  0  0  0  0  0  0  0  0
   -8.6630   -3.9160  -24.9270 H   0  0  0  0  0  0  0  0  0  0  0  0
  -10.3260   -4.1640  -24.3290 H   0  0  0  0  0  0  0  0  0  0  0  0
   -9.5860   -6.1430  -23.0850 H   0  0  0  0  0  0  0  0  0  0  0  0
   -6.8220   -5.7020  -24.2750 H   0  0  0  0  0  0  0  0  0  0  0  0
   -7.3460   -7.0140  -23.1990 H   0  0  0  0  0  0  0  0  0  0  0  0
   -6.2760   -5.1750  -21.8420 H   0  0  0  0  0  0  0  0  0  0  0  0
   -8.0090   -5.4820  -21.4500 H   0  0  0  0  0  0  0  0  0  0  0  0
  1  2  2  0  0  0  0
  2  3  1  0  0  0  0
  2 22  1  0  0  0  0
  3  4  1  0  0  0  0
  3 20  1  0  0  0  0
  3 21  1  0  0  0  0
  4  5  2  0  0  0  0
  4 13  1  0  0  0  0
  5  6  1  0  0  0  0
  5 19  1  0  0  0  0
  6  7  2  0  0  0  0
  7  8  1  0  0  0  0
  7 18  1  0  0  0  0
  8  9  2  0  0  0  0
  8 13  1  0  0  0  0
  9 10  1  0  0  0  0
  9 17  1  0  0  0  0
 10 11  2  0  0  0  0
 10 16  1  0  0  0  0
 11 12  1  0  0  0  0
 11 15  1  0  0  0  0
 12 13  2  0  0  0  0
 12 14  1  0  0  0  0
 22 23  1  0  0  0  0
 22 31  1  0  0  0  0
 23 24  1  0  0  0  0
 23 39  1  0  0  0  0
 23 40  1  0  0  0  0
 24 25  1  0  0  0  0
 24 37  1  0  0  0  0
 24 38  1  0  0  0  0
 25 26  1  0  0  0  0
 25 30  1  0  0  0  0
 25 36  1  0  0  0  0
 26 27  1  0  0  0  0
 26 28  1  0  0  0  0
 26 29  1  0  0  0  0
 30 31  1  0  0  0  0
 30 34  1  0  0  0  0
 30 35  1  0  0  0  0
 31 32  1  0  0  0  0
 31 33  1  0  0  0  0
M  END
>  <MODEL>
       1

$$$$
