tmp_first_model_14_14.pdb
 OpenBabel08282500413D

 73 78  0  0  1  0  0  0  0  0999 V2000
   -8.4180   -4.1660  -23.4080 C   0  0  0  0  0  0  0  0  0  0  0  0
   -8.5340   -2.9400  -22.5200 C   0  0  1  0  0  0  0  0  0  0  0  0
   -7.3370   -2.6900  -21.6060 C   0  0  0  0  0  0  0  0  0  0  0  0
   -7.4270   -1.2710  -21.3350 N   0  0  0  0  0  0  0  0  0  0  0  0
   -6.6540   -0.6760  -20.3110 C   0  0  0  0  0  0  0  0  0  0  0  0
   -6.9780   -0.9340  -19.0040 C   0  0  0  0  0  0  0  0  0  0  0  0
   -6.3130   -0.4430  -17.9330 N   0  0  0  0  0  0  0  0  0  0  0  0
   -5.2540    0.2930  -18.1670 C   0  0  0  0  0  0  0  0  0  0  0  0
   -4.7720    0.5950  -19.4700 C   0  0  0  0  0  0  0  0  0  0  0  0
   -3.6050    1.3810  -19.6650 C   0  0  0  0  0  0  0  0  0  0  0  0
   -3.1420    1.6350  -20.9260 C   0  0  0  0  0  0  0  0  0  0  0  0
   -3.8200    1.1090  -22.0490 C   0  0  0  0  0  0  0  0  0  0  0  0
   -4.9540    0.3520  -21.8880 C   0  0  0  0  0  0  0  0  0  0  0  0
   -5.4750    0.0900  -20.5890 C   0  0  0  0  0  0  0  0  0  0  0  0
   -5.4590   -0.0540  -22.7600 H   0  0  0  0  0  0  0  0  0  0  0  0
   -3.4400    1.3110  -23.0460 H   0  0  0  0  0  0  0  0  0  0  0  0
   -2.2580    2.2500  -21.0740 H   0  0  0  0  0  0  0  0  0  0  0  0
   -3.0960    1.7790  -18.7910 H   0  0  0  0  0  0  0  0  0  0  0  0
   -4.7120    0.6780  -17.3020 H   0  0  0  0  0  0  0  0  0  0  0  0
   -7.8360   -1.5660  -18.7790 H   0  0  0  0  0  0  0  0  0  0  0  0
   -8.2790   -0.5880  -22.1810 C   0  0  0  0  0  0  0  0  0  0  0  0
   -8.5180    0.6010  -22.1060 O   0  0  0  0  0  0  0  0  0  0  0  0
   -8.7830   -1.5790  -23.2500 C   0  0  1  0  0  0  0  0  0  0  0  0
   -7.8990   -1.3250  -24.5150 C   0  0  0  0  0  0  0  0  0  0  0  0
   -8.4190   -1.8710  -25.7650 N   0  0  0  0  0  0  0  0  0  0  0  0
   -7.5370   -2.1010  -26.9100 C   0  0  0  0  0  0  0  0  0  0  0  0
   -7.0640   -3.5490  -27.0480 C   0  0  0  0  0  0  0  0  0  0  0  0
   -8.1830   -4.5430  -27.1540 N   0  3  0  0  0  0  0  0  0  0  0  0
   -7.7210   -5.9100  -26.7070 C   0  0  0  0  0  0  0  0  0  0  0  0
   -8.5900   -7.0350  -27.2630 C   0  0  0  0  0  0  0  0  0  0  0  0
   -8.5760   -7.0830  -28.7390 N   0  0  0  0  0  0  0  0  0  0  0  0
   -7.7130   -8.3090  -29.5200 S   0  0  0  0  0  0  0  0  0  0  0  0
   -7.6900   -7.9360  -30.9270 O   0  0  0  0  0  0  0  0  0  0  0  0
   -6.4630   -8.5400  -28.8090 O   0  0  0  0  0  0  0  0  0  0  0  0
   -8.6740   -9.8240  -29.4160 C   0  0  0  0  0  0  0  0  0  0  0  0
   -9.4010   -9.8310  -30.2300 H   0  0  0  0  0  0  0  0  0  0  0  0
   -7.9680  -10.6480  -29.5460 H   0  0  0  0  0  0  0  0  0  0  0  0
   -9.1670   -9.9130  -28.4430 H   0  0  0  0  0  0  0  0  0  0  0  0
   -8.2550   -5.7720  -29.3460 C   0  0  0  0  0  0  0  0  0  0  0  0
   -8.8150   -4.6200  -28.5290 C   0  0  0  0  0  0  0  0  0  0  0  0
   -9.8960   -4.7210  -28.4020 H   0  0  0  0  0  0  0  0  0  0  0  0
   -8.6240   -3.6800  -29.0470 H   0  0  0  0  0  0  0  0  0  0  0  0
   -7.1680   -5.6320  -29.4620 H   0  0  0  0  0  0  0  0  0  0  0  0
   -8.6870   -5.7940  -30.3380 H   0  0  0  0  0  0  0  0  0  0  0  0
   -9.6290   -6.8860  -26.9420 H   0  0  0  0  0  0  0  0  0  0  0  0
   -8.2510   -7.9840  -26.8520 H   0  0  0  0  0  0  0  0  0  0  0  0
   -6.6860   -6.0540  -27.0410 H   0  0  0  0  0  0  0  0  0  0  0  0
   -7.7180   -5.9400  -25.6140 H   0  0  0  0  0  0  0  0  0  0  0  0
   -8.9330   -4.2260  -26.5250 H   0  0  0  0  0  0  0  0  0  0  0  0
   -6.4180   -3.6410  -27.9290 H   0  0  0  0  0  0  0  0  0  0  0  0
   -6.4600   -3.8150  -26.1740 H   0  0  0  0  0  0  0  0  0  0  0  0
   -6.6670   -1.4380  -26.8450 H   0  0  0  0  0  0  0  0  0  0  0  0
   -8.1010   -1.8240  -27.8030 H   0  0  0  0  0  0  0  0  0  0  0  0
   -9.7510   -1.9820  -26.0020 C   0  0  0  0  0  0  0  0  0  0  0  0
  -10.1820   -2.4610  -27.0530 O   0  0  0  0  0  0  0  0  0  0  0  0
  -10.6860   -1.5940  -24.9120 C   0  0  0  0  0  0  0  0  0  0  0  0
  -12.0390   -1.5820  -25.2310 C   0  0  0  0  0  0  0  0  0  0  0  0
  -12.9940   -1.4540  -24.2430 C   0  0  0  0  0  0  0  0  0  0  0  0
  -12.5740   -1.3530  -22.9170 C   0  0  0  0  0  0  0  0  0  0  0  0
  -13.8090   -1.3050  -21.6930 Cl  0  0  0  0  0  0  0  0  0  0  0  0
  -11.2250   -1.3500  -22.5870 C   0  0  0  0  0  0  0  0  0  0  0  0
  -10.2500   -1.4340  -23.5970 C   0  0  0  0  0  0  0  0  0  0  0  0
  -10.9270   -1.3360  -21.5460 H   0  0  0  0  0  0  0  0  0  0  0  0
  -14.0480   -1.5000  -24.4870 H   0  0  0  0  0  0  0  0  0  0  0  0
  -12.3150   -1.7190  -26.2710 H   0  0  0  0  0  0  0  0  0  0  0  0
   -6.9040   -1.7570  -24.3510 H   0  0  0  0  0  0  0  0  0  0  0  0
   -7.7860   -0.2350  -24.6050 H   0  0  0  0  0  0  0  0  0  0  0  0
   -6.3820   -2.9540  -22.0820 H   0  0  0  0  0  0  0  0  0  0  0  0
   -7.3950   -3.2480  -20.6710 H   0  0  0  0  0  0  0  0  0  0  0  0
   -9.4060   -3.0720  -21.8650 H   0  0  0  0  0  0  0  0  0  0  0  0
   -7.5320   -4.0990  -24.0480 H   0  0  0  0  0  0  0  0  0  0  0  0
   -8.3300   -5.0750  -22.8050 H   0  0  0  0  0  0  0  0  0  0  0  0
   -9.3000   -4.2620  -24.0530 H   0  0  0  0  0  0  0  0  0  0  0  0
  1  2  1  0  0  0  0
  1 71  1  0  0  0  0
  1 72  1  0  0  0  0
  1 73  1  0  0  0  0
  2  3  1  0  0  0  0
  2 23  1  0  0  0  0
  2 70  1  1  0  0  0
  3  4  1  0  0  0  0
  3 68  1  0  0  0  0
  3 69  1  0  0  0  0
  4  5  1  0  0  0  0
  4 21  1  0  0  0  0
  5  6  2  0  0  0  0
  5 14  1  0  0  0  0
  6  7  1  0  0  0  0
  6 20  1  0  0  0  0
  7  8  2  0  0  0  0
  8  9  1  0  0  0  0
  8 19  1  0  0  0  0
  9 10  2  0  0  0  0
  9 14  1  0  0  0  0
 10 11  1  0  0  0  0
 10 18  1  0  0  0  0
 11 12  2  0  0  0  0
 11 17  1  0  0  0  0
 12 13  1  0  0  0  0
 12 16  1  0  0  0  0
 13 14  2  0  0  0  0
 13 15  1  0  0  0  0
 21 22  2  0  0  0  0
 23 21  1  1  0  0  0
 23 24  1  0  0  0  0
 23 62  1  0  0  0  0
 24 25  1  0  0  0  0
 24 66  1  0  0  0  0
 24 67  1  0  0  0  0
 25 26  1  0  0  0  0
 25 54  1  0  0  0  0
 26 27  1  0  0  0  0
 26 52  1  0  0  0  0
 26 53  1  0  0  0  0
 27 28  1  0  0  0  0
 27 50  1  0  0  0  0
 27 51  1  0  0  0  0
 28 29  1  0  0  0  0
 28 40  1  0  0  0  0
 28 49  1  0  0  0  0
 29 30  1  0  0  0  0
 29 47  1  0  0  0  0
 29 48  1  0  0  0  0
 30 31  1  0  0  0  0
 30 45  1  0  0  0  0
 30 46  1  0  0  0  0
 31 32  1  0  0  0  0
 31 39  1  0  0  0  0
 32 33  2  0  0  0  0
 32 34  2  0  0  0  0
 32 35  1  0  0  0  0
 35 36  1  0  0  0  0
 35 37  1  0  0  0  0
 35 38  1  0  0  0  0
 39 40  1  0  0  0  0
 39 43  1  0  0  0  0
 39 44  1  0  0  0  0
 40 41  1  0  0  0  0
 40 42  1  0  0  0  0
 54 55  2  0  0  0  0
 54 56  1  0  0  0  0
 56 57  2  0  0  0  0
 56 62  1  0  0  0  0
 57 58  1  0  0  0  0
 57 65  1  0  0  0  0
 58 59  2  0  0  0  0
 58 64  1  0  0  0  0
 59 60  1  0  0  0  0
 59 61  1  0  0  0  0
 61 62  2  0  0  0  0
 61 63  1  0  0  0  0
M  CHG  1  28   1
M  END
>  <MODEL>
       1

$$$$
