tmp_first_model_6_11.pdb
 OpenBabel08272519583D

 48 52  0  0  0  0  0  0  0  0999 V2000
  -10.4840   -2.3090  -22.4340 C   0  0  0  0  0  0  0  0  0  0  0  0
   -9.0950   -1.9890  -22.1760 N   0  0  0  0  0  0  0  0  0  0  0  0
   -8.7090   -0.9700  -21.3430 C   0  0  0  0  0  0  0  0  0  0  0  0
   -9.3950   -0.0910  -20.8750 O   0  0  0  0  0  0  0  0  0  0  0  0
   -7.3270   -1.1260  -21.1490 N   0  0  0  0  0  0  0  0  0  0  0  0
   -6.5940   -0.5520  -20.0800 C   0  0  0  0  0  0  0  0  0  0  0  0
   -6.8910   -0.8810  -18.7830 C   0  0  0  0  0  0  0  0  0  0  0  0
   -6.1690   -0.4640  -17.7160 N   0  0  0  0  0  0  0  0  0  0  0  0
   -5.1310    0.3030  -17.9530 C   0  0  0  0  0  0  0  0  0  0  0  0
   -4.7200    0.7140  -19.2530 C   0  0  0  0  0  0  0  0  0  0  0  0
   -3.5820    1.5360  -19.4650 C   0  0  0  0  0  0  0  0  0  0  0  0
   -3.2220    1.9050  -20.7320 C   0  0  0  0  0  0  0  0  0  0  0  0
   -3.9820    1.4820  -21.8450 C   0  0  0  0  0  0  0  0  0  0  0  0
   -5.0880    0.6920  -21.6680 C   0  0  0  0  0  0  0  0  0  0  0  0
   -5.4740    0.2810  -20.3610 C   0  0  0  0  0  0  0  0  0  0  0  0
   -5.6700    0.3600  -22.5230 H   0  0  0  0  0  0  0  0  0  0  0  0
   -3.6860    1.7760  -22.8480 H   0  0  0  0  0  0  0  0  0  0  0  0
   -2.3510    2.5330  -20.8960 H   0  0  0  0  0  0  0  0  0  0  0  0
   -3.0140    1.8620  -18.5990 H   0  0  0  0  0  0  0  0  0  0  0  0
   -4.5520    0.6360  -17.0900 H   0  0  0  0  0  0  0  0  0  0  0  0
   -7.7350   -1.5340  -18.5640 H   0  0  0  0  0  0  0  0  0  0  0  0
   -6.8100   -2.1710  -21.9050 C   0  0  0  0  0  0  0  0  0  0  0  0
   -5.6660   -2.5580  -21.8990 O   0  0  0  0  0  0  0  0  0  0  0  0
   -7.9740   -2.7410  -22.6810 C   0  0  0  0  0  0  0  0  0  0  0  0
   -7.7800   -2.8340  -24.2140 C   0  0  0  0  0  0  0  0  0  0  0  0
   -7.8150   -4.3190  -24.1160 N   0  0  0  0  0  0  0  0  0  0  0  0
   -9.0230   -5.0950  -24.9860 S   0  0  0  0  0  0  0  0  0  0  0  0
   -8.9190   -4.6210  -26.3540 O   0  0  0  0  0  0  0  0  0  0  0  0
  -10.2920   -5.0380  -24.2670 O   0  0  0  0  0  0  0  0  0  0  0  0
   -8.4560   -6.8240  -24.8570 C   0  0  0  0  0  0  0  0  0  0  0  0
   -9.8420   -8.1340  -24.7420 C   0  0  0  0  0  0  0  0  0  0  0  0
   -9.4910   -8.2400  -24.8330 C   0  0  0  0  0  0  0  0  0  0  0  0
   -8.8090   -9.1660  -23.7310 C   0  0  0  0  0  0  0  0  0  0  0  0
   -7.6340   -8.5090  -23.3510 C   0  0  0  0  0  0  0  0  0  0  0  0
   -7.4710   -7.2040  -23.9220 C   0  0  0  0  0  0  0  0  0  0  0  0
   -6.6520   -6.5430  -23.6320 H   0  0  0  0  0  0  0  0  0  0  0  0
   -6.9010   -8.9370  -22.6700 H   0  0  0  0  0  0  0  0  0  0  0  0
   -8.7590  -10.2160  -24.0220 H   0  0  0  0  0  0  0  0  0  0  0  0
  -10.1720   -8.5210  -25.8860 H   0  0  0  0  0  0  0  0  0  0  0  0
  -10.7080   -7.6560  -24.1790 H   0  0  0  0  0  0  0  0  0  0  0  0
   -7.9870   -4.2760  -22.6440 C   0  0  0  0  0  0  0  0  0  0  0  0
   -7.1000   -4.6700  -22.1450 H   0  0  0  0  0  0  0  0  0  0  0  0
   -8.8910   -4.7700  -22.2830 H   0  0  0  0  0  0  0  0  0  0  0  0
   -6.8080   -2.4800  -24.5570 H   0  0  0  0  0  0  0  0  0  0  0  0
   -8.5840   -2.3880  -24.8070 H   0  0  0  0  0  0  0  0  0  0  0  0
  -10.6900   -2.3580  -23.5090 H   0  0  0  0  0  0  0  0  0  0  0  0
  -10.7580   -3.2650  -21.9720 H   0  0  0  0  0  0  0  0  0  0  0  0
  -11.0790   -1.5160  -21.9810 H   0  0  0  0  0  0  0  0  0  0  0  0
  1  2  1  0  0  0  0
  1 46  1  0  0  0  0
  1 47  1  0  0  0  0
  1 48  1  0  0  0  0
  2  3  1  0  0  0  0
  2 24  1  0  0  0  0
  3  4  2  0  0  0  0
  3  5  1  0  0  0  0
  5  6  1  0  0  0  0
  5 22  1  0  0  0  0
  6  7  2  0  0  0  0
  6 15  1  0  0  0  0
  7  8  1  0  0  0  0
  7 21  1  0  0  0  0
  8  9  2  0  0  0  0
  9 10  1  0  0  0  0
  9 20  1  0  0  0  0
 10 11  2  0  0  0  0
 10 15  1  0  0  0  0
 11 12  1  0  0  0  0
 11 19  1  0  0  0  0
 12 13  2  0  0  0  0
 12 18  1  0  0  0  0
 13 14  1  0  0  0  0
 13 17  1  0  0  0  0
 14 15  2  0  0  0  0
 14 16  1  0  0  0  0
 22 23  2  0  0  0  0
 22 24  1  0  0  0  0
 24 25  1  0  0  0  0
 24 41  1  0  0  0  0
 25 26  1  0  0  0  0
 25 44  1  0  0  0  0
 25 45  1  0  0  0  0
 26 27  1  0  0  0  0
 26 41  1  0  0  0  0
 27 28  2  0  0  0  0
 27 29  2  0  0  0  0
 27 30  1  0  0  0  0
 30 31  2  0  0  0  0
 30 35  1  0  0  0  0
 31 32  1  0  0  0  0
 31 40  1  0  0  0  0
 32 33  2  0  0  0  0
 32 39  1  0  0  0  0
 33 34  1  0  0  0  0
 33 38  1  0  0  0  0
 34 35  2  0  0  0  0
 34 37  1  0  0  0  0
 35 36  1  0  0  0  0
 41 42  1  0  0  0  0
 41 43  1  0  0  0  0
M  END
>  <MODEL>
       1

$$$$
