tmp_first_model_20_19.pdb
 OpenBabel08282503553D

 42 45  0  0  1  0  0  0  0  0999 V2000
   -9.1440   -0.0660  -20.7210 O   0  0  0  0  0  0  0  0  0  0  0  0
   -8.6540   -0.9060  -21.4500 C   0  0  0  0  0  0  0  0  0  0  0  0
   -9.3660   -1.5020  -22.6770 C   0  0  1  0  0  0  0  0  0  0  0  0
  -10.4380   -0.5580  -23.1880 C   0  0  0  0  0  0  0  0  0  0  0  0
  -10.1010    0.7540  -23.5120 C   0  0  0  0  0  0  0  0  0  0  0  0
  -11.0720    1.6270  -23.9680 C   0  0  0  0  0  0  0  0  0  0  0  0
  -12.4000    1.2400  -24.0820 C   0  0  0  0  0  0  0  0  0  0  0  0
  -13.5500    2.5030  -24.3710 Cl  0  0  0  0  0  0  0  0  0  0  0  0
  -12.7280   -0.0990  -23.8610 C   0  0  0  0  0  0  0  0  0  0  0  0
  -14.3290   -0.6940  -24.1140 Cl  0  0  0  0  0  0  0  0  0  0  0  0
  -11.7480   -0.9850  -23.4040 C   0  0  0  0  0  0  0  0  0  0  0  0
  -12.0460   -2.0120  -23.1870 H   0  0  0  0  0  0  0  0  0  0  0  0
  -10.8330    2.6530  -24.2070 H   0  0  0  0  0  0  0  0  0  0  0  0
   -9.0890    1.1220  -23.3400 H   0  0  0  0  0  0  0  0  0  0  0  0
   -8.3340   -1.7870  -23.7760 C   0  0  0  0  0  0  0  0  0  0  0  0
   -7.2410   -2.7550  -23.3380 C   0  0  2  0  0  0  0  0  0  0  0  0
   -7.5380   -4.1070  -23.6560 O   0  0  0  0  0  0  0  0  0  0  0  0
   -8.3980   -4.3170  -23.2680 H   0  0  0  0  0  0  0  0  0  0  0  0
   -6.9330   -2.6360  -21.8360 C   0  0  0  0  0  0  0  0  0  0  0  0
   -7.3740   -1.3770  -21.2540 N   0  0  0  0  0  0  0  0  0  0  0  0
   -6.6070   -0.8080  -20.1920 C   0  0  0  0  0  0  0  0  0  0  0  0
   -6.9120   -1.0500  -18.8770 C   0  0  0  0  0  0  0  0  0  0  0  0
   -6.2070   -0.5560  -17.8260 N   0  0  0  0  0  0  0  0  0  0  0  0
   -5.1690    0.2010  -18.0820 C   0  0  0  0  0  0  0  0  0  0  0  0
   -4.7260    0.5230  -19.3950 C   0  0  0  0  0  0  0  0  0  0  0  0
   -3.5970    1.3530  -19.6370 C   0  0  0  0  0  0  0  0  0  0  0  0
   -3.2120    1.6390  -20.9180 C   0  0  0  0  0  0  0  0  0  0  0  0
   -3.9320    1.1030  -22.0110 C   0  0  0  0  0  0  0  0  0  0  0  0
   -5.0230    0.2990  -21.8000 C   0  0  0  0  0  0  0  0  0  0  0  0
   -5.4540   -0.0060  -20.4840 C   0  0  0  0  0  0  0  0  0  0  0  0
   -5.5910   -0.0910  -22.6360 H   0  0  0  0  0  0  0  0  0  0  0  0
   -3.6310    1.3520  -23.0240 H   0  0  0  0  0  0  0  0  0  0  0  0
   -2.3620    2.2890  -21.1080 H   0  0  0  0  0  0  0  0  0  0  0  0
   -3.0600    1.7630  -18.7860 H   0  0  0  0  0  0  0  0  0  0  0  0
   -4.6230    0.6070  -17.2280 H   0  0  0  0  0  0  0  0  0  0  0  0
   -7.7600   -1.6710  -18.5970 H   0  0  0  0  0  0  0  0  0  0  0  0
   -7.3930   -3.5100  -21.3380 H   0  0  0  0  0  0  0  0  0  0  0  0
   -5.8580   -2.6960  -21.6660 H   0  0  0  0  0  0  0  0  0  0  0  0
   -6.3410   -2.5450  -23.9210 H   0  0  0  0  0  0  0  0  0  0  0  0
   -7.8970   -0.8290  -24.0870 H   0  0  0  0  0  0  0  0  0  0  0  0
   -8.8260   -2.2060  -24.6600 H   0  0  0  0  0  0  0  0  0  0  0  0
   -9.8470   -2.4440  -22.3750 H   0  0  0  0  0  0  0  0  0  0  0  0
  1  2  2  0  0  0  0
  2  3  1  0  0  0  0
  2 20  1  0  0  0  0
  3  4  1  0  0  0  0
  3 15  1  0  0  0  0
  3 42  1  1  0  0  0
  4  5  2  0  0  0  0
  4 11  1  0  0  0  0
  5  6  1  0  0  0  0
  5 14  1  0  0  0  0
  6  7  2  0  0  0  0
  6 13  1  0  0  0  0
  7  8  1  0  0  0  0
  7  9  1  0  0  0  0
  9 10  1  0  0  0  0
  9 11  2  0  0  0  0
 11 12  1  0  0  0  0
 15 16  1  0  0  0  0
 15 40  1  0  0  0  0
 15 41  1  0  0  0  0
 16 17  1  0  0  0  0
 16 19  1  0  0  0  0
 16 39  1  6  0  0  0
 17 18  1  0  0  0  0
 19 20  1  0  0  0  0
 19 37  1  0  0  0  0
 19 38  1  0  0  0  0
 20 21  1  0  0  0  0
 21 22  2  0  0  0  0
 21 30  1  0  0  0  0
 22 23  1  0  0  0  0
 22 36  1  0  0  0  0
 23 24  2  0  0  0  0
 24 25  1  0  0  0  0
 24 35  1  0  0  0  0
 25 26  2  0  0  0  0
 25 30  1  0  0  0  0
 26 27  1  0  0  0  0
 26 34  1  0  0  0  0
 27 28  2  0  0  0  0
 27 33  1  0  0  0  0
 28 29  1  0  0  0  0
 28 32  1  0  0  0  0
 29 30  2  0  0  0  0
 29 31  1  0  0  0  0
M  END
>  <MODEL>
       1

$$$$
