tmp_first_model_10_81.pdb
 OpenBabel08272522163D

 36 38  0  0  0  0  0  0  0  0999 V2000
   -8.5270    0.7340  -21.4120 O   0  0  0  0  0  0  0  0  0  0  0  0
   -8.3990   -0.3800  -21.8920 C   0  0  0  0  0  0  0  0  0  0  0  0
   -7.4500   -1.4060  -21.2770 C   0  0  0  0  0  0  0  0  0  0  0  0
   -6.6140   -0.8120  -20.1770 C   0  0  0  0  0  0  0  0  0  0  0  0
   -6.9090   -1.0550  -18.8600 C   0  0  0  0  0  0  0  0  0  0  0  0
   -6.2140   -0.5790  -17.7910 N   0  0  0  0  0  0  0  0  0  0  0  0
   -5.1980    0.2090  -18.0550 C   0  0  0  0  0  0  0  0  0  0  0  0
   -4.8040    0.5900  -19.3680 C   0  0  0  0  0  0  0  0  0  0  0  0
   -3.6750    1.4170  -19.6040 C   0  0  0  0  0  0  0  0  0  0  0  0
   -3.3680    1.8240  -20.8770 C   0  0  0  0  0  0  0  0  0  0  0  0
   -4.1770    1.4190  -21.9670 C   0  0  0  0  0  0  0  0  0  0  0  0
   -5.1660    0.4840  -21.7760 C   0  0  0  0  0  0  0  0  0  0  0  0
   -5.5380    0.0780  -20.4630 C   0  0  0  0  0  0  0  0  0  0  0  0
   -5.7000    0.0710  -22.6270 H   0  0  0  0  0  0  0  0  0  0  0  0
   -3.9650    1.7950  -22.9690 H   0  0  0  0  0  0  0  0  0  0  0  0
   -2.5110    2.4710  -21.0550 H   0  0  0  0  0  0  0  0  0  0  0  0
   -3.0740    1.7140  -18.7480 H   0  0  0  0  0  0  0  0  0  0  0  0
   -4.6300    0.5930  -17.2050 H   0  0  0  0  0  0  0  0  0  0  0  0
   -7.7580   -1.6860  -18.5980 H   0  0  0  0  0  0  0  0  0  0  0  0
   -6.8350   -1.8630  -22.0670 H   0  0  0  0  0  0  0  0  0  0  0  0
   -8.0720   -2.2120  -20.8730 H   0  0  0  0  0  0  0  0  0  0  0  0
   -9.0500   -0.7690  -23.0470 N   0  0  0  0  0  0  0  0  0  0  0  0
   -9.9790    0.1830  -23.6200 C   0  0  0  0  0  0  0  0  0  0  0  0
  -11.3610    0.1790  -23.0200 C   0  0  0  0  0  0  0  0  0  0  0  0
  -12.0110   -0.8000  -22.3850 C   0  0  0  0  0  0  0  0  0  0  0  0
  -11.5660   -2.1800  -22.1180 C   0  0  0  0  0  0  0  0  0  0  0  0
  -10.4480   -2.7750  -22.5390 C   0  0  0  0  0  0  0  0  0  0  0  0
   -9.3480   -2.1570  -23.3720 C   0  0  0  0  0  0  0  0  0  0  0  0
   -8.4410   -2.7680  -23.3020 H   0  0  0  0  0  0  0  0  0  0  0  0
   -9.6280   -2.1570  -24.4350 H   0  0  0  0  0  0  0  0  0  0  0  0
  -10.3090   -3.8240  -22.2810 H   0  0  0  0  0  0  0  0  0  0  0  0
  -12.2830   -2.7720  -21.5500 H   0  0  0  0  0  0  0  0  0  0  0  0
  -13.0170   -0.5850  -22.0220 H   0  0  0  0  0  0  0  0  0  0  0  0
  -11.8700    1.1360  -23.1180 H   0  0  0  0  0  0  0  0  0  0  0  0
  -10.0320   -0.0230  -24.7000 H   0  0  0  0  0  0  0  0  0  0  0  0
   -9.5450    1.1790  -23.5030 H   0  0  0  0  0  0  0  0  0  0  0  0
  1  2  2  0  0  0  0
  2  3  1  0  0  0  0
  2 22  1  0  0  0  0
  3  4  1  0  0  0  0
  3 20  1  0  0  0  0
  3 21  1  0  0  0  0
  4  5  2  0  0  0  0
  4 13  1  0  0  0  0
  5  6  1  0  0  0  0
  5 19  1  0  0  0  0
  6  7  2  0  0  0  0
  7  8  1  0  0  0  0
  7 18  1  0  0  0  0
  8  9  2  0  0  0  0
  8 13  1  0  0  0  0
  9 10  1  0  0  0  0
  9 17  1  0  0  0  0
 10 11  2  0  0  0  0
 10 16  1  0  0  0  0
 11 12  1  0  0  0  0
 11 15  1  0  0  0  0
 12 13  2  0  0  0  0
 12 14  1  0  0  0  0
 22 23  1  0  0  0  0
 22 28  1  0  0  0  0
 23 24  1  0  0  0  0
 23 35  1  0  0  0  0
 23 36  1  0  0  0  0
 24 25  2  0  0  0  0
 24 34  1  0  0  0  0
 25 26  1  0  0  0  0
 25 33  1  0  0  0  0
 26 27  2  0  0  0  0
 26 32  1  0  0  0  0
 27 28  1  0  0  0  0
 27 31  1  0  0  0  0
 28 29  1  0  0  0  0
 28 30  1  0  0  0  0
M  END
>  <MODEL>
       1

$$$$
