tmp_first_model_20_72.pdb
 OpenBabel08282503553D

 41 44  0  0  0  0  0  0  0  0999 V2000
   -8.7190    0.6820  -21.2060 O   0  0  0  0  0  0  0  0  0  0  0  0
   -8.6630   -0.4470  -21.6750 C   0  0  0  0  0  0  0  0  0  0  0  0
   -7.5320   -1.4040  -21.2840 C   0  0  0  0  0  0  0  0  0  0  0  0
   -6.6540   -0.8450  -20.2040 C   0  0  0  0  0  0  0  0  0  0  0  0
   -6.9720   -1.0550  -18.8870 C   0  0  0  0  0  0  0  0  0  0  0  0
   -6.2910   -0.5630  -17.8160 N   0  0  0  0  0  0  0  0  0  0  0  0
   -5.2400    0.1740  -18.0770 C   0  0  0  0  0  0  0  0  0  0  0  0
   -4.7890    0.4880  -19.3890 C   0  0  0  0  0  0  0  0  0  0  0  0
   -3.6450    1.2950  -19.6170 C   0  0  0  0  0  0  0  0  0  0  0  0
   -3.2540    1.6000  -20.8920 C   0  0  0  0  0  0  0  0  0  0  0  0
   -3.9950    1.1140  -21.9950 C   0  0  0  0  0  0  0  0  0  0  0  0
   -5.1070    0.3330  -21.7990 C   0  0  0  0  0  0  0  0  0  0  0  0
   -5.5280   -0.0150  -20.4890 C   0  0  0  0  0  0  0  0  0  0  0  0
   -5.6850   -0.0030  -22.6550 H   0  0  0  0  0  0  0  0  0  0  0  0
   -3.6770    1.3670  -23.0020 H   0  0  0  0  0  0  0  0  0  0  0  0
   -2.3880    2.2310  -21.0670 H   0  0  0  0  0  0  0  0  0  0  0  0
   -3.0910    1.6690  -18.7590 H   0  0  0  0  0  0  0  0  0  0  0  0
   -4.6880    0.5730  -17.2230 H   0  0  0  0  0  0  0  0  0  0  0  0
   -7.8380   -1.6650  -18.6410 H   0  0  0  0  0  0  0  0  0  0  0  0
   -7.9830   -2.3450  -20.9390 H   0  0  0  0  0  0  0  0  0  0  0  0
   -6.9420   -1.6510  -22.1730 H   0  0  0  0  0  0  0  0  0  0  0  0
   -9.6110   -0.9240  -22.5420 N   0  0  0  0  0  0  0  0  0  0  0  0
   -9.5790   -2.2360  -23.1960 C   0  0  0  0  0  0  0  0  0  0  0  0
  -10.3220   -3.3260  -22.4130 C   0  0  0  0  0  0  0  0  0  0  0  0
  -11.5630   -2.7490  -21.7080 C   0  0  0  0  0  0  0  0  0  0  0  0
  -12.4360   -1.8140  -22.5190 C   0  0  0  0  0  0  0  0  0  0  0  0
  -14.1420   -2.0740  -22.7120 S   0  0  0  0  0  0  0  0  0  0  0  0
  -14.3550   -0.5380  -23.4660 C   0  0  0  0  0  0  0  0  0  0  0  0
  -13.1780    0.1330  -23.5760 C   0  0  0  0  0  0  0  0  0  0  0  0
  -12.0590   -0.5980  -23.0340 C   0  0  0  0  0  0  0  0  0  0  0  0
  -10.6670   -0.0010  -22.9500 C   0  0  0  0  0  0  0  0  0  0  0  0
  -10.4040    0.4490  -23.9230 H   0  0  0  0  0  0  0  0  0  0  0  0
  -10.6730    0.8350  -22.2390 H   0  0  0  0  0  0  0  0  0  0  0  0
  -13.1260    1.1280  -24.0170 H   0  0  0  0  0  0  0  0  0  0  0  0
  -15.3370   -0.1550  -23.7140 H   0  0  0  0  0  0  0  0  0  0  0  0
  -12.1640   -3.5340  -21.2410 H   0  0  0  0  0  0  0  0  0  0  0  0
  -11.1660   -2.1210  -20.9030 H   0  0  0  0  0  0  0  0  0  0  0  0
   -9.6720   -3.7690  -21.6480 H   0  0  0  0  0  0  0  0  0  0  0  0
  -10.5760   -4.1500  -23.0950 H   0  0  0  0  0  0  0  0  0  0  0  0
  -10.1010   -2.1230  -24.1530 H   0  0  0  0  0  0  0  0  0  0  0  0
   -8.5470   -2.5400  -23.4110 H   0  0  0  0  0  0  0  0  0  0  0  0
  1  2  2  0  0  0  0
  2  3  1  0  0  0  0
  2 22  1  0  0  0  0
  3  4  1  0  0  0  0
  3 20  1  0  0  0  0
  3 21  1  0  0  0  0
  4  5  2  0  0  0  0
  4 13  1  0  0  0  0
  5  6  1  0  0  0  0
  5 19  1  0  0  0  0
  6  7  2  0  0  0  0
  7  8  1  0  0  0  0
  7 18  1  0  0  0  0
  8  9  2  0  0  0  0
  8 13  1  0  0  0  0
  9 10  1  0  0  0  0
  9 17  1  0  0  0  0
 10 11  2  0  0  0  0
 10 16  1  0  0  0  0
 11 12  1  0  0  0  0
 11 15  1  0  0  0  0
 12 13  2  0  0  0  0
 12 14  1  0  0  0  0
 22 23  1  0  0  0  0
 22 31  1  0  0  0  0
 23 24  1  0  0  0  0
 23 40  1  0  0  0  0
 23 41  1  0  0  0  0
 24 25  1  0  0  0  0
 24 38  1  0  0  0  0
 24 39  1  0  0  0  0
 25 26  1  0  0  0  0
 25 36  1  0  0  0  0
 25 37  1  0  0  0  0
 26 27  1  0  0  0  0
 26 30  2  0  0  0  0
 27 28  1  0  0  0  0
 28 29  2  0  0  0  0
 28 35  1  0  0  0  0
 29 30  1  0  0  0  0
 29 34  1  0  0  0  0
 30 31  1  0  0  0  0
 31 32  1  0  0  0  0
 31 33  1  0  0  0  0
M  END
>  <MODEL>
       1

$$$$
