tmp_first_model_17_68.pdb
 OpenBabel08282502223D

 65 70  0  0  1  0  0  0  0  0999 V2000
   -9.2330    0.0870  -20.8320 O   0  0  0  0  0  0  0  0  0  0  0  0
   -8.4680   -0.3470  -21.6800 C   0  0  0  0  0  0  0  0  0  0  0  0
   -7.4520   -1.4140  -21.2680 C   0  0  0  0  0  0  0  0  0  0  0  0
   -6.5690   -0.8520  -20.1750 C   0  0  0  0  0  0  0  0  0  0  0  0
   -6.8940   -1.0460  -18.8550 C   0  0  0  0  0  0  0  0  0  0  0  0
   -6.2140   -0.5340  -17.7960 N   0  0  0  0  0  0  0  0  0  0  0  0
   -5.1750    0.2150  -18.0660 C   0  0  0  0  0  0  0  0  0  0  0  0
   -4.7300    0.5230  -19.3820 C   0  0  0  0  0  0  0  0  0  0  0  0
   -3.6080    1.3600  -19.6170 C   0  0  0  0  0  0  0  0  0  0  0  0
   -3.2160    1.6500  -20.8960 C   0  0  0  0  0  0  0  0  0  0  0  0
   -3.9280    1.1180  -21.9910 C   0  0  0  0  0  0  0  0  0  0  0  0
   -5.0170    0.3020  -21.7890 C   0  0  0  0  0  0  0  0  0  0  0  0
   -5.4510   -0.0190  -20.4730 C   0  0  0  0  0  0  0  0  0  0  0  0
   -5.5580   -0.0690  -22.6530 H   0  0  0  0  0  0  0  0  0  0  0  0
   -3.6000    1.3470  -23.0010 H   0  0  0  0  0  0  0  0  0  0  0  0
   -2.3530    2.2840  -21.0770 H   0  0  0  0  0  0  0  0  0  0  0  0
   -3.0740    1.7650  -18.7630 H   0  0  0  0  0  0  0  0  0  0  0  0
   -4.6220    0.6270  -17.2190 H   0  0  0  0  0  0  0  0  0  0  0  0
   -7.7630   -1.6490  -18.6010 H   0  0  0  0  0  0  0  0  0  0  0  0
   -6.8540   -1.7590  -22.1140 H   0  0  0  0  0  0  0  0  0  0  0  0
   -8.0230   -2.2640  -20.8740 H   0  0  0  0  0  0  0  0  0  0  0  0
   -8.4250    0.1610  -22.9710 N   0  0  0  0  0  0  0  0  0  0  0  0
   -8.2300   -0.7000  -24.1380 C   0  0  0  0  0  0  0  0  0  0  0  0
   -9.3690   -1.6870  -24.3010 C   0  0  0  0  0  0  0  0  0  0  0  0
   -9.2490   -2.9990  -23.8500 C   0  0  0  0  0  0  0  0  0  0  0  0
  -10.3290   -3.8740  -23.9240 C   0  0  0  0  0  0  0  0  0  0  0  0
  -11.5530   -3.4440  -24.4190 C   0  0  0  0  0  0  0  0  0  0  0  0
  -11.6740   -2.1270  -24.8500 C   0  0  0  0  0  0  0  0  0  0  0  0
  -13.1990   -1.5730  -25.4980 Cl  0  0  0  0  0  0  0  0  0  0  0  0
  -10.5870   -1.2620  -24.8330 C   0  0  0  0  0  0  0  0  0  0  0  0
  -10.7140   -0.2700  -25.2660 H   0  0  0  0  0  0  0  0  0  0  0  0
  -12.3950   -4.1250  -24.5060 H   0  0  0  0  0  0  0  0  0  0  0  0
  -10.2160   -4.9040  -23.5950 H   0  0  0  0  0  0  0  0  0  0  0  0
   -8.3060   -3.3480  -23.4320 H   0  0  0  0  0  0  0  0  0  0  0  0
   -8.1680   -0.0620  -25.0220 H   0  0  0  0  0  0  0  0  0  0  0  0
   -7.2740   -1.2320  -24.0550 H   0  0  0  0  0  0  0  0  0  0  0  0
   -8.8270    1.5560  -23.1110 C   0  0  2  0  0  0  0  0  0  0  0  0
  -10.3030    1.9150  -22.8070 C   0  0  0  0  0  0  0  0  0  0  0  0
  -10.4530    3.3210  -23.4390 C   0  0  0  0  0  0  0  0  0  0  0  0
   -9.0700    3.5900  -24.0230 C   0  0  2  0  0  0  0  0  0  0  0  0
   -8.6200    2.2100  -24.4870 C   0  0  0  0  0  0  0  0  0  0  0  0
   -7.5720    2.1700  -24.8100 H   0  0  0  0  0  0  0  0  0  0  0  0
   -9.2750    1.8020  -25.2650 H   0  0  0  0  0  0  0  0  0  0  0  0
   -8.1050    3.8470  -22.8390 N   0  3  2  0  0  0  0  0  0  0  0  0
   -6.8270    4.4530  -23.3160 C   0  0  0  0  0  0  0  0  0  0  0  0
   -6.9480    5.9530  -23.2320 C   0  0  0  0  0  0  0  0  0  0  0  0
   -5.7690    6.8730  -23.5230 C   0  0  0  0  0  0  0  0  0  0  0  0
   -6.0040    7.6010  -22.3010 O   0  0  0  0  0  0  0  0  0  0  0  0
   -6.8170    6.5170  -21.8210 C   0  0  0  0  0  0  0  0  0  0  0  0
   -6.2380    5.8510  -21.1620 H   0  0  0  0  0  0  0  0  0  0  0  0
   -7.7470    6.8130  -21.3260 H   0  0  0  0  0  0  0  0  0  0  0  0
   -5.8360    7.5300  -24.3990 H   0  0  0  0  0  0  0  0  0  0  0  0
   -4.8080    6.3370  -23.4980 H   0  0  0  0  0  0  0  0  0  0  0  0
   -7.8720    6.3090  -23.6850 H   0  0  0  0  0  0  0  0  0  0  0  0
   -6.6060    4.0950  -24.3220 H   0  0  0  0  0  0  0  0  0  0  0  0
   -5.9910    4.1320  -22.6910 H   0  0  0  0  0  0  0  0  0  0  0  0
   -7.9710    2.4830  -22.2100 C   0  0  0  0  0  0  0  0  0  0  0  0
   -8.3450    2.5160  -21.1860 H   0  0  0  0  0  0  0  0  0  0  0  0
   -6.9220    2.1750  -22.1890 H   0  0  0  0  0  0  0  0  0  0  0  0
   -8.5030    4.5050  -22.1480 H   0  0  0  0  0  0  0  0  0  0  0  0
   -9.0160    4.4060  -24.7390 H   0  0  0  0  0  0  0  0  0  0  0  0
  -10.7350    4.0920  -22.7140 H   0  0  0  0  0  0  0  0  0  0  0  0
  -11.2040    3.3200  -24.2320 H   0  0  0  0  0  0  0  0  0  0  0  0
  -10.5070    1.9070  -21.7370 H   0  0  0  0  0  0  0  0  0  0  0  0
  -10.9600    1.1840  -23.2880 H   0  0  0  0  0  0  0  0  0  0  0  0
  1  2  2  0  0  0  0
  2  3  1  0  0  0  0
  2 22  1  0  0  0  0
  3  4  1  0  0  0  0
  3 20  1  0  0  0  0
  3 21  1  0  0  0  0
  4  5  2  0  0  0  0
  4 13  1  0  0  0  0
  5  6  1  0  0  0  0
  5 19  1  0  0  0  0
  6  7  2  0  0  0  0
  7  8  1  0  0  0  0
  7 18  1  0  0  0  0
  8  9  2  0  0  0  0
  8 13  1  0  0  0  0
  9 10  1  0  0  0  0
  9 17  1  0  0  0  0
 10 11  2  0  0  0  0
 10 16  1  0  0  0  0
 11 12  1  0  0  0  0
 11 15  1  0  0  0  0
 12 13  2  0  0  0  0
 12 14  1  0  0  0  0
 22 23  1  0  0  0  0
 23 24  1  0  0  0  0
 23 35  1  0  0  0  0
 23 36  1  0  0  0  0
 24 25  2  0  0  0  0
 24 30  1  0  0  0  0
 25 26  1  0  0  0  0
 25 34  1  0  0  0  0
 26 27  2  0  0  0  0
 26 33  1  0  0  0  0
 27 28  1  0  0  0  0
 27 32  1  0  0  0  0
 28 29  1  0  0  0  0
 28 30  2  0  0  0  0
 30 31  1  0  0  0  0
 37 22  1  1  0  0  0
 37 38  1  0  0  0  0
 37 41  1  0  0  0  0
 37 57  1  0  0  0  0
 38 39  1  0  0  0  0
 38 64  1  0  0  0  0
 38 65  1  0  0  0  0
 39 40  1  0  0  0  0
 39 62  1  0  0  0  0
 39 63  1  0  0  0  0
 40 41  1  0  0  0  0
 40 44  1  0  0  0  0
 40 61  1  6  0  0  0
 41 42  1  0  0  0  0
 41 43  1  0  0  0  0
 44 45  1  0  0  0  0
 44 57  1  0  0  0  0
 44 60  1  1  0  0  0
 45 46  1  0  0  0  0
 45 55  1  0  0  0  0
 45 56  1  0  0  0  0
 46 47  1  0  0  0  0
 46 49  1  0  0  0  0
 46 54  1  0  0  0  0
 47 48  1  0  0  0  0
 47 52  1  0  0  0  0
 47 53  1  0  0  0  0
 48 49  1  0  0  0  0
 49 50  1  0  0  0  0
 49 51  1  0  0  0  0
 57 58  1  0  0  0  0
 57 59  1  0  0  0  0
M  CHG  1  44   1
M  END
>  <MODEL>
       1

$$$$
