tmp_first_model_16_47.pdb
 OpenBabel08282501503D

 58 63  0  0  1  0  0  0  0  0999 V2000
   -8.5450    0.7240  -21.3950 O   0  0  0  0  0  0  0  0  0  0  0  0
   -8.4810   -0.4040  -21.8550 C   0  0  0  0  0  0  0  0  0  0  0  0
   -7.4730   -1.4170  -21.2920 C   0  0  0  0  0  0  0  0  0  0  0  0
   -6.6070   -0.8350  -20.2080 C   0  0  0  0  0  0  0  0  0  0  0  0
   -6.9140   -1.0770  -18.8940 C   0  0  0  0  0  0  0  0  0  0  0  0
   -6.1750   -0.6800  -17.8280 N   0  0  0  0  0  0  0  0  0  0  0  0
   -5.1040    0.0340  -18.0770 C   0  0  0  0  0  0  0  0  0  0  0  0
   -4.7150    0.4580  -19.3840 C   0  0  0  0  0  0  0  0  0  0  0  0
   -3.6130    1.3260  -19.6120 C   0  0  0  0  0  0  0  0  0  0  0  0
   -3.2340    1.6490  -20.8890 C   0  0  0  0  0  0  0  0  0  0  0  0
   -3.9490    1.1340  -21.9940 C   0  0  0  0  0  0  0  0  0  0  0  0
   -5.0450    0.3290  -21.7960 C   0  0  0  0  0  0  0  0  0  0  0  0
   -5.4690   -0.0170  -20.4840 C   0  0  0  0  0  0  0  0  0  0  0  0
   -5.5940   -0.0540  -22.6520 H   0  0  0  0  0  0  0  0  0  0  0  0
   -3.6200    1.3780  -23.0000 H   0  0  0  0  0  0  0  0  0  0  0  0
   -2.3750    2.2900  -21.0650 H   0  0  0  0  0  0  0  0  0  0  0  0
   -3.0900    1.7380  -18.7520 H   0  0  0  0  0  0  0  0  0  0  0  0
   -4.4900    0.3090  -17.2160 H   0  0  0  0  0  0  0  0  0  0  0  0
   -7.7960   -1.6650  -18.6350 H   0  0  0  0  0  0  0  0  0  0  0  0
   -6.8660   -1.8410  -22.1050 H   0  0  0  0  0  0  0  0  0  0  0  0
   -8.0310   -2.2570  -20.8550 H   0  0  0  0  0  0  0  0  0  0  0  0
   -9.3110   -0.8260  -22.8790 N   0  0  0  0  0  0  0  0  0  0  0  0
   -9.2650   -2.1360  -23.5130 C   0  0  0  0  0  0  0  0  0  0  0  0
   -8.5320   -2.1650  -24.8490 C   0  0  0  0  0  0  0  0  0  0  0  0
   -7.4360   -1.3400  -25.1020 C   0  0  0  0  0  0  0  0  0  0  0  0
   -6.7630   -1.4010  -26.3210 C   0  0  0  0  0  0  0  0  0  0  0  0
   -7.1770   -2.2810  -27.3150 C   0  0  0  0  0  0  0  0  0  0  0  0
   -8.2730   -3.0960  -27.0650 C   0  0  0  0  0  0  0  0  0  0  0  0
   -8.8110   -4.2020  -28.3030 Cl  0  0  0  0  0  0  0  0  0  0  0  0
   -8.9480   -3.0490  -25.8490 C   0  0  0  0  0  0  0  0  0  0  0  0
   -9.7990   -3.7100  -25.6960 H   0  0  0  0  0  0  0  0  0  0  0  0
   -6.6630   -2.3440  -28.2700 H   0  0  0  0  0  0  0  0  0  0  0  0
   -5.9050   -0.7540  -26.4900 H   0  0  0  0  0  0  0  0  0  0  0  0
   -7.0910   -0.6410  -24.3410 H   0  0  0  0  0  0  0  0  0  0  0  0
  -10.2980   -2.4520  -23.6900 H   0  0  0  0  0  0  0  0  0  0  0  0
   -8.8250   -2.8560  -22.8130 H   0  0  0  0  0  0  0  0  0  0  0  0
  -10.2330    0.1550  -23.4110 C   0  0  2  0  0  0  0  0  0  0  0  0
  -11.3770    0.6350  -22.4950 C   0  0  0  0  0  0  0  0  0  0  0  0
  -12.0700    1.5960  -23.4270 N   0  3  1  0  0  0  0  0  0  0  0  0
  -12.2580    2.9580  -22.9050 C   0  0  0  0  0  0  0  0  0  0  0  0
  -13.5450    3.2510  -22.2090 C   0  0  0  0  0  0  0  0  0  0  0  0
  -13.2730    3.8280  -23.5820 C   0  0  0  0  0  0  0  0  0  0  0  0
  -13.0550    4.8870  -23.6790 H   0  0  0  0  0  0  0  0  0  0  0  0
  -13.7990    3.4120  -24.4410 H   0  0  0  0  0  0  0  0  0  0  0  0
  -13.4990    3.9120  -21.3620 H   0  0  0  0  0  0  0  0  0  0  0  0
  -14.2590    2.4380  -22.0830 H   0  0  0  0  0  0  0  0  0  0  0  0
  -11.3400    3.4010  -22.5230 H   0  0  0  0  0  0  0  0  0  0  0  0
  -11.1430    1.4870  -24.6240 C   0  0  2  0  0  0  0  0  0  0  0  0
  -11.0000   -0.0360  -24.7430 C   0  0  0  0  0  0  0  0  0  0  0  0
  -10.3690   -0.3750  -25.5660 H   0  0  0  0  0  0  0  0  0  0  0  0
  -11.9380   -0.6050  -24.6710 H   0  0  0  0  0  0  0  0  0  0  0  0
   -9.7450    1.5140  -23.9880 C   0  0  0  0  0  0  0  0  0  0  0  0
   -8.9300    1.4100  -24.7080 H   0  0  0  0  0  0  0  0  0  0  0  0
   -9.5330    2.2890  -23.2420 H   0  0  0  0  0  0  0  0  0  0  0  0
  -11.4470    2.1350  -25.4300 H   0  0  0  0  0  0  0  0  0  0  0  0
  -13.0180    1.2350  -23.6730 H   0  0  0  0  0  0  0  0  0  0  0  0
  -10.9980    1.1810  -21.6340 H   0  0  0  0  0  0  0  0  0  0  0  0
  -12.0680   -0.1540  -22.1830 H   0  0  0  0  0  0  0  0  0  0  0  0
  1  2  2  0  0  0  0
  2  3  1  0  0  0  0
  2 22  1  0  0  0  0
  3  4  1  0  0  0  0
  3 20  1  0  0  0  0
  3 21  1  0  0  0  0
  4  5  2  0  0  0  0
  4 13  1  0  0  0  0
  5  6  1  0  0  0  0
  5 19  1  0  0  0  0
  6  7  2  0  0  0  0
  7  8  1  0  0  0  0
  7 18  1  0  0  0  0
  8  9  2  0  0  0  0
  8 13  1  0  0  0  0
  9 10  1  0  0  0  0
  9 17  1  0  0  0  0
 10 11  2  0  0  0  0
 10 16  1  0  0  0  0
 11 12  1  0  0  0  0
 11 15  1  0  0  0  0
 12 13  2  0  0  0  0
 12 14  1  0  0  0  0
 22 23  1  0  0  0  0
 23 24  1  0  0  0  0
 23 35  1  0  0  0  0
 23 36  1  0  0  0  0
 24 25  2  0  0  0  0
 24 30  1  0  0  0  0
 25 26  1  0  0  0  0
 25 34  1  0  0  0  0
 26 27  2  0  0  0  0
 26 33  1  0  0  0  0
 27 28  1  0  0  0  0
 27 32  1  0  0  0  0
 28 29  1  0  0  0  0
 28 30  2  0  0  0  0
 30 31  1  0  0  0  0
 37 22  1  1  0  0  0
 37 38  1  0  0  0  0
 37 49  1  0  0  0  0
 37 52  1  0  0  0  0
 38 39  1  0  0  0  0
 38 57  1  0  0  0  0
 38 58  1  0  0  0  0
 39 40  1  0  0  0  0
 39 48  1  0  0  0  0
 39 56  1  6  0  0  0
 40 41  1  0  0  0  0
 40 42  1  0  0  0  0
 40 47  1  0  0  0  0
 41 42  1  0  0  0  0
 41 45  1  0  0  0  0
 41 46  1  0  0  0  0
 42 43  1  0  0  0  0
 42 44  1  0  0  0  0
 48 49  1  0  0  0  0
 48 52  1  0  0  0  0
 48 55  1  6  0  0  0
 49 50  1  0  0  0  0
 49 51  1  0  0  0  0
 52 53  1  0  0  0  0
 52 54  1  0  0  0  0
M  CHG  1  39   1
M  END
>  <MODEL>
       1

$$$$
