tmp_first_model_1_40.pdb
 OpenBabel08272517043D

 40 42  0  0  0  0  0  0  0  0999 V2000
   -9.3060   -6.6310  -25.1050 C   0  0  0  0  0  0  0  0  0  0  0  0
   -9.0070   -5.8190  -23.8470 C   0  0  0  0  0  0  0  0  0  0  0  0
   -7.5640   -5.9930  -23.3920 C   0  0  0  0  0  0  0  0  0  0  0  0
   -7.2630   -5.1700  -22.1490 C   0  0  0  0  0  0  0  0  0  0  0  0
   -7.6220   -3.7630  -22.3150 N   0  0  0  0  0  0  0  0  0  0  0  0
   -6.7880   -2.8010  -21.7720 C   0  0  0  0  0  0  0  0  0  0  0  0
   -5.5890   -2.9860  -21.6720 O   0  0  0  0  0  0  0  0  0  0  0  0
   -7.4210   -1.4830  -21.2570 C   0  0  0  0  0  0  0  0  0  0  0  0
   -6.5820   -0.8250  -20.1840 C   0  0  0  0  0  0  0  0  0  0  0  0
   -6.8740   -1.0430  -18.8640 C   0  0  0  0  0  0  0  0  0  0  0  0
   -6.1840   -0.5510  -17.8030 N   0  0  0  0  0  0  0  0  0  0  0  0
   -5.1570    0.2210  -18.0670 C   0  0  0  0  0  0  0  0  0  0  0  0
   -4.7220    0.5320  -19.3810 C   0  0  0  0  0  0  0  0  0  0  0  0
   -3.5930    1.3580  -19.6190 C   0  0  0  0  0  0  0  0  0  0  0  0
   -3.1890    1.6330  -20.8980 C   0  0  0  0  0  0  0  0  0  0  0  0
   -3.8990    1.0880  -21.9910 C   0  0  0  0  0  0  0  0  0  0  0  0
   -4.9960    0.2880  -21.7860 C   0  0  0  0  0  0  0  0  0  0  0  0
   -5.4450   -0.0100  -20.4740 C   0  0  0  0  0  0  0  0  0  0  0  0
   -5.5190   -0.1400  -22.6360 H   0  0  0  0  0  0  0  0  0  0  0  0
   -3.5700    1.3080  -23.0030 H   0  0  0  0  0  0  0  0  0  0  0  0
   -2.3280    2.2710  -21.0840 H   0  0  0  0  0  0  0  0  0  0  0  0
   -3.0590    1.7740  -18.7670 H   0  0  0  0  0  0  0  0  0  0  0  0
   -4.6060    0.6270  -17.2150 H   0  0  0  0  0  0  0  0  0  0  0  0
   -7.7200   -1.6690  -18.5850 H   0  0  0  0  0  0  0  0  0  0  0  0
   -7.5640   -0.7940  -22.1000 H   0  0  0  0  0  0  0  0  0  0  0  0
   -8.4240   -1.6900  -20.8510 H   0  0  0  0  0  0  0  0  0  0  0  0
   -8.9720   -3.5130  -22.7980 C   0  0  0  0  0  0  0  0  0  0  0  0
   -9.2800   -4.3340  -24.0480 C   0  0  0  0  0  0  0  0  0  0  0  0
  -10.3260   -4.1830  -24.3330 H   0  0  0  0  0  0  0  0  0  0  0  0
   -8.6810   -3.9690  -24.8880 H   0  0  0  0  0  0  0  0  0  0  0  0
   -9.0730   -2.4530  -23.0300 H   0  0  0  0  0  0  0  0  0  0  0  0
   -9.7180   -3.7520  -22.0240 H   0  0  0  0  0  0  0  0  0  0  0  0
   -7.8180   -5.6070  -21.3050 H   0  0  0  0  0  0  0  0  0  0  0  0
   -6.2050   -5.2180  -21.8960 H   0  0  0  0  0  0  0  0  0  0  0  0
   -6.8890   -5.6980  -24.2020 H   0  0  0  0  0  0  0  0  0  0  0  0
   -7.3610   -7.0520  -23.1940 H   0  0  0  0  0  0  0  0  0  0  0  0
   -9.6660   -6.1760  -23.0460 H   0  0  0  0  0  0  0  0  0  0  0  0
   -9.1220   -7.7010  -24.9480 H   0  0  0  0  0  0  0  0  0  0  0  0
  -10.3490   -6.5120  -25.4230 H   0  0  0  0  0  0  0  0  0  0  0  0
   -8.6690   -6.3060  -25.9360 H   0  0  0  0  0  0  0  0  0  0  0  0
  1  2  1  0  0  0  0
  1 38  1  0  0  0  0
  1 39  1  0  0  0  0
  1 40  1  0  0  0  0
  2  3  1  0  0  0  0
  2 28  1  0  0  0  0
  2 37  1  0  0  0  0
  3  4  1  0  0  0  0
  3 35  1  0  0  0  0
  3 36  1  0  0  0  0
  4  5  1  0  0  0  0
  4 33  1  0  0  0  0
  4 34  1  0  0  0  0
  5  6  1  0  0  0  0
  5 27  1  0  0  0  0
  6  7  2  0  0  0  0
  6  8  1  0  0  0  0
  8  9  1  0  0  0  0
  8 25  1  0  0  0  0
  8 26  1  0  0  0  0
  9 10  2  0  0  0  0
  9 18  1  0  0  0  0
 10 11  1  0  0  0  0
 10 24  1  0  0  0  0
 11 12  2  0  0  0  0
 12 13  1  0  0  0  0
 12 23  1  0  0  0  0
 13 14  2  0  0  0  0
 13 18  1  0  0  0  0
 14 15  1  0  0  0  0
 14 22  1  0  0  0  0
 15 16  2  0  0  0  0
 15 21  1  0  0  0  0
 16 17  1  0  0  0  0
 16 20  1  0  0  0  0
 17 18  2  0  0  0  0
 17 19  1  0  0  0  0
 27 28  1  0  0  0  0
 27 31  1  0  0  0  0
 27 32  1  0  0  0  0
 28 29  1  0  0  0  0
 28 30  1  0  0  0  0
M  END
>  <MODEL>
       1

$$$$
