tmp_first_model_19_76.pdb
 OpenBabel08282503233D

 66 71  0  0  1  0  0  0  0  0999 V2000
   -8.1950   -3.4720  -24.1030 C   0  0  0  0  0  0  0  0  0  0  0  0
   -8.4680   -2.7350  -22.7830 C   0  0  1  0  0  0  0  0  0  0  0  0
   -7.1840   -2.5240  -21.9500 C   0  0  0  0  0  0  0  0  0  0  0  0
   -7.4550   -1.3150  -21.1940 N   0  0  0  0  0  0  0  0  0  0  0  0
   -6.6160   -0.7930  -20.1720 C   0  0  0  0  0  0  0  0  0  0  0  0
   -6.9130   -1.0410  -18.8580 C   0  0  0  0  0  0  0  0  0  0  0  0
   -6.1960   -0.5650  -17.8110 N   0  0  0  0  0  0  0  0  0  0  0  0
   -5.1680    0.2030  -18.0820 C   0  0  0  0  0  0  0  0  0  0  0  0
   -4.7370    0.5340  -19.3980 C   0  0  0  0  0  0  0  0  0  0  0  0
   -3.6160    1.3730  -19.6460 C   0  0  0  0  0  0  0  0  0  0  0  0
   -3.2360    1.6740  -20.9250 C   0  0  0  0  0  0  0  0  0  0  0  0
   -3.9470    1.1350  -22.0190 C   0  0  0  0  0  0  0  0  0  0  0  0
   -5.0310    0.3130  -21.8060 C   0  0  0  0  0  0  0  0  0  0  0  0
   -5.4720    0.0060  -20.4880 C   0  0  0  0  0  0  0  0  0  0  0  0
   -5.5650   -0.0980  -22.6570 H   0  0  0  0  0  0  0  0  0  0  0  0
   -3.6450    1.3860  -23.0320 H   0  0  0  0  0  0  0  0  0  0  0  0
   -2.3950    2.3410  -21.1030 H   0  0  0  0  0  0  0  0  0  0  0  0
   -3.0870    1.7870  -18.7900 H   0  0  0  0  0  0  0  0  0  0  0  0
   -4.6220    0.6120  -17.2300 H   0  0  0  0  0  0  0  0  0  0  0  0
   -7.7700   -1.6610  -18.6020 H   0  0  0  0  0  0  0  0  0  0  0  0
   -8.5340   -0.5950  -21.6490 C   0  0  0  0  0  0  0  0  0  0  0  0
   -8.9210    0.4510  -21.1600 O   0  0  0  0  0  0  0  0  0  0  0  0
   -9.1340   -1.3230  -22.8770 C   0  0  1  0  0  0  0  0  0  0  0  0
   -8.7140   -0.5890  -24.1720 C   0  0  0  0  0  0  0  0  0  0  0  0
   -9.3130    0.7270  -24.2670 N   0  0  0  0  0  0  0  0  0  0  0  0
   -8.5120    1.7840  -24.8610 C   0  0  0  0  0  0  0  0  0  0  0  0
   -7.5480    2.4140  -23.8630 C   0  0  0  0  0  0  0  0  0  0  0  0
   -8.2720    3.2150  -22.8320 N   0  3  0  0  0  0  0  0  0  0  0  0
   -7.4970    3.3150  -21.5620 C   0  0  0  0  0  0  0  0  0  0  0  0
   -6.3380    4.2980  -21.6160 C   0  0  0  0  0  0  0  0  0  0  0  0
   -6.8050    5.5900  -21.9420 O   0  0  0  0  0  0  0  0  0  0  0  0
   -7.4340    5.5850  -23.2060 C   0  0  0  0  0  0  0  0  0  0  0  0
   -8.6370    4.6370  -23.2490 C   0  0  0  0  0  0  0  0  0  0  0  0
   -9.3950    4.9940  -22.5460 H   0  0  0  0  0  0  0  0  0  0  0  0
   -9.0630    4.6140  -24.2540 H   0  0  0  0  0  0  0  0  0  0  0  0
   -6.7070    5.3040  -23.9820 H   0  0  0  0  0  0  0  0  0  0  0  0
   -7.7590    6.6120  -23.3850 H   0  0  0  0  0  0  0  0  0  0  0  0
   -5.8760    4.3800  -20.6270 H   0  0  0  0  0  0  0  0  0  0  0  0
   -5.5740    3.9580  -22.3370 H   0  0  0  0  0  0  0  0  0  0  0  0
   -7.1690    2.3130  -21.2750 H   0  0  0  0  0  0  0  0  0  0  0  0
   -8.2100    3.6900  -20.8290 H   0  0  0  0  0  0  0  0  0  0  0  0
   -9.1360    2.6940  -22.5780 H   0  0  0  0  0  0  0  0  0  0  0  0
   -6.9840    1.6400  -23.3280 H   0  0  0  0  0  0  0  0  0  0  0  0
   -6.8290    3.0530  -24.3800 H   0  0  0  0  0  0  0  0  0  0  0  0
   -7.9320    1.3760  -25.6970 H   0  0  0  0  0  0  0  0  0  0  0  0
   -9.2090    2.5330  -25.2360 H   0  0  0  0  0  0  0  0  0  0  0  0
  -10.6610    0.8870  -24.1050 C   0  0  0  0  0  0  0  0  0  0  0  0
  -11.2620    1.8880  -24.4770 O   0  0  0  0  0  0  0  0  0  0  0  0
  -11.3660   -0.2350  -23.3930 C   0  0  0  0  0  0  0  0  0  0  0  0
  -12.7540   -0.1740  -23.2920 C   0  0  0  0  0  0  0  0  0  0  0  0
  -13.4450   -1.1190  -22.5610 C   0  0  0  0  0  0  0  0  0  0  0  0
  -12.7290   -2.1200  -21.9050 C   0  0  0  0  0  0  0  0  0  0  0  0
  -13.5800   -3.2520  -20.8930 Cl  0  0  0  0  0  0  0  0  0  0  0  0
  -11.3530   -2.2010  -22.0020 C   0  0  0  0  0  0  0  0  0  0  0  0
  -10.6510   -1.2850  -22.7940 C   0  0  0  0  0  0  0  0  0  0  0  0
  -10.8410   -2.9590  -21.4180 H   0  0  0  0  0  0  0  0  0  0  0  0
  -14.5220   -1.0700  -22.4670 H   0  0  0  0  0  0  0  0  0  0  0  0
  -13.2600    0.6490  -23.7860 H   0  0  0  0  0  0  0  0  0  0  0  0
   -7.6260   -0.4620  -24.1830 H   0  0  0  0  0  0  0  0  0  0  0  0
   -9.0080   -1.2080  -25.0360 H   0  0  0  0  0  0  0  0  0  0  0  0
   -6.9770   -3.3640  -21.2750 H   0  0  0  0  0  0  0  0  0  0  0  0
   -6.3020   -2.4040  -22.6000 H   0  0  0  0  0  0  0  0  0  0  0  0
   -9.1450   -3.3500  -22.1860 H   0  0  0  0  0  0  0  0  0  0  0  0
   -9.1010   -3.5770  -24.7120 H   0  0  0  0  0  0  0  0  0  0  0  0
   -7.4480   -2.9420  -24.7080 H   0  0  0  0  0  0  0  0  0  0  0  0
   -7.8020   -4.4790  -23.9160 H   0  0  0  0  0  0  0  0  0  0  0  0
  1  2  1  0  0  0  0
  1 64  1  0  0  0  0
  1 65  1  0  0  0  0
  1 66  1  0  0  0  0
  2  3  1  0  0  0  0
  2 23  1  0  0  0  0
  2 63  1  1  0  0  0
  3  4  1  0  0  0  0
  3 61  1  0  0  0  0
  3 62  1  0  0  0  0
  4  5  1  0  0  0  0
  4 21  1  0  0  0  0
  5  6  2  0  0  0  0
  5 14  1  0  0  0  0
  6  7  1  0  0  0  0
  6 20  1  0  0  0  0
  7  8  2  0  0  0  0
  8  9  1  0  0  0  0
  8 19  1  0  0  0  0
  9 10  2  0  0  0  0
  9 14  1  0  0  0  0
 10 11  1  0  0  0  0
 10 18  1  0  0  0  0
 11 12  2  0  0  0  0
 11 17  1  0  0  0  0
 12 13  1  0  0  0  0
 12 16  1  0  0  0  0
 13 14  2  0  0  0  0
 13 15  1  0  0  0  0
 21 22  2  0  0  0  0
 23 21  1  1  0  0  0
 23 24  1  0  0  0  0
 23 55  1  0  0  0  0
 24 25  1  0  0  0  0
 24 59  1  0  0  0  0
 24 60  1  0  0  0  0
 25 26  1  0  0  0  0
 25 47  1  0  0  0  0
 26 27  1  0  0  0  0
 26 45  1  0  0  0  0
 26 46  1  0  0  0  0
 27 28  1  0  0  0  0
 27 43  1  0  0  0  0
 27 44  1  0  0  0  0
 28 29  1  0  0  0  0
 28 33  1  0  0  0  0
 28 42  1  0  0  0  0
 29 30  1  0  0  0  0
 29 40  1  0  0  0  0
 29 41  1  0  0  0  0
 30 31  1  0  0  0  0
 30 38  1  0  0  0  0
 30 39  1  0  0  0  0
 31 32  1  0  0  0  0
 32 33  1  0  0  0  0
 32 36  1  0  0  0  0
 32 37  1  0  0  0  0
 33 34  1  0  0  0  0
 33 35  1  0  0  0  0
 47 48  2  0  0  0  0
 47 49  1  0  0  0  0
 49 50  2  0  0  0  0
 49 55  1  0  0  0  0
 50 51  1  0  0  0  0
 50 58  1  0  0  0  0
 51 52  2  0  0  0  0
 51 57  1  0  0  0  0
 52 53  1  0  0  0  0
 52 54  1  0  0  0  0
 54 55  2  0  0  0  0
 54 56  1  0  0  0  0
M  CHG  1  28   1
M  END
>  <MODEL>
       1

$$$$
