tmp_first_model_1_53.pdb
 OpenBabel08272517043D

 59 63  0  0  1  0  0  0  0  0999 V2000
   -5.1430   -8.3010  -23.6980 C   0  0  0  0  0  0  0  0  0  0  0  0
   -6.0780   -8.7390  -22.5680 C   0  0  0  0  0  0  0  0  0  0  0  0
   -7.1600   -7.7970  -22.3010 N   0  0  0  0  0  0  0  0  0  0  0  0
   -8.2010   -7.6590  -23.1830 C   0  0  0  0  0  0  0  0  0  0  0  0
   -8.4590   -8.4790  -24.0410 O   0  0  0  0  0  0  0  0  0  0  0  0
   -9.0320   -6.3850  -23.0320 C   0  0  0  0  0  0  0  0  0  0  0  0
   -8.4400   -5.2160  -23.6450 N   0  0  0  0  0  0  0  0  0  0  0  0
   -7.5350   -4.4260  -22.8360 C   0  0  0  0  0  0  0  0  0  0  0  0
   -7.7150   -2.9130  -23.0380 C   0  0  2  0  0  0  0  0  0  0  0  0
   -6.6600   -2.2670  -22.1460 C   0  0  0  0  0  0  0  0  0  0  0  0
   -5.4800   -2.5660  -22.0770 O   0  0  0  0  0  0  0  0  0  0  0  0
   -7.2760   -1.3520  -21.3320 N   0  0  0  0  0  0  0  0  0  0  0  0
   -6.5640   -0.7770  -20.2580 C   0  0  0  0  0  0  0  0  0  0  0  0
   -6.9300   -1.0180  -18.9570 C   0  0  0  0  0  0  0  0  0  0  0  0
   -6.2600   -0.5520  -17.8780 N   0  0  0  0  0  0  0  0  0  0  0  0
   -5.2100    0.2050  -18.1030 C   0  0  0  0  0  0  0  0  0  0  0  0
   -4.7340    0.5430  -19.4030 C   0  0  0  0  0  0  0  0  0  0  0  0
   -3.5940    1.3700  -19.5980 C   0  0  0  0  0  0  0  0  0  0  0  0
   -3.1660    1.6810  -20.8630 C   0  0  0  0  0  0  0  0  0  0  0  0
   -3.8510    1.1750  -21.9880 C   0  0  0  0  0  0  0  0  0  0  0  0
   -4.9520    0.3760  -21.8250 C   0  0  0  0  0  0  0  0  0  0  0  0
   -5.4230    0.0380  -20.5210 C   0  0  0  0  0  0  0  0  0  0  0  0
   -5.4600   -0.0130  -22.7000 H   0  0  0  0  0  0  0  0  0  0  0  0
   -3.5030    1.4160  -22.9890 H   0  0  0  0  0  0  0  0  0  0  0  0
   -2.3030    2.3230  -21.0100 H   0  0  0  0  0  0  0  0  0  0  0  0
   -3.0810    1.7550  -18.7230 H   0  0  0  0  0  0  0  0  0  0  0  0
   -4.6790    0.5840  -17.2300 H   0  0  0  0  0  0  0  0  0  0  0  0
   -7.7840   -1.6580  -18.7390 H   0  0  0  0  0  0  0  0  0  0  0  0
   -8.6340   -1.0510  -21.7430 C   0  0  0  0  0  0  0  0  0  0  0  0
   -9.0730   -2.3090  -22.5140 C   0  0  2  0  0  0  0  0  0  0  0  0
   -9.9600   -3.2500  -21.6950 C   0  0  0  0  0  0  0  0  0  0  0  0
  -10.9480   -2.7990  -21.5450 H   0  0  0  0  0  0  0  0  0  0  0  0
  -10.0980   -4.1850  -22.2450 H   0  0  0  0  0  0  0  0  0  0  0  0
   -9.5300   -3.4690  -20.7130 H   0  0  0  0  0  0  0  0  0  0  0  0
   -9.6790   -2.0160  -23.3780 H   0  0  0  0  0  0  0  0  0  0  0  0
   -8.6390   -0.1680  -22.4020 H   0  0  0  0  0  0  0  0  0  0  0  0
   -9.2620   -0.8390  -20.8780 H   0  0  0  0  0  0  0  0  0  0  0  0
   -7.6240   -2.6390  -24.5280 C   0  0  0  0  0  0  0  0  0  0  0  0
   -7.2440   -1.3880  -25.0320 C   0  0  0  0  0  0  0  0  0  0  0  0
   -7.4740   -1.0810  -26.3680 C   0  0  0  0  0  0  0  0  0  0  0  0
   -7.0940    0.5090  -26.9840 Cl  0  0  0  0  0  0  0  0  0  0  0  0
   -8.0700   -2.0000  -27.2300 C   0  0  0  0  0  0  0  0  0  0  0  0
   -8.4270   -3.2400  -26.7320 C   0  0  0  0  0  0  0  0  0  0  0  0
   -8.2110   -3.5680  -25.3990 C   0  0  0  0  0  0  0  0  0  0  0  0
   -8.7610   -4.8880  -24.9340 C   0  0  0  0  0  0  0  0  0  0  0  0
   -9.4600   -5.6010  -25.6420 O   0  0  0  0  0  0  0  0  0  0  0  0
   -8.9150   -3.9850  -27.3490 H   0  0  0  0  0  0  0  0  0  0  0  0
   -8.2710   -1.7230  -28.2610 H   0  0  0  0  0  0  0  0  0  0  0  0
   -6.8190   -0.6350  -24.3750 H   0  0  0  0  0  0  0  0  0  0  0  0
   -6.4920   -4.6620  -23.0710 H   0  0  0  0  0  0  0  0  0  0  0  0
   -7.6810   -4.6380  -21.7720 H   0  0  0  0  0  0  0  0  0  0  0  0
  -10.0050   -6.5670  -23.4900 H   0  0  0  0  0  0  0  0  0  0  0  0
   -9.1340   -6.1660  -21.9630 H   0  0  0  0  0  0  0  0  0  0  0  0
   -6.9290   -7.0160  -21.7050 H   0  0  0  0  0  0  0  0  0  0  0  0
   -6.5110   -9.7250  -22.7610 H   0  0  0  0  0  0  0  0  0  0  0  0
   -5.5150   -8.8060  -21.6360 H   0  0  0  0  0  0  0  0  0  0  0  0
   -4.4620   -7.5140  -23.3590 H   0  0  0  0  0  0  0  0  0  0  0  0
   -4.5360   -9.1420  -24.0460 H   0  0  0  0  0  0  0  0  0  0  0  0
   -5.7110   -7.9150  -24.5510 H   0  0  0  0  0  0  0  0  0  0  0  0
  1  2  1  0  0  0  0
  1 57  1  0  0  0  0
  1 58  1  0  0  0  0
  1 59  1  0  0  0  0
  2  3  1  0  0  0  0
  2 55  1  0  0  0  0
  2 56  1  0  0  0  0
  3  4  1  0  0  0  0
  3 54  1  0  0  0  0
  4  5  2  0  0  0  0
  4  6  1  0  0  0  0
  6  7  1  0  0  0  0
  6 52  1  0  0  0  0
  6 53  1  0  0  0  0
  7  8  1  0  0  0  0
  7 45  1  0  0  0  0
  8  9  1  0  0  0  0
  8 50  1  0  0  0  0
  8 51  1  0  0  0  0
  9 10  1  1  0  0  0
  9 30  1  0  0  0  0
  9 38  1  0  0  0  0
 10 11  2  0  0  0  0
 10 12  1  0  0  0  0
 12 13  1  0  0  0  0
 12 29  1  0  0  0  0
 13 14  2  0  0  0  0
 13 22  1  0  0  0  0
 14 15  1  0  0  0  0
 14 28  1  0  0  0  0
 15 16  2  0  0  0  0
 16 17  1  0  0  0  0
 16 27  1  0  0  0  0
 17 18  2  0  0  0  0
 17 22  1  0  0  0  0
 18 19  1  0  0  0  0
 18 26  1  0  0  0  0
 19 20  2  0  0  0  0
 19 25  1  0  0  0  0
 20 21  1  0  0  0  0
 20 24  1  0  0  0  0
 21 22  2  0  0  0  0
 21 23  1  0  0  0  0
 29 30  1  0  0  0  0
 29 36  1  0  0  0  0
 29 37  1  0  0  0  0
 30 31  1  0  0  0  0
 30 35  1  6  0  0  0
 31 32  1  0  0  0  0
 31 33  1  0  0  0  0
 31 34  1  0  0  0  0
 38 39  2  0  0  0  0
 38 44  1  0  0  0  0
 39 40  1  0  0  0  0
 39 49  1  0  0  0  0
 40 41  1  0  0  0  0
 40 42  2  0  0  0  0
 42 43  1  0  0  0  0
 42 48  1  0  0  0  0
 43 44  2  0  0  0  0
 43 47  1  0  0  0  0
 44 45  1  0  0  0  0
 45 46  2  0  0  0  0
M  END
>  <MODEL>
       1

$$$$
