tmp_first_model_17_13.pdb
 OpenBabel08282502223D

 69 74  0  0  1  0  0  0  0  0999 V2000
   -5.1190   -4.0160  -19.3710 C   0  0  0  0  0  0  0  0  0  0  0  0
   -6.2490   -4.7760  -19.8830 N   0  0  0  0  0  0  0  0  0  0  0  0
   -6.0320   -5.7300  -20.8390 C   0  0  0  0  0  0  0  0  0  0  0  0
   -4.9150   -6.1590  -21.0880 O   0  0  0  0  0  0  0  0  0  0  0  0
   -7.2670   -6.2290  -21.6100 C   0  0  0  0  0  0  0  0  0  0  0  0
   -7.5880   -5.3240  -22.7030 N   0  0  0  0  0  0  0  0  0  0  0  0
   -8.4950   -4.2180  -22.4920 C   0  0  0  0  0  0  0  0  0  0  0  0
   -7.9200   -2.8680  -23.0040 C   0  0  2  0  0  0  0  0  0  0  0  0
   -6.7950   -2.3760  -22.0770 C   0  0  0  0  0  0  0  0  0  0  0  0
   -5.6370   -2.7540  -22.0640 O   0  0  0  0  0  0  0  0  0  0  0  0
   -7.3070   -1.4240  -21.2270 N   0  0  0  0  0  0  0  0  0  0  0  0
   -6.5660   -0.8430  -20.1860 C   0  0  0  0  0  0  0  0  0  0  0  0
   -6.9290   -1.0490  -18.8780 C   0  0  0  0  0  0  0  0  0  0  0  0
   -6.2500   -0.5580  -17.8150 N   0  0  0  0  0  0  0  0  0  0  0  0
   -5.1930    0.1810  -18.0660 C   0  0  0  0  0  0  0  0  0  0  0  0
   -4.7370    0.5020  -19.3780 C   0  0  0  0  0  0  0  0  0  0  0  0
   -3.6120    1.3410  -19.5990 C   0  0  0  0  0  0  0  0  0  0  0  0
   -3.2320    1.6700  -20.8710 C   0  0  0  0  0  0  0  0  0  0  0  0
   -3.9480    1.1750  -21.9830 C   0  0  0  0  0  0  0  0  0  0  0  0
   -5.0310    0.3520  -21.7990 C   0  0  0  0  0  0  0  0  0  0  0  0
   -5.4430   -0.0120  -20.4840 C   0  0  0  0  0  0  0  0  0  0  0  0
   -5.5800   -0.0300  -22.6540 H   0  0  0  0  0  0  0  0  0  0  0  0
   -3.6310    1.4400  -22.9880 H   0  0  0  0  0  0  0  0  0  0  0  0
   -2.3700    2.3100  -21.0380 H   0  0  0  0  0  0  0  0  0  0  0  0
   -3.0770    1.7230  -18.7350 H   0  0  0  0  0  0  0  0  0  0  0  0
   -4.6460    0.5740  -17.2100 H   0  0  0  0  0  0  0  0  0  0  0  0
   -7.7990   -1.6620  -18.6430 H   0  0  0  0  0  0  0  0  0  0  0  0
   -8.7270   -1.2180  -21.3880 C   0  0  0  0  0  0  0  0  0  0  0  0
   -8.9580   -1.7520  -22.8050 C   0  0  2  0  0  0  0  0  0  0  0  0
  -10.3900   -2.1500  -23.0730 C   0  0  0  0  0  0  0  0  0  0  0  0
  -11.1920   -0.9600  -23.2290 N   0  0  0  0  0  0  0  0  0  0  0  0
  -12.5400   -1.1170  -23.3210 C   0  0  0  0  0  0  0  0  0  0  0  0
  -13.4170   -0.0610  -23.0210 C   0  0  0  0  0  0  0  0  0  0  0  0
  -14.7460   -0.3900  -23.0470 C   0  0  0  0  0  0  0  0  0  0  0  0
  -15.1940   -1.5970  -23.4110 N   0  0  0  0  0  0  0  0  0  0  0  0
  -14.2860   -2.4890  -23.7820 C   0  0  0  0  0  0  0  0  0  0  0  0
  -14.8000   -3.7850  -24.3410 C   0  0  0  0  0  0  0  0  0  0  0  0
  -14.9110   -3.7120  -25.4250 H   0  0  0  0  0  0  0  0  0  0  0  0
  -14.1300   -4.6110  -24.1080 H   0  0  0  0  0  0  0  0  0  0  0  0
  -15.7930   -3.9900  -23.9470 H   0  0  0  0  0  0  0  0  0  0  0  0
  -12.9650   -2.3170  -23.7300 N   0  0  0  0  0  0  0  0  0  0  0  0
  -15.4970    0.3450  -22.7590 H   0  0  0  0  0  0  0  0  0  0  0  0
  -13.0610    0.9350  -22.7530 H   0  0  0  0  0  0  0  0  0  0  0  0
  -10.8860   -0.1500  -22.7060 H   0  0  0  0  0  0  0  0  0  0  0  0
  -10.4850   -2.7710  -23.9680 H   0  0  0  0  0  0  0  0  0  0  0  0
  -10.7600   -2.7890  -22.2560 H   0  0  0  0  0  0  0  0  0  0  0  0
   -8.7110   -0.9390  -23.4840 H   0  0  0  0  0  0  0  0  0  0  0  0
   -9.3160   -1.7820  -20.6500 H   0  0  0  0  0  0  0  0  0  0  0  0
   -8.9690   -0.1560  -21.2810 H   0  0  0  0  0  0  0  0  0  0  0  0
   -7.4340   -3.0630  -24.4220 C   0  0  0  0  0  0  0  0  0  0  0  0
   -7.3330   -1.9890  -25.3210 C   0  0  0  0  0  0  0  0  0  0  0  0
   -6.8270   -2.1910  -26.5920 C   0  0  0  0  0  0  0  0  0  0  0  0
   -6.6850   -0.8260  -27.6720 Cl  0  0  0  0  0  0  0  0  0  0  0  0
   -6.4130   -3.4540  -27.0160 C   0  0  0  0  0  0  0  0  0  0  0  0
   -6.4960   -4.5150  -26.1330 C   0  0  0  0  0  0  0  0  0  0  0  0
   -6.9850   -4.3240  -24.8410 C   0  0  0  0  0  0  0  0  0  0  0  0
   -6.9560   -5.5030  -23.9060 C   0  0  0  0  0  0  0  0  0  0  0  0
   -6.3770   -6.5410  -24.1890 O   0  0  0  0  0  0  0  0  0  0  0  0
   -6.1720   -5.5120  -26.4150 H   0  0  0  0  0  0  0  0  0  0  0  0
   -6.0230   -3.5860  -28.0180 H   0  0  0  0  0  0  0  0  0  0  0  0
   -7.6400   -0.9850  -25.0500 H   0  0  0  0  0  0  0  0  0  0  0  0
   -9.4290   -4.4260  -23.0290 H   0  0  0  0  0  0  0  0  0  0  0  0
   -8.7340   -4.1380  -21.4260 H   0  0  0  0  0  0  0  0  0  0  0  0
   -7.0240   -7.1930  -22.0630 H   0  0  0  0  0  0  0  0  0  0  0  0
   -8.1510   -6.3530  -20.9690 H   0  0  0  0  0  0  0  0  0  0  0  0
   -7.1420   -4.2980  -19.8760 H   0  0  0  0  0  0  0  0  0  0  0  0
   -4.2990   -4.7120  -19.2400 H   0  0  0  0  0  0  0  0  0  0  0  0
   -5.3840   -3.5480  -18.4160 H   0  0  0  0  0  0  0  0  0  0  0  0
   -4.8080   -3.2520  -20.0930 H   0  0  0  0  0  0  0  0  0  0  0  0
  1  2  1  0  0  0  0
  1 67  1  0  0  0  0
  1 68  1  0  0  0  0
  1 69  1  0  0  0  0
  2  3  1  0  0  0  0
  2 66  1  0  0  0  0
  3  4  2  0  0  0  0
  3  5  1  0  0  0  0
  5  6  1  0  0  0  0
  5 64  1  0  0  0  0
  5 65  1  0  0  0  0
  6  7  1  0  0  0  0
  6 57  1  0  0  0  0
  7  8  1  0  0  0  0
  7 62  1  0  0  0  0
  7 63  1  0  0  0  0
  8  9  1  1  0  0  0
  8 29  1  0  0  0  0
  8 50  1  0  0  0  0
  9 10  2  0  0  0  0
  9 11  1  0  0  0  0
 11 12  1  0  0  0  0
 11 28  1  0  0  0  0
 12 13  2  0  0  0  0
 12 21  1  0  0  0  0
 13 14  1  0  0  0  0
 13 27  1  0  0  0  0
 14 15  2  0  0  0  0
 15 16  1  0  0  0  0
 15 26  1  0  0  0  0
 16 17  2  0  0  0  0
 16 21  1  0  0  0  0
 17 18  1  0  0  0  0
 17 25  1  0  0  0  0
 18 19  2  0  0  0  0
 18 24  1  0  0  0  0
 19 20  1  0  0  0  0
 19 23  1  0  0  0  0
 20 21  2  0  0  0  0
 20 22  1  0  0  0  0
 28 29  1  0  0  0  0
 28 48  1  0  0  0  0
 28 49  1  0  0  0  0
 29 30  1  0  0  0  0
 29 47  1  6  0  0  0
 30 31  1  0  0  0  0
 30 45  1  0  0  0  0
 30 46  1  0  0  0  0
 31 32  1  0  0  0  0
 31 44  1  0  0  0  0
 32 33  2  0  0  0  0
 32 41  1  0  0  0  0
 33 34  1  0  0  0  0
 33 43  1  0  0  0  0
 34 35  2  0  0  0  0
 34 42  1  0  0  0  0
 35 36  1  0  0  0  0
 36 37  1  0  0  0  0
 36 41  2  0  0  0  0
 37 38  1  0  0  0  0
 37 39  1  0  0  0  0
 37 40  1  0  0  0  0
 50 51  2  0  0  0  0
 50 56  1  0  0  0  0
 51 52  1  0  0  0  0
 51 61  1  0  0  0  0
 52 53  1  0  0  0  0
 52 54  2  0  0  0  0
 54 55  1  0  0  0  0
 54 60  1  0  0  0  0
 55 56  2  0  0  0  0
 55 59  1  0  0  0  0
 56 57  1  0  0  0  0
 57 58  2  0  0  0  0
M  END
>  <MODEL>
       1

$$$$
