tmp_first_model_4_71.pdb
 OpenBabel08272518513D

 50 54  0  0  1  0  0  0  0  0999 V2000
  -10.1930   -2.9500  -22.0670 C   0  0  0  0  0  0  0  0  0  0  0  0
   -9.1460   -1.9920  -22.6520 C   0  0  1  0  0  0  0  0  0  0  0  0
   -8.6310   -1.0130  -21.5700 C   0  0  0  0  0  0  0  0  0  0  0  0
   -7.3280   -1.5170  -21.2240 N   0  0  0  0  0  0  0  0  0  0  0  0
   -6.4850   -1.0240  -20.2050 C   0  0  0  0  0  0  0  0  0  0  0  0
   -6.7210   -1.3390  -18.8920 C   0  0  0  0  0  0  0  0  0  0  0  0
   -5.8500   -1.0920  -17.8880 N   0  0  0  0  0  0  0  0  0  0  0  0
   -4.7320   -0.4780  -18.1930 C   0  0  0  0  0  0  0  0  0  0  0  0
   -4.4100   -0.0110  -19.5010 C   0  0  0  0  0  0  0  0  0  0  0  0
   -3.2140    0.7080  -19.7670 C   0  0  0  0  0  0  0  0  0  0  0  0
   -2.9780    1.2300  -21.0100 C   0  0  0  0  0  0  0  0  0  0  0  0
   -3.9090    1.0180  -22.0540 C   0  0  0  0  0  0  0  0  0  0  0  0
   -5.0390    0.2660  -21.8430 C   0  0  0  0  0  0  0  0  0  0  0  0
   -5.3220   -0.2640  -20.5470 C   0  0  0  0  0  0  0  0  0  0  0  0
   -5.7180    0.0530  -22.6680 H   0  0  0  0  0  0  0  0  0  0  0  0
   -3.7190    1.4580  -23.0270 H   0  0  0  0  0  0  0  0  0  0  0  0
   -2.0820    1.8170  -21.1950 H   0  0  0  0  0  0  0  0  0  0  0  0
   -2.5190    0.8810  -18.9490 H   0  0  0  0  0  0  0  0  0  0  0  0
   -4.0200   -0.3250  -17.3820 H   0  0  0  0  0  0  0  0  0  0  0  0
   -7.6450   -1.8380  -18.5990 H   0  0  0  0  0  0  0  0  0  0  0  0
   -6.8480   -2.4940  -22.0570 C   0  0  0  0  0  0  0  0  0  0  0  0
   -5.7980   -3.0710  -21.8720 O   0  0  0  0  0  0  0  0  0  0  0  0
   -7.8610   -2.6890  -23.2090 C   0  0  1  0  0  0  0  0  0  0  0  0
   -8.0210   -4.2060  -23.4640 C   0  0  0  0  0  0  0  0  0  0  0  0
   -6.8090   -4.7570  -24.0370 N   0  0  0  0  0  0  0  0  0  0  0  0
   -6.2740   -6.0040  -23.5390 C   0  0  0  0  0  0  0  0  0  0  0  0
   -6.7210   -7.4540  -24.0590 C   0  0  0  0  0  0  0  0  0  0  0  0
   -6.6930   -7.3580  -24.1430 N   0  0  0  0  0  0  0  0  0  0  0  0
   -6.5080   -6.1150  -22.4810 H   0  0  0  0  0  0  0  0  0  0  0  0
   -5.2000   -5.9770  -23.6650 H   0  0  0  0  0  0  0  0  0  0  0  0
   -6.2170   -4.1930  -25.1420 C   0  0  0  0  0  0  0  0  0  0  0  0
   -5.4120   -4.8140  -25.8180 O   0  0  0  0  0  0  0  0  0  0  0  0
   -6.5950   -2.7710  -25.4200 C   0  0  0  0  0  0  0  0  0  0  0  0
   -6.1290   -2.1850  -26.6000 C   0  0  0  0  0  0  0  0  0  0  0  0
   -6.3780   -0.8550  -26.8750 C   0  0  0  0  0  0  0  0  0  0  0  0
   -7.0820   -0.1180  -25.9310 C   0  0  0  0  0  0  0  0  0  0  0  0
   -7.3150    1.1830  -26.1800 F   0  0  0  0  0  0  0  0  0  0  0  0
   -7.5450   -0.6690  -24.7500 C   0  0  0  0  0  0  0  0  0  0  0  0
   -7.3450   -2.0340  -24.4950 C   0  0  0  0  0  0  0  0  0  0  0  0
   -8.0690   -0.0160  -24.0590 H   0  0  0  0  0  0  0  0  0  0  0  0
   -6.0440   -0.3840  -27.7930 H   0  0  0  0  0  0  0  0  0  0  0  0
   -5.5580   -2.8050  -27.2840 H   0  0  0  0  0  0  0  0  0  0  0  0
   -8.8800   -4.3920  -24.1270 H   0  0  0  0  0  0  0  0  0  0  0  0
   -8.2020   -4.7140  -22.5140 H   0  0  0  0  0  0  0  0  0  0  0  0
   -9.2770   -1.0140  -20.6960 H   0  0  0  0  0  0  0  0  0  0  0  0
   -8.5690    0.0210  -21.9330 H   0  0  0  0  0  0  0  0  0  0  0  0
   -9.6380   -1.4430  -23.4630 H   0  0  0  0  0  0  0  0  0  0  0  0
  -10.5630   -3.6490  -22.8230 H   0  0  0  0  0  0  0  0  0  0  0  0
   -9.7780   -3.5310  -21.2370 H   0  0  0  0  0  0  0  0  0  0  0  0
  -11.0550   -2.3930  -21.6860 H   0  0  0  0  0  0  0  0  0  0  0  0
  1  2  1  0  0  0  0
  1 48  1  0  0  0  0
  1 49  1  0  0  0  0
  1 50  1  0  0  0  0
  2  3  1  0  0  0  0
  2 23  1  0  0  0  0
  2 47  1  6  0  0  0
  3  4  1  0  0  0  0
  3 45  1  0  0  0  0
  3 46  1  0  0  0  0
  4  5  1  0  0  0  0
  4 21  1  0  0  0  0
  5  6  2  0  0  0  0
  5 14  1  0  0  0  0
  6  7  1  0  0  0  0
  6 20  1  0  0  0  0
  7  8  2  0  0  0  0
  8  9  1  0  0  0  0
  8 19  1  0  0  0  0
  9 10  2  0  0  0  0
  9 14  1  0  0  0  0
 10 11  1  0  0  0  0
 10 18  1  0  0  0  0
 11 12  2  0  0  0  0
 11 17  1  0  0  0  0
 12 13  1  0  0  0  0
 12 16  1  0  0  0  0
 13 14  2  0  0  0  0
 13 15  1  0  0  0  0
 21 22  2  0  0  0  0
 23 21  1  1  0  0  0
 23 24  1  0  0  0  0
 23 39  1  0  0  0  0
 24 25  1  0  0  0  0
 24 43  1  0  0  0  0
 24 44  1  0  0  0  0
 25 26  1  0  0  0  0
 25 31  1  0  0  0  0
 26 27  1  0  0  0  0
 26 29  1  0  0  0  0
 26 30  1  0  0  0  0
 27 28  3  0  0  0  0
 31 32  2  0  0  0  0
 31 33  1  0  0  0  0
 33 34  2  0  0  0  0
 33 39  1  0  0  0  0
 34 35  1  0  0  0  0
 34 42  1  0  0  0  0
 35 36  2  0  0  0  0
 35 41  1  0  0  0  0
 36 37  1  0  0  0  0
 36 38  1  0  0  0  0
 38 39  2  0  0  0  0
 38 40  1  0  0  0  0
M  END
>  <MODEL>
       1

$$$$
