tmp_first_model_5_57.pdb
 OpenBabel08272519233D

 59 63  0  0  1  0  0  0  0  0999 V2000
  -14.5680   -1.4900  -23.4740 C   0  0  0  0  0  0  0  0  0  0  0  0
  -13.7120   -2.5520  -22.9950 N   0  0  0  0  0  0  0  0  0  0  0  0
  -13.5130   -2.8430  -21.6900 C   0  0  0  0  0  0  0  0  0  0  0  0
  -14.0890   -2.3250  -20.7440 O   0  0  0  0  0  0  0  0  0  0  0  0
  -12.5350   -4.0010  -21.5270 C   0  0  0  0  0  0  0  0  0  0  0  0
  -11.2590   -3.8600  -22.2140 N   0  0  0  0  0  0  0  0  0  0  0  0
  -10.1170   -3.3330  -21.4810 C   0  0  0  0  0  0  0  0  0  0  0  0
   -8.8950   -2.9860  -22.3630 C   0  0  2  0  0  0  0  0  0  0  0  0
   -7.6850   -2.8100  -21.4270 C   0  0  0  0  0  0  0  0  0  0  0  0
   -7.0130   -3.6840  -20.9140 O   0  0  0  0  0  0  0  0  0  0  0  0
   -7.4260   -1.4690  -21.2660 N   0  0  0  0  0  0  0  0  0  0  0  0
   -6.5400   -1.0380  -20.2500 C   0  0  0  0  0  0  0  0  0  0  0  0
   -6.8080   -1.2910  -18.9240 C   0  0  0  0  0  0  0  0  0  0  0  0
   -5.9410   -1.0310  -17.9160 N   0  0  0  0  0  0  0  0  0  0  0  0
   -4.7940   -0.4790  -18.2330 C   0  0  0  0  0  0  0  0  0  0  0  0
   -4.4490   -0.0540  -19.5480 C   0  0  0  0  0  0  0  0  0  0  0  0
   -3.2810    0.7150  -19.8210 C   0  0  0  0  0  0  0  0  0  0  0  0
   -3.1590    1.4020  -20.9920 C   0  0  0  0  0  0  0  0  0  0  0  0
   -4.0780    1.1650  -22.0480 C   0  0  0  0  0  0  0  0  0  0  0  0
   -5.1220    0.2860  -21.8730 C   0  0  0  0  0  0  0  0  0  0  0  0
   -5.3760   -0.2800  -20.5880 C   0  0  0  0  0  0  0  0  0  0  0  0
   -5.7540    0.0270  -22.7200 H   0  0  0  0  0  0  0  0  0  0  0  0
   -3.9390    1.6700  -22.9980 H   0  0  0  0  0  0  0  0  0  0  0  0
   -2.2800    2.0180  -21.1830 H   0  0  0  0  0  0  0  0  0  0  0  0
   -2.5280    0.8200  -19.0490 H   0  0  0  0  0  0  0  0  0  0  0  0
   -4.0840   -0.3220  -17.4210 H   0  0  0  0  0  0  0  0  0  0  0  0
   -7.7480   -1.7430  -18.6150 H   0  0  0  0  0  0  0  0  0  0  0  0
   -8.4060   -0.6230  -21.9210 C   0  0  0  0  0  0  0  0  0  0  0  0
   -9.0260   -1.5320  -23.0180 C   0  0  0  0  0  0  0  0  0  0  0  0
  -10.4630   -1.0940  -23.3330 C   0  0  0  0  0  0  0  0  0  0  0  0
  -11.1110   -1.1110  -22.4520 H   0  0  0  0  0  0  0  0  0  0  0  0
  -10.9030   -1.7420  -24.0980 H   0  0  0  0  0  0  0  0  0  0  0  0
  -10.4690   -0.0700  -23.7180 H   0  0  0  0  0  0  0  0  0  0  0  0
   -8.2110   -1.4340  -24.3180 C   0  0  0  0  0  0  0  0  0  0  0  0
   -8.6050   -2.1410  -25.0560 H   0  0  0  0  0  0  0  0  0  0  0  0
   -8.2930   -0.4300  -24.7470 H   0  0  0  0  0  0  0  0  0  0  0  0
   -7.1490   -1.6630  -24.1690 H   0  0  0  0  0  0  0  0  0  0  0  0
   -7.9350    0.2780  -22.3260 H   0  0  0  0  0  0  0  0  0  0  0  0
   -9.1620   -0.2910  -21.1930 H   0  0  0  0  0  0  0  0  0  0  0  0
   -8.6580   -4.1430  -23.3020 C   0  0  0  0  0  0  0  0  0  0  0  0
   -7.3660   -4.4810  -23.7270 C   0  0  0  0  0  0  0  0  0  0  0  0
   -7.1900   -5.4860  -24.6580 C   0  0  0  0  0  0  0  0  0  0  0  0
   -5.5810   -5.8690  -25.2070 Cl  0  0  0  0  0  0  0  0  0  0  0  0
   -8.2740   -6.2100  -25.1530 C   0  0  0  0  0  0  0  0  0  0  0  0
   -9.5520   -5.8880  -24.7310 C   0  0  0  0  0  0  0  0  0  0  0  0
   -9.7440   -4.8520  -23.8220 C   0  0  0  0  0  0  0  0  0  0  0  0
  -11.1290   -4.5160  -23.4040 C   0  0  0  0  0  0  0  0  0  0  0  0
  -12.1200   -4.8020  -24.0830 O   0  0  0  0  0  0  0  0  0  0  0  0
  -10.4260   -6.4280  -25.0850 H   0  0  0  0  0  0  0  0  0  0  0  0
   -8.1050   -7.0110  -25.8600 H   0  0  0  0  0  0  0  0  0  0  0  0
   -6.5030   -3.9750  -23.3110 H   0  0  0  0  0  0  0  0  0  0  0  0
  -10.4100   -2.4210  -20.9510 H   0  0  0  0  0  0  0  0  0  0  0  0
   -9.7900   -4.0520  -20.7290 H   0  0  0  0  0  0  0  0  0  0  0  0
  -12.4180   -4.1900  -20.4610 H   0  0  0  0  0  0  0  0  0  0  0  0
  -13.0330   -4.8410  -22.0190 H   0  0  0  0  0  0  0  0  0  0  0  0
  -13.2020   -3.1210  -23.6630 H   0  0  0  0  0  0  0  0  0  0  0  0
  -14.0000   -0.5690  -23.6440 H   0  0  0  0  0  0  0  0  0  0  0  0
  -15.0520   -1.7640  -24.4130 H   0  0  0  0  0  0  0  0  0  0  0  0
  -15.3410   -1.2990  -22.7320 H   0  0  0  0  0  0  0  0  0  0  0  0
  1  2  1  0  0  0  0
  1 57  1  0  0  0  0
  1 58  1  0  0  0  0
  1 59  1  0  0  0  0
  2  3  1  0  0  0  0
  2 56  1  0  0  0  0
  3  4  2  0  0  0  0
  3  5  1  0  0  0  0
  5  6  1  0  0  0  0
  5 54  1  0  0  0  0
  5 55  1  0  0  0  0
  6  7  1  0  0  0  0
  6 47  1  0  0  0  0
  7  8  1  0  0  0  0
  7 52  1  0  0  0  0
  7 53  1  0  0  0  0
  8  9  1  1  0  0  0
  8 29  1  0  0  0  0
  8 40  1  0  0  0  0
  9 10  2  0  0  0  0
  9 11  1  0  0  0  0
 11 12  1  0  0  0  0
 11 28  1  0  0  0  0
 12 13  2  0  0  0  0
 12 21  1  0  0  0  0
 13 14  1  0  0  0  0
 13 27  1  0  0  0  0
 14 15  2  0  0  0  0
 15 16  1  0  0  0  0
 15 26  1  0  0  0  0
 16 17  2  0  0  0  0
 16 21  1  0  0  0  0
 17 18  1  0  0  0  0
 17 25  1  0  0  0  0
 18 19  2  0  0  0  0
 18 24  1  0  0  0  0
 19 20  1  0  0  0  0
 19 23  1  0  0  0  0
 20 21  2  0  0  0  0
 20 22  1  0  0  0  0
 28 29  1  0  0  0  0
 28 38  1  0  0  0  0
 28 39  1  0  0  0  0
 29 30  1  0  0  0  0
 29 34  1  0  0  0  0
 30 31  1  0  0  0  0
 30 32  1  0  0  0  0
 30 33  1  0  0  0  0
 34 35  1  0  0  0  0
 34 36  1  0  0  0  0
 34 37  1  0  0  0  0
 40 41  2  0  0  0  0
 40 46  1  0  0  0  0
 41 42  1  0  0  0  0
 41 51  1  0  0  0  0
 42 43  1  0  0  0  0
 42 44  2  0  0  0  0
 44 45  1  0  0  0  0
 44 50  1  0  0  0  0
 45 46  2  0  0  0  0
 45 49  1  0  0  0  0
 46 47  1  0  0  0  0
 47 48  2  0  0  0  0
M  END
>  <MODEL>
       1

$$$$
