tmp_first_model_2_10.pdb
 OpenBabel08272517383D

 57 62  0  0  1  0  0  0  0  0999 V2000
  -10.4410   -1.1530  -23.2720 C   0  0  0  0  0  0  0  0  0  0  0  0
   -8.9970   -1.4920  -22.9230 C   0  0  1  0  0  0  0  0  0  0  0  0
   -8.3640   -0.5410  -21.8970 C   0  0  0  0  0  0  0  0  0  0  0  0
   -7.3680   -1.3740  -21.2370 N   0  0  0  0  0  0  0  0  0  0  0  0
   -6.5690   -0.8730  -20.1830 C   0  0  0  0  0  0  0  0  0  0  0  0
   -6.8950   -1.1110  -18.8720 C   0  0  0  0  0  0  0  0  0  0  0  0
   -6.2360   -0.5680  -17.8160 N   0  0  0  0  0  0  0  0  0  0  0  0
   -5.2140    0.2080  -18.0810 C   0  0  0  0  0  0  0  0  0  0  0  0
   -4.7560    0.5120  -19.3950 C   0  0  0  0  0  0  0  0  0  0  0  0
   -3.6320    1.3430  -19.6310 C   0  0  0  0  0  0  0  0  0  0  0  0
   -3.2260    1.6070  -20.9090 C   0  0  0  0  0  0  0  0  0  0  0  0
   -3.9250    1.0630  -22.0100 C   0  0  0  0  0  0  0  0  0  0  0  0
   -5.0170    0.2560  -21.8100 C   0  0  0  0  0  0  0  0  0  0  0  0
   -5.4560   -0.0350  -20.4910 C   0  0  0  0  0  0  0  0  0  0  0  0
   -5.5470   -0.1700  -22.6560 H   0  0  0  0  0  0  0  0  0  0  0  0
   -3.5960    1.2910  -23.0190 H   0  0  0  0  0  0  0  0  0  0  0  0
   -2.3700    2.2500  -21.0870 H   0  0  0  0  0  0  0  0  0  0  0  0
   -3.1170    1.7630  -18.7720 H   0  0  0  0  0  0  0  0  0  0  0  0
   -4.6830    0.6410  -17.2330 H   0  0  0  0  0  0  0  0  0  0  0  0
   -7.7360   -1.7550  -18.6220 H   0  0  0  0  0  0  0  0  0  0  0  0
   -7.6120   -2.7250  -21.3700 C   0  0  0  0  0  0  0  0  0  0  0  0
   -6.9750   -3.5990  -20.8120 O   0  0  0  0  0  0  0  0  0  0  0  0
   -8.8060   -2.9240  -22.3130 C   0  0  1  0  0  0  0  0  0  0  0  0
  -10.0080   -3.3780  -21.4560 C   0  0  0  0  0  0  0  0  0  0  0  0
  -11.1290   -3.8740  -22.2340 N   0  0  0  0  0  0  0  0  0  0  0  0
  -12.4760   -3.9220  -21.6690 C   0  0  0  0  0  0  0  0  0  0  0  0
  -13.3600   -2.7910  -22.0820 C   0  0  0  0  0  0  0  0  0  0  0  0
  -13.9180   -1.7530  -21.4250 C   0  0  0  0  0  0  0  0  0  0  0  0
  -14.6590   -1.0380  -22.3540 N   0  3  0  0  0  0  0  0  0  0  0  0
  -14.5700   -1.6660  -23.5370 C   0  0  0  0  0  0  0  0  0  0  0  0
  -13.8000   -2.7490  -23.3950 N   0  0  0  0  0  0  0  0  0  0  0  0
  -13.5120   -3.4540  -24.0850 H   0  0  0  0  0  0  0  0  0  0  0  0
  -15.0510   -1.3650  -24.4520 H   0  0  0  0  0  0  0  0  0  0  0  0
  -15.1000   -0.1380  -22.1840 H   0  0  0  0  0  0  0  0  0  0  0  0
  -13.8780   -1.4760  -20.3760 H   0  0  0  0  0  0  0  0  0  0  0  0
  -12.9520   -4.7980  -22.1200 H   0  0  0  0  0  0  0  0  0  0  0  0
  -12.4260   -4.0630  -20.5870 H   0  0  0  0  0  0  0  0  0  0  0  0
  -10.9850   -4.4880  -23.4330 C   0  0  0  0  0  0  0  0  0  0  0  0
  -11.9780   -4.7800  -24.0970 O   0  0  0  0  0  0  0  0  0  0  0  0
   -9.5850   -4.7350  -23.8860 C   0  0  0  0  0  0  0  0  0  0  0  0
   -9.3270   -5.7210  -24.8370 C   0  0  0  0  0  0  0  0  0  0  0  0
   -8.0620   -5.8690  -25.3770 C   0  0  0  0  0  0  0  0  0  0  0  0
   -7.0600   -5.0160  -24.9250 C   0  0  0  0  0  0  0  0  0  0  0  0
   -5.8370   -5.1220  -25.4660 F   0  0  0  0  0  0  0  0  0  0  0  0
   -7.2650   -4.0860  -23.9240 C   0  0  0  0  0  0  0  0  0  0  0  0
   -8.5390   -3.9650  -23.3680 C   0  0  0  0  0  0  0  0  0  0  0  0
   -6.4370   -3.4830  -23.5620 H   0  0  0  0  0  0  0  0  0  0  0  0
   -7.8320   -6.6200  -26.1290 H   0  0  0  0  0  0  0  0  0  0  0  0
  -10.1420   -6.3600  -25.1560 H   0  0  0  0  0  0  0  0  0  0  0  0
   -9.6720   -4.1610  -20.7750 H   0  0  0  0  0  0  0  0  0  0  0  0
  -10.3450   -2.5060  -20.8900 H   0  0  0  0  0  0  0  0  0  0  0  0
   -7.8940    0.3320  -22.3640 H   0  0  0  0  0  0  0  0  0  0  0  0
   -9.1100   -0.1660  -21.1760 H   0  0  0  0  0  0  0  0  0  0  0  0
   -8.3850   -1.4660  -23.8390 H   0  0  0  0  0  0  0  0  0  0  0  0
  -11.0590   -1.1400  -22.3680 H   0  0  0  0  0  0  0  0  0  0  0  0
  -10.8450   -1.9230  -23.9330 H   0  0  0  0  0  0  0  0  0  0  0  0
  -10.5250   -0.1830  -23.7660 H   0  0  0  0  0  0  0  0  0  0  0  0
  1  2  1  0  0  0  0
  1 55  1  0  0  0  0
  1 56  1  0  0  0  0
  1 57  1  0  0  0  0
  2  3  1  0  0  0  0
  2 23  1  0  0  0  0
  2 54  1  6  0  0  0
  3  4  1  0  0  0  0
  3 52  1  0  0  0  0
  3 53  1  0  0  0  0
  4  5  1  0  0  0  0
  4 21  1  0  0  0  0
  5  6  2  0  0  0  0
  5 14  1  0  0  0  0
  6  7  1  0  0  0  0
  6 20  1  0  0  0  0
  7  8  2  0  0  0  0
  8  9  1  0  0  0  0
  8 19  1  0  0  0  0
  9 10  2  0  0  0  0
  9 14  1  0  0  0  0
 10 11  1  0  0  0  0
 10 18  1  0  0  0  0
 11 12  2  0  0  0  0
 11 17  1  0  0  0  0
 12 13  1  0  0  0  0
 12 16  1  0  0  0  0
 13 14  2  0  0  0  0
 13 15  1  0  0  0  0
 21 22  2  0  0  0  0
 23 21  1  1  0  0  0
 23 24  1  0  0  0  0
 23 46  1  0  0  0  0
 24 25  1  0  0  0  0
 24 50  1  0  0  0  0
 24 51  1  0  0  0  0
 25 26  1  0  0  0  0
 25 38  1  0  0  0  0
 26 27  1  0  0  0  0
 26 36  1  0  0  0  0
 26 37  1  0  0  0  0
 27 28  2  0  0  0  0
 27 31  1  0  0  0  0
 28 29  1  0  0  0  0
 28 35  1  0  0  0  0
 29 30  2  0  0  0  0
 29 34  1  0  0  0  0
 30 31  1  0  0  0  0
 30 33  1  0  0  0  0
 31 32  1  0  0  0  0
 38 39  2  0  0  0  0
 38 40  1  0  0  0  0
 40 41  2  0  0  0  0
 40 46  1  0  0  0  0
 41 42  1  0  0  0  0
 41 49  1  0  0  0  0
 42 43  2  0  0  0  0
 42 48  1  0  0  0  0
 43 44  1  0  0  0  0
 43 45  1  0  0  0  0
 45 46  2  0  0  0  0
 45 47  1  0  0  0  0
M  CHG  1  29   1
M  END
>  <MODEL>
       1

$$$$
