tmp_first_model_3_48.pdb
 OpenBabel08272518143D

 46 48  0  0  0  0  0  0  0  0999 V2000
   -8.8880   -7.7360  -25.5740 C   0  0  0  0  0  0  0  0  0  0  0  0
   -9.4360   -6.3120  -25.4750 C   0  0  0  0  0  0  0  0  0  0  0  0
   -9.6010   -5.8110  -26.9150 C   0  0  0  0  0  0  0  0  0  0  0  0
   -9.8780   -4.7580  -27.0470 H   0  0  0  0  0  0  0  0  0  0  0  0
   -8.6650   -5.9750  -27.4600 H   0  0  0  0  0  0  0  0  0  0  0  0
  -10.3550   -6.4120  -27.4310 H   0  0  0  0  0  0  0  0  0  0  0  0
   -8.5240   -5.3890  -24.6380 C   0  0  0  0  0  0  0  0  0  0  0  0
   -8.0580   -5.9640  -23.2970 C   0  0  0  0  0  0  0  0  0  0  0  0
   -7.0570   -5.0140  -22.6450 C   0  0  0  0  0  0  0  0  0  0  0  0
   -7.5710   -3.6540  -22.5430 N   0  0  0  0  0  0  0  0  0  0  0  0
   -6.7820   -2.7920  -21.8240 C   0  0  0  0  0  0  0  0  0  0  0  0
   -5.6120   -3.0620  -21.6150 O   0  0  0  0  0  0  0  0  0  0  0  0
   -7.4130   -1.4950  -21.2720 C   0  0  0  0  0  0  0  0  0  0  0  0
   -6.5790   -0.8460  -20.1900 C   0  0  0  0  0  0  0  0  0  0  0  0
   -6.8830   -1.0520  -18.8670 C   0  0  0  0  0  0  0  0  0  0  0  0
   -6.2030   -0.5400  -17.8070 N   0  0  0  0  0  0  0  0  0  0  0  0
   -5.1660    0.2150  -18.0740 C   0  0  0  0  0  0  0  0  0  0  0  0
   -4.7240    0.5170  -19.3890 C   0  0  0  0  0  0  0  0  0  0  0  0
   -3.5980    1.3450  -19.6240 C   0  0  0  0  0  0  0  0  0  0  0  0
   -3.1940    1.6220  -20.9000 C   0  0  0  0  0  0  0  0  0  0  0  0
   -3.9020    1.0790  -21.9980 C   0  0  0  0  0  0  0  0  0  0  0  0
   -4.9960    0.2710  -21.7930 C   0  0  0  0  0  0  0  0  0  0  0  0
   -5.4430   -0.0290  -20.4810 C   0  0  0  0  0  0  0  0  0  0  0  0
   -5.5320   -0.1500  -22.6380 H   0  0  0  0  0  0  0  0  0  0  0  0
   -3.5830    1.3150  -23.0080 H   0  0  0  0  0  0  0  0  0  0  0  0
   -2.3380    2.2690  -21.0750 H   0  0  0  0  0  0  0  0  0  0  0  0
   -3.0860    1.7650  -18.7610 H   0  0  0  0  0  0  0  0  0  0  0  0
   -4.6220    0.6260  -17.2220 H   0  0  0  0  0  0  0  0  0  0  0  0
   -7.7330   -1.6710  -18.5850 H   0  0  0  0  0  0  0  0  0  0  0  0
   -8.4050   -1.7300  -20.8610 H   0  0  0  0  0  0  0  0  0  0  0  0
   -7.5920   -0.7990  -22.1050 H   0  0  0  0  0  0  0  0  0  0  0  0
   -8.9330   -3.4190  -22.9830 C   0  0  0  0  0  0  0  0  0  0  0  0
   -9.1780   -4.0090  -24.3840 C   0  0  0  0  0  0  0  0  0  0  0  0
  -10.2650   -4.0940  -24.4870 H   0  0  0  0  0  0  0  0  0  0  0  0
   -8.8120   -3.3120  -25.1460 H   0  0  0  0  0  0  0  0  0  0  0  0
   -9.6590   -3.8550  -22.2730 H   0  0  0  0  0  0  0  0  0  0  0  0
   -9.0950   -2.3390  -23.0080 H   0  0  0  0  0  0  0  0  0  0  0  0
   -6.1030   -4.9700  -23.1890 H   0  0  0  0  0  0  0  0  0  0  0  0
   -6.8150   -5.3410  -21.6360 H   0  0  0  0  0  0  0  0  0  0  0  0
   -7.5580   -6.9280  -23.4310 H   0  0  0  0  0  0  0  0  0  0  0  0
   -8.9150   -6.1420  -22.6310 H   0  0  0  0  0  0  0  0  0  0  0  0
   -7.6060   -5.2590  -25.2370 H   0  0  0  0  0  0  0  0  0  0  0  0
  -10.4190   -6.3570  -24.9810 H   0  0  0  0  0  0  0  0  0  0  0  0
   -8.8950   -8.2330  -24.6040 H   0  0  0  0  0  0  0  0  0  0  0  0
   -7.8550   -7.7420  -25.9530 H   0  0  0  0  0  0  0  0  0  0  0  0
   -9.4830   -8.3380  -26.2720 H   0  0  0  0  0  0  0  0  0  0  0  0
  1  2  1  0  0  0  0
  1 44  1  0  0  0  0
  1 45  1  0  0  0  0
  1 46  1  0  0  0  0
  2  3  1  0  0  0  0
  2  7  1  0  0  0  0
  2 43  1  0  0  0  0
  3  4  1  0  0  0  0
  3  5  1  0  0  0  0
  3  6  1  0  0  0  0
  7  8  1  0  0  0  0
  7 33  1  0  0  0  0
  7 42  1  0  0  0  0
  8  9  1  0  0  0  0
  8 40  1  0  0  0  0
  8 41  1  0  0  0  0
  9 10  1  0  0  0  0
  9 38  1  0  0  0  0
  9 39  1  0  0  0  0
 10 11  1  0  0  0  0
 10 32  1  0  0  0  0
 11 12  2  0  0  0  0
 11 13  1  0  0  0  0
 13 14  1  0  0  0  0
 13 30  1  0  0  0  0
 13 31  1  0  0  0  0
 14 15  2  0  0  0  0
 14 23  1  0  0  0  0
 15 16  1  0  0  0  0
 15 29  1  0  0  0  0
 16 17  2  0  0  0  0
 17 18  1  0  0  0  0
 17 28  1  0  0  0  0
 18 19  2  0  0  0  0
 18 23  1  0  0  0  0
 19 20  1  0  0  0  0
 19 27  1  0  0  0  0
 20 21  2  0  0  0  0
 20 26  1  0  0  0  0
 21 22  1  0  0  0  0
 21 25  1  0  0  0  0
 22 23  2  0  0  0  0
 22 24  1  0  0  0  0
 32 33  1  0  0  0  0
 32 36  1  0  0  0  0
 32 37  1  0  0  0  0
 33 34  1  0  0  0  0
 33 35  1  0  0  0  0
M  END
>  <MODEL>
       1

$$$$
