tmp_first_model_15_47.pdb
 OpenBabel08282501153D

 58 63  0  0  1  0  0  0  0  0999 V2000
   -9.2210    0.1620  -20.9910 O   0  0  0  0  0  0  0  0  0  0  0  0
   -8.3370   -0.2250  -21.7350 C   0  0  0  0  0  0  0  0  0  0  0  0
   -7.4330   -1.3520  -21.2850 C   0  0  0  0  0  0  0  0  0  0  0  0
   -6.5720   -0.8090  -20.1480 C   0  0  0  0  0  0  0  0  0  0  0  0
   -6.8920   -1.0770  -18.8300 C   0  0  0  0  0  0  0  0  0  0  0  0
   -6.2150   -0.5900  -17.7650 N   0  0  0  0  0  0  0  0  0  0  0  0
   -5.1830    0.1870  -18.0090 C   0  0  0  0  0  0  0  0  0  0  0  0
   -4.7530    0.5510  -19.3170 C   0  0  0  0  0  0  0  0  0  0  0  0
   -3.6040    1.3600  -19.5470 C   0  0  0  0  0  0  0  0  0  0  0  0
   -3.1960    1.6450  -20.8370 C   0  0  0  0  0  0  0  0  0  0  0  0
   -3.9310    1.2380  -21.9310 C   0  0  0  0  0  0  0  0  0  0  0  0
   -5.2630    0.6670  -21.7520 C   0  0  0  0  0  0  0  0  0  0  0  0
   -5.5170    0.0790  -20.3920 C   0  0  0  0  0  0  0  0  0  0  0  0
   -5.5030   -0.0300  -22.5660 H   0  0  0  0  0  0  0  0  0  0  0  0
   -3.5820    1.4430  -22.9350 H   0  0  0  0  0  0  0  0  0  0  0  0
   -2.2830    2.2180  -21.0020 H   0  0  0  0  0  0  0  0  0  0  0  0
   -3.0470    1.7190  -18.6900 H   0  0  0  0  0  0  0  0  0  0  0  0
   -4.6210    0.5590  -17.1550 H   0  0  0  0  0  0  0  0  0  0  0  0
   -7.7340   -1.7220  -18.5930 H   0  0  0  0  0  0  0  0  0  0  0  0
   -6.8190   -1.7050  -22.1190 H   0  0  0  0  0  0  0  0  0  0  0  0
   -8.0550   -2.1720  -20.9120 H   0  0  0  0  0  0  0  0  0  0  0  0
   -8.0310    0.4360  -22.9440 N   0  0  0  0  0  0  0  0  0  0  0  0
   -8.1100   -0.1330  -24.2900 C   0  0  0  0  0  0  0  0  0  0  0  0
   -9.4200    0.2900  -24.9230 C   0  0  0  0  0  0  0  0  0  0  0  0
   -9.4580    1.3260  -25.8580 C   0  0  0  0  0  0  0  0  0  0  0  0
  -10.6720    1.9030  -26.2150 C   0  0  0  0  0  0  0  0  0  0  0  0
  -11.8580    1.4350  -25.6700 C   0  0  0  0  0  0  0  0  0  0  0  0
  -11.8230    0.3600  -24.7890 C   0  0  0  0  0  0  0  0  0  0  0  0
  -13.3160   -0.2670  -24.1530 Cl  0  0  0  0  0  0  0  0  0  0  0  0
  -10.6130   -0.1990  -24.3870 C   0  0  0  0  0  0  0  0  0  0  0  0
  -10.6130   -0.9620  -23.6150 H   0  0  0  0  0  0  0  0  0  0  0  0
  -12.8020    1.9000  -25.9140 H   0  0  0  0  0  0  0  0  0  0  0  0
  -10.6930    2.7410  -26.9090 H   0  0  0  0  0  0  0  0  0  0  0  0
   -8.5350    1.7040  -26.2940 H   0  0  0  0  0  0  0  0  0  0  0  0
   -8.0160   -1.2170  -24.2050 H   0  0  0  0  0  0  0  0  0  0  0  0
   -7.2660    0.2480  -24.8820 H   0  0  0  0  0  0  0  0  0  0  0  0
   -8.1700    1.8660  -22.8670 C   0  0  2  0  0  0  0  0  0  0  0  0
   -7.2340    2.8130  -23.4690 C   0  0  0  0  0  0  0  0  0  0  0  0
   -7.4380    3.5990  -22.2440 N   0  3  1  0  0  0  0  0  0  0  0  0
   -7.9990    5.3570  -23.3520 C   0  0  0  0  0  0  0  0  0  0  0  0
   -8.4520    6.3420  -22.2130 C   0  0  0  0  0  0  0  0  0  0  0  0
   -7.0330    5.9420  -24.1500 C   0  0  0  0  0  0  0  0  0  0  0  0
   -7.4720    6.6800  -24.7970 H   0  0  0  0  0  0  0  0  0  0  0  0
   -6.1140    6.2120  -23.6450 H   0  0  0  0  0  0  0  0  0  0  0  0
   -7.5370    6.8750  -21.9350 H   0  0  0  0  0  0  0  0  0  0  0  0
   -9.1200    7.0390  -22.6900 H   0  0  0  0  0  0  0  0  0  0  0  0
   -8.8600    4.9960  -23.9480 H   0  0  0  0  0  0  0  0  0  0  0  0
   -7.5050    3.6440  -22.1640 C   0  0  2  0  0  0  0  0  0  0  0  0
   -8.3680    2.5630  -21.6120 C   0  0  0  0  0  0  0  0  0  0  0  0
   -6.0150    1.4890  -21.8300 H   0  0  0  0  0  0  0  0  0  0  0  0
   -8.4330    2.1720  -20.5800 H   0  0  0  0  0  0  0  0  0  0  0  0
   -9.5020    2.5240  -22.6130 C   0  0  0  0  0  0  0  0  0  0  0  0
   -9.8250    3.4410  -23.1040 H   0  0  0  0  0  0  0  0  0  0  0  0
  -10.3060    1.8400  -22.3720 H   0  0  0  0  0  0  0  0  0  0  0  0
   -8.9030    5.8540  -21.3340 H   0  0  0  0  0  0  0  0  0  0  0  0
   -6.5880    4.2670  -22.0810 H   0  0  0  0  0  0  0  0  0  0  0  0
   -7.7130    3.2770  -24.3630 H   0  0  0  0  0  0  0  0  0  0  0  0
   -6.2130    2.3720  -23.8090 H   0  0  0  0  0  0  0  0  0  0  0  0
  1  2  2  0  0  0  0
  2  3  1  0  0  0  0
  2 22  1  0  0  0  0
  3  4  1  0  0  0  0
  3 20  1  0  0  0  0
  3 21  1  0  0  0  0
  4  5  2  0  0  0  0
  4 13  1  0  0  0  0
  5  6  1  0  0  0  0
  5 19  1  0  0  0  0
  6  7  2  0  0  0  0
  7  8  1  0  0  0  0
  7 18  1  0  0  0  0
  8  9  2  0  0  0  0
  8 13  1  0  0  0  0
  9 10  1  0  0  0  0
  9 17  1  0  0  0  0
 10 11  2  0  0  0  0
 10 16  1  0  0  0  0
 11 12  1  0  0  0  0
 11 15  1  0  0  0  0
 12 13  2  0  0  0  0
 12 14  1  0  0  0  0
 22 23  1  0  0  0  0
 23 24  1  0  0  0  0
 23 35  1  0  0  0  0
 23 36  1  0  0  0  0
 24 25  2  0  0  0  0
 24 30  1  0  0  0  0
 25 26  1  0  0  0  0
 25 34  1  0  0  0  0
 26 27  2  0  0  0  0
 26 33  1  0  0  0  0
 27 28  1  0  0  0  0
 27 32  1  0  0  0  0
 28 29  1  0  0  0  0
 28 30  2  0  0  0  0
 30 31  1  0  0  0  0
 37 22  1  6  0  0  0
 37 38  1  0  0  0  0
 37 49  1  0  0  0  0
 37 52  1  0  0  0  0
 38 39  1  0  0  0  0
 38 57  1  0  0  0  0
 38 58  1  0  0  0  0
 39 40  1  0  0  0  0
 39 48  1  0  0  0  0
 39 56  1  1  0  0  0
 40 41  1  0  0  0  0
 40 42  1  0  0  0  0
 40 47  1  0  0  0  0
 41 42  1  0  0  0  0
 41 45  1  0  0  0  0
 41 46  1  0  0  0  0
 42 43  1  0  0  0  0
 42 44  1  0  0  0  0
 48 49  1  0  0  0  0
 48 52  1  0  0  0  0
 48 55  1  1  0  0  0
 49 50  1  0  0  0  0
 49 51  1  0  0  0  0
 52 53  1  0  0  0  0
 52 54  1  0  0  0  0
M  CHG  1  39   1
M  END
>  <MODEL>
       1

$$$$
