tmp_first_model_16_66.pdb
 OpenBabel08282501503D

 44 47  0  0  1  0  0  0  0  0999 V2000
   -7.8580   -0.6110  -24.9370 C   0  0  0  0  0  0  0  0  0  0  0  0
   -8.3760   -2.0370  -25.1010 C   0  0  0  0  0  0  0  0  0  0  0  0
   -8.3440   -2.8710  -23.8060 C   0  0  1  0  0  0  0  0  0  0  0  0
   -8.9080   -4.2520  -24.0620 C   0  0  0  0  0  0  0  0  0  0  0  0
  -10.2820   -4.5690  -24.3100 C   0  0  0  0  0  0  0  0  0  0  0  0
  -10.4750   -5.8870  -24.5920 C   0  0  0  0  0  0  0  0  0  0  0  0
   -8.9870   -6.7580  -24.5690 S   0  0  0  0  0  0  0  0  0  0  0  0
   -8.0900   -5.3380  -24.1560 C   0  0  0  0  0  0  0  0  0  0  0  0
   -6.6070   -5.3400  -23.9020 C   0  0  0  0  0  0  0  0  0  0  0  0
   -6.1030   -3.8960  -23.9550 C   0  0  0  0  0  0  0  0  0  0  0  0
   -6.9990   -2.9960  -23.2430 N   0  0  0  0  0  0  0  0  0  0  0  0
   -6.6600   -2.6730  -21.9440 C   0  0  0  0  0  0  0  0  0  0  0  0
   -5.7820   -3.2750  -21.3460 O   0  0  0  0  0  0  0  0  0  0  0  0
   -7.4040   -1.4920  -21.3020 C   0  0  0  0  0  0  0  0  0  0  0  0
   -6.6010   -0.8450  -20.2090 C   0  0  0  0  0  0  0  0  0  0  0  0
   -6.9050   -1.1000  -18.8980 C   0  0  0  0  0  0  0  0  0  0  0  0
   -6.1650   -0.7080  -17.8300 N   0  0  0  0  0  0  0  0  0  0  0  0
   -5.0960    0.0130  -18.0790 C   0  0  0  0  0  0  0  0  0  0  0  0
   -4.7050    0.4400  -19.3810 C   0  0  0  0  0  0  0  0  0  0  0  0
   -3.6040    1.3090  -19.6090 C   0  0  0  0  0  0  0  0  0  0  0  0
   -3.2160    1.6210  -20.8850 C   0  0  0  0  0  0  0  0  0  0  0  0
   -3.9180    1.0950  -21.9920 C   0  0  0  0  0  0  0  0  0  0  0  0
   -5.0150    0.2920  -21.7960 C   0  0  0  0  0  0  0  0  0  0  0  0
   -5.4540   -0.0410  -20.4860 C   0  0  0  0  0  0  0  0  0  0  0  0
   -5.5440   -0.1040  -22.6580 H   0  0  0  0  0  0  0  0  0  0  0  0
   -3.5840    1.3280  -22.9990 H   0  0  0  0  0  0  0  0  0  0  0  0
   -2.3550    2.2610  -21.0600 H   0  0  0  0  0  0  0  0  0  0  0  0
   -3.0890    1.7320  -18.7480 H   0  0  0  0  0  0  0  0  0  0  0  0
   -4.4790    0.2850  -17.2170 H   0  0  0  0  0  0  0  0  0  0  0  0
   -7.7950   -1.6830  -18.6500 H   0  0  0  0  0  0  0  0  0  0  0  0
   -7.6770   -0.7720  -22.0820 H   0  0  0  0  0  0  0  0  0  0  0  0
   -8.3410   -1.8710  -20.8710 H   0  0  0  0  0  0  0  0  0  0  0  0
   -6.0480   -3.5530  -24.9990 H   0  0  0  0  0  0  0  0  0  0  0  0
   -5.1220   -3.8050  -23.4820 H   0  0  0  0  0  0  0  0  0  0  0  0
   -6.3940   -5.7780  -22.9140 H   0  0  0  0  0  0  0  0  0  0  0  0
   -6.0820   -5.9460  -24.6530 H   0  0  0  0  0  0  0  0  0  0  0  0
  -11.4050   -6.4180  -24.7680 H   0  0  0  0  0  0  0  0  0  0  0  0
  -11.0850   -3.8410  -24.2600 H   0  0  0  0  0  0  0  0  0  0  0  0
   -8.9670   -2.3660  -23.0520 H   0  0  0  0  0  0  0  0  0  0  0  0
   -7.8160   -2.5740  -25.8830 H   0  0  0  0  0  0  0  0  0  0  0  0
   -9.4220   -2.0420  -25.4320 H   0  0  0  0  0  0  0  0  0  0  0  0
   -7.9190   -0.0560  -25.8790 H   0  0  0  0  0  0  0  0  0  0  0  0
   -6.8090   -0.5930  -24.6140 H   0  0  0  0  0  0  0  0  0  0  0  0
   -8.4460   -0.0500  -24.1980 H   0  0  0  0  0  0  0  0  0  0  0  0
  1  2  1  0  0  0  0
  1 42  1  0  0  0  0
  1 43  1  0  0  0  0
  1 44  1  0  0  0  0
  2  3  1  0  0  0  0
  2 40  1  0  0  0  0
  2 41  1  0  0  0  0
  3  4  1  0  0  0  0
  3 11  1  0  0  0  0
  3 39  1  1  0  0  0
  4  5  1  0  0  0  0
  4  8  2  0  0  0  0
  5  6  2  0  0  0  0
  5 38  1  0  0  0  0
  6  7  1  0  0  0  0
  6 37  1  0  0  0  0
  7  8  1  0  0  0  0
  8  9  1  0  0  0  0
  9 10  1  0  0  0  0
  9 35  1  0  0  0  0
  9 36  1  0  0  0  0
 10 11  1  0  0  0  0
 10 33  1  0  0  0  0
 10 34  1  0  0  0  0
 11 12  1  0  0  0  0
 12 13  2  0  0  0  0
 12 14  1  0  0  0  0
 14 15  1  0  0  0  0
 14 31  1  0  0  0  0
 14 32  1  0  0  0  0
 15 16  2  0  0  0  0
 15 24  1  0  0  0  0
 16 17  1  0  0  0  0
 16 30  1  0  0  0  0
 17 18  2  0  0  0  0
 18 19  1  0  0  0  0
 18 29  1  0  0  0  0
 19 20  2  0  0  0  0
 19 24  1  0  0  0  0
 20 21  1  0  0  0  0
 20 28  1  0  0  0  0
 21 22  2  0  0  0  0
 21 27  1  0  0  0  0
 22 23  1  0  0  0  0
 22 26  1  0  0  0  0
 23 24  2  0  0  0  0
 23 25  1  0  0  0  0
M  END
>  <MODEL>
       1

$$$$
