tmp_first_model_2_30.pdb
 OpenBabel08272517383D

 58 63  0  0  1  0  0  0  0  0999 V2000
   -8.1810   -4.1400  -23.8240 C   0  0  0  0  0  0  0  0  0  0  0  0
   -8.4140   -3.1380  -22.6990 C   0  0  1  0  0  0  0  0  0  0  0  0
   -7.1350   -2.3520  -22.3710 C   0  0  0  0  0  0  0  0  0  0  0  0
   -7.6340   -1.2700  -21.5520 N   0  0  0  0  0  0  0  0  0  0  0  0
   -6.9470   -0.7790  -20.4250 C   0  0  0  0  0  0  0  0  0  0  0  0
   -7.4150   -0.9850  -19.1480 C   0  0  0  0  0  0  0  0  0  0  0  0
   -6.7670   -0.5650  -18.0370 N   0  0  0  0  0  0  0  0  0  0  0  0
   -5.6450    0.0950  -18.2000 C   0  0  0  0  0  0  0  0  0  0  0  0
   -5.0650    0.3910  -19.4670 C   0  0  0  0  0  0  0  0  0  0  0  0
   -3.8880    1.1710  -19.6160 C   0  0  0  0  0  0  0  0  0  0  0  0
   -3.4090    1.4720  -20.8610 C   0  0  0  0  0  0  0  0  0  0  0  0
   -4.0560    0.9820  -22.0190 C   0  0  0  0  0  0  0  0  0  0  0  0
   -5.1650    0.1810  -21.8970 C   0  0  0  0  0  0  0  0  0  0  0  0
   -5.7200   -0.0880  -20.6190 C   0  0  0  0  0  0  0  0  0  0  0  0
   -5.6460   -0.2070  -22.7900 H   0  0  0  0  0  0  0  0  0  0  0  0
   -3.7130    1.2740  -23.0060 H   0  0  0  0  0  0  0  0  0  0  0  0
   -2.5290    2.0980  -20.9690 H   0  0  0  0  0  0  0  0  0  0  0  0
   -3.4010    1.5410  -18.7180 H   0  0  0  0  0  0  0  0  0  0  0  0
   -5.1330    0.4310  -17.2990 H   0  0  0  0  0  0  0  0  0  0  0  0
   -8.3420   -1.5280  -18.9730 H   0  0  0  0  0  0  0  0  0  0  0  0
   -8.9700   -1.0230  -21.7690 C   0  0  0  0  0  0  0  0  0  0  0  0
   -9.6140   -0.1890  -21.1680 O   0  0  0  0  0  0  0  0  0  0  0  0
   -9.4850   -2.0030  -22.8640 C   0  0  1  0  0  0  0  0  0  0  0  0
   -9.3830   -1.3670  -24.2780 C   0  0  0  0  0  0  0  0  0  0  0  0
  -10.4050   -0.3660  -24.5420 N   0  0  0  0  0  0  0  0  0  0  0  0
  -10.0030    0.7630  -25.3760 C   0  0  0  0  0  0  0  0  0  0  0  0
   -8.9080    1.5710  -24.7030 C   0  0  0  0  0  0  0  0  0  0  0  0
   -7.7790    1.9660  -25.3600 C   0  0  0  0  0  0  0  0  0  0  0  0
   -6.6020    2.3130  -24.5990 C   0  0  0  0  0  0  0  0  0  0  0  0
   -5.4620    2.4600  -25.0130 O   0  0  0  0  0  0  0  0  0  0  0  0
   -6.8910    2.4460  -23.2330 N   0  0  0  0  0  0  0  0  0  0  0  0
   -8.1140    2.2070  -22.6880 C   0  0  0  0  0  0  0  0  0  0  0  0
   -9.1390    1.8170  -23.3760 N   0  0  0  0  0  0  0  0  0  0  0  0
   -8.1940    2.3120  -21.6130 H   0  0  0  0  0  0  0  0  0  0  0  0
   -6.0980    2.6580  -22.6430 H   0  0  0  0  0  0  0  0  0  0  0  0
   -7.7080    1.9490  -26.4390 H   0  0  0  0  0  0  0  0  0  0  0  0
  -10.8870    1.3830  -25.5050 H   0  0  0  0  0  0  0  0  0  0  0  0
   -9.6750    0.4090  -26.3650 H   0  0  0  0  0  0  0  0  0  0  0  0
  -11.7000   -0.4570  -24.1060 C   0  0  0  0  0  0  0  0  0  0  0  0
  -12.5820    0.2870  -24.5140 O   0  0  0  0  0  0  0  0  0  0  0  0
  -11.9740   -1.5190  -23.0820 C   0  0  0  0  0  0  0  0  0  0  0  0
  -13.2920   -1.6660  -22.6440 C   0  0  0  0  0  0  0  0  0  0  0  0
  -13.6200   -2.6230  -21.7090 C   0  0  0  0  0  0  0  0  0  0  0  0
  -12.5940   -3.4030  -21.1980 C   0  0  0  0  0  0  0  0  0  0  0  0
  -12.8970   -4.2630  -20.2130 F   0  0  0  0  0  0  0  0  0  0  0  0
  -11.2820   -3.2830  -21.6160 C   0  0  0  0  0  0  0  0  0  0  0  0
  -10.9380   -2.3210  -22.5690 C   0  0  0  0  0  0  0  0  0  0  0  0
  -10.5380   -3.9030  -21.1310 H   0  0  0  0  0  0  0  0  0  0  0  0
  -14.6360   -2.7840  -21.3690 H   0  0  0  0  0  0  0  0  0  0  0  0
  -14.0400   -0.9910  -23.0490 H   0  0  0  0  0  0  0  0  0  0  0  0
   -9.4290   -2.1720  -25.0270 H   0  0  0  0  0  0  0  0  0  0  0  0
   -8.4190   -0.8610  -24.3830 H   0  0  0  0  0  0  0  0  0  0  0  0
   -6.3800   -2.9250  -21.8290 H   0  0  0  0  0  0  0  0  0  0  0  0
   -6.6810   -1.9770  -23.3040 H   0  0  0  0  0  0  0  0  0  0  0  0
   -8.6680   -3.6880  -21.7860 H   0  0  0  0  0  0  0  0  0  0  0  0
   -9.0790   -4.7140  -24.0770 H   0  0  0  0  0  0  0  0  0  0  0  0
   -7.8290   -3.6410  -24.7340 H   0  0  0  0  0  0  0  0  0  0  0  0
   -7.3930   -4.8480  -23.5320 H   0  0  0  0  0  0  0  0  0  0  0  0
  1  2  1  0  0  0  0
  1 56  1  0  0  0  0
  1 57  1  0  0  0  0
  1 58  1  0  0  0  0
  2  3  1  0  0  0  0
  2 23  1  0  0  0  0
  2 55  1  1  0  0  0
  3  4  1  0  0  0  0
  3 53  1  0  0  0  0
  3 54  1  0  0  0  0
  4  5  1  0  0  0  0
  4 21  1  0  0  0  0
  5  6  2  0  0  0  0
  5 14  1  0  0  0  0
  6  7  1  0  0  0  0
  6 20  1  0  0  0  0
  7  8  2  0  0  0  0
  8  9  1  0  0  0  0
  8 19  1  0  0  0  0
  9 10  2  0  0  0  0
  9 14  1  0  0  0  0
 10 11  1  0  0  0  0
 10 18  1  0  0  0  0
 11 12  2  0  0  0  0
 11 17  1  0  0  0  0
 12 13  1  0  0  0  0
 12 16  1  0  0  0  0
 13 14  2  0  0  0  0
 13 15  1  0  0  0  0
 21 22  2  0  0  0  0
 23 21  1  1  0  0  0
 23 24  1  0  0  0  0
 23 47  1  0  0  0  0
 24 25  1  0  0  0  0
 24 51  1  0  0  0  0
 24 52  1  0  0  0  0
 25 26  1  0  0  0  0
 25 39  1  0  0  0  0
 26 27  1  0  0  0  0
 26 37  1  0  0  0  0
 26 38  1  0  0  0  0
 27 28  2  0  0  0  0
 27 33  1  0  0  0  0
 28 29  1  0  0  0  0
 28 36  1  0  0  0  0
 29 30  2  0  0  0  0
 29 31  1  0  0  0  0
 31 32  1  0  0  0  0
 31 35  1  0  0  0  0
 32 33  2  0  0  0  0
 32 34  1  0  0  0  0
 39 40  2  0  0  0  0
 39 41  1  0  0  0  0
 41 42  2  0  0  0  0
 41 47  1  0  0  0  0
 42 43  1  0  0  0  0
 42 50  1  0  0  0  0
 43 44  2  0  0  0  0
 43 49  1  0  0  0  0
 44 45  1  0  0  0  0
 44 46  1  0  0  0  0
 46 47  2  0  0  0  0
 46 48  1  0  0  0  0
M  END
>  <MODEL>
       1

$$$$
