tmp_first_model_12_76.pdb
 OpenBabel08272523333D

 66 71  0  0  1  0  0  0  0  0999 V2000
   -8.1180   -3.8170  -23.9100 C   0  0  0  0  0  0  0  0  0  0  0  0
   -8.3440   -3.0220  -22.6190 C   0  0  1  0  0  0  0  0  0  0  0  0
   -7.0260   -2.5960  -21.9360 C   0  0  0  0  0  0  0  0  0  0  0  0
   -7.3980   -1.4070  -21.1880 N   0  0  0  0  0  0  0  0  0  0  0  0
   -6.6130   -0.8050  -20.1680 C   0  0  0  0  0  0  0  0  0  0  0  0
   -6.9100   -1.0470  -18.8510 C   0  0  0  0  0  0  0  0  0  0  0  0
   -6.2020   -0.5560  -17.8050 N   0  0  0  0  0  0  0  0  0  0  0  0
   -5.1700    0.2060  -18.0760 C   0  0  0  0  0  0  0  0  0  0  0  0
   -4.7510    0.5510  -19.3920 C   0  0  0  0  0  0  0  0  0  0  0  0
   -3.6240    1.3850  -19.6270 C   0  0  0  0  0  0  0  0  0  0  0  0
   -3.2620    1.7200  -20.9020 C   0  0  0  0  0  0  0  0  0  0  0  0
   -4.0240    1.2580  -21.9950 C   0  0  0  0  0  0  0  0  0  0  0  0
   -5.1120    0.4320  -21.7940 C   0  0  0  0  0  0  0  0  0  0  0  0
   -5.5060    0.0520  -20.4820 C   0  0  0  0  0  0  0  0  0  0  0  0
   -5.6160   -0.0070  -22.6500 H   0  0  0  0  0  0  0  0  0  0  0  0
   -3.6890    1.4710  -23.0080 H   0  0  0  0  0  0  0  0  0  0  0  0
   -2.3720    2.3170  -21.0890 H   0  0  0  0  0  0  0  0  0  0  0  0
   -3.0720    1.7560  -18.7670 H   0  0  0  0  0  0  0  0  0  0  0  0
   -4.6190    0.6110  -17.2260 H   0  0  0  0  0  0  0  0  0  0  0  0
   -7.7600   -1.6750  -18.5910 H   0  0  0  0  0  0  0  0  0  0  0  0
   -8.6270   -0.8960  -21.5310 C   0  0  0  0  0  0  0  0  0  0  0  0
   -9.1520    0.0540  -20.9770 O   0  0  0  0  0  0  0  0  0  0  0  0
   -9.1740   -1.7060  -22.7360 C   0  0  1  0  0  0  0  0  0  0  0  0
   -8.8580   -0.9610  -24.0600 C   0  0  0  0  0  0  0  0  0  0  0  0
   -9.5720    0.2950  -24.1590 N   0  0  0  0  0  0  0  0  0  0  0  0
   -8.8510    1.5070  -24.5000 C   0  0  0  0  0  0  0  0  0  0  0  0
   -8.2690    2.1720  -23.2500 C   0  0  0  0  0  0  0  0  0  0  0  0
   -7.5920    3.4810  -23.5150 N   0  3  0  0  0  0  0  0  0  0  0  0
   -6.3350    3.3630  -24.3590 C   0  0  0  0  0  0  0  0  0  0  0  0
   -5.6260    4.7090  -24.4590 C   0  0  0  0  0  0  0  0  0  0  0  0
   -5.3270    5.2550  -23.1920 O   0  0  0  0  0  0  0  0  0  0  0  0
   -6.5110    5.4720  -22.4540 C   0  0  0  0  0  0  0  0  0  0  0  0
   -7.2680    4.1750  -22.2140 C   0  0  0  0  0  0  0  0  0  0  0  0
   -8.2060    4.3660  -21.6840 H   0  0  0  0  0  0  0  0  0  0  0  0
   -6.6540    3.4930  -21.6150 H   0  0  0  0  0  0  0  0  0  0  0  0
   -7.1660    6.1800  -22.9880 H   0  0  0  0  0  0  0  0  0  0  0  0
   -6.2060    5.9170  -21.5030 H   0  0  0  0  0  0  0  0  0  0  0  0
   -4.6690    4.6040  -24.9780 H   0  0  0  0  0  0  0  0  0  0  0  0
   -6.2610    5.4110  -25.0260 H   0  0  0  0  0  0  0  0  0  0  0  0
   -5.6700    2.6260  -23.8960 H   0  0  0  0  0  0  0  0  0  0  0  0
   -6.6080    3.0160  -25.3570 H   0  0  0  0  0  0  0  0  0  0  0  0
   -8.2830    4.0780  -24.0220 H   0  0  0  0  0  0  0  0  0  0  0  0
   -9.0620    2.3430  -22.5130 H   0  0  0  0  0  0  0  0  0  0  0  0
   -7.5370    1.4970  -22.7890 H   0  0  0  0  0  0  0  0  0  0  0  0
   -9.5610    2.1650  -25.0060 H   0  0  0  0  0  0  0  0  0  0  0  0
   -8.0520    1.2290  -25.1970 H   0  0  0  0  0  0  0  0  0  0  0  0
  -10.9070    0.3660  -23.9070 C   0  0  0  0  0  0  0  0  0  0  0  0
  -11.5890    1.3410  -24.2040 O   0  0  0  0  0  0  0  0  0  0  0  0
  -11.4950   -0.8300  -23.2140 C   0  0  0  0  0  0  0  0  0  0  0  0
  -12.8800   -0.8790  -23.0960 C   0  0  0  0  0  0  0  0  0  0  0  0
  -13.4750   -1.8930  -22.3790 C   0  0  0  0  0  0  0  0  0  0  0  0
  -12.6740   -2.8390  -21.7450 C   0  0  0  0  0  0  0  0  0  0  0  0
  -13.4330   -3.9530  -20.6460 Cl  0  0  0  0  0  0  0  0  0  0  0  0
  -11.2990   -2.8400  -21.8990 C   0  0  0  0  0  0  0  0  0  0  0  0
  -10.6840   -1.8310  -22.6510 C   0  0  0  0  0  0  0  0  0  0  0  0
  -10.7230   -3.6040  -21.3880 H   0  0  0  0  0  0  0  0  0  0  0  0
  -14.5510   -1.9490  -22.2720 H   0  0  0  0  0  0  0  0  0  0  0  0
  -13.4610   -0.0880  -23.5570 H   0  0  0  0  0  0  0  0  0  0  0  0
   -7.7890   -0.7360  -24.1180 H   0  0  0  0  0  0  0  0  0  0  0  0
   -9.1360   -1.6230  -24.8970 H   0  0  0  0  0  0  0  0  0  0  0  0
   -6.2440   -2.3790  -22.6820 H   0  0  0  0  0  0  0  0  0  0  0  0
   -6.6280   -3.3640  -21.2630 H   0  0  0  0  0  0  0  0  0  0  0  0
   -8.8820   -3.6560  -21.9080 H   0  0  0  0  0  0  0  0  0  0  0  0
   -7.6070   -4.7660  -23.7070 H   0  0  0  0  0  0  0  0  0  0  0  0
   -7.4880   -3.2570  -24.6150 H   0  0  0  0  0  0  0  0  0  0  0  0
   -9.0600   -4.0480  -24.4220 H   0  0  0  0  0  0  0  0  0  0  0  0
  1  2  1  0  0  0  0
  1 64  1  0  0  0  0
  1 65  1  0  0  0  0
  1 66  1  0  0  0  0
  2  3  1  0  0  0  0
  2 23  1  0  0  0  0
  2 63  1  1  0  0  0
  3  4  1  0  0  0  0
  3 61  1  0  0  0  0
  3 62  1  0  0  0  0
  4  5  1  0  0  0  0
  4 21  1  0  0  0  0
  5  6  2  0  0  0  0
  5 14  1  0  0  0  0
  6  7  1  0  0  0  0
  6 20  1  0  0  0  0
  7  8  2  0  0  0  0
  8  9  1  0  0  0  0
  8 19  1  0  0  0  0
  9 10  2  0  0  0  0
  9 14  1  0  0  0  0
 10 11  1  0  0  0  0
 10 18  1  0  0  0  0
 11 12  2  0  0  0  0
 11 17  1  0  0  0  0
 12 13  1  0  0  0  0
 12 16  1  0  0  0  0
 13 14  2  0  0  0  0
 13 15  1  0  0  0  0
 21 22  2  0  0  0  0
 23 21  1  1  0  0  0
 23 24  1  0  0  0  0
 23 55  1  0  0  0  0
 24 25  1  0  0  0  0
 24 59  1  0  0  0  0
 24 60  1  0  0  0  0
 25 26  1  0  0  0  0
 25 47  1  0  0  0  0
 26 27  1  0  0  0  0
 26 45  1  0  0  0  0
 26 46  1  0  0  0  0
 27 28  1  0  0  0  0
 27 43  1  0  0  0  0
 27 44  1  0  0  0  0
 28 29  1  0  0  0  0
 28 33  1  0  0  0  0
 28 42  1  0  0  0  0
 29 30  1  0  0  0  0
 29 40  1  0  0  0  0
 29 41  1  0  0  0  0
 30 31  1  0  0  0  0
 30 38  1  0  0  0  0
 30 39  1  0  0  0  0
 31 32  1  0  0  0  0
 32 33  1  0  0  0  0
 32 36  1  0  0  0  0
 32 37  1  0  0  0  0
 33 34  1  0  0  0  0
 33 35  1  0  0  0  0
 47 48  2  0  0  0  0
 47 49  1  0  0  0  0
 49 50  2  0  0  0  0
 49 55  1  0  0  0  0
 50 51  1  0  0  0  0
 50 58  1  0  0  0  0
 51 52  2  0  0  0  0
 51 57  1  0  0  0  0
 52 53  1  0  0  0  0
 52 54  1  0  0  0  0
 54 55  2  0  0  0  0
 54 56  1  0  0  0  0
M  CHG  1  28   1
M  END
>  <MODEL>
       1

$$$$
