tmp_first_model_6_54.pdb
 OpenBabel08272519583D

 40 43  0  0  0  0  0  0  0  0999 V2000
  -10.3060   -2.6230  -22.7700 C   0  0  0  0  0  0  0  0  0  0  0  0
   -8.9570   -2.2290  -22.4230 N   0  0  0  0  0  0  0  0  0  0  0  0
   -7.7560   -2.6840  -22.8920 C   0  0  0  0  0  0  0  0  0  0  0  0
   -7.6560   -3.6060  -24.0490 C   0  0  0  0  0  0  0  0  0  0  0  0
   -7.9070   -5.0120  -23.5850 C   0  0  0  0  0  0  0  0  0  0  0  0
   -9.1000   -5.6630  -23.8620 C   0  0  0  0  0  0  0  0  0  0  0  0
   -9.2790   -6.9950  -23.5070 C   0  0  0  0  0  0  0  0  0  0  0  0
   -8.2300   -7.6720  -22.8870 C   0  0  0  0  0  0  0  0  0  0  0  0
   -7.0870   -6.9840  -22.4740 C   0  0  0  0  0  0  0  0  0  0  0  0
   -6.9340   -5.6510  -22.8270 C   0  0  0  0  0  0  0  0  0  0  0  0
   -6.0550   -5.0920  -22.5280 H   0  0  0  0  0  0  0  0  0  0  0  0
   -6.3230   -7.4810  -21.8770 H   0  0  0  0  0  0  0  0  0  0  0  0
   -8.2710   -8.7440  -22.7820 H   0  0  0  0  0  0  0  0  0  0  0  0
  -10.2270   -7.4940  -23.7130 H   0  0  0  0  0  0  0  0  0  0  0  0
   -9.8920   -5.1240  -24.3690 H   0  0  0  0  0  0  0  0  0  0  0  0
   -8.3530   -3.3320  -24.8440 H   0  0  0  0  0  0  0  0  0  0  0  0
   -6.6670   -3.5070  -24.4950 H   0  0  0  0  0  0  0  0  0  0  0  0
   -6.7560   -2.2660  -22.1740 N   0  0  0  0  0  0  0  0  0  0  0  0
   -7.3250   -1.4100  -21.2650 N   0  0  0  0  0  0  0  0  0  0  0  0
   -6.5970   -0.8240  -20.2060 C   0  0  0  0  0  0  0  0  0  0  0  0
   -6.9250   -1.0690  -18.8900 C   0  0  0  0  0  0  0  0  0  0  0  0
   -6.2250   -0.5860  -17.8330 N   0  0  0  0  0  0  0  0  0  0  0  0
   -5.1970    0.1830  -18.1010 C   0  0  0  0  0  0  0  0  0  0  0  0
   -4.7580    0.5160  -19.4110 C   0  0  0  0  0  0  0  0  0  0  0  0
   -3.6380    1.3590  -19.6270 C   0  0  0  0  0  0  0  0  0  0  0  0
   -3.2600    1.6950  -20.8960 C   0  0  0  0  0  0  0  0  0  0  0  0
   -3.9950    1.2150  -22.0040 C   0  0  0  0  0  0  0  0  0  0  0  0
   -5.0700    0.3800  -21.8270 C   0  0  0  0  0  0  0  0  0  0  0  0
   -5.4770    0.0030  -20.5150 C   0  0  0  0  0  0  0  0  0  0  0  0
   -5.6050   -0.0190  -22.6840 H   0  0  0  0  0  0  0  0  0  0  0  0
   -3.6810    1.4760  -23.0100 H   0  0  0  0  0  0  0  0  0  0  0  0
   -2.3890    2.3210  -21.0660 H   0  0  0  0  0  0  0  0  0  0  0  0
   -3.1000    1.7260  -18.7580 H   0  0  0  0  0  0  0  0  0  0  0  0
   -4.6470    0.5980  -17.2570 H   0  0  0  0  0  0  0  0  0  0  0  0
   -7.7770   -1.7020  -18.6420 H   0  0  0  0  0  0  0  0  0  0  0  0
   -8.6830   -1.2520  -21.4720 C   0  0  0  0  0  0  0  0  0  0  0  0
   -9.4260   -0.4260  -20.9910 O   0  0  0  0  0  0  0  0  0  0  0  0
  -10.5720   -3.6100  -22.3640 H   0  0  0  0  0  0  0  0  0  0  0  0
  -10.9570   -1.8580  -22.3410 H   0  0  0  0  0  0  0  0  0  0  0  0
  -10.4270   -2.6480  -23.8570 H   0  0  0  0  0  0  0  0  0  0  0  0
  1  2  1  0  0  0  0
  1 38  1  0  0  0  0
  1 39  1  0  0  0  0
  1 40  1  0  0  0  0
  2  3  1  0  0  0  0
  2 36  1  0  0  0  0
  3  4  1  0  0  0  0
  3 18  2  0  0  0  0
  4  5  1  0  0  0  0
  4 16  1  0  0  0  0
  4 17  1  0  0  0  0
  5  6  2  0  0  0  0
  5 10  1  0  0  0  0
  6  7  1  0  0  0  0
  6 15  1  0  0  0  0
  7  8  2  0  0  0  0
  7 14  1  0  0  0  0
  8  9  1  0  0  0  0
  8 13  1  0  0  0  0
  9 10  2  0  0  0  0
  9 12  1  0  0  0  0
 10 11  1  0  0  0  0
 18 19  1  0  0  0  0
 19 20  1  0  0  0  0
 19 36  1  0  0  0  0
 20 21  2  0  0  0  0
 20 29  1  0  0  0  0
 21 22  1  0  0  0  0
 21 35  1  0  0  0  0
 22 23  2  0  0  0  0
 23 24  1  0  0  0  0
 23 34  1  0  0  0  0
 24 25  2  0  0  0  0
 24 29  1  0  0  0  0
 25 26  1  0  0  0  0
 25 33  1  0  0  0  0
 26 27  2  0  0  0  0
 26 32  1  0  0  0  0
 27 28  1  0  0  0  0
 27 31  1  0  0  0  0
 28 29  2  0  0  0  0
 28 30  1  0  0  0  0
 36 37  2  0  0  0  0
M  END
>  <MODEL>
       1

$$$$
