tmp_first_model_3_14.pdb
 OpenBabel08272518143D

 73 78  0  0  1  0  0  0  0  0999 V2000
   -6.8160   -2.9280  -24.1020 C   0  0  0  0  0  0  0  0  0  0  0  0
   -7.9150   -2.7220  -23.0480 C   0  0  1  0  0  0  0  0  0  0  0  0
   -7.3060   -2.6540  -21.6230 C   0  0  0  0  0  0  0  0  0  0  0  0
   -7.5410   -1.2950  -21.1840 N   0  0  0  0  0  0  0  0  0  0  0  0
   -6.7220   -0.7350  -20.1580 C   0  0  0  0  0  0  0  0  0  0  0  0
   -7.0220   -0.9990  -18.8440 C   0  0  0  0  0  0  0  0  0  0  0  0
   -6.3110   -0.5440  -17.7830 N   0  0  0  0  0  0  0  0  0  0  0  0
   -5.2320    0.1600  -18.0360 C   0  0  0  0  0  0  0  0  0  0  0  0
   -4.7630    0.4500  -19.3460 C   0  0  0  0  0  0  0  0  0  0  0  0
   -3.5530    1.1620  -19.5650 C   0  0  0  0  0  0  0  0  0  0  0  0
   -3.1040    1.4070  -20.8340 C   0  0  0  0  0  0  0  0  0  0  0  0
   -3.8540    0.9620  -21.9430 C   0  0  0  0  0  0  0  0  0  0  0  0
   -5.0260    0.2650  -21.7600 C   0  0  0  0  0  0  0  0  0  0  0  0
   -5.5220   -0.0060  -20.4510 C   0  0  0  0  0  0  0  0  0  0  0  0
   -5.5990   -0.0610  -22.6220 H   0  0  0  0  0  0  0  0  0  0  0  0
   -3.5110    1.1950  -22.9480 H   0  0  0  0  0  0  0  0  0  0  0  0
   -2.2050    1.9950  -20.9940 H   0  0  0  0  0  0  0  0  0  0  0  0
   -2.9990    1.5130  -18.6990 H   0  0  0  0  0  0  0  0  0  0  0  0
   -4.6590    0.5320  -17.1830 H   0  0  0  0  0  0  0  0  0  0  0  0
   -7.8930   -1.6050  -18.6060 H   0  0  0  0  0  0  0  0  0  0  0  0
   -8.2160   -0.5370  -22.1010 C   0  0  0  0  0  0  0  0  0  0  0  0
   -8.2690    0.6780  -22.0650 O   0  0  0  0  0  0  0  0  0  0  0  0
   -8.7890   -1.4190  -23.2190 C   0  0  1  0  0  0  0  0  0  0  0  0
   -8.6030   -0.7110  -24.5950 C   0  0  0  0  0  0  0  0  0  0  0  0
   -9.6340    0.2810  -24.8950 N   0  0  0  0  0  0  0  0  0  0  0  0
   -9.3580    1.5850  -25.4900 C   0  0  0  0  0  0  0  0  0  0  0  0
   -9.3570    2.7020  -24.4450 C   0  0  0  0  0  0  0  0  0  0  0  0
   -8.0570    2.7620  -23.7220 N   0  3  0  0  0  0  0  0  0  0  0  0
   -8.0830    3.5030  -22.4180 C   0  0  0  0  0  0  0  0  0  0  0  0
   -6.6820    3.5840  -21.8050 C   0  0  0  0  0  0  0  0  0  0  0  0
   -5.7070    4.1080  -22.7710 N   0  0  0  0  0  0  0  0  0  0  0  0
   -4.3510    4.8850  -22.2310 S   0  0  0  0  0  0  0  0  0  0  0  0
   -3.4500    4.9800  -23.3660 O   0  0  0  0  0  0  0  0  0  0  0  0
   -3.9410    4.2460  -20.9980 O   0  0  0  0  0  0  0  0  0  0  0  0
   -4.8990    6.5390  -21.8400 C   0  0  0  0  0  0  0  0  0  0  0  0
   -4.0880    7.0320  -21.2980 H   0  0  0  0  0  0  0  0  0  0  0  0
   -5.7890    6.4920  -21.2070 H   0  0  0  0  0  0  0  0  0  0  0  0
   -5.0990    7.0740  -22.7730 H   0  0  0  0  0  0  0  0  0  0  0  0
   -6.2450    4.4600  -24.0760 C   0  0  0  0  0  0  0  0  0  0  0  0
   -6.9670    3.2480  -24.6400 C   0  0  0  0  0  0  0  0  0  0  0  0
   -6.2620    2.4260  -24.7990 H   0  0  0  0  0  0  0  0  0  0  0  0
   -7.4020    3.5190  -25.6060 H   0  0  0  0  0  0  0  0  0  0  0  0
   -6.9330    5.3120  -23.9970 H   0  0  0  0  0  0  0  0  0  0  0  0
   -5.4290    4.7590  -24.7310 H   0  0  0  0  0  0  0  0  0  0  0  0
   -6.7010    4.2220  -20.9170 H   0  0  0  0  0  0  0  0  0  0  0  0
   -6.3450    2.5880  -21.4790 H   0  0  0  0  0  0  0  0  0  0  0  0
   -8.4960    4.5100  -22.5630 H   0  0  0  0  0  0  0  0  0  0  0  0
   -8.7390    2.9480  -21.7480 H   0  0  0  0  0  0  0  0  0  0  0  0
   -7.8830    1.7900  -23.4180 H   0  0  0  0  0  0  0  0  0  0  0  0
  -10.1490    2.5060  -23.7230 H   0  0  0  0  0  0  0  0  0  0  0  0
   -9.5730    3.6720  -24.9120 H   0  0  0  0  0  0  0  0  0  0  0  0
  -10.1480    1.7710  -26.2180 H   0  0  0  0  0  0  0  0  0  0  0  0
   -8.4120    1.5510  -26.0360 H   0  0  0  0  0  0  0  0  0  0  0  0
  -10.9490   -0.0850  -24.8470 C   0  0  0  0  0  0  0  0  0  0  0  0
  -11.8290    0.4800  -25.4840 O   0  0  0  0  0  0  0  0  0  0  0  0
  -11.2380   -1.2210  -23.9310 C   0  0  0  0  0  0  0  0  0  0  0  0
  -12.5150   -1.7630  -23.9880 C   0  0  0  0  0  0  0  0  0  0  0  0
  -12.9180   -2.7050  -23.0700 C   0  0  0  0  0  0  0  0  0  0  0  0
  -12.0540   -3.0090  -22.0190 C   0  0  0  0  0  0  0  0  0  0  0  0
  -12.6890   -3.9770  -20.7230 Cl  0  0  0  0  0  0  0  0  0  0  0  0
  -10.7480   -2.5360  -21.9930 C   0  0  0  0  0  0  0  0  0  0  0  0
  -10.2840   -1.7060  -23.0290 C   0  0  0  0  0  0  0  0  0  0  0  0
  -10.0880   -2.8370  -21.1840 H   0  0  0  0  0  0  0  0  0  0  0  0
  -13.8870   -3.1810  -23.1650 H   0  0  0  0  0  0  0  0  0  0  0  0
  -13.1740   -1.4380  -24.7830 H   0  0  0  0  0  0  0  0  0  0  0  0
   -8.6150   -1.4930  -25.3660 H   0  0  0  0  0  0  0  0  0  0  0  0
   -7.6330   -0.2120  -24.6320 H   0  0  0  0  0  0  0  0  0  0  0  0
   -6.2250   -2.8470  -21.6270 H   0  0  0  0  0  0  0  0  0  0  0  0
   -7.7470   -3.3760  -20.9260 H   0  0  0  0  0  0  0  0  0  0  0  0
   -8.5760   -3.5910  -23.1140 H   0  0  0  0  0  0  0  0  0  0  0  0
   -7.2340   -3.0570  -25.1050 H   0  0  0  0  0  0  0  0  0  0  0  0
   -6.2400   -3.8320  -23.8750 H   0  0  0  0  0  0  0  0  0  0  0  0
   -6.1120   -2.0880  -24.1270 H   0  0  0  0  0  0  0  0  0  0  0  0
  1  2  1  0  0  0  0
  1 71  1  0  0  0  0
  1 72  1  0  0  0  0
  1 73  1  0  0  0  0
  2  3  1  0  0  0  0
  2 23  1  0  0  0  0
  2 70  1  6  0  0  0
  3  4  1  0  0  0  0
  3 68  1  0  0  0  0
  3 69  1  0  0  0  0
  4  5  1  0  0  0  0
  4 21  1  0  0  0  0
  5  6  2  0  0  0  0
  5 14  1  0  0  0  0
  6  7  1  0  0  0  0
  6 20  1  0  0  0  0
  7  8  2  0  0  0  0
  8  9  1  0  0  0  0
  8 19  1  0  0  0  0
  9 10  2  0  0  0  0
  9 14  1  0  0  0  0
 10 11  1  0  0  0  0
 10 18  1  0  0  0  0
 11 12  2  0  0  0  0
 11 17  1  0  0  0  0
 12 13  1  0  0  0  0
 12 16  1  0  0  0  0
 13 14  2  0  0  0  0
 13 15  1  0  0  0  0
 21 22  2  0  0  0  0
 23 21  1  1  0  0  0
 23 24  1  0  0  0  0
 23 62  1  0  0  0  0
 24 25  1  0  0  0  0
 24 66  1  0  0  0  0
 24 67  1  0  0  0  0
 25 26  1  0  0  0  0
 25 54  1  0  0  0  0
 26 27  1  0  0  0  0
 26 52  1  0  0  0  0
 26 53  1  0  0  0  0
 27 28  1  0  0  0  0
 27 50  1  0  0  0  0
 27 51  1  0  0  0  0
 28 29  1  0  0  0  0
 28 40  1  0  0  0  0
 28 49  1  0  0  0  0
 29 30  1  0  0  0  0
 29 47  1  0  0  0  0
 29 48  1  0  0  0  0
 30 31  1  0  0  0  0
 30 45  1  0  0  0  0
 30 46  1  0  0  0  0
 31 32  1  0  0  0  0
 31 39  1  0  0  0  0
 32 33  2  0  0  0  0
 32 34  2  0  0  0  0
 32 35  1  0  0  0  0
 35 36  1  0  0  0  0
 35 37  1  0  0  0  0
 35 38  1  0  0  0  0
 39 40  1  0  0  0  0
 39 43  1  0  0  0  0
 39 44  1  0  0  0  0
 40 41  1  0  0  0  0
 40 42  1  0  0  0  0
 54 55  2  0  0  0  0
 54 56  1  0  0  0  0
 56 57  2  0  0  0  0
 56 62  1  0  0  0  0
 57 58  1  0  0  0  0
 57 65  1  0  0  0  0
 58 59  2  0  0  0  0
 58 64  1  0  0  0  0
 59 60  1  0  0  0  0
 59 61  1  0  0  0  0
 61 62  2  0  0  0  0
 61 63  1  0  0  0  0
M  CHG  1  28   1
M  END
>  <MODEL>
       1

$$$$
