tmp_first_model_5_80.pdb
 OpenBabel08272519233D

 60 65  0  0  1  0  0  0  0  0999 V2000
   -2.5240   -6.4950  -22.9850 C   0  0  0  0  0  0  0  0  0  0  0  0
   -3.8420   -6.0020  -22.5690 N   0  0  0  0  0  0  0  0  0  0  0  0
   -4.8590   -6.8840  -22.4060 C   0  0  0  0  0  0  0  0  0  0  0  0
   -4.7440   -8.0710  -22.5400 O   0  0  0  0  0  0  0  0  0  0  0  0
   -6.8180   -6.1900  -21.5240 C   0  0  0  0  0  0  0  0  0  0  0  0
   -7.4350   -5.3710  -22.7320 N   0  0  0  0  0  0  0  0  0  0  0  0
   -8.4180   -4.3110  -22.4830 C   0  0  0  0  0  0  0  0  0  0  0  0
   -8.0010   -2.9340  -23.0710 C   0  0  2  0  0  0  0  0  0  0  0  0
   -6.7810   -2.4250  -22.2780 C   0  0  0  0  0  0  0  0  0  0  0  0
   -5.6180   -2.7230  -22.4620 O   0  0  0  0  0  0  0  0  0  0  0  0
   -7.2450   -1.5950  -21.2720 N   0  0  0  0  0  0  0  0  0  0  0  0
   -6.3900   -1.2230  -20.2140 C   0  0  0  0  0  0  0  0  0  0  0  0
   -6.5310   -1.7340  -18.9470 C   0  0  0  0  0  0  0  0  0  0  0  0
   -5.6250   -1.5610  -17.9510 N   0  0  0  0  0  0  0  0  0  0  0  0
   -4.5570   -0.8500  -18.2330 C   0  0  0  0  0  0  0  0  0  0  0  0
   -4.3320   -0.2090  -19.4830 C   0  0  0  0  0  0  0  0  0  0  0  0
   -3.2050    0.6240  -19.7160 C   0  0  0  0  0  0  0  0  0  0  0  0
   -3.1660    1.4400  -20.8150 C   0  0  0  0  0  0  0  0  0  0  0  0
   -4.2010    1.4010  -21.7790 C   0  0  0  0  0  0  0  0  0  0  0  0
   -5.2480    0.5270  -21.6270 C   0  0  0  0  0  0  0  0  0  0  0  0
   -5.3240   -0.3120  -20.4780 C   0  0  0  0  0  0  0  0  0  0  0  0
   -6.0320    0.4650  -22.3710 H   0  0  0  0  0  0  0  0  0  0  0  0
   -4.1580    2.0550  -22.6460 H   0  0  0  0  0  0  0  0  0  0  0  0
   -2.3250    2.1090  -20.9670 H   0  0  0  0  0  0  0  0  0  0  0  0
   -2.4330    0.6710  -18.9580 H   0  0  0  0  0  0  0  0  0  0  0  0
   -3.8270   -0.7070  -17.4360 H   0  0  0  0  0  0  0  0  0  0  0  0
   -7.3980   -2.3400  -18.6870 H   0  0  0  0  0  0  0  0  0  0  0  0
   -8.6910   -1.4480  -21.2700 C   0  0  0  0  0  0  0  0  0  0  0  0
   -9.0540   -1.8360  -22.7180 C   0  0  2  0  0  0  0  0  0  0  0  0
  -10.5250   -2.1920  -22.9140 C   0  0  0  0  0  0  0  0  0  0  0  0
  -10.8290   -2.9940  -22.2320 H   0  0  0  0  0  0  0  0  0  0  0  0
  -11.1720   -1.3300  -22.7110 H   0  0  0  0  0  0  0  0  0  0  0  0
  -10.7170   -2.5300  -23.9390 H   0  0  0  0  0  0  0  0  0  0  0  0
   -8.8210   -0.9520  -23.3210 H   0  0  0  0  0  0  0  0  0  0  0  0
   -8.9750   -0.4210  -21.0160 H   0  0  0  0  0  0  0  0  0  0  0  0
   -9.1860   -2.1120  -20.5420 H   0  0  0  0  0  0  0  0  0  0  0  0
   -7.6480   -3.1620  -24.5300 C   0  0  0  0  0  0  0  0  0  0  0  0
   -7.6920   -2.1200  -25.4630 C   0  0  0  0  0  0  0  0  0  0  0  0
   -7.2310   -2.3300  -26.7520 C   0  0  0  0  0  0  0  0  0  0  0  0
   -7.2450   -1.0080  -27.8890 Cl  0  0  0  0  0  0  0  0  0  0  0  0
   -6.7270   -3.5620  -27.1650 C   0  0  0  0  0  0  0  0  0  0  0  0
   -6.7020   -4.6010  -26.2590 C   0  0  0  0  0  0  0  0  0  0  0  0
   -7.1480   -4.4120  -24.9440 C   0  0  0  0  0  0  0  0  0  0  0  0
   -7.0070   -5.5690  -24.0000 C   0  0  0  0  0  0  0  0  0  0  0  0
   -6.5170   -6.6260  -24.3810 O   0  0  0  0  0  0  0  0  0  0  0  0
   -6.3150   -5.5740  -26.5470 H   0  0  0  0  0  0  0  0  0  0  0  0
   -6.3460   -3.6890  -28.1720 H   0  0  0  0  0  0  0  0  0  0  0  0
   -8.0660   -1.1400  -25.1910 H   0  0  0  0  0  0  0  0  0  0  0  0
   -9.3820   -4.6040  -22.9260 H   0  0  0  0  0  0  0  0  0  0  0  0
   -8.5390   -4.2580  -21.4000 H   0  0  0  0  0  0  0  0  0  0  0  0
   -6.5520   -5.9160  -21.6840 C   0  0  0  0  0  0  0  0  0  0  0  0
   -5.9270   -5.1930  -20.5970 C   0  0  0  0  0  0  0  0  0  0  0  0
   -5.4430   -5.8640  -19.9300 H   0  0  0  0  0  0  0  0  0  0  0  0
   -6.6620   -4.5380  -20.2040 H   0  0  0  0  0  0  0  0  0  0  0  0
   -7.7400   -6.3920  -20.9520 H   0  0  0  0  0  0  0  0  0  0  0  0
   -7.1430   -7.2790  -21.7430 H   0  0  0  0  0  0  0  0  0  0  0  0
   -4.0000   -5.0050  -22.6440 H   0  0  0  0  0  0  0  0  0  0  0  0
   -2.2250   -7.3340  -22.3470 H   0  0  0  0  0  0  0  0  0  0  0  0
   -2.5430   -6.8470  -24.0250 H   0  0  0  0  0  0  0  0  0  0  0  0
   -1.7940   -5.6840  -22.8900 H   0  0  0  0  0  0  0  0  0  0  0  0
  1  2  1  0  0  0  0
  1 58  1  0  0  0  0
  1 59  1  0  0  0  0
  1 60  1  0  0  0  0
  2  3  1  0  0  0  0
  2 57  1  0  0  0  0
  3  4  2  0  0  0  0
  3  5  1  0  0  0  0
  5  6  1  0  0  0  0
  5 51  1  0  0  0  0
  5 52  1  0  0  0  0
  6  7  1  0  0  0  0
  6 44  1  0  0  0  0
  7  8  1  0  0  0  0
  7 49  1  0  0  0  0
  7 50  1  0  0  0  0
  8  9  1  1  0  0  0
  8 29  1  0  0  0  0
  8 37  1  0  0  0  0
  9 10  2  0  0  0  0
  9 11  1  0  0  0  0
 11 12  1  0  0  0  0
 11 28  1  0  0  0  0
 12 13  2  0  0  0  0
 12 21  1  0  0  0  0
 13 14  1  0  0  0  0
 13 27  1  0  0  0  0
 14 15  2  0  0  0  0
 15 16  1  0  0  0  0
 15 26  1  0  0  0  0
 16 17  2  0  0  0  0
 16 21  1  0  0  0  0
 17 18  1  0  0  0  0
 17 25  1  0  0  0  0
 18 19  2  0  0  0  0
 18 24  1  0  0  0  0
 19 20  1  0  0  0  0
 19 23  1  0  0  0  0
 20 21  2  0  0  0  0
 20 22  1  0  0  0  0
 28 29  1  0  0  0  0
 28 35  1  0  0  0  0
 28 36  1  0  0  0  0
 29 30  1  0  0  0  0
 29 34  1  6  0  0  0
 30 31  1  0  0  0  0
 30 32  1  0  0  0  0
 30 33  1  0  0  0  0
 37 38  2  0  0  0  0
 37 43  1  0  0  0  0
 38 39  1  0  0  0  0
 38 48  1  0  0  0  0
 39 40  1  0  0  0  0
 39 41  2  0  0  0  0
 41 42  1  0  0  0  0
 41 47  1  0  0  0  0
 42 43  2  0  0  0  0
 42 46  1  0  0  0  0
 43 44  1  0  0  0  0
 44 45  2  0  0  0  0
 51 52  1  0  0  0  0
 51 55  1  0  0  0  0
 51 56  1  0  0  0  0
 52 53  1  0  0  0  0
 52 54  1  0  0  0  0
M  END
>  <MODEL>
       1

$$$$
