tmp_first_model_8_59.pdb
 OpenBabel08272521063D

 60 65  0  0  1  0  0  0  0  0999 V2000
   -7.3910    3.3850  -21.7840 C   0  0  0  0  0  0  0  0  0  0  0  0
   -8.2650    2.9300  -22.8540 N   0  0  0  0  0  0  0  0  0  0  0  0
   -7.7000    2.2410  -23.8720 C   0  0  0  0  0  0  0  0  0  0  0  0
   -6.4870    2.1240  -23.9900 O   0  0  0  0  0  0  0  0  0  0  0  0
   -8.6500    1.6200  -24.9010 C   0  0  0  0  0  0  0  0  0  0  0  0
   -9.3720    0.4640  -24.4030 N   0  0  0  0  0  0  0  0  0  0  0  0
   -8.6550   -0.7850  -24.2340 C   0  0  0  0  0  0  0  0  0  0  0  0
   -9.0490   -1.5020  -22.9160 C   0  0  2  0  0  0  0  0  0  0  0  0
   -8.4970   -0.7220  -21.6960 C   0  0  0  0  0  0  0  0  0  0  0  0
   -8.9370    0.3090  -21.2220 O   0  0  0  0  0  0  0  0  0  0  0  0
   -7.3970   -1.3890  -21.2070 N   0  0  0  0  0  0  0  0  0  0  0  0
   -6.6010   -0.8170  -20.1760 C   0  0  0  0  0  0  0  0  0  0  0  0
   -6.9100   -1.0480  -18.8600 C   0  0  0  0  0  0  0  0  0  0  0  0
   -6.2060   -0.5590  -17.8110 N   0  0  0  0  0  0  0  0  0  0  0  0
   -5.1700    0.2010  -18.0760 C   0  0  0  0  0  0  0  0  0  0  0  0
   -4.7360    0.5310  -19.3910 C   0  0  0  0  0  0  0  0  0  0  0  0
   -3.6120    1.3700  -19.6340 C   0  0  0  0  0  0  0  0  0  0  0  0
   -3.2380    1.6730  -20.9140 C   0  0  0  0  0  0  0  0  0  0  0  0
   -3.9730    1.1620  -22.0050 C   0  0  0  0  0  0  0  0  0  0  0  0
   -5.0530    0.3390  -21.7980 C   0  0  0  0  0  0  0  0  0  0  0  0
   -5.4730    0.0080  -20.4820 C   0  0  0  0  0  0  0  0  0  0  0  0
   -5.5960   -0.0610  -22.6490 H   0  0  0  0  0  0  0  0  0  0  0  0
   -3.6710    1.3990  -23.0210 H   0  0  0  0  0  0  0  0  0  0  0  0
   -2.3720    2.3060  -21.0990 H   0  0  0  0  0  0  0  0  0  0  0  0
   -3.0720    1.7700  -18.7790 H   0  0  0  0  0  0  0  0  0  0  0  0
   -4.6220    0.6070  -17.2260 H   0  0  0  0  0  0  0  0  0  0  0  0
   -7.7660   -1.6700  -18.6060 H   0  0  0  0  0  0  0  0  0  0  0  0
   -7.0710   -2.6080  -21.9190 C   0  0  0  0  0  0  0  0  0  0  0  0
   -8.3210   -2.8760  -22.7790 C   0  0  2  0  0  0  0  0  0  0  0  0
   -7.9810   -3.6280  -24.0850 C   0  0  0  0  0  0  0  0  0  0  0  0
   -7.4390   -4.9900  -23.7970 C   0  0  0  0  0  0  0  0  0  0  0  0
   -6.1480   -5.2790  -23.7080 N   0  0  0  0  0  0  0  0  0  0  0  0
   -6.1090   -6.5700  -23.3900 N   0  0  0  0  0  0  0  0  0  0  0  0
   -7.3310   -7.0300  -23.2980 N   0  5  0  0  0  0  0  0  0  0  0  0
   -8.1930   -6.0500  -23.5510 N   0  0  0  0  0  0  0  0  0  0  0  0
   -7.2170   -3.0950  -24.6600 H   0  0  0  0  0  0  0  0  0  0  0  0
   -8.8760   -3.7590  -24.7000 H   0  0  0  0  0  0  0  0  0  0  0  0
   -8.9880   -3.5320  -22.2120 H   0  0  0  0  0  0  0  0  0  0  0  0
   -6.8570   -3.4320  -21.2280 H   0  0  0  0  0  0  0  0  0  0  0  0
   -6.1760   -2.4800  -22.5500 H   0  0  0  0  0  0  0  0  0  0  0  0
  -10.5670   -1.5430  -22.8410 C   0  0  0  0  0  0  0  0  0  0  0  0
  -11.2010   -2.4210  -21.9540 C   0  0  0  0  0  0  0  0  0  0  0  0
  -12.5810   -2.4380  -21.8630 C   0  0  0  0  0  0  0  0  0  0  0  0
  -13.3600   -3.5260  -20.7510 Cl  0  0  0  0  0  0  0  0  0  0  0  0
  -13.3700   -1.5800  -22.6290 C   0  0  0  0  0  0  0  0  0  0  0  0
  -12.7500   -0.6610  -23.4520 C   0  0  0  0  0  0  0  0  0  0  0  0
  -11.3590   -0.6150  -23.5330 C   0  0  0  0  0  0  0  0  0  0  0  0
  -10.7340    0.5220  -24.2850 C   0  0  0  0  0  0  0  0  0  0  0  0
  -11.3990    1.4540  -24.7200 O   0  0  0  0  0  0  0  0  0  0  0  0
  -13.3130    0.0670  -24.0290 H   0  0  0  0  0  0  0  0  0  0  0  0
  -14.4480   -1.6200  -22.5410 H   0  0  0  0  0  0  0  0  0  0  0  0
  -10.6250   -3.0710  -21.3050 H   0  0  0  0  0  0  0  0  0  0  0  0
   -7.5880   -0.5430  -24.2190 H   0  0  0  0  0  0  0  0  0  0  0  0
   -8.8600   -1.4650  -25.0780 H   0  0  0  0  0  0  0  0  0  0  0  0
   -8.0180    1.3510  -25.7540 H   0  0  0  0  0  0  0  0  0  0  0  0
   -9.4250    2.3230  -25.2180 H   0  0  0  0  0  0  0  0  0  0  0  0
   -9.2580    2.8510  -22.6970 H   0  0  0  0  0  0  0  0  0  0  0  0
   -6.7900    2.5410  -21.4150 H   0  0  0  0  0  0  0  0  0  0  0  0
   -6.7030    4.1560  -22.1500 H   0  0  0  0  0  0  0  0  0  0  0  0
   -8.0000    3.8080  -20.9870 H   0  0  0  0  0  0  0  0  0  0  0  0
  1  2  1  0  0  0  0
  1 58  1  0  0  0  0
  1 59  1  0  0  0  0
  1 60  1  0  0  0  0
  2  3  1  0  0  0  0
  2 57  1  0  0  0  0
  3  4  2  0  0  0  0
  3  5  1  0  0  0  0
  5  6  1  0  0  0  0
  5 55  1  0  0  0  0
  5 56  1  0  0  0  0
  6  7  1  0  0  0  0
  6 48  1  0  0  0  0
  7  8  1  0  0  0  0
  7 53  1  0  0  0  0
  7 54  1  0  0  0  0
  8  9  1  1  0  0  0
  8 29  1  0  0  0  0
  8 41  1  0  0  0  0
  9 10  2  0  0  0  0
  9 11  1  0  0  0  0
 11 12  1  0  0  0  0
 11 28  1  0  0  0  0
 12 13  2  0  0  0  0
 12 21  1  0  0  0  0
 13 14  1  0  0  0  0
 13 27  1  0  0  0  0
 14 15  2  0  0  0  0
 15 16  1  0  0  0  0
 15 26  1  0  0  0  0
 16 17  2  0  0  0  0
 16 21  1  0  0  0  0
 17 18  1  0  0  0  0
 17 25  1  0  0  0  0
 18 19  2  0  0  0  0
 18 24  1  0  0  0  0
 19 20  1  0  0  0  0
 19 23  1  0  0  0  0
 20 21  2  0  0  0  0
 20 22  1  0  0  0  0
 28 29  1  0  0  0  0
 28 39  1  0  0  0  0
 28 40  1  0  0  0  0
 29 30  1  0  0  0  0
 29 38  1  1  0  0  0
 30 31  1  0  0  0  0
 30 36  1  0  0  0  0
 30 37  1  0  0  0  0
 31 32  1  0  0  0  0
 31 35  2  0  0  0  0
 32 33  2  0  0  0  0
 33 34  1  0  0  0  0
 34 35  1  0  0  0  0
 41 42  2  0  0  0  0
 41 47  1  0  0  0  0
 42 43  1  0  0  0  0
 42 52  1  0  0  0  0
 43 44  1  0  0  0  0
 43 45  2  0  0  0  0
 45 46  1  0  0  0  0
 45 51  1  0  0  0  0
 46 47  2  0  0  0  0
 46 50  1  0  0  0  0
 47 48  1  0  0  0  0
 48 49  2  0  0  0  0
M  CHG  1  34  -1
M  END
>  <MODEL>
       1

$$$$
