tmp_first_model_11_46.pdb
 OpenBabel08272522543D

 50 54  0  0  1  0  0  0  0  0999 V2000
   -7.5000   -3.7190  -23.6720 C   0  0  0  0  0  0  0  0  0  0  0  0
   -8.4040   -3.0370  -22.6420 C   0  0  1  0  0  0  0  0  0  0  0  0
   -7.6930   -2.8580  -21.2810 C   0  0  0  0  0  0  0  0  0  0  0  0
   -7.3830   -1.4480  -21.2220 N   0  0  0  0  0  0  0  0  0  0  0  0
   -6.5930   -0.8780  -20.1890 C   0  0  0  0  0  0  0  0  0  0  0  0
   -6.9090   -1.1130  -18.8730 C   0  0  0  0  0  0  0  0  0  0  0  0
   -6.2530   -0.5860  -17.8080 N   0  0  0  0  0  0  0  0  0  0  0  0
   -5.2260    0.1880  -18.0630 C   0  0  0  0  0  0  0  0  0  0  0  0
   -4.7580    0.4840  -19.3750 C   0  0  0  0  0  0  0  0  0  0  0  0
   -3.6290    1.3210  -19.5830 C   0  0  0  0  0  0  0  0  0  0  0  0
   -3.1840    1.5820  -20.8490 C   0  0  0  0  0  0  0  0  0  0  0  0
   -3.8440    1.0150  -21.9620 C   0  0  0  0  0  0  0  0  0  0  0  0
   -4.9440    0.2090  -21.7870 C   0  0  0  0  0  0  0  0  0  0  0  0
   -5.4430   -0.0680  -20.4810 C   0  0  0  0  0  0  0  0  0  0  0  0
   -5.4420   -0.2170  -22.6530 H   0  0  0  0  0  0  0  0  0  0  0  0
   -3.4840    1.2330  -22.9630 H   0  0  0  0  0  0  0  0  0  0  0  0
   -2.3260    2.2310  -21.0060 H   0  0  0  0  0  0  0  0  0  0  0  0
   -3.1440    1.7590  -18.7140 H   0  0  0  0  0  0  0  0  0  0  0  0
   -4.7000    0.6180  -17.2100 H   0  0  0  0  0  0  0  0  0  0  0  0
   -7.7640   -1.7390  -18.6260 H   0  0  0  0  0  0  0  0  0  0  0  0
   -8.2520   -0.6910  -21.9820 C   0  0  0  0  0  0  0  0  0  0  0  0
   -8.3780    0.5060  -21.8760 O   0  0  0  0  0  0  0  0  0  0  0  0
   -8.9460   -1.6300  -23.0480 C   0  0  1  0  0  0  0  0  0  0  0  0
   -8.4120   -1.0340  -24.4210 C   0  0  0  0  0  0  0  0  0  0  0  0
   -9.1480    0.1830  -24.7870 N   0  0  0  0  0  0  0  0  0  0  0  0
   -8.4910    1.1480  -25.6380 C   0  0  0  0  0  0  0  0  0  0  0  0
   -7.9370    2.2990  -24.8970 C   0  0  0  0  0  0  0  0  0  0  0  0
   -7.4990    3.2350  -24.3760 N   0  0  0  0  0  0  0  0  0  0  0  0
   -7.6750    0.6580  -26.1820 H   0  0  0  0  0  0  0  0  0  0  0  0
   -9.2080    1.5330  -26.3690 H   0  0  0  0  0  0  0  0  0  0  0  0
  -10.4560    0.4870  -24.4100 C   0  0  0  0  0  0  0  0  0  0  0  0
  -10.9900    1.5110  -24.8160 O   0  0  0  0  0  0  0  0  0  0  0  0
  -11.1550   -0.5130  -23.5560 C   0  0  0  0  0  0  0  0  0  0  0  0
  -12.5600   -0.6250  -23.4670 C   0  0  0  0  0  0  0  0  0  0  0  0
  -12.7640   -1.9700  -22.9620 C   0  0  0  0  0  0  0  0  0  0  0  0
  -12.6790   -2.0210  -22.7980 C   0  0  0  0  0  0  0  0  0  0  0  0
  -12.8490   -2.6070  -20.8620 F   0  0  0  0  0  0  0  0  0  0  0  0
  -11.3710   -2.6640  -22.7580 C   0  0  0  0  0  0  0  0  0  0  0  0
  -10.5180   -1.6420  -23.0840 C   0  0  0  0  0  0  0  0  0  0  0  0
  -11.5600   -2.8240  -21.7290 H   0  0  0  0  0  0  0  0  0  0  0  0
  -13.7320   -2.3970  -22.5210 H   0  0  0  0  0  0  0  0  0  0  0  0
  -13.1570   -0.8620  -24.3160 H   0  0  0  0  0  0  0  0  0  0  0  0
   -7.3600   -0.7620  -24.3120 H   0  0  0  0  0  0  0  0  0  0  0  0
   -8.4580   -1.7720  -25.2380 H   0  0  0  0  0  0  0  0  0  0  0  0
   -8.3540   -3.1530  -20.4540 H   0  0  0  0  0  0  0  0  0  0  0  0
   -6.7740   -3.4470  -21.2010 H   0  0  0  0  0  0  0  0  0  0  0  0
   -9.2820   -3.6750  -22.5020 H   0  0  0  0  0  0  0  0  0  0  0  0
   -8.0310   -3.8800  -24.6160 H   0  0  0  0  0  0  0  0  0  0  0  0
   -7.1770   -4.7000  -23.3060 H   0  0  0  0  0  0  0  0  0  0  0  0
   -6.6030   -3.1240  -23.8750 H   0  0  0  0  0  0  0  0  0  0  0  0
  1  2  1  0  0  0  0
  1 48  1  0  0  0  0
  1 49  1  0  0  0  0
  1 50  1  0  0  0  0
  2  3  1  0  0  0  0
  2 23  1  0  0  0  0
  2 47  1  1  0  0  0
  3  4  1  0  0  0  0
  3 45  1  0  0  0  0
  3 46  1  0  0  0  0
  4  5  1  0  0  0  0
  4 21  1  0  0  0  0
  5  6  2  0  0  0  0
  5 14  1  0  0  0  0
  6  7  1  0  0  0  0
  6 20  1  0  0  0  0
  7  8  2  0  0  0  0
  8  9  1  0  0  0  0
  8 19  1  0  0  0  0
  9 10  2  0  0  0  0
  9 14  1  0  0  0  0
 10 11  1  0  0  0  0
 10 18  1  0  0  0  0
 11 12  2  0  0  0  0
 11 17  1  0  0  0  0
 12 13  1  0  0  0  0
 12 16  1  0  0  0  0
 13 14  2  0  0  0  0
 13 15  1  0  0  0  0
 21 22  2  0  0  0  0
 23 21  1  1  0  0  0
 23 24  1  0  0  0  0
 23 39  1  0  0  0  0
 24 25  1  0  0  0  0
 24 43  1  0  0  0  0
 24 44  1  0  0  0  0
 25 26  1  0  0  0  0
 25 31  1  0  0  0  0
 26 27  1  0  0  0  0
 26 29  1  0  0  0  0
 26 30  1  0  0  0  0
 27 28  3  0  0  0  0
 31 32  2  0  0  0  0
 31 33  1  0  0  0  0
 33 34  2  0  0  0  0
 33 39  1  0  0  0  0
 34 35  1  0  0  0  0
 34 42  1  0  0  0  0
 35 36  2  0  0  0  0
 35 41  1  0  0  0  0
 36 37  1  0  0  0  0
 36 38  1  0  0  0  0
 38 39  2  0  0  0  0
 38 40  1  0  0  0  0
M  END
>  <MODEL>
       1

$$$$
