tmp_first_model_4_93.pdb
 OpenBabel08272518513D

 62 67  0  0  1  0  0  0  0  0999 V2000
  -11.6460    3.1700  -22.7200 C   0  0  0  0  0  0  0  0  0  0  0  0
  -10.8220    1.9270  -22.4160 C   0  0  0  0  0  0  0  0  0  0  0  0
   -9.4870    1.9660  -22.9840 N   0  0  0  0  0  0  0  0  0  0  0  0
   -8.5240    2.5480  -22.2480 N   0  0  0  0  0  0  0  0  0  0  0  0
   -7.4300    2.5020  -22.9950 C   0  0  0  0  0  0  0  0  0  0  0  0
   -7.6900    1.9030  -24.2480 C   0  0  0  0  0  0  0  0  0  0  0  0
   -9.0310    1.5720  -24.2060 C   0  0  0  0  0  0  0  0  0  0  0  0
   -9.8640    0.8130  -25.1990 C   0  0  0  0  0  0  0  0  0  0  0  0
  -10.3340   -0.4450  -24.6310 N   0  0  0  0  0  0  0  0  0  0  0  0
   -9.3440   -1.4570  -24.3070 C   0  0  0  0  0  0  0  0  0  0  0  0
   -9.5520   -2.1120  -22.9180 C   0  0  2  0  0  0  0  0  0  0  0  0
   -8.9130   -1.2660  -21.7680 C   0  0  0  0  0  0  0  0  0  0  0  0
   -9.4530   -0.4380  -21.0720 O   0  0  0  0  0  0  0  0  0  0  0  0
   -7.5920   -1.6490  -21.6420 N   0  0  0  0  0  0  0  0  0  0  0  0
   -6.7750   -1.3190  -20.5400 C   0  0  0  0  0  0  0  0  0  0  0  0
   -7.0610   -1.7530  -19.2690 C   0  0  0  0  0  0  0  0  0  0  0  0
   -6.2200   -1.5900  -18.2190 N   0  0  0  0  0  0  0  0  0  0  0  0
   -5.0730   -0.9930  -18.4260 C   0  0  0  0  0  0  0  0  0  0  0  0
   -4.6380   -0.5360  -19.7030 C   0  0  0  0  0  0  0  0  0  0  0  0
   -3.3740    0.0690  -19.9210 C   0  0  0  0  0  0  0  0  0  0  0  0
   -3.0010    0.4560  -21.1780 C   0  0  0  0  0  0  0  0  0  0  0  0
   -3.8560    0.2490  -22.2820 C   0  0  0  0  0  0  0  0  0  0  0  0
   -5.0840   -0.3330  -22.0950 C   0  0  0  0  0  0  0  0  0  0  0  0
   -5.5060   -0.7210  -20.7980 C   0  0  0  0  0  0  0  0  0  0  0  0
   -5.7420   -0.5140  -22.9380 H   0  0  0  0  0  0  0  0  0  0  0  0
   -3.5340    0.5270  -23.2800 H   0  0  0  0  0  0  0  0  0  0  0  0
   -2.0390    0.9290  -21.3420 H   0  0  0  0  0  0  0  0  0  0  0  0
   -2.7170    0.2170  -19.0710 H   0  0  0  0  0  0  0  0  0  0  0  0
   -4.4170   -0.8560  -17.5630 H   0  0  0  0  0  0  0  0  0  0  0  0
   -7.9940   -2.2750  -19.0550 H   0  0  0  0  0  0  0  0  0  0  0  0
   -7.2640   -2.8300  -22.4120 C   0  0  0  0  0  0  0  0  0  0  0  0
   -8.6500   -3.3800  -22.7610 C   0  0  2  0  0  0  0  0  0  0  0  0
   -8.6190   -4.4040  -23.8830 C   0  0  0  0  0  0  0  0  0  0  0  0
   -9.6220   -4.7620  -24.1340 H   0  0  0  0  0  0  0  0  0  0  0  0
   -8.0100   -5.2690  -23.5910 H   0  0  0  0  0  0  0  0  0  0  0  0
   -8.1690   -3.9900  -24.7930 H   0  0  0  0  0  0  0  0  0  0  0  0
   -8.9890   -3.8690  -21.8410 H   0  0  0  0  0  0  0  0  0  0  0  0
   -6.6670   -2.5960  -23.3090 H   0  0  0  0  0  0  0  0  0  0  0  0
   -6.6700   -3.5190  -21.8010 H   0  0  0  0  0  0  0  0  0  0  0  0
  -11.0360   -2.3300  -22.6940 C   0  0  0  0  0  0  0  0  0  0  0  0
  -11.4690   -3.2120  -21.6940 C   0  0  0  0  0  0  0  0  0  0  0  0
  -12.8010   -3.2630  -21.3420 C   0  0  0  0  0  0  0  0  0  0  0  0
  -13.1760   -4.0790  -20.3410 F   0  0  0  0  0  0  0  0  0  0  0  0
  -13.7780   -2.5050  -21.9720 C   0  0  0  0  0  0  0  0  0  0  0  0
  -13.3770   -1.6810  -23.0080 C   0  0  0  0  0  0  0  0  0  0  0  0
  -12.0300   -1.6140  -23.3820 C   0  0  0  0  0  0  0  0  0  0  0  0
  -11.6770   -0.6800  -24.5000 C   0  0  0  0  0  0  0  0  0  0  0  0
  -12.5260   -0.1040  -25.1600 O   0  0  0  0  0  0  0  0  0  0  0  0
  -14.0980   -1.0720  -23.5450 H   0  0  0  0  0  0  0  0  0  0  0  0
  -14.8080   -2.5870  -21.6430 H   0  0  0  0  0  0  0  0  0  0  0  0
  -10.7900   -3.8700  -21.1660 H   0  0  0  0  0  0  0  0  0  0  0  0
   -9.3680   -2.2440  -25.0720 H   0  0  0  0  0  0  0  0  0  0  0  0
   -8.3580   -0.9920  -24.3540 H   0  0  0  0  0  0  0  0  0  0  0  0
   -9.2500    0.6280  -26.0920 H   0  0  0  0  0  0  0  0  0  0  0  0
  -10.7400    1.3770  -25.5360 H   0  0  0  0  0  0  0  0  0  0  0  0
   -6.9990    1.6820  -25.0560 H   0  0  0  0  0  0  0  0  0  0  0  0
   -6.5130    2.9260  -22.6050 H   0  0  0  0  0  0  0  0  0  0  0  0
  -11.3410    1.0300  -22.7640 H   0  0  0  0  0  0  0  0  0  0  0  0
  -10.6700    1.8020  -21.3440 H   0  0  0  0  0  0  0  0  0  0  0  0
  -12.0080    3.1590  -23.7540 H   0  0  0  0  0  0  0  0  0  0  0  0
  -11.0600    4.0800  -22.5650 H   0  0  0  0  0  0  0  0  0  0  0  0
  -12.5200    3.2170  -22.0630 H   0  0  0  0  0  0  0  0  0  0  0  0
  1  2  1  0  0  0  0
  1 60  1  0  0  0  0
  1 61  1  0  0  0  0
  1 62  1  0  0  0  0
  2  3  1  0  0  0  0
  2 58  1  0  0  0  0
  2 59  1  0  0  0  0
  3  4  1  0  0  0  0
  3  7  1  0  0  0  0
  4  5  2  0  0  0  0
  5  6  1  0  0  0  0
  5 57  1  0  0  0  0
  6  7  2  0  0  0  0
  6 56  1  0  0  0  0
  7  8  1  0  0  0  0
  8  9  1  0  0  0  0
  8 54  1  0  0  0  0
  8 55  1  0  0  0  0
  9 10  1  0  0  0  0
  9 47  1  0  0  0  0
 10 11  1  0  0  0  0
 10 52  1  0  0  0  0
 10 53  1  0  0  0  0
 11 12  1  1  0  0  0
 11 32  1  0  0  0  0
 11 40  1  0  0  0  0
 12 13  2  0  0  0  0
 12 14  1  0  0  0  0
 14 15  1  0  0  0  0
 14 31  1  0  0  0  0
 15 16  2  0  0  0  0
 15 24  1  0  0  0  0
 16 17  1  0  0  0  0
 16 30  1  0  0  0  0
 17 18  2  0  0  0  0
 18 19  1  0  0  0  0
 18 29  1  0  0  0  0
 19 20  2  0  0  0  0
 19 24  1  0  0  0  0
 20 21  1  0  0  0  0
 20 28  1  0  0  0  0
 21 22  2  0  0  0  0
 21 27  1  0  0  0  0
 22 23  1  0  0  0  0
 22 26  1  0  0  0  0
 23 24  2  0  0  0  0
 23 25  1  0  0  0  0
 31 32  1  0  0  0  0
 31 38  1  0  0  0  0
 31 39  1  0  0  0  0
 32 33  1  0  0  0  0
 32 37  1  1  0  0  0
 33 34  1  0  0  0  0
 33 35  1  0  0  0  0
 33 36  1  0  0  0  0
 40 41  2  0  0  0  0
 40 46  1  0  0  0  0
 41 42  1  0  0  0  0
 41 51  1  0  0  0  0
 42 43  1  0  0  0  0
 42 44  2  0  0  0  0
 44 45  1  0  0  0  0
 44 50  1  0  0  0  0
 45 46  2  0  0  0  0
 45 49  1  0  0  0  0
 46 47  1  0  0  0  0
 47 48  2  0  0  0  0
M  END
>  <MODEL>
       1

$$$$
