tmp_first_model_3_41.pdb
 OpenBabel08272518143D

 67 71  0  0  1  0  0  0  0  0999 V2000
   -7.3700    3.4550  -21.8940 C   0  0  0  0  0  0  0  0  0  0  0  0
   -8.3350    2.9550  -22.8590 N   0  0  0  0  0  0  0  0  0  0  0  0
   -7.8580    2.2250  -23.9020 C   0  0  0  0  0  0  0  0  0  0  0  0
   -6.6630    2.0150  -24.0470 O   0  0  0  0  0  0  0  0  0  0  0  0
   -8.8810    1.6460  -24.8780 C   0  0  0  0  0  0  0  0  0  0  0  0
   -9.5090    0.4780  -24.2910 N   0  0  0  0  0  0  0  0  0  0  0  0
   -8.7220   -0.7420  -24.1640 C   0  0  0  0  0  0  0  0  0  0  0  0
   -9.0660   -1.5050  -22.8640 C   0  0  2  0  0  0  0  0  0  0  0  0
   -8.5320   -0.7490  -21.6310 C   0  0  0  0  0  0  0  0  0  0  0  0
   -9.0010    0.2400  -21.1010 O   0  0  0  0  0  0  0  0  0  0  0  0
   -7.3940   -1.3870  -21.1940 N   0  0  0  0  0  0  0  0  0  0  0  0
   -6.6030   -0.8200  -20.1700 C   0  0  0  0  0  0  0  0  0  0  0  0
   -6.9360   -1.0370  -18.8590 C   0  0  0  0  0  0  0  0  0  0  0  0
   -6.2410   -0.5440  -17.8050 N   0  0  0  0  0  0  0  0  0  0  0  0
   -5.1950    0.1990  -18.0770 C   0  0  0  0  0  0  0  0  0  0  0  0
   -4.7530    0.5170  -19.3920 C   0  0  0  0  0  0  0  0  0  0  0  0
   -3.6300    1.3500  -19.6330 C   0  0  0  0  0  0  0  0  0  0  0  0
   -3.2490    1.6540  -20.9110 C   0  0  0  0  0  0  0  0  0  0  0  0
   -3.9800    1.1510  -22.0120 C   0  0  0  0  0  0  0  0  0  0  0  0
   -5.0750    0.3460  -21.8080 C   0  0  0  0  0  0  0  0  0  0  0  0
   -5.4800    0.0020  -20.4880 C   0  0  0  0  0  0  0  0  0  0  0  0
   -5.6480   -0.0030  -22.6630 H   0  0  0  0  0  0  0  0  0  0  0  0
   -3.6820    1.4120  -23.0230 H   0  0  0  0  0  0  0  0  0  0  0  0
   -2.3860    2.2920  -21.0870 H   0  0  0  0  0  0  0  0  0  0  0  0
   -3.0960    1.7490  -18.7750 H   0  0  0  0  0  0  0  0  0  0  0  0
   -4.6370    0.5970  -17.2300 H   0  0  0  0  0  0  0  0  0  0  0  0
   -7.8080   -1.6460  -18.6260 H   0  0  0  0  0  0  0  0  0  0  0  0
   -7.0160   -2.5520  -21.9640 C   0  0  0  0  0  0  0  0  0  0  0  0
   -8.2960   -2.8550  -22.7620 C   0  0  2  0  0  0  0  0  0  0  0  0
   -8.0450   -3.5840  -24.0870 C   0  0  0  0  0  0  0  0  0  0  0  0
   -7.2670   -5.1570  -23.7590 S   0  0  0  0  0  0  0  0  0  0  0  0
   -8.1340   -5.9270  -22.8850 O   0  0  0  0  0  0  0  0  0  0  0  0
   -5.8870   -4.9100  -23.3460 O   0  0  0  0  0  0  0  0  0  0  0  0
   -7.2900   -5.8970  -25.2760 N   0  0  0  0  0  0  0  0  0  0  0  0
   -6.4840   -5.2730  -26.3240 C   0  0  0  0  0  0  0  0  0  0  0  0
   -5.4310   -5.1450  -26.0370 H   0  0  0  0  0  0  0  0  0  0  0  0
   -6.5330   -5.9260  -27.2030 H   0  0  0  0  0  0  0  0  0  0  0  0
   -6.9150   -4.3140  -26.6300 H   0  0  0  0  0  0  0  0  0  0  0  0
   -6.9770   -7.3210  -25.1360 C   0  0  0  0  0  0  0  0  0  0  0  0
   -5.9420   -7.4860  -24.7990 H   0  0  0  0  0  0  0  0  0  0  0  0
   -7.6710   -7.7680  -24.4210 H   0  0  0  0  0  0  0  0  0  0  0  0
   -7.1160   -7.8060  -26.1060 H   0  0  0  0  0  0  0  0  0  0  0  0
   -7.3700   -3.0080  -24.7310 H   0  0  0  0  0  0  0  0  0  0  0  0
   -8.9870   -3.7830  -24.6120 H   0  0  0  0  0  0  0  0  0  0  0  0
   -8.8920   -3.5370  -22.1510 H   0  0  0  0  0  0  0  0  0  0  0  0
   -6.1600   -2.3450  -22.6230 H   0  0  0  0  0  0  0  0  0  0  0  0
   -6.7380   -3.3870  -21.3140 H   0  0  0  0  0  0  0  0  0  0  0  0
  -10.5690   -1.6180  -22.7610 C   0  0  0  0  0  0  0  0  0  0  0  0
  -11.1370   -2.5540  -21.8950 C   0  0  0  0  0  0  0  0  0  0  0  0
  -12.5020   -2.5820  -21.7200 C   0  0  0  0  0  0  0  0  0  0  0  0
  -12.9920   -3.4500  -20.8190 F   0  0  0  0  0  0  0  0  0  0  0  0
  -13.3620   -1.7310  -22.4090 C   0  0  0  0  0  0  0  0  0  0  0  0
  -12.8030   -0.7860  -23.2460 C   0  0  0  0  0  0  0  0  0  0  0  0
  -11.4190   -0.6980  -23.3870 C   0  0  0  0  0  0  0  0  0  0  0  0
  -10.8730    0.4670  -24.1550 C   0  0  0  0  0  0  0  0  0  0  0  0
  -11.5930    1.3460  -24.5990 O   0  0  0  0  0  0  0  0  0  0  0  0
  -13.4180   -0.0740  -23.7850 H   0  0  0  0  0  0  0  0  0  0  0  0
  -14.4310   -1.8040  -22.2530 H   0  0  0  0  0  0  0  0  0  0  0  0
  -10.5410   -3.2580  -21.3240 H   0  0  0  0  0  0  0  0  0  0  0  0
   -7.6590   -0.4750  -24.1750 H   0  0  0  0  0  0  0  0  0  0  0  0
   -8.9230   -1.3960  -25.0260 H   0  0  0  0  0  0  0  0  0  0  0  0
   -9.6770    2.3550  -25.1180 H   0  0  0  0  0  0  0  0  0  0  0  0
   -8.3690    1.3800  -25.8110 H   0  0  0  0  0  0  0  0  0  0  0  0
   -9.2730    2.7660  -22.5320 H   0  0  0  0  0  0  0  0  0  0  0  0
   -7.8800    4.0570  -21.1420 H   0  0  0  0  0  0  0  0  0  0  0  0
   -6.6500    4.1060  -22.3950 H   0  0  0  0  0  0  0  0  0  0  0  0
   -6.8260    2.6130  -21.4450 H   0  0  0  0  0  0  0  0  0  0  0  0
  1  2  1  0  0  0  0
  1 65  1  0  0  0  0
  1 66  1  0  0  0  0
  1 67  1  0  0  0  0
  2  3  1  0  0  0  0
  2 64  1  0  0  0  0
  3  4  2  0  0  0  0
  3  5  1  0  0  0  0
  5  6  1  0  0  0  0
  5 62  1  0  0  0  0
  5 63  1  0  0  0  0
  6  7  1  0  0  0  0
  6 55  1  0  0  0  0
  7  8  1  0  0  0  0
  7 60  1  0  0  0  0
  7 61  1  0  0  0  0
  8  9  1  1  0  0  0
  8 29  1  0  0  0  0
  8 48  1  0  0  0  0
  9 10  2  0  0  0  0
  9 11  1  0  0  0  0
 11 12  1  0  0  0  0
 11 28  1  0  0  0  0
 12 13  2  0  0  0  0
 12 21  1  0  0  0  0
 13 14  1  0  0  0  0
 13 27  1  0  0  0  0
 14 15  2  0  0  0  0
 15 16  1  0  0  0  0
 15 26  1  0  0  0  0
 16 17  2  0  0  0  0
 16 21  1  0  0  0  0
 17 18  1  0  0  0  0
 17 25  1  0  0  0  0
 18 19  2  0  0  0  0
 18 24  1  0  0  0  0
 19 20  1  0  0  0  0
 19 23  1  0  0  0  0
 20 21  2  0  0  0  0
 20 22  1  0  0  0  0
 28 29  1  0  0  0  0
 28 46  1  0  0  0  0
 28 47  1  0  0  0  0
 29 30  1  0  0  0  0
 29 45  1  1  0  0  0
 30 31  1  0  0  0  0
 30 43  1  0  0  0  0
 30 44  1  0  0  0  0
 31 32  2  0  0  0  0
 31 33  2  0  0  0  0
 31 34  1  0  0  0  0
 34 35  1  0  0  0  0
 34 39  1  0  0  0  0
 35 36  1  0  0  0  0
 35 37  1  0  0  0  0
 35 38  1  0  0  0  0
 39 40  1  0  0  0  0
 39 41  1  0  0  0  0
 39 42  1  0  0  0  0
 48 49  2  0  0  0  0
 48 54  1  0  0  0  0
 49 50  1  0  0  0  0
 49 59  1  0  0  0  0
 50 51  1  0  0  0  0
 50 52  2  0  0  0  0
 52 53  1  0  0  0  0
 52 58  1  0  0  0  0
 53 54  2  0  0  0  0
 53 57  1  0  0  0  0
 54 55  1  0  0  0  0
 55 56  2  0  0  0  0
M  END
>  <MODEL>
       1

$$$$
