tmp_first_model_9_13.pdb
 OpenBabel08272521403D

 69 74  0  0  1  0  0  0  0  0999 V2000
   -7.4390    3.3640  -21.8080 C   0  0  0  0  0  0  0  0  0  0  0  0
   -8.4770    2.8860  -22.7070 N   0  0  0  0  0  0  0  0  0  0  0  0
   -8.0750    2.1460  -23.7790 C   0  0  0  0  0  0  0  0  0  0  0  0
   -6.8940    1.9210  -24.0030 O   0  0  0  0  0  0  0  0  0  0  0  0
   -9.1540    1.5860  -24.7060 C   0  0  0  0  0  0  0  0  0  0  0  0
   -9.7460    0.4010  -24.1220 N   0  0  0  0  0  0  0  0  0  0  0  0
   -8.9530   -0.8160  -24.0550 C   0  0  0  0  0  0  0  0  0  0  0  0
   -9.2170   -1.5950  -22.7460 C   0  0  2  0  0  0  0  0  0  0  0  0
   -8.6360   -0.7970  -21.5500 C   0  0  0  0  0  0  0  0  0  0  0  0
   -9.1120    0.1880  -21.0240 O   0  0  0  0  0  0  0  0  0  0  0  0
   -7.4410   -1.3750  -21.1860 N   0  0  0  0  0  0  0  0  0  0  0  0
   -6.6260   -0.8050  -20.1790 C   0  0  0  0  0  0  0  0  0  0  0  0
   -6.9300   -1.0380  -18.8620 C   0  0  0  0  0  0  0  0  0  0  0  0
   -6.2160   -0.5590  -17.8180 N   0  0  0  0  0  0  0  0  0  0  0  0
   -5.1810    0.1960  -18.0890 C   0  0  0  0  0  0  0  0  0  0  0  0
   -4.7550    0.5210  -19.4070 C   0  0  0  0  0  0  0  0  0  0  0  0
   -3.6340    1.3600  -19.6410 C   0  0  0  0  0  0  0  0  0  0  0  0
   -3.2480    1.6620  -20.9180 C   0  0  0  0  0  0  0  0  0  0  0  0
   -3.9680    1.1440  -22.0160 C   0  0  0  0  0  0  0  0  0  0  0  0
   -5.0650    0.3380  -21.8170 C   0  0  0  0  0  0  0  0  0  0  0  0
   -5.4880    0.0010  -20.5020 C   0  0  0  0  0  0  0  0  0  0  0  0
   -5.6260   -0.0120  -22.6790 H   0  0  0  0  0  0  0  0  0  0  0  0
   -3.6520    1.3820  -23.0280 H   0  0  0  0  0  0  0  0  0  0  0  0
   -2.3910    2.3050  -21.0930 H   0  0  0  0  0  0  0  0  0  0  0  0
   -3.1090    1.7630  -18.7800 H   0  0  0  0  0  0  0  0  0  0  0  0
   -4.6160    0.5930  -17.2450 H   0  0  0  0  0  0  0  0  0  0  0  0
   -7.7910   -1.6540  -18.6170 H   0  0  0  0  0  0  0  0  0  0  0  0
   -7.0850   -2.5410  -21.9640 C   0  0  0  0  0  0  0  0  0  0  0  0
   -8.3900   -2.9140  -22.6780 C   0  0  2  0  0  0  0  0  0  0  0  0
   -8.0940   -3.6690  -23.9760 C   0  0  0  0  0  0  0  0  0  0  0  0
   -9.3050   -4.1410  -24.5940 N   0  0  0  0  0  0  0  0  0  0  0  0
   -9.3230   -4.8400  -25.7620 C   0  0  0  0  0  0  0  0  0  0  0  0
  -10.5130   -5.4310  -26.2300 C   0  0  0  0  0  0  0  0  0  0  0  0
  -10.4950   -5.9060  -27.5210 C   0  0  0  0  0  0  0  0  0  0  0  0
   -9.3850   -5.9550  -28.2690 N   0  0  0  0  0  0  0  0  0  0  0  0
   -8.2700   -5.5330  -27.6650 C   0  0  0  0  0  0  0  0  0  0  0  0
   -6.9870   -5.7900  -28.4130 C   0  0  0  0  0  0  0  0  0  0  0  0
   -7.1860   -5.7510  -29.4880 H   0  0  0  0  0  0  0  0  0  0  0  0
   -6.6490   -6.8110  -28.1900 H   0  0  0  0  0  0  0  0  0  0  0  0
   -6.1810   -5.0960  -28.1470 H   0  0  0  0  0  0  0  0  0  0  0  0
   -8.1840   -4.9430  -26.4620 N   0  0  0  0  0  0  0  0  0  0  0  0
  -11.4130   -6.2670  -27.9890 H   0  0  0  0  0  0  0  0  0  0  0  0
  -11.4080   -5.5230  -25.6190 H   0  0  0  0  0  0  0  0  0  0  0  0
  -10.1750   -3.9890  -24.1050 H   0  0  0  0  0  0  0  0  0  0  0  0
   -7.4390   -4.5220  -23.7570 H   0  0  0  0  0  0  0  0  0  0  0  0
   -7.5370   -3.0350  -24.6790 H   0  0  0  0  0  0  0  0  0  0  0  0
   -8.9400   -3.6020  -22.0270 H   0  0  0  0  0  0  0  0  0  0  0  0
   -6.2830   -2.3250  -22.6890 H   0  0  0  0  0  0  0  0  0  0  0  0
   -6.7290   -3.3500  -21.3180 H   0  0  0  0  0  0  0  0  0  0  0  0
  -10.7210   -1.7440  -22.5980 C   0  0  0  0  0  0  0  0  0  0  0  0
  -11.2840   -2.7480  -21.8060 C   0  0  0  0  0  0  0  0  0  0  0  0
  -12.6490   -2.7750  -21.5830 C   0  0  0  0  0  0  0  0  0  0  0  0
  -13.2990   -3.9690  -20.5100 Cl  0  0  0  0  0  0  0  0  0  0  0  0
  -13.5180   -1.8470  -22.1470 C   0  0  0  0  0  0  0  0  0  0  0  0
  -12.9710   -0.8590  -22.9320 C   0  0  0  0  0  0  0  0  0  0  0  0
  -11.5970   -0.7910  -23.1400 C   0  0  0  0  0  0  0  0  0  0  0  0
  -11.0920    0.3900  -23.9020 C   0  0  0  0  0  0  0  0  0  0  0  0
  -11.8290    1.2900  -24.2790 O   0  0  0  0  0  0  0  0  0  0  0  0
  -13.5810   -0.0890  -23.3850 H   0  0  0  0  0  0  0  0  0  0  0  0
  -14.5830   -1.8860  -21.9400 H   0  0  0  0  0  0  0  0  0  0  0  0
  -10.6800   -3.4940  -21.3020 H   0  0  0  0  0  0  0  0  0  0  0  0
   -7.8980   -0.5410  -24.1270 H   0  0  0  0  0  0  0  0  0  0  0  0
   -9.1910   -1.4650  -24.9090 H   0  0  0  0  0  0  0  0  0  0  0  0
   -8.6700    1.3280  -25.6560 H   0  0  0  0  0  0  0  0  0  0  0  0
   -9.9710    2.2860  -24.9060 H   0  0  0  0  0  0  0  0  0  0  0  0
   -9.4080    2.7680  -22.3230 H   0  0  0  0  0  0  0  0  0  0  0  0
   -6.8290    2.5130  -21.4670 H   0  0  0  0  0  0  0  0  0  0  0  0
   -6.7970    4.0960  -22.3090 H   0  0  0  0  0  0  0  0  0  0  0  0
   -7.9020    3.8870  -20.9700 H   0  0  0  0  0  0  0  0  0  0  0  0
  1  2  1  0  0  0  0
  1 67  1  0  0  0  0
  1 68  1  0  0  0  0
  1 69  1  0  0  0  0
  2  3  1  0  0  0  0
  2 66  1  0  0  0  0
  3  4  2  0  0  0  0
  3  5  1  0  0  0  0
  5  6  1  0  0  0  0
  5 64  1  0  0  0  0
  5 65  1  0  0  0  0
  6  7  1  0  0  0  0
  6 57  1  0  0  0  0
  7  8  1  0  0  0  0
  7 62  1  0  0  0  0
  7 63  1  0  0  0  0
  8  9  1  1  0  0  0
  8 29  1  0  0  0  0
  8 50  1  0  0  0  0
  9 10  2  0  0  0  0
  9 11  1  0  0  0  0
 11 12  1  0  0  0  0
 11 28  1  0  0  0  0
 12 13  2  0  0  0  0
 12 21  1  0  0  0  0
 13 14  1  0  0  0  0
 13 27  1  0  0  0  0
 14 15  2  0  0  0  0
 15 16  1  0  0  0  0
 15 26  1  0  0  0  0
 16 17  2  0  0  0  0
 16 21  1  0  0  0  0
 17 18  1  0  0  0  0
 17 25  1  0  0  0  0
 18 19  2  0  0  0  0
 18 24  1  0  0  0  0
 19 20  1  0  0  0  0
 19 23  1  0  0  0  0
 20 21  2  0  0  0  0
 20 22  1  0  0  0  0
 28 29  1  0  0  0  0
 28 48  1  0  0  0  0
 28 49  1  0  0  0  0
 29 30  1  0  0  0  0
 29 47  1  1  0  0  0
 30 31  1  0  0  0  0
 30 45  1  0  0  0  0
 30 46  1  0  0  0  0
 31 32  1  0  0  0  0
 31 44  1  0  0  0  0
 32 33  2  0  0  0  0
 32 41  1  0  0  0  0
 33 34  1  0  0  0  0
 33 43  1  0  0  0  0
 34 35  2  0  0  0  0
 34 42  1  0  0  0  0
 35 36  1  0  0  0  0
 36 37  1  0  0  0  0
 36 41  2  0  0  0  0
 37 38  1  0  0  0  0
 37 39  1  0  0  0  0
 37 40  1  0  0  0  0
 50 51  2  0  0  0  0
 50 56  1  0  0  0  0
 51 52  1  0  0  0  0
 51 61  1  0  0  0  0
 52 53  1  0  0  0  0
 52 54  2  0  0  0  0
 54 55  1  0  0  0  0
 54 60  1  0  0  0  0
 55 56  2  0  0  0  0
 55 59  1  0  0  0  0
 56 57  1  0  0  0  0
 57 58  2  0  0  0  0
M  END
>  <MODEL>
       1

$$$$
