tmp_first_model_11_77.pdb
 OpenBabel08272522543D

 55 60  0  0  1  0  0  0  0  0999 V2000
  -10.4430   -1.1850  -23.2640 C   0  0  0  0  0  0  0  0  0  0  0  0
   -8.9920   -1.5130  -22.9250 C   0  0  1  0  0  0  0  0  0  0  0  0
   -8.3750   -0.5450  -21.9040 C   0  0  0  0  0  0  0  0  0  0  0  0
   -7.3630   -1.3550  -21.2460 N   0  0  0  0  0  0  0  0  0  0  0  0
   -6.5730   -0.8520  -20.1900 C   0  0  0  0  0  0  0  0  0  0  0  0
   -6.8950   -1.1050  -18.8810 C   0  0  0  0  0  0  0  0  0  0  0  0
   -6.2360   -0.5710  -17.8220 N   0  0  0  0  0  0  0  0  0  0  0  0
   -5.2130    0.2080  -18.0810 C   0  0  0  0  0  0  0  0  0  0  0  0
   -4.7520    0.5140  -19.3940 C   0  0  0  0  0  0  0  0  0  0  0  0
   -3.6230    1.3380  -19.6320 C   0  0  0  0  0  0  0  0  0  0  0  0
   -3.2210    1.6060  -20.9110 C   0  0  0  0  0  0  0  0  0  0  0  0
   -3.9210    1.0660  -22.0150 C   0  0  0  0  0  0  0  0  0  0  0  0
   -5.0160    0.2630  -21.8120 C   0  0  0  0  0  0  0  0  0  0  0  0
   -5.4560   -0.0230  -20.4930 C   0  0  0  0  0  0  0  0  0  0  0  0
   -5.5510   -0.1660  -22.6540 H   0  0  0  0  0  0  0  0  0  0  0  0
   -3.5950    1.2960  -23.0260 H   0  0  0  0  0  0  0  0  0  0  0  0
   -2.3640    2.2490  -21.0900 H   0  0  0  0  0  0  0  0  0  0  0  0
   -3.1030    1.7610  -18.7760 H   0  0  0  0  0  0  0  0  0  0  0  0
   -4.6850    0.6380  -17.2280 H   0  0  0  0  0  0  0  0  0  0  0  0
   -7.7260   -1.7640  -18.6380 H   0  0  0  0  0  0  0  0  0  0  0  0
   -7.6040   -2.7060  -21.3440 C   0  0  0  0  0  0  0  0  0  0  0  0
   -6.9910   -3.5540  -20.7250 O   0  0  0  0  0  0  0  0  0  0  0  0
   -8.7580   -2.9440  -22.3160 C   0  0  1  0  0  0  0  0  0  0  0  0
   -9.9550   -3.4260  -21.4650 C   0  0  0  0  0  0  0  0  0  0  0  0
  -11.0470   -3.9410  -22.2750 N   0  0  0  0  0  0  0  0  0  0  0  0
  -12.4140   -3.8000  -21.8260 C   0  0  0  0  0  0  0  0  0  0  0  0
  -13.2500   -2.7290  -22.4480 C   0  0  0  0  0  0  0  0  0  0  0  0
  -13.8800   -2.8750  -23.6360 C   0  0  0  0  0  0  0  0  0  0  0  0
  -14.8270   -1.9050  -23.7430 O   0  0  0  0  0  0  0  0  0  0  0  0
  -14.7190   -1.2210  -22.5880 C   0  0  0  0  0  0  0  0  0  0  0  0
  -13.7920   -1.6350  -21.7860 N   0  0  0  0  0  0  0  0  0  0  0  0
  -15.4850   -0.4820  -22.3960 H   0  0  0  0  0  0  0  0  0  0  0  0
  -13.7340   -3.5900  -24.4280 H   0  0  0  0  0  0  0  0  0  0  0  0
  -12.4790   -3.7500  -20.7400 H   0  0  0  0  0  0  0  0  0  0  0  0
  -12.9320   -4.6930  -22.1630 H   0  0  0  0  0  0  0  0  0  0  0  0
  -10.8720   -4.6090  -23.4570 C   0  0  0  0  0  0  0  0  0  0  0  0
  -11.8180   -4.9790  -24.1420 O   0  0  0  0  0  0  0  0  0  0  0  0
   -9.4560   -4.8060  -23.8710 C   0  0  0  0  0  0  0  0  0  0  0  0
   -9.1930   -5.7740  -24.8350 C   0  0  0  0  0  0  0  0  0  0  0  0
   -7.9290   -5.8940  -25.3740 C   0  0  0  0  0  0  0  0  0  0  0  0
   -6.9380   -5.0270  -24.9260 C   0  0  0  0  0  0  0  0  0  0  0  0
   -5.7270   -5.1000  -25.5010 F   0  0  0  0  0  0  0  0  0  0  0  0
   -7.1560   -4.1040  -23.9190 C   0  0  0  0  0  0  0  0  0  0  0  0
   -8.4360   -3.9940  -23.3600 C   0  0  0  0  0  0  0  0  0  0  0  0
   -6.3250   -3.4960  -23.5750 H   0  0  0  0  0  0  0  0  0  0  0  0
   -7.7130   -6.6220  -26.1450 H   0  0  0  0  0  0  0  0  0  0  0  0
  -10.0170   -6.4110  -25.1440 H   0  0  0  0  0  0  0  0  0  0  0  0
  -10.3310   -2.5580  -20.9150 H   0  0  0  0  0  0  0  0  0  0  0  0
   -9.6030   -4.1720  -20.7370 H   0  0  0  0  0  0  0  0  0  0  0  0
   -9.1230   -0.1900  -21.1790 H   0  0  0  0  0  0  0  0  0  0  0  0
   -7.9290    0.3410  -22.3670 H   0  0  0  0  0  0  0  0  0  0  0  0
   -8.3850   -1.4660  -23.8400 H   0  0  0  0  0  0  0  0  0  0  0  0
  -10.5230   -0.2200  -23.7680 H   0  0  0  0  0  0  0  0  0  0  0  0
  -10.8740   -1.9600  -23.9070 H   0  0  0  0  0  0  0  0  0  0  0  0
  -11.0530   -1.1390  -22.3550 H   0  0  0  0  0  0  0  0  0  0  0  0
  1  2  1  0  0  0  0
  1 53  1  0  0  0  0
  1 54  1  0  0  0  0
  1 55  1  0  0  0  0
  2  3  1  0  0  0  0
  2 23  1  0  0  0  0
  2 52  1  6  0  0  0
  3  4  1  0  0  0  0
  3 50  1  0  0  0  0
  3 51  1  0  0  0  0
  4  5  1  0  0  0  0
  4 21  1  0  0  0  0
  5  6  2  0  0  0  0
  5 14  1  0  0  0  0
  6  7  1  0  0  0  0
  6 20  1  0  0  0  0
  7  8  2  0  0  0  0
  8  9  1  0  0  0  0
  8 19  1  0  0  0  0
  9 10  2  0  0  0  0
  9 14  1  0  0  0  0
 10 11  1  0  0  0  0
 10 18  1  0  0  0  0
 11 12  2  0  0  0  0
 11 17  1  0  0  0  0
 12 13  1  0  0  0  0
 12 16  1  0  0  0  0
 13 14  2  0  0  0  0
 13 15  1  0  0  0  0
 21 22  2  0  0  0  0
 23 21  1  1  0  0  0
 23 24  1  0  0  0  0
 23 44  1  0  0  0  0
 24 25  1  0  0  0  0
 24 48  1  0  0  0  0
 24 49  1  0  0  0  0
 25 26  1  0  0  0  0
 25 36  1  0  0  0  0
 26 27  1  0  0  0  0
 26 34  1  0  0  0  0
 26 35  1  0  0  0  0
 27 28  2  0  0  0  0
 27 31  1  0  0  0  0
 28 29  1  0  0  0  0
 28 33  1  0  0  0  0
 29 30  1  0  0  0  0
 30 31  2  0  0  0  0
 30 32  1  0  0  0  0
 36 37  2  0  0  0  0
 36 38  1  0  0  0  0
 38 39  2  0  0  0  0
 38 44  1  0  0  0  0
 39 40  1  0  0  0  0
 39 47  1  0  0  0  0
 40 41  2  0  0  0  0
 40 46  1  0  0  0  0
 41 42  1  0  0  0  0
 41 43  1  0  0  0  0
 43 44  2  0  0  0  0
 43 45  1  0  0  0  0
M  END
>  <MODEL>
       1

$$$$
