tmp_first_model_19_72.pdb
 OpenBabel08282503233D

 41 44  0  0  0  0  0  0  0  0999 V2000
   -8.4810    0.7240  -21.4330 O   0  0  0  0  0  0  0  0  0  0  0  0
   -8.3520   -0.3890  -21.9090 C   0  0  0  0  0  0  0  0  0  0  0  0
   -7.4270   -1.4240  -21.2710 C   0  0  0  0  0  0  0  0  0  0  0  0
   -6.5790   -0.8390  -20.1860 C   0  0  0  0  0  0  0  0  0  0  0  0
   -6.8940   -1.0520  -18.8740 C   0  0  0  0  0  0  0  0  0  0  0  0
   -6.2160   -0.5540  -17.8090 N   0  0  0  0  0  0  0  0  0  0  0  0
   -5.1780    0.2070  -18.0730 C   0  0  0  0  0  0  0  0  0  0  0  0
   -4.7370    0.5200  -19.3880 C   0  0  0  0  0  0  0  0  0  0  0  0
   -3.6080    1.3450  -19.6250 C   0  0  0  0  0  0  0  0  0  0  0  0
   -3.2190    1.6420  -20.9030 C   0  0  0  0  0  0  0  0  0  0  0  0
   -3.9390    1.1220  -22.0030 C   0  0  0  0  0  0  0  0  0  0  0  0
   -5.0340    0.3180  -21.8010 C   0  0  0  0  0  0  0  0  0  0  0  0
   -5.4580   -0.0100  -20.4830 C   0  0  0  0  0  0  0  0  0  0  0  0
   -5.5890   -0.0640  -22.6540 H   0  0  0  0  0  0  0  0  0  0  0  0
   -3.6240    1.3680  -23.0150 H   0  0  0  0  0  0  0  0  0  0  0  0
   -2.3610    2.2860  -21.0810 H   0  0  0  0  0  0  0  0  0  0  0  0
   -3.0740    1.7480  -18.7670 H   0  0  0  0  0  0  0  0  0  0  0  0
   -4.6240    0.6160  -17.2270 H   0  0  0  0  0  0  0  0  0  0  0  0
   -7.7570   -1.6710  -18.6200 H   0  0  0  0  0  0  0  0  0  0  0  0
   -6.8100   -1.8800  -22.0540 H   0  0  0  0  0  0  0  0  0  0  0  0
   -8.0730   -2.2120  -20.8610 H   0  0  0  0  0  0  0  0  0  0  0  0
   -8.9970   -0.7850  -23.0630 N   0  0  0  0  0  0  0  0  0  0  0  0
   -9.3110   -2.1690  -23.4020 C   0  0  0  0  0  0  0  0  0  0  0  0
  -10.5800   -2.7080  -22.7400 C   0  0  0  0  0  0  0  0  0  0  0  0
  -11.8840   -2.0910  -23.2740 C   0  0  0  0  0  0  0  0  0  0  0  0
  -12.0780   -0.6180  -22.9920 C   0  0  0  0  0  0  0  0  0  0  0  0
  -13.6110   -0.0360  -22.4450 S   0  0  0  0  0  0  0  0  0  0  0  0
  -12.9670    1.5200  -22.0750 C   0  0  0  0  0  0  0  0  0  0  0  0
  -11.6780    1.6250  -22.4960 C   0  0  0  0  0  0  0  0  0  0  0  0
  -11.1750    0.4080  -23.0660 C   0  0  0  0  0  0  0  0  0  0  0  0
   -9.8190    0.2270  -23.7130 C   0  0  0  0  0  0  0  0  0  0  0  0
   -9.2480    1.1580  -23.7040 H   0  0  0  0  0  0  0  0  0  0  0  0
   -9.9320   -0.0660  -24.7660 H   0  0  0  0  0  0  0  0  0  0  0  0
  -11.0690    2.5220  -22.4040 H   0  0  0  0  0  0  0  0  0  0  0  0
  -13.5400    2.2320  -21.4910 H   0  0  0  0  0  0  0  0  0  0  0  0
  -12.7350   -2.6420  -22.8560 H   0  0  0  0  0  0  0  0  0  0  0  0
  -11.9220   -2.2360  -24.3650 H   0  0  0  0  0  0  0  0  0  0  0  0
  -10.6240   -3.7860  -22.9300 H   0  0  0  0  0  0  0  0  0  0  0  0
  -10.5300   -2.5880  -21.6510 H   0  0  0  0  0  0  0  0  0  0  0  0
   -8.4540   -2.8110  -23.1810 H   0  0  0  0  0  0  0  0  0  0  0  0
   -9.4340   -2.2330  -24.4900 H   0  0  0  0  0  0  0  0  0  0  0  0
  1  2  2  0  0  0  0
  2  3  1  0  0  0  0
  2 22  1  0  0  0  0
  3  4  1  0  0  0  0
  3 20  1  0  0  0  0
  3 21  1  0  0  0  0
  4  5  2  0  0  0  0
  4 13  1  0  0  0  0
  5  6  1  0  0  0  0
  5 19  1  0  0  0  0
  6  7  2  0  0  0  0
  7  8  1  0  0  0  0
  7 18  1  0  0  0  0
  8  9  2  0  0  0  0
  8 13  1  0  0  0  0
  9 10  1  0  0  0  0
  9 17  1  0  0  0  0
 10 11  2  0  0  0  0
 10 16  1  0  0  0  0
 11 12  1  0  0  0  0
 11 15  1  0  0  0  0
 12 13  2  0  0  0  0
 12 14  1  0  0  0  0
 22 23  1  0  0  0  0
 22 31  1  0  0  0  0
 23 24  1  0  0  0  0
 23 40  1  0  0  0  0
 23 41  1  0  0  0  0
 24 25  1  0  0  0  0
 24 38  1  0  0  0  0
 24 39  1  0  0  0  0
 25 26  1  0  0  0  0
 25 36  1  0  0  0  0
 25 37  1  0  0  0  0
 26 27  1  0  0  0  0
 26 30  2  0  0  0  0
 27 28  1  0  0  0  0
 28 29  2  0  0  0  0
 28 35  1  0  0  0  0
 29 30  1  0  0  0  0
 29 34  1  0  0  0  0
 30 31  1  0  0  0  0
 31 32  1  0  0  0  0
 31 33  1  0  0  0  0
M  END
>  <MODEL>
       1

$$$$
