tmp_first_model_19_64.pdb
 OpenBabel08282503233D

 55 60  0  0  1  0  0  0  0  0999 V2000
   -7.8960   -3.6550  -24.0580 C   0  0  0  0  0  0  0  0  0  0  0  0
   -8.3050   -2.8580  -22.8100 C   0  0  1  0  0  0  0  0  0  0  0  0
   -7.1150   -2.6390  -21.8490 C   0  0  0  0  0  0  0  0  0  0  0  0
   -7.4130   -1.3790  -21.1990 N   0  0  0  0  0  0  0  0  0  0  0  0
   -6.6050   -0.8060  -20.1770 C   0  0  0  0  0  0  0  0  0  0  0  0
   -6.9010   -1.0470  -18.8620 C   0  0  0  0  0  0  0  0  0  0  0  0
   -6.1920   -0.5610  -17.8150 N   0  0  0  0  0  0  0  0  0  0  0  0
   -5.1650    0.2080  -18.0780 C   0  0  0  0  0  0  0  0  0  0  0  0
   -4.7290    0.5310  -19.3960 C   0  0  0  0  0  0  0  0  0  0  0  0
   -3.5970    1.3580  -19.6400 C   0  0  0  0  0  0  0  0  0  0  0  0
   -3.2020    1.6360  -20.9180 C   0  0  0  0  0  0  0  0  0  0  0  0
   -3.9080    1.0850  -22.0100 C   0  0  0  0  0  0  0  0  0  0  0  0
   -5.0020    0.2790  -21.7990 C   0  0  0  0  0  0  0  0  0  0  0  0
   -5.4580   -0.0020  -20.4840 C   0  0  0  0  0  0  0  0  0  0  0  0
   -5.5610   -0.1030  -22.6500 H   0  0  0  0  0  0  0  0  0  0  0  0
   -3.6110    1.3310  -23.0240 H   0  0  0  0  0  0  0  0  0  0  0  0
   -2.3520    2.2900  -21.1000 H   0  0  0  0  0  0  0  0  0  0  0  0
   -3.0700    1.7750  -18.7850 H   0  0  0  0  0  0  0  0  0  0  0  0
   -4.6210    0.6160  -17.2250 H   0  0  0  0  0  0  0  0  0  0  0  0
   -7.7510   -1.6730  -18.5980 H   0  0  0  0  0  0  0  0  0  0  0  0
   -8.3840   -0.6350  -21.8280 C   0  0  0  0  0  0  0  0  0  0  0  0
   -8.7210    0.4750  -21.4630 O   0  0  0  0  0  0  0  0  0  0  0  0
   -8.9320   -1.4410  -23.0370 C   0  0  1  0  0  0  0  0  0  0  0  0
   -8.4320   -0.8130  -24.3660 C   0  0  0  0  0  0  0  0  0  0  0  0
   -9.0540    0.4650  -24.6380 N   0  0  0  0  0  0  0  0  0  0  0  0
   -8.2510    1.6280  -24.9870 C   0  0  0  0  0  0  0  0  0  0  0  0
   -7.9900    2.5360  -23.8140 C   0  0  0  0  0  0  0  0  0  0  0  0
   -6.7970    2.5710  -23.1510 N   0  0  0  0  0  0  0  0  0  0  0  0
   -7.0340    3.4300  -22.1760 C   0  0  0  0  0  0  0  0  0  0  0  0
   -8.2830    3.9200  -22.2850 N   0  0  0  0  0  0  0  0  0  0  0  0
   -8.9080    3.3470  -23.3330 N   0  0  0  0  0  0  0  0  0  0  0  0
   -8.8070    4.5000  -21.6440 H   0  0  0  0  0  0  0  0  0  0  0  0
   -6.3580    3.7100  -21.3830 H   0  0  0  0  0  0  0  0  0  0  0  0
   -8.7880    2.1790  -25.7670 H   0  0  0  0  0  0  0  0  0  0  0  0
   -7.2810    1.2930  -25.3630 H   0  0  0  0  0  0  0  0  0  0  0  0
  -10.4130    0.6190  -24.5820 C   0  0  0  0  0  0  0  0  0  0  0  0
  -10.9680    1.5790  -25.1000 O   0  0  0  0  0  0  0  0  0  0  0  0
  -11.1460   -0.4320  -23.7980 C   0  0  0  0  0  0  0  0  0  0  0  0
  -12.5410   -0.3810  -23.7700 C   0  0  0  0  0  0  0  0  0  0  0  0
  -13.2640   -1.2180  -22.9440 C   0  0  0  0  0  0  0  0  0  0  0  0
  -12.5620   -2.0890  -22.1210 C   0  0  0  0  0  0  0  0  0  0  0  0
  -13.2540   -2.8640  -21.2700 F   0  0  0  0  0  0  0  0  0  0  0  0
  -11.1850   -2.1730  -22.1350 C   0  0  0  0  0  0  0  0  0  0  0  0
  -10.4520   -1.3810  -23.0280 C   0  0  0  0  0  0  0  0  0  0  0  0
  -10.7140   -2.8340  -21.4140 H   0  0  0  0  0  0  0  0  0  0  0  0
  -14.3470   -1.1970  -22.8950 H   0  0  0  0  0  0  0  0  0  0  0  0
  -13.0380    0.3520  -24.3950 H   0  0  0  0  0  0  0  0  0  0  0  0
   -7.3530   -0.6480  -24.2900 H   0  0  0  0  0  0  0  0  0  0  0  0
   -8.6340   -1.5130  -25.1940 H   0  0  0  0  0  0  0  0  0  0  0  0
   -6.1610   -2.5950  -22.4010 H   0  0  0  0  0  0  0  0  0  0  0  0
   -7.0180   -3.4400  -21.1070 H   0  0  0  0  0  0  0  0  0  0  0  0
   -9.0590   -3.4420  -22.2770 H   0  0  0  0  0  0  0  0  0  0  0  0
   -7.0860   -3.1570  -24.6060 H   0  0  0  0  0  0  0  0  0  0  0  0
   -8.7320   -3.7880  -24.7540 H   0  0  0  0  0  0  0  0  0  0  0  0
   -7.5330   -4.6520  -23.7820 H   0  0  0  0  0  0  0  0  0  0  0  0
  1  2  1  0  0  0  0
  1 53  1  0  0  0  0
  1 54  1  0  0  0  0
  1 55  1  0  0  0  0
  2  3  1  0  0  0  0
  2 23  1  0  0  0  0
  2 52  1  1  0  0  0
  3  4  1  0  0  0  0
  3 50  1  0  0  0  0
  3 51  1  0  0  0  0
  4  5  1  0  0  0  0
  4 21  1  0  0  0  0
  5  6  2  0  0  0  0
  5 14  1  0  0  0  0
  6  7  1  0  0  0  0
  6 20  1  0  0  0  0
  7  8  2  0  0  0  0
  8  9  1  0  0  0  0
  8 19  1  0  0  0  0
  9 10  2  0  0  0  0
  9 14  1  0  0  0  0
 10 11  1  0  0  0  0
 10 18  1  0  0  0  0
 11 12  2  0  0  0  0
 11 17  1  0  0  0  0
 12 13  1  0  0  0  0
 12 16  1  0  0  0  0
 13 14  2  0  0  0  0
 13 15  1  0  0  0  0
 21 22  2  0  0  0  0
 23 21  1  1  0  0  0
 23 24  1  0  0  0  0
 23 44  1  0  0  0  0
 24 25  1  0  0  0  0
 24 48  1  0  0  0  0
 24 49  1  0  0  0  0
 25 26  1  0  0  0  0
 25 36  1  0  0  0  0
 26 27  1  0  0  0  0
 26 34  1  0  0  0  0
 26 35  1  0  0  0  0
 27 28  1  0  0  0  0
 27 31  2  0  0  0  0
 28 29  2  0  0  0  0
 29 30  1  0  0  0  0
 29 33  1  0  0  0  0
 30 31  1  0  0  0  0
 30 32  1  0  0  0  0
 36 37  2  0  0  0  0
 36 38  1  0  0  0  0
 38 39  2  0  0  0  0
 38 44  1  0  0  0  0
 39 40  1  0  0  0  0
 39 47  1  0  0  0  0
 40 41  2  0  0  0  0
 40 46  1  0  0  0  0
 41 42  1  0  0  0  0
 41 43  1  0  0  0  0
 43 44  2  0  0  0  0
 43 45  1  0  0  0  0
M  END
>  <MODEL>
       1

$$$$
