tmp_first_model_8_65.pdb
 OpenBabel08272521063D

 55 60  0  0  1  0  0  0  0  0999 V2000
  -10.4050   -1.0400  -23.3540 C   0  0  0  0  0  0  0  0  0  0  0  0
   -8.9750   -1.4050  -22.9830 C   0  0  1  0  0  0  0  0  0  0  0  0
   -8.3850   -0.4920  -21.8970 C   0  0  0  0  0  0  0  0  0  0  0  0
   -7.4030   -1.3440  -21.2470 N   0  0  0  0  0  0  0  0  0  0  0  0
   -6.5990   -0.8670  -20.1900 C   0  0  0  0  0  0  0  0  0  0  0  0
   -6.8990   -1.1650  -18.8870 C   0  0  0  0  0  0  0  0  0  0  0  0
   -6.2350   -0.6430  -17.8240 N   0  0  0  0  0  0  0  0  0  0  0  0
   -5.2390    0.1730  -18.0690 C   0  0  0  0  0  0  0  0  0  0  0  0
   -4.8030    0.5330  -19.3770 C   0  0  0  0  0  0  0  0  0  0  0  0
   -3.6900    1.3830  -19.6050 C   0  0  0  0  0  0  0  0  0  0  0  0
   -3.3300    1.7200  -20.8810 C   0  0  0  0  0  0  0  0  0  0  0  0
   -4.0580    1.2220  -21.9860 C   0  0  0  0  0  0  0  0  0  0  0  0
   -5.1130    0.3670  -21.7940 C   0  0  0  0  0  0  0  0  0  0  0  0
   -5.5130    0.0110  -20.4800 C   0  0  0  0  0  0  0  0  0  0  0  0
   -5.6420   -0.0580  -22.6420 H   0  0  0  0  0  0  0  0  0  0  0  0
   -3.7640    1.4990  -22.9940 H   0  0  0  0  0  0  0  0  0  0  0  0
   -2.4800    2.3720  -21.0590 H   0  0  0  0  0  0  0  0  0  0  0  0
   -3.1400    1.7620  -18.7480 H   0  0  0  0  0  0  0  0  0  0  0  0
   -4.7140    0.5930  -17.2090 H   0  0  0  0  0  0  0  0  0  0  0  0
   -7.7150   -1.8450  -18.6500 H   0  0  0  0  0  0  0  0  0  0  0  0
   -7.6240   -2.6910  -21.4500 C   0  0  0  0  0  0  0  0  0  0  0  0
   -6.9770   -3.5830  -20.9410 O   0  0  0  0  0  0  0  0  0  0  0  0
   -8.7990   -2.8600  -22.4180 C   0  0  1  0  0  0  0  0  0  0  0  0
  -10.0250   -3.3210  -21.5850 C   0  0  0  0  0  0  0  0  0  0  0  0
  -11.1320   -3.7610  -22.4090 N   0  0  0  0  0  0  0  0  0  0  0  0
  -12.5050   -3.6600  -21.9420 C   0  0  0  0  0  0  0  0  0  0  0  0
  -13.3280   -2.5420  -22.4950 C   0  0  0  0  0  0  0  0  0  0  0  0
  -14.0340   -2.5450  -23.6400 C   0  0  0  0  0  0  0  0  0  0  0  0
  -14.7580   -1.3940  -23.7060 O   0  0  0  0  0  0  0  0  0  0  0  0
  -14.4610   -0.7510  -22.5610 C   0  0  0  0  0  0  0  0  0  0  0  0
  -13.6290   -1.3780  -21.7930 N   0  0  0  0  0  0  0  0  0  0  0  0
  -14.9470    0.2030  -22.3970 H   0  0  0  0  0  0  0  0  0  0  0  0
  -14.1470   -3.2470  -24.4500 H   0  0  0  0  0  0  0  0  0  0  0  0
  -12.5240   -3.5840  -20.8580 H   0  0  0  0  0  0  0  0  0  0  0  0
  -12.9880   -4.5910  -22.2460 H   0  0  0  0  0  0  0  0  0  0  0  0
  -10.9270   -4.5030  -23.5380 C   0  0  0  0  0  0  0  0  0  0  0  0
  -11.8650   -4.9670  -24.1690 O   0  0  0  0  0  0  0  0  0  0  0  0
   -9.5140   -4.7040  -23.9750 C   0  0  0  0  0  0  0  0  0  0  0  0
   -9.2520   -5.7060  -24.9120 C   0  0  0  0  0  0  0  0  0  0  0  0
   -7.9710   -5.9000  -25.4010 C   0  0  0  0  0  0  0  0  0  0  0  0
   -6.9670   -5.0480  -24.9470 C   0  0  0  0  0  0  0  0  0  0  0  0
   -5.7220   -5.1960  -25.4300 F   0  0  0  0  0  0  0  0  0  0  0  0
   -7.1880   -4.0800  -23.9840 C   0  0  0  0  0  0  0  0  0  0  0  0
   -8.4850   -3.9000  -23.4770 C   0  0  0  0  0  0  0  0  0  0  0  0
   -6.3440   -3.5190  -23.5880 H   0  0  0  0  0  0  0  0  0  0  0  0
   -7.7300   -6.6960  -26.1020 H   0  0  0  0  0  0  0  0  0  0  0  0
  -10.0710   -6.3440  -25.2350 H   0  0  0  0  0  0  0  0  0  0  0  0
  -10.3830   -2.4910  -20.9740 H   0  0  0  0  0  0  0  0  0  0  0  0
   -9.6990   -4.1110  -20.9010 H   0  0  0  0  0  0  0  0  0  0  0  0
   -9.1590   -0.1580  -21.1860 H   0  0  0  0  0  0  0  0  0  0  0  0
   -7.9230    0.4160  -22.2990 H   0  0  0  0  0  0  0  0  0  0  0  0
   -8.3290   -1.3400  -23.8700 H   0  0  0  0  0  0  0  0  0  0  0  0
  -10.4720   -0.0690  -23.8490 H   0  0  0  0  0  0  0  0  0  0  0  0
  -10.8330   -1.8000  -24.0140 H   0  0  0  0  0  0  0  0  0  0  0  0
  -11.0280   -0.9950  -22.4560 H   0  0  0  0  0  0  0  0  0  0  0  0
  1  2  1  0  0  0  0
  1 53  1  0  0  0  0
  1 54  1  0  0  0  0
  1 55  1  0  0  0  0
  2  3  1  0  0  0  0
  2 23  1  0  0  0  0
  2 52  1  6  0  0  0
  3  4  1  0  0  0  0
  3 50  1  0  0  0  0
  3 51  1  0  0  0  0
  4  5  1  0  0  0  0
  4 21  1  0  0  0  0
  5  6  2  0  0  0  0
  5 14  1  0  0  0  0
  6  7  1  0  0  0  0
  6 20  1  0  0  0  0
  7  8  2  0  0  0  0
  8  9  1  0  0  0  0
  8 19  1  0  0  0  0
  9 10  2  0  0  0  0
  9 14  1  0  0  0  0
 10 11  1  0  0  0  0
 10 18  1  0  0  0  0
 11 12  2  0  0  0  0
 11 17  1  0  0  0  0
 12 13  1  0  0  0  0
 12 16  1  0  0  0  0
 13 14  2  0  0  0  0
 13 15  1  0  0  0  0
 21 22  2  0  0  0  0
 23 21  1  1  0  0  0
 23 24  1  0  0  0  0
 23 44  1  0  0  0  0
 24 25  1  0  0  0  0
 24 48  1  0  0  0  0
 24 49  1  0  0  0  0
 25 26  1  0  0  0  0
 25 36  1  0  0  0  0
 26 27  1  0  0  0  0
 26 34  1  0  0  0  0
 26 35  1  0  0  0  0
 27 28  2  0  0  0  0
 27 31  1  0  0  0  0
 28 29  1  0  0  0  0
 28 33  1  0  0  0  0
 29 30  1  0  0  0  0
 30 31  2  0  0  0  0
 30 32  1  0  0  0  0
 36 37  2  0  0  0  0
 36 38  1  0  0  0  0
 38 39  2  0  0  0  0
 38 44  1  0  0  0  0
 39 40  1  0  0  0  0
 39 47  1  0  0  0  0
 40 41  2  0  0  0  0
 40 46  1  0  0  0  0
 41 42  1  0  0  0  0
 41 43  1  0  0  0  0
 43 44  2  0  0  0  0
 43 45  1  0  0  0  0
M  END
>  <MODEL>
       1

$$$$
