tmp_first_model_4_5.pdb
 OpenBabel08272518513D

 58 61  0  0  1  0  0  0  0  0999 V2000
   -5.7130   -3.2700  -23.5570 C   0  0  0  0  0  0  0  0  0  0  0  0
   -6.1150   -3.2240  -22.2920 C   0  0  0  0  0  0  0  0  0  0  0  0
   -7.4270   -2.8430  -21.6860 C   0  0  0  0  0  0  0  0  0  0  0  0
   -7.3630   -1.4570  -21.2320 N   0  0  0  0  0  0  0  0  0  0  0  0
   -8.1670   -0.4290  -21.7290 C   0  0  0  0  0  0  0  0  0  0  0  0
   -8.4200    0.5470  -21.0530 O   0  0  0  0  0  0  0  0  0  0  0  0
   -8.6560   -0.5980  -23.1670 C   0  0  2  0  0  0  0  0  0  0  0  0
   -8.4890    0.7090  -23.9600 C   0  0  0  0  0  0  0  0  0  0  0  0
   -8.8480    0.4530  -25.3430 N   0  0  0  0  0  0  0  0  0  0  0  0
   -7.9900    0.8280  -26.4560 C   0  0  0  0  0  0  0  0  0  0  0  0
   -7.0800   -0.3020  -26.9650 C   0  0  0  0  0  0  0  0  0  0  0  0
   -7.2710   -0.8600  -28.0320 O   0  0  0  0  0  0  0  0  0  0  0  0
   -6.0420   -0.6510  -26.1540 N   0  0  0  0  0  0  0  0  0  0  0  0
   -5.0970   -1.6580  -26.5990 C   0  0  0  0  0  0  0  0  0  0  0  0
   -4.5610   -1.3480  -27.5020 H   0  0  0  0  0  0  0  0  0  0  0  0
   -5.6200   -2.5900  -26.8370 H   0  0  0  0  0  0  0  0  0  0  0  0
   -4.3730   -1.8490  -25.8020 H   0  0  0  0  0  0  0  0  0  0  0  0
   -5.7950   -0.0820  -25.3600 H   0  0  0  0  0  0  0  0  0  0  0  0
   -8.6310    1.0960  -27.2960 H   0  0  0  0  0  0  0  0  0  0  0  0
   -7.3900    1.6990  -26.1660 H   0  0  0  0  0  0  0  0  0  0  0  0
  -10.0450   -0.1490  -25.6390 C   0  0  0  0  0  0  0  0  0  0  0  0
  -10.4970   -0.1940  -26.7730 O   0  0  0  0  0  0  0  0  0  0  0  0
  -10.7630   -0.7620  -24.4780 C   0  0  0  0  0  0  0  0  0  0  0  0
  -12.1080   -1.0840  -24.6420 C   0  0  0  0  0  0  0  0  0  0  0  0
  -12.7800   -1.7870  -23.6570 C   0  0  0  0  0  0  0  0  0  0  0  0
  -12.0900   -2.1580  -22.5070 C   0  0  0  0  0  0  0  0  0  0  0  0
  -12.9480   -3.0830  -21.3070 Cl  0  0  0  0  0  0  0  0  0  0  0  0
  -10.7590   -1.8060  -22.3070 C   0  0  0  0  0  0  0  0  0  0  0  0
  -10.0950   -1.0640  -23.2880 C   0  0  0  0  0  0  0  0  0  0  0  0
  -10.2500   -2.1190  -21.4000 H   0  0  0  0  0  0  0  0  0  0  0  0
  -13.8190   -2.0790  -23.7700 H   0  0  0  0  0  0  0  0  0  0  0  0
  -12.6090   -0.7630  -25.5490 H   0  0  0  0  0  0  0  0  0  0  0  0
   -9.1250    1.4870  -23.5160 H   0  0  0  0  0  0  0  0  0  0  0  0
   -7.4550    1.0640  -23.9190 H   0  0  0  0  0  0  0  0  0  0  0  0
   -8.0180   -1.3340  -23.6750 H   0  0  0  0  0  0  0  0  0  0  0  0
   -6.3990   -1.1570  -20.2330 C   0  0  0  0  0  0  0  0  0  0  0  0
   -6.5980   -1.5260  -18.9280 C   0  0  0  0  0  0  0  0  0  0  0  0
   -5.6750   -1.3840  -17.9490 N   0  0  0  0  0  0  0  0  0  0  0  0
   -4.5610   -0.7640  -18.2520 C   0  0  0  0  0  0  0  0  0  0  0  0
   -4.2710   -0.2280  -19.5370 C   0  0  0  0  0  0  0  0  0  0  0  0
   -3.0940    0.5250  -19.7940 C   0  0  0  0  0  0  0  0  0  0  0  0
   -2.8520    1.0440  -21.0340 C   0  0  0  0  0  0  0  0  0  0  0  0
   -3.7820    0.8430  -22.0740 C   0  0  0  0  0  0  0  0  0  0  0  0
   -4.9250    0.1110  -21.8550 C   0  0  0  0  0  0  0  0  0  0  0  0
   -5.1980   -0.4600  -20.5790 C   0  0  0  0  0  0  0  0  0  0  0  0
   -5.6410   -0.0150  -22.6650 H   0  0  0  0  0  0  0  0  0  0  0  0
   -3.5930    1.2790  -23.0510 H   0  0  0  0  0  0  0  0  0  0  0  0
   -1.9370    1.5990  -21.2300 H   0  0  0  0  0  0  0  0  0  0  0  0
   -2.3930    0.6800  -18.9820 H   0  0  0  0  0  0  0  0  0  0  0  0
   -3.8250   -0.6520  -17.4560 H   0  0  0  0  0  0  0  0  0  0  0  0
   -7.5490   -1.9590  -18.6140 H   0  0  0  0  0  0  0  0  0  0  0  0
   -8.2810   -2.9860  -22.3600 H   0  0  0  0  0  0  0  0  0  0  0  0
   -7.5680   -3.4520  -20.7980 H   0  0  0  0  0  0  0  0  0  0  0  0
   -5.0400   -3.5480  -21.2620 C   0  0  0  0  0  0  0  0  0  0  0  0
   -5.3600   -3.8290  -20.0930 O   0  0  0  0  0  0  0  0  0  0  0  0
   -3.8950   -3.5940  -21.7660 O   0  5  0  0  0  0  0  0  0  0  0  0
   -6.3700   -3.0450  -24.3940 H   0  0  0  0  0  0  0  0  0  0  0  0
   -4.6800   -3.5640  -23.7310 H   0  0  0  0  0  0  0  0  0  0  0  0
  1  2  2  0  0  0  0
  1 57  1  0  0  0  0
  1 58  1  0  0  0  0
  2  3  1  0  0  0  0
  2 54  1  0  0  0  0
  3  4  1  0  0  0  0
  3 52  1  0  0  0  0
  3 53  1  0  0  0  0
  4  5  1  0  0  0  0
  4 36  1  0  0  0  0
  5  6  2  0  0  0  0
  5  7  1  0  0  0  0
  7  8  1  0  0  0  0
  7 29  1  0  0  0  0
  7 35  1  6  0  0  0
  8  9  1  0  0  0  0
  8 33  1  0  0  0  0
  8 34  1  0  0  0  0
  9 10  1  0  0  0  0
  9 21  1  0  0  0  0
 10 11  1  0  0  0  0
 10 19  1  0  0  0  0
 10 20  1  0  0  0  0
 11 12  2  0  0  0  0
 11 13  1  0  0  0  0
 13 14  1  0  0  0  0
 13 18  1  0  0  0  0
 14 15  1  0  0  0  0
 14 16  1  0  0  0  0
 14 17  1  0  0  0  0
 21 22  2  0  0  0  0
 21 23  1  0  0  0  0
 23 24  2  0  0  0  0
 23 29  1  0  0  0  0
 24 25  1  0  0  0  0
 24 32  1  0  0  0  0
 25 26  2  0  0  0  0
 25 31  1  0  0  0  0
 26 27  1  0  0  0  0
 26 28  1  0  0  0  0
 28 29  2  0  0  0  0
 28 30  1  0  0  0  0
 36 37  2  0  0  0  0
 36 45  1  0  0  0  0
 37 38  1  0  0  0  0
 37 51  1  0  0  0  0
 38 39  2  0  0  0  0
 39 40  1  0  0  0  0
 39 50  1  0  0  0  0
 40 41  2  0  0  0  0
 40 45  1  0  0  0  0
 41 42  1  0  0  0  0
 41 49  1  0  0  0  0
 42 43  2  0  0  0  0
 42 48  1  0  0  0  0
 43 44  1  0  0  0  0
 43 47  1  0  0  0  0
 44 45  2  0  0  0  0
 44 46  1  0  0  0  0
 54 55  2  0  0  0  0
 54 56  1  0  0  0  0
M  CHG  1  56  -1
M  END
>  <MODEL>
       1

$$$$
