tmp_first_model_19_61.pdb
 OpenBabel08282503233D

 44 47  0  0  0  0  0  0  0  0999 V2000
   -8.4060    0.7610  -21.5410 O   0  0  0  0  0  0  0  0  0  0  0  0
   -8.5350   -0.4340  -21.7700 C   0  0  0  0  0  0  0  0  0  0  0  0
   -7.4740   -1.4340  -21.2690 C   0  0  0  0  0  0  0  0  0  0  0  0
   -6.5970   -0.8440  -20.1940 C   0  0  0  0  0  0  0  0  0  0  0  0
   -6.9000   -1.0600  -18.8750 C   0  0  0  0  0  0  0  0  0  0  0  0
   -6.2150   -0.5620  -17.8130 N   0  0  0  0  0  0  0  0  0  0  0  0
   -5.1830    0.2010  -18.0770 C   0  0  0  0  0  0  0  0  0  0  0  0
   -4.7450    0.5160  -19.3920 C   0  0  0  0  0  0  0  0  0  0  0  0
   -3.6120    1.3390  -19.6280 C   0  0  0  0  0  0  0  0  0  0  0  0
   -3.2240    1.6350  -20.9050 C   0  0  0  0  0  0  0  0  0  0  0  0
   -3.9520    1.1230  -22.0020 C   0  0  0  0  0  0  0  0  0  0  0  0
   -5.0530    0.3250  -21.8000 C   0  0  0  0  0  0  0  0  0  0  0  0
   -5.4760   -0.0080  -20.4850 C   0  0  0  0  0  0  0  0  0  0  0  0
   -5.6180   -0.0400  -22.6510 H   0  0  0  0  0  0  0  0  0  0  0  0
   -3.6390    1.3700  -23.0130 H   0  0  0  0  0  0  0  0  0  0  0  0
   -2.3630    2.2750  -21.0820 H   0  0  0  0  0  0  0  0  0  0  0  0
   -3.0760    1.7390  -18.7710 H   0  0  0  0  0  0  0  0  0  0  0  0
   -4.6330    0.6080  -17.2260 H   0  0  0  0  0  0  0  0  0  0  0  0
   -7.7540   -1.6820  -18.6080 H   0  0  0  0  0  0  0  0  0  0  0  0
   -6.8630   -1.7780  -22.1160 H   0  0  0  0  0  0  0  0  0  0  0  0
   -7.9810   -2.3240  -20.8720 H   0  0  0  0  0  0  0  0  0  0  0  0
   -9.6170   -0.9200  -22.4530 N   0  0  0  0  0  0  0  0  0  0  0  0
   -9.7740   -2.3140  -22.8800 C   0  0  0  0  0  0  0  0  0  0  0  0
  -10.8290   -2.4250  -23.9860 C   0  0  0  0  0  0  0  0  0  0  0  0
  -12.2150   -1.9460  -23.5410 C   0  0  0  0  0  0  0  0  0  0  0  0
  -13.2940   -1.7890  -24.6530 C   0  0  0  0  0  0  0  0  0  0  0  0
  -14.2660   -2.6860  -23.8470 C   0  0  0  0  0  0  0  0  0  0  0  0
  -13.1320   -3.0100  -22.8600 C   0  0  0  0  0  0  0  0  0  0  0  0
  -13.3730   -2.8190  -21.8080 H   0  0  0  0  0  0  0  0  0  0  0  0
  -12.7560   -4.0350  -22.9440 H   0  0  0  0  0  0  0  0  0  0  0  0
  -15.0600   -2.0820  -23.3940 H   0  0  0  0  0  0  0  0  0  0  0  0
  -14.7200   -3.5470  -24.3500 H   0  0  0  0  0  0  0  0  0  0  0  0
  -13.6540   -0.7660  -24.8030 H   0  0  0  0  0  0  0  0  0  0  0  0
  -12.9790   -2.1600  -25.6290 H   0  0  0  0  0  0  0  0  0  0  0  0
  -12.0360   -0.7280  -22.6320 C   0  0  0  0  0  0  0  0  0  0  0  0
  -10.7080    0.0080  -22.7590 C   0  0  0  0  0  0  0  0  0  0  0  0
  -10.6560    0.8180  -22.0290 H   0  0  0  0  0  0  0  0  0  0  0  0
  -10.5680    0.4660  -23.7490 H   0  0  0  0  0  0  0  0  0  0  0  0
  -12.8890   -0.0430  -22.6940 H   0  0  0  0  0  0  0  0  0  0  0  0
  -12.0230   -1.1390  -21.6280 H   0  0  0  0  0  0  0  0  0  0  0  0
  -10.5030   -1.8180  -24.8420 H   0  0  0  0  0  0  0  0  0  0  0  0
  -10.8770   -3.4610  -24.3380 H   0  0  0  0  0  0  0  0  0  0  0  0
   -8.8150   -2.6830  -23.2640 H   0  0  0  0  0  0  0  0  0  0  0  0
  -10.0430   -2.9620  -22.0290 H   0  0  0  0  0  0  0  0  0  0  0  0
  1  2  2  0  0  0  0
  2  3  1  0  0  0  0
  2 22  1  0  0  0  0
  3  4  1  0  0  0  0
  3 20  1  0  0  0  0
  3 21  1  0  0  0  0
  4  5  2  0  0  0  0
  4 13  1  0  0  0  0
  5  6  1  0  0  0  0
  5 19  1  0  0  0  0
  6  7  2  0  0  0  0
  7  8  1  0  0  0  0
  7 18  1  0  0  0  0
  8  9  2  0  0  0  0
  8 13  1  0  0  0  0
  9 10  1  0  0  0  0
  9 17  1  0  0  0  0
 10 11  2  0  0  0  0
 10 16  1  0  0  0  0
 11 12  1  0  0  0  0
 11 15  1  0  0  0  0
 12 13  2  0  0  0  0
 12 14  1  0  0  0  0
 22 23  1  0  0  0  0
 22 36  1  0  0  0  0
 23 24  1  0  0  0  0
 23 43  1  0  0  0  0
 23 44  1  0  0  0  0
 24 25  1  0  0  0  0
 24 41  1  0  0  0  0
 24 42  1  0  0  0  0
 25 26  1  0  0  0  0
 25 28  1  0  0  0  0
 25 35  1  0  0  0  0
 26 27  1  0  0  0  0
 26 33  1  0  0  0  0
 26 34  1  0  0  0  0
 27 28  1  0  0  0  0
 27 31  1  0  0  0  0
 27 32  1  0  0  0  0
 28 29  1  0  0  0  0
 28 30  1  0  0  0  0
 35 36  1  0  0  0  0
 35 39  1  0  0  0  0
 35 40  1  0  0  0  0
 36 37  1  0  0  0  0
 36 38  1  0  0  0  0
M  END
>  <MODEL>
       1

$$$$
