tmp_first_model_9_80.pdb
 OpenBabel08272521403D

 60 65  0  0  1  0  0  0  0  0999 V2000
   -8.4910    2.2000  -28.9510 C   0  0  0  0  0  0  0  0  0  0  0  0
   -8.7260    2.2380  -27.5120 N   0  0  0  0  0  0  0  0  0  0  0  0
   -7.9130    1.5370  -26.6790 C   0  0  0  0  0  0  0  0  0  0  0  0
   -6.9280    0.9330  -27.0860 O   0  0  0  0  0  0  0  0  0  0  0  0
   -8.2770    1.5940  -25.1920 C   0  0  0  0  0  0  0  0  0  0  0  0
   -9.0430    0.4990  -24.6570 N   0  0  0  0  0  0  0  0  0  0  0  0
   -8.3830   -0.7660  -24.3810 C   0  0  0  0  0  0  0  0  0  0  0  0
   -8.8890   -1.4220  -23.0680 C   0  0  2  0  0  0  0  0  0  0  0  0
   -8.3670   -0.6330  -21.8430 C   0  0  0  0  0  0  0  0  0  0  0  0
   -8.7080    0.4790  -21.4820 O   0  0  0  0  0  0  0  0  0  0  0  0
   -7.4140   -1.3850  -21.1950 N   0  0  0  0  0  0  0  0  0  0  0  0
   -6.6050   -0.8140  -20.1730 C   0  0  0  0  0  0  0  0  0  0  0  0
   -6.9030   -1.0500  -18.8590 C   0  0  0  0  0  0  0  0  0  0  0  0
   -6.1940   -0.5550  -17.8150 N   0  0  0  0  0  0  0  0  0  0  0  0
   -5.1660    0.2080  -18.0860 C   0  0  0  0  0  0  0  0  0  0  0  0
   -4.7350    0.5300  -19.4030 C   0  0  0  0  0  0  0  0  0  0  0  0
   -3.6060    1.3600  -19.6430 C   0  0  0  0  0  0  0  0  0  0  0  0
   -3.2100    1.6450  -20.9200 C   0  0  0  0  0  0  0  0  0  0  0  0
   -3.9230    1.1030  -22.0130 C   0  0  0  0  0  0  0  0  0  0  0  0
   -5.0120    0.2910  -21.8070 C   0  0  0  0  0  0  0  0  0  0  0  0
   -5.4660   -0.0030  -20.4900 C   0  0  0  0  0  0  0  0  0  0  0  0
   -5.5330   -0.1330  -22.6610 H   0  0  0  0  0  0  0  0  0  0  0  0
   -3.6150    1.3330  -23.0300 H   0  0  0  0  0  0  0  0  0  0  0  0
   -2.3560    2.2940  -21.1000 H   0  0  0  0  0  0  0  0  0  0  0  0
   -3.0840    1.7720  -18.7820 H   0  0  0  0  0  0  0  0  0  0  0  0
   -4.6200    0.6150  -17.2340 H   0  0  0  0  0  0  0  0  0  0  0  0
   -7.7530   -1.6740  -18.5900 H   0  0  0  0  0  0  0  0  0  0  0  0
   -7.1020   -2.6400  -21.8480 C   0  0  0  0  0  0  0  0  0  0  0  0
   -8.2660   -2.8460  -22.8400 C   0  0  2  0  0  0  0  0  0  0  0  0
   -7.8290   -3.6340  -24.0820 C   0  0  0  0  0  0  0  0  0  0  0  0
   -8.6470   -3.7750  -24.7970 H   0  0  0  0  0  0  0  0  0  0  0  0
   -7.0120   -3.1220  -24.6060 H   0  0  0  0  0  0  0  0  0  0  0  0
   -7.4590   -4.6280  -23.8030 H   0  0  0  0  0  0  0  0  0  0  0  0
   -9.0400   -3.4230  -22.3300 H   0  0  0  0  0  0  0  0  0  0  0  0
   -7.0190   -3.4440  -21.1050 H   0  0  0  0  0  0  0  0  0  0  0  0
   -6.1380   -2.5870  -22.3780 H   0  0  0  0  0  0  0  0  0  0  0  0
  -10.4110   -1.3760  -23.0720 C   0  0  0  0  0  0  0  0  0  0  0  0
  -11.1290   -2.1650  -22.1600 C   0  0  0  0  0  0  0  0  0  0  0  0
  -12.5110   -2.1220  -22.1450 C   0  0  0  0  0  0  0  0  0  0  0  0
  -13.3920   -3.1140  -21.0190 Cl  0  0  0  0  0  0  0  0  0  0  0  0
  -13.2170   -1.2870  -23.0110 C   0  0  0  0  0  0  0  0  0  0  0  0
  -12.5150   -0.4550  -23.8610 C   0  0  0  0  0  0  0  0  0  0  0  0
  -11.1190   -0.4670  -23.8760 C   0  0  0  0  0  0  0  0  0  0  0  0
  -10.4120    0.5640  -24.7040 C   0  0  0  0  0  0  0  0  0  0  0  0
  -10.9960    1.4330  -25.3430 O   0  0  0  0  0  0  0  0  0  0  0  0
  -13.0160    0.2490  -24.5180 H   0  0  0  0  0  0  0  0  0  0  0  0
  -14.2990   -1.2800  -22.9830 H   0  0  0  0  0  0  0  0  0  0  0  0
  -10.6320   -2.7970  -21.4310 H   0  0  0  0  0  0  0  0  0  0  0  0
   -8.5690   -1.4620  -25.2130 H   0  0  0  0  0  0  0  0  0  0  0  0
   -7.3160   -0.5570  -24.3160 H   0  0  0  0  0  0  0  0  0  0  0  0
   -8.4390    2.9450  -24.5490 C   0  0  0  0  0  0  0  0  0  0  0  0
   -7.1890    2.1460  -24.3060 C   0  0  0  0  0  0  0  0  0  0  0  0
   -6.2630    2.4350  -24.8000 H   0  0  0  0  0  0  0  0  0  0  0  0
   -7.0780    1.6640  -23.3370 H   0  0  0  0  0  0  0  0  0  0  0  0
   -8.4050    3.8250  -25.1880 H   0  0  0  0  0  0  0  0  0  0  0  0
   -9.1570    3.0170  -23.7380 H   0  0  0  0  0  0  0  0  0  0  0  0
   -9.6030    2.5810  -27.1390 H   0  0  0  0  0  0  0  0  0  0  0  0
   -9.2800    2.7710  -29.4480 H   0  0  0  0  0  0  0  0  0  0  0  0
   -8.4860    1.1710  -29.3340 H   0  0  0  0  0  0  0  0  0  0  0  0
   -7.5150    2.6360  -29.2040 H   0  0  0  0  0  0  0  0  0  0  0  0
  1  2  1  0  0  0  0
  1 58  1  0  0  0  0
  1 59  1  0  0  0  0
  1 60  1  0  0  0  0
  2  3  1  0  0  0  0
  2 57  1  0  0  0  0
  3  4  2  0  0  0  0
  3  5  1  0  0  0  0
  5  6  1  0  0  0  0
  5 51  1  0  0  0  0
  5 52  1  0  0  0  0
  6  7  1  0  0  0  0
  6 44  1  0  0  0  0
  7  8  1  0  0  0  0
  7 49  1  0  0  0  0
  7 50  1  0  0  0  0
  8  9  1  1  0  0  0
  8 29  1  0  0  0  0
  8 37  1  0  0  0  0
  9 10  2  0  0  0  0
  9 11  1  0  0  0  0
 11 12  1  0  0  0  0
 11 28  1  0  0  0  0
 12 13  2  0  0  0  0
 12 21  1  0  0  0  0
 13 14  1  0  0  0  0
 13 27  1  0  0  0  0
 14 15  2  0  0  0  0
 15 16  1  0  0  0  0
 15 26  1  0  0  0  0
 16 17  2  0  0  0  0
 16 21  1  0  0  0  0
 17 18  1  0  0  0  0
 17 25  1  0  0  0  0
 18 19  2  0  0  0  0
 18 24  1  0  0  0  0
 19 20  1  0  0  0  0
 19 23  1  0  0  0  0
 20 21  2  0  0  0  0
 20 22  1  0  0  0  0
 28 29  1  0  0  0  0
 28 35  1  0  0  0  0
 28 36  1  0  0  0  0
 29 30  1  0  0  0  0
 29 34  1  1  0  0  0
 30 31  1  0  0  0  0
 30 32  1  0  0  0  0
 30 33  1  0  0  0  0
 37 38  2  0  0  0  0
 37 43  1  0  0  0  0
 38 39  1  0  0  0  0
 38 48  1  0  0  0  0
 39 40  1  0  0  0  0
 39 41  2  0  0  0  0
 41 42  1  0  0  0  0
 41 47  1  0  0  0  0
 42 43  2  0  0  0  0
 42 46  1  0  0  0  0
 43 44  1  0  0  0  0
 44 45  2  0  0  0  0
 51 52  1  0  0  0  0
 51 55  1  0  0  0  0
 51 56  1  0  0  0  0
 52 53  1  0  0  0  0
 52 54  1  0  0  0  0
M  END
>  <MODEL>
       1

$$$$
