tmp_first_model_2_19.pdb
 OpenBabel08272517383D

 42 45  0  0  1  0  0  0  0  0999 V2000
   -9.1450   -0.0620  -20.7250 O   0  0  0  0  0  0  0  0  0  0  0  0
   -8.6550   -0.9060  -21.4500 C   0  0  0  0  0  0  0  0  0  0  0  0
   -9.3670   -1.5030  -22.6770 C   0  0  1  0  0  0  0  0  0  0  0  0
  -10.4380   -0.5580  -23.1880 C   0  0  0  0  0  0  0  0  0  0  0  0
  -10.1010    0.7540  -23.5120 C   0  0  0  0  0  0  0  0  0  0  0  0
  -11.0710    1.6270  -23.9680 C   0  0  0  0  0  0  0  0  0  0  0  0
  -12.4000    1.2410  -24.0810 C   0  0  0  0  0  0  0  0  0  0  0  0
  -13.5500    2.5030  -24.3720 Cl  0  0  0  0  0  0  0  0  0  0  0  0
  -12.7280   -0.0980  -23.8600 C   0  0  0  0  0  0  0  0  0  0  0  0
  -14.3310   -0.6910  -24.1120 Cl  0  0  0  0  0  0  0  0  0  0  0  0
  -11.7480   -0.9850  -23.4040 C   0  0  0  0  0  0  0  0  0  0  0  0
  -12.0460   -2.0120  -23.1870 H   0  0  0  0  0  0  0  0  0  0  0  0
  -10.8330    2.6530  -24.2060 H   0  0  0  0  0  0  0  0  0  0  0  0
   -9.0890    1.1200  -23.3400 H   0  0  0  0  0  0  0  0  0  0  0  0
   -8.3340   -1.7870  -23.7760 C   0  0  0  0  0  0  0  0  0  0  0  0
   -7.2410   -2.7560  -23.3370 C   0  0  2  0  0  0  0  0  0  0  0  0
   -7.5390   -4.1070  -23.6570 O   0  0  0  0  0  0  0  0  0  0  0  0
   -8.3970   -4.3200  -23.2670 H   0  0  0  0  0  0  0  0  0  0  0  0
   -6.9340   -2.6360  -21.8350 C   0  0  0  0  0  0  0  0  0  0  0  0
   -7.3750   -1.3760  -21.2530 N   0  0  0  0  0  0  0  0  0  0  0  0
   -6.6080   -0.8070  -20.1920 C   0  0  0  0  0  0  0  0  0  0  0  0
   -6.9100   -1.0510  -18.8760 C   0  0  0  0  0  0  0  0  0  0  0  0
   -6.2040   -0.5600  -17.8260 N   0  0  0  0  0  0  0  0  0  0  0  0
   -5.1700    0.2050  -18.0810 C   0  0  0  0  0  0  0  0  0  0  0  0
   -4.7280    0.5260  -19.3960 C   0  0  0  0  0  0  0  0  0  0  0  0
   -3.6000    1.3570  -19.6370 C   0  0  0  0  0  0  0  0  0  0  0  0
   -3.2140    1.6410  -20.9180 C   0  0  0  0  0  0  0  0  0  0  0  0
   -3.9330    1.1050  -22.0110 C   0  0  0  0  0  0  0  0  0  0  0  0
   -5.0240    0.3020  -21.8000 C   0  0  0  0  0  0  0  0  0  0  0  0
   -5.4560   -0.0030  -20.4840 C   0  0  0  0  0  0  0  0  0  0  0  0
   -5.5880   -0.0960  -22.6360 H   0  0  0  0  0  0  0  0  0  0  0  0
   -3.6280    1.3480  -23.0240 H   0  0  0  0  0  0  0  0  0  0  0  0
   -2.3600    2.2870  -21.1050 H   0  0  0  0  0  0  0  0  0  0  0  0
   -3.0680    1.7700  -18.7830 H   0  0  0  0  0  0  0  0  0  0  0  0
   -4.6240    0.6120  -17.2270 H   0  0  0  0  0  0  0  0  0  0  0  0
   -7.7580   -1.6720  -18.5960 H   0  0  0  0  0  0  0  0  0  0  0  0
   -7.3940   -3.5100  -21.3360 H   0  0  0  0  0  0  0  0  0  0  0  0
   -5.8600   -2.6950  -21.6660 H   0  0  0  0  0  0  0  0  0  0  0  0
   -6.3410   -2.5460  -23.9200 H   0  0  0  0  0  0  0  0  0  0  0  0
   -7.8960   -0.8290  -24.0860 H   0  0  0  0  0  0  0  0  0  0  0  0
   -8.8250   -2.2060  -24.6600 H   0  0  0  0  0  0  0  0  0  0  0  0
   -9.8470   -2.4450  -22.3760 H   0  0  0  0  0  0  0  0  0  0  0  0
  1  2  2  0  0  0  0
  2  3  1  0  0  0  0
  2 20  1  0  0  0  0
  3  4  1  0  0  0  0
  3 15  1  0  0  0  0
  3 42  1  1  0  0  0
  4  5  2  0  0  0  0
  4 11  1  0  0  0  0
  5  6  1  0  0  0  0
  5 14  1  0  0  0  0
  6  7  2  0  0  0  0
  6 13  1  0  0  0  0
  7  8  1  0  0  0  0
  7  9  1  0  0  0  0
  9 10  1  0  0  0  0
  9 11  2  0  0  0  0
 11 12  1  0  0  0  0
 15 16  1  0  0  0  0
 15 40  1  0  0  0  0
 15 41  1  0  0  0  0
 16 17  1  0  0  0  0
 16 19  1  0  0  0  0
 16 39  1  6  0  0  0
 17 18  1  0  0  0  0
 19 20  1  0  0  0  0
 19 37  1  0  0  0  0
 19 38  1  0  0  0  0
 20 21  1  0  0  0  0
 21 22  2  0  0  0  0
 21 30  1  0  0  0  0
 22 23  1  0  0  0  0
 22 36  1  0  0  0  0
 23 24  2  0  0  0  0
 24 25  1  0  0  0  0
 24 35  1  0  0  0  0
 25 26  2  0  0  0  0
 25 30  1  0  0  0  0
 26 27  1  0  0  0  0
 26 34  1  0  0  0  0
 27 28  2  0  0  0  0
 27 33  1  0  0  0  0
 28 29  1  0  0  0  0
 28 32  1  0  0  0  0
 29 30  2  0  0  0  0
 29 31  1  0  0  0  0
M  END
>  <MODEL>
       1

$$$$
