tmp_first_model_8_46.pdb
 OpenBabel08272521063D

 50 54  0  0  1  0  0  0  0  0999 V2000
  -10.3880   -1.0220  -23.3550 C   0  0  0  0  0  0  0  0  0  0  0  0
   -8.9690   -1.4190  -22.9660 C   0  0  1  0  0  0  0  0  0  0  0  0
   -8.3670   -0.4980  -21.8950 C   0  0  0  0  0  0  0  0  0  0  0  0
   -7.3920   -1.3500  -21.2370 N   0  0  0  0  0  0  0  0  0  0  0  0
   -6.5840   -0.8670  -20.1840 C   0  0  0  0  0  0  0  0  0  0  0  0
   -6.8890   -1.1490  -18.8770 C   0  0  0  0  0  0  0  0  0  0  0  0
   -6.2250   -0.6210  -17.8190 N   0  0  0  0  0  0  0  0  0  0  0  0
   -5.2210    0.1840  -18.0660 C   0  0  0  0  0  0  0  0  0  0  0  0
   -4.7830    0.5360  -19.3750 C   0  0  0  0  0  0  0  0  0  0  0  0
   -3.6700    1.3860  -19.6070 C   0  0  0  0  0  0  0  0  0  0  0  0
   -3.3080    1.7110  -20.8850 C   0  0  0  0  0  0  0  0  0  0  0  0
   -4.0350    1.2040  -21.9870 C   0  0  0  0  0  0  0  0  0  0  0  0
   -5.0950    0.3550  -21.7900 C   0  0  0  0  0  0  0  0  0  0  0  0
   -5.4950    0.0080  -20.4740 C   0  0  0  0  0  0  0  0  0  0  0  0
   -5.6250   -0.0780  -22.6320 H   0  0  0  0  0  0  0  0  0  0  0  0
   -3.7310    1.4570  -22.9980 H   0  0  0  0  0  0  0  0  0  0  0  0
   -2.4550    2.3580  -21.0690 H   0  0  0  0  0  0  0  0  0  0  0  0
   -3.1200    1.7720  -18.7530 H   0  0  0  0  0  0  0  0  0  0  0  0
   -4.6920    0.5980  -17.2060 H   0  0  0  0  0  0  0  0  0  0  0  0
   -7.7140   -1.8140  -18.6320 H   0  0  0  0  0  0  0  0  0  0  0  0
   -7.6360   -2.6970  -21.4190 C   0  0  0  0  0  0  0  0  0  0  0  0
   -6.9910   -3.5840  -20.8980 O   0  0  0  0  0  0  0  0  0  0  0  0
   -8.8230   -2.8700  -22.3810 C   0  0  1  0  0  0  0  0  0  0  0  0
  -10.0690   -3.2870  -21.5580 C   0  0  0  0  0  0  0  0  0  0  0  0
  -11.1910   -3.6910  -22.4010 N   0  0  0  0  0  0  0  0  0  0  0  0
  -12.5720   -3.5280  -21.9730 C   0  0  0  0  0  0  0  0  0  0  0  0
  -13.3070   -2.5060  -22.7440 C   0  0  0  0  0  0  0  0  0  0  0  0
  -13.9420   -1.7060  -23.2920 N   0  0  0  0  0  0  0  0  0  0  0  0
  -12.6260   -3.2730  -20.9120 H   0  0  0  0  0  0  0  0  0  0  0  0
  -13.0870   -4.4870  -22.1210 H   0  0  0  0  0  0  0  0  0  0  0  0
  -10.9900   -4.5610  -23.4400 C   0  0  0  0  0  0  0  0  0  0  0  0
  -11.9180   -5.1360  -23.9840 O   0  0  0  0  0  0  0  0  0  0  0  0
   -9.5760   -4.7530  -23.8820 C   0  0  0  0  0  0  0  0  0  0  0  0
   -9.3340   -5.7460  -24.8270 C   0  0  0  0  0  0  0  0  0  0  0  0
   -8.0690   -5.9350  -25.3480 C   0  0  0  0  0  0  0  0  0  0  0  0
   -7.0520   -5.0860  -24.9210 C   0  0  0  0  0  0  0  0  0  0  0  0
   -5.8180   -5.2540  -25.4260 F   0  0  0  0  0  0  0  0  0  0  0  0
   -7.2570   -4.1090  -23.9650 C   0  0  0  0  0  0  0  0  0  0  0  0
   -8.5390   -3.9360  -23.4190 C   0  0  0  0  0  0  0  0  0  0  0  0
   -6.4020   -3.5410  -23.6070 H   0  0  0  0  0  0  0  0  0  0  0  0
   -7.8610   -6.7360  -26.0480 H   0  0  0  0  0  0  0  0  0  0  0  0
  -10.1740   -6.3610  -25.1340 H   0  0  0  0  0  0  0  0  0  0  0  0
   -9.7960   -4.1070  -20.8870 H   0  0  0  0  0  0  0  0  0  0  0  0
  -10.3490   -2.4290  -20.9430 H   0  0  0  0  0  0  0  0  0  0  0  0
   -9.1360   -0.1480  -21.1870 H   0  0  0  0  0  0  0  0  0  0  0  0
   -7.9040    0.4020  -22.3140 H   0  0  0  0  0  0  0  0  0  0  0  0
   -8.3190   -1.3900  -23.8520 H   0  0  0  0  0  0  0  0  0  0  0  0
  -10.4380   -0.0370  -23.8270 H   0  0  0  0  0  0  0  0  0  0  0  0
  -11.0280   -0.9980  -22.4670 H   0  0  0  0  0  0  0  0  0  0  0  0
  -10.8070   -1.7630  -24.0400 H   0  0  0  0  0  0  0  0  0  0  0  0
  1  2  1  0  0  0  0
  1 48  1  0  0  0  0
  1 49  1  0  0  0  0
  1 50  1  0  0  0  0
  2  3  1  0  0  0  0
  2 23  1  0  0  0  0
  2 47  1  6  0  0  0
  3  4  1  0  0  0  0
  3 45  1  0  0  0  0
  3 46  1  0  0  0  0
  4  5  1  0  0  0  0
  4 21  1  0  0  0  0
  5  6  2  0  0  0  0
  5 14  1  0  0  0  0
  6  7  1  0  0  0  0
  6 20  1  0  0  0  0
  7  8  2  0  0  0  0
  8  9  1  0  0  0  0
  8 19  1  0  0  0  0
  9 10  2  0  0  0  0
  9 14  1  0  0  0  0
 10 11  1  0  0  0  0
 10 18  1  0  0  0  0
 11 12  2  0  0  0  0
 11 17  1  0  0  0  0
 12 13  1  0  0  0  0
 12 16  1  0  0  0  0
 13 14  2  0  0  0  0
 13 15  1  0  0  0  0
 21 22  2  0  0  0  0
 23 21  1  1  0  0  0
 23 24  1  0  0  0  0
 23 39  1  0  0  0  0
 24 25  1  0  0  0  0
 24 43  1  0  0  0  0
 24 44  1  0  0  0  0
 25 26  1  0  0  0  0
 25 31  1  0  0  0  0
 26 27  1  0  0  0  0
 26 29  1  0  0  0  0
 26 30  1  0  0  0  0
 27 28  3  0  0  0  0
 31 32  2  0  0  0  0
 31 33  1  0  0  0  0
 33 34  2  0  0  0  0
 33 39  1  0  0  0  0
 34 35  1  0  0  0  0
 34 42  1  0  0  0  0
 35 36  2  0  0  0  0
 35 41  1  0  0  0  0
 36 37  1  0  0  0  0
 36 38  1  0  0  0  0
 38 39  2  0  0  0  0
 38 40  1  0  0  0  0
M  END
>  <MODEL>
       1

$$$$
