tmp_first_model_20_17.pdb
 OpenBabel08282503553D

 38 41  0  0  1  0  0  0  0  0999 V2000
  -10.7330   -4.2800  -22.8280 C   0  0  0  0  0  0  0  0  0  0  0  0
  -10.5420   -3.0410  -23.6940 C   0  0  2  0  0  0  0  0  0  0  0  0
   -9.4150   -3.2960  -24.7070 C   0  0  0  0  0  0  0  0  0  0  0  0
   -8.1070   -3.6410  -23.9740 C   0  0  0  0  0  0  0  0  0  0  0  0
   -7.8890   -2.6770  -22.8930 C   0  0  0  0  0  0  0  0  0  0  0  0
   -6.7610   -2.5200  -22.0110 C   0  0  0  0  0  0  0  0  0  0  0  0
   -5.7180   -3.1280  -21.9310 O   0  5  0  0  0  0  0  0  0  0  0  0
   -7.1490   -1.4360  -21.1770 N   0  0  0  0  0  0  0  0  0  0  0  0
   -6.4280   -0.8360  -20.1310 C   0  0  0  0  0  0  0  0  0  0  0  0
   -6.8390   -1.0100  -18.8410 C   0  0  0  0  0  0  0  0  0  0  0  0
   -6.1910   -0.4940  -17.7720 N   0  0  0  0  0  0  0  0  0  0  0  0
   -5.1240    0.2370  -17.9970 C   0  0  0  0  0  0  0  0  0  0  0  0
   -4.6390    0.5580  -19.3030 C   0  0  0  0  0  0  0  0  0  0  0  0
   -3.5010    1.3760  -19.5470 C   0  0  0  0  0  0  0  0  0  0  0  0
   -3.1460    1.6960  -20.8320 C   0  0  0  0  0  0  0  0  0  0  0  0
   -3.9090    1.2380  -21.9350 C   0  0  0  0  0  0  0  0  0  0  0  0
   -5.0020    0.4370  -21.7290 C   0  0  0  0  0  0  0  0  0  0  0  0
   -5.3490    0.0450  -20.4090 C   0  0  0  0  0  0  0  0  0  0  0  0
   -5.6350    0.1150  -22.5530 H   0  0  0  0  0  0  0  0  0  0  0  0
   -3.6340    1.5250  -22.9470 H   0  0  0  0  0  0  0  0  0  0  0  0
   -2.2770    2.3220  -21.0240 H   0  0  0  0  0  0  0  0  0  0  0  0
   -2.9320    1.7490  -18.6990 H   0  0  0  0  0  0  0  0  0  0  0  0
   -4.5970    0.6240  -17.1210 H   0  0  0  0  0  0  0  0  0  0  0  0
   -7.7370   -1.5900  -18.6360 H   0  0  0  0  0  0  0  0  0  0  0  0
   -8.4320   -1.0040  -21.4680 C   0  0  0  0  0  0  0  0  0  0  0  0
   -9.0680   -0.1390  -20.8980 O   0  0  0  0  0  0  0  0  0  0  0  0
   -8.8430   -1.7900  -22.5100 N   0  0  0  0  0  0  0  0  0  0  0  0
  -10.2410   -1.7870  -22.8940 C   0  0  0  0  0  0  0  0  0  0  0  0
  -10.4580   -0.8810  -23.4700 H   0  0  0  0  0  0  0  0  0  0  0  0
  -10.8400   -1.7480  -21.9800 H   0  0  0  0  0  0  0  0  0  0  0  0
   -7.2580   -3.6590  -24.6660 H   0  0  0  0  0  0  0  0  0  0  0  0
   -8.1400   -4.6570  -23.5530 H   0  0  0  0  0  0  0  0  0  0  0  0
   -9.6810   -4.1290  -25.3670 H   0  0  0  0  0  0  0  0  0  0  0  0
   -9.2490   -2.4020  -25.3230 H   0  0  0  0  0  0  0  0  0  0  0  0
  -11.4880   -2.8300  -24.1900 H   0  0  0  0  0  0  0  0  0  0  0  0
  -10.8390   -5.1490  -23.4870 H   0  0  0  0  0  0  0  0  0  0  0  0
   -9.8650   -4.4390  -22.1820 H   0  0  0  0  0  0  0  0  0  0  0  0
  -11.6070   -4.2160  -22.1730 H   0  0  0  0  0  0  0  0  0  0  0  0
  1  2  1  0  0  0  0
  1 36  1  0  0  0  0
  1 37  1  0  0  0  0
  1 38  1  0  0  0  0
  2  3  1  0  0  0  0
  2 28  1  0  0  0  0
  2 35  1  6  0  0  0
  3  4  1  0  0  0  0
  3 33  1  0  0  0  0
  3 34  1  0  0  0  0
  4  5  1  0  0  0  0
  4 31  1  0  0  0  0
  4 32  1  0  0  0  0
  5  6  2  0  0  0  0
  5 27  1  0  0  0  0
  6  7  1  0  0  0  0
  6  8  1  0  0  0  0
  8  9  1  0  0  0  0
  8 25  1  0  0  0  0
  9 10  2  0  0  0  0
  9 18  1  0  0  0  0
 10 11  1  0  0  0  0
 10 24  1  0  0  0  0
 11 12  2  0  0  0  0
 12 13  1  0  0  0  0
 12 23  1  0  0  0  0
 13 14  2  0  0  0  0
 13 18  1  0  0  0  0
 14 15  1  0  0  0  0
 14 22  1  0  0  0  0
 15 16  2  0  0  0  0
 15 21  1  0  0  0  0
 16 17  1  0  0  0  0
 16 20  1  0  0  0  0
 17 18  2  0  0  0  0
 17 19  1  0  0  0  0
 25 26  2  0  0  0  0
 25 27  1  0  0  0  0
 27 28  1  0  0  0  0
 28 29  1  0  0  0  0
 28 30  1  0  0  0  0
M  CHG  1   7  -1
M  END
>  <MODEL>
       1

$$$$
