tmp_first_model_5_17.pdb
 OpenBabel08272519223D

 38 41  0  0  1  0  0  0  0  0999 V2000
  -10.8350   -4.6600  -22.9600 C   0  0  0  0  0  0  0  0  0  0  0  0
  -10.5840   -3.4240  -23.8290 C   0  0  2  0  0  0  0  0  0  0  0  0
   -9.4010   -3.6490  -24.7830 C   0  0  0  0  0  0  0  0  0  0  0  0
   -8.0850   -3.8470  -24.0220 C   0  0  0  0  0  0  0  0  0  0  0  0
   -7.9620   -2.8580  -22.9530 C   0  0  0  0  0  0  0  0  0  0  0  0
   -6.8020   -2.5540  -22.1670 C   0  0  0  0  0  0  0  0  0  0  0  0
   -5.6730   -2.9940  -22.2250 O   0  5  0  0  0  0  0  0  0  0  0  0
   -7.2620   -1.5680  -21.2580 N   0  0  0  0  0  0  0  0  0  0  0  0
   -6.4920   -1.0020  -20.2290 C   0  0  0  0  0  0  0  0  0  0  0  0
   -6.8290   -1.1480  -18.9100 C   0  0  0  0  0  0  0  0  0  0  0  0
   -5.9960   -0.8370  -17.8920 N   0  0  0  0  0  0  0  0  0  0  0  0
   -4.8260   -0.3280  -18.2100 C   0  0  0  0  0  0  0  0  0  0  0  0
   -4.4240   -0.0210  -19.5350 C   0  0  0  0  0  0  0  0  0  0  0  0
   -3.2480    0.7180  -19.8050 C   0  0  0  0  0  0  0  0  0  0  0  0
   -3.1430    1.4150  -20.9740 C   0  0  0  0  0  0  0  0  0  0  0  0
   -4.0640    1.1960  -22.0320 C   0  0  0  0  0  0  0  0  0  0  0  0
   -5.1070    0.3210  -21.8520 C   0  0  0  0  0  0  0  0  0  0  0  0
   -5.3340   -0.2550  -20.5710 C   0  0  0  0  0  0  0  0  0  0  0  0
   -5.7400    0.0450  -22.6880 H   0  0  0  0  0  0  0  0  0  0  0  0
   -3.9040    1.6660  -23.0000 H   0  0  0  0  0  0  0  0  0  0  0  0
   -2.2740    2.0360  -21.1580 H   0  0  0  0  0  0  0  0  0  0  0  0
   -2.5380    0.8310  -18.9900 H   0  0  0  0  0  0  0  0  0  0  0  0
   -4.1630   -0.0720  -17.3890 H   0  0  0  0  0  0  0  0  0  0  0  0
   -7.8070   -1.5470  -18.6460 H   0  0  0  0  0  0  0  0  0  0  0  0
   -8.5880   -1.2240  -21.5100 C   0  0  0  0  0  0  0  0  0  0  0  0
   -9.2170   -0.3450  -20.9680 O   0  0  0  0  0  0  0  0  0  0  0  0
   -8.9940   -2.0900  -22.5140 N   0  0  0  0  0  0  0  0  0  0  0  0
  -10.3660   -2.1450  -23.0100 C   0  0  0  0  0  0  0  0  0  0  0  0
  -10.5720   -1.2560  -23.6190 H   0  0  0  0  0  0  0  0  0  0  0  0
  -11.0370   -2.1050  -22.1460 H   0  0  0  0  0  0  0  0  0  0  0  0
   -7.2260   -3.7530  -24.6950 H   0  0  0  0  0  0  0  0  0  0  0  0
   -8.0110   -4.8590  -23.5950 H   0  0  0  0  0  0  0  0  0  0  0  0
   -9.5980   -4.5210  -25.4200 H   0  0  0  0  0  0  0  0  0  0  0  0
   -9.2970   -2.7760  -25.4380 H   0  0  0  0  0  0  0  0  0  0  0  0
  -11.4840   -3.2610  -24.4340 H   0  0  0  0  0  0  0  0  0  0  0  0
  -10.9020   -5.5430  -23.6070 H   0  0  0  0  0  0  0  0  0  0  0  0
  -10.0250   -4.8270  -22.2390 H   0  0  0  0  0  0  0  0  0  0  0  0
  -11.7730   -4.5720  -22.3990 H   0  0  0  0  0  0  0  0  0  0  0  0
  1  2  1  0  0  0  0
  1 36  1  0  0  0  0
  1 37  1  0  0  0  0
  1 38  1  0  0  0  0
  2  3  1  0  0  0  0
  2 28  1  0  0  0  0
  2 35  1  6  0  0  0
  3  4  1  0  0  0  0
  3 33  1  0  0  0  0
  3 34  1  0  0  0  0
  4  5  1  0  0  0  0
  4 31  1  0  0  0  0
  4 32  1  0  0  0  0
  5  6  2  0  0  0  0
  5 27  1  0  0  0  0
  6  7  1  0  0  0  0
  6  8  1  0  0  0  0
  8  9  1  0  0  0  0
  8 25  1  0  0  0  0
  9 10  2  0  0  0  0
  9 18  1  0  0  0  0
 10 11  1  0  0  0  0
 10 24  1  0  0  0  0
 11 12  2  0  0  0  0
 12 13  1  0  0  0  0
 12 23  1  0  0  0  0
 13 14  2  0  0  0  0
 13 18  1  0  0  0  0
 14 15  1  0  0  0  0
 14 22  1  0  0  0  0
 15 16  2  0  0  0  0
 15 21  1  0  0  0  0
 16 17  1  0  0  0  0
 16 20  1  0  0  0  0
 17 18  2  0  0  0  0
 17 19  1  0  0  0  0
 25 26  2  0  0  0  0
 25 27  1  0  0  0  0
 27 28  1  0  0  0  0
 28 29  1  0  0  0  0
 28 30  1  0  0  0  0
M  CHG  1   7  -1
M  END
>  <MODEL>
       1

$$$$
