tmp_first_model_16_16.pdb
 OpenBabel08282501503D

 61 66  0  0  1  0  0  0  0  0999 V2000
  -14.5040   -0.3220  -22.9030 C   0  0  0  0  0  0  0  0  0  0  0  0
  -13.6380   -1.3360  -22.3070 N   0  0  0  0  0  0  0  0  0  0  0  0
  -13.3500   -2.4820  -23.0030 C   0  0  0  0  0  0  0  0  0  0  0  0
  -13.6370   -2.5980  -24.1850 O   0  0  0  0  0  0  0  0  0  0  0  0
  -12.6420   -3.6200  -22.2300 C   0  0  0  0  0  0  0  0  0  0  0  0
  -11.2390   -3.8020  -22.6010 N   0  0  0  0  0  0  0  0  0  0  0  0
  -10.1520   -3.3380  -21.7300 C   0  0  0  0  0  0  0  0  0  0  0  0
   -8.8950   -2.8810  -22.5070 C   0  0  2  0  0  0  0  0  0  0  0  0
   -7.7630   -2.7380  -21.4760 C   0  0  0  0  0  0  0  0  0  0  0  0
   -7.1880   -3.6430  -20.9000 O   0  0  0  0  0  0  0  0  0  0  0  0
   -7.4600   -1.4050  -21.2930 N   0  0  0  0  0  0  0  0  0  0  0  0
   -6.5910   -1.0050  -20.2460 C   0  0  0  0  0  0  0  0  0  0  0  0
   -6.8320   -1.4050  -18.9540 C   0  0  0  0  0  0  0  0  0  0  0  0
   -6.0830   -1.0330  -17.8870 N   0  0  0  0  0  0  0  0  0  0  0  0
   -5.0570   -0.2460  -18.1010 C   0  0  0  0  0  0  0  0  0  0  0  0
   -4.6860    0.2340  -19.3870 C   0  0  0  0  0  0  0  0  0  0  0  0
   -3.5790    1.1030  -19.5670 C   0  0  0  0  0  0  0  0  0  0  0  0
   -3.2370    1.5340  -20.8180 C   0  0  0  0  0  0  0  0  0  0  0  0
   -3.9660    1.0910  -21.9450 C   0  0  0  0  0  0  0  0  0  0  0  0
   -5.0430    0.2500  -21.7980 C   0  0  0  0  0  0  0  0  0  0  0  0
   -5.4530   -0.1710  -20.5040 C   0  0  0  0  0  0  0  0  0  0  0  0
   -5.5800   -0.1060  -22.6710 H   0  0  0  0  0  0  0  0  0  0  0  0
   -3.6690    1.4250  -22.9340 H   0  0  0  0  0  0  0  0  0  0  0  0
   -2.4020    2.2130  -20.9570 H   0  0  0  0  0  0  0  0  0  0  0  0
   -3.0220    1.4220  -18.6890 H   0  0  0  0  0  0  0  0  0  0  0  0
   -4.4570    0.0410  -17.2360 H   0  0  0  0  0  0  0  0  0  0  0  0
   -7.6750   -2.0560  -18.7290 H   0  0  0  0  0  0  0  0  0  0  0  0
   -8.3950   -0.5200  -21.9770 C   0  0  0  0  0  0  0  0  0  0  0  0
   -8.9950   -1.4200  -23.0720 C   0  0  2  0  0  0  0  0  0  0  0  0
  -10.4090   -1.0100  -23.5090 C   0  0  0  0  0  0  0  0  0  0  0  0
  -10.4800    0.2880  -24.1550 N   0  0  0  0  0  0  0  0  0  0  0  0
  -10.7010    1.4120  -23.4950 N   0  0  0  0  0  0  0  0  0  0  0  0
  -10.7490    2.2860  -24.4880 C   0  0  0  0  0  0  0  0  0  0  0  0
  -10.5680    1.7100  -25.6950 N   0  0  0  0  0  0  0  0  0  0  0  0
  -10.3990    0.4380  -25.4580 N   0  0  0  0  0  0  0  0  0  0  0  0
  -10.9020    3.3440  -24.3390 H   0  0  0  0  0  0  0  0  0  0  0  0
  -11.0820   -0.9420  -22.6580 H   0  0  0  0  0  0  0  0  0  0  0  0
  -10.8030   -1.7380  -24.2190 H   0  0  0  0  0  0  0  0  0  0  0  0
   -8.3370   -1.3760  -23.9480 H   0  0  0  0  0  0  0  0  0  0  0  0
   -9.1640   -0.1530  -21.2800 H   0  0  0  0  0  0  0  0  0  0  0  0
   -7.8780    0.3490  -22.3910 H   0  0  0  0  0  0  0  0  0  0  0  0
   -8.5730   -3.9360  -23.5490 C   0  0  0  0  0  0  0  0  0  0  0  0
   -7.2600   -4.0960  -24.0170 C   0  0  0  0  0  0  0  0  0  0  0  0
   -6.9650   -5.0850  -24.9410 C   0  0  0  0  0  0  0  0  0  0  0  0
   -5.3370   -5.2640  -25.5320 Cl  0  0  0  0  0  0  0  0  0  0  0  0
   -7.9480   -5.9460  -25.4270 C   0  0  0  0  0  0  0  0  0  0  0  0
   -9.2500   -5.7590  -25.0030 C   0  0  0  0  0  0  0  0  0  0  0  0
   -9.5640   -4.7750  -24.0680 C   0  0  0  0  0  0  0  0  0  0  0  0
  -10.9930   -4.6410  -23.6620 C   0  0  0  0  0  0  0  0  0  0  0  0
  -11.8810   -5.2340  -24.2570 O   0  0  0  0  0  0  0  0  0  0  0  0
  -10.0570   -6.3820  -25.3730 H   0  0  0  0  0  0  0  0  0  0  0  0
   -7.6870   -6.7430  -26.1170 H   0  0  0  0  0  0  0  0  0  0  0  0
   -6.4520   -3.4800  -23.6370 H   0  0  0  0  0  0  0  0  0  0  0  0
  -10.5090   -2.4900  -21.1370 H   0  0  0  0  0  0  0  0  0  0  0  0
   -9.8250   -4.1310  -21.0430 H   0  0  0  0  0  0  0  0  0  0  0  0
  -13.1780   -4.5290  -22.5270 H   0  0  0  0  0  0  0  0  0  0  0  0
  -12.7240   -3.5140  -21.1420 H   0  0  0  0  0  0  0  0  0  0  0  0
  -13.5380   -1.3350  -21.3000 H   0  0  0  0  0  0  0  0  0  0  0  0
  -15.5640   -0.5730  -22.7700 H   0  0  0  0  0  0  0  0  0  0  0  0
  -14.2940    0.6500  -22.4470 H   0  0  0  0  0  0  0  0  0  0  0  0
  -14.2960   -0.2610  -23.9760 H   0  0  0  0  0  0  0  0  0  0  0  0
  1  2  1  0  0  0  0
  1 59  1  0  0  0  0
  1 60  1  0  0  0  0
  1 61  1  0  0  0  0
  2  3  1  0  0  0  0
  2 58  1  0  0  0  0
  3  4  2  0  0  0  0
  3  5  1  0  0  0  0
  5  6  1  0  0  0  0
  5 56  1  0  0  0  0
  5 57  1  0  0  0  0
  6  7  1  0  0  0  0
  6 49  1  0  0  0  0
  7  8  1  0  0  0  0
  7 54  1  0  0  0  0
  7 55  1  0  0  0  0
  8  9  1  1  0  0  0
  8 29  1  0  0  0  0
  8 42  1  0  0  0  0
  9 10  2  0  0  0  0
  9 11  1  0  0  0  0
 11 12  1  0  0  0  0
 11 28  1  0  0  0  0
 12 13  2  0  0  0  0
 12 21  1  0  0  0  0
 13 14  1  0  0  0  0
 13 27  1  0  0  0  0
 14 15  2  0  0  0  0
 15 16  1  0  0  0  0
 15 26  1  0  0  0  0
 16 17  2  0  0  0  0
 16 21  1  0  0  0  0
 17 18  1  0  0  0  0
 17 25  1  0  0  0  0
 18 19  2  0  0  0  0
 18 24  1  0  0  0  0
 19 20  1  0  0  0  0
 19 23  1  0  0  0  0
 20 21  2  0  0  0  0
 20 22  1  0  0  0  0
 28 29  1  0  0  0  0
 28 40  1  0  0  0  0
 28 41  1  0  0  0  0
 29 30  1  0  0  0  0
 29 39  1  6  0  0  0
 30 31  1  0  0  0  0
 30 37  1  0  0  0  0
 30 38  1  0  0  0  0
 31 32  1  0  0  0  0
 31 35  1  0  0  0  0
 32 33  2  0  0  0  0
 33 34  1  0  0  0  0
 33 36  1  0  0  0  0
 34 35  2  0  0  0  0
 42 43  2  0  0  0  0
 42 48  1  0  0  0  0
 43 44  1  0  0  0  0
 43 53  1  0  0  0  0
 44 45  1  0  0  0  0
 44 46  2  0  0  0  0
 46 47  1  0  0  0  0
 46 52  1  0  0  0  0
 47 48  2  0  0  0  0
 47 51  1  0  0  0  0
 48 49  1  0  0  0  0
 49 50  2  0  0  0  0
M  END
>  <MODEL>
       1

$$$$
