tmp_first_model_19_79.pdb
 OpenBabel08282503233D

 45 49  0  0  0  0  0  0  0  0999 V2000
  -10.5760   -2.6920  -22.4850 C   0  0  0  0  0  0  0  0  0  0  0  0
   -9.1800   -2.4390  -22.1680 N   0  0  0  0  0  0  0  0  0  0  0  0
   -8.7700   -1.3790  -21.3970 C   0  0  0  0  0  0  0  0  0  0  0  0
   -9.4460   -0.4640  -20.9930 O   0  0  0  0  0  0  0  0  0  0  0  0
   -7.3710   -1.5340  -21.2140 N   0  0  0  0  0  0  0  0  0  0  0  0
   -6.6010   -0.8650  -20.2030 C   0  0  0  0  0  0  0  0  0  0  0  0
   -6.9100   -1.0630  -18.8810 C   0  0  0  0  0  0  0  0  0  0  0  0
   -6.2100   -0.5540  -17.8350 N   0  0  0  0  0  0  0  0  0  0  0  0
   -5.1780    0.2050  -18.0980 C   0  0  0  0  0  0  0  0  0  0  0  0
   -4.7470    0.5200  -19.4150 C   0  0  0  0  0  0  0  0  0  0  0  0
   -3.6120    1.3510  -19.6410 C   0  0  0  0  0  0  0  0  0  0  0  0
   -3.2230    1.6580  -20.9130 C   0  0  0  0  0  0  0  0  0  0  0  0
   -3.9550    1.1460  -22.0080 C   0  0  0  0  0  0  0  0  0  0  0  0
   -5.0490    0.3400  -21.8140 C   0  0  0  0  0  0  0  0  0  0  0  0
   -5.4770   -0.0150  -20.5050 C   0  0  0  0  0  0  0  0  0  0  0  0
   -5.5980   -0.0450  -22.6660 H   0  0  0  0  0  0  0  0  0  0  0  0
   -3.6480    1.3980  -23.0180 H   0  0  0  0  0  0  0  0  0  0  0  0
   -2.3670    2.3060  -21.0900 H   0  0  0  0  0  0  0  0  0  0  0  0
   -3.0800    1.7520  -18.7810 H   0  0  0  0  0  0  0  0  0  0  0  0
   -4.6290    0.6100  -17.2460 H   0  0  0  0  0  0  0  0  0  0  0  0
   -7.7570   -1.6830  -18.6030 H   0  0  0  0  0  0  0  0  0  0  0  0
   -6.8740   -2.5200  -22.0660 C   0  0  0  0  0  0  0  0  0  0  0  0
   -5.7140   -2.8100  -22.2280 O   0  0  0  0  0  0  0  0  0  0  0  0
   -8.0760   -3.1390  -22.7670 C   0  0  0  0  0  0  0  0  0  0  0  0
   -8.0030   -3.2000  -24.3160 C   0  0  0  0  0  0  0  0  0  0  0  0
   -7.9670   -4.6830  -24.2770 N   0  0  0  0  0  0  0  0  0  0  0  0
   -9.2360   -5.4900  -25.0540 S   0  0  0  0  0  0  0  0  0  0  0  0
   -9.0210   -6.9010  -24.8190 O   0  0  0  0  0  0  0  0  0  0  0  0
  -10.4820   -4.8440  -24.6580 O   0  0  0  0  0  0  0  0  0  0  0  0
   -9.0170   -5.2260  -26.7920 C   0  0  0  0  0  0  0  0  0  0  0  0
   -8.0930   -6.1540  -27.5280 C   0  0  0  0  0  0  0  0  0  0  0  0
   -9.5760   -6.3000  -27.7000 C   0  0  0  0  0  0  0  0  0  0  0  0
  -10.0330   -5.9740  -28.6330 H   0  0  0  0  0  0  0  0  0  0  0  0
  -10.0730   -7.1450  -27.2230 H   0  0  0  0  0  0  0  0  0  0  0  0
   -7.5730   -6.9010  -26.9300 H   0  0  0  0  0  0  0  0  0  0  0  0
   -7.5150   -5.7260  -28.3440 H   0  0  0  0  0  0  0  0  0  0  0  0
   -9.1130   -4.1800  -27.0730 H   0  0  0  0  0  0  0  0  0  0  0  0
   -8.0800   -4.6790  -22.7770 C   0  0  0  0  0  0  0  0  0  0  0  0
   -7.2010   -5.1200  -22.3090 H   0  0  0  0  0  0  0  0  0  0  0  0
   -8.9920   -5.1240  -22.3720 H   0  0  0  0  0  0  0  0  0  0  0  0
   -7.0750   -2.8130  -24.7340 H   0  0  0  0  0  0  0  0  0  0  0  0
   -8.8660   -2.7700  -24.8380 H   0  0  0  0  0  0  0  0  0  0  0  0
  -10.7800   -2.5110  -23.5480 H   0  0  0  0  0  0  0  0  0  0  0  0
  -10.8560   -3.7270  -22.2480 H   0  0  0  0  0  0  0  0  0  0  0  0
  -11.1620   -2.0030  -21.8770 H   0  0  0  0  0  0  0  0  0  0  0  0
  1  2  1  0  0  0  0
  1 43  1  0  0  0  0
  1 44  1  0  0  0  0
  1 45  1  0  0  0  0
  2  3  1  0  0  0  0
  2 24  1  0  0  0  0
  3  4  2  0  0  0  0
  3  5  1  0  0  0  0
  5  6  1  0  0  0  0
  5 22  1  0  0  0  0
  6  7  2  0  0  0  0
  6 15  1  0  0  0  0
  7  8  1  0  0  0  0
  7 21  1  0  0  0  0
  8  9  2  0  0  0  0
  9 10  1  0  0  0  0
  9 20  1  0  0  0  0
 10 11  2  0  0  0  0
 10 15  1  0  0  0  0
 11 12  1  0  0  0  0
 11 19  1  0  0  0  0
 12 13  2  0  0  0  0
 12 18  1  0  0  0  0
 13 14  1  0  0  0  0
 13 17  1  0  0  0  0
 14 15  2  0  0  0  0
 14 16  1  0  0  0  0
 22 23  2  0  0  0  0
 22 24  1  0  0  0  0
 24 25  1  0  0  0  0
 24 38  1  0  0  0  0
 25 26  1  0  0  0  0
 25 41  1  0  0  0  0
 25 42  1  0  0  0  0
 26 27  1  0  0  0  0
 26 38  1  0  0  0  0
 27 28  2  0  0  0  0
 27 29  2  0  0  0  0
 27 30  1  0  0  0  0
 30 31  1  0  0  0  0
 30 32  1  0  0  0  0
 30 37  1  0  0  0  0
 31 32  1  0  0  0  0
 31 35  1  0  0  0  0
 31 36  1  0  0  0  0
 32 33  1  0  0  0  0
 32 34  1  0  0  0  0
 38 39  1  0  0  0  0
 38 40  1  0  0  0  0
M  END
>  <MODEL>
       1

$$$$
