tmp_first_model_12_80.pdb
 OpenBabel08272523333D

 60 65  0  0  1  0  0  0  0  0999 V2000
   -6.8180    3.5300  -23.4430 C   0  0  0  0  0  0  0  0  0  0  0  0
   -7.5700    2.6910  -24.3510 N   0  0  0  0  0  0  0  0  0  0  0  0
   -6.9990    1.6080  -24.9120 C   0  0  0  0  0  0  0  0  0  0  0  0
   -5.7990    1.3860  -24.8340 O   0  0  0  0  0  0  0  0  0  0  0  0
   -7.9260    0.7080  -25.7150 C   0  0  0  0  0  0  0  0  0  0  0  0
   -8.9470    0.0200  -24.9900 N   0  0  0  0  0  0  0  0  0  0  0  0
   -8.6270   -1.2740  -24.4080 C   0  0  0  0  0  0  0  0  0  0  0  0
   -9.1280   -1.4070  -22.9460 C   0  0  2  0  0  0  0  0  0  0  0  0
   -8.3050   -0.4740  -22.0260 C   0  0  0  0  0  0  0  0  0  0  0  0
   -8.3240    0.7420  -22.0230 O   0  0  0  0  0  0  0  0  0  0  0  0
   -7.4900   -1.2390  -21.2240 N   0  0  0  0  0  0  0  0  0  0  0  0
   -6.6750   -0.7070  -20.1970 C   0  0  0  0  0  0  0  0  0  0  0  0
   -6.9200   -1.0470  -18.8880 C   0  0  0  0  0  0  0  0  0  0  0  0
   -6.2190   -0.5840  -17.8260 N   0  0  0  0  0  0  0  0  0  0  0  0
   -5.1960    0.2000  -18.0750 C   0  0  0  0  0  0  0  0  0  0  0  0
   -4.7910    0.5780  -19.3860 C   0  0  0  0  0  0  0  0  0  0  0  0
   -3.6520    1.4000  -19.6040 C   0  0  0  0  0  0  0  0  0  0  0  0
   -3.2890    1.7660  -20.8710 C   0  0  0  0  0  0  0  0  0  0  0  0
   -4.0600    1.3450  -21.9780 C   0  0  0  0  0  0  0  0  0  0  0  0
   -5.1570    0.5380  -21.7950 C   0  0  0  0  0  0  0  0  0  0  0  0
   -5.5570    0.1360  -20.4890 C   0  0  0  0  0  0  0  0  0  0  0  0
   -5.7080    0.1890  -22.6630 H   0  0  0  0  0  0  0  0  0  0  0  0
   -3.7810    1.6400  -22.9870 H   0  0  0  0  0  0  0  0  0  0  0  0
   -2.4090    2.3840  -21.0320 H   0  0  0  0  0  0  0  0  0  0  0  0
   -3.0900    1.7390  -18.7370 H   0  0  0  0  0  0  0  0  0  0  0  0
   -4.6330    0.5770  -17.2200 H   0  0  0  0  0  0  0  0  0  0  0  0
   -7.7500   -1.7110  -18.6490 H   0  0  0  0  0  0  0  0  0  0  0  0
   -7.5960   -2.6600  -21.4590 C   0  0  0  0  0  0  0  0  0  0  0  0
   -8.8340   -2.8130  -22.3480 C   0  0  2  0  0  0  0  0  0  0  0  0
   -8.7330   -3.9720  -23.3330 C   0  0  0  0  0  0  0  0  0  0  0  0
   -7.8830   -3.8450  -24.0140 H   0  0  0  0  0  0  0  0  0  0  0  0
   -9.6430   -4.0500  -23.9370 H   0  0  0  0  0  0  0  0  0  0  0  0
   -8.6010   -4.9200  -22.8010 H   0  0  0  0  0  0  0  0  0  0  0  0
   -9.6490   -3.0460  -21.6680 H   0  0  0  0  0  0  0  0  0  0  0  0
   -7.7280   -3.1810  -20.5110 H   0  0  0  0  0  0  0  0  0  0  0  0
   -6.6890   -3.0530  -21.9340 H   0  0  0  0  0  0  0  0  0  0  0  0
  -10.6000   -1.0130  -22.9470 C   0  0  0  0  0  0  0  0  0  0  0  0
  -11.5250   -1.6110  -22.0810 C   0  0  0  0  0  0  0  0  0  0  0  0
  -12.8450   -1.2010  -22.0890 C   0  0  0  0  0  0  0  0  0  0  0  0
  -14.0030   -2.0130  -21.0600 Cl  0  0  0  0  0  0  0  0  0  0  0  0
  -13.2880   -0.1630  -22.9030 C   0  0  0  0  0  0  0  0  0  0  0  0
  -12.3830    0.4540  -23.7470 C   0  0  0  0  0  0  0  0  0  0  0  0
  -11.0570    0.0110  -23.7970 C   0  0  0  0  0  0  0  0  0  0  0  0
  -10.1510    0.6430  -24.8020 C   0  0  0  0  0  0  0  0  0  0  0  0
  -10.4440    1.6650  -25.4170 O   0  0  0  0  0  0  0  0  0  0  0  0
  -12.6520    1.2700  -24.4110 H   0  0  0  0  0  0  0  0  0  0  0  0
  -14.3430    0.0940  -22.8770 H   0  0  0  0  0  0  0  0  0  0  0  0
  -11.2540   -2.4030  -21.3900 H   0  0  0  0  0  0  0  0  0  0  0  0
   -7.5450   -1.3880  -24.4560 H   0  0  0  0  0  0  0  0  0  0  0  0
   -9.0820   -2.0690  -25.0120 H   0  0  0  0  0  0  0  0  0  0  0  0
   -7.2460   -0.0180  -26.8360 C   0  0  0  0  0  0  0  0  0  0  0  0
   -8.1780    1.1080  -27.1380 C   0  0  0  0  0  0  0  0  0  0  0  0
   -9.1630    0.8670  -27.5220 H   0  0  0  0  0  0  0  0  0  0  0  0
   -7.7740    2.0600  -27.4540 H   0  0  0  0  0  0  0  0  0  0  0  0
   -7.5870   -1.0270  -27.0430 H   0  0  0  0  0  0  0  0  0  0  0  0
   -6.1830    0.1700  -26.9010 H   0  0  0  0  0  0  0  0  0  0  0  0
   -8.5730    2.7640  -24.3860 H   0  0  0  0  0  0  0  0  0  0  0  0
   -6.4510    2.9440  -22.5900 H   0  0  0  0  0  0  0  0  0  0  0  0
   -5.9530    3.9650  -23.9500 H   0  0  0  0  0  0  0  0  0  0  0  0
   -7.4640    4.3320  -23.0840 H   0  0  0  0  0  0  0  0  0  0  0  0
  1  2  1  0  0  0  0
  1 58  1  0  0  0  0
  1 59  1  0  0  0  0
  1 60  1  0  0  0  0
  2  3  1  0  0  0  0
  2 57  1  0  0  0  0
  3  4  2  0  0  0  0
  3  5  1  0  0  0  0
  5  6  1  0  0  0  0
  5 51  1  0  0  0  0
  5 52  1  0  0  0  0
  6  7  1  0  0  0  0
  6 44  1  0  0  0  0
  7  8  1  0  0  0  0
  7 49  1  0  0  0  0
  7 50  1  0  0  0  0
  8  9  1  1  0  0  0
  8 29  1  0  0  0  0
  8 37  1  0  0  0  0
  9 10  2  0  0  0  0
  9 11  1  0  0  0  0
 11 12  1  0  0  0  0
 11 28  1  0  0  0  0
 12 13  2  0  0  0  0
 12 21  1  0  0  0  0
 13 14  1  0  0  0  0
 13 27  1  0  0  0  0
 14 15  2  0  0  0  0
 15 16  1  0  0  0  0
 15 26  1  0  0  0  0
 16 17  2  0  0  0  0
 16 21  1  0  0  0  0
 17 18  1  0  0  0  0
 17 25  1  0  0  0  0
 18 19  2  0  0  0  0
 18 24  1  0  0  0  0
 19 20  1  0  0  0  0
 19 23  1  0  0  0  0
 20 21  2  0  0  0  0
 20 22  1  0  0  0  0
 28 29  1  0  0  0  0
 28 35  1  0  0  0  0
 28 36  1  0  0  0  0
 29 30  1  0  0  0  0
 29 34  1  1  0  0  0
 30 31  1  0  0  0  0
 30 32  1  0  0  0  0
 30 33  1  0  0  0  0
 37 38  2  0  0  0  0
 37 43  1  0  0  0  0
 38 39  1  0  0  0  0
 38 48  1  0  0  0  0
 39 40  1  0  0  0  0
 39 41  2  0  0  0  0
 41 42  1  0  0  0  0
 41 47  1  0  0  0  0
 42 43  2  0  0  0  0
 42 46  1  0  0  0  0
 43 44  1  0  0  0  0
 44 45  2  0  0  0  0
 51 52  1  0  0  0  0
 51 55  1  0  0  0  0
 51 56  1  0  0  0  0
 52 53  1  0  0  0  0
 52 54  1  0  0  0  0
M  END
>  <MODEL>
       1

$$$$
