tmp_first_model_2_59.pdb
 OpenBabel08272517383D

 60 65  0  0  1  0  0  0  0  0999 V2000
  -15.0290   -2.9140  -24.3460 C   0  0  0  0  0  0  0  0  0  0  0  0
  -14.2750   -3.4440  -23.2330 N   0  0  0  0  0  0  0  0  0  0  0  0
  -13.5730   -2.6810  -22.3550 C   0  0  0  0  0  0  0  0  0  0  0  0
  -13.7070   -1.4820  -22.1990 O   0  0  0  0  0  0  0  0  0  0  0  0
  -12.5830   -3.4850  -21.5160 C   0  0  0  0  0  0  0  0  0  0  0  0
  -11.2650   -3.5710  -22.1500 N   0  0  0  0  0  0  0  0  0  0  0  0
  -10.0820   -3.1110  -21.4290 C   0  0  0  0  0  0  0  0  0  0  0  0
   -8.8730   -2.7750  -22.3270 C   0  0  2  0  0  0  0  0  0  0  0  0
   -7.6670   -2.6460  -21.3900 C   0  0  0  0  0  0  0  0  0  0  0  0
   -7.0630   -3.5520  -20.8460 O   0  0  0  0  0  0  0  0  0  0  0  0
   -7.3630   -1.3120  -21.2330 N   0  0  0  0  0  0  0  0  0  0  0  0
   -6.5520   -0.8560  -20.1710 C   0  0  0  0  0  0  0  0  0  0  0  0
   -6.8700   -1.1270  -18.8650 C   0  0  0  0  0  0  0  0  0  0  0  0
   -6.2230   -0.5830  -17.8030 N   0  0  0  0  0  0  0  0  0  0  0  0
   -5.2140    0.2190  -18.0530 C   0  0  0  0  0  0  0  0  0  0  0  0
   -4.7470    0.5390  -19.3640 C   0  0  0  0  0  0  0  0  0  0  0  0
   -3.6230    1.3740  -19.6060 C   0  0  0  0  0  0  0  0  0  0  0  0
   -3.2170    1.6310  -20.8870 C   0  0  0  0  0  0  0  0  0  0  0  0
   -3.9080    1.0760  -21.9870 C   0  0  0  0  0  0  0  0  0  0  0  0
   -4.9970    0.2680  -21.7800 C   0  0  0  0  0  0  0  0  0  0  0  0
   -5.4380   -0.0130  -20.4610 C   0  0  0  0  0  0  0  0  0  0  0  0
   -5.5280   -0.1790  -22.6140 H   0  0  0  0  0  0  0  0  0  0  0  0
   -3.5790    1.2890  -22.9990 H   0  0  0  0  0  0  0  0  0  0  0  0
   -2.3540    2.2650  -21.0710 H   0  0  0  0  0  0  0  0  0  0  0  0
   -3.0950    1.7940  -18.7540 H   0  0  0  0  0  0  0  0  0  0  0  0
   -4.7030    0.6540  -17.1930 H   0  0  0  0  0  0  0  0  0  0  0  0
   -7.6970   -1.7960  -18.6300 H   0  0  0  0  0  0  0  0  0  0  0  0
   -8.3230   -0.4280  -21.8740 C   0  0  0  0  0  0  0  0  0  0  0  0
   -8.9780   -1.3230  -22.9330 C   0  0  2  0  0  0  0  0  0  0  0  0
  -10.3690   -0.7930  -23.3130 C   0  0  0  0  0  0  0  0  0  0  0  0
  -10.9120   -1.4710  -24.5300 C   0  0  0  0  0  0  0  0  0  0  0  0
  -10.1730   -2.2230  -25.3350 N   0  0  0  0  0  0  0  0  0  0  0  0
  -11.0340   -2.7270  -26.2130 N   0  0  0  0  0  0  0  0  0  0  0  0
  -12.2240   -2.2770  -25.9710 N   0  5  0  0  0  0  0  0  0  0  0  0
  -12.1750   -1.4480  -24.9280 N   0  0  0  0  0  0  0  0  0  0  0  0
  -10.3350    0.2860  -23.5020 H   0  0  0  0  0  0  0  0  0  0  0  0
  -11.0880   -0.9360  -22.5000 H   0  0  0  0  0  0  0  0  0  0  0  0
   -8.3440   -1.3330  -23.8260 H   0  0  0  0  0  0  0  0  0  0  0  0
   -7.8260    0.4510  -22.2980 H   0  0  0  0  0  0  0  0  0  0  0  0
   -9.0610   -0.0620  -21.1400 H   0  0  0  0  0  0  0  0  0  0  0  0
   -8.6850   -3.9160  -23.3080 C   0  0  0  0  0  0  0  0  0  0  0  0
   -7.4290   -4.1770  -23.8760 C   0  0  0  0  0  0  0  0  0  0  0  0
   -7.2700   -5.1950  -24.7970 C   0  0  0  0  0  0  0  0  0  0  0  0
   -5.7040   -5.4890  -25.4870 Cl  0  0  0  0  0  0  0  0  0  0  0  0
   -8.3450   -5.9840  -25.1940 C   0  0  0  0  0  0  0  0  0  0  0  0
   -9.5870   -5.7190  -24.6450 C   0  0  0  0  0  0  0  0  0  0  0  0
   -9.7610   -4.7140  -23.6950 C   0  0  0  0  0  0  0  0  0  0  0  0
  -11.1360   -4.4370  -23.1970 C   0  0  0  0  0  0  0  0  0  0  0  0
  -12.1100   -4.9470  -23.7560 O   0  0  0  0  0  0  0  0  0  0  0  0
  -10.4570   -6.2830  -24.9580 H   0  0  0  0  0  0  0  0  0  0  0  0
   -8.2100   -6.7870  -25.9140 H   0  0  0  0  0  0  0  0  0  0  0  0
   -6.5690   -3.5920  -23.5730 H   0  0  0  0  0  0  0  0  0  0  0  0
  -10.3190   -2.2100  -20.8520 H   0  0  0  0  0  0  0  0  0  0  0  0
   -9.7500   -3.8770  -20.7270 H   0  0  0  0  0  0  0  0  0  0  0  0
  -12.5140   -3.0040  -20.5460 H   0  0  0  0  0  0  0  0  0  0  0  0
  -12.9830   -4.4800  -21.3450 H   0  0  0  0  0  0  0  0  0  0  0  0
  -13.8180   -4.3190  -23.4420 H   0  0  0  0  0  0  0  0  0  0  0  0
  -14.4650   -2.9860  -25.2930 H   0  0  0  0  0  0  0  0  0  0  0  0
  -15.9680   -3.4660  -24.4260 H   0  0  0  0  0  0  0  0  0  0  0  0
  -15.2370   -1.8630  -24.1530 H   0  0  0  0  0  0  0  0  0  0  0  0
  1  2  1  0  0  0  0
  1 58  1  0  0  0  0
  1 59  1  0  0  0  0
  1 60  1  0  0  0  0
  2  3  1  0  0  0  0
  2 57  1  0  0  0  0
  3  4  2  0  0  0  0
  3  5  1  0  0  0  0
  5  6  1  0  0  0  0
  5 55  1  0  0  0  0
  5 56  1  0  0  0  0
  6  7  1  0  0  0  0
  6 48  1  0  0  0  0
  7  8  1  0  0  0  0
  7 53  1  0  0  0  0
  7 54  1  0  0  0  0
  8  9  1  1  0  0  0
  8 29  1  0  0  0  0
  8 41  1  0  0  0  0
  9 10  2  0  0  0  0
  9 11  1  0  0  0  0
 11 12  1  0  0  0  0
 11 28  1  0  0  0  0
 12 13  2  0  0  0  0
 12 21  1  0  0  0  0
 13 14  1  0  0  0  0
 13 27  1  0  0  0  0
 14 15  2  0  0  0  0
 15 16  1  0  0  0  0
 15 26  1  0  0  0  0
 16 17  2  0  0  0  0
 16 21  1  0  0  0  0
 17 18  1  0  0  0  0
 17 25  1  0  0  0  0
 18 19  2  0  0  0  0
 18 24  1  0  0  0  0
 19 20  1  0  0  0  0
 19 23  1  0  0  0  0
 20 21  2  0  0  0  0
 20 22  1  0  0  0  0
 28 29  1  0  0  0  0
 28 39  1  0  0  0  0
 28 40  1  0  0  0  0
 29 30  1  0  0  0  0
 29 38  1  6  0  0  0
 30 31  1  0  0  0  0
 30 36  1  0  0  0  0
 30 37  1  0  0  0  0
 31 32  1  0  0  0  0
 31 35  2  0  0  0  0
 32 33  2  0  0  0  0
 33 34  1  0  0  0  0
 34 35  1  0  0  0  0
 41 42  2  0  0  0  0
 41 47  1  0  0  0  0
 42 43  1  0  0  0  0
 42 52  1  0  0  0  0
 43 44  1  0  0  0  0
 43 45  2  0  0  0  0
 45 46  1  0  0  0  0
 45 51  1  0  0  0  0
 46 47  2  0  0  0  0
 46 50  1  0  0  0  0
 47 48  1  0  0  0  0
 48 49  2  0  0  0  0
M  CHG  1  34  -1
M  END
>  <MODEL>
       1

$$$$
