tmp_first_model_6_80.pdb
 OpenBabel08272519583D

 60 65  0  0  1  0  0  0  0  0999 V2000
   -8.7260   -8.1780  -25.9860 C   0  0  0  0  0  0  0  0  0  0  0  0
   -7.9710   -7.1750  -25.2500 N   0  0  0  0  0  0  0  0  0  0  0  0
   -7.2070   -7.3630  -24.1450 C   0  0  0  0  0  0  0  0  0  0  0  0
   -7.0130   -8.4380  -23.6010 O   0  0  0  0  0  0  0  0  0  0  0  0
   -6.5180   -6.1410  -23.5540 C   0  0  0  0  0  0  0  0  0  0  0  0
   -6.8990   -4.8330  -23.9880 N   0  0  0  0  0  0  0  0  0  0  0  0
   -8.0520   -4.2030  -23.3780 C   0  0  0  0  0  0  0  0  0  0  0  0
   -7.8540   -2.6860  -23.1700 C   0  0  2  0  0  0  0  0  0  0  0  0
   -6.8300   -2.4130  -22.0490 C   0  0  0  0  0  0  0  0  0  0  0  0
   -5.7320   -2.9230  -21.9170 O   0  0  0  0  0  0  0  0  0  0  0  0
   -7.3460   -1.4610  -21.2070 N   0  0  0  0  0  0  0  0  0  0  0  0
   -6.5700   -0.8560  -20.1850 C   0  0  0  0  0  0  0  0  0  0  0  0
   -6.9010   -1.0610  -18.8690 C   0  0  0  0  0  0  0  0  0  0  0  0
   -6.2170   -0.5510  -17.8180 N   0  0  0  0  0  0  0  0  0  0  0  0
   -5.1790    0.2070  -18.0850 C   0  0  0  0  0  0  0  0  0  0  0  0
   -4.7430    0.5280  -19.4030 C   0  0  0  0  0  0  0  0  0  0  0  0
   -3.6210    1.3700  -19.6280 C   0  0  0  0  0  0  0  0  0  0  0  0
   -3.2480    1.6950  -20.9040 C   0  0  0  0  0  0  0  0  0  0  0  0
   -3.9910    1.2100  -22.0030 C   0  0  0  0  0  0  0  0  0  0  0  0
   -5.0720    0.3810  -21.8150 C   0  0  0  0  0  0  0  0  0  0  0  0
   -5.4660    0.0040  -20.4970 C   0  0  0  0  0  0  0  0  0  0  0  0
   -5.6020   -0.0170  -22.6800 H   0  0  0  0  0  0  0  0  0  0  0  0
   -3.6690    1.4450  -23.0130 H   0  0  0  0  0  0  0  0  0  0  0  0
   -2.3750    2.3180  -21.0820 H   0  0  0  0  0  0  0  0  0  0  0  0
   -3.0770    1.7480  -18.7670 H   0  0  0  0  0  0  0  0  0  0  0  0
   -4.6290    0.6110  -17.2350 H   0  0  0  0  0  0  0  0  0  0  0  0
   -7.7570   -1.6840  -18.6170 H   0  0  0  0  0  0  0  0  0  0  0  0
   -8.6720   -1.0010  -21.5590 C   0  0  0  0  0  0  0  0  0  0  0  0
   -9.1520   -1.9670  -22.6630 C   0  0  2  0  0  0  0  0  0  0  0  0
  -10.2640   -2.8840  -22.1240 C   0  0  0  0  0  0  0  0  0  0  0  0
  -11.1050   -2.2800  -21.7670 H   0  0  0  0  0  0  0  0  0  0  0  0
  -10.6560   -3.5500  -22.8970 H   0  0  0  0  0  0  0  0  0  0  0  0
   -9.9180   -3.4970  -21.2850 H   0  0  0  0  0  0  0  0  0  0  0  0
   -9.5870   -1.4130  -23.5040 H   0  0  0  0  0  0  0  0  0  0  0  0
   -9.3350   -1.0530  -20.6980 H   0  0  0  0  0  0  0  0  0  0  0  0
   -8.6480    0.0480  -21.8860 H   0  0  0  0  0  0  0  0  0  0  0  0
   -7.3190   -2.0940  -24.4730 C   0  0  0  0  0  0  0  0  0  0  0  0
   -7.4700   -0.7270  -24.7500 C   0  0  0  0  0  0  0  0  0  0  0  0
   -6.9330   -0.1910  -25.9090 C   0  0  0  0  0  0  0  0  0  0  0  0
   -7.1200    1.5110  -26.2370 Cl  0  0  0  0  0  0  0  0  0  0  0  0
   -6.2310   -0.9800  -26.8200 C   0  0  0  0  0  0  0  0  0  0  0  0
   -6.0500   -2.3210  -26.5410 C   0  0  0  0  0  0  0  0  0  0  0  0
   -6.5760   -2.8720  -25.3720 C   0  0  0  0  0  0  0  0  0  0  0  0
   -6.2660   -4.3000  -25.0840 C   0  0  0  0  0  0  0  0  0  0  0  0
   -5.4950   -4.9630  -25.7680 O   0  0  0  0  0  0  0  0  0  0  0  0
   -5.4860   -2.9800  -27.1960 H   0  0  0  0  0  0  0  0  0  0  0  0
   -5.8230   -0.5310  -27.7160 H   0  0  0  0  0  0  0  0  0  0  0  0
   -7.9910   -0.0580  -24.0710 H   0  0  0  0  0  0  0  0  0  0  0  0
   -8.2060   -4.6890  -22.4160 H   0  0  0  0  0  0  0  0  0  0  0  0
   -8.9430   -4.3470  -24.0090 H   0  0  0  0  0  0  0  0  0  0  0  0
   -6.1570   -6.3020  -22.0900 C   0  0  0  0  0  0  0  0  0  0  0  0
   -5.0860   -6.3580  -23.1200 C   0  0  0  0  0  0  0  0  0  0  0  0
   -4.6570   -7.3230  -23.3700 H   0  0  0  0  0  0  0  0  0  0  0  0
   -4.4170   -5.5070  -23.2080 H   0  0  0  0  0  0  0  0  0  0  0  0
   -6.2270   -5.4040  -21.4810 H   0  0  0  0  0  0  0  0  0  0  0  0
   -6.4710   -7.2420  -21.6490 H   0  0  0  0  0  0  0  0  0  0  0  0
   -8.0630   -6.2380  -25.5960 H   0  0  0  0  0  0  0  0  0  0  0  0
   -8.0980   -8.7760  -26.6640 H   0  0  0  0  0  0  0  0  0  0  0  0
   -9.2350   -8.8810  -25.3230 H   0  0  0  0  0  0  0  0  0  0  0  0
   -9.4860   -7.6570  -26.5780 H   0  0  0  0  0  0  0  0  0  0  0  0
  1  2  1  0  0  0  0
  1 58  1  0  0  0  0
  1 59  1  0  0  0  0
  1 60  1  0  0  0  0
  2  3  1  0  0  0  0
  2 57  1  0  0  0  0
  3  4  2  0  0  0  0
  3  5  1  0  0  0  0
  5  6  1  0  0  0  0
  5 51  1  0  0  0  0
  5 52  1  0  0  0  0
  6  7  1  0  0  0  0
  6 44  1  0  0  0  0
  7  8  1  0  0  0  0
  7 49  1  0  0  0  0
  7 50  1  0  0  0  0
  8  9  1  1  0  0  0
  8 29  1  0  0  0  0
  8 37  1  0  0  0  0
  9 10  2  0  0  0  0
  9 11  1  0  0  0  0
 11 12  1  0  0  0  0
 11 28  1  0  0  0  0
 12 13  2  0  0  0  0
 12 21  1  0  0  0  0
 13 14  1  0  0  0  0
 13 27  1  0  0  0  0
 14 15  2  0  0  0  0
 15 16  1  0  0  0  0
 15 26  1  0  0  0  0
 16 17  2  0  0  0  0
 16 21  1  0  0  0  0
 17 18  1  0  0  0  0
 17 25  1  0  0  0  0
 18 19  2  0  0  0  0
 18 24  1  0  0  0  0
 19 20  1  0  0  0  0
 19 23  1  0  0  0  0
 20 21  2  0  0  0  0
 20 22  1  0  0  0  0
 28 29  1  0  0  0  0
 28 35  1  0  0  0  0
 28 36  1  0  0  0  0
 29 30  1  0  0  0  0
 29 34  1  6  0  0  0
 30 31  1  0  0  0  0
 30 32  1  0  0  0  0
 30 33  1  0  0  0  0
 37 38  2  0  0  0  0
 37 43  1  0  0  0  0
 38 39  1  0  0  0  0
 38 48  1  0  0  0  0
 39 40  1  0  0  0  0
 39 41  2  0  0  0  0
 41 42  1  0  0  0  0
 41 47  1  0  0  0  0
 42 43  2  0  0  0  0
 42 46  1  0  0  0  0
 43 44  1  0  0  0  0
 44 45  2  0  0  0  0
 51 52  1  0  0  0  0
 51 55  1  0  0  0  0
 51 56  1  0  0  0  0
 52 53  1  0  0  0  0
 52 54  1  0  0  0  0
M  END
>  <MODEL>
       1

$$$$
