tmp_first_model_4_61.pdb
 OpenBabel08272518513D

 44 47  0  0  0  0  0  0  0  0999 V2000
   -8.9500    0.4320  -21.0920 O   0  0  0  0  0  0  0  0  0  0  0  0
   -8.3240   -0.2920  -21.8470 C   0  0  0  0  0  0  0  0  0  0  0  0
   -7.4620   -1.4400  -21.3010 C   0  0  0  0  0  0  0  0  0  0  0  0
   -6.4890   -1.0120  -20.2220 C   0  0  0  0  0  0  0  0  0  0  0  0
   -6.7380   -1.2720  -18.9030 C   0  0  0  0  0  0  0  0  0  0  0  0
   -5.9130   -0.9840  -17.8610 N   0  0  0  0  0  0  0  0  0  0  0  0
   -4.7880   -0.3830  -18.1540 C   0  0  0  0  0  0  0  0  0  0  0  0
   -4.4290    0.0300  -19.4660 C   0  0  0  0  0  0  0  0  0  0  0  0
   -3.2740    0.8180  -19.7140 C   0  0  0  0  0  0  0  0  0  0  0  0
   -3.0420    1.3430  -20.9570 C   0  0  0  0  0  0  0  0  0  0  0  0
   -3.9000    1.0070  -22.0240 C   0  0  0  0  0  0  0  0  0  0  0  0
   -4.9900    0.2010  -21.8320 C   0  0  0  0  0  0  0  0  0  0  0  0
   -5.2980   -0.2930  -20.5350 C   0  0  0  0  0  0  0  0  0  0  0  0
   -5.6600   -0.0270  -22.6600 H   0  0  0  0  0  0  0  0  0  0  0  0
   -3.7270    1.4430  -23.0060 H   0  0  0  0  0  0  0  0  0  0  0  0
   -2.2280    2.0420  -21.1190 H   0  0  0  0  0  0  0  0  0  0  0  0
   -2.6130    1.0370  -18.8800 H   0  0  0  0  0  0  0  0  0  0  0  0
   -4.1120   -0.1470  -17.3300 H   0  0  0  0  0  0  0  0  0  0  0  0
   -7.6810   -1.7400  -18.6290 H   0  0  0  0  0  0  0  0  0  0  0  0
   -6.9170   -1.9050  -22.1280 H   0  0  0  0  0  0  0  0  0  0  0  0
   -8.1650   -2.1760  -20.8890 H   0  0  0  0  0  0  0  0  0  0  0  0
   -8.3560   -0.1160  -23.2190 N   0  0  0  0  0  0  0  0  0  0  0  0
   -8.0640   -1.1520  -24.2040 C   0  0  0  0  0  0  0  0  0  0  0  0
   -8.9460   -0.9820  -25.4410 C   0  0  0  0  0  0  0  0  0  0  0  0
   -8.8380    0.4210  -26.0310 C   0  0  0  0  0  0  0  0  0  0  0  0
   -9.6490    0.6280  -27.3300 C   0  0  0  0  0  0  0  0  0  0  0  0
   -8.3550    0.8990  -28.1240 C   0  0  0  0  0  0  0  0  0  0  0  0
   -7.5380    0.6980  -26.8310 C   0  0  0  0  0  0  0  0  0  0  0  0
   -6.9910    1.5830  -26.4980 H   0  0  0  0  0  0  0  0  0  0  0  0
   -6.8500   -0.1500  -26.8590 H   0  0  0  0  0  0  0  0  0  0  0  0
   -8.1440    0.1700  -28.9090 H   0  0  0  0  0  0  0  0  0  0  0  0
   -8.2900    1.9040  -28.5490 H   0  0  0  0  0  0  0  0  0  0  0  0
  -10.2150   -0.2470  -27.6570 H   0  0  0  0  0  0  0  0  0  0  0  0
  -10.3270    1.4820  -27.2820 H   0  0  0  0  0  0  0  0  0  0  0  0
   -9.1640    1.4450  -24.9470 C   0  0  0  0  0  0  0  0  0  0  0  0
   -8.3020    1.2570  -23.7110 C   0  0  0  0  0  0  0  0  0  0  0  0
   -7.2580    1.5400  -23.9350 H   0  0  0  0  0  0  0  0  0  0  0  0
   -8.6410    1.8950  -22.8920 H   0  0  0  0  0  0  0  0  0  0  0  0
   -9.0420    2.4660  -25.3290 H   0  0  0  0  0  0  0  0  0  0  0  0
  -10.2210    1.3420  -24.6770 H   0  0  0  0  0  0  0  0  0  0  0  0
   -8.6900   -1.7390  -26.1920 H   0  0  0  0  0  0  0  0  0  0  0  0
   -9.9900   -1.1650  -25.1670 H   0  0  0  0  0  0  0  0  0  0  0  0
   -7.0030   -1.1290  -24.5050 H   0  0  0  0  0  0  0  0  0  0  0  0
   -8.2510   -2.1310  -23.7560 H   0  0  0  0  0  0  0  0  0  0  0  0
  1  2  2  0  0  0  0
  2  3  1  0  0  0  0
  2 22  1  0  0  0  0
  3  4  1  0  0  0  0
  3 20  1  0  0  0  0
  3 21  1  0  0  0  0
  4  5  2  0  0  0  0
  4 13  1  0  0  0  0
  5  6  1  0  0  0  0
  5 19  1  0  0  0  0
  6  7  2  0  0  0  0
  7  8  1  0  0  0  0
  7 18  1  0  0  0  0
  8  9  2  0  0  0  0
  8 13  1  0  0  0  0
  9 10  1  0  0  0  0
  9 17  1  0  0  0  0
 10 11  2  0  0  0  0
 10 16  1  0  0  0  0
 11 12  1  0  0  0  0
 11 15  1  0  0  0  0
 12 13  2  0  0  0  0
 12 14  1  0  0  0  0
 22 23  1  0  0  0  0
 22 36  1  0  0  0  0
 23 24  1  0  0  0  0
 23 43  1  0  0  0  0
 23 44  1  0  0  0  0
 24 25  1  0  0  0  0
 24 41  1  0  0  0  0
 24 42  1  0  0  0  0
 25 26  1  0  0  0  0
 25 28  1  0  0  0  0
 25 35  1  0  0  0  0
 26 27  1  0  0  0  0
 26 33  1  0  0  0  0
 26 34  1  0  0  0  0
 27 28  1  0  0  0  0
 27 31  1  0  0  0  0
 27 32  1  0  0  0  0
 28 29  1  0  0  0  0
 28 30  1  0  0  0  0
 35 36  1  0  0  0  0
 35 39  1  0  0  0  0
 35 40  1  0  0  0  0
 36 37  1  0  0  0  0
 36 38  1  0  0  0  0
M  END
>  <MODEL>
       1

$$$$
