tmp_first_model_11_70.pdb
 OpenBabel08272522543D

 52 54  0  0  0  0  0  0  0  0999 V2000
   -8.7870    3.4210  -28.0360 C   0  0  0  0  0  0  0  0  0  0  0  0
   -8.8530    1.9890  -27.7980 C   0  0  0  0  0  0  0  0  0  0  0  0
   -8.8000    1.8230  -28.0180 C   0  0  0  0  0  0  0  0  0  0  0  0
   -8.5060    1.4220  -29.5260 H   0  0  0  0  0  0  0  0  0  0  0  0
  -10.1450    1.9690  -28.2060 H   0  0  0  0  0  0  0  0  0  0  0  0
   -8.9030    0.4510  -28.8040 H   0  0  0  0  0  0  0  0  0  0  0  0
   -7.5000    1.5760  -27.2310 C   0  0  0  0  0  0  0  0  0  0  0  0
   -7.3650    0.9740  -25.8180 C   0  0  0  0  0  0  0  0  0  0  0  0
   -5.8480    0.7540  -25.6320 C   0  0  0  0  0  0  0  0  0  0  0  0
   -5.5000   -0.0420  -26.3020 H   0  0  0  0  0  0  0  0  0  0  0  0
   -5.5680    0.4750  -24.6080 H   0  0  0  0  0  0  0  0  0  0  0  0
   -5.2940    1.6670  -25.8770 H   0  0  0  0  0  0  0  0  0  0  0  0
   -8.0720   -0.3860  -25.6040 C   0  0  0  0  0  0  0  0  0  0  0  0
   -7.8080   -0.9220  -24.1890 C   0  0  0  0  0  0  0  0  0  0  0  0
   -8.1340    0.1010  -23.1900 N   0  0  0  0  0  0  0  0  0  0  0  0
   -8.2920   -0.1860  -21.8540 C   0  0  0  0  0  0  0  0  0  0  0  0
   -9.0180    0.4770  -21.1270 O   0  0  0  0  0  0  0  0  0  0  0  0
   -7.5050   -1.3550  -21.2560 C   0  0  0  0  0  0  0  0  0  0  0  0
   -6.6180   -0.8710  -20.1370 C   0  0  0  0  0  0  0  0  0  0  0  0
   -6.9340   -1.0990  -18.8250 C   0  0  0  0  0  0  0  0  0  0  0  0
   -6.2460   -0.6170  -17.7550 N   0  0  0  0  0  0  0  0  0  0  0  0
   -5.2030    0.1350  -18.0130 C   0  0  0  0  0  0  0  0  0  0  0  0
   -4.7510    0.4510  -19.3230 C   0  0  0  0  0  0  0  0  0  0  0  0
   -3.6290    1.2860  -19.5580 C   0  0  0  0  0  0  0  0  0  0  0  0
   -3.2220    1.5620  -20.8350 C   0  0  0  0  0  0  0  0  0  0  0  0
   -3.9120    1.0050  -21.9350 C   0  0  0  0  0  0  0  0  0  0  0  0
   -5.0030    0.1970  -21.7320 C   0  0  0  0  0  0  0  0  0  0  0  0
   -5.4640   -0.0830  -20.4180 C   0  0  0  0  0  0  0  0  0  0  0  0
   -5.5280   -0.2300  -22.5790 H   0  0  0  0  0  0  0  0  0  0  0  0
   -3.5710    1.2270  -22.9430 H   0  0  0  0  0  0  0  0  0  0  0  0
   -2.3710    2.2140  -21.0110 H   0  0  0  0  0  0  0  0  0  0  0  0
   -3.1130    1.7130  -18.7020 H   0  0  0  0  0  0  0  0  0  0  0  0
   -4.6520    0.5320  -17.1580 H   0  0  0  0  0  0  0  0  0  0  0  0
   -7.7970   -1.7160  -18.5750 H   0  0  0  0  0  0  0  0  0  0  0  0
   -6.9270   -1.8870  -22.0160 H   0  0  0  0  0  0  0  0  0  0  0  0
   -8.2460   -2.0510  -20.8470 H   0  0  0  0  0  0  0  0  0  0  0  0
   -8.7590    1.3300  -23.6800 C   0  0  0  0  0  0  0  0  0  0  0  0
   -7.9090    1.9860  -24.7750 C   0  0  0  0  0  0  0  0  0  0  0  0
   -7.0680    2.5080  -24.2990 H   0  0  0  0  0  0  0  0  0  0  0  0
   -8.5080    2.7510  -25.2890 H   0  0  0  0  0  0  0  0  0  0  0  0
   -8.8790    1.9890  -22.8200 H   0  0  0  0  0  0  0  0  0  0  0  0
   -9.7690    1.1090  -24.0530 H   0  0  0  0  0  0  0  0  0  0  0  0
   -6.7560   -1.2270  -24.1030 H   0  0  0  0  0  0  0  0  0  0  0  0
   -8.4110   -1.8220  -24.0140 H   0  0  0  0  0  0  0  0  0  0  0  0
   -7.7360   -1.1350  -26.3350 H   0  0  0  0  0  0  0  0  0  0  0  0
   -9.1550   -0.2760  -25.7300 H   0  0  0  0  0  0  0  0  0  0  0  0
   -6.7310    2.3970  -27.2080 H   0  0  0  0  0  0  0  0  0  0  0  0
   -7.0960    0.8470  -27.9700 H   0  0  0  0  0  0  0  0  0  0  0  0
   -9.4500    1.8430  -26.6860 H   0  0  0  0  0  0  0  0  0  0  0  0
   -9.5080    3.8900  -27.3300 H   0  0  0  0  0  0  0  0  0  0  0  0
   -7.8650    3.9870  -27.6950 H   0  0  0  0  0  0  0  0  0  0  0  0
   -9.0430    3.9110  -29.0130 H   0  0  0  0  0  0  0  0  0  0  0  0
  1  2  1  0  0  0  0
  1 50  1  0  0  0  0
  1 51  1  0  0  0  0
  1 52  1  0  0  0  0
  2  3  1  0  0  0  0
  2  7  1  0  0  0  0
  2 49  1  0  0  0  0
  3  4  1  0  0  0  0
  3  5  1  0  0  0  0
  3  6  1  0  0  0  0
  7  8  1  0  0  0  0
  7 47  1  0  0  0  0
  7 48  1  0  0  0  0
  8  9  1  0  0  0  0
  8 13  1  0  0  0  0
  8 38  1  0  0  0  0
  9 10  1  0  0  0  0
  9 11  1  0  0  0  0
  9 12  1  0  0  0  0
 13 14  1  0  0  0  0
 13 45  1  0  0  0  0
 13 46  1  0  0  0  0
 14 15  1  0  0  0  0
 14 43  1  0  0  0  0
 14 44  1  0  0  0  0
 15 16  1  0  0  0  0
 15 37  1  0  0  0  0
 16 17  2  0  0  0  0
 16 18  1  0  0  0  0
 18 19  1  0  0  0  0
 18 35  1  0  0  0  0
 18 36  1  0  0  0  0
 19 20  2  0  0  0  0
 19 28  1  0  0  0  0
 20 21  1  0  0  0  0
 20 34  1  0  0  0  0
 21 22  2  0  0  0  0
 22 23  1  0  0  0  0
 22 33  1  0  0  0  0
 23 24  2  0  0  0  0
 23 28  1  0  0  0  0
 24 25  1  0  0  0  0
 24 32  1  0  0  0  0
 25 26  2  0  0  0  0
 25 31  1  0  0  0  0
 26 27  1  0  0  0  0
 26 30  1  0  0  0  0
 27 28  2  0  0  0  0
 27 29  1  0  0  0  0
 37 38  1  0  0  0  0
 37 41  1  0  0  0  0
 37 42  1  0  0  0  0
 38 39  1  0  0  0  0
 38 40  1  0  0  0  0
M  END
>  <MODEL>
       1

$$$$
