tmp_first_model_9_95.pdb
 OpenBabel08272521403D

 66 71  0  0  1  0  0  0  0  0999 V2000
  -14.3510   -1.4900  -23.6810 C   0  0  0  0  0  0  0  0  0  0  0  0
  -13.5850   -2.6760  -23.3480 N   0  0  0  0  0  0  0  0  0  0  0  0
  -13.2540   -2.9580  -22.0610 C   0  0  0  0  0  0  0  0  0  0  0  0
  -13.7460   -2.3650  -21.1120 O   0  0  0  0  0  0  0  0  0  0  0  0
  -12.2600   -4.1050  -21.8640 C   0  0  0  0  0  0  0  0  0  0  0  0
  -10.9470   -3.9700  -22.4680 N   0  0  0  0  0  0  0  0  0  0  0  0
   -9.8260   -3.5150  -21.6650 C   0  0  0  0  0  0  0  0  0  0  0  0
   -8.6620   -2.9240  -22.5000 C   0  0  2  0  0  0  0  0  0  0  0  0
   -7.5050   -2.6950  -21.5210 C   0  0  0  0  0  0  0  0  0  0  0  0
   -6.7790   -3.5470  -21.0460 O   0  0  0  0  0  0  0  0  0  0  0  0
   -7.4220   -1.3460  -21.2430 N   0  0  0  0  0  0  0  0  0  0  0  0
   -6.5980   -0.8500  -20.2040 C   0  0  0  0  0  0  0  0  0  0  0  0
   -6.8890   -1.1250  -18.8930 C   0  0  0  0  0  0  0  0  0  0  0  0
   -6.2210   -0.5900  -17.8410 N   0  0  0  0  0  0  0  0  0  0  0  0
   -5.2200    0.2160  -18.0940 C   0  0  0  0  0  0  0  0  0  0  0  0
   -4.7760    0.5410  -19.4070 C   0  0  0  0  0  0  0  0  0  0  0  0
   -3.6490    1.3720  -19.6370 C   0  0  0  0  0  0  0  0  0  0  0  0
   -3.2430    1.6400  -20.9170 C   0  0  0  0  0  0  0  0  0  0  0  0
   -3.9400    1.0920  -22.0160 C   0  0  0  0  0  0  0  0  0  0  0  0
   -5.0310    0.2820  -21.8180 C   0  0  0  0  0  0  0  0  0  0  0  0
   -5.4800   -0.0060  -20.5020 C   0  0  0  0  0  0  0  0  0  0  0  0
   -5.5480   -0.1640  -22.6620 H   0  0  0  0  0  0  0  0  0  0  0  0
   -3.6060    1.3020  -23.0280 H   0  0  0  0  0  0  0  0  0  0  0  0
   -2.3800    2.2750  -21.0970 H   0  0  0  0  0  0  0  0  0  0  0  0
   -3.1240    1.7840  -18.7800 H   0  0  0  0  0  0  0  0  0  0  0  0
   -4.6950    0.6470  -17.2400 H   0  0  0  0  0  0  0  0  0  0  0  0
   -7.7100   -1.7930  -18.6400 H   0  0  0  0  0  0  0  0  0  0  0  0
   -8.4210   -0.5330  -21.9260 C   0  0  0  0  0  0  0  0  0  0  0  0
   -8.9040   -1.4740  -23.0400 C   0  0  2  0  0  0  0  0  0  0  0  0
  -10.3380   -1.2160  -23.5050 C   0  0  0  0  0  0  0  0  0  0  0  0
  -10.5280   -0.0000  -24.2540 N   0  0  0  0  0  0  0  0  0  0  0  0
  -11.0410    1.1220  -23.6980 C   0  0  0  0  0  0  0  0  0  0  0  0
  -11.0650    2.3290  -24.4240 C   0  0  0  0  0  0  0  0  0  0  0  0
  -11.5560    3.4180  -23.7470 C   0  0  0  0  0  0  0  0  0  0  0  0
  -12.0340    3.3680  -22.4920 N   0  0  0  0  0  0  0  0  0  0  0  0
  -11.9920    2.1750  -21.9260 C   0  0  0  0  0  0  0  0  0  0  0  0
  -11.5290    1.0390  -22.4530 N   0  0  0  0  0  0  0  0  0  0  0  0
  -12.3770    2.1170  -20.9080 H   0  0  0  0  0  0  0  0  0  0  0  0
  -11.5630    4.3920  -24.2280 H   0  0  0  0  0  0  0  0  0  0  0  0
  -10.7070    2.3660  -25.4520 H   0  0  0  0  0  0  0  0  0  0  0  0
  -10.1000    0.0720  -25.1620 H   0  0  0  0  0  0  0  0  0  0  0  0
  -10.6720   -2.0640  -24.1090 H   0  0  0  0  0  0  0  0  0  0  0  0
  -10.9770   -1.1270  -22.6270 H   0  0  0  0  0  0  0  0  0  0  0  0
   -8.2210   -1.3630  -23.8920 H   0  0  0  0  0  0  0  0  0  0  0  0
   -7.9790    0.3970  -22.3010 H   0  0  0  0  0  0  0  0  0  0  0  0
   -9.2410   -0.2380  -21.2540 H   0  0  0  0  0  0  0  0  0  0  0  0
   -8.3290   -3.9340  -23.5750 C   0  0  0  0  0  0  0  0  0  0  0  0
   -7.0270   -4.0750  -24.0730 C   0  0  0  0  0  0  0  0  0  0  0  0
   -6.7540   -5.0440  -25.0230 C   0  0  0  0  0  0  0  0  0  0  0  0
   -5.1360   -5.1970  -25.6600 Cl  0  0  0  0  0  0  0  0  0  0  0  0
   -7.7380   -5.9370  -25.4440 C   0  0  0  0  0  0  0  0  0  0  0  0
   -9.0360   -5.7700  -24.9940 C   0  0  0  0  0  0  0  0  0  0  0  0
   -9.3420   -4.7470  -24.1000 C   0  0  0  0  0  0  0  0  0  0  0  0
  -10.7650   -4.5430  -23.6900 C   0  0  0  0  0  0  0  0  0  0  0  0
  -11.7260   -4.8490  -24.3950 O   0  0  0  0  0  0  0  0  0  0  0  0
   -9.8350   -6.4340  -25.3140 H   0  0  0  0  0  0  0  0  0  0  0  0
   -7.4820   -6.7590  -26.1060 H   0  0  0  0  0  0  0  0  0  0  0  0
   -6.2150   -3.4810  -23.6680 H   0  0  0  0  0  0  0  0  0  0  0  0
  -10.1700   -2.7580  -20.9550 H   0  0  0  0  0  0  0  0  0  0  0  0
   -9.4120   -4.3560  -21.1010 H   0  0  0  0  0  0  0  0  0  0  0  0
  -12.1600   -4.2690  -20.7900 H   0  0  0  0  0  0  0  0  0  0  0  0
  -12.7080   -4.9680  -22.3390 H   0  0  0  0  0  0  0  0  0  0  0  0
  -13.1690   -3.2120  -24.0970 H   0  0  0  0  0  0  0  0  0  0  0  0
  -13.7600   -0.5730  -23.5480 H   0  0  0  0  0  0  0  0  0  0  0  0
  -15.2220   -1.4000  -23.0310 H   0  0  0  0  0  0  0  0  0  0  0  0
  -14.6930   -1.5740  -24.7170 H   0  0  0  0  0  0  0  0  0  0  0  0
  1  2  1  0  0  0  0
  1 64  1  0  0  0  0
  1 65  1  0  0  0  0
  1 66  1  0  0  0  0
  2  3  1  0  0  0  0
  2 63  1  0  0  0  0
  3  4  2  0  0  0  0
  3  5  1  0  0  0  0
  5  6  1  0  0  0  0
  5 61  1  0  0  0  0
  5 62  1  0  0  0  0
  6  7  1  0  0  0  0
  6 54  1  0  0  0  0
  7  8  1  0  0  0  0
  7 59  1  0  0  0  0
  7 60  1  0  0  0  0
  8  9  1  1  0  0  0
  8 29  1  0  0  0  0
  8 47  1  0  0  0  0
  9 10  2  0  0  0  0
  9 11  1  0  0  0  0
 11 12  1  0  0  0  0
 11 28  1  0  0  0  0
 12 13  2  0  0  0  0
 12 21  1  0  0  0  0
 13 14  1  0  0  0  0
 13 27  1  0  0  0  0
 14 15  2  0  0  0  0
 15 16  1  0  0  0  0
 15 26  1  0  0  0  0
 16 17  2  0  0  0  0
 16 21  1  0  0  0  0
 17 18  1  0  0  0  0
 17 25  1  0  0  0  0
 18 19  2  0  0  0  0
 18 24  1  0  0  0  0
 19 20  1  0  0  0  0
 19 23  1  0  0  0  0
 20 21  2  0  0  0  0
 20 22  1  0  0  0  0
 28 29  1  0  0  0  0
 28 45  1  0  0  0  0
 28 46  1  0  0  0  0
 29 30  1  0  0  0  0
 29 44  1  6  0  0  0
 30 31  1  0  0  0  0
 30 42  1  0  0  0  0
 30 43  1  0  0  0  0
 31 32  1  0  0  0  0
 31 41  1  0  0  0  0
 32 33  2  0  0  0  0
 32 37  1  0  0  0  0
 33 34  1  0  0  0  0
 33 40  1  0  0  0  0
 34 35  2  0  0  0  0
 34 39  1  0  0  0  0
 35 36  1  0  0  0  0
 36 37  2  0  0  0  0
 36 38  1  0  0  0  0
 47 48  2  0  0  0  0
 47 53  1  0  0  0  0
 48 49  1  0  0  0  0
 48 58  1  0  0  0  0
 49 50  1  0  0  0  0
 49 51  2  0  0  0  0
 51 52  1  0  0  0  0
 51 57  1  0  0  0  0
 52 53  2  0  0  0  0
 52 56  1  0  0  0  0
 53 54  1  0  0  0  0
 54 55  2  0  0  0  0
M  END
>  <MODEL>
       1

$$$$
