tmp_first_model_3_58.pdb
 OpenBabel08272518143D

 42 45  0  0  1  0  0  0  0  0999 V2000
  -12.0400   -4.0830  -22.6730 C   0  0  0  0  0  0  0  0  0  0  0  0
  -10.6450   -4.4080  -22.8310 N   0  0  0  0  0  0  0  0  0  0  0  0
   -9.7550   -4.0080  -21.7790 C   0  0  0  0  0  0  0  0  0  0  0  0
   -8.6210   -3.1650  -22.3610 C   0  0  1  0  0  0  0  0  0  0  0  0
   -7.7130   -2.7610  -21.2120 C   0  0  0  0  0  0  0  0  0  0  0  0
   -7.3660   -3.5410  -20.3460 O   0  0  0  0  0  0  0  0  0  0  0  0
   -7.3130   -1.4440  -21.2170 N   0  0  0  0  0  0  0  0  0  0  0  0
   -6.5630   -0.8650  -20.1750 C   0  0  0  0  0  0  0  0  0  0  0  0
   -6.8960   -1.0790  -18.8590 C   0  0  0  0  0  0  0  0  0  0  0  0
   -6.2340   -0.5390  -17.8080 N   0  0  0  0  0  0  0  0  0  0  0  0
   -5.1960    0.2160  -18.0810 C   0  0  0  0  0  0  0  0  0  0  0  0
   -4.7420    0.5130  -19.3950 C   0  0  0  0  0  0  0  0  0  0  0  0
   -3.6150    1.3390  -19.6320 C   0  0  0  0  0  0  0  0  0  0  0  0
   -3.2110    1.6080  -20.9110 C   0  0  0  0  0  0  0  0  0  0  0  0
   -3.9150    1.0680  -22.0100 C   0  0  0  0  0  0  0  0  0  0  0  0
   -5.0120    0.2670  -21.8090 C   0  0  0  0  0  0  0  0  0  0  0  0
   -5.4470   -0.0290  -20.4900 C   0  0  0  0  0  0  0  0  0  0  0  0
   -5.5480   -0.1380  -22.6640 H   0  0  0  0  0  0  0  0  0  0  0  0
   -3.5890    1.3000  -23.0200 H   0  0  0  0  0  0  0  0  0  0  0  0
   -2.3520    2.2490  -21.0870 H   0  0  0  0  0  0  0  0  0  0  0  0
   -3.1000    1.7580  -18.7740 H   0  0  0  0  0  0  0  0  0  0  0  0
   -4.6540    0.6350  -17.2350 H   0  0  0  0  0  0  0  0  0  0  0  0
   -7.7510   -1.7050  -18.6130 H   0  0  0  0  0  0  0  0  0  0  0  0
   -7.6600   -0.8360  -21.9490 H   0  0  0  0  0  0  0  0  0  0  0  0
   -7.9310   -3.9660  -23.4430 C   0  0  0  0  0  0  0  0  0  0  0  0
   -6.5830   -3.7840  -23.7560 C   0  0  0  0  0  0  0  0  0  0  0  0
   -6.0150   -4.5400  -24.7720 C   0  0  0  0  0  0  0  0  0  0  0  0
   -4.3540   -4.2940  -25.2110 Cl  0  0  0  0  0  0  0  0  0  0  0  0
   -6.7490   -5.4930  -25.4750 C   0  0  0  0  0  0  0  0  0  0  0  0
   -8.0860   -5.6720  -25.1560 C   0  0  0  0  0  0  0  0  0  0  0  0
   -8.6810   -4.9070  -24.1530 C   0  0  0  0  0  0  0  0  0  0  0  0
  -10.1530   -5.0940  -23.9040 C   0  0  0  0  0  0  0  0  0  0  0  0
  -10.8230   -5.8150  -24.6280 O   0  0  0  0  0  0  0  0  0  0  0  0
   -8.6860   -6.4120  -25.6760 H   0  0  0  0  0  0  0  0  0  0  0  0
   -6.2660   -6.0690  -26.2590 H   0  0  0  0  0  0  0  0  0  0  0  0
   -5.9860   -3.0640  -23.2040 H   0  0  0  0  0  0  0  0  0  0  0  0
   -9.0370   -2.2490  -22.8090 H   0  0  0  0  0  0  0  0  0  0  0  0
  -10.3250   -3.4060  -21.0750 H   0  0  0  0  0  0  0  0  0  0  0  0
   -9.3220   -4.8710  -21.2440 H   0  0  0  0  0  0  0  0  0  0  0  0
  -12.2680   -4.1060  -21.6050 H   0  0  0  0  0  0  0  0  0  0  0  0
  -12.6420   -4.8480  -23.1560 H   0  0  0  0  0  0  0  0  0  0  0  0
  -12.2500   -3.0770  -23.0670 H   0  0  0  0  0  0  0  0  0  0  0  0
  1  2  1  0  0  0  0
  1 40  1  0  0  0  0
  1 41  1  0  0  0  0
  1 42  1  0  0  0  0
  2  3  1  0  0  0  0
  2 32  1  0  0  0  0
  3  4  1  0  0  0  0
  3 38  1  0  0  0  0
  3 39  1  0  0  0  0
  4  5  1  0  0  0  0
  4 25  1  0  0  0  0
  4 37  1  6  0  0  0
  5  6  2  0  0  0  0
  5  7  1  0  0  0  0
  7  8  1  0  0  0  0
  7 24  1  0  0  0  0
  8  9  2  0  0  0  0
  8 17  1  0  0  0  0
  9 10  1  0  0  0  0
  9 23  1  0  0  0  0
 10 11  2  0  0  0  0
 11 12  1  0  0  0  0
 11 22  1  0  0  0  0
 12 13  2  0  0  0  0
 12 17  1  0  0  0  0
 13 14  1  0  0  0  0
 13 21  1  0  0  0  0
 14 15  2  0  0  0  0
 14 20  1  0  0  0  0
 15 16  1  0  0  0  0
 15 19  1  0  0  0  0
 16 17  2  0  0  0  0
 16 18  1  0  0  0  0
 25 26  2  0  0  0  0
 25 31  1  0  0  0  0
 26 27  1  0  0  0  0
 26 36  1  0  0  0  0
 27 28  1  0  0  0  0
 27 29  2  0  0  0  0
 29 30  1  0  0  0  0
 29 35  1  0  0  0  0
 30 31  2  0  0  0  0
 30 34  1  0  0  0  0
 31 32  1  0  0  0  0
 32 33  2  0  0  0  0
M  END
>  <MODEL>
       1

$$$$
