tmp_first_model_4_41.pdb
 OpenBabel08272518513D

 67 71  0  0  1  0  0  0  0  0999 V2000
   -7.5790    3.0010  -22.0150 C   0  0  0  0  0  0  0  0  0  0  0  0
   -8.7340    2.4870  -22.7470 N   0  0  0  0  0  0  0  0  0  0  0  0
   -8.4910    1.6930  -23.8330 C   0  0  0  0  0  0  0  0  0  0  0  0
   -7.3540    1.4280  -24.2030 O   0  0  0  0  0  0  0  0  0  0  0  0
   -9.7100    1.1270  -24.5740 C   0  0  0  0  0  0  0  0  0  0  0  0
  -10.1530   -0.0970  -23.9370 N   0  0  0  0  0  0  0  0  0  0  0  0
   -9.2550   -1.2420  -23.9040 C   0  0  0  0  0  0  0  0  0  0  0  0
   -9.3190   -1.9750  -22.5350 C   0  0  2  0  0  0  0  0  0  0  0  0
   -8.6880   -1.0410  -21.4530 C   0  0  0  0  0  0  0  0  0  0  0  0
   -9.1980   -0.0670  -20.9350 O   0  0  0  0  0  0  0  0  0  0  0  0
   -7.3990   -1.4740  -21.2140 N   0  0  0  0  0  0  0  0  0  0  0  0
   -6.5590   -0.9640  -20.1940 C   0  0  0  0  0  0  0  0  0  0  0  0
   -6.7740   -1.3030  -18.8790 C   0  0  0  0  0  0  0  0  0  0  0  0
   -5.8720   -1.0900  -17.8910 N   0  0  0  0  0  0  0  0  0  0  0  0
   -4.7490   -0.4970  -18.2070 C   0  0  0  0  0  0  0  0  0  0  0  0
   -4.4340   -0.0330  -19.5140 C   0  0  0  0  0  0  0  0  0  0  0  0
   -3.2450    0.6900  -19.7870 C   0  0  0  0  0  0  0  0  0  0  0  0
   -3.0300    1.2280  -21.0230 C   0  0  0  0  0  0  0  0  0  0  0  0
   -3.9660    1.0270  -22.0620 C   0  0  0  0  0  0  0  0  0  0  0  0
   -5.0930    0.2670  -21.8410 C   0  0  0  0  0  0  0  0  0  0  0  0
   -5.3760   -0.2410  -20.5430 C   0  0  0  0  0  0  0  0  0  0  0  0
   -5.8020    0.0980  -22.6490 H   0  0  0  0  0  0  0  0  0  0  0  0
   -3.7990    1.4660  -23.0420 H   0  0  0  0  0  0  0  0  0  0  0  0
   -2.1510    1.8400  -21.2090 H   0  0  0  0  0  0  0  0  0  0  0  0
   -2.5610    0.8700  -18.9630 H   0  0  0  0  0  0  0  0  0  0  0  0
   -4.0200   -0.3370  -17.4110 H   0  0  0  0  0  0  0  0  0  0  0  0
   -7.6930   -1.8030  -18.5790 H   0  0  0  0  0  0  0  0  0  0  0  0
   -6.9940   -2.6130  -22.0090 C   0  0  0  0  0  0  0  0  0  0  0  0
   -8.3430   -3.1850  -22.4720 C   0  0  2  0  0  0  0  0  0  0  0  0
   -8.2380   -3.9870  -23.7610 C   0  0  0  0  0  0  0  0  0  0  0  0
   -7.2780   -5.4760  -23.5370 S   0  0  0  0  0  0  0  0  0  0  0  0
   -5.8820   -5.1070  -23.3840 O   0  0  0  0  0  0  0  0  0  0  0  0
   -7.9510   -6.3010  -22.5380 O   0  0  0  0  0  0  0  0  0  0  0  0
   -7.4290   -6.2410  -24.9990 N   0  0  0  0  0  0  0  0  0  0  0  0
   -8.6910   -6.9090  -25.2670 C   0  0  0  0  0  0  0  0  0  0  0  0
   -9.5210   -6.2260  -25.5020 H   0  0  0  0  0  0  0  0  0  0  0  0
   -8.5470   -7.5740  -26.1200 H   0  0  0  0  0  0  0  0  0  0  0  0
   -8.9590   -7.5060  -24.3950 H   0  0  0  0  0  0  0  0  0  0  0  0
   -6.7450   -5.6470  -26.1380 C   0  0  0  0  0  0  0  0  0  0  0  0
   -7.2780   -4.7910  -26.5790 H   0  0  0  0  0  0  0  0  0  0  0  0
   -6.6350   -6.4160  -26.9070 H   0  0  0  0  0  0  0  0  0  0  0  0
   -5.7500   -5.3240  -25.8310 H   0  0  0  0  0  0  0  0  0  0  0  0
   -9.2320   -4.2820  -24.1060 H   0  0  0  0  0  0  0  0  0  0  0  0
   -7.7340   -3.4020  -24.5390 H   0  0  0  0  0  0  0  0  0  0  0  0
   -8.6780   -3.8460  -21.6670 H   0  0  0  0  0  0  0  0  0  0  0  0
   -6.3620   -2.3050  -22.8550 H   0  0  0  0  0  0  0  0  0  0  0  0
   -6.4070   -3.3260  -21.4220 H   0  0  0  0  0  0  0  0  0  0  0  0
  -10.7940   -2.2920  -22.2840 C   0  0  0  0  0  0  0  0  0  0  0  0
  -11.2380   -3.4110  -21.5610 C   0  0  0  0  0  0  0  0  0  0  0  0
  -12.5670   -3.4810  -21.1710 C   0  0  0  0  0  0  0  0  0  0  0  0
  -12.9490   -4.3710  -20.2410 F   0  0  0  0  0  0  0  0  0  0  0  0
  -13.5400   -2.6010  -21.6190 C   0  0  0  0  0  0  0  0  0  0  0  0
  -13.1330   -1.5650  -22.4270 C   0  0  0  0  0  0  0  0  0  0  0  0
  -11.7810   -1.3880  -22.7140 C   0  0  0  0  0  0  0  0  0  0  0  0
  -11.4370   -0.1620  -23.4880 C   0  0  0  0  0  0  0  0  0  0  0  0
  -12.2620    0.7210  -23.6990 O   0  0  0  0  0  0  0  0  0  0  0  0
  -13.8440   -0.8520  -22.8280 H   0  0  0  0  0  0  0  0  0  0  0  0
  -14.5650   -2.7330  -21.2930 H   0  0  0  0  0  0  0  0  0  0  0  0
  -10.5640   -4.1860  -21.2130 H   0  0  0  0  0  0  0  0  0  0  0  0
   -9.5190   -1.9390  -24.7120 H   0  0  0  0  0  0  0  0  0  0  0  0
   -8.2460   -0.8640  -24.0930 H   0  0  0  0  0  0  0  0  0  0  0  0
   -9.4250    0.9380  -25.6200 H   0  0  0  0  0  0  0  0  0  0  0  0
  -10.5650    1.8100  -24.5670 H   0  0  0  0  0  0  0  0  0  0  0  0
   -9.5890    2.3470  -22.2170 H   0  0  0  0  0  0  0  0  0  0  0  0
   -7.8900    3.7590  -21.2870 H   0  0  0  0  0  0  0  0  0  0  0  0
   -7.0300    2.2050  -21.4890 H   0  0  0  0  0  0  0  0  0  0  0  0
   -6.8870    3.4560  -22.7310 H   0  0  0  0  0  0  0  0  0  0  0  0
  1  2  1  0  0  0  0
  1 65  1  0  0  0  0
  1 66  1  0  0  0  0
  1 67  1  0  0  0  0
  2  3  1  0  0  0  0
  2 64  1  0  0  0  0
  3  4  2  0  0  0  0
  3  5  1  0  0  0  0
  5  6  1  0  0  0  0
  5 62  1  0  0  0  0
  5 63  1  0  0  0  0
  6  7  1  0  0  0  0
  6 55  1  0  0  0  0
  7  8  1  0  0  0  0
  7 60  1  0  0  0  0
  7 61  1  0  0  0  0
  8  9  1  1  0  0  0
  8 29  1  0  0  0  0
  8 48  1  0  0  0  0
  9 10  2  0  0  0  0
  9 11  1  0  0  0  0
 11 12  1  0  0  0  0
 11 28  1  0  0  0  0
 12 13  2  0  0  0  0
 12 21  1  0  0  0  0
 13 14  1  0  0  0  0
 13 27  1  0  0  0  0
 14 15  2  0  0  0  0
 15 16  1  0  0  0  0
 15 26  1  0  0  0  0
 16 17  2  0  0  0  0
 16 21  1  0  0  0  0
 17 18  1  0  0  0  0
 17 25  1  0  0  0  0
 18 19  2  0  0  0  0
 18 24  1  0  0  0  0
 19 20  1  0  0  0  0
 19 23  1  0  0  0  0
 20 21  2  0  0  0  0
 20 22  1  0  0  0  0
 28 29  1  0  0  0  0
 28 46  1  0  0  0  0
 28 47  1  0  0  0  0
 29 30  1  0  0  0  0
 29 45  1  1  0  0  0
 30 31  1  0  0  0  0
 30 43  1  0  0  0  0
 30 44  1  0  0  0  0
 31 32  2  0  0  0  0
 31 33  2  0  0  0  0
 31 34  1  0  0  0  0
 34 35  1  0  0  0  0
 34 39  1  0  0  0  0
 35 36  1  0  0  0  0
 35 37  1  0  0  0  0
 35 38  1  0  0  0  0
 39 40  1  0  0  0  0
 39 41  1  0  0  0  0
 39 42  1  0  0  0  0
 48 49  2  0  0  0  0
 48 54  1  0  0  0  0
 49 50  1  0  0  0  0
 49 59  1  0  0  0  0
 50 51  1  0  0  0  0
 50 52  2  0  0  0  0
 52 53  1  0  0  0  0
 52 58  1  0  0  0  0
 53 54  2  0  0  0  0
 53 57  1  0  0  0  0
 54 55  1  0  0  0  0
 55 56  2  0  0  0  0
M  END
>  <MODEL>
       1

$$$$
