tmp_first_model_17_74.pdb
 OpenBabel08282502223D

 43 47  0  0  1  0  0  0  0  0999 V2000
   -9.4280   -0.4510  -20.9850 O   0  0  0  0  0  0  0  0  0  0  0  0
   -8.7470   -1.3640  -21.3780 C   0  0  0  0  0  0  0  0  0  0  0  0
   -9.1380   -2.4460  -22.1200 N   0  0  0  0  0  0  0  0  0  0  0  0
   -8.0410   -3.1460  -22.7410 C   0  0  1  0  0  0  0  0  0  0  0  0
   -8.1080   -4.6890  -22.7150 C   0  0  0  0  0  0  0  0  0  0  0  0
   -8.2250   -4.7220  -24.2730 C   0  0  2  0  0  0  0  0  0  0  0  0
   -7.1760   -5.5210  -24.9840 C   0  0  0  0  0  0  0  0  0  0  0  0
   -5.8200   -5.2760  -24.7390 C   0  0  0  0  0  0  0  0  0  0  0  0
   -4.8290   -6.0090  -25.3820 C   0  0  0  0  0  0  0  0  0  0  0  0
   -5.1780   -7.0080  -26.2880 C   0  0  0  0  0  0  0  0  0  0  0  0
   -6.5170   -7.2650  -26.5460 C   0  0  0  0  0  0  0  0  0  0  0  0
   -7.4980   -6.5300  -25.8920 C   0  0  0  0  0  0  0  0  0  0  0  0
   -9.1660   -6.9160  -26.2480 Cl  0  0  0  0  0  0  0  0  0  0  0  0
   -6.8190   -8.0230  -27.2600 H   0  0  0  0  0  0  0  0  0  0  0  0
   -4.4110   -7.5860  -26.7970 H   0  0  0  0  0  0  0  0  0  0  0  0
   -3.7840   -5.7950  -25.1760 H   0  0  0  0  0  0  0  0  0  0  0  0
   -5.5490   -4.4950  -24.0260 H   0  0  0  0  0  0  0  0  0  0  0  0
   -8.0350   -3.1700  -24.2980 C   0  0  0  0  0  0  0  0  0  0  0  0
   -8.8580   -2.6050  -24.7500 H   0  0  0  0  0  0  0  0  0  0  0  0
   -7.0990   -2.8270  -24.7560 H   0  0  0  0  0  0  0  0  0  0  0  0
   -9.2260   -5.0170  -24.6010 H   0  0  0  0  0  0  0  0  0  0  0  0
   -8.9720   -5.0670  -22.1610 H   0  0  0  0  0  0  0  0  0  0  0  0
   -7.1970   -5.1490  -22.3150 H   0  0  0  0  0  0  0  0  0  0  0  0
   -6.8420   -2.5170  -22.0520 C   0  0  0  0  0  0  0  0  0  0  0  0
   -5.6810   -2.8070  -22.2310 O   0  0  0  0  0  0  0  0  0  0  0  0
   -7.3420   -1.5180  -21.2040 N   0  0  0  0  0  0  0  0  0  0  0  0
   -6.5850   -0.8600  -20.1850 C   0  0  0  0  0  0  0  0  0  0  0  0
   -6.9110   -1.0590  -18.8650 C   0  0  0  0  0  0  0  0  0  0  0  0
   -6.2170   -0.5420  -17.8220 N   0  0  0  0  0  0  0  0  0  0  0  0
   -5.1790    0.2060  -18.0950 C   0  0  0  0  0  0  0  0  0  0  0  0
   -4.7480    0.5250  -19.4100 C   0  0  0  0  0  0  0  0  0  0  0  0
   -3.6200    1.3600  -19.6360 C   0  0  0  0  0  0  0  0  0  0  0  0
   -3.2350    1.6660  -20.9100 C   0  0  0  0  0  0  0  0  0  0  0  0
   -3.9650    1.1520  -22.0050 C   0  0  0  0  0  0  0  0  0  0  0  0
   -5.0550    0.3390  -21.8120 C   0  0  0  0  0  0  0  0  0  0  0  0
   -5.4720   -0.0110  -20.4980 C   0  0  0  0  0  0  0  0  0  0  0  0
   -5.6000   -0.0520  -22.6650 H   0  0  0  0  0  0  0  0  0  0  0  0
   -3.6450    1.3970  -23.0120 H   0  0  0  0  0  0  0  0  0  0  0  0
   -2.3700    2.3010  -21.0910 H   0  0  0  0  0  0  0  0  0  0  0  0
   -3.0800    1.7520  -18.7790 H   0  0  0  0  0  0  0  0  0  0  0  0
   -4.6260    0.6080  -17.2470 H   0  0  0  0  0  0  0  0  0  0  0  0
   -7.7570   -1.6850  -18.5960 H   0  0  0  0  0  0  0  0  0  0  0  0
  -10.1030   -2.6110  -22.3580 H   0  0  0  0  0  0  0  0  0  0  0  0
  1  2  2  0  0  0  0
  2  3  1  0  0  0  0
  2 26  1  0  0  0  0
  3  4  1  0  0  0  0
  3 43  1  0  0  0  0
  4  5  1  0  0  0  0
  4 18  1  0  0  0  0
  4 24  1  1  0  0  0
  5  6  1  0  0  0  0
  5 22  1  0  0  0  0
  5 23  1  0  0  0  0
  6  7  1  0  0  0  0
  6 18  1  0  0  0  0
  6 21  1  6  0  0  0
  7  8  2  0  0  0  0
  7 12  1  0  0  0  0
  8  9  1  0  0  0  0
  8 17  1  0  0  0  0
  9 10  2  0  0  0  0
  9 16  1  0  0  0  0
 10 11  1  0  0  0  0
 10 15  1  0  0  0  0
 11 12  2  0  0  0  0
 11 14  1  0  0  0  0
 12 13  1  0  0  0  0
 18 19  1  0  0  0  0
 18 20  1  0  0  0  0
 24 25  2  0  0  0  0
 24 26  1  0  0  0  0
 26 27  1  0  0  0  0
 27 28  2  0  0  0  0
 27 36  1  0  0  0  0
 28 29  1  0  0  0  0
 28 42  1  0  0  0  0
 29 30  2  0  0  0  0
 30 31  1  0  0  0  0
 30 41  1  0  0  0  0
 31 32  2  0  0  0  0
 31 36  1  0  0  0  0
 32 33  1  0  0  0  0
 32 40  1  0  0  0  0
 33 34  2  0  0  0  0
 33 39  1  0  0  0  0
 34 35  1  0  0  0  0
 34 38  1  0  0  0  0
 35 36  2  0  0  0  0
 35 37  1  0  0  0  0
M  END
>  <MODEL>
       1

$$$$
