tmp_first_model_16_87.pdb
 OpenBabel08282501503D

 59 64  0  0  1  0  0  0  0  0999 V2000
   -8.2840   -4.1680  -23.7580 C   0  0  0  0  0  0  0  0  0  0  0  0
   -8.4690   -3.2140  -22.5810 C   0  0  1  0  0  0  0  0  0  0  0  0
   -7.1300   -2.5780  -22.1700 C   0  0  0  0  0  0  0  0  0  0  0  0
   -7.5210   -1.4050  -21.4170 N   0  0  0  0  0  0  0  0  0  0  0  0
   -6.7440   -0.9370  -20.3290 C   0  0  0  0  0  0  0  0  0  0  0  0
   -7.0380   -1.3210  -19.0470 C   0  0  0  0  0  0  0  0  0  0  0  0
   -6.2710   -1.0310  -17.9680 N   0  0  0  0  0  0  0  0  0  0  0  0
   -5.1840   -0.3220  -18.1570 C   0  0  0  0  0  0  0  0  0  0  0  0
   -4.7690    0.1600  -19.4300 C   0  0  0  0  0  0  0  0  0  0  0  0
   -3.6010    0.9540  -19.5940 C   0  0  0  0  0  0  0  0  0  0  0  0
   -3.2600    1.4200  -20.8350 C   0  0  0  0  0  0  0  0  0  0  0  0
   -4.0270    1.0650  -21.9670 C   0  0  0  0  0  0  0  0  0  0  0  0
   -5.1370    0.2690  -21.8410 C   0  0  0  0  0  0  0  0  0  0  0  0
   -5.5560   -0.1740  -20.5590 C   0  0  0  0  0  0  0  0  0  0  0  0
   -5.6950   -0.0450  -22.7200 H   0  0  0  0  0  0  0  0  0  0  0  0
   -3.7250    1.4250  -22.9470 H   0  0  0  0  0  0  0  0  0  0  0  0
   -2.3800    2.0440  -20.9580 H   0  0  0  0  0  0  0  0  0  0  0  0
   -2.9910    1.1860  -18.7220 H   0  0  0  0  0  0  0  0  0  0  0  0
   -4.5650   -0.1110  -17.2820 H   0  0  0  0  0  0  0  0  0  0  0  0
   -7.9270   -1.9200  -18.8580 H   0  0  0  0  0  0  0  0  0  0  0  0
   -8.8380   -1.0470  -21.6230 C   0  0  0  0  0  0  0  0  0  0  0  0
   -9.4000   -0.1410  -21.0460 O   0  0  0  0  0  0  0  0  0  0  0  0
   -9.4230   -1.9850  -22.7320 C   0  0  1  0  0  0  0  0  0  0  0  0
   -9.2430   -1.3020  -24.1140 C   0  0  0  0  0  0  0  0  0  0  0  0
  -10.0980   -0.1350  -24.2600 N   0  0  0  0  0  0  0  0  0  0  0  0
   -9.5850    1.0410  -24.9330 C   0  0  0  0  0  0  0  0  0  0  0  0
   -8.7270    1.9040  -24.0510 C   0  0  0  0  0  0  0  0  0  0  0  0
   -9.0730    2.5950  -22.9110 C   0  0  0  0  0  0  0  0  0  0  0  0
   -7.9060    3.2990  -22.5430 C   0  0  0  0  0  0  0  0  0  0  0  0
   -6.9130    3.0580  -23.3930 N   0  0  0  0  0  0  0  0  0  0  0  0
   -7.4260    2.2040  -24.2960 N   0  0  0  0  0  0  0  0  0  0  0  0
   -6.5770    1.5850  -25.2910 C   0  0  0  0  0  0  0  0  0  0  0  0
   -5.5410    1.8290  -25.0620 H   0  0  0  0  0  0  0  0  0  0  0  0
   -6.6960    0.4960  -25.2620 H   0  0  0  0  0  0  0  0  0  0  0  0
   -6.8220    1.9350  -26.2980 H   0  0  0  0  0  0  0  0  0  0  0  0
   -7.7260    3.9420  -21.6890 H   0  0  0  0  0  0  0  0  0  0  0  0
  -10.0190    2.5410  -22.3920 H   0  0  0  0  0  0  0  0  0  0  0  0
  -10.4690    1.6120  -25.2260 H   0  0  0  0  0  0  0  0  0  0  0  0
   -9.0660    0.7230  -25.8440 H   0  0  0  0  0  0  0  0  0  0  0  0
  -11.4200   -0.1610  -23.9160 C   0  0  0  0  0  0  0  0  0  0  0  0
  -12.2280    0.6690  -24.3120 O   0  0  0  0  0  0  0  0  0  0  0  0
  -11.8390   -1.2760  -23.0130 C   0  0  0  0  0  0  0  0  0  0  0  0
  -13.1790   -1.2830  -22.6220 C   0  0  0  0  0  0  0  0  0  0  0  0
  -13.6240   -2.1950  -21.6920 C   0  0  0  0  0  0  0  0  0  0  0  0
  -12.7180   -3.1420  -21.2370 C   0  0  0  0  0  0  0  0  0  0  0  0
  -13.1340   -3.9730  -20.2710 F   0  0  0  0  0  0  0  0  0  0  0  0
  -11.4010   -3.2040  -21.6550 C   0  0  0  0  0  0  0  0  0  0  0  0
  -10.9130   -2.2120  -22.5150 C   0  0  0  0  0  0  0  0  0  0  0  0
  -10.7700   -3.9810  -21.2320 H   0  0  0  0  0  0  0  0  0  0  0  0
  -14.6340   -2.1960  -21.2920 H   0  0  0  0  0  0  0  0  0  0  0  0
  -13.8390   -0.5220  -23.0260 H   0  0  0  0  0  0  0  0  0  0  0  0
   -9.4770   -2.0460  -24.8870 H   0  0  0  0  0  0  0  0  0  0  0  0
   -8.2020   -0.9870  -24.2510 H   0  0  0  0  0  0  0  0  0  0  0  0
   -6.4990   -3.2340  -21.5610 H   0  0  0  0  0  0  0  0  0  0  0  0
   -6.5560   -2.2960  -23.0660 H   0  0  0  0  0  0  0  0  0  0  0  0
   -8.8210   -3.7910  -21.7190 H   0  0  0  0  0  0  0  0  0  0  0  0
   -7.8390   -3.6570  -24.6170 H   0  0  0  0  0  0  0  0  0  0  0  0
   -9.2150   -4.6300  -24.0940 H   0  0  0  0  0  0  0  0  0  0  0  0
   -7.5970   -4.9770  -23.4850 H   0  0  0  0  0  0  0  0  0  0  0  0
  1  2  1  0  0  0  0
  1 57  1  0  0  0  0
  1 58  1  0  0  0  0
  1 59  1  0  0  0  0
  2  3  1  0  0  0  0
  2 23  1  0  0  0  0
  2 56  1  1  0  0  0
  3  4  1  0  0  0  0
  3 54  1  0  0  0  0
  3 55  1  0  0  0  0
  4  5  1  0  0  0  0
  4 21  1  0  0  0  0
  5  6  2  0  0  0  0
  5 14  1  0  0  0  0
  6  7  1  0  0  0  0
  6 20  1  0  0  0  0
  7  8  2  0  0  0  0
  8  9  1  0  0  0  0
  8 19  1  0  0  0  0
  9 10  2  0  0  0  0
  9 14  1  0  0  0  0
 10 11  1  0  0  0  0
 10 18  1  0  0  0  0
 11 12  2  0  0  0  0
 11 17  1  0  0  0  0
 12 13  1  0  0  0  0
 12 16  1  0  0  0  0
 13 14  2  0  0  0  0
 13 15  1  0  0  0  0
 21 22  2  0  0  0  0
 23 21  1  1  0  0  0
 23 24  1  0  0  0  0
 23 48  1  0  0  0  0
 24 25  1  0  0  0  0
 24 52  1  0  0  0  0
 24 53  1  0  0  0  0
 25 26  1  0  0  0  0
 25 40  1  0  0  0  0
 26 27  1  0  0  0  0
 26 38  1  0  0  0  0
 26 39  1  0  0  0  0
 27 28  2  0  0  0  0
 27 31  1  0  0  0  0
 28 29  1  0  0  0  0
 28 37  1  0  0  0  0
 29 30  2  0  0  0  0
 29 36  1  0  0  0  0
 30 31  1  0  0  0  0
 31 32  1  0  0  0  0
 32 33  1  0  0  0  0
 32 34  1  0  0  0  0
 32 35  1  0  0  0  0
 40 41  2  0  0  0  0
 40 42  1  0  0  0  0
 42 43  2  0  0  0  0
 42 48  1  0  0  0  0
 43 44  1  0  0  0  0
 43 51  1  0  0  0  0
 44 45  2  0  0  0  0
 44 50  1  0  0  0  0
 45 46  1  0  0  0  0
 45 47  1  0  0  0  0
 47 48  2  0  0  0  0
 47 49  1  0  0  0  0
M  END
>  <MODEL>
       1

$$$$
