tmp_first_model_3_37.pdb
 OpenBabel08272518143D

 56 60  0  0  1  0  0  0  0  0999 V2000
   -7.3120    3.4480  -21.8880 C   0  0  0  0  0  0  0  0  0  0  0  0
   -8.1420    2.9710  -22.9780 N   0  0  0  0  0  0  0  0  0  0  0  0
   -7.5700    2.2580  -23.9770 C   0  0  0  0  0  0  0  0  0  0  0  0
   -6.3560    2.1230  -24.0760 O   0  0  0  0  0  0  0  0  0  0  0  0
   -8.5200    1.6370  -25.0070 C   0  0  0  0  0  0  0  0  0  0  0  0
   -9.2670    0.5000  -24.4990 N   0  0  0  0  0  0  0  0  0  0  0  0
   -8.5690   -0.7580  -24.3040 C   0  0  0  0  0  0  0  0  0  0  0  0
   -8.9880   -1.4550  -22.9840 C   0  0  2  0  0  0  0  0  0  0  0  0
   -8.4390   -0.6660  -21.7650 C   0  0  0  0  0  0  0  0  0  0  0  0
   -8.8280    0.4050  -21.3460 O   0  0  0  0  0  0  0  0  0  0  0  0
   -7.4050   -1.3770  -21.2020 N   0  0  0  0  0  0  0  0  0  0  0  0
   -6.6040   -0.8070  -20.1730 C   0  0  0  0  0  0  0  0  0  0  0  0
   -6.9090   -1.0410  -18.8590 C   0  0  0  0  0  0  0  0  0  0  0  0
   -6.2090   -0.5450  -17.8070 N   0  0  0  0  0  0  0  0  0  0  0  0
   -5.1700    0.2110  -18.0770 C   0  0  0  0  0  0  0  0  0  0  0  0
   -4.7320    0.5310  -19.3930 C   0  0  0  0  0  0  0  0  0  0  0  0
   -3.6020    1.3610  -19.6400 C   0  0  0  0  0  0  0  0  0  0  0  0
   -3.2120    1.6460  -20.9190 C   0  0  0  0  0  0  0  0  0  0  0  0
   -3.9320    1.1150  -22.0140 C   0  0  0  0  0  0  0  0  0  0  0  0
   -5.0280    0.3130  -21.8010 C   0  0  0  0  0  0  0  0  0  0  0  0
   -5.4660    0.0040  -20.4850 C   0  0  0  0  0  0  0  0  0  0  0  0
   -5.5810   -0.0790  -22.6500 H   0  0  0  0  0  0  0  0  0  0  0  0
   -3.6380    1.3600  -23.0280 H   0  0  0  0  0  0  0  0  0  0  0  0
   -2.3590    2.2950  -21.0980 H   0  0  0  0  0  0  0  0  0  0  0  0
   -3.0750    1.7760  -18.7830 H   0  0  0  0  0  0  0  0  0  0  0  0
   -4.6190    0.6150  -17.2260 H   0  0  0  0  0  0  0  0  0  0  0  0
   -7.7610   -1.6670  -18.6030 H   0  0  0  0  0  0  0  0  0  0  0  0
   -7.0860   -2.6140  -21.8850 C   0  0  0  0  0  0  0  0  0  0  0  0
   -8.2910   -2.8520  -22.8230 C   0  0  2  0  0  0  0  0  0  0  0  0
   -7.8850   -3.5910  -24.1050 C   0  0  0  0  0  0  0  0  0  0  0  0
   -7.1140   -3.0410  -24.6570 H   0  0  0  0  0  0  0  0  0  0  0  0
   -7.4700   -4.5760  -23.8650 H   0  0  0  0  0  0  0  0  0  0  0  0
   -8.7350   -3.7450  -24.7780 H   0  0  0  0  0  0  0  0  0  0  0  0
   -9.0060   -3.4840  -22.2900 H   0  0  0  0  0  0  0  0  0  0  0  0
   -6.1480   -2.5210  -22.4560 H   0  0  0  0  0  0  0  0  0  0  0  0
   -6.9480   -3.4290  -21.1630 H   0  0  0  0  0  0  0  0  0  0  0  0
  -10.5100   -1.4610  -22.9130 C   0  0  0  0  0  0  0  0  0  0  0  0
  -11.1690   -2.3010  -22.0100 C   0  0  0  0  0  0  0  0  0  0  0  0
  -12.5510   -2.3080  -21.9150 C   0  0  0  0  0  0  0  0  0  0  0  0
  -13.3130   -1.4450  -22.7070 C   0  0  0  0  0  0  0  0  0  0  0  0
  -12.6780   -0.5540  -23.5520 C   0  0  0  0  0  0  0  0  0  0  0  0
  -11.2840   -0.5380  -23.6320 C   0  0  0  0  0  0  0  0  0  0  0  0
  -10.6360    0.5560  -24.4330 C   0  0  0  0  0  0  0  0  0  0  0  0
  -11.2900    1.4500  -24.9540 O   0  0  0  0  0  0  0  0  0  0  0  0
  -13.2230    0.1690  -24.1510 H   0  0  0  0  0  0  0  0  0  0  0  0
  -14.3960   -1.4580  -22.6350 H   0  0  0  0  0  0  0  0  0  0  0  0
  -13.0400   -2.9790  -21.2140 H   0  0  0  0  0  0  0  0  0  0  0  0
  -10.6010   -2.9490  -21.3480 H   0  0  0  0  0  0  0  0  0  0  0  0
   -8.7690   -1.4420  -25.1440 H   0  0  0  0  0  0  0  0  0  0  0  0
   -7.4980   -0.5340  -24.2750 H   0  0  0  0  0  0  0  0  0  0  0  0
   -7.8850    1.3420  -25.8510 H   0  0  0  0  0  0  0  0  0  0  0  0
   -9.2740    2.3490  -25.3520 H   0  0  0  0  0  0  0  0  0  0  0  0
   -9.1410    2.9250  -22.8530 H   0  0  0  0  0  0  0  0  0  0  0  0
   -6.7530    2.6150  -21.4330 H   0  0  0  0  0  0  0  0  0  0  0  0
   -6.5850    4.1850  -22.2480 H   0  0  0  0  0  0  0  0  0  0  0  0
   -7.9640    3.9260  -21.1540 H   0  0  0  0  0  0  0  0  0  0  0  0
  1  2  1  0  0  0  0
  1 54  1  0  0  0  0
  1 55  1  0  0  0  0
  1 56  1  0  0  0  0
  2  3  1  0  0  0  0
  2 53  1  0  0  0  0
  3  4  2  0  0  0  0
  3  5  1  0  0  0  0
  5  6  1  0  0  0  0
  5 51  1  0  0  0  0
  5 52  1  0  0  0  0
  6  7  1  0  0  0  0
  6 43  1  0  0  0  0
  7  8  1  0  0  0  0
  7 49  1  0  0  0  0
  7 50  1  0  0  0  0
  8  9  1  1  0  0  0
  8 29  1  0  0  0  0
  8 37  1  0  0  0  0
  9 10  2  0  0  0  0
  9 11  1  0  0  0  0
 11 12  1  0  0  0  0
 11 28  1  0  0  0  0
 12 13  2  0  0  0  0
 12 21  1  0  0  0  0
 13 14  1  0  0  0  0
 13 27  1  0  0  0  0
 14 15  2  0  0  0  0
 15 16  1  0  0  0  0
 15 26  1  0  0  0  0
 16 17  2  0  0  0  0
 16 21  1  0  0  0  0
 17 18  1  0  0  0  0
 17 25  1  0  0  0  0
 18 19  2  0  0  0  0
 18 24  1  0  0  0  0
 19 20  1  0  0  0  0
 19 23  1  0  0  0  0
 20 21  2  0  0  0  0
 20 22  1  0  0  0  0
 28 29  1  0  0  0  0
 28 35  1  0  0  0  0
 28 36  1  0  0  0  0
 29 30  1  0  0  0  0
 29 34  1  1  0  0  0
 30 31  1  0  0  0  0
 30 32  1  0  0  0  0
 30 33  1  0  0  0  0
 37 38  2  0  0  0  0
 37 42  1  0  0  0  0
 38 39  1  0  0  0  0
 38 48  1  0  0  0  0
 39 40  2  0  0  0  0
 39 47  1  0  0  0  0
 40 41  1  0  0  0  0
 40 46  1  0  0  0  0
 41 42  2  0  0  0  0
 41 45  1  0  0  0  0
 42 43  1  0  0  0  0
 43 44  2  0  0  0  0
M  END
>  <MODEL>
       1

$$$$
