tmp_first_model_19_9.pdb
 OpenBabel08282503233D

 41 43  0  0  1  0  0  0  0  0999 V2000
  -13.1820   -2.9170  -22.8920 C   0  0  0  0  0  0  0  0  0  0  0  0
  -11.9710   -2.0490  -23.2170 C   0  0  1  0  0  0  0  0  0  0  0  0
  -12.1550   -0.6570  -22.6470 C   0  0  0  0  0  0  0  0  0  0  0  0
  -11.3210    0.3560  -22.8360 C   0  0  0  0  0  0  0  0  0  0  0  0
  -10.0210    0.2170  -23.6020 C   0  0  0  0  0  0  0  0  0  0  0  0
   -9.0870   -0.7820  -23.0630 N   0  0  0  0  0  0  0  0  0  0  0  0
   -8.3810   -0.4080  -21.9330 C   0  0  0  0  0  0  0  0  0  0  0  0
   -8.4790    0.7180  -21.4750 O   0  0  0  0  0  0  0  0  0  0  0  0
   -7.4330   -1.4330  -21.2750 C   0  0  0  0  0  0  0  0  0  0  0  0
   -6.5800   -0.8290  -20.1850 C   0  0  0  0  0  0  0  0  0  0  0  0
   -6.8780   -1.0390  -18.8650 C   0  0  0  0  0  0  0  0  0  0  0  0
   -6.1890   -0.5430  -17.8020 N   0  0  0  0  0  0  0  0  0  0  0  0
   -5.1580    0.2220  -18.0650 C   0  0  0  0  0  0  0  0  0  0  0  0
   -4.7240    0.5330  -19.3820 C   0  0  0  0  0  0  0  0  0  0  0  0
   -3.5950    1.3600  -19.6240 C   0  0  0  0  0  0  0  0  0  0  0  0
   -3.2090    1.6570  -20.9020 C   0  0  0  0  0  0  0  0  0  0  0  0
   -3.9340    1.1300  -21.9940 C   0  0  0  0  0  0  0  0  0  0  0  0
   -5.0260    0.3230  -21.7870 C   0  0  0  0  0  0  0  0  0  0  0  0
   -5.4540    0.0010  -20.4730 C   0  0  0  0  0  0  0  0  0  0  0  0
   -5.5770   -0.0660  -22.6370 H   0  0  0  0  0  0  0  0  0  0  0  0
   -3.6230    1.3730  -23.0060 H   0  0  0  0  0  0  0  0  0  0  0  0
   -2.3530    2.3030  -21.0870 H   0  0  0  0  0  0  0  0  0  0  0  0
   -3.0570    1.7740  -18.7730 H   0  0  0  0  0  0  0  0  0  0  0  0
   -4.6030    0.6280  -17.2160 H   0  0  0  0  0  0  0  0  0  0  0  0
   -7.7290   -1.6590  -18.5870 H   0  0  0  0  0  0  0  0  0  0  0  0
   -6.7960   -1.9000  -22.0380 H   0  0  0  0  0  0  0  0  0  0  0  0
   -8.0400   -2.2440  -20.8450 H   0  0  0  0  0  0  0  0  0  0  0  0
   -9.3960   -2.1680  -23.3970 C   0  0  0  0  0  0  0  0  0  0  0  0
  -10.6680   -2.7290  -22.7550 C   0  0  0  0  0  0  0  0  0  0  0  0
  -10.5870   -2.6370  -21.6680 H   0  0  0  0  0  0  0  0  0  0  0  0
  -10.7260   -3.8080  -22.9650 H   0  0  0  0  0  0  0  0  0  0  0  0
   -8.5310   -2.7920  -23.1570 H   0  0  0  0  0  0  0  0  0  0  0  0
   -9.5110   -2.2190  -24.4820 H   0  0  0  0  0  0  0  0  0  0  0  0
  -10.2460   -0.0760  -24.6330 H   0  0  0  0  0  0  0  0  0  0  0  0
   -9.5090    1.1770  -23.6540 H   0  0  0  0  0  0  0  0  0  0  0  0
  -11.5320    1.3300  -22.3860 H   0  0  0  0  0  0  0  0  0  0  0  0
  -13.0280   -0.4960  -22.0110 H   0  0  0  0  0  0  0  0  0  0  0  0
  -11.9090   -1.9540  -24.3100 H   0  0  0  0  0  0  0  0  0  0  0  0
  -13.1170   -3.9120  -23.3350 H   0  0  0  0  0  0  0  0  0  0  0  0
  -13.2660   -3.0790  -21.8130 H   0  0  0  0  0  0  0  0  0  0  0  0
  -14.1090   -2.4540  -23.2490 H   0  0  0  0  0  0  0  0  0  0  0  0
  1  2  1  0  0  0  0
  1 39  1  0  0  0  0
  1 40  1  0  0  0  0
  1 41  1  0  0  0  0
  2  3  1  0  0  0  0
  2 29  1  0  0  0  0
  2 38  1  6  0  0  0
  3  4  2  0  0  0  0
  3 37  1  0  0  0  0
  4  5  1  0  0  0  0
  4 36  1  0  0  0  0
  5  6  1  0  0  0  0
  5 34  1  0  0  0  0
  5 35  1  0  0  0  0
  6  7  1  0  0  0  0
  6 28  1  0  0  0  0
  7  8  2  0  0  0  0
  7  9  1  0  0  0  0
  9 10  1  0  0  0  0
  9 26  1  0  0  0  0
  9 27  1  0  0  0  0
 10 11  2  0  0  0  0
 10 19  1  0  0  0  0
 11 12  1  0  0  0  0
 11 25  1  0  0  0  0
 12 13  2  0  0  0  0
 13 14  1  0  0  0  0
 13 24  1  0  0  0  0
 14 15  2  0  0  0  0
 14 19  1  0  0  0  0
 15 16  1  0  0  0  0
 15 23  1  0  0  0  0
 16 17  2  0  0  0  0
 16 22  1  0  0  0  0
 17 18  1  0  0  0  0
 17 21  1  0  0  0  0
 18 19  2  0  0  0  0
 18 20  1  0  0  0  0
 28 29  1  0  0  0  0
 28 32  1  0  0  0  0
 28 33  1  0  0  0  0
 29 30  1  0  0  0  0
 29 31  1  0  0  0  0
M  END
>  <MODEL>
       1

$$$$
