tmp_first_model_6_70.pdb
 OpenBabel08272519583D

 52 54  0  0  0  0  0  0  0  0999 V2000
   -4.2290    0.5620  -25.9210 C   0  0  0  0  0  0  0  0  0  0  0  0
   -4.9550    0.0870  -27.1830 C   0  0  0  0  0  0  0  0  0  0  0  0
   -4.9060   -1.4260  -27.3850 C   0  0  0  0  0  0  0  0  0  0  0  0
   -3.8990   -1.8050  -27.5990 H   0  0  0  0  0  0  0  0  0  0  0  0
   -5.5930   -1.6880  -28.1980 H   0  0  0  0  0  0  0  0  0  0  0  0
   -5.2940   -1.9130  -26.4870 H   0  0  0  0  0  0  0  0  0  0  0  0
   -6.4190    0.5710  -27.2900 C   0  0  0  0  0  0  0  0  0  0  0  0
   -7.5080   -0.1410  -26.4860 C   0  0  0  0  0  0  0  0  0  0  0  0
   -7.8010   -0.2310  -26.6960 C   0  0  0  0  0  0  0  0  0  0  0  0
   -9.0510   -0.2030  -26.7970 H   0  0  0  0  0  0  0  0  0  0  0  0
   -8.2250   -0.8800  -27.6390 H   0  0  0  0  0  0  0  0  0  0  0  0
   -7.8690    1.1320  -25.6090 H   0  0  0  0  0  0  0  0  0  0  0  0
   -7.3680   -1.1500  -25.3380 C   0  0  0  0  0  0  0  0  0  0  0  0
   -8.2550   -1.1420  -24.0830 C   0  0  0  0  0  0  0  0  0  0  0  0
   -8.0720   -0.0080  -23.1630 N   0  0  0  0  0  0  0  0  0  0  0  0
   -8.2010   -0.2170  -21.7900 C   0  0  0  0  0  0  0  0  0  0  0  0
   -8.8600    0.5190  -21.0810 O   0  0  0  0  0  0  0  0  0  0  0  0
   -7.4080   -1.3750  -21.1800 C   0  0  0  0  0  0  0  0  0  0  0  0
   -6.5480   -0.8510  -20.0690 C   0  0  0  0  0  0  0  0  0  0  0  0
   -6.8270   -1.1230  -18.7590 C   0  0  0  0  0  0  0  0  0  0  0  0
   -6.1370   -0.6350  -17.6960 N   0  0  0  0  0  0  0  0  0  0  0  0
   -5.1410    0.1770  -17.9570 C   0  0  0  0  0  0  0  0  0  0  0  0
   -4.7460    0.5580  -19.2680 C   0  0  0  0  0  0  0  0  0  0  0  0
   -3.6730    1.4560  -19.5050 C   0  0  0  0  0  0  0  0  0  0  0  0
   -3.3350    1.8180  -20.7820 C   0  0  0  0  0  0  0  0  0  0  0  0
   -4.0550    1.2930  -21.8770 C   0  0  0  0  0  0  0  0  0  0  0  0
   -5.0880    0.4160  -21.6740 C   0  0  0  0  0  0  0  0  0  0  0  0
   -5.4680    0.0320  -20.3590 C   0  0  0  0  0  0  0  0  0  0  0  0
   -5.6130    0.0070  -22.5290 H   0  0  0  0  0  0  0  0  0  0  0  0
   -3.7830    1.5710  -22.8930 H   0  0  0  0  0  0  0  0  0  0  0  0
   -2.5170    2.5090  -20.9580 H   0  0  0  0  0  0  0  0  0  0  0  0
   -3.1330    1.8570  -18.6520 H   0  0  0  0  0  0  0  0  0  0  0  0
   -4.5960    0.5790  -17.1020 H   0  0  0  0  0  0  0  0  0  0  0  0
   -7.6580   -1.7800  -18.5020 H   0  0  0  0  0  0  0  0  0  0  0  0
   -6.7970   -1.8560  -21.9490 H   0  0  0  0  0  0  0  0  0  0  0  0
   -8.1150   -2.1150  -20.7830 H   0  0  0  0  0  0  0  0  0  0  0  0
   -8.5810    1.2980  -23.6090 C   0  0  0  0  0  0  0  0  0  0  0  0
   -7.7440    1.8620  -24.7400 C   0  0  0  0  0  0  0  0  0  0  0  0
   -6.6790    1.8500  -24.4610 H   0  0  0  0  0  0  0  0  0  0  0  0
   -8.0190    2.8940  -24.9910 H   0  0  0  0  0  0  0  0  0  0  0  0
   -8.5620    1.9480  -22.7240 H   0  0  0  0  0  0  0  0  0  0  0  0
   -9.6420    1.1950  -23.9110 H   0  0  0  0  0  0  0  0  0  0  0  0
   -7.9930   -2.0450  -23.5290 H   0  0  0  0  0  0  0  0  0  0  0  0
   -9.3250   -1.2310  -24.3570 H   0  0  0  0  0  0  0  0  0  0  0  0
   -7.4460   -2.1470  -25.7590 H   0  0  0  0  0  0  0  0  0  0  0  0
   -6.3380   -1.0580  -24.9820 H   0  0  0  0  0  0  0  0  0  0  0  0
   -6.4480    1.6220  -27.0070 H   0  0  0  0  0  0  0  0  0  0  0  0
   -6.6660    0.5070  -28.3480 H   0  0  0  0  0  0  0  0  0  0  0  0
   -4.4640    0.5700  -28.0370 H   0  0  0  0  0  0  0  0  0  0  0  0
   -4.4310    1.6240  -25.7430 H   0  0  0  0  0  0  0  0  0  0  0  0
   -3.1420    0.4410  -26.0170 H   0  0  0  0  0  0  0  0  0  0  0  0
   -4.5420    0.0180  -25.0210 H   0  0  0  0  0  0  0  0  0  0  0  0
  1  2  1  0  0  0  0
  1 50  1  0  0  0  0
  1 51  1  0  0  0  0
  1 52  1  0  0  0  0
  2  3  1  0  0  0  0
  2  7  1  0  0  0  0
  2 49  1  0  0  0  0
  3  4  1  0  0  0  0
  3  5  1  0  0  0  0
  3  6  1  0  0  0  0
  7  8  1  0  0  0  0
  7 47  1  0  0  0  0
  7 48  1  0  0  0  0
  8  9  1  0  0  0  0
  8 13  1  0  0  0  0
  8 38  1  0  0  0  0
  9 10  1  0  0  0  0
  9 11  1  0  0  0  0
  9 12  1  0  0  0  0
 13 14  1  0  0  0  0
 13 45  1  0  0  0  0
 13 46  1  0  0  0  0
 14 15  1  0  0  0  0
 14 43  1  0  0  0  0
 14 44  1  0  0  0  0
 15 16  1  0  0  0  0
 15 37  1  0  0  0  0
 16 17  2  0  0  0  0
 16 18  1  0  0  0  0
 18 19  1  0  0  0  0
 18 35  1  0  0  0  0
 18 36  1  0  0  0  0
 19 20  2  0  0  0  0
 19 28  1  0  0  0  0
 20 21  1  0  0  0  0
 20 34  1  0  0  0  0
 21 22  2  0  0  0  0
 22 23  1  0  0  0  0
 22 33  1  0  0  0  0
 23 24  2  0  0  0  0
 23 28  1  0  0  0  0
 24 25  1  0  0  0  0
 24 32  1  0  0  0  0
 25 26  2  0  0  0  0
 25 31  1  0  0  0  0
 26 27  1  0  0  0  0
 26 30  1  0  0  0  0
 27 28  2  0  0  0  0
 27 29  1  0  0  0  0
 37 38  1  0  0  0  0
 37 41  1  0  0  0  0
 37 42  1  0  0  0  0
 38 39  1  0  0  0  0
 38 40  1  0  0  0  0
M  END
>  <MODEL>
       1

$$$$
