tmp_first_model_8_0.pdb
 OpenBabel08272521063D

 66 71  0  0  1  0  0  0  0  0999 V2000
   -7.8310   -6.0240  -26.6750 C   0  0  0  0  0  0  0  0  0  0  0  0
   -8.0170   -4.6120  -26.9580 N   0  0  0  0  0  0  0  0  0  0  0  0
   -7.1130   -3.6940  -26.5440 C   0  0  0  0  0  0  0  0  0  0  0  0
   -6.0960   -3.9710  -25.9170 O   0  0  0  0  0  0  0  0  0  0  0  0
   -7.4980   -2.2390  -26.8110 C   0  0  0  0  0  0  0  0  0  0  0  0
   -8.4070   -1.7420  -25.7810 N   0  0  0  0  0  0  0  0  0  0  0  0
   -7.8710   -1.2940  -24.5000 C   0  0  0  0  0  0  0  0  0  0  0  0
   -8.7690   -1.5770  -23.2540 C   0  0  2  0  0  0  0  0  0  0  0  0
   -8.2490   -0.6270  -22.1530 C   0  0  0  0  0  0  0  0  0  0  0  0
   -8.4380    0.5680  -22.0680 O   0  0  0  0  0  0  0  0  0  0  0  0
   -7.4490   -1.3510  -21.2860 N   0  0  0  0  0  0  0  0  0  0  0  0
   -6.6820   -0.7720  -20.2460 C   0  0  0  0  0  0  0  0  0  0  0  0
   -6.9610   -1.1020  -18.9400 C   0  0  0  0  0  0  0  0  0  0  0  0
   -6.2780   -0.6410  -17.8660 N   0  0  0  0  0  0  0  0  0  0  0  0
   -5.2640    0.1590  -18.0940 C   0  0  0  0  0  0  0  0  0  0  0  0
   -4.8400    0.5540  -19.3930 C   0  0  0  0  0  0  0  0  0  0  0  0
   -3.7140    1.4000  -19.5780 C   0  0  0  0  0  0  0  0  0  0  0  0
   -3.3190    1.7610  -20.8370 C   0  0  0  0  0  0  0  0  0  0  0  0
   -4.0310    1.2930  -21.9630 C   0  0  0  0  0  0  0  0  0  0  0  0
   -5.1170    0.4700  -21.8090 C   0  0  0  0  0  0  0  0  0  0  0  0
   -5.5620    0.0860  -20.5110 C   0  0  0  0  0  0  0  0  0  0  0  0
   -5.6490    0.1150  -22.6850 H   0  0  0  0  0  0  0  0  0  0  0  0
   -3.7010    1.5710  -22.9600 H   0  0  0  0  0  0  0  0  0  0  0  0
   -2.4660    2.4170  -20.9840 H   0  0  0  0  0  0  0  0  0  0  0  0
   -3.1830    1.7550  -18.7010 H   0  0  0  0  0  0  0  0  0  0  0  0
   -4.7180    0.5250  -17.2270 H   0  0  0  0  0  0  0  0  0  0  0  0
   -7.7990   -1.7640  -18.7220 H   0  0  0  0  0  0  0  0  0  0  0  0
   -7.3580   -2.7620  -21.6090 C   0  0  0  0  0  0  0  0  0  0  0  0
   -8.5490   -2.9570  -22.5570 C   0  0  2  0  0  0  0  0  0  0  0  0
   -8.4450   -4.1400  -23.5180 C   0  0  0  0  0  0  0  0  0  0  0  0
   -8.3480   -5.4370  -22.8740 N   0  0  0  0  0  0  0  0  0  0  0  0
   -7.1710   -5.9540  -22.4190 C   0  0  0  0  0  0  0  0  0  0  0  0
   -5.9350   -5.6590  -23.0310 C   0  0  0  0  0  0  0  0  0  0  0  0
   -4.8230   -6.2370  -22.4480 C   0  0  0  0  0  0  0  0  0  0  0  0
   -4.8850   -7.0090  -21.3590 N   0  0  0  0  0  0  0  0  0  0  0  0
   -6.1060   -7.2390  -20.8990 C   0  0  0  0  0  0  0  0  0  0  0  0
   -7.2590   -6.7860  -21.3730 N   0  0  0  0  0  0  0  0  0  0  0  0
   -6.1700   -7.8650  -20.0130 H   0  0  0  0  0  0  0  0  0  0  0  0
   -3.8250   -6.0730  -22.8520 H   0  0  0  0  0  0  0  0  0  0  0  0
   -5.8790   -5.0120  -23.9050 H   0  0  0  0  0  0  0  0  0  0  0  0
   -9.1400   -5.6820  -22.2910 H   0  0  0  0  0  0  0  0  0  0  0  0
   -9.3440   -4.1290  -24.1470 H   0  0  0  0  0  0  0  0  0  0  0  0
   -7.5750   -4.0090  -24.1600 H   0  0  0  0  0  0  0  0  0  0  0  0
   -9.4420   -3.1130  -21.9310 H   0  0  0  0  0  0  0  0  0  0  0  0
   -7.4320   -3.3610  -20.6970 H   0  0  0  0  0  0  0  0  0  0  0  0
   -6.3890   -2.9980  -22.0830 H   0  0  0  0  0  0  0  0  0  0  0  0
  -10.2260   -1.3760  -23.6160 C   0  0  0  0  0  0  0  0  0  0  0  0
  -11.1990   -1.1940  -22.6200 C   0  0  0  0  0  0  0  0  0  0  0  0
  -12.5280   -1.0340  -22.9800 C   0  0  0  0  0  0  0  0  0  0  0  0
  -13.7620   -0.8490  -21.7740 Cl  0  0  0  0  0  0  0  0  0  0  0  0
  -12.9340   -1.0400  -24.3110 C   0  0  0  0  0  0  0  0  0  0  0  0
  -11.9880   -1.2650  -25.2880 C   0  0  0  0  0  0  0  0  0  0  0  0
  -10.6580   -1.4770  -24.9420 C   0  0  0  0  0  0  0  0  0  0  0  0
   -9.7350   -1.9080  -26.0240 C   0  0  0  0  0  0  0  0  0  0  0  0
  -10.1440   -2.4230  -27.0650 O   0  0  0  0  0  0  0  0  0  0  0  0
  -12.2560   -1.2950  -26.3370 H   0  0  0  0  0  0  0  0  0  0  0  0
  -13.9820   -0.8970  -24.5450 H   0  0  0  0  0  0  0  0  0  0  0  0
  -10.9140   -1.1690  -21.5740 H   0  0  0  0  0  0  0  0  0  0  0  0
   -7.7080   -0.2080  -24.5340 H   0  0  0  0  0  0  0  0  0  0  0  0
   -6.9000   -1.7920  -24.3760 H   0  0  0  0  0  0  0  0  0  0  0  0
   -6.5810   -1.6470  -26.8620 H   0  0  0  0  0  0  0  0  0  0  0  0
   -8.0290   -2.1770  -27.7600 H   0  0  0  0  0  0  0  0  0  0  0  0
   -8.9050   -4.2700  -27.2950 H   0  0  0  0  0  0  0  0  0  0  0  0
   -7.5920   -6.1770  -25.6150 H   0  0  0  0  0  0  0  0  0  0  0  0
   -8.7550   -6.5530  -26.9130 H   0  0  0  0  0  0  0  0  0  0  0  0
   -7.0190   -6.4440  -27.2770 H   0  0  0  0  0  0  0  0  0  0  0  0
  1  2  1  0  0  0  0
  1 64  1  0  0  0  0
  1 65  1  0  0  0  0
  1 66  1  0  0  0  0
  2  3  1  0  0  0  0
  2 63  1  0  0  0  0
  3  4  2  0  0  0  0
  3  5  1  0  0  0  0
  5  6  1  0  0  0  0
  5 61  1  0  0  0  0
  5 62  1  0  0  0  0
  6  7  1  0  0  0  0
  6 54  1  0  0  0  0
  7  8  1  0  0  0  0
  7 59  1  0  0  0  0
  7 60  1  0  0  0  0
  8  9  1  1  0  0  0
  8 29  1  0  0  0  0
  8 47  1  0  0  0  0
  9 10  2  0  0  0  0
  9 11  1  0  0  0  0
 11 12  1  0  0  0  0
 11 28  1  0  0  0  0
 12 13  2  0  0  0  0
 12 21  1  0  0  0  0
 13 14  1  0  0  0  0
 13 27  1  0  0  0  0
 14 15  2  0  0  0  0
 15 16  1  0  0  0  0
 15 26  1  0  0  0  0
 16 17  2  0  0  0  0
 16 21  1  0  0  0  0
 17 18  1  0  0  0  0
 17 25  1  0  0  0  0
 18 19  2  0  0  0  0
 18 24  1  0  0  0  0
 19 20  1  0  0  0  0
 19 23  1  0  0  0  0
 20 21  2  0  0  0  0
 20 22  1  0  0  0  0
 28 29  1  0  0  0  0
 28 45  1  0  0  0  0
 28 46  1  0  0  0  0
 29 30  1  0  0  0  0
 29 44  1  1  0  0  0
 30 31  1  0  0  0  0
 30 42  1  0  0  0  0
 30 43  1  0  0  0  0
 31 32  1  0  0  0  0
 31 41  1  0  0  0  0
 32 33  2  0  0  0  0
 32 37  1  0  0  0  0
 33 34  1  0  0  0  0
 33 40  1  0  0  0  0
 34 35  2  0  0  0  0
 34 39  1  0  0  0  0
 35 36  1  0  0  0  0
 36 37  2  0  0  0  0
 36 38  1  0  0  0  0
 47 48  2  0  0  0  0
 47 53  1  0  0  0  0
 48 49  1  0  0  0  0
 48 58  1  0  0  0  0
 49 50  1  0  0  0  0
 49 51  2  0  0  0  0
 51 52  1  0  0  0  0
 51 57  1  0  0  0  0
 52 53  2  0  0  0  0
 52 56  1  0  0  0  0
 53 54  1  0  0  0  0
 54 55  2  0  0  0  0
M  END
>  <MODEL>
       1

$$$$
