tmp_first_model_13_19.pdb
 OpenBabel08282500103D

 42 45  0  0  1  0  0  0  0  0999 V2000
   -9.1450   -0.0630  -20.7250 O   0  0  0  0  0  0  0  0  0  0  0  0
   -8.6540   -0.9070  -21.4510 C   0  0  0  0  0  0  0  0  0  0  0  0
   -9.3670   -1.5020  -22.6770 C   0  0  1  0  0  0  0  0  0  0  0  0
  -10.4390   -0.5570  -23.1870 C   0  0  0  0  0  0  0  0  0  0  0  0
  -10.1010    0.7540  -23.5120 C   0  0  0  0  0  0  0  0  0  0  0  0
  -11.0720    1.6270  -23.9700 C   0  0  0  0  0  0  0  0  0  0  0  0
  -12.4000    1.2400  -24.0850 C   0  0  0  0  0  0  0  0  0  0  0  0
  -13.5480    2.5030  -24.3780 Cl  0  0  0  0  0  0  0  0  0  0  0  0
  -12.7290   -0.0990  -23.8620 C   0  0  0  0  0  0  0  0  0  0  0  0
  -14.3310   -0.6910  -24.1120 Cl  0  0  0  0  0  0  0  0  0  0  0  0
  -11.7490   -0.9850  -23.4040 C   0  0  0  0  0  0  0  0  0  0  0  0
  -12.0450   -2.0120  -23.1890 H   0  0  0  0  0  0  0  0  0  0  0  0
  -10.8340    2.6530  -24.2060 H   0  0  0  0  0  0  0  0  0  0  0  0
   -9.0890    1.1210  -23.3400 H   0  0  0  0  0  0  0  0  0  0  0  0
   -8.3350   -1.7870  -23.7760 C   0  0  0  0  0  0  0  0  0  0  0  0
   -7.2410   -2.7560  -23.3380 C   0  0  2  0  0  0  0  0  0  0  0  0
   -7.5390   -4.1080  -23.6570 O   0  0  0  0  0  0  0  0  0  0  0  0
   -8.3980   -4.3160  -23.2680 H   0  0  0  0  0  0  0  0  0  0  0  0
   -6.9330   -2.6360  -21.8360 C   0  0  0  0  0  0  0  0  0  0  0  0
   -7.3750   -1.3760  -21.2550 N   0  0  0  0  0  0  0  0  0  0  0  0
   -6.6070   -0.8070  -20.1940 C   0  0  0  0  0  0  0  0  0  0  0  0
   -6.9070   -1.0510  -18.8790 C   0  0  0  0  0  0  0  0  0  0  0  0
   -6.1940   -0.5580  -17.8360 N   0  0  0  0  0  0  0  0  0  0  0  0
   -5.1630    0.2060  -18.0860 C   0  0  0  0  0  0  0  0  0  0  0  0
   -4.7240    0.5280  -19.4000 C   0  0  0  0  0  0  0  0  0  0  0  0
   -3.5960    1.3580  -19.6400 C   0  0  0  0  0  0  0  0  0  0  0  0
   -3.2100    1.6430  -20.9210 C   0  0  0  0  0  0  0  0  0  0  0  0
   -3.9320    1.1060  -22.0120 C   0  0  0  0  0  0  0  0  0  0  0  0
   -5.0230    0.3020  -21.8000 C   0  0  0  0  0  0  0  0  0  0  0  0
   -5.4550   -0.0030  -20.4860 C   0  0  0  0  0  0  0  0  0  0  0  0
   -5.5830   -0.0990  -22.6380 H   0  0  0  0  0  0  0  0  0  0  0  0
   -3.6300    1.3420  -23.0270 H   0  0  0  0  0  0  0  0  0  0  0  0
   -2.3590    2.2910  -21.1080 H   0  0  0  0  0  0  0  0  0  0  0  0
   -3.0640    1.7690  -18.7860 H   0  0  0  0  0  0  0  0  0  0  0  0
   -4.6210    0.6120  -17.2290 H   0  0  0  0  0  0  0  0  0  0  0  0
   -7.7540   -1.6690  -18.5920 H   0  0  0  0  0  0  0  0  0  0  0  0
   -7.3920   -3.5100  -21.3370 H   0  0  0  0  0  0  0  0  0  0  0  0
   -5.8580   -2.6950  -21.6670 H   0  0  0  0  0  0  0  0  0  0  0  0
   -6.3400   -2.5450  -23.9210 H   0  0  0  0  0  0  0  0  0  0  0  0
   -7.8970   -0.8300  -24.0870 H   0  0  0  0  0  0  0  0  0  0  0  0
   -8.8260   -2.2060  -24.6600 H   0  0  0  0  0  0  0  0  0  0  0  0
   -9.8480   -2.4440  -22.3770 H   0  0  0  0  0  0  0  0  0  0  0  0
  1  2  2  0  0  0  0
  2  3  1  0  0  0  0
  2 20  1  0  0  0  0
  3  4  1  0  0  0  0
  3 15  1  0  0  0  0
  3 42  1  1  0  0  0
  4  5  2  0  0  0  0
  4 11  1  0  0  0  0
  5  6  1  0  0  0  0
  5 14  1  0  0  0  0
  6  7  2  0  0  0  0
  6 13  1  0  0  0  0
  7  8  1  0  0  0  0
  7  9  1  0  0  0  0
  9 10  1  0  0  0  0
  9 11  2  0  0  0  0
 11 12  1  0  0  0  0
 15 16  1  0  0  0  0
 15 40  1  0  0  0  0
 15 41  1  0  0  0  0
 16 17  1  0  0  0  0
 16 19  1  0  0  0  0
 16 39  1  6  0  0  0
 17 18  1  0  0  0  0
 19 20  1  0  0  0  0
 19 37  1  0  0  0  0
 19 38  1  0  0  0  0
 20 21  1  0  0  0  0
 21 22  2  0  0  0  0
 21 30  1  0  0  0  0
 22 23  1  0  0  0  0
 22 36  1  0  0  0  0
 23 24  2  0  0  0  0
 24 25  1  0  0  0  0
 24 35  1  0  0  0  0
 25 26  2  0  0  0  0
 25 30  1  0  0  0  0
 26 27  1  0  0  0  0
 26 34  1  0  0  0  0
 27 28  2  0  0  0  0
 27 33  1  0  0  0  0
 28 29  1  0  0  0  0
 28 32  1  0  0  0  0
 29 30  2  0  0  0  0
 29 31  1  0  0  0  0
M  END
>  <MODEL>
       1

$$$$
