tmp_first_model_5_59.pdb
 OpenBabel08272519233D

 60 65  0  0  1  0  0  0  0  0999 V2000
   -7.2830    3.2840  -21.7490 C   0  0  0  0  0  0  0  0  0  0  0  0
   -8.1910    2.8430  -22.7940 N   0  0  0  0  0  0  0  0  0  0  0  0
   -7.6690    2.2160  -23.8810 C   0  0  0  0  0  0  0  0  0  0  0  0
   -6.4650    2.1170  -24.0610 O   0  0  0  0  0  0  0  0  0  0  0  0
   -8.6750    1.6300  -24.8790 C   0  0  0  0  0  0  0  0  0  0  0  0
   -9.3720    0.4850  -24.3140 N   0  0  0  0  0  0  0  0  0  0  0  0
   -8.6280   -0.7590  -24.1680 C   0  0  0  0  0  0  0  0  0  0  0  0
   -9.0440   -1.5460  -22.8950 C   0  0  2  0  0  0  0  0  0  0  0  0
   -8.5190   -0.8250  -21.6300 C   0  0  0  0  0  0  0  0  0  0  0  0
   -8.9570    0.1780  -21.1110 O   0  0  0  0  0  0  0  0  0  0  0  0
   -7.4040   -1.4960  -21.1800 N   0  0  0  0  0  0  0  0  0  0  0  0
   -6.5600   -0.9520  -20.1840 C   0  0  0  0  0  0  0  0  0  0  0  0
   -6.8410   -1.1550  -18.8540 C   0  0  0  0  0  0  0  0  0  0  0  0
   -5.9500   -0.9130  -17.8590 N   0  0  0  0  0  0  0  0  0  0  0  0
   -4.7810   -0.4190  -18.1960 C   0  0  0  0  0  0  0  0  0  0  0  0
   -4.4300   -0.0260  -19.5230 C   0  0  0  0  0  0  0  0  0  0  0  0
   -3.2540    0.7240  -19.8150 C   0  0  0  0  0  0  0  0  0  0  0  0
   -3.1460    1.4010  -20.9980 C   0  0  0  0  0  0  0  0  0  0  0  0
   -4.0900    1.1960  -22.0360 C   0  0  0  0  0  0  0  0  0  0  0  0
   -5.1330    0.3230  -21.8400 C   0  0  0  0  0  0  0  0  0  0  0  0
   -5.3740   -0.2380  -20.5510 C   0  0  0  0  0  0  0  0  0  0  0  0
   -5.7950    0.0730  -22.6670 H   0  0  0  0  0  0  0  0  0  0  0  0
   -3.9850    1.7070  -22.9910 H   0  0  0  0  0  0  0  0  0  0  0  0
   -2.2740    2.0200  -21.1930 H   0  0  0  0  0  0  0  0  0  0  0  0
   -2.4950    0.8260  -19.0480 H   0  0  0  0  0  0  0  0  0  0  0  0
   -4.0570   -0.2630  -17.3930 H   0  0  0  0  0  0  0  0  0  0  0  0
   -7.8090   -1.5560  -18.5480 H   0  0  0  0  0  0  0  0  0  0  0  0
   -7.0140   -2.6310  -21.9930 C   0  0  0  0  0  0  0  0  0  0  0  0
   -8.3030   -2.9210  -22.7740 C   0  0  2  0  0  0  0  0  0  0  0  0
   -8.1210   -3.8050  -24.0290 C   0  0  0  0  0  0  0  0  0  0  0  0
   -6.9150   -3.5070  -24.8810 C   0  0  0  0  0  0  0  0  0  0  0  0
   -5.6830   -3.8920  -24.5670 N   0  0  0  0  0  0  0  0  0  0  0  0
   -4.9060   -3.3990  -25.5310 N   0  0  0  0  0  0  0  0  0  0  0  0
   -5.6440   -2.7550  -26.3940 N   0  5  0  0  0  0  0  0  0  0  0  0
   -6.9190   -2.8190  -26.0150 N   0  0  0  0  0  0  0  0  0  0  0  0
   -8.0120   -4.8500  -23.7170 H   0  0  0  0  0  0  0  0  0  0  0  0
   -9.0190   -3.7420  -24.6510 H   0  0  0  0  0  0  0  0  0  0  0  0
   -8.9210   -3.5070  -22.0910 H   0  0  0  0  0  0  0  0  0  0  0  0
   -6.7070   -3.4790  -21.3680 H   0  0  0  0  0  0  0  0  0  0  0  0
   -6.1650   -2.3910  -22.6440 H   0  0  0  0  0  0  0  0  0  0  0  0
  -10.5590   -1.6360  -22.8840 C   0  0  0  0  0  0  0  0  0  0  0  0
  -11.2150   -2.5980  -22.1050 C   0  0  0  0  0  0  0  0  0  0  0  0
  -12.5790   -2.7760  -22.2460 C   0  0  0  0  0  0  0  0  0  0  0  0
  -13.3890   -3.9660  -21.2710 Cl  0  0  0  0  0  0  0  0  0  0  0  0
  -13.3170   -2.0380  -23.1670 C   0  0  0  0  0  0  0  0  0  0  0  0
  -12.7000   -1.0090  -23.8450 C   0  0  0  0  0  0  0  0  0  0  0  0
  -11.3410   -0.7610  -23.6560 C   0  0  0  0  0  0  0  0  0  0  0  0
  -10.7420    0.4760  -24.2670 C   0  0  0  0  0  0  0  0  0  0  0  0
  -11.4280    1.4020  -24.6790 O   0  0  0  0  0  0  0  0  0  0  0  0
  -13.2520   -0.3790  -24.5330 H   0  0  0  0  0  0  0  0  0  0  0  0
  -14.3740   -2.2380  -23.2980 H   0  0  0  0  0  0  0  0  0  0  0  0
  -10.6900   -3.2000  -21.3680 H   0  0  0  0  0  0  0  0  0  0  0  0
   -8.7830   -1.3990  -25.0510 H   0  0  0  0  0  0  0  0  0  0  0  0
   -7.5610   -0.5160  -24.1210 H   0  0  0  0  0  0  0  0  0  0  0  0
   -9.4440    2.3540  -25.1680 H   0  0  0  0  0  0  0  0  0  0  0  0
   -8.1130    1.3430  -25.7780 H   0  0  0  0  0  0  0  0  0  0  0  0
   -9.1520    2.6620  -22.5400 H   0  0  0  0  0  0  0  0  0  0  0  0
   -6.5720    4.0060  -22.1570 H   0  0  0  0  0  0  0  0  0  0  0  0
   -7.8540    3.7640  -20.9550 H   0  0  0  0  0  0  0  0  0  0  0  0
   -6.7130    2.4400  -21.3390 H   0  0  0  0  0  0  0  0  0  0  0  0
  1  2  1  0  0  0  0
  1 58  1  0  0  0  0
  1 59  1  0  0  0  0
  1 60  1  0  0  0  0
  2  3  1  0  0  0  0
  2 57  1  0  0  0  0
  3  4  2  0  0  0  0
  3  5  1  0  0  0  0
  5  6  1  0  0  0  0
  5 55  1  0  0  0  0
  5 56  1  0  0  0  0
  6  7  1  0  0  0  0
  6 48  1  0  0  0  0
  7  8  1  0  0  0  0
  7 53  1  0  0  0  0
  7 54  1  0  0  0  0
  8  9  1  1  0  0  0
  8 29  1  0  0  0  0
  8 41  1  0  0  0  0
  9 10  2  0  0  0  0
  9 11  1  0  0  0  0
 11 12  1  0  0  0  0
 11 28  1  0  0  0  0
 12 13  2  0  0  0  0
 12 21  1  0  0  0  0
 13 14  1  0  0  0  0
 13 27  1  0  0  0  0
 14 15  2  0  0  0  0
 15 16  1  0  0  0  0
 15 26  1  0  0  0  0
 16 17  2  0  0  0  0
 16 21  1  0  0  0  0
 17 18  1  0  0  0  0
 17 25  1  0  0  0  0
 18 19  2  0  0  0  0
 18 24  1  0  0  0  0
 19 20  1  0  0  0  0
 19 23  1  0  0  0  0
 20 21  2  0  0  0  0
 20 22  1  0  0  0  0
 28 29  1  0  0  0  0
 28 39  1  0  0  0  0
 28 40  1  0  0  0  0
 29 30  1  0  0  0  0
 29 38  1  1  0  0  0
 30 31  1  0  0  0  0
 30 36  1  0  0  0  0
 30 37  1  0  0  0  0
 31 32  1  0  0  0  0
 31 35  2  0  0  0  0
 32 33  2  0  0  0  0
 33 34  1  0  0  0  0
 34 35  1  0  0  0  0
 41 42  2  0  0  0  0
 41 47  1  0  0  0  0
 42 43  1  0  0  0  0
 42 52  1  0  0  0  0
 43 44  1  0  0  0  0
 43 45  2  0  0  0  0
 45 46  1  0  0  0  0
 45 51  1  0  0  0  0
 46 47  2  0  0  0  0
 46 50  1  0  0  0  0
 47 48  1  0  0  0  0
 48 49  2  0  0  0  0
M  CHG  1  34  -1
M  END
>  <MODEL>
       1

$$$$
