tmp_first_model_13_1.pdb
 OpenBabel08282500103D

 68 73  0  0  1  0  0  0  0  0999 V2000
   -7.5310    3.2020  -21.6340 C   0  0  0  0  0  0  0  0  0  0  0  0
   -8.5160    2.8320  -22.6210 N   0  0  0  0  0  0  0  0  0  0  0  0
   -8.0430    2.1700  -23.7060 C   0  0  0  0  0  0  0  0  0  0  0  0
   -6.8400    2.0470  -23.8970 O   0  0  0  0  0  0  0  0  0  0  0  0
   -9.0410    1.5780  -24.6790 C   0  0  0  0  0  0  0  0  0  0  0  0
   -9.6600    0.3770  -24.1650 N   0  0  0  0  0  0  0  0  0  0  0  0
   -8.8720   -0.8400  -24.0860 C   0  0  0  0  0  0  0  0  0  0  0  0
   -9.1550   -1.6200  -22.7790 C   0  0  2  0  0  0  0  0  0  0  0  0
   -8.6000   -0.8280  -21.5730 C   0  0  0  0  0  0  0  0  0  0  0  0
   -9.1090    0.1340  -21.0350 O   0  0  0  0  0  0  0  0  0  0  0  0
   -7.4000   -1.3890  -21.1980 N   0  0  0  0  0  0  0  0  0  0  0  0
   -6.6010   -0.8170  -20.1750 C   0  0  0  0  0  0  0  0  0  0  0  0
   -6.9120   -1.0450  -18.8550 C   0  0  0  0  0  0  0  0  0  0  0  0
   -6.2060   -0.5480  -17.8130 N   0  0  0  0  0  0  0  0  0  0  0  0
   -5.1700    0.2080  -18.0820 C   0  0  0  0  0  0  0  0  0  0  0  0
   -4.7360    0.5270  -19.4000 C   0  0  0  0  0  0  0  0  0  0  0  0
   -3.6160    1.3670  -19.6410 C   0  0  0  0  0  0  0  0  0  0  0  0
   -3.2340    1.6680  -20.9220 C   0  0  0  0  0  0  0  0  0  0  0  0
   -3.9550    1.1440  -22.0170 C   0  0  0  0  0  0  0  0  0  0  0  0
   -5.0460    0.3280  -21.8100 C   0  0  0  0  0  0  0  0  0  0  0  0
   -5.4650   -0.0040  -20.4910 C   0  0  0  0  0  0  0  0  0  0  0  0
   -5.6070   -0.0330  -22.6660 H   0  0  0  0  0  0  0  0  0  0  0  0
   -3.6620    1.3910  -23.0330 H   0  0  0  0  0  0  0  0  0  0  0  0
   -2.3840    2.3220  -21.1010 H   0  0  0  0  0  0  0  0  0  0  0  0
   -3.0800    1.7670  -18.7850 H   0  0  0  0  0  0  0  0  0  0  0  0
   -4.6100    0.6070  -17.2370 H   0  0  0  0  0  0  0  0  0  0  0  0
   -7.7720   -1.6630  -18.6020 H   0  0  0  0  0  0  0  0  0  0  0  0
   -7.0320   -2.5670  -21.9560 C   0  0  0  0  0  0  0  0  0  0  0  0
   -8.3240   -2.9410  -22.7070 C   0  0  2  0  0  0  0  0  0  0  0  0
   -8.0600   -3.6600  -24.0420 C   0  0  0  0  0  0  0  0  0  0  0  0
   -7.4500   -4.9550  -23.8580 N   0  0  0  0  0  0  0  0  0  0  0  0
   -7.1040   -5.7570  -24.9370 C   0  0  0  0  0  0  0  0  0  0  0  0
   -6.4690   -7.0310  -24.9090 C   0  0  0  0  0  0  0  0  0  0  0  0
   -6.2820   -7.5070  -26.1330 N   0  0  0  0  0  0  0  0  0  0  0  0
   -6.7940   -6.5870  -26.9490 N   0  0  0  0  0  0  0  0  0  0  0  0
   -6.7350   -6.7650  -28.3770 C   0  0  0  0  0  0  0  0  0  0  0  0
   -5.8840   -6.2240  -28.8090 H   0  0  0  0  0  0  0  0  0  0  0  0
   -6.6210   -7.8320  -28.5710 H   0  0  0  0  0  0  0  0  0  0  0  0
   -7.6640   -6.4010  -28.8280 H   0  0  0  0  0  0  0  0  0  0  0  0
   -7.2910   -5.5120  -26.2820 C   0  0  0  0  0  0  0  0  0  0  0  0
   -7.7370   -4.6870  -26.8300 H   0  0  0  0  0  0  0  0  0  0  0  0
   -6.1300   -7.6200  -24.0660 H   0  0  0  0  0  0  0  0  0  0  0  0
   -7.2010   -5.2760  -22.9380 H   0  0  0  0  0  0  0  0  0  0  0  0
   -9.0030   -3.7790  -24.5980 H   0  0  0  0  0  0  0  0  0  0  0  0
   -7.4130   -3.0270  -24.6710 H   0  0  0  0  0  0  0  0  0  0  0  0
   -8.8810   -3.6390  -22.0790 H   0  0  0  0  0  0  0  0  0  0  0  0
   -6.2130   -2.3390  -22.6540 H   0  0  0  0  0  0  0  0  0  0  0  0
   -6.6890   -3.3610  -21.2810 H   0  0  0  0  0  0  0  0  0  0  0  0
  -10.6640   -1.7620  -22.6490 C   0  0  0  0  0  0  0  0  0  0  0  0
  -11.2210   -2.7350  -21.8110 C   0  0  0  0  0  0  0  0  0  0  0  0
  -12.5940   -2.8010  -21.6440 C   0  0  0  0  0  0  0  0  0  0  0  0
  -13.2730   -3.9560  -20.5310 Cl  0  0  0  0  0  0  0  0  0  0  0  0
  -13.4570   -1.9340  -22.3150 C   0  0  0  0  0  0  0  0  0  0  0  0
  -12.9200   -0.9410  -23.1110 C   0  0  0  0  0  0  0  0  0  0  0  0
  -11.5360   -0.8380  -23.2470 C   0  0  0  0  0  0  0  0  0  0  0  0
  -11.0170    0.3520  -23.9910 C   0  0  0  0  0  0  0  0  0  0  0  0
  -11.7600    1.2440  -24.3830 O   0  0  0  0  0  0  0  0  0  0  0  0
  -13.5410   -0.2060  -23.6190 H   0  0  0  0  0  0  0  0  0  0  0  0
  -14.5260   -2.0370  -22.1800 H   0  0  0  0  0  0  0  0  0  0  0  0
  -10.5900   -3.4280  -21.2650 H   0  0  0  0  0  0  0  0  0  0  0  0
   -9.1170   -1.4890  -24.9380 H   0  0  0  0  0  0  0  0  0  0  0  0
   -7.8140   -0.5610  -24.1450 H   0  0  0  0  0  0  0  0  0  0  0  0
   -8.4580    1.3590  -25.5780 H   0  0  0  0  0  0  0  0  0  0  0  0
   -9.8580    2.2690  -24.8940 H   0  0  0  0  0  0  0  0  0  0  0  0
   -9.4690    2.7440  -22.3070 H   0  0  0  0  0  0  0  0  0  0  0  0
   -8.0170    3.4520  -20.7040 H   0  0  0  0  0  0  0  0  0  0  0  0
   -6.8470    2.3760  -21.4500 H   0  0  0  0  0  0  0  0  0  0  0  0
   -6.9280    4.0340  -21.9870 H   0  0  0  0  0  0  0  0  0  0  0  0
  1  2  1  0  0  0  0
  1 66  1  0  0  0  0
  1 67  1  0  0  0  0
  1 68  1  0  0  0  0
  2  3  1  0  0  0  0
  2 65  1  0  0  0  0
  3  4  2  0  0  0  0
  3  5  1  0  0  0  0
  5  6  1  0  0  0  0
  5 63  1  0  0  0  0
  5 64  1  0  0  0  0
  6  7  1  0  0  0  0
  6 56  1  0  0  0  0
  7  8  1  0  0  0  0
  7 61  1  0  0  0  0
  7 62  1  0  0  0  0
  8  9  1  1  0  0  0
  8 29  1  0  0  0  0
  8 49  1  0  0  0  0
  9 10  2  0  0  0  0
  9 11  1  0  0  0  0
 11 12  1  0  0  0  0
 11 28  1  0  0  0  0
 12 13  2  0  0  0  0
 12 21  1  0  0  0  0
 13 14  1  0  0  0  0
 13 27  1  0  0  0  0
 14 15  2  0  0  0  0
 15 16  1  0  0  0  0
 15 26  1  0  0  0  0
 16 17  2  0  0  0  0
 16 21  1  0  0  0  0
 17 18  1  0  0  0  0
 17 25  1  0  0  0  0
 18 19  2  0  0  0  0
 18 24  1  0  0  0  0
 19 20  1  0  0  0  0
 19 23  1  0  0  0  0
 20 21  2  0  0  0  0
 20 22  1  0  0  0  0
 28 29  1  0  0  0  0
 28 47  1  0  0  0  0
 28 48  1  0  0  0  0
 29 30  1  0  0  0  0
 29 46  1  1  0  0  0
 30 31  1  0  0  0  0
 30 44  1  0  0  0  0
 30 45  1  0  0  0  0
 31 32  1  0  0  0  0
 31 43  1  0  0  0  0
 32 33  1  0  0  0  0
 32 40  2  0  0  0  0
 33 34  2  0  0  0  0
 33 42  1  0  0  0  0
 34 35  1  0  0  0  0
 35 36  1  0  0  0  0
 35 40  1  0  0  0  0
 36 37  1  0  0  0  0
 36 38  1  0  0  0  0
 36 39  1  0  0  0  0
 40 41  1  0  0  0  0
 49 50  2  0  0  0  0
 49 55  1  0  0  0  0
 50 51  1  0  0  0  0
 50 60  1  0  0  0  0
 51 52  1  0  0  0  0
 51 53  2  0  0  0  0
 53 54  1  0  0  0  0
 53 59  1  0  0  0  0
 54 55  2  0  0  0  0
 54 58  1  0  0  0  0
 55 56  1  0  0  0  0
 56 57  2  0  0  0  0
M  END
>  <MODEL>
       1

$$$$
