tmp_first_model_15_48.pdb
 OpenBabel08282501153D

 46 48  0  0  0  0  0  0  0  0999 V2000
   -8.2630   -6.6130  -26.1630 C   0  0  0  0  0  0  0  0  0  0  0  0
   -9.3750   -6.4990  -25.1230 C   0  0  0  0  0  0  0  0  0  0  0  0
  -10.7250   -6.3540  -25.8230 C   0  0  0  0  0  0  0  0  0  0  0  0
  -11.5630   -6.3000  -25.1200 H   0  0  0  0  0  0  0  0  0  0  0  0
  -10.8860   -7.2310  -26.4560 H   0  0  0  0  0  0  0  0  0  0  0  0
  -10.7700   -5.4560  -26.4500 H   0  0  0  0  0  0  0  0  0  0  0  0
   -9.1620   -5.4450  -24.0150 C   0  0  0  0  0  0  0  0  0  0  0  0
   -9.0040   -3.9820  -24.4610 C   0  0  0  0  0  0  0  0  0  0  0  0
   -8.7230   -3.1380  -23.2110 C   0  0  0  0  0  0  0  0  0  0  0  0
   -7.4320   -3.5370  -22.6290 N   0  0  0  0  0  0  0  0  0  0  0  0
   -6.7000   -2.7780  -21.7690 C   0  0  0  0  0  0  0  0  0  0  0  0
   -5.5740   -3.0980  -21.4020 O   0  0  0  0  0  0  0  0  0  0  0  0
   -7.3780   -1.5100  -21.2710 C   0  0  0  0  0  0  0  0  0  0  0  0
   -6.5960   -0.8580  -20.1840 C   0  0  0  0  0  0  0  0  0  0  0  0
   -6.9180   -1.0790  -18.8750 C   0  0  0  0  0  0  0  0  0  0  0  0
   -6.2540   -0.5720  -17.8050 N   0  0  0  0  0  0  0  0  0  0  0  0
   -5.2140    0.1850  -18.0710 C   0  0  0  0  0  0  0  0  0  0  0  0
   -4.7530    0.4820  -19.3840 C   0  0  0  0  0  0  0  0  0  0  0  0
   -3.6350    1.3200  -19.6160 C   0  0  0  0  0  0  0  0  0  0  0  0
   -3.2270    1.5990  -20.8910 C   0  0  0  0  0  0  0  0  0  0  0  0
   -3.9190    1.0510  -21.9940 C   0  0  0  0  0  0  0  0  0  0  0  0
   -5.0040    0.2340  -21.7970 C   0  0  0  0  0  0  0  0  0  0  0  0
   -5.4540   -0.0620  -20.4820 C   0  0  0  0  0  0  0  0  0  0  0  0
   -5.5200   -0.1810  -22.6570 H   0  0  0  0  0  0  0  0  0  0  0  0
   -3.5950    1.2940  -23.0000 H   0  0  0  0  0  0  0  0  0  0  0  0
   -2.3780    2.2510  -21.0650 H   0  0  0  0  0  0  0  0  0  0  0  0
   -3.1270    1.7540  -18.7590 H   0  0  0  0  0  0  0  0  0  0  0  0
   -4.6780    0.6110  -17.2240 H   0  0  0  0  0  0  0  0  0  0  0  0
   -7.7780   -1.7060  -18.6340 H   0  0  0  0  0  0  0  0  0  0  0  0
   -8.3720   -1.7940  -20.9040 H   0  0  0  0  0  0  0  0  0  0  0  0
   -7.5050   -0.8250  -22.1190 H   0  0  0  0  0  0  0  0  0  0  0  0
   -6.8910   -4.8390  -22.9910 C   0  0  0  0  0  0  0  0  0  0  0  0
   -8.0280   -5.8460  -23.0350 C   0  0  0  0  0  0  0  0  0  0  0  0
   -7.6290   -6.8410  -23.2550 H   0  0  0  0  0  0  0  0  0  0  0  0
   -8.4340   -5.9170  -22.0220 H   0  0  0  0  0  0  0  0  0  0  0  0
   -6.1500   -5.1150  -22.2360 H   0  0  0  0  0  0  0  0  0  0  0  0
   -6.3690   -4.7750  -23.9570 H   0  0  0  0  0  0  0  0  0  0  0  0
   -8.6970   -2.0720  -23.4630 H   0  0  0  0  0  0  0  0  0  0  0  0
   -9.5560   -3.2600  -22.4890 H   0  0  0  0  0  0  0  0  0  0  0  0
   -9.9220   -3.6180  -24.9470 H   0  0  0  0  0  0  0  0  0  0  0  0
   -8.1890   -3.8670  -25.1920 H   0  0  0  0  0  0  0  0  0  0  0  0
  -10.0840   -5.4240  -23.4150 H   0  0  0  0  0  0  0  0  0  0  0  0
   -9.3920   -7.4630  -24.5980 H   0  0  0  0  0  0  0  0  0  0  0  0
   -7.2730   -6.7330  -25.7080 H   0  0  0  0  0  0  0  0  0  0  0  0
   -8.2390   -5.7270  -26.8040 H   0  0  0  0  0  0  0  0  0  0  0  0
   -8.4690   -7.4810  -26.8050 H   0  0  0  0  0  0  0  0  0  0  0  0
  1  2  1  0  0  0  0
  1 44  1  0  0  0  0
  1 45  1  0  0  0  0
  1 46  1  0  0  0  0
  2  3  1  0  0  0  0
  2  7  1  0  0  0  0
  2 43  1  0  0  0  0
  3  4  1  0  0  0  0
  3  5  1  0  0  0  0
  3  6  1  0  0  0  0
  7  8  1  0  0  0  0
  7 33  1  0  0  0  0
  7 42  1  0  0  0  0
  8  9  1  0  0  0  0
  8 40  1  0  0  0  0
  8 41  1  0  0  0  0
  9 10  1  0  0  0  0
  9 38  1  0  0  0  0
  9 39  1  0  0  0  0
 10 11  1  0  0  0  0
 10 32  1  0  0  0  0
 11 12  2  0  0  0  0
 11 13  1  0  0  0  0
 13 14  1  0  0  0  0
 13 30  1  0  0  0  0
 13 31  1  0  0  0  0
 14 15  2  0  0  0  0
 14 23  1  0  0  0  0
 15 16  1  0  0  0  0
 15 29  1  0  0  0  0
 16 17  2  0  0  0  0
 17 18  1  0  0  0  0
 17 28  1  0  0  0  0
 18 19  2  0  0  0  0
 18 23  1  0  0  0  0
 19 20  1  0  0  0  0
 19 27  1  0  0  0  0
 20 21  2  0  0  0  0
 20 26  1  0  0  0  0
 21 22  1  0  0  0  0
 21 25  1  0  0  0  0
 22 23  2  0  0  0  0
 22 24  1  0  0  0  0
 32 33  1  0  0  0  0
 32 36  1  0  0  0  0
 32 37  1  0  0  0  0
 33 34  1  0  0  0  0
 33 35  1  0  0  0  0
M  END
>  <MODEL>
       1

$$$$
