tmp_first_model_15_52.pdb
 OpenBabel08282501153D

 57 60  0  0  0  0  0  0  0  0999 V2000
  -13.9600   -1.1150  -23.7490 C   0  0  0  0  0  0  0  0  0  0  0  0
  -13.1680   -1.3760  -25.0410 C   0  0  0  0  0  0  0  0  0  0  0  0
  -11.7430   -0.8430  -25.1390 C   0  0  0  0  0  0  0  0  0  0  0  0
  -11.4860    0.3220  -25.3930 O   0  0  0  0  0  0  0  0  0  0  0  0
  -10.7710   -1.7980  -24.9540 N   0  0  0  0  0  0  0  0  0  0  0  0
   -9.3800   -1.5840  -25.0540 C   0  0  0  0  0  0  0  0  0  0  0  0
   -8.8270   -0.7840  -26.0480 C   0  0  0  0  0  0  0  0  0  0  0  0
   -7.4440   -0.6470  -26.0880 C   0  0  0  0  0  0  0  0  0  0  0  0
   -6.6240   -1.2590  -25.1460 C   0  0  0  0  0  0  0  0  0  0  0  0
   -7.1860   -2.0510  -24.1470 C   0  0  0  0  0  0  0  0  0  0  0  0
   -6.3400   -2.6820  -23.1910 N   0  0  0  0  0  0  0  0  0  0  0  0
   -5.3410   -3.6270  -23.6880 C   0  0  0  0  0  0  0  0  0  0  0  0
   -5.9760   -4.9480  -24.0780 C   0  0  0  0  0  0  0  0  0  0  0  0
   -6.0200   -6.0080  -23.1730 C   0  0  0  0  0  0  0  0  0  0  0  0
   -6.7820   -7.1360  -23.4570 C   0  0  0  0  0  0  0  0  0  0  0  0
   -7.4900   -7.2220  -24.6500 C   0  0  0  0  0  0  0  0  0  0  0  0
   -7.3840   -6.2090  -25.5970 C   0  0  0  0  0  0  0  0  0  0  0  0
   -6.6120   -5.0870  -25.3140 C   0  0  0  0  0  0  0  0  0  0  0  0
   -6.5070   -4.3070  -26.0690 H   0  0  0  0  0  0  0  0  0  0  0  0
   -7.8970   -6.2850  -26.5550 H   0  0  0  0  0  0  0  0  0  0  0  0
   -8.1010   -8.1000  -24.8440 H   0  0  0  0  0  0  0  0  0  0  0  0
   -6.8220   -7.9600  -22.7500 H   0  0  0  0  0  0  0  0  0  0  0  0
   -5.4600   -5.9500  -22.2400 H   0  0  0  0  0  0  0  0  0  0  0  0
   -4.8520   -3.1640  -24.5490 H   0  0  0  0  0  0  0  0  0  0  0  0
   -4.5980   -3.7500  -22.8990 H   0  0  0  0  0  0  0  0  0  0  0  0
   -6.5680   -2.6700  -21.8260 C   0  0  0  0  0  0  0  0  0  0  0  0
   -6.0770   -3.5150  -21.1000 O   0  0  0  0  0  0  0  0  0  0  0  0
   -7.3750   -1.5020  -21.2560 C   0  0  0  0  0  0  0  0  0  0  0  0
   -6.5930   -0.8310  -20.1640 C   0  0  0  0  0  0  0  0  0  0  0  0
   -6.9020   -1.0560  -18.8520 C   0  0  0  0  0  0  0  0  0  0  0  0
   -6.2290   -0.5440  -17.7880 N   0  0  0  0  0  0  0  0  0  0  0  0
   -5.1970    0.2170  -18.0590 C   0  0  0  0  0  0  0  0  0  0  0  0
   -4.7490    0.5250  -19.3740 C   0  0  0  0  0  0  0  0  0  0  0  0
   -3.6200    1.3510  -19.6030 C   0  0  0  0  0  0  0  0  0  0  0  0
   -3.2070    1.6290  -20.8760 C   0  0  0  0  0  0  0  0  0  0  0  0
   -3.9130    1.0940  -21.9770 C   0  0  0  0  0  0  0  0  0  0  0  0
   -5.0140    0.2960  -21.7860 C   0  0  0  0  0  0  0  0  0  0  0  0
   -5.4630   -0.0140  -20.4690 C   0  0  0  0  0  0  0  0  0  0  0  0
   -5.5400   -0.0950  -22.6570 H   0  0  0  0  0  0  0  0  0  0  0  0
   -3.5820    1.3290  -22.9840 H   0  0  0  0  0  0  0  0  0  0  0  0
   -2.3440    2.2660  -21.0490 H   0  0  0  0  0  0  0  0  0  0  0  0
   -3.1010    1.7700  -18.7440 H   0  0  0  0  0  0  0  0  0  0  0  0
   -4.6510    0.6340  -17.2110 H   0  0  0  0  0  0  0  0  0  0  0  0
   -7.7520   -1.6900  -18.5980 H   0  0  0  0  0  0  0  0  0  0  0  0
   -7.6310   -0.7900  -22.0450 H   0  0  0  0  0  0  0  0  0  0  0  0
   -8.3140   -1.9060  -20.8530 H   0  0  0  0  0  0  0  0  0  0  0  0
   -8.5640   -2.2460  -24.1350 C   0  0  0  0  0  0  0  0  0  0  0  0
   -9.0200   -2.8920  -23.3910 H   0  0  0  0  0  0  0  0  0  0  0  0
   -5.5480   -1.1090  -25.1690 H   0  0  0  0  0  0  0  0  0  0  0  0
   -6.9920   -0.0430  -26.8680 H   0  0  0  0  0  0  0  0  0  0  0  0
   -9.4630   -0.2910  -26.7820 H   0  0  0  0  0  0  0  0  0  0  0  0
  -11.0470   -2.7240  -24.6550 H   0  0  0  0  0  0  0  0  0  0  0  0
  -13.1650   -2.4530  -25.2410 H   0  0  0  0  0  0  0  0  0  0  0  0
  -13.7160   -0.8660  -25.8430 H   0  0  0  0  0  0  0  0  0  0  0  0
  -14.9960   -1.4390  -23.9100 H   0  0  0  0  0  0  0  0  0  0  0  0
  -14.0250   -0.0430  -23.5360 H   0  0  0  0  0  0  0  0  0  0  0  0
  -13.5870   -1.6350  -22.8530 H   0  0  0  0  0  0  0  0  0  0  0  0
  1  2  1  0  0  0  0
  1 55  1  0  0  0  0
  1 56  1  0  0  0  0
  1 57  1  0  0  0  0
  2  3  1  0  0  0  0
  2 53  1  0  0  0  0
  2 54  1  0  0  0  0
  3  4  2  0  0  0  0
  3  5  1  0  0  0  0
  5  6  1  0  0  0  0
  5 52  1  0  0  0  0
  6  7  2  0  0  0  0
  6 47  1  0  0  0  0
  7  8  1  0  0  0  0
  7 51  1  0  0  0  0
  8  9  2  0  0  0  0
  8 50  1  0  0  0  0
  9 10  1  0  0  0  0
  9 49  1  0  0  0  0
 10 11  1  0  0  0  0
 10 47  2  0  0  0  0
 11 12  1  0  0  0  0
 11 26  1  0  0  0  0
 12 13  1  0  0  0  0
 12 24  1  0  0  0  0
 12 25  1  0  0  0  0
 13 14  2  0  0  0  0
 13 18  1  0  0  0  0
 14 15  1  0  0  0  0
 14 23  1  0  0  0  0
 15 16  2  0  0  0  0
 15 22  1  0  0  0  0
 16 17  1  0  0  0  0
 16 21  1  0  0  0  0
 17 18  2  0  0  0  0
 17 20  1  0  0  0  0
 18 19  1  0  0  0  0
 26 27  2  0  0  0  0
 26 28  1  0  0  0  0
 28 29  1  0  0  0  0
 28 45  1  0  0  0  0
 28 46  1  0  0  0  0
 29 30  2  0  0  0  0
 29 38  1  0  0  0  0
 30 31  1  0  0  0  0
 30 44  1  0  0  0  0
 31 32  2  0  0  0  0
 32 33  1  0  0  0  0
 32 43  1  0  0  0  0
 33 34  2  0  0  0  0
 33 38  1  0  0  0  0
 34 35  1  0  0  0  0
 34 42  1  0  0  0  0
 35 36  2  0  0  0  0
 35 41  1  0  0  0  0
 36 37  1  0  0  0  0
 36 40  1  0  0  0  0
 37 38  2  0  0  0  0
 37 39  1  0  0  0  0
 47 48  1  0  0  0  0
M  END
>  <MODEL>
       1

$$$$
