tmp_first_model_14_6.pdb
 OpenBabel08282500413D

 43 45  0  0  0  0  0  0  0  0999 V2000
  -14.5050   -2.7190  -22.6860 C   0  0  0  0  0  0  0  0  0  0  0  0
  -13.0540   -3.1120  -22.9830 C   0  0  0  0  0  0  0  0  0  0  0  0
  -12.2100   -1.9740  -23.5960 C   0  0  0  0  0  0  0  0  0  0  0  0
  -12.0850   -0.8030  -22.6200 C   0  0  0  0  0  0  0  0  0  0  0  0
  -10.7560   -0.0420  -22.6950 C   0  0  0  0  0  0  0  0  0  0  0  0
   -9.6410   -0.9510  -22.4180 N   0  0  0  0  0  0  0  0  0  0  0  0
   -8.5260   -0.4410  -21.8010 C   0  0  0  0  0  0  0  0  0  0  0  0
   -8.3780    0.7620  -21.6580 O   0  0  0  0  0  0  0  0  0  0  0  0
   -7.4640   -1.4340  -21.2650 C   0  0  0  0  0  0  0  0  0  0  0  0
   -6.5860   -0.8270  -20.1930 C   0  0  0  0  0  0  0  0  0  0  0  0
   -6.8860   -1.0290  -18.8720 C   0  0  0  0  0  0  0  0  0  0  0  0
   -6.2100   -0.5010  -17.8210 N   0  0  0  0  0  0  0  0  0  0  0  0
   -5.1620    0.2360  -18.0820 C   0  0  0  0  0  0  0  0  0  0  0  0
   -4.7210    0.5340  -19.3950 C   0  0  0  0  0  0  0  0  0  0  0  0
   -3.5940    1.3610  -19.6280 C   0  0  0  0  0  0  0  0  0  0  0  0
   -3.2060    1.6580  -20.9030 C   0  0  0  0  0  0  0  0  0  0  0  0
   -3.9340    1.1340  -21.9990 C   0  0  0  0  0  0  0  0  0  0  0  0
   -5.0300    0.3290  -21.7940 C   0  0  0  0  0  0  0  0  0  0  0  0
   -5.4560    0.0010  -20.4840 C   0  0  0  0  0  0  0  0  0  0  0  0
   -5.5930   -0.0490  -22.6410 H   0  0  0  0  0  0  0  0  0  0  0  0
   -3.6270    1.3800  -23.0070 H   0  0  0  0  0  0  0  0  0  0  0  0
   -2.3550    2.3080  -21.0840 H   0  0  0  0  0  0  0  0  0  0  0  0
   -3.0650    1.7680  -18.7690 H   0  0  0  0  0  0  0  0  0  0  0  0
   -4.6080    0.6270  -17.2260 H   0  0  0  0  0  0  0  0  0  0  0  0
   -7.7260   -1.6570  -18.5820 H   0  0  0  0  0  0  0  0  0  0  0  0
   -6.8440   -1.7980  -22.0980 H   0  0  0  0  0  0  0  0  0  0  0  0
   -7.9730   -2.3190  -20.8560 H   0  0  0  0  0  0  0  0  0  0  0  0
   -9.7570   -2.3240  -22.9000 C   0  0  0  0  0  0  0  0  0  0  0  0
  -10.8090   -2.4340  -24.0090 C   0  0  0  0  0  0  0  0  0  0  0  0
  -10.4830   -1.8370  -24.8700 H   0  0  0  0  0  0  0  0  0  0  0  0
  -10.8650   -3.4750  -24.3360 H   0  0  0  0  0  0  0  0  0  0  0  0
   -8.7890   -2.6290  -23.3130 H   0  0  0  0  0  0  0  0  0  0  0  0
   -9.9880   -3.0150  -22.0730 H   0  0  0  0  0  0  0  0  0  0  0  0
  -10.6290    0.4470  -23.6760 H   0  0  0  0  0  0  0  0  0  0  0  0
  -10.6950    0.7560  -21.9550 H   0  0  0  0  0  0  0  0  0  0  0  0
  -12.9380   -0.1430  -22.7870 H   0  0  0  0  0  0  0  0  0  0  0  0
  -12.1810   -1.2530  -21.6330 H   0  0  0  0  0  0  0  0  0  0  0  0
  -12.7390   -1.6350  -24.5000 H   0  0  0  0  0  0  0  0  0  0  0  0
  -12.5730   -3.4840  -22.0630 H   0  0  0  0  0  0  0  0  0  0  0  0
  -13.0480   -3.9570  -23.6840 H   0  0  0  0  0  0  0  0  0  0  0  0
  -15.0840   -3.5840  -22.3470 H   0  0  0  0  0  0  0  0  0  0  0  0
  -14.5810   -1.9500  -21.9070 H   0  0  0  0  0  0  0  0  0  0  0  0
  -14.9970   -2.3250  -23.5840 H   0  0  0  0  0  0  0  0  0  0  0  0
  1  2  1  0  0  0  0
  1 41  1  0  0  0  0
  1 42  1  0  0  0  0
  1 43  1  0  0  0  0
  2  3  1  0  0  0  0
  2 39  1  0  0  0  0
  2 40  1  0  0  0  0
  3  4  1  0  0  0  0
  3 29  1  0  0  0  0
  3 38  1  0  0  0  0
  4  5  1  0  0  0  0
  4 36  1  0  0  0  0
  4 37  1  0  0  0  0
  5  6  1  0  0  0  0
  5 34  1  0  0  0  0
  5 35  1  0  0  0  0
  6  7  1  0  0  0  0
  6 28  1  0  0  0  0
  7  8  2  0  0  0  0
  7  9  1  0  0  0  0
  9 10  1  0  0  0  0
  9 26  1  0  0  0  0
  9 27  1  0  0  0  0
 10 11  2  0  0  0  0
 10 19  1  0  0  0  0
 11 12  1  0  0  0  0
 11 25  1  0  0  0  0
 12 13  2  0  0  0  0
 13 14  1  0  0  0  0
 13 24  1  0  0  0  0
 14 15  2  0  0  0  0
 14 19  1  0  0  0  0
 15 16  1  0  0  0  0
 15 23  1  0  0  0  0
 16 17  2  0  0  0  0
 16 22  1  0  0  0  0
 17 18  1  0  0  0  0
 17 21  1  0  0  0  0
 18 19  2  0  0  0  0
 18 20  1  0  0  0  0
 28 29  1  0  0  0  0
 28 32  1  0  0  0  0
 28 33  1  0  0  0  0
 29 30  1  0  0  0  0
 29 31  1  0  0  0  0
M  END
>  <MODEL>
       1

$$$$
