tmp_first_model_14_35.pdb
 OpenBabel08282500413D

 40 42  0  0  0  0  0  0  0  0999 V2000
   -9.1560   -1.9190  -22.7470 O   0  0  0  0  0  0  0  0  0  0  0  0
   -8.3030   -1.1080  -22.4060 C   0  0  0  0  0  0  0  0  0  0  0  0
   -6.9670   -1.5850  -21.8510 C   0  0  0  0  0  0  0  0  0  0  0  0
   -6.3940   -0.8000  -20.6740 C   0  0  0  0  0  0  0  0  0  0  0  0
   -7.0060   -0.8740  -19.4450 C   0  0  0  0  0  0  0  0  0  0  0  0
   -6.5380   -0.3260  -18.2940 N   0  0  0  0  0  0  0  0  0  0  0  0
   -5.4220    0.3540  -18.3710 C   0  0  0  0  0  0  0  0  0  0  0  0
   -4.7050    0.5760  -19.5760 C   0  0  0  0  0  0  0  0  0  0  0  0
   -3.5570    1.4070  -19.6190 C   0  0  0  0  0  0  0  0  0  0  0  0
   -2.9400    1.6820  -20.8080 C   0  0  0  0  0  0  0  0  0  0  0  0
   -3.4160    1.0940  -21.9990 C   0  0  0  0  0  0  0  0  0  0  0  0
   -4.5000    0.2450  -21.9730 C   0  0  0  0  0  0  0  0  0  0  0  0
   -5.1950   -0.0200  -20.7650 C   0  0  0  0  0  0  0  0  0  0  0  0
   -4.8440   -0.1940  -22.9070 H   0  0  0  0  0  0  0  0  0  0  0  0
   -2.9300    1.3260  -22.9420 H   0  0  0  0  0  0  0  0  0  0  0  0
   -2.0930    2.3620  -20.8460 H   0  0  0  0  0  0  0  0  0  0  0  0
   -3.2030    1.8450  -18.6900 H   0  0  0  0  0  0  0  0  0  0  0  0
   -5.0350    0.7860  -17.4480 H   0  0  0  0  0  0  0  0  0  0  0  0
   -7.9380   -1.4310  -19.3340 H   0  0  0  0  0  0  0  0  0  0  0  0
   -6.2400   -1.6430  -22.6690 H   0  0  0  0  0  0  0  0  0  0  0  0
   -7.1560   -2.6220  -21.5470 H   0  0  0  0  0  0  0  0  0  0  0  0
   -8.4200    0.2610  -22.4700 N   0  0  0  0  0  0  0  0  0  0  0  0
   -9.6030    1.0440  -22.0380 C   0  0  0  0  0  0  0  0  0  0  0  0
   -9.6230    0.8860  -21.8540 C   0  0  0  0  0  0  0  0  0  0  0  0
   -9.2910    2.8400  -23.7240 C   0  0  0  0  0  0  0  0  0  0  0  0
   -8.5220    5.3740  -22.8180 C   0  0  0  0  0  0  0  0  0  0  0  0
   -7.9930    4.8880  -21.7150 F   0  0  0  0  0  0  0  0  0  0  0  0
   -7.5850    5.6540  -23.7060 F   0  0  0  0  0  0  0  0  0  0  0  0
   -9.2400    6.4410  -22.5470 F   0  0  0  0  0  0  0  0  0  0  0  0
   -8.0300    2.4130  -23.7530 C   0  0  0  0  0  0  0  0  0  0  0  0
   -7.4610    1.1230  -23.2200 C   0  0  0  0  0  0  0  0  0  0  0  0
   -7.0060    0.5300  -24.0210 H   0  0  0  0  0  0  0  0  0  0  0  0
   -6.6520    1.4160  -22.5380 H   0  0  0  0  0  0  0  0  0  0  0  0
   -7.2500    3.0780  -24.1240 H   0  0  0  0  0  0  0  0  0  0  0  0
  -10.1130    2.1500  -23.6880 H   0  0  0  0  0  0  0  0  0  0  0  0
   -9.4730    3.9190  -23.7610 H   0  0  0  0  0  0  0  0  0  0  0  0
   -8.8890    1.8790  -21.5100 H   0  0  0  0  0  0  0  0  0  0  0  0
  -10.5090    1.8090  -21.7860 H   0  0  0  0  0  0  0  0  0  0  0  0
  -10.3680    0.5310  -22.8310 H   0  0  0  0  0  0  0  0  0  0  0  0
   -9.9170    0.0460  -20.5550 H   0  0  0  0  0  0  0  0  0  0  0  0
  1  2  2  0  0  0  0
  2  3  1  0  0  0  0
  2 22  1  0  0  0  0
  3  4  1  0  0  0  0
  3 20  1  0  0  0  0
  3 21  1  0  0  0  0
  4  5  2  0  0  0  0
  4 13  1  0  0  0  0
  5  6  1  0  0  0  0
  5 19  1  0  0  0  0
  6  7  2  0  0  0  0
  7  8  1  0  0  0  0
  7 18  1  0  0  0  0
  8  9  2  0  0  0  0
  8 13  1  0  0  0  0
  9 10  1  0  0  0  0
  9 17  1  0  0  0  0
 10 11  2  0  0  0  0
 10 16  1  0  0  0  0
 11 12  1  0  0  0  0
 11 15  1  0  0  0  0
 12 13  2  0  0  0  0
 12 14  1  0  0  0  0
 22 23  1  0  0  0  0
 22 31  1  0  0  0  0
 23 24  1  0  0  0  0
 23 39  1  0  0  0  0
 23 40  1  0  0  0  0
 24 25  1  0  0  0  0
 24 37  1  0  0  0  0
 24 38  1  0  0  0  0
 25 26  1  0  0  0  0
 25 30  1  0  0  0  0
 25 36  1  0  0  0  0
 26 27  1  0  0  0  0
 26 28  1  0  0  0  0
 26 29  1  0  0  0  0
 30 31  1  0  0  0  0
 30 34  1  0  0  0  0
 30 35  1  0  0  0  0
 31 32  1  0  0  0  0
 31 33  1  0  0  0  0
M  END
>  <MODEL>
       1

$$$$
