tmp_first_model_2_67.pdb
 OpenBabel08272517383D

 58 63  0  0  1  0  0  0  0  0999 V2000
   -5.7380    4.0760  -22.3490 C   0  0  0  0  0  0  0  0  0  0  0  0
   -6.8160    3.5210  -23.2280 C   0  0  0  0  0  0  0  0  0  0  0  0
   -6.7580    2.3960  -24.0990 C   0  0  0  0  0  0  0  0  0  0  0  0
   -8.0170    2.2940  -24.5960 C   0  0  0  0  0  0  0  0  0  0  0  0
   -8.6950    1.2990  -25.4970 C   0  0  0  0  0  0  0  0  0  0  0  0
   -9.3990    0.2760  -24.7470 N   0  0  0  0  0  0  0  0  0  0  0  0
   -8.7570   -0.9990  -24.4650 C   0  0  0  0  0  0  0  0  0  0  0  0
   -8.9780   -1.4740  -23.0060 C   0  0  2  0  0  0  0  0  0  0  0  0
   -8.2420   -0.5620  -21.9960 C   0  0  0  0  0  0  0  0  0  0  0  0
   -8.3780    0.6320  -21.8520 O   0  0  0  0  0  0  0  0  0  0  0  0
   -7.3850   -1.3430  -21.2480 N   0  0  0  0  0  0  0  0  0  0  0  0
   -6.6010   -0.8030  -20.2010 C   0  0  0  0  0  0  0  0  0  0  0  0
   -6.9030   -1.0660  -18.8890 C   0  0  0  0  0  0  0  0  0  0  0  0
   -6.2250   -0.5620  -17.8270 N   0  0  0  0  0  0  0  0  0  0  0  0
   -5.1960    0.2100  -18.0900 C   0  0  0  0  0  0  0  0  0  0  0  0
   -4.7480    0.5310  -19.4030 C   0  0  0  0  0  0  0  0  0  0  0  0
   -3.6140    1.3540  -19.6290 C   0  0  0  0  0  0  0  0  0  0  0  0
   -3.1890    1.6190  -20.9030 C   0  0  0  0  0  0  0  0  0  0  0  0
   -3.8830    1.0790  -22.0090 C   0  0  0  0  0  0  0  0  0  0  0  0
   -4.9890    0.2910  -21.8190 C   0  0  0  0  0  0  0  0  0  0  0  0
   -5.4600    0.0040  -20.5050 C   0  0  0  0  0  0  0  0  0  0  0  0
   -5.5140   -0.1250  -22.6750 H   0  0  0  0  0  0  0  0  0  0  0  0
   -3.5350    1.3050  -23.0150 H   0  0  0  0  0  0  0  0  0  0  0  0
   -2.3220    2.2520  -21.0690 H   0  0  0  0  0  0  0  0  0  0  0  0
   -3.0990    1.7650  -18.7660 H   0  0  0  0  0  0  0  0  0  0  0  0
   -4.6510    0.6200  -17.2400 H   0  0  0  0  0  0  0  0  0  0  0  0
   -7.7580   -1.6950  -18.6400 H   0  0  0  0  0  0  0  0  0  0  0  0
   -7.6410   -2.7590  -21.3770 C   0  0  0  0  0  0  0  0  0  0  0  0
   -8.3670   -2.8900  -22.7320 C   0  0  2  0  0  0  0  0  0  0  0  0
   -7.4530   -3.4590  -23.8220 C   0  0  0  0  0  0  0  0  0  0  0  0
   -7.1050   -4.4550  -23.5280 H   0  0  0  0  0  0  0  0  0  0  0  0
   -6.5740   -2.8330  -24.0060 H   0  0  0  0  0  0  0  0  0  0  0  0
   -7.9970   -3.5790  -24.7630 H   0  0  0  0  0  0  0  0  0  0  0  0
   -9.1760   -3.6190  -22.6520 H   0  0  0  0  0  0  0  0  0  0  0  0
   -8.2720   -3.1280  -20.5580 H   0  0  0  0  0  0  0  0  0  0  0  0
   -6.6940   -3.3090  -21.3430 H   0  0  0  0  0  0  0  0  0  0  0  0
  -10.4780   -1.4010  -22.7630 C   0  0  0  0  0  0  0  0  0  0  0  0
  -11.1320   -2.3230  -21.9440 C   0  0  0  0  0  0  0  0  0  0  0  0
  -12.5040   -2.2510  -21.7890 C   0  0  0  0  0  0  0  0  0  0  0  0
  -13.1030   -3.2140  -21.0700 F   0  0  0  0  0  0  0  0  0  0  0  0
  -13.2700   -1.2150  -22.3240 C   0  0  0  0  0  0  0  0  0  0  0  0
  -12.6160   -0.2750  -23.0970 C   0  0  0  0  0  0  0  0  0  0  0  0
  -11.2450   -0.3780  -23.3400 C   0  0  0  0  0  0  0  0  0  0  0  0
  -10.6510    0.5960  -24.2990 C   0  0  0  0  0  0  0  0  0  0  0  0
  -11.2660    1.5730  -24.7020 O   0  0  0  0  0  0  0  0  0  0  0  0
  -13.1310    0.5650  -23.5530 H   0  0  0  0  0  0  0  0  0  0  0  0
  -14.3410   -1.1640  -22.1440 H   0  0  0  0  0  0  0  0  0  0  0  0
  -10.6010   -3.1150  -21.4300 H   0  0  0  0  0  0  0  0  0  0  0  0
   -7.6910   -0.8940  -24.6690 H   0  0  0  0  0  0  0  0  0  0  0  0
   -9.1620   -1.7720  -25.1330 H   0  0  0  0  0  0  0  0  0  0  0  0
   -9.4370    1.7990  -26.1260 H   0  0  0  0  0  0  0  0  0  0  0  0
   -7.9490    0.8080  -26.1260 H   0  0  0  0  0  0  0  0  0  0  0  0
   -8.7660    3.2900  -24.1070 O   0  0  0  0  0  0  0  0  0  0  0  0
   -8.0130    4.0610  -23.2520 N   0  0  0  0  0  0  0  0  0  0  0  0
   -5.9070    1.7580  -24.2930 H   0  0  0  0  0  0  0  0  0  0  0  0
   -5.6830    3.5070  -21.4120 H   0  0  0  0  0  0  0  0  0  0  0  0
   -4.7650    3.9770  -22.8410 H   0  0  0  0  0  0  0  0  0  0  0  0
   -5.9160    5.1280  -22.1100 H   0  0  0  0  0  0  0  0  0  0  0  0
  1  2  1  0  0  0  0
  1 56  1  0  0  0  0
  1 57  1  0  0  0  0
  1 58  1  0  0  0  0
  2  3  1  0  0  0  0
  2 54  2  0  0  0  0
  3  4  2  0  0  0  0
  3 55  1  0  0  0  0
  4  5  1  0  0  0  0
  4 53  1  0  0  0  0
  5  6  1  0  0  0  0
  5 51  1  0  0  0  0
  5 52  1  0  0  0  0
  6  7  1  0  0  0  0
  6 44  1  0  0  0  0
  7  8  1  0  0  0  0
  7 49  1  0  0  0  0
  7 50  1  0  0  0  0
  8  9  1  1  0  0  0
  8 29  1  0  0  0  0
  8 37  1  0  0  0  0
  9 10  2  0  0  0  0
  9 11  1  0  0  0  0
 11 12  1  0  0  0  0
 11 28  1  0  0  0  0
 12 13  2  0  0  0  0
 12 21  1  0  0  0  0
 13 14  1  0  0  0  0
 13 27  1  0  0  0  0
 14 15  2  0  0  0  0
 15 16  1  0  0  0  0
 15 26  1  0  0  0  0
 16 17  2  0  0  0  0
 16 21  1  0  0  0  0
 17 18  1  0  0  0  0
 17 25  1  0  0  0  0
 18 19  2  0  0  0  0
 18 24  1  0  0  0  0
 19 20  1  0  0  0  0
 19 23  1  0  0  0  0
 20 21  2  0  0  0  0
 20 22  1  0  0  0  0
 28 29  1  0  0  0  0
 28 35  1  0  0  0  0
 28 36  1  0  0  0  0
 29 30  1  0  0  0  0
 29 34  1  1  0  0  0
 30 31  1  0  0  0  0
 30 32  1  0  0  0  0
 30 33  1  0  0  0  0
 37 38  2  0  0  0  0
 37 43  1  0  0  0  0
 38 39  1  0  0  0  0
 38 48  1  0  0  0  0
 39 40  1  0  0  0  0
 39 41  2  0  0  0  0
 41 42  1  0  0  0  0
 41 47  1  0  0  0  0
 42 43  2  0  0  0  0
 42 46  1  0  0  0  0
 43 44  1  0  0  0  0
 44 45  2  0  0  0  0
 53 54  1  0  0  0  0
M  END
>  <MODEL>
       1

$$$$
