tmp_first_model_2_89.pdb
 OpenBabel08272517383D

 43 45  0  0  0  0  0  0  0  0999 V2000
   -6.6980    0.3000  -26.9330 C   0  0  0  0  0  0  0  0  0  0  0  0
   -8.0230    0.5100  -26.1870 C   0  0  0  0  0  0  0  0  0  0  0  0
   -9.0570    1.0570  -27.1810 C   0  0  0  0  0  0  0  0  0  0  0  0
  -10.0110    1.2810  -26.6900 H   0  0  0  0  0  0  0  0  0  0  0  0
   -8.7030    1.9830  -27.6490 H   0  0  0  0  0  0  0  0  0  0  0  0
   -9.2570    0.3400  -27.9860 H   0  0  0  0  0  0  0  0  0  0  0  0
   -7.8070    1.5160  -25.0350 C   0  0  0  0  0  0  0  0  0  0  0  0
   -8.6330    1.1990  -23.7900 C   0  0  0  0  0  0  0  0  0  0  0  0
   -8.2710   -0.1200  -23.2690 N   0  0  0  0  0  0  0  0  0  0  0  0
   -8.3350   -0.3290  -21.9060 C   0  0  0  0  0  0  0  0  0  0  0  0
   -9.0500    0.3420  -21.1840 O   0  0  0  0  0  0  0  0  0  0  0  0
   -7.4290   -1.4120  -21.2830 C   0  0  0  0  0  0  0  0  0  0  0  0
   -6.5710   -0.8310  -20.1760 C   0  0  0  0  0  0  0  0  0  0  0  0
   -6.8780   -1.0400  -18.8570 C   0  0  0  0  0  0  0  0  0  0  0  0
   -6.1930   -0.5340  -17.7930 N   0  0  0  0  0  0  0  0  0  0  0  0
   -5.1570    0.2230  -18.0620 C   0  0  0  0  0  0  0  0  0  0  0  0
   -4.7200    0.5340  -19.3780 C   0  0  0  0  0  0  0  0  0  0  0  0
   -3.5990    1.3680  -19.6210 C   0  0  0  0  0  0  0  0  0  0  0  0
   -3.2090    1.6600  -20.9000 C   0  0  0  0  0  0  0  0  0  0  0  0
   -3.9280    1.1270  -21.9930 C   0  0  0  0  0  0  0  0  0  0  0  0
   -5.0160    0.3160  -21.7860 C   0  0  0  0  0  0  0  0  0  0  0  0
   -5.4450   -0.0040  -20.4700 C   0  0  0  0  0  0  0  0  0  0  0  0
   -5.5570   -0.0800  -22.6420 H   0  0  0  0  0  0  0  0  0  0  0  0
   -3.6140    1.3660  -23.0050 H   0  0  0  0  0  0  0  0  0  0  0  0
   -2.3540    2.3050  -21.0860 H   0  0  0  0  0  0  0  0  0  0  0  0
   -3.0610    1.7800  -18.7690 H   0  0  0  0  0  0  0  0  0  0  0  0
   -4.6010    0.6290  -17.2140 H   0  0  0  0  0  0  0  0  0  0  0  0
   -7.7300   -1.6610  -18.5850 H   0  0  0  0  0  0  0  0  0  0  0  0
   -8.0910   -2.1680  -20.8450 H   0  0  0  0  0  0  0  0  0  0  0  0
   -6.8070   -1.9200  -22.0300 H   0  0  0  0  0  0  0  0  0  0  0  0
   -7.9670   -1.1680  -24.2370 C   0  0  0  0  0  0  0  0  0  0  0  0
   -8.5340   -0.8270  -25.6160 C   0  0  0  0  0  0  0  0  0  0  0  0
   -9.6290   -0.8200  -25.5580 H   0  0  0  0  0  0  0  0  0  0  0  0
   -8.2890   -1.6330  -26.3130 H   0  0  0  0  0  0  0  0  0  0  0  0
   -6.8840   -1.3440  -24.3080 H   0  0  0  0  0  0  0  0  0  0  0  0
   -8.4150   -2.1040  -23.8930 H   0  0  0  0  0  0  0  0  0  0  0  0
   -9.7070    1.2610  -24.0100 H   0  0  0  0  0  0  0  0  0  0  0  0
   -8.4390    1.9330  -23.0090 H   0  0  0  0  0  0  0  0  0  0  0  0
   -6.7510    1.5340  -24.7420 H   0  0  0  0  0  0  0  0  0  0  0  0
   -8.0310    2.5290  -25.3850 H   0  0  0  0  0  0  0  0  0  0  0  0
   -5.9330   -0.1390  -26.2830 H   0  0  0  0  0  0  0  0  0  0  0  0
   -6.8290   -0.3720  -27.7900 H   0  0  0  0  0  0  0  0  0  0  0  0
   -6.3050    1.2480  -27.3160 H   0  0  0  0  0  0  0  0  0  0  0  0
  1  2  1  0  0  0  0
  1 41  1  0  0  0  0
  1 42  1  0  0  0  0
  1 43  1  0  0  0  0
  2  3  1  0  0  0  0
  2  7  1  0  0  0  0
  2 32  1  0  0  0  0
  3  4  1  0  0  0  0
  3  5  1  0  0  0  0
  3  6  1  0  0  0  0
  7  8  1  0  0  0  0
  7 39  1  0  0  0  0
  7 40  1  0  0  0  0
  8  9  1  0  0  0  0
  8 37  1  0  0  0  0
  8 38  1  0  0  0  0
  9 10  1  0  0  0  0
  9 31  1  0  0  0  0
 10 11  2  0  0  0  0
 10 12  1  0  0  0  0
 12 13  1  0  0  0  0
 12 29  1  0  0  0  0
 12 30  1  0  0  0  0
 13 14  2  0  0  0  0
 13 22  1  0  0  0  0
 14 15  1  0  0  0  0
 14 28  1  0  0  0  0
 15 16  2  0  0  0  0
 16 17  1  0  0  0  0
 16 27  1  0  0  0  0
 17 18  2  0  0  0  0
 17 22  1  0  0  0  0
 18 19  1  0  0  0  0
 18 26  1  0  0  0  0
 19 20  2  0  0  0  0
 19 25  1  0  0  0  0
 20 21  1  0  0  0  0
 20 24  1  0  0  0  0
 21 22  2  0  0  0  0
 21 23  1  0  0  0  0
 31 32  1  0  0  0  0
 31 35  1  0  0  0  0
 31 36  1  0  0  0  0
 32 33  1  0  0  0  0
 32 34  1  0  0  0  0
M  END
>  <MODEL>
       1

$$$$
