tmp_first_model_17_63.pdb
 OpenBabel08282502223D

 57 61  0  0  1  0  0  0  0  0999 V2000
   -7.3350    3.4230  -21.8480 C   0  0  0  0  0  0  0  0  0  0  0  0
   -8.1740    2.9570  -22.9350 N   0  0  0  0  0  0  0  0  0  0  0  0
   -7.6090    2.2450  -23.9380 C   0  0  0  0  0  0  0  0  0  0  0  0
   -6.3970    2.1220  -24.0490 O   0  0  0  0  0  0  0  0  0  0  0  0
   -8.5600    1.6210  -24.9610 C   0  0  0  0  0  0  0  0  0  0  0  0
   -9.2980    0.4810  -24.4600 N   0  0  0  0  0  0  0  0  0  0  0  0
   -8.5850   -0.7690  -24.2840 C   0  0  0  0  0  0  0  0  0  0  0  0
   -8.9900   -1.4770  -22.9690 C   0  0  2  0  0  0  0  0  0  0  0  0
   -8.4500   -0.6900  -21.7480 C   0  0  0  0  0  0  0  0  0  0  0  0
   -8.8630    0.3670  -21.3090 O   0  0  0  0  0  0  0  0  0  0  0  0
   -7.3980   -1.3870  -21.2050 N   0  0  0  0  0  0  0  0  0  0  0  0
   -6.6030   -0.8140  -20.1740 C   0  0  0  0  0  0  0  0  0  0  0  0
   -6.9140   -1.0440  -18.8580 C   0  0  0  0  0  0  0  0  0  0  0  0
   -6.2150   -0.5460  -17.8070 N   0  0  0  0  0  0  0  0  0  0  0  0
   -5.1750    0.2070  -18.0760 C   0  0  0  0  0  0  0  0  0  0  0  0
   -4.7390    0.5310  -19.3930 C   0  0  0  0  0  0  0  0  0  0  0  0
   -3.6120    1.3660  -19.6360 C   0  0  0  0  0  0  0  0  0  0  0  0
   -3.2260    1.6570  -20.9160 C   0  0  0  0  0  0  0  0  0  0  0  0
   -3.9480    1.1300  -22.0120 C   0  0  0  0  0  0  0  0  0  0  0  0
   -5.0390    0.3210  -21.8030 C   0  0  0  0  0  0  0  0  0  0  0  0
   -5.4710    0.0050  -20.4850 C   0  0  0  0  0  0  0  0  0  0  0  0
   -5.5870   -0.0720  -22.6540 H   0  0  0  0  0  0  0  0  0  0  0  0
   -3.6420    1.3680  -23.0240 H   0  0  0  0  0  0  0  0  0  0  0  0
   -2.3650    2.2940  -21.0980 H   0  0  0  0  0  0  0  0  0  0  0  0
   -3.0730    1.7680  -18.7820 H   0  0  0  0  0  0  0  0  0  0  0  0
   -4.6200    0.6080  -17.2270 H   0  0  0  0  0  0  0  0  0  0  0  0
   -7.7700   -1.6650  -18.6040 H   0  0  0  0  0  0  0  0  0  0  0  0
   -7.0720   -2.6180  -21.8990 C   0  0  0  0  0  0  0  0  0  0  0  0
   -8.2950   -2.8620  -22.8090 C   0  0  2  0  0  0  0  0  0  0  0  0
   -7.9360   -3.5850  -24.1050 C   0  0  0  0  0  0  0  0  0  0  0  0
   -7.4220   -4.8540  -23.7550 O   0  0  0  0  0  0  0  0  0  0  0  0
   -7.2080   -5.3270  -24.5680 H   0  0  0  0  0  0  0  0  0  0  0  0
   -7.1810   -2.9980  -24.6530 H   0  0  0  0  0  0  0  0  0  0  0  0
   -8.8260   -3.6830  -24.7500 H   0  0  0  0  0  0  0  0  0  0  0  0
   -8.9900   -3.5160  -22.2780 H   0  0  0  0  0  0  0  0  0  0  0  0
   -6.9110   -3.4310  -21.1830 H   0  0  0  0  0  0  0  0  0  0  0  0
   -6.1510   -2.5030  -22.4890 H   0  0  0  0  0  0  0  0  0  0  0  0
  -10.5050   -1.5100  -22.9080 C   0  0  0  0  0  0  0  0  0  0  0  0
  -11.1340   -2.3490  -21.9890 C   0  0  0  0  0  0  0  0  0  0  0  0
  -12.5080   -2.3360  -21.8520 C   0  0  0  0  0  0  0  0  0  0  0  0
  -13.1880   -3.2760  -20.5550 Cl  0  0  0  0  0  0  0  0  0  0  0  0
  -13.3100   -1.5110  -22.6440 C   0  0  0  0  0  0  0  0  0  0  0  0
  -12.6890   -0.6270  -23.5070 C   0  0  0  0  0  0  0  0  0  0  0  0
  -11.2970   -0.5930  -23.6050 C   0  0  0  0  0  0  0  0  0  0  0  0
  -10.6660    0.5280  -24.3650 C   0  0  0  0  0  0  0  0  0  0  0  0
  -11.3400    1.4420  -24.8200 O   0  0  0  0  0  0  0  0  0  0  0  0
  -13.2480    0.0990  -24.0890 H   0  0  0  0  0  0  0  0  0  0  0  0
  -14.3900   -1.5400  -22.5500 H   0  0  0  0  0  0  0  0  0  0  0  0
  -10.5580   -2.9820  -21.3250 H   0  0  0  0  0  0  0  0  0  0  0  0
   -7.5140   -0.5330  -24.2630 H   0  0  0  0  0  0  0  0  0  0  0  0
   -8.7960   -1.4460  -25.1270 H   0  0  0  0  0  0  0  0  0  0  0  0
   -7.9290    1.3330  -25.8100 H   0  0  0  0  0  0  0  0  0  0  0  0
   -9.3160    2.3330  -25.2830 H   0  0  0  0  0  0  0  0  0  0  0  0
   -9.1680    2.8840  -22.7910 H   0  0  0  0  0  0  0  0  0  0  0  0
   -6.6230    4.1720  -22.2060 H   0  0  0  0  0  0  0  0  0  0  0  0
   -7.9680    3.8750  -21.0840 H   0  0  0  0  0  0  0  0  0  0  0  0
   -6.7610    2.5890  -21.4260 H   0  0  0  0  0  0  0  0  0  0  0  0
  1  2  1  0  0  0  0
  1 55  1  0  0  0  0
  1 56  1  0  0  0  0
  1 57  1  0  0  0  0
  2  3  1  0  0  0  0
  2 54  1  0  0  0  0
  3  4  2  0  0  0  0
  3  5  1  0  0  0  0
  5  6  1  0  0  0  0
  5 52  1  0  0  0  0
  5 53  1  0  0  0  0
  6  7  1  0  0  0  0
  6 45  1  0  0  0  0
  7  8  1  0  0  0  0
  7 50  1  0  0  0  0
  7 51  1  0  0  0  0
  8  9  1  1  0  0  0
  8 29  1  0  0  0  0
  8 38  1  0  0  0  0
  9 10  2  0  0  0  0
  9 11  1  0  0  0  0
 11 12  1  0  0  0  0
 11 28  1  0  0  0  0
 12 13  2  0  0  0  0
 12 21  1  0  0  0  0
 13 14  1  0  0  0  0
 13 27  1  0  0  0  0
 14 15  2  0  0  0  0
 15 16  1  0  0  0  0
 15 26  1  0  0  0  0
 16 17  2  0  0  0  0
 16 21  1  0  0  0  0
 17 18  1  0  0  0  0
 17 25  1  0  0  0  0
 18 19  2  0  0  0  0
 18 24  1  0  0  0  0
 19 20  1  0  0  0  0
 19 23  1  0  0  0  0
 20 21  2  0  0  0  0
 20 22  1  0  0  0  0
 28 29  1  0  0  0  0
 28 36  1  0  0  0  0
 28 37  1  0  0  0  0
 29 30  1  0  0  0  0
 29 35  1  1  0  0  0
 30 31  1  0  0  0  0
 30 33  1  0  0  0  0
 30 34  1  0  0  0  0
 31 32  1  0  0  0  0
 38 39  2  0  0  0  0
 38 44  1  0  0  0  0
 39 40  1  0  0  0  0
 39 49  1  0  0  0  0
 40 41  1  0  0  0  0
 40 42  2  0  0  0  0
 42 43  1  0  0  0  0
 42 48  1  0  0  0  0
 43 44  2  0  0  0  0
 43 47  1  0  0  0  0
 44 45  1  0  0  0  0
 45 46  2  0  0  0  0
M  END
>  <MODEL>
       1

$$$$
