tmp_first_model_11_71.pdb
 OpenBabel08272522543D

 50 54  0  0  1  0  0  0  0  0999 V2000
   -7.6140   -3.6150  -23.6750 C   0  0  0  0  0  0  0  0  0  0  0  0
   -8.4880   -2.9280  -22.6130 C   0  0  1  0  0  0  0  0  0  0  0  0
   -7.6850   -2.7870  -21.2870 C   0  0  0  0  0  0  0  0  0  0  0  0
   -7.3750   -1.3760  -21.2070 N   0  0  0  0  0  0  0  0  0  0  0  0
   -6.5760   -0.8250  -20.1810 C   0  0  0  0  0  0  0  0  0  0  0  0
   -6.8810   -1.0690  -18.8650 C   0  0  0  0  0  0  0  0  0  0  0  0
   -6.2060   -0.5560  -17.8140 N   0  0  0  0  0  0  0  0  0  0  0  0
   -5.1740    0.2120  -18.0760 C   0  0  0  0  0  0  0  0  0  0  0  0
   -4.7260    0.5130  -19.3930 C   0  0  0  0  0  0  0  0  0  0  0  0
   -3.5960    1.3460  -19.6190 C   0  0  0  0  0  0  0  0  0  0  0  0
   -3.1780    1.6180  -20.8920 C   0  0  0  0  0  0  0  0  0  0  0  0
   -3.8610    1.0610  -21.9960 C   0  0  0  0  0  0  0  0  0  0  0  0
   -4.9500    0.2510  -21.8020 C   0  0  0  0  0  0  0  0  0  0  0  0
   -5.4290   -0.0250  -20.4880 C   0  0  0  0  0  0  0  0  0  0  0  0
   -5.4680   -0.1680  -22.6560 H   0  0  0  0  0  0  0  0  0  0  0  0
   -3.5290    1.2870  -23.0060 H   0  0  0  0  0  0  0  0  0  0  0  0
   -2.3240    2.2680  -21.0640 H   0  0  0  0  0  0  0  0  0  0  0  0
   -3.0870    1.7730  -18.7600 H   0  0  0  0  0  0  0  0  0  0  0  0
   -4.6310    0.6280  -17.2250 H   0  0  0  0  0  0  0  0  0  0  0  0
   -7.7390   -1.6860  -18.6120 H   0  0  0  0  0  0  0  0  0  0  0  0
   -8.1160   -0.5960  -22.0680 C   0  0  0  0  0  0  0  0  0  0  0  0
   -8.0990    0.6330  -22.0660 O   0  0  0  0  0  0  0  0  0  0  0  0
   -9.0460   -1.4910  -22.9710 C   0  0  1  0  0  0  0  0  0  0  0  0
   -8.6790   -1.0860  -24.4780 C   0  0  0  0  0  0  0  0  0  0  0  0
   -9.2520    0.1950  -24.8710 N   0  0  0  0  0  0  0  0  0  0  0  0
   -8.4840    1.1400  -25.6630 C   0  0  0  0  0  0  0  0  0  0  0  0
   -8.0120    2.3120  -24.8740 C   0  0  0  0  0  0  0  0  0  0  0  0
   -7.6740    3.2450  -24.3030 N   0  0  0  0  0  0  0  0  0  0  0  0
   -7.6180    0.6520  -26.1050 H   0  0  0  0  0  0  0  0  0  0  0  0
   -9.1100    1.5200  -26.4680 H   0  0  0  0  0  0  0  0  0  0  0  0
  -10.5700    0.5150  -24.6150 C   0  0  0  0  0  0  0  0  0  0  0  0
  -11.0830    1.5010  -25.1240 O   0  0  0  0  0  0  0  0  0  0  0  0
  -11.2150   -0.5040  -23.5810 C   0  0  0  0  0  0  0  0  0  0  0  0
  -12.4780   -0.6610  -23.2880 C   0  0  0  0  0  0  0  0  0  0  0  0
  -12.6830   -1.4550  -21.9830 C   0  0  0  0  0  0  0  0  0  0  0  0
  -12.6830   -1.4560  -21.9830 C   0  0  0  0  0  0  0  0  0  0  0  0
  -12.9330   -3.3570  -21.2200 F   0  0  0  0  0  0  0  0  0  0  0  0
  -11.2350   -1.7510  -21.6240 C   0  0  0  0  0  0  0  0  0  0  0  0
  -10.5170   -1.3400  -22.6370 C   0  0  0  0  0  0  0  0  0  0  0  0
  -11.4770   -2.7190  -21.6160 H   0  0  0  0  0  0  0  0  0  0  0  0
  -13.6020   -0.9750  -21.5690 H   0  0  0  0  0  0  0  0  0  0  0  0
  -13.2880   -0.0390  -23.4680 H   0  0  0  0  0  0  0  0  0  0  0  0
   -7.5890   -1.0350  -24.6080 H   0  0  0  0  0  0  0  0  0  0  0  0
   -9.0600   -1.8730  -25.1330 H   0  0  0  0  0  0  0  0  0  0  0  0
   -8.2430   -3.1250  -20.3990 H   0  0  0  0  0  0  0  0  0  0  0  0
   -6.7560   -3.3670  -21.3110 H   0  0  0  0  0  0  0  0  0  0  0  0
   -9.3280   -3.6050  -22.4360 H   0  0  0  0  0  0  0  0  0  0  0  0
   -8.1610   -3.7470  -24.6060 H   0  0  0  0  0  0  0  0  0  0  0  0
   -7.3160   -4.6060  -23.3240 H   0  0  0  0  0  0  0  0  0  0  0  0
   -6.7100   -3.0410  -23.8770 H   0  0  0  0  0  0  0  0  0  0  0  0
  1  2  1  0  0  0  0
  1 48  1  0  0  0  0
  1 49  1  0  0  0  0
  1 50  1  0  0  0  0
  2  3  1  0  0  0  0
  2 23  1  0  0  0  0
  2 47  1  1  0  0  0
  3  4  1  0  0  0  0
  3 45  1  0  0  0  0
  3 46  1  0  0  0  0
  4  5  1  0  0  0  0
  4 21  1  0  0  0  0
  5  6  2  0  0  0  0
  5 14  1  0  0  0  0
  6  7  1  0  0  0  0
  6 20  1  0  0  0  0
  7  8  2  0  0  0  0
  8  9  1  0  0  0  0
  8 19  1  0  0  0  0
  9 10  2  0  0  0  0
  9 14  1  0  0  0  0
 10 11  1  0  0  0  0
 10 18  1  0  0  0  0
 11 12  2  0  0  0  0
 11 17  1  0  0  0  0
 12 13  1  0  0  0  0
 12 16  1  0  0  0  0
 13 14  2  0  0  0  0
 13 15  1  0  0  0  0
 21 22  2  0  0  0  0
 23 21  1  1  0  0  0
 23 24  1  0  0  0  0
 23 39  1  0  0  0  0
 24 25  1  0  0  0  0
 24 43  1  0  0  0  0
 24 44  1  0  0  0  0
 25 26  1  0  0  0  0
 25 31  1  0  0  0  0
 26 27  1  0  0  0  0
 26 29  1  0  0  0  0
 26 30  1  0  0  0  0
 27 28  3  0  0  0  0
 31 32  2  0  0  0  0
 31 33  1  0  0  0  0
 33 34  2  0  0  0  0
 33 39  1  0  0  0  0
 34 35  1  0  0  0  0
 34 42  1  0  0  0  0
 35 36  2  0  0  0  0
 35 41  1  0  0  0  0
 36 37  1  0  0  0  0
 36 38  1  0  0  0  0
 38 39  2  0  0  0  0
 38 40  1  0  0  0  0
M  END
>  <MODEL>
       1

$$$$
