tmp_first_model_15_30.pdb
 OpenBabel08282501153D

 58 63  0  0  1  0  0  0  0  0999 V2000
  -10.3390   -0.6640  -23.6050 C   0  0  0  0  0  0  0  0  0  0  0  0
   -8.9890   -1.1650  -23.1130 C   0  0  1  0  0  0  0  0  0  0  0  0
   -8.4650   -0.3410  -21.9220 C   0  0  0  0  0  0  0  0  0  0  0  0
   -7.5030   -1.2330  -21.3040 N   0  0  0  0  0  0  0  0  0  0  0  0
   -6.6650   -0.8380  -20.2320 C   0  0  0  0  0  0  0  0  0  0  0  0
   -6.9550   -1.1770  -18.9360 C   0  0  0  0  0  0  0  0  0  0  0  0
   -6.3070   -0.6670  -17.8550 N   0  0  0  0  0  0  0  0  0  0  0  0
   -5.3140    0.1630  -18.0740 C   0  0  0  0  0  0  0  0  0  0  0  0
   -4.8470    0.5190  -19.3730 C   0  0  0  0  0  0  0  0  0  0  0  0
   -3.7250    1.3650  -19.5790 C   0  0  0  0  0  0  0  0  0  0  0  0
   -3.2850    1.6270  -20.8490 C   0  0  0  0  0  0  0  0  0  0  0  0
   -3.9450    1.0700  -21.9690 C   0  0  0  0  0  0  0  0  0  0  0  0
   -5.0460    0.2690  -21.7970 C   0  0  0  0  0  0  0  0  0  0  0  0
   -5.5280   -0.0110  -20.4910 C   0  0  0  0  0  0  0  0  0  0  0  0
   -5.5530   -0.1710  -22.6510 H   0  0  0  0  0  0  0  0  0  0  0  0
   -3.5830    1.2830  -22.9720 H   0  0  0  0  0  0  0  0  0  0  0  0
   -2.4270    2.2730  -21.0090 H   0  0  0  0  0  0  0  0  0  0  0  0
   -3.2290    1.7970  -18.7130 H   0  0  0  0  0  0  0  0  0  0  0  0
   -4.8120    0.5840  -17.2000 H   0  0  0  0  0  0  0  0  0  0  0  0
   -7.7530   -1.8840  -18.7150 H   0  0  0  0  0  0  0  0  0  0  0  0
   -7.7420   -2.5570  -21.5950 C   0  0  0  0  0  0  0  0  0  0  0  0
   -7.1120   -3.4840  -21.1220 O   0  0  0  0  0  0  0  0  0  0  0  0
   -8.9030   -2.6600  -22.6090 C   0  0  1  0  0  0  0  0  0  0  0  0
  -10.1650   -3.1050  -21.8150 C   0  0  0  0  0  0  0  0  0  0  0  0
  -11.2620   -3.5610  -22.6620 N   0  0  0  0  0  0  0  0  0  0  0  0
  -12.6460   -3.3650  -22.2480 C   0  0  0  0  0  0  0  0  0  0  0  0
  -13.3120   -2.1490  -22.8650 C   0  0  0  0  0  0  0  0  0  0  0  0
  -13.8250   -1.1690  -22.0660 C   0  0  0  0  0  0  0  0  0  0  0  0
  -14.4640    0.0010  -22.6260 C   0  0  0  0  0  0  0  0  0  0  0  0
  -14.9480    0.9660  -22.0690 O   0  0  0  0  0  0  0  0  0  0  0  0
  -14.4950   -0.0460  -24.0230 N   0  0  0  0  0  0  0  0  0  0  0  0
  -14.0010   -1.0800  -24.7460 C   0  0  0  0  0  0  0  0  0  0  0  0
  -13.4030   -2.1100  -24.2400 N   0  0  0  0  0  0  0  0  0  0  0  0
  -14.1470   -0.9720  -25.8160 H   0  0  0  0  0  0  0  0  0  0  0  0
  -14.9930    0.7340  -24.4370 H   0  0  0  0  0  0  0  0  0  0  0  0
  -13.7810   -1.2530  -20.9920 H   0  0  0  0  0  0  0  0  0  0  0  0
  -13.1820   -4.2620  -22.5750 H   0  0  0  0  0  0  0  0  0  0  0  0
  -12.6860   -3.2720  -21.1580 H   0  0  0  0  0  0  0  0  0  0  0  0
  -11.0540   -4.3990  -23.7250 C   0  0  0  0  0  0  0  0  0  0  0  0
  -11.9580   -5.0120  -24.2670 O   0  0  0  0  0  0  0  0  0  0  0  0
   -9.6380   -4.5260  -24.1790 C   0  0  0  0  0  0  0  0  0  0  0  0
   -9.3850   -5.4940  -25.1490 C   0  0  0  0  0  0  0  0  0  0  0  0
   -8.0910   -5.7860  -25.5290 C   0  0  0  0  0  0  0  0  0  0  0  0
   -7.0640   -5.0550  -24.9440 C   0  0  0  0  0  0  0  0  0  0  0  0
   -5.7970   -5.3780  -25.2500 F   0  0  0  0  0  0  0  0  0  0  0  0
   -7.2950   -4.0280  -24.0480 C   0  0  0  0  0  0  0  0  0  0  0  0
   -8.6080   -3.7400  -23.6430 C   0  0  0  0  0  0  0  0  0  0  0  0
   -6.4430   -3.4940  -23.6450 H   0  0  0  0  0  0  0  0  0  0  0  0
   -7.8780   -6.5620  -26.2560 H   0  0  0  0  0  0  0  0  0  0  0  0
  -10.2380   -6.0180  -25.5700 H   0  0  0  0  0  0  0  0  0  0  0  0
   -9.8380   -3.8890  -21.1190 H   0  0  0  0  0  0  0  0  0  0  0  0
  -10.5380   -2.2810  -21.2010 H   0  0  0  0  0  0  0  0  0  0  0  0
   -9.2780   -0.0970  -21.2200 H   0  0  0  0  0  0  0  0  0  0  0  0
   -8.0080    0.6130  -22.2080 H   0  0  0  0  0  0  0  0  0  0  0  0
   -8.2610   -1.0680  -23.9280 H   0  0  0  0  0  0  0  0  0  0  0  0
  -11.0810   -0.6900  -22.8030 H   0  0  0  0  0  0  0  0  0  0  0  0
  -10.7120   -1.2680  -24.4350 H   0  0  0  0  0  0  0  0  0  0  0  0
  -10.2660    0.3760  -23.9440 H   0  0  0  0  0  0  0  0  0  0  0  0
  1  2  1  0  0  0  0
  1 56  1  0  0  0  0
  1 57  1  0  0  0  0
  1 58  1  0  0  0  0
  2  3  1  0  0  0  0
  2 23  1  0  0  0  0
  2 55  1  6  0  0  0
  3  4  1  0  0  0  0
  3 53  1  0  0  0  0
  3 54  1  0  0  0  0
  4  5  1  0  0  0  0
  4 21  1  0  0  0  0
  5  6  2  0  0  0  0
  5 14  1  0  0  0  0
  6  7  1  0  0  0  0
  6 20  1  0  0  0  0
  7  8  2  0  0  0  0
  8  9  1  0  0  0  0
  8 19  1  0  0  0  0
  9 10  2  0  0  0  0
  9 14  1  0  0  0  0
 10 11  1  0  0  0  0
 10 18  1  0  0  0  0
 11 12  2  0  0  0  0
 11 17  1  0  0  0  0
 12 13  1  0  0  0  0
 12 16  1  0  0  0  0
 13 14  2  0  0  0  0
 13 15  1  0  0  0  0
 21 22  2  0  0  0  0
 23 21  1  1  0  0  0
 23 24  1  0  0  0  0
 23 47  1  0  0  0  0
 24 25  1  0  0  0  0
 24 51  1  0  0  0  0
 24 52  1  0  0  0  0
 25 26  1  0  0  0  0
 25 39  1  0  0  0  0
 26 27  1  0  0  0  0
 26 37  1  0  0  0  0
 26 38  1  0  0  0  0
 27 28  2  0  0  0  0
 27 33  1  0  0  0  0
 28 29  1  0  0  0  0
 28 36  1  0  0  0  0
 29 30  2  0  0  0  0
 29 31  1  0  0  0  0
 31 32  1  0  0  0  0
 31 35  1  0  0  0  0
 32 33  2  0  0  0  0
 32 34  1  0  0  0  0
 39 40  2  0  0  0  0
 39 41  1  0  0  0  0
 41 42  2  0  0  0  0
 41 47  1  0  0  0  0
 42 43  1  0  0  0  0
 42 50  1  0  0  0  0
 43 44  2  0  0  0  0
 43 49  1  0  0  0  0
 44 45  1  0  0  0  0
 44 46  1  0  0  0  0
 46 47  2  0  0  0  0
 46 48  1  0  0  0  0
M  END
>  <MODEL>
       1

$$$$
