tmp_first_model_13_37.pdb
 OpenBabel08282500103D

 56 60  0  0  1  0  0  0  0  0999 V2000
  -14.4960   -1.5490  -23.7660 C   0  0  0  0  0  0  0  0  0  0  0  0
  -13.7400   -2.6960  -23.3180 N   0  0  0  0  0  0  0  0  0  0  0  0
  -13.3290   -2.7280  -22.0260 C   0  0  0  0  0  0  0  0  0  0  0  0
  -13.6420   -1.8680  -21.2190 O   0  0  0  0  0  0  0  0  0  0  0  0
  -12.4540   -3.9170  -21.6840 C   0  0  0  0  0  0  0  0  0  0  0  0
  -11.1220   -3.8680  -22.2570 N   0  0  0  0  0  0  0  0  0  0  0  0
  -10.0020   -3.3630  -21.4730 C   0  0  0  0  0  0  0  0  0  0  0  0
   -8.8030   -2.9120  -22.3440 C   0  0  2  0  0  0  0  0  0  0  0  0
   -7.5680   -2.6990  -21.4510 C   0  0  0  0  0  0  0  0  0  0  0  0
   -6.8270   -3.5570  -21.0200 O   0  0  0  0  0  0  0  0  0  0  0  0
   -7.4050   -1.3470  -21.2340 N   0  0  0  0  0  0  0  0  0  0  0  0
   -6.5820   -0.8510  -20.1950 C   0  0  0  0  0  0  0  0  0  0  0  0
   -6.8890   -1.0980  -18.8810 C   0  0  0  0  0  0  0  0  0  0  0  0
   -6.2130   -0.5660  -17.8320 N   0  0  0  0  0  0  0  0  0  0  0  0
   -5.1940    0.2100  -18.0960 C   0  0  0  0  0  0  0  0  0  0  0  0
   -4.7480    0.5190  -19.4120 C   0  0  0  0  0  0  0  0  0  0  0  0
   -3.6210    1.3450  -19.6480 C   0  0  0  0  0  0  0  0  0  0  0  0
   -3.2170    1.6110  -20.9260 C   0  0  0  0  0  0  0  0  0  0  0  0
   -3.9180    1.0650  -22.0240 C   0  0  0  0  0  0  0  0  0  0  0  0
   -5.0140    0.2620  -21.8230 C   0  0  0  0  0  0  0  0  0  0  0  0
   -5.4590   -0.0230  -20.5050 C   0  0  0  0  0  0  0  0  0  0  0  0
   -5.5350   -0.1690  -22.6720 H   0  0  0  0  0  0  0  0  0  0  0  0
   -3.5880    1.2830  -23.0350 H   0  0  0  0  0  0  0  0  0  0  0  0
   -2.3630    2.2560  -21.1040 H   0  0  0  0  0  0  0  0  0  0  0  0
   -3.1000    1.7570  -18.7890 H   0  0  0  0  0  0  0  0  0  0  0  0
   -4.6530    0.6330  -17.2480 H   0  0  0  0  0  0  0  0  0  0  0  0
   -7.7300   -1.7380  -18.6260 H   0  0  0  0  0  0  0  0  0  0  0  0
   -8.3930   -0.5210  -21.9050 C   0  0  0  0  0  0  0  0  0  0  0  0
   -9.0140   -1.4730  -22.9390 C   0  0  2  0  0  0  0  0  0  0  0  0
  -10.4570   -1.1260  -23.2770 C   0  0  0  0  0  0  0  0  0  0  0  0
  -10.8790   -1.8890  -23.9360 H   0  0  0  0  0  0  0  0  0  0  0  0
  -10.5360   -0.1540  -23.7720 H   0  0  0  0  0  0  0  0  0  0  0  0
  -11.0660   -1.1000  -22.3670 H   0  0  0  0  0  0  0  0  0  0  0  0
   -8.4030   -1.4360  -23.8540 H   0  0  0  0  0  0  0  0  0  0  0  0
   -9.1510   -0.1520  -21.1940 H   0  0  0  0  0  0  0  0  0  0  0  0
   -7.9240    0.3540  -22.3710 H   0  0  0  0  0  0  0  0  0  0  0  0
   -8.5360   -3.9680  -23.3880 C   0  0  0  0  0  0  0  0  0  0  0  0
   -7.2650   -4.1130  -23.9490 C   0  0  0  0  0  0  0  0  0  0  0  0
   -7.0350   -5.0490  -24.9410 C   0  0  0  0  0  0  0  0  0  0  0  0
   -8.0580   -5.8890  -25.3770 C   0  0  0  0  0  0  0  0  0  0  0  0
   -9.3190   -5.7540  -24.8320 C   0  0  0  0  0  0  0  0  0  0  0  0
   -9.5650   -4.7740  -23.8750 C   0  0  0  0  0  0  0  0  0  0  0  0
  -10.9640   -4.5610  -23.4180 C   0  0  0  0  0  0  0  0  0  0  0  0
  -11.9330   -4.9660  -24.0600 O   0  0  0  0  0  0  0  0  0  0  0  0
  -10.1370   -6.3950  -25.1370 H   0  0  0  0  0  0  0  0  0  0  0  0
   -7.8680   -6.6280  -26.1500 H   0  0  0  0  0  0  0  0  0  0  0  0
   -6.0560   -5.1080  -25.3980 H   0  0  0  0  0  0  0  0  0  0  0  0
   -6.4480   -3.4920  -23.5970 H   0  0  0  0  0  0  0  0  0  0  0  0
  -10.3430   -2.4950  -20.8970 H   0  0  0  0  0  0  0  0  0  0  0  0
   -9.6870   -4.1530  -20.7870 H   0  0  0  0  0  0  0  0  0  0  0  0
  -12.4280   -4.0710  -20.6070 H   0  0  0  0  0  0  0  0  0  0  0  0
  -12.9390   -4.7600  -22.1700 H   0  0  0  0  0  0  0  0  0  0  0  0
  -13.4980   -3.4640  -23.9330 H   0  0  0  0  0  0  0  0  0  0  0  0
  -13.8790   -0.6430  -23.7630 H   0  0  0  0  0  0  0  0  0  0  0  0
  -15.3440   -1.3730  -23.0970 H   0  0  0  0  0  0  0  0  0  0  0  0
  -14.8630   -1.7130  -24.7780 H   0  0  0  0  0  0  0  0  0  0  0  0
  1  2  1  0  0  0  0
  1 54  1  0  0  0  0
  1 55  1  0  0  0  0
  1 56  1  0  0  0  0
  2  3  1  0  0  0  0
  2 53  1  0  0  0  0
  3  4  2  0  0  0  0
  3  5  1  0  0  0  0
  5  6  1  0  0  0  0
  5 51  1  0  0  0  0
  5 52  1  0  0  0  0
  6  7  1  0  0  0  0
  6 43  1  0  0  0  0
  7  8  1  0  0  0  0
  7 49  1  0  0  0  0
  7 50  1  0  0  0  0
  8  9  1  1  0  0  0
  8 29  1  0  0  0  0
  8 37  1  0  0  0  0
  9 10  2  0  0  0  0
  9 11  1  0  0  0  0
 11 12  1  0  0  0  0
 11 28  1  0  0  0  0
 12 13  2  0  0  0  0
 12 21  1  0  0  0  0
 13 14  1  0  0  0  0
 13 27  1  0  0  0  0
 14 15  2  0  0  0  0
 15 16  1  0  0  0  0
 15 26  1  0  0  0  0
 16 17  2  0  0  0  0
 16 21  1  0  0  0  0
 17 18  1  0  0  0  0
 17 25  1  0  0  0  0
 18 19  2  0  0  0  0
 18 24  1  0  0  0  0
 19 20  1  0  0  0  0
 19 23  1  0  0  0  0
 20 21  2  0  0  0  0
 20 22  1  0  0  0  0
 28 29  1  0  0  0  0
 28 35  1  0  0  0  0
 28 36  1  0  0  0  0
 29 30  1  0  0  0  0
 29 34  1  6  0  0  0
 30 31  1  0  0  0  0
 30 32  1  0  0  0  0
 30 33  1  0  0  0  0
 37 38  2  0  0  0  0
 37 42  1  0  0  0  0
 38 39  1  0  0  0  0
 38 48  1  0  0  0  0
 39 40  2  0  0  0  0
 39 47  1  0  0  0  0
 40 41  1  0  0  0  0
 40 46  1  0  0  0  0
 41 42  2  0  0  0  0
 41 45  1  0  0  0  0
 42 43  1  0  0  0  0
 43 44  2  0  0  0  0
M  END
>  <MODEL>
       1

$$$$
