tmp_first_model_14_85.pdb
 OpenBabel08282500413D

 57 62  0  0  1  0  0  0  0  0999 V2000
   -9.2160   -8.4450  -23.7550 C   0  0  0  0  0  0  0  0  0  0  0  0
   -8.4900   -7.3120  -23.2370 N   0  0  0  0  0  0  0  0  0  0  0  0
   -7.2310   -7.1870  -23.7720 C   0  0  0  0  0  0  0  0  0  0  0  0
   -6.8560   -7.8490  -24.7160 O   0  0  0  0  0  0  0  0  0  0  0  0
   -6.3880   -6.0780  -23.1860 C   0  0  0  0  0  0  0  0  0  0  0  0
   -6.8010   -4.8300  -23.7720 N   0  0  0  0  0  0  0  0  0  0  0  0
   -8.0290   -4.2320  -23.2800 C   0  0  0  0  0  0  0  0  0  0  0  0
   -7.8610   -2.7160  -23.1580 C   0  0  2  0  0  0  0  0  0  0  0  0
   -6.8260   -2.4170  -22.0530 C   0  0  0  0  0  0  0  0  0  0  0  0
   -5.7280   -2.9180  -21.9240 O   0  0  0  0  0  0  0  0  0  0  0  0
   -7.3400   -1.4520  -21.2190 N   0  0  0  0  0  0  0  0  0  0  0  0
   -6.5690   -0.8470  -20.2010 C   0  0  0  0  0  0  0  0  0  0  0  0
   -6.9120   -1.0300  -18.8860 C   0  0  0  0  0  0  0  0  0  0  0  0
   -6.2380   -0.4980  -17.8410 N   0  0  0  0  0  0  0  0  0  0  0  0
   -5.1820    0.2300  -18.1040 C   0  0  0  0  0  0  0  0  0  0  0  0
   -4.7320    0.5210  -19.4210 C   0  0  0  0  0  0  0  0  0  0  0  0
   -3.6050    1.3540  -19.6470 C   0  0  0  0  0  0  0  0  0  0  0  0
   -3.2200    1.6640  -20.9210 C   0  0  0  0  0  0  0  0  0  0  0  0
   -3.9430    1.1560  -22.0250 C   0  0  0  0  0  0  0  0  0  0  0  0
   -5.0340    0.3440  -21.8360 C   0  0  0  0  0  0  0  0  0  0  0  0
   -5.4480   -0.0110  -20.5160 C   0  0  0  0  0  0  0  0  0  0  0  0
   -5.5910   -0.0220  -22.7000 H   0  0  0  0  0  0  0  0  0  0  0  0
   -3.6360    1.4210  -23.0320 H   0  0  0  0  0  0  0  0  0  0  0  0
   -2.3660    2.3130  -21.0950 H   0  0  0  0  0  0  0  0  0  0  0  0
   -3.0770    1.7540  -18.7860 H   0  0  0  0  0  0  0  0  0  0  0  0
   -4.6290    0.6350  -17.2550 H   0  0  0  0  0  0  0  0  0  0  0  0
   -7.7600   -1.6680  -18.6330 H   0  0  0  0  0  0  0  0  0  0  0  0
   -8.7150   -1.1120  -21.4930 C   0  0  0  0  0  0  0  0  0  0  0  0
   -9.1170   -1.9950  -22.6620 C   0  0  0  0  0  0  0  0  0  0  0  0
  -10.4760   -2.6440  -22.5960 C   0  0  0  0  0  0  0  0  0  0  0  0
  -10.2090   -1.5580  -23.5970 C   0  0  0  0  0  0  0  0  0  0  0  0
  -10.1170   -1.8510  -24.6380 H   0  0  0  0  0  0  0  0  0  0  0  0
  -10.6530   -0.5750  -23.4510 H   0  0  0  0  0  0  0  0  0  0  0  0
  -10.5770   -3.6650  -22.9480 H   0  0  0  0  0  0  0  0  0  0  0  0
  -11.0960   -2.4190  -21.7320 H   0  0  0  0  0  0  0  0  0  0  0  0
   -9.3390   -1.3390  -20.6350 H   0  0  0  0  0  0  0  0  0  0  0  0
   -8.8130   -0.0480  -21.7310 H   0  0  0  0  0  0  0  0  0  0  0  0
   -7.3120   -2.2130  -24.4880 C   0  0  0  0  0  0  0  0  0  0  0  0
   -7.4410   -0.8630  -24.8250 C   0  0  0  0  0  0  0  0  0  0  0  0
   -6.9090   -0.3980  -26.0150 C   0  0  0  0  0  0  0  0  0  0  0  0
   -7.0880    1.2870  -26.4220 Cl  0  0  0  0  0  0  0  0  0  0  0  0
   -6.2240   -1.2420  -26.8910 C   0  0  0  0  0  0  0  0  0  0  0  0
   -6.0520   -2.5660  -26.5410 C   0  0  0  0  0  0  0  0  0  0  0  0
   -6.5700   -3.0390  -25.3400 C   0  0  0  0  0  0  0  0  0  0  0  0
   -6.2270   -4.4330  -24.9450 C   0  0  0  0  0  0  0  0  0  0  0  0
   -5.4490   -5.1290  -25.5840 O   0  0  0  0  0  0  0  0  0  0  0  0
   -5.5000   -3.2660  -27.1630 H   0  0  0  0  0  0  0  0  0  0  0  0
   -5.8160   -0.8450  -27.8130 H   0  0  0  0  0  0  0  0  0  0  0  0
   -7.9720   -0.1810  -24.1670 H   0  0  0  0  0  0  0  0  0  0  0  0
   -8.2540   -4.6430  -22.2950 H   0  0  0  0  0  0  0  0  0  0  0  0
   -8.8700   -4.4540  -23.9510 H   0  0  0  0  0  0  0  0  0  0  0  0
   -5.3500   -6.2750  -23.4490 H   0  0  0  0  0  0  0  0  0  0  0  0
   -6.4990   -6.0100  -22.0970 H   0  0  0  0  0  0  0  0  0  0  0  0
   -8.6440   -7.0110  -22.2910 H   0  0  0  0  0  0  0  0  0  0  0  0
   -9.9340   -8.8680  -23.0450 H   0  0  0  0  0  0  0  0  0  0  0  0
   -9.6770   -8.1880  -24.7120 H   0  0  0  0  0  0  0  0  0  0  0  0
   -8.4590   -9.1530  -23.9760 H   0  0  0  0  0  0  0  0  0  0  0  0
  1  2  1  0  0  0  0
  1 55  1  0  0  0  0
  1 56  1  0  0  0  0
  1 57  1  0  0  0  0
  2  3  1  0  0  0  0
  2 54  1  0  0  0  0
  3  4  2  0  0  0  0
  3  5  1  0  0  0  0
  5  6  1  0  0  0  0
  5 52  1  0  0  0  0
  5 53  1  0  0  0  0
  6  7  1  0  0  0  0
  6 45  1  0  0  0  0
  7  8  1  0  0  0  0
  7 50  1  0  0  0  0
  7 51  1  0  0  0  0
  8  9  1  1  0  0  0
  8 29  1  0  0  0  0
  8 38  1  0  0  0  0
  9 10  2  0  0  0  0
  9 11  1  0  0  0  0
 11 12  1  0  0  0  0
 11 28  1  0  0  0  0
 12 13  2  0  0  0  0
 12 21  1  0  0  0  0
 13 14  1  0  0  0  0
 13 27  1  0  0  0  0
 14 15  2  0  0  0  0
 15 16  1  0  0  0  0
 15 26  1  0  0  0  0
 16 17  2  0  0  0  0
 16 21  1  0  0  0  0
 17 18  1  0  0  0  0
 17 25  1  0  0  0  0
 18 19  2  0  0  0  0
 18 24  1  0  0  0  0
 19 20  1  0  0  0  0
 19 23  1  0  0  0  0
 20 21  2  0  0  0  0
 20 22  1  0  0  0  0
 28 29  1  0  0  0  0
 28 36  1  0  0  0  0
 28 37  1  0  0  0  0
 29 30  1  0  0  0  0
 29 31  1  0  0  0  0
 30 31  1  0  0  0  0
 30 34  1  0  0  0  0
 30 35  1  0  0  0  0
 31 32  1  0  0  0  0
 31 33  1  0  0  0  0
 38 39  2  0  0  0  0
 38 44  1  0  0  0  0
 39 40  1  0  0  0  0
 39 49  1  0  0  0  0
 40 41  1  0  0  0  0
 40 42  2  0  0  0  0
 42 43  1  0  0  0  0
 42 48  1  0  0  0  0
 43 44  2  0  0  0  0
 43 47  1  0  0  0  0
 44 45  1  0  0  0  0
 45 46  2  0  0  0  0
M  END
>  <MODEL>
       1

$$$$
