tmp_first_model_6_41.pdb
 OpenBabel08272519583D

 67 71  0  0  1  0  0  0  0  0999 V2000
   -6.8630    3.3850  -23.2710 C   0  0  0  0  0  0  0  0  0  0  0  0
   -7.5620    2.5810  -24.2440 N   0  0  0  0  0  0  0  0  0  0  0  0
   -6.9310    1.5600  -24.8550 C   0  0  0  0  0  0  0  0  0  0  0  0
   -5.7360    1.3170  -24.7360 O   0  0  0  0  0  0  0  0  0  0  0  0
   -7.8530    0.6810  -25.7040 C   0  0  0  0  0  0  0  0  0  0  0  0
   -8.8440    0.0250  -24.8710 N   0  0  0  0  0  0  0  0  0  0  0  0
   -8.5480   -1.2930  -24.3290 C   0  0  0  0  0  0  0  0  0  0  0  0
   -9.1040   -1.4690  -22.8880 C   0  0  2  0  0  0  0  0  0  0  0  0
   -8.3270   -0.5370  -21.9300 C   0  0  0  0  0  0  0  0  0  0  0  0
   -8.4430    0.6650  -21.7970 O   0  0  0  0  0  0  0  0  0  0  0  0
   -7.4380   -1.3000  -21.2160 N   0  0  0  0  0  0  0  0  0  0  0  0
   -6.6420   -0.7560  -20.1870 C   0  0  0  0  0  0  0  0  0  0  0  0
   -6.9200   -1.0690  -18.8790 C   0  0  0  0  0  0  0  0  0  0  0  0
   -6.2290   -0.5970  -17.8160 N   0  0  0  0  0  0  0  0  0  0  0  0
   -5.2100    0.1890  -18.0760 C   0  0  0  0  0  0  0  0  0  0  0  0
   -4.7930    0.5580  -19.3860 C   0  0  0  0  0  0  0  0  0  0  0  0
   -3.6560    1.3800  -19.6020 C   0  0  0  0  0  0  0  0  0  0  0  0
   -3.2720    1.7190  -20.8700 C   0  0  0  0  0  0  0  0  0  0  0  0
   -4.0130    1.2610  -21.9830 C   0  0  0  0  0  0  0  0  0  0  0  0
   -5.1050    0.4480  -21.8040 C   0  0  0  0  0  0  0  0  0  0  0  0
   -5.5290    0.0820  -20.4930 C   0  0  0  0  0  0  0  0  0  0  0  0
   -5.6360    0.0940  -22.6850 H   0  0  0  0  0  0  0  0  0  0  0  0
   -3.7270    1.5410  -22.9930 H   0  0  0  0  0  0  0  0  0  0  0  0
   -2.3960    2.3400  -21.0290 H   0  0  0  0  0  0  0  0  0  0  0  0
   -3.1090    1.7270  -18.7310 H   0  0  0  0  0  0  0  0  0  0  0  0
   -4.6490    0.5730  -17.2260 H   0  0  0  0  0  0  0  0  0  0  0  0
   -7.7650   -1.7210  -18.6550 H   0  0  0  0  0  0  0  0  0  0  0  0
   -7.4340   -2.7000  -21.5540 C   0  0  0  0  0  0  0  0  0  0  0  0
   -8.7540   -2.8740  -22.3250 C   0  0  2  0  0  0  0  0  0  0  0  0
   -8.6890   -3.9860  -23.3710 C   0  0  0  0  0  0  0  0  0  0  0  0
   -8.5050   -5.5830  -22.5950 S   0  0  0  0  0  0  0  0  0  0  0  0
   -9.5790   -5.7200  -21.6270 O   0  0  0  0  0  0  0  0  0  0  0  0
   -7.1190   -5.7330  -22.1760 O   0  0  0  0  0  0  0  0  0  0  0  0
   -8.7580   -6.6520  -23.8380 N   0  0  0  0  0  0  0  0  0  0  0  0
  -10.1090   -6.8640  -24.3370 C   0  0  0  0  0  0  0  0  0  0  0  0
  -10.4420   -6.1130  -25.0690 H   0  0  0  0  0  0  0  0  0  0  0  0
  -10.8030   -6.8670  -23.5000 H   0  0  0  0  0  0  0  0  0  0  0  0
  -10.1430   -7.8460  -24.8190 H   0  0  0  0  0  0  0  0  0  0  0  0
   -7.6790   -6.8220  -24.7960 C   0  0  0  0  0  0  0  0  0  0  0  0
   -7.8210   -7.7830  -25.2940 H   0  0  0  0  0  0  0  0  0  0  0  0
   -7.6430   -6.0360  -25.5670 H   0  0  0  0  0  0  0  0  0  0  0  0
   -6.7300   -6.8410  -24.2570 H   0  0  0  0  0  0  0  0  0  0  0  0
   -7.8370   -3.8500  -24.0470 H   0  0  0  0  0  0  0  0  0  0  0  0
   -9.6130   -4.0130  -23.9570 H   0  0  0  0  0  0  0  0  0  0  0  0
   -9.5120   -3.1570  -21.5930 H   0  0  0  0  0  0  0  0  0  0  0  0
   -6.5600   -2.9540  -22.1700 H   0  0  0  0  0  0  0  0  0  0  0  0
   -7.3930   -3.3100  -20.6510 H   0  0  0  0  0  0  0  0  0  0  0  0
  -10.5780   -1.1160  -22.9230 C   0  0  0  0  0  0  0  0  0  0  0  0
  -11.5390   -1.7030  -22.0930 C   0  0  0  0  0  0  0  0  0  0  0  0
  -12.8630   -1.3360  -22.2240 C   0  0  0  0  0  0  0  0  0  0  0  0
  -13.7770   -1.9600  -21.4610 F   0  0  0  0  0  0  0  0  0  0  0  0
  -13.2930   -0.3810  -23.1360 C   0  0  0  0  0  0  0  0  0  0  0  0
  -12.3340    0.2600  -23.8960 C   0  0  0  0  0  0  0  0  0  0  0  0
  -10.9960   -0.1020  -23.7950 C   0  0  0  0  0  0  0  0  0  0  0  0
   -9.9940    0.6780  -24.5750 C   0  0  0  0  0  0  0  0  0  0  0  0
  -10.1950    1.8560  -24.8970 O   0  0  0  0  0  0  0  0  0  0  0  0
  -12.5790    1.0450  -24.6010 H   0  0  0  0  0  0  0  0  0  0  0  0
  -14.3490   -0.1620  -23.2430 H   0  0  0  0  0  0  0  0  0  0  0  0
  -11.2940   -2.4580  -21.3560 H   0  0  0  0  0  0  0  0  0  0  0  0
   -7.4630   -1.4550  -24.3350 H   0  0  0  0  0  0  0  0  0  0  0  0
   -8.9950   -2.0560  -24.9740 H   0  0  0  0  0  0  0  0  0  0  0  0
   -8.3780    1.2780  -26.4500 H   0  0  0  0  0  0  0  0  0  0  0  0
   -7.2680   -0.0680  -26.2390 H   0  0  0  0  0  0  0  0  0  0  0  0
   -8.5690    2.6610  -24.3590 H   0  0  0  0  0  0  0  0  0  0  0  0
   -6.4790    2.7590  -22.4550 H   0  0  0  0  0  0  0  0  0  0  0  0
   -7.5630    4.1130  -22.8590 H   0  0  0  0  0  0  0  0  0  0  0  0
   -6.0260    3.9030  -23.7460 H   0  0  0  0  0  0  0  0  0  0  0  0
  1  2  1  0  0  0  0
  1 65  1  0  0  0  0
  1 66  1  0  0  0  0
  1 67  1  0  0  0  0
  2  3  1  0  0  0  0
  2 64  1  0  0  0  0
  3  4  2  0  0  0  0
  3  5  1  0  0  0  0
  5  6  1  0  0  0  0
  5 62  1  0  0  0  0
  5 63  1  0  0  0  0
  6  7  1  0  0  0  0
  6 55  1  0  0  0  0
  7  8  1  0  0  0  0
  7 60  1  0  0  0  0
  7 61  1  0  0  0  0
  8  9  1  1  0  0  0
  8 29  1  0  0  0  0
  8 48  1  0  0  0  0
  9 10  2  0  0  0  0
  9 11  1  0  0  0  0
 11 12  1  0  0  0  0
 11 28  1  0  0  0  0
 12 13  2  0  0  0  0
 12 21  1  0  0  0  0
 13 14  1  0  0  0  0
 13 27  1  0  0  0  0
 14 15  2  0  0  0  0
 15 16  1  0  0  0  0
 15 26  1  0  0  0  0
 16 17  2  0  0  0  0
 16 21  1  0  0  0  0
 17 18  1  0  0  0  0
 17 25  1  0  0  0  0
 18 19  2  0  0  0  0
 18 24  1  0  0  0  0
 19 20  1  0  0  0  0
 19 23  1  0  0  0  0
 20 21  2  0  0  0  0
 20 22  1  0  0  0  0
 28 29  1  0  0  0  0
 28 46  1  0  0  0  0
 28 47  1  0  0  0  0
 29 30  1  0  0  0  0
 29 45  1  1  0  0  0
 30 31  1  0  0  0  0
 30 43  1  0  0  0  0
 30 44  1  0  0  0  0
 31 32  2  0  0  0  0
 31 33  2  0  0  0  0
 31 34  1  0  0  0  0
 34 35  1  0  0  0  0
 34 39  1  0  0  0  0
 35 36  1  0  0  0  0
 35 37  1  0  0  0  0
 35 38  1  0  0  0  0
 39 40  1  0  0  0  0
 39 41  1  0  0  0  0
 39 42  1  0  0  0  0
 48 49  2  0  0  0  0
 48 54  1  0  0  0  0
 49 50  1  0  0  0  0
 49 59  1  0  0  0  0
 50 51  1  0  0  0  0
 50 52  2  0  0  0  0
 52 53  1  0  0  0  0
 52 58  1  0  0  0  0
 53 54  2  0  0  0  0
 53 57  1  0  0  0  0
 54 55  1  0  0  0  0
 55 56  2  0  0  0  0
M  END
>  <MODEL>
       1

$$$$
