tmp_first_model_17_85.pdb
 OpenBabel08282502223D

 57 62  0  0  1  0  0  0  0  0999 V2000
   -6.5930    3.4720  -23.1060 C   0  0  0  0  0  0  0  0  0  0  0  0
   -6.9790    2.4780  -24.0950 N   0  0  0  0  0  0  0  0  0  0  0  0
   -8.2470    2.5080  -24.5970 C   0  0  0  0  0  0  0  0  0  0  0  0
   -8.9850    3.4670  -24.4470 O   0  0  0  0  0  0  0  0  0  0  0  0
   -8.6560    1.2830  -25.4250 C   0  0  0  0  0  0  0  0  0  0  0  0
   -9.3580    0.2660  -24.6750 N   0  0  0  0  0  0  0  0  0  0  0  0
   -8.7540   -1.0320  -24.4370 C   0  0  0  0  0  0  0  0  0  0  0  0
   -8.9860   -1.5270  -22.9890 C   0  0  2  0  0  0  0  0  0  0  0  0
   -8.2320   -0.6050  -22.0020 C   0  0  0  0  0  0  0  0  0  0  0  0
   -8.3250    0.6050  -21.9130 O   0  0  0  0  0  0  0  0  0  0  0  0
   -7.3920   -1.3720  -21.2240 N   0  0  0  0  0  0  0  0  0  0  0  0
   -6.6020   -0.8110  -20.1890 C   0  0  0  0  0  0  0  0  0  0  0  0
   -6.9030   -1.0660  -18.8760 C   0  0  0  0  0  0  0  0  0  0  0  0
   -6.2190   -0.5610  -17.8200 N   0  0  0  0  0  0  0  0  0  0  0  0
   -5.1910    0.2080  -18.0880 C   0  0  0  0  0  0  0  0  0  0  0  0
   -4.7560    0.5370  -19.4030 C   0  0  0  0  0  0  0  0  0  0  0  0
   -3.6230    1.3610  -19.6360 C   0  0  0  0  0  0  0  0  0  0  0  0
   -3.2150    1.6370  -20.9090 C   0  0  0  0  0  0  0  0  0  0  0  0
   -3.9080    1.0910  -22.0140 C   0  0  0  0  0  0  0  0  0  0  0  0
   -5.0020    0.2870  -21.8190 C   0  0  0  0  0  0  0  0  0  0  0  0
   -5.4720    0.0070  -20.5020 C   0  0  0  0  0  0  0  0  0  0  0  0
   -5.5010   -0.1610  -22.6730 H   0  0  0  0  0  0  0  0  0  0  0  0
   -3.5570    1.3110  -23.0200 H   0  0  0  0  0  0  0  0  0  0  0  0
   -2.3440    2.2600  -21.0880 H   0  0  0  0  0  0  0  0  0  0  0  0
   -3.0890    1.7590  -18.7770 H   0  0  0  0  0  0  0  0  0  0  0  0
   -4.6350    0.6080  -17.2390 H   0  0  0  0  0  0  0  0  0  0  0  0
   -7.7590   -1.6940  -18.6280 H   0  0  0  0  0  0  0  0  0  0  0  0
   -7.4880   -2.7930  -21.4610 C   0  0  0  0  0  0  0  0  0  0  0  0
   -8.3560   -2.9020  -22.7080 C   0  0  0  0  0  0  0  0  0  0  0  0
   -7.9080   -3.8340  -23.8050 C   0  0  0  0  0  0  0  0  0  0  0  0
   -9.1170   -4.1670  -22.9800 C   0  0  0  0  0  0  0  0  0  0  0  0
  -10.0920   -4.0550  -23.4500 H   0  0  0  0  0  0  0  0  0  0  0  0
   -9.0700   -4.9690  -22.2430 H   0  0  0  0  0  0  0  0  0  0  0  0
   -8.0630   -3.5280  -24.8350 H   0  0  0  0  0  0  0  0  0  0  0  0
   -6.9970   -4.4090  -23.6560 H   0  0  0  0  0  0  0  0  0  0  0  0
   -6.4900   -3.2160  -21.6120 H   0  0  0  0  0  0  0  0  0  0  0  0
   -7.9520   -3.3110  -20.6160 H   0  0  0  0  0  0  0  0  0  0  0  0
  -10.4950   -1.4580  -22.7660 C   0  0  0  0  0  0  0  0  0  0  0  0
  -11.1470   -2.3240  -21.8880 C   0  0  0  0  0  0  0  0  0  0  0  0
  -12.5210   -2.2820  -21.7400 C   0  0  0  0  0  0  0  0  0  0  0  0
  -13.2200   -3.3160  -20.5230 Cl  0  0  0  0  0  0  0  0  0  0  0  0
  -13.2890   -1.3210  -22.3960 C   0  0  0  0  0  0  0  0  0  0  0  0
  -12.6390   -0.3900  -23.1870 C   0  0  0  0  0  0  0  0  0  0  0  0
  -11.2650   -0.4720  -23.3860 C   0  0  0  0  0  0  0  0  0  0  0  0
  -10.6650    0.4940  -24.3480 C   0  0  0  0  0  0  0  0  0  0  0  0
  -11.3130    1.4220  -24.8010 O   0  0  0  0  0  0  0  0  0  0  0  0
  -13.1440    0.4570  -23.6380 H   0  0  0  0  0  0  0  0  0  0  0  0
  -14.3590   -1.3010  -22.2440 H   0  0  0  0  0  0  0  0  0  0  0  0
  -10.5810   -3.0120  -21.2800 H   0  0  0  0  0  0  0  0  0  0  0  0
   -7.6830   -0.9860  -24.6390 H   0  0  0  0  0  0  0  0  0  0  0  0
   -9.1950   -1.7640  -25.1220 H   0  0  0  0  0  0  0  0  0  0  0  0
   -7.7730    0.8270  -25.8830 H   0  0  0  0  0  0  0  0  0  0  0  0
   -9.3230    1.6320  -26.2100 H   0  0  0  0  0  0  0  0  0  0  0  0
   -6.4770    1.6010  -24.0760 H   0  0  0  0  0  0  0  0  0  0  0  0
   -5.5800    3.2550  -22.7530 H   0  0  0  0  0  0  0  0  0  0  0  0
   -7.2820    3.4560  -22.2540 H   0  0  0  0  0  0  0  0  0  0  0  0
   -6.6210    4.4720  -23.5480 H   0  0  0  0  0  0  0  0  0  0  0  0
  1  2  1  0  0  0  0
  1 55  1  0  0  0  0
  1 56  1  0  0  0  0
  1 57  1  0  0  0  0
  2  3  1  0  0  0  0
  2 54  1  0  0  0  0
  3  4  2  0  0  0  0
  3  5  1  0  0  0  0
  5  6  1  0  0  0  0
  5 52  1  0  0  0  0
  5 53  1  0  0  0  0
  6  7  1  0  0  0  0
  6 45  1  0  0  0  0
  7  8  1  0  0  0  0
  7 50  1  0  0  0  0
  7 51  1  0  0  0  0
  8  9  1  1  0  0  0
  8 29  1  0  0  0  0
  8 38  1  0  0  0  0
  9 10  2  0  0  0  0
  9 11  1  0  0  0  0
 11 12  1  0  0  0  0
 11 28  1  0  0  0  0
 12 13  2  0  0  0  0
 12 21  1  0  0  0  0
 13 14  1  0  0  0  0
 13 27  1  0  0  0  0
 14 15  2  0  0  0  0
 15 16  1  0  0  0  0
 15 26  1  0  0  0  0
 16 17  2  0  0  0  0
 16 21  1  0  0  0  0
 17 18  1  0  0  0  0
 17 25  1  0  0  0  0
 18 19  2  0  0  0  0
 18 24  1  0  0  0  0
 19 20  1  0  0  0  0
 19 23  1  0  0  0  0
 20 21  2  0  0  0  0
 20 22  1  0  0  0  0
 28 29  1  0  0  0  0
 28 36  1  0  0  0  0
 28 37  1  0  0  0  0
 29 30  1  0  0  0  0
 29 31  1  0  0  0  0
 30 31  1  0  0  0  0
 30 34  1  0  0  0  0
 30 35  1  0  0  0  0
 31 32  1  0  0  0  0
 31 33  1  0  0  0  0
 38 39  2  0  0  0  0
 38 44  1  0  0  0  0
 39 40  1  0  0  0  0
 39 49  1  0  0  0  0
 40 41  1  0  0  0  0
 40 42  2  0  0  0  0
 42 43  1  0  0  0  0
 42 48  1  0  0  0  0
 43 44  2  0  0  0  0
 43 47  1  0  0  0  0
 44 45  1  0  0  0  0
 45 46  2  0  0  0  0
M  END
>  <MODEL>
       1

$$$$
