tmp_first_model_2_64.pdb
 OpenBabel08272517383D

 55 60  0  0  1  0  0  0  0  0999 V2000
  -10.4430   -1.1020  -23.2670 C   0  0  0  0  0  0  0  0  0  0  0  0
   -8.9980   -1.4600  -22.9320 C   0  0  1  0  0  0  0  0  0  0  0  0
   -8.3660   -0.5170  -21.8970 C   0  0  0  0  0  0  0  0  0  0  0  0
   -7.3750   -1.3570  -21.2380 N   0  0  0  0  0  0  0  0  0  0  0  0
   -6.5750   -0.8680  -20.1820 C   0  0  0  0  0  0  0  0  0  0  0  0
   -6.8980   -1.1140  -18.8720 C   0  0  0  0  0  0  0  0  0  0  0  0
   -6.2400   -0.5740  -17.8150 N   0  0  0  0  0  0  0  0  0  0  0  0
   -5.2190    0.2060  -18.0810 C   0  0  0  0  0  0  0  0  0  0  0  0
   -4.7600    0.5090  -19.3950 C   0  0  0  0  0  0  0  0  0  0  0  0
   -3.6360    1.3380  -19.6290 C   0  0  0  0  0  0  0  0  0  0  0  0
   -3.2290    1.6040  -20.9080 C   0  0  0  0  0  0  0  0  0  0  0  0
   -3.9270    1.0590  -22.0100 C   0  0  0  0  0  0  0  0  0  0  0  0
   -5.0200    0.2550  -21.8110 C   0  0  0  0  0  0  0  0  0  0  0  0
   -5.4600   -0.0350  -20.4910 C   0  0  0  0  0  0  0  0  0  0  0  0
   -5.5500   -0.1710  -22.6580 H   0  0  0  0  0  0  0  0  0  0  0  0
   -3.5980    1.2890  -23.0200 H   0  0  0  0  0  0  0  0  0  0  0  0
   -2.3720    2.2450  -21.0850 H   0  0  0  0  0  0  0  0  0  0  0  0
   -3.1220    1.7590  -18.7700 H   0  0  0  0  0  0  0  0  0  0  0  0
   -4.6910    0.6400  -17.2320 H   0  0  0  0  0  0  0  0  0  0  0  0
   -7.7350   -1.7650  -18.6250 H   0  0  0  0  0  0  0  0  0  0  0  0
   -7.6230   -2.7050  -21.3710 C   0  0  0  0  0  0  0  0  0  0  0  0
   -6.9920   -3.5820  -20.8140 O   0  0  0  0  0  0  0  0  0  0  0  0
   -8.8110   -2.8940  -22.3200 C   0  0  1  0  0  0  0  0  0  0  0  0
  -10.0250   -3.3270  -21.4680 C   0  0  0  0  0  0  0  0  0  0  0  0
  -11.1430   -3.7970  -22.2690 N   0  0  0  0  0  0  0  0  0  0  0  0
  -12.5110   -3.7090  -21.7780 C   0  0  0  0  0  0  0  0  0  0  0  0
  -13.3620   -2.6810  -22.4650 C   0  0  0  0  0  0  0  0  0  0  0  0
  -13.7430   -1.5030  -21.8990 N   0  0  0  0  0  0  0  0  0  0  0  0
  -14.5850   -1.0120  -22.7890 C   0  0  0  0  0  0  0  0  0  0  0  0
  -14.6670   -1.8310  -23.8460 N   0  0  0  0  0  0  0  0  0  0  0  0
  -13.8930   -2.9180  -23.6530 N   0  0  0  0  0  0  0  0  0  0  0  0
  -15.2580   -1.7700  -24.6620 H   0  0  0  0  0  0  0  0  0  0  0  0
  -15.1600   -0.1050  -22.7010 H   0  0  0  0  0  0  0  0  0  0  0  0
  -12.9910   -4.6640  -22.0110 H   0  0  0  0  0  0  0  0  0  0  0  0
  -12.5030   -3.5520  -20.7000 H   0  0  0  0  0  0  0  0  0  0  0  0
  -10.9750   -4.5710  -23.3750 C   0  0  0  0  0  0  0  0  0  0  0  0
  -11.9440   -5.0400  -23.9530 O   0  0  0  0  0  0  0  0  0  0  0  0
   -9.5760   -4.7590  -23.8400 C   0  0  0  0  0  0  0  0  0  0  0  0
   -9.3320   -5.7500  -24.7860 C   0  0  0  0  0  0  0  0  0  0  0  0
   -8.0760   -5.8970  -25.3390 C   0  0  0  0  0  0  0  0  0  0  0  0
   -7.0720   -5.0370  -24.9090 C   0  0  0  0  0  0  0  0  0  0  0  0
   -5.8520   -5.1630  -25.4530 F   0  0  0  0  0  0  0  0  0  0  0  0
   -7.2700   -4.0930  -23.9190 C   0  0  0  0  0  0  0  0  0  0  0  0
   -8.5410   -3.9560  -23.3560 C   0  0  0  0  0  0  0  0  0  0  0  0
   -6.4320   -3.4980  -23.5710 H   0  0  0  0  0  0  0  0  0  0  0  0
   -7.8620   -6.6570  -26.0840 H   0  0  0  0  0  0  0  0  0  0  0  0
  -10.1680   -6.3760  -25.0790 H   0  0  0  0  0  0  0  0  0  0  0  0
  -10.3710   -2.4510  -20.9140 H   0  0  0  0  0  0  0  0  0  0  0  0
   -9.7100   -4.1060  -20.7690 H   0  0  0  0  0  0  0  0  0  0  0  0
   -9.1140   -0.1480  -21.1750 H   0  0  0  0  0  0  0  0  0  0  0  0
   -7.8910    0.3590  -22.3490 H   0  0  0  0  0  0  0  0  0  0  0  0
   -8.3860   -1.4330  -23.8460 H   0  0  0  0  0  0  0  0  0  0  0  0
  -10.5200   -0.1400  -23.7790 H   0  0  0  0  0  0  0  0  0  0  0  0
  -11.0420   -1.0520  -22.3510 H   0  0  0  0  0  0  0  0  0  0  0  0
  -10.8880   -1.8770  -23.8980 H   0  0  0  0  0  0  0  0  0  0  0  0
  1  2  1  0  0  0  0
  1 53  1  0  0  0  0
  1 54  1  0  0  0  0
  1 55  1  0  0  0  0
  2  3  1  0  0  0  0
  2 23  1  0  0  0  0
  2 52  1  6  0  0  0
  3  4  1  0  0  0  0
  3 50  1  0  0  0  0
  3 51  1  0  0  0  0
  4  5  1  0  0  0  0
  4 21  1  0  0  0  0
  5  6  2  0  0  0  0
  5 14  1  0  0  0  0
  6  7  1  0  0  0  0
  6 20  1  0  0  0  0
  7  8  2  0  0  0  0
  8  9  1  0  0  0  0
  8 19  1  0  0  0  0
  9 10  2  0  0  0  0
  9 14  1  0  0  0  0
 10 11  1  0  0  0  0
 10 18  1  0  0  0  0
 11 12  2  0  0  0  0
 11 17  1  0  0  0  0
 12 13  1  0  0  0  0
 12 16  1  0  0  0  0
 13 14  2  0  0  0  0
 13 15  1  0  0  0  0
 21 22  2  0  0  0  0
 23 21  1  1  0  0  0
 23 24  1  0  0  0  0
 23 44  1  0  0  0  0
 24 25  1  0  0  0  0
 24 48  1  0  0  0  0
 24 49  1  0  0  0  0
 25 26  1  0  0  0  0
 25 36  1  0  0  0  0
 26 27  1  0  0  0  0
 26 34  1  0  0  0  0
 26 35  1  0  0  0  0
 27 28  1  0  0  0  0
 27 31  2  0  0  0  0
 28 29  2  0  0  0  0
 29 30  1  0  0  0  0
 29 33  1  0  0  0  0
 30 31  1  0  0  0  0
 30 32  1  0  0  0  0
 36 37  2  0  0  0  0
 36 38  1  0  0  0  0
 38 39  2  0  0  0  0
 38 44  1  0  0  0  0
 39 40  1  0  0  0  0
 39 47  1  0  0  0  0
 40 41  2  0  0  0  0
 40 46  1  0  0  0  0
 41 42  1  0  0  0  0
 41 43  1  0  0  0  0
 43 44  2  0  0  0  0
 43 45  1  0  0  0  0
M  END
>  <MODEL>
       1

$$$$
