tmp_first_model_18_23.pdb
 OpenBabel08282502533D

 68 73  0  0  1  0  0  0  0  0999 V2000
  -10.4150    1.6860  -27.0400 C   0  0  0  0  0  0  0  0  0  0  0  0
   -9.7470    0.5520  -26.4400 N   0  0  0  0  0  0  0  0  0  0  0  0
  -10.1050   -0.7150  -26.7920 C   0  0  0  0  0  0  0  0  0  0  0  0
  -10.9650   -0.9320  -27.6280 O   0  0  0  0  0  0  0  0  0  0  0  0
   -9.3120   -1.8330  -26.0940 C   0  0  0  0  0  0  0  0  0  0  0  0
   -9.6350   -2.0160  -24.6850 N   0  0  0  0  0  0  0  0  0  0  0  0
   -8.8590   -1.3040  -23.6650 C   0  0  0  0  0  0  0  0  0  0  0  0
   -8.7620   -2.0390  -22.2870 C   0  0  2  0  0  0  0  0  0  0  0  0
   -8.1530   -1.0650  -21.2790 C   0  0  0  0  0  0  0  0  0  0  0  0
   -8.7350   -0.1450  -20.7420 O   0  0  0  0  0  0  0  0  0  0  0  0
   -6.8280   -1.3890  -21.0910 N   0  0  0  0  0  0  0  0  0  0  0  0
   -6.0920   -0.8130  -20.0270 C   0  0  0  0  0  0  0  0  0  0  0  0
   -6.4490   -1.0840  -18.7280 C   0  0  0  0  0  0  0  0  0  0  0  0
   -5.8400   -0.5520  -17.6430 N   0  0  0  0  0  0  0  0  0  0  0  0
   -4.8530    0.2850  -17.8590 C   0  0  0  0  0  0  0  0  0  0  0  0
   -4.3590    0.6250  -19.1510 C   0  0  0  0  0  0  0  0  0  0  0  0
   -3.2890    1.5410  -19.3280 C   0  0  0  0  0  0  0  0  0  0  0  0
   -2.8350    1.8390  -20.5830 C   0  0  0  0  0  0  0  0  0  0  0  0
   -3.4180    1.2260  -21.7160 C   0  0  0  0  0  0  0  0  0  0  0  0
   -4.4580    0.3390  -21.5710 C   0  0  0  0  0  0  0  0  0  0  0  0
   -4.9690    0.0340  -20.2810 C   0  0  0  0  0  0  0  0  0  0  0  0
   -4.9010   -0.1240  -22.4480 H   0  0  0  0  0  0  0  0  0  0  0  0
   -3.0500    1.4710  -22.7090 H   0  0  0  0  0  0  0  0  0  0  0  0
   -2.0290    2.5560  -20.7200 H   0  0  0  0  0  0  0  0  0  0  0  0
   -2.8560    2.0030  -18.4440 H   0  0  0  0  0  0  0  0  0  0  0  0
   -4.3860    0.7400  -16.9850 H   0  0  0  0  0  0  0  0  0  0  0  0
   -7.2700   -1.7680  -18.5200 H   0  0  0  0  0  0  0  0  0  0  0  0
   -6.4200   -2.5870  -21.8010 C   0  0  0  0  0  0  0  0  0  0  0  0
   -7.7390   -3.2250  -22.2710 C   0  0  2  0  0  0  0  0  0  0  0  0
   -7.4880   -4.0110  -23.5580 C   0  0  0  0  0  0  0  0  0  0  0  0
   -8.5790   -4.8730  -23.9230 N   0  0  0  0  0  0  0  0  0  0  0  0
   -8.7290   -5.3730  -25.1920 C   0  0  0  0  0  0  0  0  0  0  0  0
   -9.9290   -6.0130  -25.5540 C   0  0  0  0  0  0  0  0  0  0  0  0
  -10.0960   -6.5220  -26.8330 C   0  0  0  0  0  0  0  0  0  0  0  0
   -9.0930   -6.4090  -27.7910 C   0  0  0  0  0  0  0  0  0  0  0  0
   -7.9020   -5.7840  -27.4380 C   0  0  0  0  0  0  0  0  0  0  0  0
   -7.7110   -5.2750  -26.1590 C   0  0  0  0  0  0  0  0  0  0  0  0
   -6.7580   -4.8130  -25.9100 H   0  0  0  0  0  0  0  0  0  0  0  0
   -7.1020   -5.6880  -28.1690 H   0  0  0  0  0  0  0  0  0  0  0  0
   -9.2430   -6.8020  -28.7920 H   0  0  0  0  0  0  0  0  0  0  0  0
  -11.0320   -7.0150  -27.0880 H   0  0  0  0  0  0  0  0  0  0  0  0
  -10.7500   -6.0660  -24.8460 H   0  0  0  0  0  0  0  0  0  0  0  0
   -9.3540   -4.9980  -23.2950 H   0  0  0  0  0  0  0  0  0  0  0  0
   -6.5700   -4.6050  -23.4300 H   0  0  0  0  0  0  0  0  0  0  0  0
   -7.2850   -3.3140  -24.3840 H   0  0  0  0  0  0  0  0  0  0  0  0
   -8.0980   -3.9200  -21.5050 H   0  0  0  0  0  0  0  0  0  0  0  0
   -5.8460   -3.2490  -21.1450 H   0  0  0  0  0  0  0  0  0  0  0  0
   -5.7860   -2.3350  -22.6680 H   0  0  0  0  0  0  0  0  0  0  0  0
  -10.1510   -2.4110  -21.7860 C   0  0  0  0  0  0  0  0  0  0  0  0
  -10.6650   -3.6180  -22.1090 C   0  0  0  0  0  0  0  0  0  0  0  0
  -13.1520   -2.6160  -21.5950 C   0  0  0  0  0  0  0  0  0  0  0  0
  -14.3700   -4.7200  -21.2780 Cl  0  0  0  0  0  0  0  0  0  0  0  0
  -13.3050   -2.8360  -21.5820 C   0  0  0  0  0  0  0  0  0  0  0  0
  -12.7200   -2.5370  -22.8900 C   0  0  0  0  0  0  0  0  0  0  0  0
  -11.2500   -2.8380  -23.0380 C   0  0  0  0  0  0  0  0  0  0  0  0
  -10.7740   -2.7550  -24.4200 C   0  0  0  0  0  0  0  0  0  0  0  0
  -11.3540   -3.3490  -25.3120 O   0  0  0  0  0  0  0  0  0  0  0  0
  -13.2070   -2.0390  -23.7440 H   0  0  0  0  0  0  0  0  0  0  0  0
  -13.5160   -2.3250  -20.4650 H   0  0  0  0  0  0  0  0  0  0  0  0
  -10.7250   -1.8400  -21.0380 H   0  0  0  0  0  0  0  0  0  0  0  0
   -7.8370   -1.1510  -24.0440 H   0  0  0  0  0  0  0  0  0  0  0  0
   -9.2760   -0.3070  -23.4670 H   0  0  0  0  0  0  0  0  0  0  0  0
   -8.2390   -1.6150  -26.1770 H   0  0  0  0  0  0  0  0  0  0  0  0
   -9.5150   -2.7630  -26.6310 H   0  0  0  0  0  0  0  0  0  0  0  0
   -9.0670    0.7130  -25.7140 H   0  0  0  0  0  0  0  0  0  0  0  0
  -11.4250    1.8210  -26.6380 H   0  0  0  0  0  0  0  0  0  0  0  0
   -9.8310    2.5880  -26.8490 H   0  0  0  0  0  0  0  0  0  0  0  0
  -10.4930    1.5330  -28.1190 H   0  0  0  0  0  0  0  0  0  0  0  0
  1  2  1  0  0  0  0
  1 66  1  0  0  0  0
  1 67  1  0  0  0  0
  1 68  1  0  0  0  0
  2  3  1  0  0  0  0
  2 65  1  0  0  0  0
  3  4  2  0  0  0  0
  3  5  1  0  0  0  0
  5  6  1  0  0  0  0
  5 63  1  0  0  0  0
  5 64  1  0  0  0  0
  6  7  1  0  0  0  0
  6 56  1  0  0  0  0
  7  8  1  0  0  0  0
  7 61  1  0  0  0  0
  7 62  1  0  0  0  0
  8  9  1  1  0  0  0
  8 29  1  0  0  0  0
  8 49  1  0  0  0  0
  9 10  2  0  0  0  0
  9 11  1  0  0  0  0
 11 12  1  0  0  0  0
 11 28  1  0  0  0  0
 12 13  2  0  0  0  0
 12 21  1  0  0  0  0
 13 14  1  0  0  0  0
 13 27  1  0  0  0  0
 14 15  2  0  0  0  0
 15 16  1  0  0  0  0
 15 26  1  0  0  0  0
 16 17  2  0  0  0  0
 16 21  1  0  0  0  0
 17 18  1  0  0  0  0
 17 25  1  0  0  0  0
 18 19  2  0  0  0  0
 18 24  1  0  0  0  0
 19 20  1  0  0  0  0
 19 23  1  0  0  0  0
 20 21  2  0  0  0  0
 20 22  1  0  0  0  0
 28 29  1  0  0  0  0
 28 47  1  0  0  0  0
 28 48  1  0  0  0  0
 29 30  1  0  0  0  0
 29 46  1  1  0  0  0
 30 31  1  0  0  0  0
 30 44  1  0  0  0  0
 30 45  1  0  0  0  0
 31 32  1  0  0  0  0
 31 43  1  0  0  0  0
 32 33  2  0  0  0  0
 32 37  1  0  0  0  0
 33 34  1  0  0  0  0
 33 42  1  0  0  0  0
 34 35  2  0  0  0  0
 34 41  1  0  0  0  0
 35 36  1  0  0  0  0
 35 40  1  0  0  0  0
 36 37  2  0  0  0  0
 36 39  1  0  0  0  0
 37 38  1  0  0  0  0
 49 50  2  0  0  0  0
 49 55  1  0  0  0  0
 50 51  1  0  0  0  0
 50 60  1  0  0  0  0
 51 52  1  0  0  0  0
 51 53  2  0  0  0  0
 53 54  1  0  0  0  0
 53 59  1  0  0  0  0
 54 55  2  0  0  0  0
 54 58  1  0  0  0  0
 55 56  1  0  0  0  0
 56 57  2  0  0  0  0
M  END
>  <MODEL>
       1

$$$$
