tmp_first_model_9_17.pdb
 OpenBabel08272521403D

 38 41  0  0  1  0  0  0  0  0999 V2000
   -9.3480   -4.9440  -25.6910 C   0  0  0  0  0  0  0  0  0  0  0  0
   -9.3470   -4.1950  -24.3570 C   0  0  2  0  0  0  0  0  0  0  0  0
  -10.3480   -3.0410  -24.3810 C   0  0  0  0  0  0  0  0  0  0  0  0
  -10.4230   -2.3520  -23.0160 C   0  0  0  0  0  0  0  0  0  0  0  0
   -9.0850   -2.1160  -22.4680 C   0  0  0  0  0  0  0  0  0  0  0  0
   -8.7200   -1.1940  -21.4400 C   0  0  0  0  0  0  0  0  0  0  0  0
   -9.3840   -0.3300  -20.9130 O   0  5  0  0  0  0  0  0  0  0  0  0
   -7.3440   -1.4710  -21.2000 N   0  0  0  0  0  0  0  0  0  0  0  0
   -6.5720   -0.8430  -20.1840 C   0  0  0  0  0  0  0  0  0  0  0  0
   -6.8870   -1.0520  -18.8650 C   0  0  0  0  0  0  0  0  0  0  0  0
   -6.1870   -0.5450  -17.8210 N   0  0  0  0  0  0  0  0  0  0  0  0
   -5.1560    0.2160  -18.0790 C   0  0  0  0  0  0  0  0  0  0  0  0
   -4.7240    0.5340  -19.3940 C   0  0  0  0  0  0  0  0  0  0  0  0
   -3.5970    1.3670  -19.6290 C   0  0  0  0  0  0  0  0  0  0  0  0
   -3.2200    1.6710  -20.9080 C   0  0  0  0  0  0  0  0  0  0  0  0
   -3.9560    1.1610  -22.0010 C   0  0  0  0  0  0  0  0  0  0  0  0
   -5.0470    0.3550  -21.7980 C   0  0  0  0  0  0  0  0  0  0  0  0
   -5.4560    0.0040  -20.4850 C   0  0  0  0  0  0  0  0  0  0  0  0
   -5.6040   -0.0320  -22.6440 H   0  0  0  0  0  0  0  0  0  0  0  0
   -3.6550    1.4050  -23.0150 H   0  0  0  0  0  0  0  0  0  0  0  0
   -2.3660    2.3170  -21.0950 H   0  0  0  0  0  0  0  0  0  0  0  0
   -3.0610    1.7730  -18.7740 H   0  0  0  0  0  0  0  0  0  0  0  0
   -4.6090    0.6210  -17.2230 H   0  0  0  0  0  0  0  0  0  0  0  0
   -7.7370   -1.6720  -18.5930 H   0  0  0  0  0  0  0  0  0  0  0  0
   -6.8630   -2.4210  -22.1190 C   0  0  0  0  0  0  0  0  0  0  0  0
   -5.7300   -2.8240  -22.2400 O   0  0  0  0  0  0  0  0  0  0  0  0
   -7.9760   -2.7840  -22.8660 N   0  0  0  0  0  0  0  0  0  0  0  0
   -7.9460   -3.6820  -24.0090 C   0  0  0  0  0  0  0  0  0  0  0  0
   -7.2780   -4.5000  -23.7570 H   0  0  0  0  0  0  0  0  0  0  0  0
   -7.5090   -3.1770  -24.8750 H   0  0  0  0  0  0  0  0  0  0  0  0
  -10.9660   -1.4020  -23.0750 H   0  0  0  0  0  0  0  0  0  0  0  0
  -11.0050   -2.9650  -22.3110 H   0  0  0  0  0  0  0  0  0  0  0  0
  -10.0340   -2.3170  -25.1410 H   0  0  0  0  0  0  0  0  0  0  0  0
  -11.3400   -3.4060  -24.6760 H   0  0  0  0  0  0  0  0  0  0  0  0
   -9.6530   -4.9010  -23.5740 H   0  0  0  0  0  0  0  0  0  0  0  0
  -10.3420   -5.3470  -25.9210 H   0  0  0  0  0  0  0  0  0  0  0  0
   -8.6480   -5.7870  -25.6930 H   0  0  0  0  0  0  0  0  0  0  0  0
   -9.0730   -4.2810  -26.5200 H   0  0  0  0  0  0  0  0  0  0  0  0
  1  2  1  0  0  0  0
  1 36  1  0  0  0  0
  1 37  1  0  0  0  0
  1 38  1  0  0  0  0
  2  3  1  0  0  0  0
  2 28  1  0  0  0  0
  2 35  1  1  0  0  0
  3  4  1  0  0  0  0
  3 33  1  0  0  0  0
  3 34  1  0  0  0  0
  4  5  1  0  0  0  0
  4 31  1  0  0  0  0
  4 32  1  0  0  0  0
  5  6  2  0  0  0  0
  5 27  1  0  0  0  0
  6  7  1  0  0  0  0
  6  8  1  0  0  0  0
  8  9  1  0  0  0  0
  8 25  1  0  0  0  0
  9 10  2  0  0  0  0
  9 18  1  0  0  0  0
 10 11  1  0  0  0  0
 10 24  1  0  0  0  0
 11 12  2  0  0  0  0
 12 13  1  0  0  0  0
 12 23  1  0  0  0  0
 13 14  2  0  0  0  0
 13 18  1  0  0  0  0
 14 15  1  0  0  0  0
 14 22  1  0  0  0  0
 15 16  2  0  0  0  0
 15 21  1  0  0  0  0
 16 17  1  0  0  0  0
 16 20  1  0  0  0  0
 17 18  2  0  0  0  0
 17 19  1  0  0  0  0
 25 26  2  0  0  0  0
 25 27  1  0  0  0  0
 27 28  1  0  0  0  0
 28 29  1  0  0  0  0
 28 30  1  0  0  0  0
M  CHG  1   7  -1
M  END
>  <MODEL>
       1

$$$$
