tmp_first_model_11_87.pdb
 OpenBabel08272522543D

 59 64  0  0  1  0  0  0  0  0999 V2000
   -7.8690   -3.6830  -24.0570 C   0  0  0  0  0  0  0  0  0  0  0  0
   -8.2720   -2.8860  -22.8070 C   0  0  1  0  0  0  0  0  0  0  0  0
   -7.0700   -2.6400  -21.8660 C   0  0  0  0  0  0  0  0  0  0  0  0
   -7.4010   -1.3980  -21.1990 N   0  0  0  0  0  0  0  0  0  0  0  0
   -6.6030   -0.8150  -20.1740 C   0  0  0  0  0  0  0  0  0  0  0  0
   -6.9060   -1.0450  -18.8590 C   0  0  0  0  0  0  0  0  0  0  0  0
   -6.2020   -0.5480  -17.8090 N   0  0  0  0  0  0  0  0  0  0  0  0
   -5.1670    0.2080  -18.0800 C   0  0  0  0  0  0  0  0  0  0  0  0
   -4.7310    0.5260  -19.3980 C   0  0  0  0  0  0  0  0  0  0  0  0
   -3.6020    1.3550  -19.6410 C   0  0  0  0  0  0  0  0  0  0  0  0
   -3.2110    1.6420  -20.9180 C   0  0  0  0  0  0  0  0  0  0  0  0
   -3.9260    1.1060  -22.0130 C   0  0  0  0  0  0  0  0  0  0  0  0
   -5.0210    0.3040  -21.8050 C   0  0  0  0  0  0  0  0  0  0  0  0
   -5.4640   -0.0040  -20.4870 C   0  0  0  0  0  0  0  0  0  0  0  0
   -5.5680   -0.0890  -22.6580 H   0  0  0  0  0  0  0  0  0  0  0  0
   -3.6140    1.3440  -23.0250 H   0  0  0  0  0  0  0  0  0  0  0  0
   -2.3600    2.2940  -21.0990 H   0  0  0  0  0  0  0  0  0  0  0  0
   -3.0770    1.7720  -18.7850 H   0  0  0  0  0  0  0  0  0  0  0  0
   -4.6190    0.6150  -17.2290 H   0  0  0  0  0  0  0  0  0  0  0  0
   -7.7560   -1.6700  -18.5960 H   0  0  0  0  0  0  0  0  0  0  0  0
   -8.4260   -0.6910  -21.7890 C   0  0  0  0  0  0  0  0  0  0  0  0
   -8.8520    0.3580  -21.3670 O   0  0  0  0  0  0  0  0  0  0  0  0
   -8.9250   -1.4800  -23.0330 C   0  0  1  0  0  0  0  0  0  0  0  0
   -8.4110   -0.8360  -24.3470 C   0  0  0  0  0  0  0  0  0  0  0  0
   -9.0530    0.4320  -24.6370 N   0  0  0  0  0  0  0  0  0  0  0  0
   -8.2980    1.5180  -25.2430 C   0  0  0  0  0  0  0  0  0  0  0  0
   -8.1800    2.7180  -24.3480 C   0  0  0  0  0  0  0  0  0  0  0  0
   -7.5780    2.8210  -23.1120 C   0  0  0  0  0  0  0  0  0  0  0  0
   -7.7720    4.1590  -22.7210 C   0  0  0  0  0  0  0  0  0  0  0  0
   -8.4170    4.8420  -23.6610 N   0  0  0  0  0  0  0  0  0  0  0  0
   -8.6460    3.9580  -24.6420 N   0  0  0  0  0  0  0  0  0  0  0  0
   -9.2920    4.3940  -25.8680 C   0  0  0  0  0  0  0  0  0  0  0  0
  -10.1870    3.7890  -26.0380 H   0  0  0  0  0  0  0  0  0  0  0  0
   -8.6040    4.2970  -26.7180 H   0  0  0  0  0  0  0  0  0  0  0  0
   -9.5440    5.4480  -25.7240 H   0  0  0  0  0  0  0  0  0  0  0  0
   -7.4840    4.6590  -21.8000 H   0  0  0  0  0  0  0  0  0  0  0  0
   -7.0980    2.0130  -22.5770 H   0  0  0  0  0  0  0  0  0  0  0  0
   -8.7400    1.7780  -26.2130 H   0  0  0  0  0  0  0  0  0  0  0  0
   -7.2940    1.1280  -25.4240 H   0  0  0  0  0  0  0  0  0  0  0  0
  -10.4080    0.5670  -24.5820 C   0  0  0  0  0  0  0  0  0  0  0  0
  -10.9860    1.5090  -25.1120 O   0  0  0  0  0  0  0  0  0  0  0  0
  -11.1390   -0.4940  -23.8090 C   0  0  0  0  0  0  0  0  0  0  0  0
  -12.5340   -0.4630  -23.8040 C   0  0  0  0  0  0  0  0  0  0  0  0
  -13.2550   -1.3310  -23.0090 C   0  0  0  0  0  0  0  0  0  0  0  0
  -12.5530   -2.2040  -22.1870 C   0  0  0  0  0  0  0  0  0  0  0  0
  -13.2470   -3.0090  -21.3650 F   0  0  0  0  0  0  0  0  0  0  0  0
  -11.1760   -2.2670  -22.1780 C   0  0  0  0  0  0  0  0  0  0  0  0
  -10.4430   -1.4470  -23.0470 C   0  0  0  0  0  0  0  0  0  0  0  0
  -10.7070   -2.9390  -21.4680 H   0  0  0  0  0  0  0  0  0  0  0  0
  -14.3370   -1.3250  -22.9740 H   0  0  0  0  0  0  0  0  0  0  0  0
  -13.0260    0.2820  -24.4190 H   0  0  0  0  0  0  0  0  0  0  0  0
   -8.5770   -1.5450  -25.1730 H   0  0  0  0  0  0  0  0  0  0  0  0
   -7.3340   -0.6610  -24.2420 H   0  0  0  0  0  0  0  0  0  0  0  0
   -6.1290   -2.5570  -22.4340 H   0  0  0  0  0  0  0  0  0  0  0  0
   -6.9350   -3.4430  -21.1310 H   0  0  0  0  0  0  0  0  0  0  0  0
   -9.0080   -3.4750  -22.2550 H   0  0  0  0  0  0  0  0  0  0  0  0
   -8.7110   -3.8240  -24.7450 H   0  0  0  0  0  0  0  0  0  0  0  0
   -7.0670   -3.1760  -24.6110 H   0  0  0  0  0  0  0  0  0  0  0  0
   -7.4930   -4.6770  -23.7820 H   0  0  0  0  0  0  0  0  0  0  0  0
  1  2  1  0  0  0  0
  1 57  1  0  0  0  0
  1 58  1  0  0  0  0
  1 59  1  0  0  0  0
  2  3  1  0  0  0  0
  2 23  1  0  0  0  0
  2 56  1  1  0  0  0
  3  4  1  0  0  0  0
  3 54  1  0  0  0  0
  3 55  1  0  0  0  0
  4  5  1  0  0  0  0
  4 21  1  0  0  0  0
  5  6  2  0  0  0  0
  5 14  1  0  0  0  0
  6  7  1  0  0  0  0
  6 20  1  0  0  0  0
  7  8  2  0  0  0  0
  8  9  1  0  0  0  0
  8 19  1  0  0  0  0
  9 10  2  0  0  0  0
  9 14  1  0  0  0  0
 10 11  1  0  0  0  0
 10 18  1  0  0  0  0
 11 12  2  0  0  0  0
 11 17  1  0  0  0  0
 12 13  1  0  0  0  0
 12 16  1  0  0  0  0
 13 14  2  0  0  0  0
 13 15  1  0  0  0  0
 21 22  2  0  0  0  0
 23 21  1  1  0  0  0
 23 24  1  0  0  0  0
 23 48  1  0  0  0  0
 24 25  1  0  0  0  0
 24 52  1  0  0  0  0
 24 53  1  0  0  0  0
 25 26  1  0  0  0  0
 25 40  1  0  0  0  0
 26 27  1  0  0  0  0
 26 38  1  0  0  0  0
 26 39  1  0  0  0  0
 27 28  2  0  0  0  0
 27 31  1  0  0  0  0
 28 29  1  0  0  0  0
 28 37  1  0  0  0  0
 29 30  2  0  0  0  0
 29 36  1  0  0  0  0
 30 31  1  0  0  0  0
 31 32  1  0  0  0  0
 32 33  1  0  0  0  0
 32 34  1  0  0  0  0
 32 35  1  0  0  0  0
 40 41  2  0  0  0  0
 40 42  1  0  0  0  0
 42 43  2  0  0  0  0
 42 48  1  0  0  0  0
 43 44  1  0  0  0  0
 43 51  1  0  0  0  0
 44 45  2  0  0  0  0
 44 50  1  0  0  0  0
 45 46  1  0  0  0  0
 45 47  1  0  0  0  0
 47 48  2  0  0  0  0
 47 49  1  0  0  0  0
M  END
>  <MODEL>
       1

$$$$
