tmp_first_model_4_10.pdb
 OpenBabel08272518513D

 57 62  0  0  1  0  0  0  0  0999 V2000
   -8.5470   -4.2350  -23.6980 C   0  0  0  0  0  0  0  0  0  0  0  0
   -8.5980   -3.3330  -22.4730 C   0  0  1  0  0  0  0  0  0  0  0  0
   -7.2230   -2.7780  -22.0830 C   0  0  0  0  0  0  0  0  0  0  0  0
   -7.5770   -1.6620  -21.2290 N   0  0  0  0  0  0  0  0  0  0  0  0
   -6.7060   -1.2000  -20.2080 C   0  0  0  0  0  0  0  0  0  0  0  0
   -6.8690   -1.5830  -18.9000 C   0  0  0  0  0  0  0  0  0  0  0  0
   -5.9620   -1.3500  -17.9160 N   0  0  0  0  0  0  0  0  0  0  0  0
   -4.8580   -0.7290  -18.2390 C   0  0  0  0  0  0  0  0  0  0  0  0
   -4.5540   -0.2780  -19.5500 C   0  0  0  0  0  0  0  0  0  0  0  0
   -3.3220    0.3540  -19.8610 C   0  0  0  0  0  0  0  0  0  0  0  0
   -3.0720    0.7960  -21.1320 C   0  0  0  0  0  0  0  0  0  0  0  0
   -4.0610    0.6640  -22.1360 C   0  0  0  0  0  0  0  0  0  0  0  0
   -5.2660    0.0670  -21.8460 C   0  0  0  0  0  0  0  0  0  0  0  0
   -5.5240   -0.4690  -20.5580 C   0  0  0  0  0  0  0  0  0  0  0  0
   -6.0590    0.0310  -22.5860 H   0  0  0  0  0  0  0  0  0  0  0  0
   -3.8730    1.0540  -23.1340 H   0  0  0  0  0  0  0  0  0  0  0  0
   -2.1310    1.2850  -21.3690 H   0  0  0  0  0  0  0  0  0  0  0  0
   -2.6040    0.4980  -19.0560 H   0  0  0  0  0  0  0  0  0  0  0  0
   -4.1300   -0.5630  -17.4450 H   0  0  0  0  0  0  0  0  0  0  0  0
   -7.7530   -2.1440  -18.6090 H   0  0  0  0  0  0  0  0  0  0  0  0
   -8.8640   -1.1940  -21.4290 C   0  0  0  0  0  0  0  0  0  0  0  0
   -9.3330   -0.2200  -20.8910 O   0  0  0  0  0  0  0  0  0  0  0  0
   -9.5360   -2.0880  -22.5200 C   0  0  1  0  0  0  0  0  0  0  0  0
   -9.4280   -1.3210  -23.8540 C   0  0  0  0  0  0  0  0  0  0  0  0
  -10.3540   -0.2010  -23.8950 N   0  0  0  0  0  0  0  0  0  0  0  0
   -9.9260    0.9450  -24.6910 C   0  0  0  0  0  0  0  0  0  0  0  0
   -9.9620    0.6200  -26.1560 C   0  0  0  0  0  0  0  0  0  0  0  0
   -9.0160    0.6030  -27.1210 C   0  0  0  0  0  0  0  0  0  0  0  0
   -9.5820    0.0120  -28.2340 N   0  3  0  0  0  0  0  0  0  0  0  0
  -10.8590   -0.2860  -27.9540 C   0  0  0  0  0  0  0  0  0  0  0  0
  -11.1190    0.0950  -26.7000 N   0  0  0  0  0  0  0  0  0  0  0  0
  -12.0010    0.1300  -26.1880 H   0  0  0  0  0  0  0  0  0  0  0  0
  -11.5550   -0.7800  -28.6080 H   0  0  0  0  0  0  0  0  0  0  0  0
   -9.1080   -0.0940  -29.1190 H   0  0  0  0  0  0  0  0  0  0  0  0
   -7.9970    0.9630  -27.1250 H   0  0  0  0  0  0  0  0  0  0  0  0
   -8.9120    1.2220  -24.3730 H   0  0  0  0  0  0  0  0  0  0  0  0
  -10.5970    1.7760  -24.4460 H   0  0  0  0  0  0  0  0  0  0  0  0
  -11.6850   -0.4110  -23.7010 C   0  0  0  0  0  0  0  0  0  0  0  0
  -12.5550    0.2810  -24.2410 O   0  0  0  0  0  0  0  0  0  0  0  0
  -12.0200   -1.5330  -22.7890 C   0  0  0  0  0  0  0  0  0  0  0  0
  -13.3670   -1.7410  -22.4880 C   0  0  0  0  0  0  0  0  0  0  0  0
  -13.7590   -2.7210  -21.6030 C   0  0  0  0  0  0  0  0  0  0  0  0
  -12.7580   -3.5090  -21.0570 C   0  0  0  0  0  0  0  0  0  0  0  0
  -13.1000   -4.3590  -20.0750 F   0  0  0  0  0  0  0  0  0  0  0  0
  -11.4360   -3.4210  -21.4610 C   0  0  0  0  0  0  0  0  0  0  0  0
  -11.0140   -2.3660  -22.2760 C   0  0  0  0  0  0  0  0  0  0  0  0
  -10.7290   -4.1310  -21.0520 H   0  0  0  0  0  0  0  0  0  0  0  0
  -14.8010   -2.8830  -21.3440 H   0  0  0  0  0  0  0  0  0  0  0  0
  -14.1080   -1.1080  -22.9550 H   0  0  0  0  0  0  0  0  0  0  0  0
   -9.6180   -2.0010  -24.6940 H   0  0  0  0  0  0  0  0  0  0  0  0
   -8.4230   -0.9150  -23.9870 H   0  0  0  0  0  0  0  0  0  0  0  0
   -6.6000   -3.5040  -21.5440 H   0  0  0  0  0  0  0  0  0  0  0  0
   -6.6540   -2.4530  -22.9720 H   0  0  0  0  0  0  0  0  0  0  0  0
   -8.9120   -3.9310  -21.6110 H   0  0  0  0  0  0  0  0  0  0  0  0
   -9.5280   -4.6760  -23.8980 H   0  0  0  0  0  0  0  0  0  0  0  0
   -8.2300   -3.6780  -24.5870 H   0  0  0  0  0  0  0  0  0  0  0  0
   -7.8230   -5.0460  -23.5510 H   0  0  0  0  0  0  0  0  0  0  0  0
  1  2  1  0  0  0  0
  1 55  1  0  0  0  0
  1 56  1  0  0  0  0
  1 57  1  0  0  0  0
  2  3  1  0  0  0  0
  2 23  1  0  0  0  0
  2 54  1  1  0  0  0
  3  4  1  0  0  0  0
  3 52  1  0  0  0  0
  3 53  1  0  0  0  0
  4  5  1  0  0  0  0
  4 21  1  0  0  0  0
  5  6  2  0  0  0  0
  5 14  1  0  0  0  0
  6  7  1  0  0  0  0
  6 20  1  0  0  0  0
  7  8  2  0  0  0  0
  8  9  1  0  0  0  0
  8 19  1  0  0  0  0
  9 10  2  0  0  0  0
  9 14  1  0  0  0  0
 10 11  1  0  0  0  0
 10 18  1  0  0  0  0
 11 12  2  0  0  0  0
 11 17  1  0  0  0  0
 12 13  1  0  0  0  0
 12 16  1  0  0  0  0
 13 14  2  0  0  0  0
 13 15  1  0  0  0  0
 21 22  2  0  0  0  0
 23 21  1  1  0  0  0
 23 24  1  0  0  0  0
 23 46  1  0  0  0  0
 24 25  1  0  0  0  0
 24 50  1  0  0  0  0
 24 51  1  0  0  0  0
 25 26  1  0  0  0  0
 25 38  1  0  0  0  0
 26 27  1  0  0  0  0
 26 36  1  0  0  0  0
 26 37  1  0  0  0  0
 27 28  2  0  0  0  0
 27 31  1  0  0  0  0
 28 29  1  0  0  0  0
 28 35  1  0  0  0  0
 29 30  2  0  0  0  0
 29 34  1  0  0  0  0
 30 31  1  0  0  0  0
 30 33  1  0  0  0  0
 31 32  1  0  0  0  0
 38 39  2  0  0  0  0
 38 40  1  0  0  0  0
 40 41  2  0  0  0  0
 40 46  1  0  0  0  0
 41 42  1  0  0  0  0
 41 49  1  0  0  0  0
 42 43  2  0  0  0  0
 42 48  1  0  0  0  0
 43 44  1  0  0  0  0
 43 45  1  0  0  0  0
 45 46  2  0  0  0  0
 45 47  1  0  0  0  0
M  CHG  1  29   1
M  END
>  <MODEL>
       1

$$$$
