tmp_first_model_9_51.pdb
 OpenBabel08272521403D

 50 52  0  0  0  0  0  0  0  0999 V2000
   -9.7530   -3.8810  -25.5810 C   0  0  0  0  0  0  0  0  0  0  0  0
   -8.7830   -3.5500  -24.7320 C   0  0  0  0  0  0  0  0  0  0  0  0
   -8.7060   -2.1550  -24.1670 C   0  0  0  0  0  0  0  0  0  0  0  0
   -9.4750   -1.9620  -22.9320 N   0  0  0  0  0  0  0  0  0  0  0  0
   -8.8970   -1.3090  -21.8420 C   0  0  0  0  0  0  0  0  0  0  0  0
   -9.4910   -0.5470  -21.1100 O   0  0  0  0  0  0  0  0  0  0  0  0
   -7.5630   -1.6320  -21.6510 N   0  0  0  0  0  0  0  0  0  0  0  0
   -6.9020   -1.0650  -20.5390 C   0  0  0  0  0  0  0  0  0  0  0  0
   -7.3470   -1.2770  -19.2620 C   0  0  0  0  0  0  0  0  0  0  0  0
   -6.7330   -0.7990  -18.1560 N   0  0  0  0  0  0  0  0  0  0  0  0
   -5.6680   -0.0550  -18.3210 C   0  0  0  0  0  0  0  0  0  0  0  0
   -5.1300    0.2860  -19.5910 C   0  0  0  0  0  0  0  0  0  0  0  0
   -3.9990    1.1310  -19.7360 C   0  0  0  0  0  0  0  0  0  0  0  0
   -3.5240    1.4370  -20.9810 C   0  0  0  0  0  0  0  0  0  0  0  0
   -4.1700    0.9420  -22.1380 C   0  0  0  0  0  0  0  0  0  0  0  0
   -5.2800    0.1410  -22.0200 C   0  0  0  0  0  0  0  0  0  0  0  0
   -5.7660   -0.2260  -20.7420 C   0  0  0  0  0  0  0  0  0  0  0  0
   -5.8090   -0.2100  -22.8990 H   0  0  0  0  0  0  0  0  0  0  0  0
   -3.7860    1.1960  -23.1240 H   0  0  0  0  0  0  0  0  0  0  0  0
   -2.6490    2.0710  -21.0970 H   0  0  0  0  0  0  0  0  0  0  0  0
   -3.5380    1.5410  -18.8390 H   0  0  0  0  0  0  0  0  0  0  0  0
   -5.1750    0.3140  -17.4220 H   0  0  0  0  0  0  0  0  0  0  0  0
   -8.2520   -1.8520  -19.0910 H   0  0  0  0  0  0  0  0  0  0  0  0
   -7.1910   -2.4890  -22.0640 H   0  0  0  0  0  0  0  0  0  0  0  0
  -10.8920   -2.1400  -22.8850 C   0  0  0  0  0  0  0  0  0  0  0  0
  -11.7830   -1.5690  -23.7980 C   0  0  0  0  0  0  0  0  0  0  0  0
  -13.1560   -1.7770  -23.6420 C   0  0  0  0  0  0  0  0  0  0  0  0
  -13.6580   -2.5470  -22.5980 C   0  0  0  0  0  0  0  0  0  0  0  0
  -12.7580   -3.1020  -21.6960 C   0  0  0  0  0  0  0  0  0  0  0  0
  -13.3830   -4.0210  -20.3590 Cl  0  0  0  0  0  0  0  0  0  0  0  0
  -11.3930   -2.9000  -21.8310 C   0  0  0  0  0  0  0  0  0  0  0  0
  -10.6740   -3.3470  -21.1550 H   0  0  0  0  0  0  0  0  0  0  0  0
  -14.7230   -2.7520  -22.4990 H   0  0  0  0  0  0  0  0  0  0  0  0
  -13.8480   -1.3290  -24.3490 H   0  0  0  0  0  0  0  0  0  0  0  0
  -11.4120   -0.9560  -24.6150 H   0  0  0  0  0  0  0  0  0  0  0  0
   -7.6670   -1.9250  -23.9400 H   0  0  0  0  0  0  0  0  0  0  0  0
   -9.0300   -1.4310  -24.9260 H   0  0  0  0  0  0  0  0  0  0  0  0
   -7.7230   -4.4870  -24.2250 C   0  0  0  0  0  0  0  0  0  0  0  0
   -7.0090   -4.1810  -23.2710 O   0  0  0  0  0  0  0  0  0  0  0  0
   -7.5640   -5.6590  -24.8910 N   0  0  0  0  0  0  0  0  0  0  0  0
   -6.8570   -6.7650  -24.2790 C   0  0  0  0  0  0  0  0  0  0  0  0
   -7.7720   -7.6050  -23.3940 C   0  0  0  0  0  0  0  0  0  0  0  0
   -8.1330   -7.0010  -22.5580 H   0  0  0  0  0  0  0  0  0  0  0  0
   -7.2480   -8.4760  -22.9900 H   0  0  0  0  0  0  0  0  0  0  0  0
   -8.6440   -7.9530  -23.9610 H   0  0  0  0  0  0  0  0  0  0  0  0
   -6.0460   -6.3300  -23.6940 H   0  0  0  0  0  0  0  0  0  0  0  0
   -6.4110   -7.3650  -25.0770 H   0  0  0  0  0  0  0  0  0  0  0  0
   -8.2250   -5.8770  -25.6180 H   0  0  0  0  0  0  0  0  0  0  0  0
   -9.9180   -4.8800  -25.9710 H   0  0  0  0  0  0  0  0  0  0  0  0
  -10.4720   -3.1330  -25.9060 H   0  0  0  0  0  0  0  0  0  0  0  0
  1  2  2  0  0  0  0
  1 49  1  0  0  0  0
  1 50  1  0  0  0  0
  2  3  1  0  0  0  0
  2 38  1  0  0  0  0
  3  4  1  0  0  0  0
  3 36  1  0  0  0  0
  3 37  1  0  0  0  0
  4  5  1  0  0  0  0
  4 25  1  0  0  0  0
  5  6  2  0  0  0  0
  5  7  1  0  0  0  0
  7  8  1  0  0  0  0
  7 24  1  0  0  0  0
  8  9  2  0  0  0  0
  8 17  1  0  0  0  0
  9 10  1  0  0  0  0
  9 23  1  0  0  0  0
 10 11  2  0  0  0  0
 11 12  1  0  0  0  0
 11 22  1  0  0  0  0
 12 13  2  0  0  0  0
 12 17  1  0  0  0  0
 13 14  1  0  0  0  0
 13 21  1  0  0  0  0
 14 15  2  0  0  0  0
 14 20  1  0  0  0  0
 15 16  1  0  0  0  0
 15 19  1  0  0  0  0
 16 17  2  0  0  0  0
 16 18  1  0  0  0  0
 25 26  2  0  0  0  0
 25 31  1  0  0  0  0
 26 27  1  0  0  0  0
 26 35  1  0  0  0  0
 27 28  2  0  0  0  0
 27 34  1  0  0  0  0
 28 29  1  0  0  0  0
 28 33  1  0  0  0  0
 29 30  1  0  0  0  0
 29 31  2  0  0  0  0
 31 32  1  0  0  0  0
 38 39  2  0  0  0  0
 38 40  1  0  0  0  0
 40 41  1  0  0  0  0
 40 48  1  0  0  0  0
 41 42  1  0  0  0  0
 41 46  1  0  0  0  0
 41 47  1  0  0  0  0
 42 43  1  0  0  0  0
 42 44  1  0  0  0  0
 42 45  1  0  0  0  0
M  END
>  <MODEL>
       1

$$$$
