tmp_first_model_2_6.pdb
 OpenBabel08272517383D

 43 45  0  0  0  0  0  0  0  0999 V2000
   -8.2910   -5.9230  -27.5920 C   0  0  0  0  0  0  0  0  0  0  0  0
   -8.9340   -4.8580  -26.7140 C   0  0  0  0  0  0  0  0  0  0  0  0
   -7.9730   -4.1550  -25.7470 C   0  0  0  0  0  0  0  0  0  0  0  0
   -7.3670   -5.1160  -24.7230 C   0  0  0  0  0  0  0  0  0  0  0  0
   -6.5630   -4.4020  -23.6400 C   0  0  0  0  0  0  0  0  0  0  0  0
   -7.3120   -3.3160  -22.9960 N   0  0  0  0  0  0  0  0  0  0  0  0
   -6.7200   -2.7010  -21.9180 C   0  0  0  0  0  0  0  0  0  0  0  0
   -5.6550   -3.1070  -21.4780 O   0  0  0  0  0  0  0  0  0  0  0  0
   -7.4100   -1.4710  -21.2750 C   0  0  0  0  0  0  0  0  0  0  0  0
   -6.5780   -0.8330  -20.1830 C   0  0  0  0  0  0  0  0  0  0  0  0
   -6.8730   -1.0470  -18.8620 C   0  0  0  0  0  0  0  0  0  0  0  0
   -6.1910   -0.5410  -17.7980 N   0  0  0  0  0  0  0  0  0  0  0  0
   -5.1590    0.2230  -18.0640 C   0  0  0  0  0  0  0  0  0  0  0  0
   -4.7220    0.5310  -19.3810 C   0  0  0  0  0  0  0  0  0  0  0  0
   -3.5930    1.3590  -19.6220 C   0  0  0  0  0  0  0  0  0  0  0  0
   -3.1920    1.6350  -20.9000 C   0  0  0  0  0  0  0  0  0  0  0  0
   -3.9050    1.0920  -21.9930 C   0  0  0  0  0  0  0  0  0  0  0  0
   -5.0020    0.2900  -21.7860 C   0  0  0  0  0  0  0  0  0  0  0  0
   -5.4450   -0.0120  -20.4730 C   0  0  0  0  0  0  0  0  0  0  0  0
   -5.5330   -0.1240  -22.6370 H   0  0  0  0  0  0  0  0  0  0  0  0
   -3.5800    1.3160  -23.0050 H   0  0  0  0  0  0  0  0  0  0  0  0
   -2.3300    2.2720  -21.0880 H   0  0  0  0  0  0  0  0  0  0  0  0
   -3.0550    1.7740  -18.7710 H   0  0  0  0  0  0  0  0  0  0  0  0
   -4.6020    0.6290  -17.2160 H   0  0  0  0  0  0  0  0  0  0  0  0
   -7.7210   -1.6720  -18.5870 H   0  0  0  0  0  0  0  0  0  0  0  0
   -8.3710   -1.7900  -20.8450 H   0  0  0  0  0  0  0  0  0  0  0  0
   -7.6530   -0.7200  -22.0410 H   0  0  0  0  0  0  0  0  0  0  0  0
   -8.6450   -3.0530  -23.5200 C   0  0  0  0  0  0  0  0  0  0  0  0
   -8.6340   -2.9510  -25.0430 C   0  0  0  0  0  0  0  0  0  0  0  0
   -8.1120   -2.0340  -25.3270 H   0  0  0  0  0  0  0  0  0  0  0  0
   -9.6640   -2.8250  -25.3930 H   0  0  0  0  0  0  0  0  0  0  0  0
   -9.3370   -3.8470  -23.2110 H   0  0  0  0  0  0  0  0  0  0  0  0
   -9.0310   -2.1250  -23.0970 H   0  0  0  0  0  0  0  0  0  0  0  0
   -6.2440   -5.1240  -22.8830 H   0  0  0  0  0  0  0  0  0  0  0  0
   -5.6390   -4.0050  -24.0760 H   0  0  0  0  0  0  0  0  0  0  0  0
   -6.7110   -5.8310  -25.2290 H   0  0  0  0  0  0  0  0  0  0  0  0
   -8.1490   -5.7330  -24.2660 H   0  0  0  0  0  0  0  0  0  0  0  0
   -7.1470   -3.7640  -26.3520 H   0  0  0  0  0  0  0  0  0  0  0  0
   -9.4100   -4.1070  -27.3570 H   0  0  0  0  0  0  0  0  0  0  0  0
   -9.7310   -5.3210  -26.1300 H   0  0  0  0  0  0  0  0  0  0  0  0
   -7.4200   -5.5200  -28.1150 H   0  0  0  0  0  0  0  0  0  0  0  0
   -7.9590   -6.7850  -27.0070 H   0  0  0  0  0  0  0  0  0  0  0  0
   -8.9920   -6.2900  -28.3490 H   0  0  0  0  0  0  0  0  0  0  0  0
  1  2  1  0  0  0  0
  1 41  1  0  0  0  0
  1 42  1  0  0  0  0
  1 43  1  0  0  0  0
  2  3  1  0  0  0  0
  2 39  1  0  0  0  0
  2 40  1  0  0  0  0
  3  4  1  0  0  0  0
  3 29  1  0  0  0  0
  3 38  1  0  0  0  0
  4  5  1  0  0  0  0
  4 36  1  0  0  0  0
  4 37  1  0  0  0  0
  5  6  1  0  0  0  0
  5 34  1  0  0  0  0
  5 35  1  0  0  0  0
  6  7  1  0  0  0  0
  6 28  1  0  0  0  0
  7  8  2  0  0  0  0
  7  9  1  0  0  0  0
  9 10  1  0  0  0  0
  9 26  1  0  0  0  0
  9 27  1  0  0  0  0
 10 11  2  0  0  0  0
 10 19  1  0  0  0  0
 11 12  1  0  0  0  0
 11 25  1  0  0  0  0
 12 13  2  0  0  0  0
 13 14  1  0  0  0  0
 13 24  1  0  0  0  0
 14 15  2  0  0  0  0
 14 19  1  0  0  0  0
 15 16  1  0  0  0  0
 15 23  1  0  0  0  0
 16 17  2  0  0  0  0
 16 22  1  0  0  0  0
 17 18  1  0  0  0  0
 17 21  1  0  0  0  0
 18 19  2  0  0  0  0
 18 20  1  0  0  0  0
 28 29  1  0  0  0  0
 28 32  1  0  0  0  0
 28 33  1  0  0  0  0
 29 30  1  0  0  0  0
 29 31  1  0  0  0  0
M  END
>  <MODEL>
       1

$$$$
