tmp_first_model_16_44.pdb
 OpenBabel08282501503D

 60 64  0  0  1  0  0  0  0  0999 V2000
   -7.4330    3.3860  -21.7800 C   0  0  0  0  0  0  0  0  0  0  0  0
   -8.2680    2.8970  -22.8520 N   0  0  0  0  0  0  0  0  0  0  0  0
   -7.7060    2.2180  -23.8770 C   0  0  0  0  0  0  0  0  0  0  0  0
   -6.4930    2.1110  -24.0050 O   0  0  0  0  0  0  0  0  0  0  0  0
   -8.6650    1.6050  -24.8970 C   0  0  0  0  0  0  0  0  0  0  0  0
   -9.3900    0.4570  -24.3900 N   0  0  0  0  0  0  0  0  0  0  0  0
   -8.6740   -0.7960  -24.2230 C   0  0  0  0  0  0  0  0  0  0  0  0
   -9.0640   -1.5130  -22.9100 C   0  0  2  0  0  0  0  0  0  0  0  0
   -8.5190   -0.7280  -21.6960 C   0  0  0  0  0  0  0  0  0  0  0  0
   -8.9650    0.2940  -21.2060 O   0  0  0  0  0  0  0  0  0  0  0  0
   -7.4070   -1.3760  -21.2250 N   0  0  0  0  0  0  0  0  0  0  0  0
   -6.6210   -0.8150  -20.1910 C   0  0  0  0  0  0  0  0  0  0  0  0
   -6.9370   -1.0810  -18.8850 C   0  0  0  0  0  0  0  0  0  0  0  0
   -6.1790   -0.6960  -17.8320 N   0  0  0  0  0  0  0  0  0  0  0  0
   -5.1100    0.0230  -18.0850 C   0  0  0  0  0  0  0  0  0  0  0  0
   -4.7160    0.4530  -19.3900 C   0  0  0  0  0  0  0  0  0  0  0  0
   -3.6110    1.3230  -19.6280 C   0  0  0  0  0  0  0  0  0  0  0  0
   -3.2370    1.6450  -20.9050 C   0  0  0  0  0  0  0  0  0  0  0  0
   -3.9540    1.1300  -22.0090 C   0  0  0  0  0  0  0  0  0  0  0  0
   -5.0490    0.3240  -21.8040 C   0  0  0  0  0  0  0  0  0  0  0  0
   -5.4730   -0.0170  -20.4900 C   0  0  0  0  0  0  0  0  0  0  0  0
   -5.5990   -0.0560  -22.6590 H   0  0  0  0  0  0  0  0  0  0  0  0
   -3.6470    1.3770  -23.0190 H   0  0  0  0  0  0  0  0  0  0  0  0
   -2.3800    2.2910  -21.0810 H   0  0  0  0  0  0  0  0  0  0  0  0
   -3.0880    1.7410  -18.7710 H   0  0  0  0  0  0  0  0  0  0  0  0
   -4.4940    0.3010  -17.2260 H   0  0  0  0  0  0  0  0  0  0  0  0
   -7.8280   -1.6630  -18.6510 H   0  0  0  0  0  0  0  0  0  0  0  0
   -7.0750   -2.5950  -21.9270 C   0  0  0  0  0  0  0  0  0  0  0  0
   -8.3330   -2.8860  -22.7610 C   0  0  2  0  0  0  0  0  0  0  0  0
   -7.9810   -3.6520  -24.0320 C   0  0  0  0  0  0  0  0  0  0  0  0
   -9.1460   -3.9340  -24.7620 O   0  0  0  0  0  0  0  0  0  0  0  0
   -8.8680   -4.5820  -25.9790 C   0  0  0  0  0  0  0  0  0  0  0  0
   -8.2720   -3.9470  -26.6520 H   0  0  0  0  0  0  0  0  0  0  0  0
   -8.3180   -5.5210  -25.8180 H   0  0  0  0  0  0  0  0  0  0  0  0
   -9.8250   -4.8050  -26.4550 H   0  0  0  0  0  0  0  0  0  0  0  0
   -7.2790   -3.0620  -24.6420 H   0  0  0  0  0  0  0  0  0  0  0  0
   -7.4680   -4.5930  -23.7740 H   0  0  0  0  0  0  0  0  0  0  0  0
   -9.0060   -3.5200  -22.1840 H   0  0  0  0  0  0  0  0  0  0  0  0
   -6.1930   -2.4460  -22.5700 H   0  0  0  0  0  0  0  0  0  0  0  0
   -6.8330   -3.4000  -21.2210 H   0  0  0  0  0  0  0  0  0  0  0  0
  -10.5790   -1.5580  -22.8380 C   0  0  0  0  0  0  0  0  0  0  0  0
  -11.2140   -2.4390  -21.9560 C   0  0  0  0  0  0  0  0  0  0  0  0
  -12.5930   -2.4500  -21.8620 C   0  0  0  0  0  0  0  0  0  0  0  0
  -13.3700   -3.5350  -20.7470 Cl  0  0  0  0  0  0  0  0  0  0  0  0
  -13.3810   -1.5860  -22.6220 C   0  0  0  0  0  0  0  0  0  0  0  0
  -12.7630   -0.6660  -23.4450 C   0  0  0  0  0  0  0  0  0  0  0  0
  -11.3720   -0.6270  -23.5290 C   0  0  0  0  0  0  0  0  0  0  0  0
  -10.7560    0.4990  -24.3000 C   0  0  0  0  0  0  0  0  0  0  0  0
  -11.4350    1.4010  -24.7800 O   0  0  0  0  0  0  0  0  0  0  0  0
  -13.3210    0.0670  -24.0220 H   0  0  0  0  0  0  0  0  0  0  0  0
  -14.4590   -1.6270  -22.5330 H   0  0  0  0  0  0  0  0  0  0  0  0
  -10.6370   -3.0970  -21.3160 H   0  0  0  0  0  0  0  0  0  0  0  0
   -8.8890   -1.4740  -25.0600 H   0  0  0  0  0  0  0  0  0  0  0  0
   -7.6060   -0.5560  -24.2090 H   0  0  0  0  0  0  0  0  0  0  0  0
   -9.4380    2.3130  -25.2030 H   0  0  0  0  0  0  0  0  0  0  0  0
   -8.0420    1.3270  -25.7550 H   0  0  0  0  0  0  0  0  0  0  0  0
   -9.2570    2.8060  -22.6940 H   0  0  0  0  0  0  0  0  0  0  0  0
   -6.6890    4.0890  -22.1590 H   0  0  0  0  0  0  0  0  0  0  0  0
   -6.9050    2.5610  -21.2850 H   0  0  0  0  0  0  0  0  0  0  0  0
   -8.0680    3.9140  -21.0730 H   0  0  0  0  0  0  0  0  0  0  0  0
  1  2  1  0  0  0  0
  1 58  1  0  0  0  0
  1 59  1  0  0  0  0
  1 60  1  0  0  0  0
  2  3  1  0  0  0  0
  2 57  1  0  0  0  0
  3  4  2  0  0  0  0
  3  5  1  0  0  0  0
  5  6  1  0  0  0  0
  5 55  1  0  0  0  0
  5 56  1  0  0  0  0
  6  7  1  0  0  0  0
  6 48  1  0  0  0  0
  7  8  1  0  0  0  0
  7 53  1  0  0  0  0
  7 54  1  0  0  0  0
  8  9  1  1  0  0  0
  8 29  1  0  0  0  0
  8 41  1  0  0  0  0
  9 10  2  0  0  0  0
  9 11  1  0  0  0  0
 11 12  1  0  0  0  0
 11 28  1  0  0  0  0
 12 13  2  0  0  0  0
 12 21  1  0  0  0  0
 13 14  1  0  0  0  0
 13 27  1  0  0  0  0
 14 15  2  0  0  0  0
 15 16  1  0  0  0  0
 15 26  1  0  0  0  0
 16 17  2  0  0  0  0
 16 21  1  0  0  0  0
 17 18  1  0  0  0  0
 17 25  1  0  0  0  0
 18 19  2  0  0  0  0
 18 24  1  0  0  0  0
 19 20  1  0  0  0  0
 19 23  1  0  0  0  0
 20 21  2  0  0  0  0
 20 22  1  0  0  0  0
 28 29  1  0  0  0  0
 28 39  1  0  0  0  0
 28 40  1  0  0  0  0
 29 30  1  0  0  0  0
 29 38  1  1  0  0  0
 30 31  1  0  0  0  0
 30 36  1  0  0  0  0
 30 37  1  0  0  0  0
 31 32  1  0  0  0  0
 32 33  1  0  0  0  0
 32 34  1  0  0  0  0
 32 35  1  0  0  0  0
 41 42  2  0  0  0  0
 41 47  1  0  0  0  0
 42 43  1  0  0  0  0
 42 52  1  0  0  0  0
 43 44  1  0  0  0  0
 43 45  2  0  0  0  0
 45 46  1  0  0  0  0
 45 51  1  0  0  0  0
 46 47  2  0  0  0  0
 46 50  1  0  0  0  0
 47 48  1  0  0  0  0
 48 49  2  0  0  0  0
M  END
>  <MODEL>
       1

$$$$
