tmp_first_model_11_0.pdb
 OpenBabel08272522543D

 66 71  0  0  1  0  0  0  0  0999 V2000
   -7.3580    3.4090  -21.8250 C   0  0  0  0  0  0  0  0  0  0  0  0
   -8.2060    2.9420  -22.9040 N   0  0  0  0  0  0  0  0  0  0  0  0
   -7.6390    2.2510  -23.9150 C   0  0  0  0  0  0  0  0  0  0  0  0
   -6.4240    2.1320  -24.0230 O   0  0  0  0  0  0  0  0  0  0  0  0
   -8.5940    1.6310  -24.9440 C   0  0  0  0  0  0  0  0  0  0  0  0
   -9.3270    0.4830  -24.4440 N   0  0  0  0  0  0  0  0  0  0  0  0
   -8.6140   -0.7720  -24.2730 C   0  0  0  0  0  0  0  0  0  0  0  0
   -9.0220   -1.4970  -22.9660 C   0  0  2  0  0  0  0  0  0  0  0  0
   -8.4790   -0.7090  -21.7390 C   0  0  0  0  0  0  0  0  0  0  0  0
   -8.8980    0.3390  -21.2940 O   0  0  0  0  0  0  0  0  0  0  0  0
   -7.4090   -1.3920  -21.2120 N   0  0  0  0  0  0  0  0  0  0  0  0
   -6.6090   -0.8150  -20.1830 C   0  0  0  0  0  0  0  0  0  0  0  0
   -6.9120   -1.0430  -18.8650 C   0  0  0  0  0  0  0  0  0  0  0  0
   -6.2100   -0.5470  -17.8140 N   0  0  0  0  0  0  0  0  0  0  0  0
   -5.1710    0.2080  -18.0790 C   0  0  0  0  0  0  0  0  0  0  0  0
   -4.7320    0.5260  -19.3950 C   0  0  0  0  0  0  0  0  0  0  0  0
   -3.6030    1.3580  -19.6410 C   0  0  0  0  0  0  0  0  0  0  0  0
   -3.2150    1.6490  -20.9190 C   0  0  0  0  0  0  0  0  0  0  0  0
   -3.9360    1.1200  -22.0130 C   0  0  0  0  0  0  0  0  0  0  0  0
   -5.0310    0.3160  -21.8020 C   0  0  0  0  0  0  0  0  0  0  0  0
   -5.4680   -0.0010  -20.4870 C   0  0  0  0  0  0  0  0  0  0  0  0
   -5.5870   -0.0710  -22.6500 H   0  0  0  0  0  0  0  0  0  0  0  0
   -3.6440    1.3660  -23.0280 H   0  0  0  0  0  0  0  0  0  0  0  0
   -2.3630    2.3010  -21.0980 H   0  0  0  0  0  0  0  0  0  0  0  0
   -3.0750    1.7750  -18.7860 H   0  0  0  0  0  0  0  0  0  0  0  0
   -4.6200    0.6120  -17.2270 H   0  0  0  0  0  0  0  0  0  0  0  0
   -7.7630   -1.6660  -18.6020 H   0  0  0  0  0  0  0  0  0  0  0  0
   -7.0760   -2.6110  -21.9240 C   0  0  0  0  0  0  0  0  0  0  0  0
   -8.3050   -2.8810  -22.8180 C   0  0  2  0  0  0  0  0  0  0  0  0
   -7.9100   -3.6480  -24.0990 C   0  0  0  0  0  0  0  0  0  0  0  0
   -9.0600   -3.9970  -24.9200 N   0  0  0  0  0  0  0  0  0  0  0  0
   -8.9590   -4.6210  -26.1260 C   0  0  0  0  0  0  0  0  0  0  0  0
  -10.1200   -4.9260  -26.8790 C   0  0  0  0  0  0  0  0  0  0  0  0
   -9.9290   -5.5450  -28.0930 C   0  0  0  0  0  0  0  0  0  0  0  0
   -8.7130   -5.8490  -28.5830 N   0  0  0  0  0  0  0  0  0  0  0  0
   -7.7010   -5.5280  -27.7900 C   0  0  0  0  0  0  0  0  0  0  0  0
   -7.7390   -4.9260  -26.5930 N   0  0  0  0  0  0  0  0  0  0  0  0
   -6.7010   -5.7820  -28.1650 H   0  0  0  0  0  0  0  0  0  0  0  0
  -10.7760   -5.8170  -28.7310 H   0  0  0  0  0  0  0  0  0  0  0  0
  -11.1220   -4.6960  -26.5200 H   0  0  0  0  0  0  0  0  0  0  0  0
   -9.9900   -3.8010  -24.5810 H   0  0  0  0  0  0  0  0  0  0  0  0
   -7.3660   -4.5680  -23.8370 H   0  0  0  0  0  0  0  0  0  0  0  0
   -7.2100   -3.0560  -24.7080 H   0  0  0  0  0  0  0  0  0  0  0  0
   -8.9970   -3.5190  -22.2600 H   0  0  0  0  0  0  0  0  0  0  0  0
   -6.8870   -3.4260  -21.2180 H   0  0  0  0  0  0  0  0  0  0  0  0
   -6.1650   -2.4850  -22.5300 H   0  0  0  0  0  0  0  0  0  0  0  0
  -10.5410   -1.5250  -22.8910 C   0  0  0  0  0  0  0  0  0  0  0  0
  -11.1860   -2.3790  -21.9870 C   0  0  0  0  0  0  0  0  0  0  0  0
  -12.5660   -2.3850  -21.9030 C   0  0  0  0  0  0  0  0  0  0  0  0
  -13.3600   -3.4500  -20.7810 Cl  0  0  0  0  0  0  0  0  0  0  0  0
  -13.3470   -1.5390  -22.6890 C   0  0  0  0  0  0  0  0  0  0  0  0
  -12.7150   -0.6390  -23.5240 C   0  0  0  0  0  0  0  0  0  0  0  0
  -11.3220   -0.5990  -23.6000 C   0  0  0  0  0  0  0  0  0  0  0  0
  -10.6930    0.5260  -24.3720 C   0  0  0  0  0  0  0  0  0  0  0  0
  -11.3590    1.4250  -24.8610 O   0  0  0  0  0  0  0  0  0  0  0  0
  -13.2730    0.0860  -24.1060 H   0  0  0  0  0  0  0  0  0  0  0  0
  -14.4270   -1.5690  -22.6010 H   0  0  0  0  0  0  0  0  0  0  0  0
  -10.6230   -3.0120  -21.3110 H   0  0  0  0  0  0  0  0  0  0  0  0
   -8.7960   -1.4440  -25.1260 H   0  0  0  0  0  0  0  0  0  0  0  0
   -7.5480   -0.5350  -24.2320 H   0  0  0  0  0  0  0  0  0  0  0  0
   -7.9590    1.3520  -25.7920 H   0  0  0  0  0  0  0  0  0  0  0  0
   -9.3540    2.3410  -25.2820 H   0  0  0  0  0  0  0  0  0  0  0  0
   -9.2040    2.8880  -22.7660 H   0  0  0  0  0  0  0  0  0  0  0  0
   -7.9880    3.8570  -21.0580 H   0  0  0  0  0  0  0  0  0  0  0  0
   -6.6560    4.1700  -22.1820 H   0  0  0  0  0  0  0  0  0  0  0  0
   -6.7720    2.5730  -21.4140 H   0  0  0  0  0  0  0  0  0  0  0  0
  1  2  1  0  0  0  0
  1 64  1  0  0  0  0
  1 65  1  0  0  0  0
  1 66  1  0  0  0  0
  2  3  1  0  0  0  0
  2 63  1  0  0  0  0
  3  4  2  0  0  0  0
  3  5  1  0  0  0  0
  5  6  1  0  0  0  0
  5 61  1  0  0  0  0
  5 62  1  0  0  0  0
  6  7  1  0  0  0  0
  6 54  1  0  0  0  0
  7  8  1  0  0  0  0
  7 59  1  0  0  0  0
  7 60  1  0  0  0  0
  8  9  1  1  0  0  0
  8 29  1  0  0  0  0
  8 47  1  0  0  0  0
  9 10  2  0  0  0  0
  9 11  1  0  0  0  0
 11 12  1  0  0  0  0
 11 28  1  0  0  0  0
 12 13  2  0  0  0  0
 12 21  1  0  0  0  0
 13 14  1  0  0  0  0
 13 27  1  0  0  0  0
 14 15  2  0  0  0  0
 15 16  1  0  0  0  0
 15 26  1  0  0  0  0
 16 17  2  0  0  0  0
 16 21  1  0  0  0  0
 17 18  1  0  0  0  0
 17 25  1  0  0  0  0
 18 19  2  0  0  0  0
 18 24  1  0  0  0  0
 19 20  1  0  0  0  0
 19 23  1  0  0  0  0
 20 21  2  0  0  0  0
 20 22  1  0  0  0  0
 28 29  1  0  0  0  0
 28 45  1  0  0  0  0
 28 46  1  0  0  0  0
 29 30  1  0  0  0  0
 29 44  1  1  0  0  0
 30 31  1  0  0  0  0
 30 42  1  0  0  0  0
 30 43  1  0  0  0  0
 31 32  1  0  0  0  0
 31 41  1  0  0  0  0
 32 33  2  0  0  0  0
 32 37  1  0  0  0  0
 33 34  1  0  0  0  0
 33 40  1  0  0  0  0
 34 35  2  0  0  0  0
 34 39  1  0  0  0  0
 35 36  1  0  0  0  0
 36 37  2  0  0  0  0
 36 38  1  0  0  0  0
 47 48  2  0  0  0  0
 47 53  1  0  0  0  0
 48 49  1  0  0  0  0
 48 58  1  0  0  0  0
 49 50  1  0  0  0  0
 49 51  2  0  0  0  0
 51 52  1  0  0  0  0
 51 57  1  0  0  0  0
 52 53  2  0  0  0  0
 52 56  1  0  0  0  0
 53 54  1  0  0  0  0
 54 55  2  0  0  0  0
M  END
>  <MODEL>
       1

$$$$
