tmp_first_model_5_54.pdb
 OpenBabel08272519233D

 40 43  0  0  0  0  0  0  0  0999 V2000
  -10.2980   -2.5960  -22.7830 C   0  0  0  0  0  0  0  0  0  0  0  0
   -8.9400   -2.1880  -22.4800 N   0  0  0  0  0  0  0  0  0  0  0  0
   -7.7670   -2.6930  -22.9610 C   0  0  0  0  0  0  0  0  0  0  0  0
   -7.6530   -3.6040  -24.1180 C   0  0  0  0  0  0  0  0  0  0  0  0
   -7.8620   -5.0200  -23.6570 C   0  0  0  0  0  0  0  0  0  0  0  0
   -9.0170   -5.7070  -24.0080 C   0  0  0  0  0  0  0  0  0  0  0  0
   -9.1230   -7.0680  -23.7490 C   0  0  0  0  0  0  0  0  0  0  0  0
   -8.1110   -7.7110  -23.0390 C   0  0  0  0  0  0  0  0  0  0  0  0
   -7.0420   -6.9740  -22.5300 C   0  0  0  0  0  0  0  0  0  0  0  0
   -6.9070   -5.6280  -22.8400 C   0  0  0  0  0  0  0  0  0  0  0  0
   -6.0760   -5.0430  -22.4460 H   0  0  0  0  0  0  0  0  0  0  0  0
   -6.3170   -7.4610  -21.8820 H   0  0  0  0  0  0  0  0  0  0  0  0
   -8.1310   -8.7870  -22.8820 H   0  0  0  0  0  0  0  0  0  0  0  0
  -10.0030   -7.6000  -24.1020 H   0  0  0  0  0  0  0  0  0  0  0  0
   -9.8360   -5.1680  -24.4830 H   0  0  0  0  0  0  0  0  0  0  0  0
   -8.3670   -3.3290  -24.9060 H   0  0  0  0  0  0  0  0  0  0  0  0
   -6.6400   -3.4770  -24.5120 H   0  0  0  0  0  0  0  0  0  0  0  0
   -6.7380   -2.3180  -22.2640 N   0  0  0  0  0  0  0  0  0  0  0  0
   -7.2630   -1.5090  -21.3000 N   0  0  0  0  0  0  0  0  0  0  0  0
   -6.4890   -0.9980  -20.2560 C   0  0  0  0  0  0  0  0  0  0  0  0
   -6.8610   -1.1290  -18.9400 C   0  0  0  0  0  0  0  0  0  0  0  0
   -6.0580   -0.7920  -17.9050 N   0  0  0  0  0  0  0  0  0  0  0  0
   -4.8920   -0.2630  -18.2080 C   0  0  0  0  0  0  0  0  0  0  0  0
   -4.4520    0.0070  -19.5360 C   0  0  0  0  0  0  0  0  0  0  0  0
   -3.2810    0.7630  -19.7920 C   0  0  0  0  0  0  0  0  0  0  0  0
   -3.1520    1.4230  -20.9840 C   0  0  0  0  0  0  0  0  0  0  0  0
   -4.0410    1.1490  -22.0610 C   0  0  0  0  0  0  0  0  0  0  0  0
   -5.0670    0.2600  -21.8920 C   0  0  0  0  0  0  0  0  0  0  0  0
   -5.3200   -0.2800  -20.6010 C   0  0  0  0  0  0  0  0  0  0  0  0
   -5.6880   -0.0510  -22.7250 H   0  0  0  0  0  0  0  0  0  0  0  0
   -3.8760    1.6080  -23.0310 H   0  0  0  0  0  0  0  0  0  0  0  0
   -2.3170    2.1010  -21.1420 H   0  0  0  0  0  0  0  0  0  0  0  0
   -2.6060    0.9250  -18.9580 H   0  0  0  0  0  0  0  0  0  0  0  0
   -4.2690    0.1010  -17.3870 H   0  0  0  0  0  0  0  0  0  0  0  0
   -7.8280   -1.5620  -18.6910 H   0  0  0  0  0  0  0  0  0  0  0  0
   -8.6090   -1.2930  -21.4720 C   0  0  0  0  0  0  0  0  0  0  0  0
   -9.3060   -0.4850  -20.8970 O   0  0  0  0  0  0  0  0  0  0  0  0
  -10.5210   -3.5830  -22.3630 H   0  0  0  0  0  0  0  0  0  0  0  0
  -10.9840   -1.8690  -22.3500 H   0  0  0  0  0  0  0  0  0  0  0  0
  -10.4450   -2.6200  -23.8640 H   0  0  0  0  0  0  0  0  0  0  0  0
  1  2  1  0  0  0  0
  1 38  1  0  0  0  0
  1 39  1  0  0  0  0
  1 40  1  0  0  0  0
  2  3  1  0  0  0  0
  2 36  1  0  0  0  0
  3  4  1  0  0  0  0
  3 18  2  0  0  0  0
  4  5  1  0  0  0  0
  4 16  1  0  0  0  0
  4 17  1  0  0  0  0
  5  6  2  0  0  0  0
  5 10  1  0  0  0  0
  6  7  1  0  0  0  0
  6 15  1  0  0  0  0
  7  8  2  0  0  0  0
  7 14  1  0  0  0  0
  8  9  1  0  0  0  0
  8 13  1  0  0  0  0
  9 10  2  0  0  0  0
  9 12  1  0  0  0  0
 10 11  1  0  0  0  0
 18 19  1  0  0  0  0
 19 20  1  0  0  0  0
 19 36  1  0  0  0  0
 20 21  2  0  0  0  0
 20 29  1  0  0  0  0
 21 22  1  0  0  0  0
 21 35  1  0  0  0  0
 22 23  2  0  0  0  0
 23 24  1  0  0  0  0
 23 34  1  0  0  0  0
 24 25  2  0  0  0  0
 24 29  1  0  0  0  0
 25 26  1  0  0  0  0
 25 33  1  0  0  0  0
 26 27  2  0  0  0  0
 26 32  1  0  0  0  0
 27 28  1  0  0  0  0
 27 31  1  0  0  0  0
 28 29  2  0  0  0  0
 28 30  1  0  0  0  0
 36 37  2  0  0  0  0
M  END
>  <MODEL>
       1

$$$$
