tmp_first_model_16_72.pdb
 OpenBabel08282501503D

 41 44  0  0  0  0  0  0  0  0999 V2000
   -5.5210   -2.9810  -21.5340 O   0  0  0  0  0  0  0  0  0  0  0  0
   -6.5830   -2.5780  -21.9700 C   0  0  0  0  0  0  0  0  0  0  0  0
   -7.3820   -1.4550  -21.2900 C   0  0  0  0  0  0  0  0  0  0  0  0
   -6.5920   -0.8790  -20.1680 C   0  0  0  0  0  0  0  0  0  0  0  0
   -6.8750   -1.1890  -18.8660 C   0  0  0  0  0  0  0  0  0  0  0  0
   -6.1230   -0.8220  -17.7980 N   0  0  0  0  0  0  0  0  0  0  0  0
   -5.0590   -0.0950  -18.0500 C   0  0  0  0  0  0  0  0  0  0  0  0
   -4.6780    0.3420  -19.3490 C   0  0  0  0  0  0  0  0  0  0  0  0
   -3.5640    1.1900  -19.5640 C   0  0  0  0  0  0  0  0  0  0  0  0
   -3.2080    1.5700  -20.8330 C   0  0  0  0  0  0  0  0  0  0  0  0
   -3.9390    1.0970  -21.9440 C   0  0  0  0  0  0  0  0  0  0  0  0
   -5.0310    0.2890  -21.7620 C   0  0  0  0  0  0  0  0  0  0  0  0
   -5.4450   -0.0860  -20.4520 C   0  0  0  0  0  0  0  0  0  0  0  0
   -5.5730   -0.0870  -22.6250 H   0  0  0  0  0  0  0  0  0  0  0  0
   -3.6310    1.3770  -22.9490 H   0  0  0  0  0  0  0  0  0  0  0  0
   -2.3640    2.2320  -20.9960 H   0  0  0  0  0  0  0  0  0  0  0  0
   -3.0150    1.5410  -18.6960 H   0  0  0  0  0  0  0  0  0  0  0  0
   -4.4320    0.1800  -17.2000 H   0  0  0  0  0  0  0  0  0  0  0  0
   -7.7520   -1.7860  -18.6110 H   0  0  0  0  0  0  0  0  0  0  0  0
   -7.6340   -0.6820  -22.0290 H   0  0  0  0  0  0  0  0  0  0  0  0
   -8.3320   -1.8590  -20.9150 H   0  0  0  0  0  0  0  0  0  0  0  0
   -7.1130   -3.0770  -23.1330 N   0  0  0  0  0  0  0  0  0  0  0  0
   -8.5420   -3.0390  -23.4160 C   0  0  0  0  0  0  0  0  0  0  0  0
   -9.3230   -4.2400  -22.8930 C   0  0  0  0  0  0  0  0  0  0  0  0
   -8.8740   -5.5450  -23.5810 C   0  0  0  0  0  0  0  0  0  0  0  0
   -7.5670   -6.0930  -23.0440 C   0  0  0  0  0  0  0  0  0  0  0  0
   -7.3970   -7.6350  -22.2720 S   0  0  0  0  0  0  0  0  0  0  0  0
   -5.7210   -7.3890  -21.9960 C   0  0  0  0  0  0  0  0  0  0  0  0
   -5.3070   -6.1810  -22.4630 C   0  0  0  0  0  0  0  0  0  0  0  0
   -6.3660   -5.4440  -23.0970 C   0  0  0  0  0  0  0  0  0  0  0  0
   -6.2970   -4.0980  -23.7900 C   0  0  0  0  0  0  0  0  0  0  0  0
   -5.2670   -3.7350  -23.8380 H   0  0  0  0  0  0  0  0  0  0  0  0
   -6.6780   -4.1810  -24.8170 H   0  0  0  0  0  0  0  0  0  0  0  0
   -4.2980   -5.7940  -22.3390 H   0  0  0  0  0  0  0  0  0  0  0  0
   -5.1310   -8.2080  -21.5920 H   0  0  0  0  0  0  0  0  0  0  0  0
   -8.7370   -5.3210  -24.6540 H   0  0  0  0  0  0  0  0  0  0  0  0
   -9.6750   -6.2780  -23.5150 H   0  0  0  0  0  0  0  0  0  0  0  0
  -10.3850   -4.0570  -23.0970 H   0  0  0  0  0  0  0  0  0  0  0  0
   -9.2350   -4.3330  -21.8010 H   0  0  0  0  0  0  0  0  0  0  0  0
   -8.6740   -2.9880  -24.5020 H   0  0  0  0  0  0  0  0  0  0  0  0
   -8.9570   -2.1060  -23.0290 H   0  0  0  0  0  0  0  0  0  0  0  0
  1  2  2  0  0  0  0
  2  3  1  0  0  0  0
  2 22  1  0  0  0  0
  3  4  1  0  0  0  0
  3 20  1  0  0  0  0
  3 21  1  0  0  0  0
  4  5  2  0  0  0  0
  4 13  1  0  0  0  0
  5  6  1  0  0  0  0
  5 19  1  0  0  0  0
  6  7  2  0  0  0  0
  7  8  1  0  0  0  0
  7 18  1  0  0  0  0
  8  9  2  0  0  0  0
  8 13  1  0  0  0  0
  9 10  1  0  0  0  0
  9 17  1  0  0  0  0
 10 11  2  0  0  0  0
 10 16  1  0  0  0  0
 11 12  1  0  0  0  0
 11 15  1  0  0  0  0
 12 13  2  0  0  0  0
 12 14  1  0  0  0  0
 22 23  1  0  0  0  0
 22 31  1  0  0  0  0
 23 24  1  0  0  0  0
 23 40  1  0  0  0  0
 23 41  1  0  0  0  0
 24 25  1  0  0  0  0
 24 38  1  0  0  0  0
 24 39  1  0  0  0  0
 25 26  1  0  0  0  0
 25 36  1  0  0  0  0
 25 37  1  0  0  0  0
 26 27  1  0  0  0  0
 26 30  2  0  0  0  0
 27 28  1  0  0  0  0
 28 29  2  0  0  0  0
 28 35  1  0  0  0  0
 29 30  1  0  0  0  0
 29 34  1  0  0  0  0
 30 31  1  0  0  0  0
 31 32  1  0  0  0  0
 31 33  1  0  0  0  0
M  END
>  <MODEL>
       1

$$$$
