tmp_first_model_20_25.pdb
 OpenBabel08282503553D

 70 75  0  0  1  0  0  0  0  0999 V2000
   -5.6680   -7.4950  -25.6750 O   0  0  0  0  0  0  0  0  0  0  0  0
   -5.6090   -7.0480  -24.5430 C   0  0  0  0  0  0  0  0  0  0  0  0
   -6.8050   -6.3730  -23.8590 C   0  0  0  0  0  0  0  0  0  0  0  0
   -6.7960   -4.8760  -23.9460 N   0  3  1  0  0  0  0  0  0  0  0  0
   -6.7570   -4.5060  -25.4190 C   0  0  0  0  0  0  0  0  0  0  0  0
   -6.7760   -3.0190  -25.6310 C   0  0  0  0  0  0  0  0  0  0  0  0
   -6.2850   -2.4740  -26.8160 C   0  0  0  0  0  0  0  0  0  0  0  0
   -6.3070   -1.1040  -27.0330 C   0  0  0  0  0  0  0  0  0  0  0  0
   -6.8220   -0.2720  -26.0450 C   0  0  0  0  0  0  0  0  0  0  0  0
   -6.8430    1.4490  -26.2950 Cl  0  0  0  0  0  0  0  0  0  0  0  0
   -7.3090   -0.7990  -24.8590 C   0  0  0  0  0  0  0  0  0  0  0  0
   -7.3030   -2.1790  -24.6530 C   0  0  0  0  0  0  0  0  0  0  0  0
   -7.8150   -2.7090  -23.3320 C   0  0  2  0  0  0  0  0  0  0  0  0
   -6.8130   -2.3830  -22.2310 C   0  0  0  0  0  0  0  0  0  0  0  0
   -5.7180   -2.9230  -22.2150 O   0  0  0  0  0  0  0  0  0  0  0  0
   -7.2700   -1.4840  -21.2910 N   0  0  0  0  0  0  0  0  0  0  0  0
   -6.5340   -0.8870  -20.2370 C   0  0  0  0  0  0  0  0  0  0  0  0
   -6.9100   -1.0700  -18.9280 C   0  0  0  0  0  0  0  0  0  0  0  0
   -6.2440   -0.5640  -17.8580 N   0  0  0  0  0  0  0  0  0  0  0  0
   -5.1900    0.1780  -18.0980 C   0  0  0  0  0  0  0  0  0  0  0  0
   -4.7370    0.5030  -19.4060 C   0  0  0  0  0  0  0  0  0  0  0  0
   -3.6180    1.3480  -19.6260 C   0  0  0  0  0  0  0  0  0  0  0  0
   -3.2450    1.6890  -20.8970 C   0  0  0  0  0  0  0  0  0  0  0  0
   -3.9690    1.2010  -22.0100 C   0  0  0  0  0  0  0  0  0  0  0  0
   -5.0440    0.3690  -21.8300 C   0  0  0  0  0  0  0  0  0  0  0  0
   -5.4370   -0.0180  -20.5170 C   0  0  0  0  0  0  0  0  0  0  0  0
   -5.6120    0.0150  -22.6870 H   0  0  0  0  0  0  0  0  0  0  0  0
   -3.6760    1.4940  -23.0150 H   0  0  0  0  0  0  0  0  0  0  0  0
   -2.3940    2.3440  -21.0670 H   0  0  0  0  0  0  0  0  0  0  0  0
   -3.0790    1.7240  -18.7620 H   0  0  0  0  0  0  0  0  0  0  0  0
   -4.6410    0.5750  -17.2390 H   0  0  0  0  0  0  0  0  0  0  0  0
   -7.7770   -1.6840  -18.6750 H   0  0  0  0  0  0  0  0  0  0  0  0
   -8.2740   -1.3980  -21.2220 H   0  0  0  0  0  0  0  0  0  0  0  0
   -8.0110   -4.2240  -23.3190 C   0  0  0  0  0  0  0  0  0  0  0  0
   -8.9060   -4.5050  -23.8820 H   0  0  0  0  0  0  0  0  0  0  0  0
   -8.1220   -4.5670  -22.2870 H   0  0  0  0  0  0  0  0  0  0  0  0
   -8.7450   -2.1970  -23.0780 H   0  0  0  0  0  0  0  0  0  0  0  0
   -7.6830   -0.1300  -24.0890 H   0  0  0  0  0  0  0  0  0  0  0  0
   -5.9300   -0.6800  -27.9560 H   0  0  0  0  0  0  0  0  0  0  0  0
   -5.8810   -3.1330  -27.5830 H   0  0  0  0  0  0  0  0  0  0  0  0
   -7.6340   -4.9810  -25.8770 H   0  0  0  0  0  0  0  0  0  0  0  0
   -5.8820   -4.9640  -25.8800 H   0  0  0  0  0  0  0  0  0  0  0  0
   -5.9810   -4.4500  -23.4470 H   0  0  0  0  0  0  0  0  0  0  0  0
   -7.6760   -6.7680  -24.3940 H   0  0  0  0  0  0  0  0  0  0  0  0
   -6.8470   -6.7090  -22.8200 H   0  0  0  0  0  0  0  0  0  0  0  0
   -4.4770   -7.1240  -23.7780 N   0  0  0  0  0  0  0  0  0  0  0  0
   -3.2710   -7.7110  -24.2280 C   0  0  0  0  0  0  0  0  0  0  0  0
   -2.0510   -7.0820  -23.9760 C   0  0  0  0  0  0  0  0  0  0  0  0
   -0.8710   -7.6780  -24.3980 C   0  0  0  0  0  0  0  0  0  0  0  0
   -0.9020   -8.8860  -25.0950 C   0  0  0  0  0  0  0  0  0  0  0  0
    0.3090   -9.5140  -25.5020 N   0  0  0  0  0  0  0  0  0  0  0  0
    1.3010   -9.8500  -24.4830 C   0  0  0  0  0  0  0  0  0  0  0  0
    2.6250  -10.2170  -25.1310 C   0  0  0  0  0  0  0  0  0  0  0  0
    2.4000  -11.1770  -26.1360 O   0  0  0  0  0  0  0  0  0  0  0  0
    1.6860  -10.6220  -27.2060 C   0  0  0  0  0  0  0  0  0  0  0  0
    0.3960   -9.9310  -26.8070 C   0  0  0  0  0  0  0  0  0  0  0  0
   -0.4690   -9.7220  -27.6380 O   0  0  0  0  0  0  0  0  0  0  0  0
    2.2850   -9.8720  -27.7440 H   0  0  0  0  0  0  0  0  0  0  0  0
    1.4310  -11.4240  -27.8980 H   0  0  0  0  0  0  0  0  0  0  0  0
    3.1280   -9.3320  -25.5470 H   0  0  0  0  0  0  0  0  0  0  0  0
    3.3010  -10.6740  -24.4040 H   0  0  0  0  0  0  0  0  0  0  0  0
    1.4370   -9.0030  -23.8050 H   0  0  0  0  0  0  0  0  0  0  0  0
    0.9420  -10.6980  -23.8890 H   0  0  0  0  0  0  0  0  0  0  0  0
   -2.1290   -9.4860  -25.3820 C   0  0  0  0  0  0  0  0  0  0  0  0
   -3.3020   -8.9300  -24.9060 C   0  0  0  0  0  0  0  0  0  0  0  0
   -4.2530   -9.4210  -25.0720 H   0  0  0  0  0  0  0  0  0  0  0  0
   -2.1690  -10.4120  -25.9500 H   0  0  0  0  0  0  0  0  0  0  0  0
    0.0820   -7.1880  -24.2060 H   0  0  0  0  0  0  0  0  0  0  0  0
   -2.0210   -6.1500  -23.4150 H   0  0  0  0  0  0  0  0  0  0  0  0
   -4.4370   -6.5550  -22.9470 H   0  0  0  0  0  0  0  0  0  0  0  0
  1  2  2  0  0  0  0
  2  3  1  0  0  0  0
  2 46  1  0  0  0  0
  3  4  1  0  0  0  0
  3 44  1  0  0  0  0
  3 45  1  0  0  0  0
  4  5  1  0  0  0  0
  4 34  1  0  0  0  0
  4 43  1  1  0  0  0
  5  6  1  0  0  0  0
  5 41  1  0  0  0  0
  5 42  1  0  0  0  0
  6  7  2  0  0  0  0
  6 12  1  0  0  0  0
  7  8  1  0  0  0  0
  7 40  1  0  0  0  0
  8  9  2  0  0  0  0
  8 39  1  0  0  0  0
  9 10  1  0  0  0  0
  9 11  1  0  0  0  0
 11 12  2  0  0  0  0
 11 38  1  0  0  0  0
 12 13  1  0  0  0  0
 13 14  1  0  0  0  0
 13 34  1  0  0  0  0
 13 37  1  1  0  0  0
 14 15  2  0  0  0  0
 14 16  1  0  0  0  0
 16 17  1  0  0  0  0
 16 33  1  0  0  0  0
 17 18  2  0  0  0  0
 17 26  1  0  0  0  0
 18 19  1  0  0  0  0
 18 32  1  0  0  0  0
 19 20  2  0  0  0  0
 20 21  1  0  0  0  0
 20 31  1  0  0  0  0
 21 22  2  0  0  0  0
 21 26  1  0  0  0  0
 22 23  1  0  0  0  0
 22 30  1  0  0  0  0
 23 24  2  0  0  0  0
 23 29  1  0  0  0  0
 24 25  1  0  0  0  0
 24 28  1  0  0  0  0
 25 26  2  0  0  0  0
 25 27  1  0  0  0  0
 34 35  1  0  0  0  0
 34 36  1  0  0  0  0
 46 47  1  0  0  0  0
 46 70  1  0  0  0  0
 47 48  2  0  0  0  0
 47 65  1  0  0  0  0
 48 49  1  0  0  0  0
 48 69  1  0  0  0  0
 49 50  2  0  0  0  0
 49 68  1  0  0  0  0
 50 51  1  0  0  0  0
 50 64  1  0  0  0  0
 51 52  1  0  0  0  0
 51 56  1  0  0  0  0
 52 53  1  0  0  0  0
 52 62  1  0  0  0  0
 52 63  1  0  0  0  0
 53 54  1  0  0  0  0
 53 60  1  0  0  0  0
 53 61  1  0  0  0  0
 54 55  1  0  0  0  0
 55 56  1  0  0  0  0
 55 58  1  0  0  0  0
 55 59  1  0  0  0  0
 56 57  2  0  0  0  0
 64 65  2  0  0  0  0
 64 67  1  0  0  0  0
 65 66  1  0  0  0  0
M  CHG  1   4   1
M  END
>  <MODEL>
       1

$$$$
