tmp_first_model_8_28.pdb
 OpenBabel08272521063D

 64 68  0  0  1  0  0  0  0  0999 V2000
   -7.4010    3.3530  -21.7990 C   0  0  0  0  0  0  0  0  0  0  0  0
   -8.3530    2.9100  -22.8040 N   0  0  0  0  0  0  0  0  0  0  0  0
   -7.8350    2.1920  -23.8420 C   0  0  0  0  0  0  0  0  0  0  0  0
   -6.6310    2.0260  -23.9870 O   0  0  0  0  0  0  0  0  0  0  0  0
   -8.8290    1.5940  -24.8340 C   0  0  0  0  0  0  0  0  0  0  0  0
   -9.4840    0.4280  -24.2840 N   0  0  0  0  0  0  0  0  0  0  0  0
   -8.7300   -0.8030  -24.1520 C   0  0  0  0  0  0  0  0  0  0  0  0
   -9.0870   -1.5560  -22.8500 C   0  0  2  0  0  0  0  0  0  0  0  0
   -8.5540   -0.7820  -21.6230 C   0  0  0  0  0  0  0  0  0  0  0  0
   -9.0390    0.2060  -21.1070 O   0  0  0  0  0  0  0  0  0  0  0  0
   -7.4030   -1.3980  -21.1950 N   0  0  0  0  0  0  0  0  0  0  0  0
   -6.6100   -0.8230  -20.1740 C   0  0  0  0  0  0  0  0  0  0  0  0
   -6.9260   -1.0560  -18.8610 C   0  0  0  0  0  0  0  0  0  0  0  0
   -6.2250   -0.5710  -17.8090 N   0  0  0  0  0  0  0  0  0  0  0  0
   -5.1910    0.1920  -18.0750 C   0  0  0  0  0  0  0  0  0  0  0  0
   -4.7600    0.5270  -19.3910 C   0  0  0  0  0  0  0  0  0  0  0  0
   -3.6380    1.3650  -19.6300 C   0  0  0  0  0  0  0  0  0  0  0  0
   -3.2680    1.6840  -20.9070 C   0  0  0  0  0  0  0  0  0  0  0  0
   -4.0040    1.1900  -22.0070 C   0  0  0  0  0  0  0  0  0  0  0  0
   -5.0790    0.3570  -21.8050 C   0  0  0  0  0  0  0  0  0  0  0  0
   -5.4870    0.0040  -20.4880 C   0  0  0  0  0  0  0  0  0  0  0  0
   -5.6320   -0.0120  -22.6650 H   0  0  0  0  0  0  0  0  0  0  0  0
   -3.7090    1.4520  -23.0180 H   0  0  0  0  0  0  0  0  0  0  0  0
   -2.4050    2.3170  -21.0860 H   0  0  0  0  0  0  0  0  0  0  0  0
   -3.0960    1.7540  -18.7730 H   0  0  0  0  0  0  0  0  0  0  0  0
   -4.6260    0.5860  -17.2290 H   0  0  0  0  0  0  0  0  0  0  0  0
   -7.7920   -1.6680  -18.6230 H   0  0  0  0  0  0  0  0  0  0  0  0
   -7.0330   -2.5800  -21.9390 C   0  0  0  0  0  0  0  0  0  0  0  0
   -8.3060   -2.8980  -22.7510 C   0  0  2  0  0  0  0  0  0  0  0  0
   -8.0120   -3.6280  -24.0680 C   0  0  0  0  0  0  0  0  0  0  0  0
   -7.3790   -5.2630  -23.7270 S   0  0  0  0  0  0  0  0  0  0  0  0
   -6.0090   -5.1880  -23.2460 O   0  0  0  0  0  0  0  0  0  0  0  0
   -8.3910   -5.9280  -22.9150 O   0  0  0  0  0  0  0  0  0  0  0  0
   -7.2620   -5.9430  -25.2470 N   0  0  0  0  0  0  0  0  0  0  0  0
   -8.4700   -6.3520  -25.9650 C   0  0  0  0  0  0  0  0  0  0  0  0
   -9.0050   -5.4720  -26.3320 H   0  0  0  0  0  0  0  0  0  0  0  0
   -9.1470   -6.9630  -25.3580 H   0  0  0  0  0  0  0  0  0  0  0  0
   -8.1570   -6.9260  -26.8430 H   0  0  0  0  0  0  0  0  0  0  0  0
   -6.5790   -6.6880  -25.1650 H   0  0  0  0  0  0  0  0  0  0  0  0
   -8.9260   -3.7630  -24.6550 H   0  0  0  0  0  0  0  0  0  0  0  0
   -7.2720   -3.1190  -24.6900 H   0  0  0  0  0  0  0  0  0  0  0  0
   -8.9110   -3.5870  -22.1630 H   0  0  0  0  0  0  0  0  0  0  0  0
   -6.1700   -2.3880  -22.5950 H   0  0  0  0  0  0  0  0  0  0  0  0
   -6.7590   -3.3930  -21.2600 H   0  0  0  0  0  0  0  0  0  0  0  0
  -10.5990   -1.6450  -22.7660 C   0  0  0  0  0  0  0  0  0  0  0  0
  -11.2150   -2.5690  -21.9180 C   0  0  0  0  0  0  0  0  0  0  0  0
  -12.5930   -2.5800  -21.8020 C   0  0  0  0  0  0  0  0  0  0  0  0
  -13.3400   -3.6710  -20.6760 Cl  0  0  0  0  0  0  0  0  0  0  0  0
  -13.4110   -1.7110  -22.5250 C   0  0  0  0  0  0  0  0  0  0  0  0
  -12.8060   -0.7650  -23.3220 C   0  0  0  0  0  0  0  0  0  0  0  0
  -11.4180   -0.7050  -23.4050 C   0  0  0  0  0  0  0  0  0  0  0  0
  -10.8370    0.4640  -24.1240 C   0  0  0  0  0  0  0  0  0  0  0  0
  -11.5230    1.4010  -24.5080 O   0  0  0  0  0  0  0  0  0  0  0  0
  -13.3760   -0.0250  -23.8730 H   0  0  0  0  0  0  0  0  0  0  0  0
  -14.4900   -1.7660  -22.4240 H   0  0  0  0  0  0  0  0  0  0  0  0
  -10.6250   -3.2650  -21.3310 H   0  0  0  0  0  0  0  0  0  0  0  0
   -7.6620   -0.5630  -24.1720 H   0  0  0  0  0  0  0  0  0  0  0  0
   -8.9510   -1.4640  -25.0000 H   0  0  0  0  0  0  0  0  0  0  0  0
   -9.6260    2.2970  -25.1010 H   0  0  0  0  0  0  0  0  0  0  0  0
   -8.2490    1.3210  -25.7220 H   0  0  0  0  0  0  0  0  0  0  0  0
   -9.3090    2.7590  -22.4950 H   0  0  0  0  0  0  0  0  0  0  0  0
   -6.7740    2.5080  -21.4800 H   0  0  0  0  0  0  0  0  0  0  0  0
   -6.7430    4.1210  -22.2180 H   0  0  0  0  0  0  0  0  0  0  0  0
   -7.9320    3.7740  -20.9450 H   0  0  0  0  0  0  0  0  0  0  0  0
  1  2  1  0  0  0  0
  1 62  1  0  0  0  0
  1 63  1  0  0  0  0
  1 64  1  0  0  0  0
  2  3  1  0  0  0  0
  2 61  1  0  0  0  0
  3  4  2  0  0  0  0
  3  5  1  0  0  0  0
  5  6  1  0  0  0  0
  5 59  1  0  0  0  0
  5 60  1  0  0  0  0
  6  7  1  0  0  0  0
  6 52  1  0  0  0  0
  7  8  1  0  0  0  0
  7 57  1  0  0  0  0
  7 58  1  0  0  0  0
  8  9  1  1  0  0  0
  8 29  1  0  0  0  0
  8 45  1  0  0  0  0
  9 10  2  0  0  0  0
  9 11  1  0  0  0  0
 11 12  1  0  0  0  0
 11 28  1  0  0  0  0
 12 13  2  0  0  0  0
 12 21  1  0  0  0  0
 13 14  1  0  0  0  0
 13 27  1  0  0  0  0
 14 15  2  0  0  0  0
 15 16  1  0  0  0  0
 15 26  1  0  0  0  0
 16 17  2  0  0  0  0
 16 21  1  0  0  0  0
 17 18  1  0  0  0  0
 17 25  1  0  0  0  0
 18 19  2  0  0  0  0
 18 24  1  0  0  0  0
 19 20  1  0  0  0  0
 19 23  1  0  0  0  0
 20 21  2  0  0  0  0
 20 22  1  0  0  0  0
 28 29  1  0  0  0  0
 28 43  1  0  0  0  0
 28 44  1  0  0  0  0
 29 30  1  0  0  0  0
 29 42  1  1  0  0  0
 30 31  1  0  0  0  0
 30 40  1  0  0  0  0
 30 41  1  0  0  0  0
 31 32  2  0  0  0  0
 31 33  2  0  0  0  0
 31 34  1  0  0  0  0
 34 35  1  0  0  0  0
 34 39  1  0  0  0  0
 35 36  1  0  0  0  0
 35 37  1  0  0  0  0
 35 38  1  0  0  0  0
 45 46  2  0  0  0  0
 45 51  1  0  0  0  0
 46 47  1  0  0  0  0
 46 56  1  0  0  0  0
 47 48  1  0  0  0  0
 47 49  2  0  0  0  0
 49 50  1  0  0  0  0
 49 55  1  0  0  0  0
 50 51  2  0  0  0  0
 50 54  1  0  0  0  0
 51 52  1  0  0  0  0
 52 53  2  0  0  0  0
M  END
>  <MODEL>
       1

$$$$
