tmp_first_model_8_18.pdb
 OpenBabel08272521063D

 56 61  0  0  1  0  0  0  0  0999 V2000
  -10.3750   -0.9640  -23.3940 C   0  0  0  0  0  0  0  0  0  0  0  0
   -8.9620   -1.3640  -22.9880 C   0  0  1  0  0  0  0  0  0  0  0  0
   -8.3720   -0.4690  -21.8890 C   0  0  0  0  0  0  0  0  0  0  0  0
   -7.3980   -1.3360  -21.2460 N   0  0  0  0  0  0  0  0  0  0  0  0
   -6.5910   -0.8760  -20.1860 C   0  0  0  0  0  0  0  0  0  0  0  0
   -6.8890   -1.1830  -18.8840 C   0  0  0  0  0  0  0  0  0  0  0  0
   -6.2310   -0.6580  -17.8200 N   0  0  0  0  0  0  0  0  0  0  0  0
   -5.2410    0.1680  -18.0610 C   0  0  0  0  0  0  0  0  0  0  0  0
   -4.8050    0.5360  -19.3670 C   0  0  0  0  0  0  0  0  0  0  0  0
   -3.7000    1.4000  -19.5960 C   0  0  0  0  0  0  0  0  0  0  0  0
   -3.3480    1.7450  -20.8720 C   0  0  0  0  0  0  0  0  0  0  0  0
   -4.0720    1.2430  -21.9780 C   0  0  0  0  0  0  0  0  0  0  0  0
   -5.1220    0.3820  -21.7830 C   0  0  0  0  0  0  0  0  0  0  0  0
   -5.5130    0.0150  -20.4690 C   0  0  0  0  0  0  0  0  0  0  0  0
   -5.6530   -0.0400  -22.6290 H   0  0  0  0  0  0  0  0  0  0  0  0
   -3.7810    1.5210  -22.9870 H   0  0  0  0  0  0  0  0  0  0  0  0
   -2.5020    2.4040  -21.0500 H   0  0  0  0  0  0  0  0  0  0  0  0
   -3.1480    1.7770  -18.7390 H   0  0  0  0  0  0  0  0  0  0  0  0
   -4.7240    0.5860  -17.1970 H   0  0  0  0  0  0  0  0  0  0  0  0
   -7.7010   -1.8710  -18.6520 H   0  0  0  0  0  0  0  0  0  0  0  0
   -7.6380   -2.6760  -21.4540 C   0  0  0  0  0  0  0  0  0  0  0  0
   -6.9970   -3.5750  -20.9400 O   0  0  0  0  0  0  0  0  0  0  0  0
   -8.8100   -2.8220  -22.4280 C   0  0  1  0  0  0  0  0  0  0  0  0
  -10.0420   -3.2440  -21.5870 C   0  0  0  0  0  0  0  0  0  0  0  0
  -11.1540   -3.7110  -22.4030 N   0  0  0  0  0  0  0  0  0  0  0  0
  -12.5320   -3.6330  -21.9150 C   0  0  0  0  0  0  0  0  0  0  0  0
  -13.3680   -2.5160  -22.4750 C   0  0  0  0  0  0  0  0  0  0  0  0
  -14.0550   -2.4760  -23.7110 C   0  0  0  0  0  0  0  0  0  0  0  0
  -14.7320   -1.2860  -23.6970 C   0  0  0  0  0  0  0  0  0  0  0  0
  -14.4430   -0.6970  -22.5170 N   0  0  0  0  0  0  0  0  0  0  0  0
  -13.6160   -1.4280  -21.7590 N   0  0  0  0  0  0  0  0  0  0  0  0
  -14.8150    0.1460  -22.1110 H   0  0  0  0  0  0  0  0  0  0  0  0
  -15.3640   -0.8100  -24.4210 H   0  0  0  0  0  0  0  0  0  0  0  0
  -14.0960   -3.2400  -24.4720 H   0  0  0  0  0  0  0  0  0  0  0  0
  -13.0170   -4.5610  -22.2350 H   0  0  0  0  0  0  0  0  0  0  0  0
  -12.5380   -3.5510  -20.8230 H   0  0  0  0  0  0  0  0  0  0  0  0
  -10.9590   -4.4900  -23.5110 C   0  0  0  0  0  0  0  0  0  0  0  0
  -11.9010   -5.0020  -24.1010 O   0  0  0  0  0  0  0  0  0  0  0  0
   -9.5530   -4.6790  -23.9700 C   0  0  0  0  0  0  0  0  0  0  0  0
   -9.3090   -5.6790  -24.9080 C   0  0  0  0  0  0  0  0  0  0  0  0
   -8.0340   -5.8990  -25.3910 C   0  0  0  0  0  0  0  0  0  0  0  0
   -7.0160   -5.0710  -24.9350 C   0  0  0  0  0  0  0  0  0  0  0  0
   -5.7760   -5.2590  -25.4130 F   0  0  0  0  0  0  0  0  0  0  0  0
   -7.2300   -4.0860  -23.9890 C   0  0  0  0  0  0  0  0  0  0  0  0
   -8.5210   -3.8790  -23.4780 C   0  0  0  0  0  0  0  0  0  0  0  0
   -6.3730   -3.5390  -23.6130 H   0  0  0  0  0  0  0  0  0  0  0  0
   -7.8180   -6.7080  -26.0780 H   0  0  0  0  0  0  0  0  0  0  0  0
  -10.1500   -6.2820  -25.2310 H   0  0  0  0  0  0  0  0  0  0  0  0
   -9.7220   -4.0300  -20.8950 H   0  0  0  0  0  0  0  0  0  0  0  0
  -10.3830   -2.3890  -20.9870 H   0  0  0  0  0  0  0  0  0  0  0  0
   -9.1410   -0.1400  -21.1710 H   0  0  0  0  0  0  0  0  0  0  0  0
   -7.8990    0.4390  -22.2740 H   0  0  0  0  0  0  0  0  0  0  0  0
   -8.2960   -1.3130  -23.8600 H   0  0  0  0  0  0  0  0  0  0  0  0
  -10.7940   -1.7070  -24.0780 H   0  0  0  0  0  0  0  0  0  0  0  0
  -11.0310   -0.9120  -22.5190 H   0  0  0  0  0  0  0  0  0  0  0  0
  -10.3990    0.0140  -23.8830 H   0  0  0  0  0  0  0  0  0  0  0  0
  1  2  1  0  0  0  0
  1 54  1  0  0  0  0
  1 55  1  0  0  0  0
  1 56  1  0  0  0  0
  2  3  1  0  0  0  0
  2 23  1  0  0  0  0
  2 53  1  6  0  0  0
  3  4  1  0  0  0  0
  3 51  1  0  0  0  0
  3 52  1  0  0  0  0
  4  5  1  0  0  0  0
  4 21  1  0  0  0  0
  5  6  2  0  0  0  0
  5 14  1  0  0  0  0
  6  7  1  0  0  0  0
  6 20  1  0  0  0  0
  7  8  2  0  0  0  0
  8  9  1  0  0  0  0
  8 19  1  0  0  0  0
  9 10  2  0  0  0  0
  9 14  1  0  0  0  0
 10 11  1  0  0  0  0
 10 18  1  0  0  0  0
 11 12  2  0  0  0  0
 11 17  1  0  0  0  0
 12 13  1  0  0  0  0
 12 16  1  0  0  0  0
 13 14  2  0  0  0  0
 13 15  1  0  0  0  0
 21 22  2  0  0  0  0
 23 21  1  1  0  0  0
 23 24  1  0  0  0  0
 23 45  1  0  0  0  0
 24 25  1  0  0  0  0
 24 49  1  0  0  0  0
 24 50  1  0  0  0  0
 25 26  1  0  0  0  0
 25 37  1  0  0  0  0
 26 27  1  0  0  0  0
 26 35  1  0  0  0  0
 26 36  1  0  0  0  0
 27 28  1  0  0  0  0
 27 31  2  0  0  0  0
 28 29  2  0  0  0  0
 28 34  1  0  0  0  0
 29 30  1  0  0  0  0
 29 33  1  0  0  0  0
 30 31  1  0  0  0  0
 30 32  1  0  0  0  0
 37 38  2  0  0  0  0
 37 39  1  0  0  0  0
 39 40  2  0  0  0  0
 39 45  1  0  0  0  0
 40 41  1  0  0  0  0
 40 48  1  0  0  0  0
 41 42  2  0  0  0  0
 41 47  1  0  0  0  0
 42 43  1  0  0  0  0
 42 44  1  0  0  0  0
 44 45  2  0  0  0  0
 44 46  1  0  0  0  0
M  END
>  <MODEL>
       1

$$$$
