tmp_first_model_9_63.pdb
 OpenBabel08272521403D

 57 61  0  0  1  0  0  0  0  0999 V2000
  -14.5620   -1.6830  -23.7360 C   0  0  0  0  0  0  0  0  0  0  0  0
  -13.6100   -2.6970  -23.3540 N   0  0  0  0  0  0  0  0  0  0  0  0
  -13.3050   -2.8870  -22.0450 C   0  0  0  0  0  0  0  0  0  0  0  0
  -13.8260   -2.2500  -21.1410 O   0  0  0  0  0  0  0  0  0  0  0  0
  -12.3120   -4.0210  -21.7950 C   0  0  0  0  0  0  0  0  0  0  0  0
  -11.0030   -3.9110  -22.4130 N   0  0  0  0  0  0  0  0  0  0  0  0
   -9.8940   -3.3900  -21.6290 C   0  0  0  0  0  0  0  0  0  0  0  0
   -8.7130   -2.8620  -22.4760 C   0  0  2  0  0  0  0  0  0  0  0  0
   -7.5340   -2.6720  -21.5050 C   0  0  0  0  0  0  0  0  0  0  0  0
   -6.8420   -3.5400  -21.0180 O   0  0  0  0  0  0  0  0  0  0  0  0
   -7.3630   -1.3240  -21.2720 N   0  0  0  0  0  0  0  0  0  0  0  0
   -6.5600   -0.8510  -20.2100 C   0  0  0  0  0  0  0  0  0  0  0  0
   -6.8770   -1.1260  -18.9050 C   0  0  0  0  0  0  0  0  0  0  0  0
   -6.2190   -0.5920  -17.8480 N   0  0  0  0  0  0  0  0  0  0  0  0
   -5.2150    0.2140  -18.0920 C   0  0  0  0  0  0  0  0  0  0  0  0
   -4.7560    0.5480  -19.3990 C   0  0  0  0  0  0  0  0  0  0  0  0
   -3.6320    1.3860  -19.6280 C   0  0  0  0  0  0  0  0  0  0  0  0
   -3.2240    1.6550  -20.9070 C   0  0  0  0  0  0  0  0  0  0  0  0
   -3.9190    1.1090  -22.0110 C   0  0  0  0  0  0  0  0  0  0  0  0
   -5.0090    0.2980  -21.8140 C   0  0  0  0  0  0  0  0  0  0  0  0
   -5.4500    0.0010  -20.4980 C   0  0  0  0  0  0  0  0  0  0  0  0
   -5.5370   -0.1450  -22.6530 H   0  0  0  0  0  0  0  0  0  0  0  0
   -3.5820    1.3160  -23.0220 H   0  0  0  0  0  0  0  0  0  0  0  0
   -2.3570    2.2850  -21.0840 H   0  0  0  0  0  0  0  0  0  0  0  0
   -3.1100    1.7990  -18.7690 H   0  0  0  0  0  0  0  0  0  0  0  0
   -4.7010    0.6350  -17.2290 H   0  0  0  0  0  0  0  0  0  0  0  0
   -7.7050   -1.7910  -18.6600 H   0  0  0  0  0  0  0  0  0  0  0  0
   -8.3660   -0.4860  -21.9070 C   0  0  0  0  0  0  0  0  0  0  0  0
   -8.9150   -1.3970  -23.0120 C   0  0  2  0  0  0  0  0  0  0  0  0
  -10.3260   -1.0290  -23.4710 C   0  0  0  0  0  0  0  0  0  0  0  0
  -11.2100   -0.8910  -22.3690 O   0  0  0  0  0  0  0  0  0  0  0  0
  -11.4380    0.0380  -22.2550 H   0  0  0  0  0  0  0  0  0  0  0  0
  -10.6960   -1.8310  -24.1190 H   0  0  0  0  0  0  0  0  0  0  0  0
  -10.3210   -0.1080  -24.0700 H   0  0  0  0  0  0  0  0  0  0  0  0
   -8.2450   -1.3210  -23.8800 H   0  0  0  0  0  0  0  0  0  0  0  0
   -9.1460   -0.1950  -21.1880 H   0  0  0  0  0  0  0  0  0  0  0  0
   -7.9180    0.4410  -22.2800 H   0  0  0  0  0  0  0  0  0  0  0  0
   -8.4000   -3.8750  -23.5580 C   0  0  0  0  0  0  0  0  0  0  0  0
   -7.1070   -3.9990  -24.0860 C   0  0  0  0  0  0  0  0  0  0  0  0
   -6.8520   -4.9420  -25.0650 C   0  0  0  0  0  0  0  0  0  0  0  0
   -5.2430   -5.0850  -25.7280 Cl  0  0  0  0  0  0  0  0  0  0  0  0
   -7.8500   -5.8160  -25.4990 C   0  0  0  0  0  0  0  0  0  0  0  0
   -9.1390   -5.6690  -25.0170 C   0  0  0  0  0  0  0  0  0  0  0  0
   -9.4200   -4.6820  -24.0760 C   0  0  0  0  0  0  0  0  0  0  0  0
  -10.8310   -4.5010  -23.6290 C   0  0  0  0  0  0  0  0  0  0  0  0
  -11.7990   -4.8530  -24.3110 O   0  0  0  0  0  0  0  0  0  0  0  0
   -9.9480   -6.3140  -25.3580 H   0  0  0  0  0  0  0  0  0  0  0  0
   -7.6080   -6.5970  -26.2080 H   0  0  0  0  0  0  0  0  0  0  0  0
   -6.2880   -3.4060  -23.6910 H   0  0  0  0  0  0  0  0  0  0  0  0
   -9.4980   -4.1590  -20.9610 H   0  0  0  0  0  0  0  0  0  0  0  0
  -10.2680   -2.5620  -21.0300 H   0  0  0  0  0  0  0  0  0  0  0  0
  -12.7710   -4.9000  -22.2480 H   0  0  0  0  0  0  0  0  0  0  0  0
  -12.2220   -4.1430  -20.7140 H   0  0  0  0  0  0  0  0  0  0  0  0
  -13.2300   -3.3180  -24.0570 H   0  0  0  0  0  0  0  0  0  0  0  0
  -14.1440   -0.6750  -23.6760 H   0  0  0  0  0  0  0  0  0  0  0  0
  -15.4170   -1.6880  -23.0630 H   0  0  0  0  0  0  0  0  0  0  0  0
  -14.8970   -1.8760  -24.7570 H   0  0  0  0  0  0  0  0  0  0  0  0
  1  2  1  0  0  0  0
  1 55  1  0  0  0  0
  1 56  1  0  0  0  0
  1 57  1  0  0  0  0
  2  3  1  0  0  0  0
  2 54  1  0  0  0  0
  3  4  2  0  0  0  0
  3  5  1  0  0  0  0
  5  6  1  0  0  0  0
  5 52  1  0  0  0  0
  5 53  1  0  0  0  0
  6  7  1  0  0  0  0
  6 45  1  0  0  0  0
  7  8  1  0  0  0  0
  7 50  1  0  0  0  0
  7 51  1  0  0  0  0
  8  9  1  1  0  0  0
  8 29  1  0  0  0  0
  8 38  1  0  0  0  0
  9 10  2  0  0  0  0
  9 11  1  0  0  0  0
 11 12  1  0  0  0  0
 11 28  1  0  0  0  0
 12 13  2  0  0  0  0
 12 21  1  0  0  0  0
 13 14  1  0  0  0  0
 13 27  1  0  0  0  0
 14 15  2  0  0  0  0
 15 16  1  0  0  0  0
 15 26  1  0  0  0  0
 16 17  2  0  0  0  0
 16 21  1  0  0  0  0
 17 18  1  0  0  0  0
 17 25  1  0  0  0  0
 18 19  2  0  0  0  0
 18 24  1  0  0  0  0
 19 20  1  0  0  0  0
 19 23  1  0  0  0  0
 20 21  2  0  0  0  0
 20 22  1  0  0  0  0
 28 29  1  0  0  0  0
 28 36  1  0  0  0  0
 28 37  1  0  0  0  0
 29 30  1  0  0  0  0
 29 35  1  6  0  0  0
 30 31  1  0  0  0  0
 30 33  1  0  0  0  0
 30 34  1  0  0  0  0
 31 32  1  0  0  0  0
 38 39  2  0  0  0  0
 38 44  1  0  0  0  0
 39 40  1  0  0  0  0
 39 49  1  0  0  0  0
 40 41  1  0  0  0  0
 40 42  2  0  0  0  0
 42 43  1  0  0  0  0
 42 48  1  0  0  0  0
 43 44  2  0  0  0  0
 43 47  1  0  0  0  0
 44 45  1  0  0  0  0
 45 46  2  0  0  0  0
M  END
>  <MODEL>
       1

$$$$
