tmp_first_model_20_89.pdb
 OpenBabel08282503553D

 43 45  0  0  0  0  0  0  0  0999 V2000
   -9.7530   -4.1870  -25.8460 C   0  0  0  0  0  0  0  0  0  0  0  0
   -8.2270   -4.2040  -25.7070 C   0  0  0  0  0  0  0  0  0  0  0  0
   -7.6340   -4.8420  -26.9680 C   0  0  0  0  0  0  0  0  0  0  0  0
   -8.0340   -5.8500  -27.1260 H   0  0  0  0  0  0  0  0  0  0  0  0
   -7.8640   -4.2550  -27.8640 H   0  0  0  0  0  0  0  0  0  0  0  0
   -6.5440   -4.9310  -26.9020 H   0  0  0  0  0  0  0  0  0  0  0  0
   -7.6880   -2.7680  -25.5710 C   0  0  0  0  0  0  0  0  0  0  0  0
   -7.7330   -2.2020  -24.1510 C   0  0  0  0  0  0  0  0  0  0  0  0
   -7.0440   -3.0680  -23.2000 N   0  0  0  0  0  0  0  0  0  0  0  0
   -6.6940   -2.6850  -21.9280 C   0  0  0  0  0  0  0  0  0  0  0  0
   -5.8690   -3.3130  -21.2820 O   0  0  0  0  0  0  0  0  0  0  0  0
   -7.3940   -1.4610  -21.2860 C   0  0  0  0  0  0  0  0  0  0  0  0
   -6.5760   -0.8300  -20.1810 C   0  0  0  0  0  0  0  0  0  0  0  0
   -6.8720   -1.0460  -18.8600 C   0  0  0  0  0  0  0  0  0  0  0  0
   -6.1920   -0.5370  -17.7940 N   0  0  0  0  0  0  0  0  0  0  0  0
   -5.1580    0.2200  -18.0630 C   0  0  0  0  0  0  0  0  0  0  0  0
   -4.7200    0.5320  -19.3780 C   0  0  0  0  0  0  0  0  0  0  0  0
   -3.5930    1.3590  -19.6230 C   0  0  0  0  0  0  0  0  0  0  0  0
   -3.1930    1.6370  -20.9000 C   0  0  0  0  0  0  0  0  0  0  0  0
   -3.9070    1.0940  -21.9940 C   0  0  0  0  0  0  0  0  0  0  0  0
   -5.0010    0.2950  -21.7850 C   0  0  0  0  0  0  0  0  0  0  0  0
   -5.4450   -0.0080  -20.4720 C   0  0  0  0  0  0  0  0  0  0  0  0
   -5.5390   -0.1070  -22.6400 H   0  0  0  0  0  0  0  0  0  0  0  0
   -3.5880    1.3250  -23.0050 H   0  0  0  0  0  0  0  0  0  0  0  0
   -2.3340    2.2760  -21.0900 H   0  0  0  0  0  0  0  0  0  0  0  0
   -3.0510    1.7710  -18.7730 H   0  0  0  0  0  0  0  0  0  0  0  0
   -4.6010    0.6270  -17.2160 H   0  0  0  0  0  0  0  0  0  0  0  0
   -7.7210   -1.6710  -18.5870 H   0  0  0  0  0  0  0  0  0  0  0  0
   -8.3340   -1.8260  -20.8470 H   0  0  0  0  0  0  0  0  0  0  0  0
   -7.6870   -0.7020  -22.0220 H   0  0  0  0  0  0  0  0  0  0  0  0
   -6.6850   -4.4080  -23.6630 C   0  0  0  0  0  0  0  0  0  0  0  0
   -7.8330   -5.0240  -24.4570 C   0  0  0  0  0  0  0  0  0  0  0  0
   -7.5790   -6.0470  -24.7500 H   0  0  0  0  0  0  0  0  0  0  0  0
   -8.6880   -5.1210  -23.7800 H   0  0  0  0  0  0  0  0  0  0  0  0
   -6.4510   -5.0180  -22.7930 H   0  0  0  0  0  0  0  0  0  0  0  0
   -5.7710   -4.3820  -24.2700 H   0  0  0  0  0  0  0  0  0  0  0  0
   -8.7720   -2.0380  -23.8460 H   0  0  0  0  0  0  0  0  0  0  0  0
   -7.2550   -1.2160  -24.1670 H   0  0  0  0  0  0  0  0  0  0  0  0
   -8.2550   -2.1090  -26.2350 H   0  0  0  0  0  0  0  0  0  0  0  0
   -6.6580   -2.7140  -25.9420 H   0  0  0  0  0  0  0  0  0  0  0  0
  -10.2280   -3.7000  -24.9890 H   0  0  0  0  0  0  0  0  0  0  0  0
  -10.1580   -5.2030  -25.9150 H   0  0  0  0  0  0  0  0  0  0  0  0
  -10.0660   -3.6500  -26.7480 H   0  0  0  0  0  0  0  0  0  0  0  0
  1  2  1  0  0  0  0
  1 41  1  0  0  0  0
  1 42  1  0  0  0  0
  1 43  1  0  0  0  0
  2  3  1  0  0  0  0
  2  7  1  0  0  0  0
  2 32  1  0  0  0  0
  3  4  1  0  0  0  0
  3  5  1  0  0  0  0
  3  6  1  0  0  0  0
  7  8  1  0  0  0  0
  7 39  1  0  0  0  0
  7 40  1  0  0  0  0
  8  9  1  0  0  0  0
  8 37  1  0  0  0  0
  8 38  1  0  0  0  0
  9 10  1  0  0  0  0
  9 31  1  0  0  0  0
 10 11  2  0  0  0  0
 10 12  1  0  0  0  0
 12 13  1  0  0  0  0
 12 29  1  0  0  0  0
 12 30  1  0  0  0  0
 13 14  2  0  0  0  0
 13 22  1  0  0  0  0
 14 15  1  0  0  0  0
 14 28  1  0  0  0  0
 15 16  2  0  0  0  0
 16 17  1  0  0  0  0
 16 27  1  0  0  0  0
 17 18  2  0  0  0  0
 17 22  1  0  0  0  0
 18 19  1  0  0  0  0
 18 26  1  0  0  0  0
 19 20  2  0  0  0  0
 19 25  1  0  0  0  0
 20 21  1  0  0  0  0
 20 24  1  0  0  0  0
 21 22  2  0  0  0  0
 21 23  1  0  0  0  0
 31 32  1  0  0  0  0
 31 35  1  0  0  0  0
 31 36  1  0  0  0  0
 32 33  1  0  0  0  0
 32 34  1  0  0  0  0
M  END
>  <MODEL>
       1

$$$$
