tmp_first_model_10_37.pdb
 OpenBabel08272522163D

 56 60  0  0  1  0  0  0  0  0999 V2000
   -7.9840   -6.0000  -26.9850 C   0  0  0  0  0  0  0  0  0  0  0  0
   -8.2890   -4.5910  -27.0900 N   0  0  0  0  0  0  0  0  0  0  0  0
   -7.3500   -3.6780  -26.7490 C   0  0  0  0  0  0  0  0  0  0  0  0
   -6.2280   -4.0000  -26.3850 O   0  0  0  0  0  0  0  0  0  0  0  0
   -7.7990   -2.2180  -26.7950 C   0  0  0  0  0  0  0  0  0  0  0  0
   -8.6320   -1.8580  -25.6650 N   0  0  0  0  0  0  0  0  0  0  0  0
   -7.9820   -1.3100  -24.4850 C   0  0  0  0  0  0  0  0  0  0  0  0
   -8.7390   -1.5710  -23.1730 C   0  0  2  0  0  0  0  0  0  0  0  0
   -8.1320   -0.6380  -22.1060 C   0  0  0  0  0  0  0  0  0  0  0  0
   -8.2250    0.5710  -22.0550 O   0  0  0  0  0  0  0  0  0  0  0  0
   -7.4270   -1.3860  -21.1940 N   0  0  0  0  0  0  0  0  0  0  0  0
   -6.6470   -0.7890  -20.1760 C   0  0  0  0  0  0  0  0  0  0  0  0
   -6.9140   -1.0860  -18.8600 C   0  0  0  0  0  0  0  0  0  0  0  0
   -6.2100   -0.6080  -17.8040 N   0  0  0  0  0  0  0  0  0  0  0  0
   -5.2120    0.2030  -18.0680 C   0  0  0  0  0  0  0  0  0  0  0  0
   -4.8200    0.5790  -19.3870 C   0  0  0  0  0  0  0  0  0  0  0  0
   -3.6850    1.4050  -19.6160 C   0  0  0  0  0  0  0  0  0  0  0  0
   -3.3810    1.8410  -20.8740 C   0  0  0  0  0  0  0  0  0  0  0  0
   -4.1680    1.4200  -21.9750 C   0  0  0  0  0  0  0  0  0  0  0  0
   -5.1690    0.4960  -21.7970 C   0  0  0  0  0  0  0  0  0  0  0  0
   -5.5570    0.0880  -20.4850 C   0  0  0  0  0  0  0  0  0  0  0  0
   -5.6550    0.0660  -22.6670 H   0  0  0  0  0  0  0  0  0  0  0  0
   -3.9680    1.8200  -22.9690 H   0  0  0  0  0  0  0  0  0  0  0  0
   -2.5240    2.4920  -21.0500 H   0  0  0  0  0  0  0  0  0  0  0  0
   -3.0870    1.6990  -18.7590 H   0  0  0  0  0  0  0  0  0  0  0  0
   -4.6340    0.5790  -17.2190 H   0  0  0  0  0  0  0  0  0  0  0  0
   -7.7620   -1.7270  -18.6130 H   0  0  0  0  0  0  0  0  0  0  0  0
   -7.4050   -2.8050  -21.4920 C   0  0  0  0  0  0  0  0  0  0  0  0
   -8.5350   -2.9790  -22.5170 C   0  0  2  0  0  0  0  0  0  0  0  0
   -8.3070   -4.1320  -23.4820 C   0  0  0  0  0  0  0  0  0  0  0  0
   -8.2600   -5.0860  -22.9520 H   0  0  0  0  0  0  0  0  0  0  0  0
   -9.1180   -4.1930  -24.2150 H   0  0  0  0  0  0  0  0  0  0  0  0
   -7.3630   -4.0180  -24.0260 H   0  0  0  0  0  0  0  0  0  0  0  0
   -9.4610   -3.1700  -21.9550 H   0  0  0  0  0  0  0  0  0  0  0  0
   -6.4310   -3.0980  -21.9080 H   0  0  0  0  0  0  0  0  0  0  0  0
   -7.5730   -3.3890  -20.5830 H   0  0  0  0  0  0  0  0  0  0  0  0
  -10.1990   -1.2750  -23.4310 C   0  0  0  0  0  0  0  0  0  0  0  0
  -11.0180   -0.9460  -22.3550 C   0  0  0  0  0  0  0  0  0  0  0  0
  -12.3750   -0.7320  -22.5370 C   0  0  0  0  0  0  0  0  0  0  0  0
  -12.9510   -0.8780  -23.8020 C   0  0  0  0  0  0  0  0  0  0  0  0
  -12.1590   -1.2410  -24.8780 C   0  0  0  0  0  0  0  0  0  0  0  0
  -10.7910   -1.4280  -24.6880 C   0  0  0  0  0  0  0  0  0  0  0  0
   -9.9820   -1.8630  -25.8560 C   0  0  0  0  0  0  0  0  0  0  0  0
  -10.4940   -2.2270  -26.9100 O   0  0  0  0  0  0  0  0  0  0  0  0
  -12.5650   -1.3960  -25.8760 H   0  0  0  0  0  0  0  0  0  0  0  0
  -14.0200   -0.7230  -23.9250 H   0  0  0  0  0  0  0  0  0  0  0  0
  -12.9980   -0.4610  -21.6890 H   0  0  0  0  0  0  0  0  0  0  0  0
  -10.5550   -0.8770  -21.3750 H   0  0  0  0  0  0  0  0  0  0  0  0
   -7.8780   -0.2220  -24.5780 H   0  0  0  0  0  0  0  0  0  0  0  0
   -6.9830   -1.7470  -24.4450 H   0  0  0  0  0  0  0  0  0  0  0  0
   -6.8980   -1.6020  -26.7970 H   0  0  0  0  0  0  0  0  0  0  0  0
   -8.3950   -2.0500  -27.6930 H   0  0  0  0  0  0  0  0  0  0  0  0
   -9.2060   -4.2910  -27.3750 H   0  0  0  0  0  0  0  0  0  0  0  0
   -8.8550   -6.6010  -27.2450 H   0  0  0  0  0  0  0  0  0  0  0  0
   -7.1560   -6.2660  -27.6420 H   0  0  0  0  0  0  0  0  0  0  0  0
   -7.6700   -6.2410  -25.9680 H   0  0  0  0  0  0  0  0  0  0  0  0
  1  2  1  0  0  0  0
  1 54  1  0  0  0  0
  1 55  1  0  0  0  0
  1 56  1  0  0  0  0
  2  3  1  0  0  0  0
  2 53  1  0  0  0  0
  3  4  2  0  0  0  0
  3  5  1  0  0  0  0
  5  6  1  0  0  0  0
  5 51  1  0  0  0  0
  5 52  1  0  0  0  0
  6  7  1  0  0  0  0
  6 43  1  0  0  0  0
  7  8  1  0  0  0  0
  7 49  1  0  0  0  0
  7 50  1  0  0  0  0
  8  9  1  1  0  0  0
  8 29  1  0  0  0  0
  8 37  1  0  0  0  0
  9 10  2  0  0  0  0
  9 11  1  0  0  0  0
 11 12  1  0  0  0  0
 11 28  1  0  0  0  0
 12 13  2  0  0  0  0
 12 21  1  0  0  0  0
 13 14  1  0  0  0  0
 13 27  1  0  0  0  0
 14 15  2  0  0  0  0
 15 16  1  0  0  0  0
 15 26  1  0  0  0  0
 16 17  2  0  0  0  0
 16 21  1  0  0  0  0
 17 18  1  0  0  0  0
 17 25  1  0  0  0  0
 18 19  2  0  0  0  0
 18 24  1  0  0  0  0
 19 20  1  0  0  0  0
 19 23  1  0  0  0  0
 20 21  2  0  0  0  0
 20 22  1  0  0  0  0
 28 29  1  0  0  0  0
 28 35  1  0  0  0  0
 28 36  1  0  0  0  0
 29 30  1  0  0  0  0
 29 34  1  1  0  0  0
 30 31  1  0  0  0  0
 30 32  1  0  0  0  0
 30 33  1  0  0  0  0
 37 38  2  0  0  0  0
 37 42  1  0  0  0  0
 38 39  1  0  0  0  0
 38 48  1  0  0  0  0
 39 40  2  0  0  0  0
 39 47  1  0  0  0  0
 40 41  1  0  0  0  0
 40 46  1  0  0  0  0
 41 42  2  0  0  0  0
 41 45  1  0  0  0  0
 42 43  1  0  0  0  0
 43 44  2  0  0  0  0
M  END
>  <MODEL>
       1

$$$$
