tmp_first_model_14_43.pdb
 OpenBabel08282500413D

 67 72  0  0  1  0  0  0  0  0999 V2000
   -7.8010   -3.3940  -29.1320 C   0  0  0  0  0  0  0  0  0  0  0  0
   -8.4190   -2.5040  -28.1790 N   0  0  0  0  0  0  0  0  0  0  0  0
   -7.7320   -1.8730  -27.1950 C   0  0  0  0  0  0  0  0  0  0  0  0
   -6.6040   -2.1620  -26.8270 O   0  0  0  0  0  0  0  0  0  0  0  0
   -8.5610   -0.7350  -26.6160 C   0  0  0  0  0  0  0  0  0  0  0  0
   -9.2290   -1.1180  -25.3940 N   0  0  0  0  0  0  0  0  0  0  0  0
   -8.5920   -0.7200  -24.1560 C   0  0  0  0  0  0  0  0  0  0  0  0
   -9.0650   -1.5370  -22.9400 C   0  0  2  0  0  0  0  0  0  0  0  0
   -8.5650   -0.7660  -21.6990 C   0  0  0  0  0  0  0  0  0  0  0  0
   -9.0170    0.2610  -21.2320 O   0  0  0  0  0  0  0  0  0  0  0  0
   -7.4220   -1.3890  -21.2390 N   0  0  0  0  0  0  0  0  0  0  0  0
   -6.6240   -0.8020  -20.2220 C   0  0  0  0  0  0  0  0  0  0  0  0
   -6.9540   -1.0040  -18.9090 C   0  0  0  0  0  0  0  0  0  0  0  0
   -6.2650   -0.4990  -17.8570 N   0  0  0  0  0  0  0  0  0  0  0  0
   -5.2050    0.2230  -18.1170 C   0  0  0  0  0  0  0  0  0  0  0  0
   -4.7520    0.5220  -19.4320 C   0  0  0  0  0  0  0  0  0  0  0  0
   -3.6180    1.3440  -19.6560 C   0  0  0  0  0  0  0  0  0  0  0  0
   -3.2260    1.6450  -20.9310 C   0  0  0  0  0  0  0  0  0  0  0  0
   -3.9400    1.1300  -22.0350 C   0  0  0  0  0  0  0  0  0  0  0  0
   -5.0380    0.3260  -21.8430 C   0  0  0  0  0  0  0  0  0  0  0  0
   -5.4750   -0.0010  -20.5280 C   0  0  0  0  0  0  0  0  0  0  0  0
   -5.5890   -0.0460  -22.7000 H   0  0  0  0  0  0  0  0  0  0  0  0
   -3.6200    1.3820  -23.0410 H   0  0  0  0  0  0  0  0  0  0  0  0
   -2.3670    2.2860  -21.1010 H   0  0  0  0  0  0  0  0  0  0  0  0
   -3.0860    1.7370  -18.7950 H   0  0  0  0  0  0  0  0  0  0  0  0
   -4.6420    0.6130  -17.2670 H   0  0  0  0  0  0  0  0  0  0  0  0
   -7.8240   -1.6110  -18.6690 H   0  0  0  0  0  0  0  0  0  0  0  0
   -7.0660   -2.5950  -21.9650 C   0  0  0  0  0  0  0  0  0  0  0  0
   -8.3320   -2.9110  -22.7640 C   0  0  2  0  0  0  0  0  0  0  0  0
   -8.0220   -3.7170  -24.0230 C   0  0  0  0  0  0  0  0  0  0  0  0
   -9.2430   -4.2480  -24.5840 N   0  0  0  0  0  0  0  0  0  0  0  0
   -9.3360   -4.9060  -25.7770 C   0  0  0  0  0  0  0  0  0  0  0  0
  -10.8820   -5.0950  -26.5800 S   0  0  0  0  0  0  0  0  0  0  0  0
  -10.0790   -6.0210  -27.8020 C   0  0  0  0  0  0  0  0  0  0  0  0
   -8.8050   -6.1770  -27.6440 N   0  0  0  0  0  0  0  0  0  0  0  0
   -8.3620   -5.5580  -26.4980 C   0  0  0  0  0  0  0  0  0  0  0  0
   -6.9070   -5.6690  -26.1440 C   0  0  0  0  0  0  0  0  0  0  0  0
   -6.3980   -6.2690  -26.9030 H   0  0  0  0  0  0  0  0  0  0  0  0
   -6.7650   -6.1660  -25.1780 H   0  0  0  0  0  0  0  0  0  0  0  0
   -6.4290   -4.6830  -26.0970 H   0  0  0  0  0  0  0  0  0  0  0  0
  -10.6270   -6.3940  -28.6550 H   0  0  0  0  0  0  0  0  0  0  0  0
  -10.1170   -3.9760  -24.1490 H   0  0  0  0  0  0  0  0  0  0  0  0
   -7.3520   -4.5430  -23.7470 H   0  0  0  0  0  0  0  0  0  0  0  0
   -7.4990   -3.1050  -24.7710 H   0  0  0  0  0  0  0  0  0  0  0  0
   -8.9850   -3.5300  -22.1320 H   0  0  0  0  0  0  0  0  0  0  0  0
   -6.2050   -2.4320  -22.6360 H   0  0  0  0  0  0  0  0  0  0  0  0
   -6.7970   -3.4000  -21.2720 H   0  0  0  0  0  0  0  0  0  0  0  0
  -10.5700   -1.6840  -22.9990 C   0  0  0  0  0  0  0  0  0  0  0  0
  -11.2860   -1.9980  -21.8430 C   0  0  0  0  0  0  0  0  0  0  0  0
  -12.6470   -2.2480  -21.9040 C   0  0  0  0  0  0  0  0  0  0  0  0
  -13.4560   -2.8200  -20.4750 Cl  0  0  0  0  0  0  0  0  0  0  0  0
  -13.3610   -2.1080  -23.0910 C   0  0  0  0  0  0  0  0  0  0  0  0
  -12.6510   -1.7940  -24.2370 C   0  0  0  0  0  0  0  0  0  0  0  0
  -11.2710   -1.6370  -24.2060 C   0  0  0  0  0  0  0  0  0  0  0  0
  -10.5410   -1.4890  -25.4950 C   0  0  0  0  0  0  0  0  0  0  0  0
  -11.0770   -1.6830  -26.5820 O   0  0  0  0  0  0  0  0  0  0  0  0
  -13.1430   -1.6880  -25.1920 H   0  0  0  0  0  0  0  0  0  0  0  0
  -14.4360   -2.2540  -23.1170 H   0  0  0  0  0  0  0  0  0  0  0  0
  -10.7670   -2.0380  -20.8940 H   0  0  0  0  0  0  0  0  0  0  0  0
   -8.7850    0.3430  -23.9650 H   0  0  0  0  0  0  0  0  0  0  0  0
   -7.5050   -0.8270  -24.2910 H   0  0  0  0  0  0  0  0  0  0  0  0
   -7.9460    0.1550  -26.4610 H   0  0  0  0  0  0  0  0  0  0  0  0
   -9.3250   -0.5300  -27.3570 H   0  0  0  0  0  0  0  0  0  0  0  0
   -9.4070   -2.2960  -28.2640 H   0  0  0  0  0  0  0  0  0  0  0  0
   -7.0860   -4.0460  -28.6260 H   0  0  0  0  0  0  0  0  0  0  0  0
   -7.2750   -2.8600  -29.9370 H   0  0  0  0  0  0  0  0  0  0  0  0
   -8.5780   -4.0290  -29.5540 H   0  0  0  0  0  0  0  0  0  0  0  0
  1  2  1  0  0  0  0
  1 65  1  0  0  0  0
  1 66  1  0  0  0  0
  1 67  1  0  0  0  0
  2  3  1  0  0  0  0
  2 64  1  0  0  0  0
  3  4  2  0  0  0  0
  3  5  1  0  0  0  0
  5  6  1  0  0  0  0
  5 62  1  0  0  0  0
  5 63  1  0  0  0  0
  6  7  1  0  0  0  0
  6 55  1  0  0  0  0
  7  8  1  0  0  0  0
  7 60  1  0  0  0  0
  7 61  1  0  0  0  0
  8  9  1  1  0  0  0
  8 29  1  0  0  0  0
  8 48  1  0  0  0  0
  9 10  2  0  0  0  0
  9 11  1  0  0  0  0
 11 12  1  0  0  0  0
 11 28  1  0  0  0  0
 12 13  2  0  0  0  0
 12 21  1  0  0  0  0
 13 14  1  0  0  0  0
 13 27  1  0  0  0  0
 14 15  2  0  0  0  0
 15 16  1  0  0  0  0
 15 26  1  0  0  0  0
 16 17  2  0  0  0  0
 16 21  1  0  0  0  0
 17 18  1  0  0  0  0
 17 25  1  0  0  0  0
 18 19  2  0  0  0  0
 18 24  1  0  0  0  0
 19 20  1  0  0  0  0
 19 23  1  0  0  0  0
 20 21  2  0  0  0  0
 20 22  1  0  0  0  0
 28 29  1  0  0  0  0
 28 46  1  0  0  0  0
 28 47  1  0  0  0  0
 29 30  1  0  0  0  0
 29 45  1  1  0  0  0
 30 31  1  0  0  0  0
 30 43  1  0  0  0  0
 30 44  1  0  0  0  0
 31 32  1  0  0  0  0
 31 42  1  0  0  0  0
 32 33  1  0  0  0  0
 32 36  2  0  0  0  0
 33 34  1  0  0  0  0
 34 35  2  0  0  0  0
 34 41  1  0  0  0  0
 35 36  1  0  0  0  0
 36 37  1  0  0  0  0
 37 38  1  0  0  0  0
 37 39  1  0  0  0  0
 37 40  1  0  0  0  0
 48 49  2  0  0  0  0
 48 54  1  0  0  0  0
 49 50  1  0  0  0  0
 49 59  1  0  0  0  0
 50 51  1  0  0  0  0
 50 52  2  0  0  0  0
 52 53  1  0  0  0  0
 52 58  1  0  0  0  0
 53 54  2  0  0  0  0
 53 57  1  0  0  0  0
 54 55  1  0  0  0  0
 55 56  2  0  0  0  0
M  END
>  <MODEL>
       1

$$$$
