tmp_first_model_12_77.pdb
 OpenBabel08272523333D

 55 60  0  0  1  0  0  0  0  0999 V2000
   -8.2210   -4.0460  -23.7110 C   0  0  0  0  0  0  0  0  0  0  0  0
   -8.4770   -3.1800  -22.4790 C   0  0  1  0  0  0  0  0  0  0  0  0
   -7.1750   -2.4790  -22.0370 C   0  0  0  0  0  0  0  0  0  0  0  0
   -7.6470   -1.3530  -21.2580 N   0  0  0  0  0  0  0  0  0  0  0  0
   -6.9100   -0.7470  -20.2130 C   0  0  0  0  0  0  0  0  0  0  0  0
   -7.1850   -1.0650  -18.9080 C   0  0  0  0  0  0  0  0  0  0  0  0
   -6.4330   -0.6690  -17.8530 N   0  0  0  0  0  0  0  0  0  0  0  0
   -5.3880    0.0820  -18.0940 C   0  0  0  0  0  0  0  0  0  0  0  0
   -5.0160    0.5250  -19.3940 C   0  0  0  0  0  0  0  0  0  0  0  0
   -3.8850    1.3560  -19.6090 C   0  0  0  0  0  0  0  0  0  0  0  0
   -3.6030    1.8230  -20.8620 C   0  0  0  0  0  0  0  0  0  0  0  0
   -4.4350    1.4910  -21.9530 C   0  0  0  0  0  0  0  0  0  0  0  0
   -5.5200    0.6660  -21.7740 C   0  0  0  0  0  0  0  0  0  0  0  0
   -5.8210    0.1390  -20.4900 C   0  0  0  0  0  0  0  0  0  0  0  0
   -6.1580    0.4140  -22.6150 H   0  0  0  0  0  0  0  0  0  0  0  0
   -4.2080    1.8860  -22.9400 H   0  0  0  0  0  0  0  0  0  0  0  0
   -2.7440    2.4690  -21.0240 H   0  0  0  0  0  0  0  0  0  0  0  0
   -3.2640    1.6200  -18.7560 H   0  0  0  0  0  0  0  0  0  0  0  0
   -4.7840    0.3850  -17.2360 H   0  0  0  0  0  0  0  0  0  0  0  0
   -8.0400   -1.6960  -18.6750 H   0  0  0  0  0  0  0  0  0  0  0  0
   -8.9720   -1.0520  -21.4820 C   0  0  0  0  0  0  0  0  0  0  0  0
   -9.5630   -0.1390  -20.9530 O   0  0  0  0  0  0  0  0  0  0  0  0
   -9.5100   -2.0140  -22.5840 C   0  0  1  0  0  0  0  0  0  0  0  0
   -9.3820   -1.2430  -23.9170 C   0  0  0  0  0  0  0  0  0  0  0  0
  -10.2720   -0.0940  -23.9280 N   0  0  0  0  0  0  0  0  0  0  0  0
   -9.8300    1.1760  -24.4770 C   0  0  0  0  0  0  0  0  0  0  0  0
   -9.7900    1.2000  -25.9760 C   0  0  0  0  0  0  0  0  0  0  0  0
   -9.1530    0.3720  -26.8340 C   0  0  0  0  0  0  0  0  0  0  0  0
   -9.4630    0.7630  -28.1070 O   0  0  0  0  0  0  0  0  0  0  0  0
  -10.2880    1.8110  -27.9410 C   0  0  0  0  0  0  0  0  0  0  0  0
  -10.5200    2.1280  -26.7130 N   0  0  0  0  0  0  0  0  0  0  0  0
  -10.6540    2.2880  -28.8420 H   0  0  0  0  0  0  0  0  0  0  0  0
   -8.4640   -0.4570  -26.7410 H   0  0  0  0  0  0  0  0  0  0  0  0
  -10.5280    1.9560  -24.1660 H   0  0  0  0  0  0  0  0  0  0  0  0
   -8.8570    1.4130  -24.0220 H   0  0  0  0  0  0  0  0  0  0  0  0
  -11.6120   -0.2660  -23.7210 C   0  0  0  0  0  0  0  0  0  0  0  0
  -12.4530    0.4890  -24.1920 O   0  0  0  0  0  0  0  0  0  0  0  0
  -11.9580   -1.3820  -22.7910 C   0  0  0  0  0  0  0  0  0  0  0  0
  -13.2560   -1.3760  -22.2760 C   0  0  0  0  0  0  0  0  0  0  0  0
  -13.6400   -2.3280  -21.3550 C   0  0  0  0  0  0  0  0  0  0  0  0
  -12.7290   -3.3360  -21.0610 C   0  0  0  0  0  0  0  0  0  0  0  0
  -13.1050   -4.2510  -20.1510 F   0  0  0  0  0  0  0  0  0  0  0  0
  -11.4390   -3.3750  -21.5670 C   0  0  0  0  0  0  0  0  0  0  0  0
  -10.9910   -2.3230  -22.3780 C   0  0  0  0  0  0  0  0  0  0  0  0
  -10.7860   -4.1740  -21.2280 H   0  0  0  0  0  0  0  0  0  0  0  0
  -14.5960   -2.3010  -20.8400 H   0  0  0  0  0  0  0  0  0  0  0  0
  -13.9320   -0.5880  -22.5950 H   0  0  0  0  0  0  0  0  0  0  0  0
   -9.6060   -1.9330  -24.7410 H   0  0  0  0  0  0  0  0  0  0  0  0
   -8.3590   -0.8830  -24.0510 H   0  0  0  0  0  0  0  0  0  0  0  0
   -6.5180   -3.1120  -21.4310 H   0  0  0  0  0  0  0  0  0  0  0  0
   -6.5940   -2.1510  -22.9170 H   0  0  0  0  0  0  0  0  0  0  0  0
   -8.7830   -3.8300  -21.6490 H   0  0  0  0  0  0  0  0  0  0  0  0
   -9.1120   -4.5760  -24.0570 H   0  0  0  0  0  0  0  0  0  0  0  0
   -7.8460   -3.4400  -24.5440 H   0  0  0  0  0  0  0  0  0  0  0  0
   -7.4520   -4.7980  -23.4920 H   0  0  0  0  0  0  0  0  0  0  0  0
  1  2  1  0  0  0  0
  1 53  1  0  0  0  0
  1 54  1  0  0  0  0
  1 55  1  0  0  0  0
  2  3  1  0  0  0  0
  2 23  1  0  0  0  0
  2 52  1  1  0  0  0
  3  4  1  0  0  0  0
  3 50  1  0  0  0  0
  3 51  1  0  0  0  0
  4  5  1  0  0  0  0
  4 21  1  0  0  0  0
  5  6  2  0  0  0  0
  5 14  1  0  0  0  0
  6  7  1  0  0  0  0
  6 20  1  0  0  0  0
  7  8  2  0  0  0  0
  8  9  1  0  0  0  0
  8 19  1  0  0  0  0
  9 10  2  0  0  0  0
  9 14  1  0  0  0  0
 10 11  1  0  0  0  0
 10 18  1  0  0  0  0
 11 12  2  0  0  0  0
 11 17  1  0  0  0  0
 12 13  1  0  0  0  0
 12 16  1  0  0  0  0
 13 14  2  0  0  0  0
 13 15  1  0  0  0  0
 21 22  2  0  0  0  0
 23 21  1  1  0  0  0
 23 24  1  0  0  0  0
 23 44  1  0  0  0  0
 24 25  1  0  0  0  0
 24 48  1  0  0  0  0
 24 49  1  0  0  0  0
 25 26  1  0  0  0  0
 25 36  1  0  0  0  0
 26 27  1  0  0  0  0
 26 34  1  0  0  0  0
 26 35  1  0  0  0  0
 27 28  2  0  0  0  0
 27 31  1  0  0  0  0
 28 29  1  0  0  0  0
 28 33  1  0  0  0  0
 29 30  1  0  0  0  0
 30 31  2  0  0  0  0
 30 32  1  0  0  0  0
 36 37  2  0  0  0  0
 36 38  1  0  0  0  0
 38 39  2  0  0  0  0
 38 44  1  0  0  0  0
 39 40  1  0  0  0  0
 39 47  1  0  0  0  0
 40 41  2  0  0  0  0
 40 46  1  0  0  0  0
 41 42  1  0  0  0  0
 41 43  1  0  0  0  0
 43 44  2  0  0  0  0
 43 45  1  0  0  0  0
M  END
>  <MODEL>
       1

$$$$
