tmp_first_model_1_76.pdb
 OpenBabel08272517043D

 66 71  0  0  1  0  0  0  0  0999 V2000
  -10.2370   -3.0130  -22.0750 C   0  0  0  0  0  0  0  0  0  0  0  0
   -9.1610   -2.0570  -22.6260 C   0  0  1  0  0  0  0  0  0  0  0  0
   -8.6960   -1.0900  -21.5150 C   0  0  0  0  0  0  0  0  0  0  0  0
   -7.3290   -1.4690  -21.2230 N   0  0  0  0  0  0  0  0  0  0  0  0
   -6.5640   -0.8640  -20.1930 C   0  0  0  0  0  0  0  0  0  0  0  0
   -6.8970   -1.0610  -18.8760 C   0  0  0  0  0  0  0  0  0  0  0  0
   -6.2130   -0.5510  -17.8250 N   0  0  0  0  0  0  0  0  0  0  0  0
   -5.1760    0.2080  -18.0890 C   0  0  0  0  0  0  0  0  0  0  0  0
   -4.7350    0.5210  -19.4070 C   0  0  0  0  0  0  0  0  0  0  0  0
   -3.6110    1.3610  -19.6350 C   0  0  0  0  0  0  0  0  0  0  0  0
   -3.2260    1.6630  -20.9120 C   0  0  0  0  0  0  0  0  0  0  0  0
   -3.9510    1.1520  -22.0120 C   0  0  0  0  0  0  0  0  0  0  0  0
   -5.0420    0.3400  -21.8200 C   0  0  0  0  0  0  0  0  0  0  0  0
   -5.4490   -0.0150  -20.5000 C   0  0  0  0  0  0  0  0  0  0  0  0
   -5.5960   -0.0400  -22.6780 H   0  0  0  0  0  0  0  0  0  0  0  0
   -3.6350    1.4030  -23.0210 H   0  0  0  0  0  0  0  0  0  0  0  0
   -2.3680    2.3070  -21.0900 H   0  0  0  0  0  0  0  0  0  0  0  0
   -3.0800    1.7600  -18.7750 H   0  0  0  0  0  0  0  0  0  0  0  0
   -4.6300    0.6130  -17.2370 H   0  0  0  0  0  0  0  0  0  0  0  0
   -7.7540   -1.6810  -18.6150 H   0  0  0  0  0  0  0  0  0  0  0  0
   -6.8050   -2.4130  -22.0720 C   0  0  0  0  0  0  0  0  0  0  0  0
   -5.6890   -2.8940  -21.9690 O   0  0  0  0  0  0  0  0  0  0  0  0
   -7.8500   -2.7280  -23.1680 C   0  0  1  0  0  0  0  0  0  0  0  0
   -7.9930   -4.2530  -23.3490 C   0  0  0  0  0  0  0  0  0  0  0  0
   -6.8460   -4.8520  -24.0160 N   0  0  0  0  0  0  0  0  0  0  0  0
   -6.5090   -6.2210  -23.6510 C   0  0  0  0  0  0  0  0  0  0  0  0
   -5.5080   -6.3590  -22.4950 C   0  0  0  0  0  0  0  0  0  0  0  0
   -4.0600   -6.2860  -22.8570 N   0  3  0  0  0  0  0  0  0  0  0  0
   -3.6420   -7.2110  -23.9840 C   0  0  0  0  0  0  0  0  0  0  0  0
   -2.1010   -7.2470  -24.0550 C   0  0  0  0  0  0  0  0  0  0  0  0
   -1.5440   -6.1580  -23.3510 O   0  0  0  0  0  0  0  0  0  0  0  0
   -2.1640   -4.9440  -23.7040 C   0  0  0  0  0  0  0  0  0  0  0  0
   -3.5610   -4.8720  -23.0730 C   0  0  0  0  0  0  0  0  0  0  0  0
   -4.2600   -4.3460  -23.7170 H   0  0  0  0  0  0  0  0  0  0  0  0
   -3.5390   -4.3700  -22.1030 H   0  0  0  0  0  0  0  0  0  0  0  0
   -2.2380   -4.8440  -24.8000 H   0  0  0  0  0  0  0  0  0  0  0  0
   -1.4930   -4.1670  -23.3390 H   0  0  0  0  0  0  0  0  0  0  0  0
   -1.6720   -8.1340  -23.5800 H   0  0  0  0  0  0  0  0  0  0  0  0
   -1.7830   -7.2320  -25.1100 H   0  0  0  0  0  0  0  0  0  0  0  0
   -4.0580   -6.8220  -24.9180 H   0  0  0  0  0  0  0  0  0  0  0  0
   -4.0440   -8.2150  -23.8020 H   0  0  0  0  0  0  0  0  0  0  0  0
   -3.5240   -6.6410  -22.0420 H   0  0  0  0  0  0  0  0  0  0  0  0
   -5.7170   -5.5750  -21.7590 H   0  0  0  0  0  0  0  0  0  0  0  0
   -5.6710   -7.3350  -22.0230 H   0  0  0  0  0  0  0  0  0  0  0  0
   -6.1470   -6.7200  -24.5490 H   0  0  0  0  0  0  0  0  0  0  0  0
   -7.4380   -6.7090  -23.3370 H   0  0  0  0  0  0  0  0  0  0  0  0
   -6.3530   -4.3220  -25.1760 C   0  0  0  0  0  0  0  0  0  0  0  0
   -5.6260   -4.9560  -25.9340 O   0  0  0  0  0  0  0  0  0  0  0  0
   -6.6910   -2.8770  -25.4320 C   0  0  0  0  0  0  0  0  0  0  0  0
   -6.2340   -2.2860  -26.6100 C   0  0  0  0  0  0  0  0  0  0  0  0
   -6.4270   -0.9370  -26.8440 C   0  0  0  0  0  0  0  0  0  0  0  0
   -7.0730   -0.1690  -25.8790 C   0  0  0  0  0  0  0  0  0  0  0  0
   -7.2830    1.5380  -26.1540 Cl  0  0  0  0  0  0  0  0  0  0  0  0
   -7.5420   -0.7380  -24.7080 C   0  0  0  0  0  0  0  0  0  0  0  0
   -7.3790   -2.1140  -24.4810 C   0  0  0  0  0  0  0  0  0  0  0  0
   -8.0210   -0.0870  -23.9830 H   0  0  0  0  0  0  0  0  0  0  0  0
   -6.0710   -0.4650  -27.7520 H   0  0  0  0  0  0  0  0  0  0  0  0
   -5.7080   -2.9190  -27.3160 H   0  0  0  0  0  0  0  0  0  0  0  0
   -8.9210   -4.4510  -23.9130 H   0  0  0  0  0  0  0  0  0  0  0  0
   -8.0620   -4.7160  -22.3630 H   0  0  0  0  0  0  0  0  0  0  0  0
   -9.3230   -1.2210  -20.6360 H   0  0  0  0  0  0  0  0  0  0  0  0
   -8.7590   -0.0310  -21.8070 H   0  0  0  0  0  0  0  0  0  0  0  0
   -9.6360   -1.5000  -23.4440 H   0  0  0  0  0  0  0  0  0  0  0  0
  -11.0800   -2.4360  -21.6750 H   0  0  0  0  0  0  0  0  0  0  0  0
   -9.8540   -3.6400  -21.2610 H   0  0  0  0  0  0  0  0  0  0  0  0
  -10.6420   -3.6680  -22.8510 H   0  0  0  0  0  0  0  0  0  0  0  0
  1  2  1  0  0  0  0
  1 64  1  0  0  0  0
  1 65  1  0  0  0  0
  1 66  1  0  0  0  0
  2  3  1  0  0  0  0
  2 23  1  0  0  0  0
  2 63  1  6  0  0  0
  3  4  1  0  0  0  0
  3 61  1  0  0  0  0
  3 62  1  0  0  0  0
  4  5  1  0  0  0  0
  4 21  1  0  0  0  0
  5  6  2  0  0  0  0
  5 14  1  0  0  0  0
  6  7  1  0  0  0  0
  6 20  1  0  0  0  0
  7  8  2  0  0  0  0
  8  9  1  0  0  0  0
  8 19  1  0  0  0  0
  9 10  2  0  0  0  0
  9 14  1  0  0  0  0
 10 11  1  0  0  0  0
 10 18  1  0  0  0  0
 11 12  2  0  0  0  0
 11 17  1  0  0  0  0
 12 13  1  0  0  0  0
 12 16  1  0  0  0  0
 13 14  2  0  0  0  0
 13 15  1  0  0  0  0
 21 22  2  0  0  0  0
 23 21  1  1  0  0  0
 23 24  1  0  0  0  0
 23 55  1  0  0  0  0
 24 25  1  0  0  0  0
 24 59  1  0  0  0  0
 24 60  1  0  0  0  0
 25 26  1  0  0  0  0
 25 47  1  0  0  0  0
 26 27  1  0  0  0  0
 26 45  1  0  0  0  0
 26 46  1  0  0  0  0
 27 28  1  0  0  0  0
 27 43  1  0  0  0  0
 27 44  1  0  0  0  0
 28 29  1  0  0  0  0
 28 33  1  0  0  0  0
 28 42  1  0  0  0  0
 29 30  1  0  0  0  0
 29 40  1  0  0  0  0
 29 41  1  0  0  0  0
 30 31  1  0  0  0  0
 30 38  1  0  0  0  0
 30 39  1  0  0  0  0
 31 32  1  0  0  0  0
 32 33  1  0  0  0  0
 32 36  1  0  0  0  0
 32 37  1  0  0  0  0
 33 34  1  0  0  0  0
 33 35  1  0  0  0  0
 47 48  2  0  0  0  0
 47 49  1  0  0  0  0
 49 50  2  0  0  0  0
 49 55  1  0  0  0  0
 50 51  1  0  0  0  0
 50 58  1  0  0  0  0
 51 52  2  0  0  0  0
 51 57  1  0  0  0  0
 52 53  1  0  0  0  0
 52 54  1  0  0  0  0
 54 55  2  0  0  0  0
 54 56  1  0  0  0  0
M  CHG  1  28   1
M  END
>  <MODEL>
       1

$$$$
