tmp_first_model_13_63.pdb
 OpenBabel08282500103D

 57 61  0  0  1  0  0  0  0  0999 V2000
   -7.3490    3.4110  -21.8400 C   0  0  0  0  0  0  0  0  0  0  0  0
   -8.1740    2.9370  -22.9380 N   0  0  0  0  0  0  0  0  0  0  0  0
   -7.5970    2.2450  -23.9490 C   0  0  0  0  0  0  0  0  0  0  0  0
   -6.3840    2.1300  -24.0590 O   0  0  0  0  0  0  0  0  0  0  0  0
   -8.5590    1.6290  -24.9760 C   0  0  0  0  0  0  0  0  0  0  0  0
   -9.3040    0.4870  -24.4700 N   0  0  0  0  0  0  0  0  0  0  0  0
   -8.6030   -0.7700  -24.2870 C   0  0  0  0  0  0  0  0  0  0  0  0
   -9.0140   -1.4750  -22.9660 C   0  0  2  0  0  0  0  0  0  0  0  0
   -8.4610   -0.6890  -21.7510 C   0  0  0  0  0  0  0  0  0  0  0  0
   -8.8670    0.3700  -21.3160 O   0  0  0  0  0  0  0  0  0  0  0  0
   -7.4040   -1.3850  -21.2090 N   0  0  0  0  0  0  0  0  0  0  0  0
   -6.6040   -0.8090  -20.1790 C   0  0  0  0  0  0  0  0  0  0  0  0
   -6.9070   -1.0410  -18.8640 C   0  0  0  0  0  0  0  0  0  0  0  0
   -6.1980   -0.5470  -17.8200 N   0  0  0  0  0  0  0  0  0  0  0  0
   -5.1650    0.2090  -18.0830 C   0  0  0  0  0  0  0  0  0  0  0  0
   -4.7280    0.5340  -19.3960 C   0  0  0  0  0  0  0  0  0  0  0  0
   -3.6000    1.3650  -19.6430 C   0  0  0  0  0  0  0  0  0  0  0  0
   -3.2110    1.6530  -20.9210 C   0  0  0  0  0  0  0  0  0  0  0  0
   -3.9330    1.1190  -22.0140 C   0  0  0  0  0  0  0  0  0  0  0  0
   -5.0270    0.3140  -21.8010 C   0  0  0  0  0  0  0  0  0  0  0  0
   -5.4660    0.0040  -20.4880 C   0  0  0  0  0  0  0  0  0  0  0  0
   -5.5780   -0.0800  -22.6520 H   0  0  0  0  0  0  0  0  0  0  0  0
   -3.6420    1.3550  -23.0310 H   0  0  0  0  0  0  0  0  0  0  0  0
   -2.3590    2.3030  -21.1020 H   0  0  0  0  0  0  0  0  0  0  0  0
   -3.0700    1.7740  -18.7850 H   0  0  0  0  0  0  0  0  0  0  0  0
   -4.6180    0.6130  -17.2290 H   0  0  0  0  0  0  0  0  0  0  0  0
   -7.7560   -1.6650  -18.5980 H   0  0  0  0  0  0  0  0  0  0  0  0
   -7.0770   -2.6160  -21.9030 C   0  0  0  0  0  0  0  0  0  0  0  0
   -8.3090   -2.8630  -22.8100 C   0  0  2  0  0  0  0  0  0  0  0  0
   -7.9380   -3.5880  -24.1060 C   0  0  0  0  0  0  0  0  0  0  0  0
   -7.4290   -4.8630  -23.7610 O   0  0  0  0  0  0  0  0  0  0  0  0
   -7.1990   -5.3260  -24.5780 H   0  0  0  0  0  0  0  0  0  0  0  0
   -7.1770   -3.0060  -24.6530 H   0  0  0  0  0  0  0  0  0  0  0  0
   -8.8220   -3.6820  -24.7570 H   0  0  0  0  0  0  0  0  0  0  0  0
   -8.9950   -3.5270  -22.2790 H   0  0  0  0  0  0  0  0  0  0  0  0
   -6.9110   -3.4280  -21.1860 H   0  0  0  0  0  0  0  0  0  0  0  0
   -6.1500   -2.5050  -22.4880 H   0  0  0  0  0  0  0  0  0  0  0  0
  -10.5320   -1.4870  -22.8910 C   0  0  0  0  0  0  0  0  0  0  0  0
  -11.1800   -2.3280  -21.9800 C   0  0  0  0  0  0  0  0  0  0  0  0
  -12.5590   -2.3250  -21.8920 C   0  0  0  0  0  0  0  0  0  0  0  0
  -13.3540   -3.3890  -20.7690 Cl  0  0  0  0  0  0  0  0  0  0  0  0
  -13.3360   -1.4750  -22.6780 C   0  0  0  0  0  0  0  0  0  0  0  0
  -12.7000   -0.5860  -23.5210 C   0  0  0  0  0  0  0  0  0  0  0  0
  -11.3090   -0.5630  -23.6060 C   0  0  0  0  0  0  0  0  0  0  0  0
  -10.6730    0.5430  -24.3990 C   0  0  0  0  0  0  0  0  0  0  0  0
  -11.3300    1.4410  -24.9000 O   0  0  0  0  0  0  0  0  0  0  0  0
  -13.2530    0.1330  -24.1140 H   0  0  0  0  0  0  0  0  0  0  0  0
  -14.4170   -1.4990  -22.5960 H   0  0  0  0  0  0  0  0  0  0  0  0
  -10.6200   -2.9710  -21.3090 H   0  0  0  0  0  0  0  0  0  0  0  0
   -7.5350   -0.5350  -24.2590 H   0  0  0  0  0  0  0  0  0  0  0  0
   -8.8020   -1.4440  -25.1370 H   0  0  0  0  0  0  0  0  0  0  0  0
   -7.9250    1.3420  -25.8210 H   0  0  0  0  0  0  0  0  0  0  0  0
   -9.3180    2.3410  -25.3170 H   0  0  0  0  0  0  0  0  0  0  0  0
   -9.1760    2.8980  -22.8140 H   0  0  0  0  0  0  0  0  0  0  0  0
   -6.6370    4.1700  -22.1860 H   0  0  0  0  0  0  0  0  0  0  0  0
   -8.0310    3.8560  -21.1210 H   0  0  0  0  0  0  0  0  0  0  0  0
   -6.7810    2.5850  -21.3820 H   0  0  0  0  0  0  0  0  0  0  0  0
  1  2  1  0  0  0  0
  1 55  1  0  0  0  0
  1 56  1  0  0  0  0
  1 57  1  0  0  0  0
  2  3  1  0  0  0  0
  2 54  1  0  0  0  0
  3  4  2  0  0  0  0
  3  5  1  0  0  0  0
  5  6  1  0  0  0  0
  5 52  1  0  0  0  0
  5 53  1  0  0  0  0
  6  7  1  0  0  0  0
  6 45  1  0  0  0  0
  7  8  1  0  0  0  0
  7 50  1  0  0  0  0
  7 51  1  0  0  0  0
  8  9  1  1  0  0  0
  8 29  1  0  0  0  0
  8 38  1  0  0  0  0
  9 10  2  0  0  0  0
  9 11  1  0  0  0  0
 11 12  1  0  0  0  0
 11 28  1  0  0  0  0
 12 13  2  0  0  0  0
 12 21  1  0  0  0  0
 13 14  1  0  0  0  0
 13 27  1  0  0  0  0
 14 15  2  0  0  0  0
 15 16  1  0  0  0  0
 15 26  1  0  0  0  0
 16 17  2  0  0  0  0
 16 21  1  0  0  0  0
 17 18  1  0  0  0  0
 17 25  1  0  0  0  0
 18 19  2  0  0  0  0
 18 24  1  0  0  0  0
 19 20  1  0  0  0  0
 19 23  1  0  0  0  0
 20 21  2  0  0  0  0
 20 22  1  0  0  0  0
 28 29  1  0  0  0  0
 28 36  1  0  0  0  0
 28 37  1  0  0  0  0
 29 30  1  0  0  0  0
 29 35  1  1  0  0  0
 30 31  1  0  0  0  0
 30 33  1  0  0  0  0
 30 34  1  0  0  0  0
 31 32  1  0  0  0  0
 38 39  2  0  0  0  0
 38 44  1  0  0  0  0
 39 40  1  0  0  0  0
 39 49  1  0  0  0  0
 40 41  1  0  0  0  0
 40 42  2  0  0  0  0
 42 43  1  0  0  0  0
 42 48  1  0  0  0  0
 43 44  2  0  0  0  0
 43 47  1  0  0  0  0
 44 45  1  0  0  0  0
 45 46  2  0  0  0  0
M  END
>  <MODEL>
       1

$$$$
