tmp_first_model_5_90.pdb
 OpenBabel08272519233D

 64 68  0  0  1  0  0  0  0  0999 V2000
   -7.3580    3.1440  -21.6790 C   0  0  0  0  0  0  0  0  0  0  0  0
   -8.3690    2.6780  -22.6150 N   0  0  0  0  0  0  0  0  0  0  0  0
   -7.9910    2.0430  -23.7530 C   0  0  0  0  0  0  0  0  0  0  0  0
   -6.8130    1.8880  -24.0530 O   0  0  0  0  0  0  0  0  0  0  0  0
   -9.1280    1.5280  -24.6550 C   0  0  0  0  0  0  0  0  0  0  0  0
   -9.6910    0.2820  -24.1580 N   0  0  0  0  0  0  0  0  0  0  0  0
   -8.8350   -0.8900  -24.0560 C   0  0  0  0  0  0  0  0  0  0  0  0
   -9.1330   -1.7020  -22.7650 C   0  0  2  0  0  0  0  0  0  0  0  0
   -8.5790   -0.9380  -21.5330 C   0  0  0  0  0  0  0  0  0  0  0  0
   -9.0470    0.0330  -20.9770 O   0  0  0  0  0  0  0  0  0  0  0  0
   -7.3830   -1.5190  -21.1760 N   0  0  0  0  0  0  0  0  0  0  0  0
   -6.5450   -0.9840  -20.1750 C   0  0  0  0  0  0  0  0  0  0  0  0
   -6.8220   -1.1850  -18.8480 C   0  0  0  0  0  0  0  0  0  0  0  0
   -5.9260   -0.9480  -17.8610 N   0  0  0  0  0  0  0  0  0  0  0  0
   -4.7580   -0.4530  -18.2060 C   0  0  0  0  0  0  0  0  0  0  0  0
   -4.4170   -0.0370  -19.5300 C   0  0  0  0  0  0  0  0  0  0  0  0
   -3.2520    0.7360  -19.8290 C   0  0  0  0  0  0  0  0  0  0  0  0
   -3.1580    1.4060  -21.0190 C   0  0  0  0  0  0  0  0  0  0  0  0
   -4.1050    1.1760  -22.0500 C   0  0  0  0  0  0  0  0  0  0  0  0
   -5.1550    0.3160  -21.8330 C   0  0  0  0  0  0  0  0  0  0  0  0
   -5.3700   -0.2610  -20.5480 C   0  0  0  0  0  0  0  0  0  0  0  0
   -5.8490    0.1310  -22.6470 H   0  0  0  0  0  0  0  0  0  0  0  0
   -4.0120    1.7070  -22.9950 H   0  0  0  0  0  0  0  0  0  0  0  0
   -2.2860    2.0240  -21.2180 H   0  0  0  0  0  0  0  0  0  0  0  0
   -2.5000    0.8690  -19.0530 H   0  0  0  0  0  0  0  0  0  0  0  0
   -4.0340   -0.3170  -17.4000 H   0  0  0  0  0  0  0  0  0  0  0  0
   -7.7780   -1.5970  -18.5320 H   0  0  0  0  0  0  0  0  0  0  0  0
   -6.9740   -2.6250  -22.0110 C   0  0  0  0  0  0  0  0  0  0  0  0
   -8.2950   -3.0120  -22.6910 C   0  0  2  0  0  0  0  0  0  0  0  0
   -8.1380   -3.7940  -23.9900 C   0  0  0  0  0  0  0  0  0  0  0  0
   -7.4600   -5.4100  -23.6670 S   0  0  0  0  0  0  0  0  0  0  0  0
   -6.0840   -5.2790  -23.2070 O   0  0  0  0  0  0  0  0  0  0  0  0
   -8.4340   -6.1640  -22.8850 O   0  0  0  0  0  0  0  0  0  0  0  0
   -7.3450   -6.0100  -25.2110 N   0  0  0  0  0  0  0  0  0  0  0  0
   -8.5680   -6.4950  -25.8400 C   0  0  0  0  0  0  0  0  0  0  0  0
   -9.1650   -5.6390  -26.1670 H   0  0  0  0  0  0  0  0  0  0  0  0
   -8.2810   -7.0710  -26.7220 H   0  0  0  0  0  0  0  0  0  0  0  0
   -9.1800   -7.1110  -25.1720 H   0  0  0  0  0  0  0  0  0  0  0  0
   -6.5490   -6.6360  -25.2430 H   0  0  0  0  0  0  0  0  0  0  0  0
   -7.4530   -3.3100  -24.6930 H   0  0  0  0  0  0  0  0  0  0  0  0
   -9.1090   -3.9520  -24.4730 H   0  0  0  0  0  0  0  0  0  0  0  0
   -8.8130   -3.6800  -22.0020 H   0  0  0  0  0  0  0  0  0  0  0  0
   -6.5610   -3.4450  -21.4170 H   0  0  0  0  0  0  0  0  0  0  0  0
   -6.2010   -2.3280  -22.7360 H   0  0  0  0  0  0  0  0  0  0  0  0
  -10.6290   -1.9260  -22.6920 C   0  0  0  0  0  0  0  0  0  0  0  0
  -11.1700   -2.9290  -21.8740 C   0  0  0  0  0  0  0  0  0  0  0  0
  -12.5240   -3.1810  -21.9310 C   0  0  0  0  0  0  0  0  0  0  0  0
  -13.0530   -4.1180  -21.1290 F   0  0  0  0  0  0  0  0  0  0  0  0
  -13.3760   -2.5140  -22.8020 C   0  0  0  0  0  0  0  0  0  0  0  0
  -12.8610   -1.4710  -23.5470 C   0  0  0  0  0  0  0  0  0  0  0  0
  -11.5130   -1.1310  -23.4370 C   0  0  0  0  0  0  0  0  0  0  0  0
  -11.0530    0.1370  -24.0970 C   0  0  0  0  0  0  0  0  0  0  0  0
  -11.8340    0.9650  -24.5390 O   0  0  0  0  0  0  0  0  0  0  0  0
  -13.4930   -0.8780  -24.2010 H   0  0  0  0  0  0  0  0  0  0  0  0
  -14.4210   -2.7970  -22.8500 H   0  0  0  0  0  0  0  0  0  0  0  0
  -10.5720   -3.5130  -21.1840 H   0  0  0  0  0  0  0  0  0  0  0  0
   -7.8000   -0.5380  -24.0550 H   0  0  0  0  0  0  0  0  0  0  0  0
   -8.9900   -1.5260  -24.9420 H   0  0  0  0  0  0  0  0  0  0  0  0
   -9.9630    2.2360  -24.7060 H   0  0  0  0  0  0  0  0  0  0  0  0
   -8.7110    1.4140  -25.6670 H   0  0  0  0  0  0  0  0  0  0  0  0
   -9.3170    2.5580  -22.2860 H   0  0  0  0  0  0  0  0  0  0  0  0
   -6.6980    3.8700  -22.1620 H   0  0  0  0  0  0  0  0  0  0  0  0
   -6.7370    2.3140  -21.3200 H   0  0  0  0  0  0  0  0  0  0  0  0
   -7.8400    3.6260  -20.8270 H   0  0  0  0  0  0  0  0  0  0  0  0
  1  2  1  0  0  0  0
  1 62  1  0  0  0  0
  1 63  1  0  0  0  0
  1 64  1  0  0  0  0
  2  3  1  0  0  0  0
  2 61  1  0  0  0  0
  3  4  2  0  0  0  0
  3  5  1  0  0  0  0
  5  6  1  0  0  0  0
  5 59  1  0  0  0  0
  5 60  1  0  0  0  0
  6  7  1  0  0  0  0
  6 52  1  0  0  0  0
  7  8  1  0  0  0  0
  7 57  1  0  0  0  0
  7 58  1  0  0  0  0
  8  9  1  1  0  0  0
  8 29  1  0  0  0  0
  8 45  1  0  0  0  0
  9 10  2  0  0  0  0
  9 11  1  0  0  0  0
 11 12  1  0  0  0  0
 11 28  1  0  0  0  0
 12 13  2  0  0  0  0
 12 21  1  0  0  0  0
 13 14  1  0  0  0  0
 13 27  1  0  0  0  0
 14 15  2  0  0  0  0
 15 16  1  0  0  0  0
 15 26  1  0  0  0  0
 16 17  2  0  0  0  0
 16 21  1  0  0  0  0
 17 18  1  0  0  0  0
 17 25  1  0  0  0  0
 18 19  2  0  0  0  0
 18 24  1  0  0  0  0
 19 20  1  0  0  0  0
 19 23  1  0  0  0  0
 20 21  2  0  0  0  0
 20 22  1  0  0  0  0
 28 29  1  0  0  0  0
 28 43  1  0  0  0  0
 28 44  1  0  0  0  0
 29 30  1  0  0  0  0
 29 42  1  1  0  0  0
 30 31  1  0  0  0  0
 30 40  1  0  0  0  0
 30 41  1  0  0  0  0
 31 32  2  0  0  0  0
 31 33  2  0  0  0  0
 31 34  1  0  0  0  0
 34 35  1  0  0  0  0
 34 39  1  0  0  0  0
 35 36  1  0  0  0  0
 35 37  1  0  0  0  0
 35 38  1  0  0  0  0
 45 46  2  0  0  0  0
 45 51  1  0  0  0  0
 46 47  1  0  0  0  0
 46 56  1  0  0  0  0
 47 48  1  0  0  0  0
 47 49  2  0  0  0  0
 49 50  1  0  0  0  0
 49 55  1  0  0  0  0
 50 51  2  0  0  0  0
 50 54  1  0  0  0  0
 51 52  1  0  0  0  0
 52 53  2  0  0  0  0
M  END
>  <MODEL>
       1

$$$$
