tmp_first_model_16_92.pdb
 OpenBabel08282501503D

 60 65  0  0  1  0  0  0  0  0999 V2000
   -7.1810   -5.6280  -24.9060 C   0  0  0  0  0  0  0  0  0  0  0  0
   -7.4400   -4.9240  -23.7150 O   0  0  0  0  0  0  0  0  0  0  0  0
   -8.2020   -3.7700  -23.9670 C   0  0  0  0  0  0  0  0  0  0  0  0
   -8.4010   -3.0110  -22.6660 C   0  0  1  0  0  0  0  0  0  0  0  0
   -7.0580   -2.5100  -22.0940 C   0  0  0  0  0  0  0  0  0  0  0  0
   -7.4400   -1.3380  -21.3330 N   0  0  0  0  0  0  0  0  0  0  0  0
   -6.6360   -0.8970  -20.2540 C   0  0  0  0  0  0  0  0  0  0  0  0
   -6.9520   -1.2150  -18.9560 C   0  0  0  0  0  0  0  0  0  0  0  0
   -6.1870   -0.8830  -17.8890 N   0  0  0  0  0  0  0  0  0  0  0  0
   -5.1030   -0.1790  -18.1060 C   0  0  0  0  0  0  0  0  0  0  0  0
   -4.6760    0.2470  -19.3970 C   0  0  0  0  0  0  0  0  0  0  0  0
   -3.5810    1.1330  -19.5930 C   0  0  0  0  0  0  0  0  0  0  0  0
   -3.2240    1.5190  -20.8560 C   0  0  0  0  0  0  0  0  0  0  0  0
   -3.8650    0.9570  -21.9810 C   0  0  0  0  0  0  0  0  0  0  0  0
   -4.9100    0.0780  -21.8140 C   0  0  0  0  0  0  0  0  0  0  0  0
   -5.4100   -0.2090  -20.5150 C   0  0  0  0  0  0  0  0  0  0  0  0
   -5.3720   -0.3720  -22.6860 H   0  0  0  0  0  0  0  0  0  0  0  0
   -3.5530    1.2560  -22.9800 H   0  0  0  0  0  0  0  0  0  0  0  0
   -2.4610    2.2760  -21.0090 H   0  0  0  0  0  0  0  0  0  0  0  0
   -3.0630    1.5230  -18.7220 H   0  0  0  0  0  0  0  0  0  0  0  0
   -4.4990    0.0780  -17.2350 H   0  0  0  0  0  0  0  0  0  0  0  0
   -7.8520   -1.7870  -18.7380 H   0  0  0  0  0  0  0  0  0  0  0  0
   -8.7310   -0.9050  -21.5700 C   0  0  0  0  0  0  0  0  0  0  0  0
   -9.2940   -0.0290  -20.9540 O   0  0  0  0  0  0  0  0  0  0  0  0
   -9.2980   -1.7420  -22.7600 C   0  0  1  0  0  0  0  0  0  0  0  0
   -9.0530   -1.0080  -24.1150 C   0  0  0  0  0  0  0  0  0  0  0  0
   -9.8710    0.1830  -24.2700 N   0  0  0  0  0  0  0  0  0  0  0  0
   -9.3090    1.4050  -24.8410 C   0  0  0  0  0  0  0  0  0  0  0  0
   -8.3470    2.1120  -23.9200 C   0  0  0  0  0  0  0  0  0  0  0  0
   -8.6210    3.0710  -22.9140 C   0  0  0  0  0  0  0  0  0  0  0  0
   -7.5180    3.4520  -22.2700 N   0  0  0  0  0  0  0  0  0  0  0  0
   -6.5460    2.7430  -22.8490 N   0  0  0  0  0  0  0  0  0  0  0  0
   -6.9840    1.9230  -23.8340 C   0  0  0  0  0  0  0  0  0  0  0  0
   -6.3140    1.2720  -24.3830 H   0  0  0  0  0  0  0  0  0  0  0  0
   -5.6130    2.7930  -22.4610 H   0  0  0  0  0  0  0  0  0  0  0  0
   -9.5890    3.4870  -22.6480 H   0  0  0  0  0  0  0  0  0  0  0  0
   -8.8300    1.1920  -25.8080 H   0  0  0  0  0  0  0  0  0  0  0  0
  -10.1690    2.0460  -25.0550 H   0  0  0  0  0  0  0  0  0  0  0  0
  -11.1980    0.1880  -23.9690 C   0  0  0  0  0  0  0  0  0  0  0  0
  -11.9540    1.0840  -24.3300 O   0  0  0  0  0  0  0  0  0  0  0  0
  -11.6710   -0.9700  -23.1640 C   0  0  0  0  0  0  0  0  0  0  0  0
  -13.0400   -0.9860  -22.9240 C   0  0  0  0  0  0  0  0  0  0  0  0
  -13.5840   -1.9190  -22.0790 C   0  0  0  0  0  0  0  0  0  0  0  0
  -12.7290   -2.8590  -21.5120 C   0  0  0  0  0  0  0  0  0  0  0  0
  -13.4370   -3.8860  -20.3140 Cl  0  0  0  0  0  0  0  0  0  0  0  0
  -11.3740   -2.9220  -21.8090 C   0  0  0  0  0  0  0  0  0  0  0  0
  -10.8010   -1.9300  -22.6220 C   0  0  0  0  0  0  0  0  0  0  0  0
  -10.7860   -3.7400  -21.4030 H   0  0  0  0  0  0  0  0  0  0  0  0
  -14.6380   -1.9260  -21.8220 H   0  0  0  0  0  0  0  0  0  0  0  0
  -13.6350   -0.2060  -23.3790 H   0  0  0  0  0  0  0  0  0  0  0  0
   -9.2680   -1.7070  -24.9380 H   0  0  0  0  0  0  0  0  0  0  0  0
   -8.0080   -0.6930  -24.1830 H   0  0  0  0  0  0  0  0  0  0  0  0
   -6.3440   -2.2600  -22.8940 H   0  0  0  0  0  0  0  0  0  0  0  0
   -6.5650   -3.2330  -21.4360 H   0  0  0  0  0  0  0  0  0  0  0  0
   -8.8290   -3.7010  -21.9340 H   0  0  0  0  0  0  0  0  0  0  0  0
   -9.1760   -4.0370  -24.4150 H   0  0  0  0  0  0  0  0  0  0  0  0
   -7.6710   -3.1260  -24.6930 H   0  0  0  0  0  0  0  0  0  0  0  0
   -6.5680   -5.0340  -25.6070 H   0  0  0  0  0  0  0  0  0  0  0  0
   -8.1160   -5.9110  -25.4220 H   0  0  0  0  0  0  0  0  0  0  0  0
   -6.6340   -6.5360  -24.6430 H   0  0  0  0  0  0  0  0  0  0  0  0
  1  2  1  0  0  0  0
  1 58  1  0  0  0  0
  1 59  1  0  0  0  0
  1 60  1  0  0  0  0
  2  3  1  0  0  0  0
  3  4  1  0  0  0  0
  3 56  1  0  0  0  0
  3 57  1  0  0  0  0
  4  5  1  0  0  0  0
  4 25  1  0  0  0  0
  4 55  1  1  0  0  0
  5  6  1  0  0  0  0
  5 53  1  0  0  0  0
  5 54  1  0  0  0  0
  6  7  1  0  0  0  0
  6 23  1  0  0  0  0
  7  8  2  0  0  0  0
  7 16  1  0  0  0  0
  8  9  1  0  0  0  0
  8 22  1  0  0  0  0
  9 10  2  0  0  0  0
 10 11  1  0  0  0  0
 10 21  1  0  0  0  0
 11 12  2  0  0  0  0
 11 16  1  0  0  0  0
 12 13  1  0  0  0  0
 12 20  1  0  0  0  0
 13 14  2  0  0  0  0
 13 19  1  0  0  0  0
 14 15  1  0  0  0  0
 14 18  1  0  0  0  0
 15 16  2  0  0  0  0
 15 17  1  0  0  0  0
 23 24  2  0  0  0  0
 25 23  1  1  0  0  0
 25 26  1  0  0  0  0
 25 47  1  0  0  0  0
 26 27  1  0  0  0  0
 26 51  1  0  0  0  0
 26 52  1  0  0  0  0
 27 28  1  0  0  0  0
 27 39  1  0  0  0  0
 28 29  1  0  0  0  0
 28 37  1  0  0  0  0
 28 38  1  0  0  0  0
 29 30  1  0  0  0  0
 29 33  2  0  0  0  0
 30 31  2  0  0  0  0
 30 36  1  0  0  0  0
 31 32  1  0  0  0  0
 32 33  1  0  0  0  0
 32 35  1  0  0  0  0
 33 34  1  0  0  0  0
 39 40  2  0  0  0  0
 39 41  1  0  0  0  0
 41 42  2  0  0  0  0
 41 47  1  0  0  0  0
 42 43  1  0  0  0  0
 42 50  1  0  0  0  0
 43 44  2  0  0  0  0
 43 49  1  0  0  0  0
 44 45  1  0  0  0  0
 44 46  1  0  0  0  0
 46 47  2  0  0  0  0
 46 48  1  0  0  0  0
M  END
>  <MODEL>
       1

$$$$
