tmp_first_model_20_14.pdb
 OpenBabel08282503553D

 73 78  0  0  1  0  0  0  0  0999 V2000
   -8.0390   -3.7440  -23.9470 C   0  0  0  0  0  0  0  0  0  0  0  0
   -8.3060   -2.8490  -22.7420 C   0  0  1  0  0  0  0  0  0  0  0  0
   -7.0610   -2.6320  -21.8640 C   0  0  0  0  0  0  0  0  0  0  0  0
   -7.3880   -1.4020  -21.1730 N   0  0  0  0  0  0  0  0  0  0  0  0
   -6.6020   -0.8240  -20.1490 C   0  0  0  0  0  0  0  0  0  0  0  0
   -6.9430   -1.0240  -18.8390 C   0  0  0  0  0  0  0  0  0  0  0  0
   -6.2470   -0.5300  -17.7840 N   0  0  0  0  0  0  0  0  0  0  0  0
   -5.1890    0.1970  -18.0550 C   0  0  0  0  0  0  0  0  0  0  0  0
   -4.7400    0.5080  -19.3730 C   0  0  0  0  0  0  0  0  0  0  0  0
   -3.6060    1.3280  -19.6150 C   0  0  0  0  0  0  0  0  0  0  0  0
   -3.2310    1.6330  -20.8950 C   0  0  0  0  0  0  0  0  0  0  0  0
   -3.9650    1.1310  -21.9930 C   0  0  0  0  0  0  0  0  0  0  0  0
   -5.0620    0.3320  -21.7860 C   0  0  0  0  0  0  0  0  0  0  0  0
   -5.4730   -0.0060  -20.4650 C   0  0  0  0  0  0  0  0  0  0  0  0
   -5.6260   -0.0250  -22.6420 H   0  0  0  0  0  0  0  0  0  0  0  0
   -3.6790    1.4080  -23.0050 H   0  0  0  0  0  0  0  0  0  0  0  0
   -2.3790    2.2800  -21.0820 H   0  0  0  0  0  0  0  0  0  0  0  0
   -3.0650    1.7250  -18.7620 H   0  0  0  0  0  0  0  0  0  0  0  0
   -4.6310    0.5920  -17.2070 H   0  0  0  0  0  0  0  0  0  0  0  0
   -7.8250   -1.6160  -18.5990 H   0  0  0  0  0  0  0  0  0  0  0  0
   -8.4070   -0.6760  -21.7530 C   0  0  0  0  0  0  0  0  0  0  0  0
   -8.8400    0.3580  -21.2990 O   0  0  0  0  0  0  0  0  0  0  0  0
   -8.8450   -1.4140  -23.0440 C   0  0  1  0  0  0  0  0  0  0  0  0
   -8.1290   -0.8080  -24.2960 C   0  0  0  0  0  0  0  0  0  0  0  0
   -8.6140    0.5150  -24.6490 N   0  0  0  0  0  0  0  0  0  0  0  0
   -7.7230    1.5370  -25.1930 C   0  0  0  0  0  0  0  0  0  0  0  0
   -7.5670    2.6750  -24.1910 C   0  0  0  0  0  0  0  0  0  0  0  0
   -6.5720    3.7160  -24.6200 N   0  3  0  0  0  0  0  0  0  0  0  0
   -7.0660    4.7650  -25.6120 C   0  0  0  0  0  0  0  0  0  0  0  0
   -7.9770    5.8350  -24.9940 C   0  0  0  0  0  0  0  0  0  0  0  0
   -7.5050    6.3330  -23.7010 N   0  0  0  0  0  0  0  0  0  0  0  0
   -6.8270    7.8320  -23.5220 S   0  0  0  0  0  0  0  0  0  0  0  0
   -6.6930    8.0510  -22.0920 O   0  0  0  0  0  0  0  0  0  0  0  0
   -7.5800    8.7440  -24.3590 O   0  0  0  0  0  0  0  0  0  0  0  0
   -5.1570    7.7590  -24.1600 C   0  0  0  0  0  0  0  0  0  0  0  0
   -5.1780    7.6340  -25.2420 H   0  0  0  0  0  0  0  0  0  0  0  0
   -4.6210    6.9390  -23.6830 H   0  0  0  0  0  0  0  0  0  0  0  0
   -4.6540    8.6950  -23.8990 H   0  0  0  0  0  0  0  0  0  0  0  0
   -7.0720    5.2990  -22.7700 C   0  0  0  0  0  0  0  0  0  0  0  0
   -6.0040    4.4240  -23.4190 C   0  0  0  0  0  0  0  0  0  0  0  0
   -5.1710    5.0340  -23.7650 H   0  0  0  0  0  0  0  0  0  0  0  0
   -5.6190    3.6920  -22.7080 H   0  0  0  0  0  0  0  0  0  0  0  0
   -7.9480    4.6950  -22.5160 H   0  0  0  0  0  0  0  0  0  0  0  0
   -6.7350    5.7750  -21.8530 H   0  0  0  0  0  0  0  0  0  0  0  0
   -8.9750    5.4170  -24.8340 H   0  0  0  0  0  0  0  0  0  0  0  0
   -8.0630    6.6770  -25.6800 H   0  0  0  0  0  0  0  0  0  0  0  0
   -7.5780    4.2600  -26.4320 H   0  0  0  0  0  0  0  0  0  0  0  0
   -6.1740    5.2480  -26.0180 H   0  0  0  0  0  0  0  0  0  0  0  0
   -5.8110    3.2040  -25.0950 H   0  0  0  0  0  0  0  0  0  0  0  0
   -7.2300    2.2530  -23.2350 H   0  0  0  0  0  0  0  0  0  0  0  0
   -8.5310    3.1560  -24.0370 H   0  0  0  0  0  0  0  0  0  0  0  0
   -6.7430    1.1060  -25.4230 H   0  0  0  0  0  0  0  0  0  0  0  0
   -8.1540    1.9100  -26.1240 H   0  0  0  0  0  0  0  0  0  0  0  0
   -9.9530    0.7810  -24.6790 C   0  0  0  0  0  0  0  0  0  0  0  0
  -10.4120    1.7840  -25.2140 O   0  0  0  0  0  0  0  0  0  0  0  0
  -10.8550   -0.2120  -23.9970 C   0  0  0  0  0  0  0  0  0  0  0  0
  -12.2320   -0.0230  -24.1220 C   0  0  0  0  0  0  0  0  0  0  0  0
  -13.1250   -0.8910  -23.5280 C   0  0  0  0  0  0  0  0  0  0  0  0
  -12.6180   -1.9480  -22.7730 C   0  0  0  0  0  0  0  0  0  0  0  0
  -13.7300   -3.0430  -22.0040 Cl  0  0  0  0  0  0  0  0  0  0  0  0
  -11.2570   -2.1440  -22.6210 C   0  0  0  0  0  0  0  0  0  0  0  0
  -10.3440   -1.2830  -23.2470 C   0  0  0  0  0  0  0  0  0  0  0  0
  -10.9350   -2.9700  -21.9950 H   0  0  0  0  0  0  0  0  0  0  0  0
  -14.1970   -0.7540  -23.6300 H   0  0  0  0  0  0  0  0  0  0  0  0
  -12.5830    0.8270  -24.6960 H   0  0  0  0  0  0  0  0  0  0  0  0
   -8.2810   -1.4910  -25.1440 H   0  0  0  0  0  0  0  0  0  0  0  0
   -7.0520   -0.7450  -24.1090 H   0  0  0  0  0  0  0  0  0  0  0  0
   -6.1450   -2.5400  -22.4730 H   0  0  0  0  0  0  0  0  0  0  0  0
   -6.8980   -3.4490  -21.1510 H   0  0  0  0  0  0  0  0  0  0  0  0
   -9.0440   -3.3320  -22.0930 H   0  0  0  0  0  0  0  0  0  0  0  0
   -7.2190   -3.3390  -24.5540 H   0  0  0  0  0  0  0  0  0  0  0  0
   -7.7420   -4.7500  -23.6290 H   0  0  0  0  0  0  0  0  0  0  0  0
   -8.9250   -3.8310  -24.5850 H   0  0  0  0  0  0  0  0  0  0  0  0
  1  2  1  0  0  0  0
  1 71  1  0  0  0  0
  1 72  1  0  0  0  0
  1 73  1  0  0  0  0
  2  3  1  0  0  0  0
  2 23  1  0  0  0  0
  2 70  1  1  0  0  0
  3  4  1  0  0  0  0
  3 68  1  0  0  0  0
  3 69  1  0  0  0  0
  4  5  1  0  0  0  0
  4 21  1  0  0  0  0
  5  6  2  0  0  0  0
  5 14  1  0  0  0  0
  6  7  1  0  0  0  0
  6 20  1  0  0  0  0
  7  8  2  0  0  0  0
  8  9  1  0  0  0  0
  8 19  1  0  0  0  0
  9 10  2  0  0  0  0
  9 14  1  0  0  0  0
 10 11  1  0  0  0  0
 10 18  1  0  0  0  0
 11 12  2  0  0  0  0
 11 17  1  0  0  0  0
 12 13  1  0  0  0  0
 12 16  1  0  0  0  0
 13 14  2  0  0  0  0
 13 15  1  0  0  0  0
 21 22  2  0  0  0  0
 23 21  1  1  0  0  0
 23 24  1  0  0  0  0
 23 62  1  0  0  0  0
 24 25  1  0  0  0  0
 24 66  1  0  0  0  0
 24 67  1  0  0  0  0
 25 26  1  0  0  0  0
 25 54  1  0  0  0  0
 26 27  1  0  0  0  0
 26 52  1  0  0  0  0
 26 53  1  0  0  0  0
 27 28  1  0  0  0  0
 27 50  1  0  0  0  0
 27 51  1  0  0  0  0
 28 29  1  0  0  0  0
 28 40  1  0  0  0  0
 28 49  1  0  0  0  0
 29 30  1  0  0  0  0
 29 47  1  0  0  0  0
 29 48  1  0  0  0  0
 30 31  1  0  0  0  0
 30 45  1  0  0  0  0
 30 46  1  0  0  0  0
 31 32  1  0  0  0  0
 31 39  1  0  0  0  0
 32 33  2  0  0  0  0
 32 34  2  0  0  0  0
 32 35  1  0  0  0  0
 35 36  1  0  0  0  0
 35 37  1  0  0  0  0
 35 38  1  0  0  0  0
 39 40  1  0  0  0  0
 39 43  1  0  0  0  0
 39 44  1  0  0  0  0
 40 41  1  0  0  0  0
 40 42  1  0  0  0  0
 54 55  2  0  0  0  0
 54 56  1  0  0  0  0
 56 57  2  0  0  0  0
 56 62  1  0  0  0  0
 57 58  1  0  0  0  0
 57 65  1  0  0  0  0
 58 59  2  0  0  0  0
 58 64  1  0  0  0  0
 59 60  1  0  0  0  0
 59 61  1  0  0  0  0
 61 62  2  0  0  0  0
 61 63  1  0  0  0  0
M  CHG  1  28   1
M  END
>  <MODEL>
       1

$$$$
