tmp_first_model_9_3.pdb
 OpenBabel08272521403D

 66 70  0  0  1  0  0  0  0  0999 V2000
   -7.4510    3.3390  -21.7600 C   0  0  0  0  0  0  0  0  0  0  0  0
   -8.3680    2.8980  -22.7950 N   0  0  0  0  0  0  0  0  0  0  0  0
   -7.8310    2.1980  -23.8220 C   0  0  0  0  0  0  0  0  0  0  0  0
   -6.6190    2.0800  -23.9630 O   0  0  0  0  0  0  0  0  0  0  0  0
   -8.8060    1.5770  -24.8270 C   0  0  0  0  0  0  0  0  0  0  0  0
   -9.5070    0.4130  -24.3190 N   0  0  0  0  0  0  0  0  0  0  0  0
   -8.7730   -0.8290  -24.1770 C   0  0  0  0  0  0  0  0  0  0  0  0
   -9.1170   -1.5480  -22.8480 C   0  0  2  0  0  0  0  0  0  0  0  0
   -8.5490   -0.7470  -21.6440 C   0  0  0  0  0  0  0  0  0  0  0  0
   -9.0060    0.2630  -21.1520 O   0  0  0  0  0  0  0  0  0  0  0  0
   -7.4060   -1.3770  -21.2010 N   0  0  0  0  0  0  0  0  0  0  0  0
   -6.6050   -0.8080  -20.1740 C   0  0  0  0  0  0  0  0  0  0  0  0
   -6.9070   -1.0420  -18.8570 C   0  0  0  0  0  0  0  0  0  0  0  0
   -6.1980   -0.5510  -17.8140 N   0  0  0  0  0  0  0  0  0  0  0  0
   -5.1650    0.2080  -18.0810 C   0  0  0  0  0  0  0  0  0  0  0  0
   -4.7290    0.5320  -19.3960 C   0  0  0  0  0  0  0  0  0  0  0  0
   -3.6050    1.3680  -19.6420 C   0  0  0  0  0  0  0  0  0  0  0  0
   -3.2220    1.6630  -20.9210 C   0  0  0  0  0  0  0  0  0  0  0  0
   -3.9470    1.1360  -22.0130 C   0  0  0  0  0  0  0  0  0  0  0  0
   -5.0380    0.3250  -21.8010 C   0  0  0  0  0  0  0  0  0  0  0  0
   -5.4660    0.0030  -20.4860 C   0  0  0  0  0  0  0  0  0  0  0  0
   -5.5930   -0.0610  -22.6520 H   0  0  0  0  0  0  0  0  0  0  0  0
   -3.6560    1.3740  -23.0300 H   0  0  0  0  0  0  0  0  0  0  0  0
   -2.3710    2.3140  -21.1020 H   0  0  0  0  0  0  0  0  0  0  0  0
   -3.0780    1.7780  -18.7840 H   0  0  0  0  0  0  0  0  0  0  0  0
   -4.6180    0.6140  -17.2290 H   0  0  0  0  0  0  0  0  0  0  0  0
   -7.7580   -1.6660  -18.5960 H   0  0  0  0  0  0  0  0  0  0  0  0
   -7.0690   -2.5900  -21.9240 C   0  0  0  0  0  0  0  0  0  0  0  0
   -8.3550   -2.9010  -22.7210 C   0  0  2  0  0  0  0  0  0  0  0  0
   -8.0580   -3.6710  -24.0140 C   0  0  0  0  0  0  0  0  0  0  0  0
   -7.4880   -4.9320  -23.7270 O   0  0  0  0  0  0  0  0  0  0  0  0
   -8.4260   -6.0010  -23.6070 C   0  0  0  0  0  0  0  0  0  0  0  0
   -7.9270   -6.9300  -22.5110 C   0  0  0  0  0  0  0  0  0  0  0  0
   -7.8660   -6.3940  -21.5590 H   0  0  0  0  0  0  0  0  0  0  0  0
   -6.9320   -7.3100  -22.7580 H   0  0  0  0  0  0  0  0  0  0  0  0
   -8.6010   -7.7870  -22.4100 H   0  0  0  0  0  0  0  0  0  0  0  0
   -8.5640   -6.7370  -24.9370 C   0  0  0  0  0  0  0  0  0  0  0  0
   -8.9080   -6.0670  -25.7330 H   0  0  0  0  0  0  0  0  0  0  0  0
   -9.2840   -7.5590  -24.8460 H   0  0  0  0  0  0  0  0  0  0  0  0
   -7.5920   -7.1490  -25.2270 H   0  0  0  0  0  0  0  0  0  0  0  0
   -9.4110   -5.5830  -23.3270 H   0  0  0  0  0  0  0  0  0  0  0  0
   -8.9730   -3.7790  -24.6220 H   0  0  0  0  0  0  0  0  0  0  0  0
   -7.3140   -3.1310  -24.6170 H   0  0  0  0  0  0  0  0  0  0  0  0
   -8.9770   -3.5560  -22.1050 H   0  0  0  0  0  0  0  0  0  0  0  0
   -6.7970   -3.3980  -21.2340 H   0  0  0  0  0  0  0  0  0  0  0  0
   -6.2080   -2.4290  -22.5920 H   0  0  0  0  0  0  0  0  0  0  0  0
  -10.6310   -1.6190  -22.7400 C   0  0  0  0  0  0  0  0  0  0  0  0
  -11.2340   -2.5280  -21.8630 C   0  0  0  0  0  0  0  0  0  0  0  0
  -12.6100   -2.5630  -21.7370 C   0  0  0  0  0  0  0  0  0  0  0  0
  -13.3470   -3.6870  -20.6330 Cl  0  0  0  0  0  0  0  0  0  0  0  0
  -13.4290   -1.6960  -22.4600 C   0  0  0  0  0  0  0  0  0  0  0  0
  -12.8410   -0.7580  -23.2830 C   0  0  0  0  0  0  0  0  0  0  0  0
  -11.4530   -0.6950  -23.4030 C   0  0  0  0  0  0  0  0  0  0  0  0
  -10.8700    0.4420  -24.1870 C   0  0  0  0  0  0  0  0  0  0  0  0
  -11.5670    1.3400  -24.6420 O   0  0  0  0  0  0  0  0  0  0  0  0
  -13.4250   -0.0300  -23.8380 H   0  0  0  0  0  0  0  0  0  0  0  0
  -14.5050   -1.7510  -22.3480 H   0  0  0  0  0  0  0  0  0  0  0  0
  -10.6360   -3.1920  -21.2510 H   0  0  0  0  0  0  0  0  0  0  0  0
   -8.9970   -1.5070  -25.0170 H   0  0  0  0  0  0  0  0  0  0  0  0
   -7.7080   -0.5740  -24.1950 H   0  0  0  0  0  0  0  0  0  0  0  0
   -9.5900    2.2770  -25.1240 H   0  0  0  0  0  0  0  0  0  0  0  0
   -8.1910    1.3140  -25.6970 H   0  0  0  0  0  0  0  0  0  0  0  0
   -9.3590    2.8130  -22.6100 H   0  0  0  0  0  0  0  0  0  0  0  0
   -6.7730    4.1070  -22.1500 H   0  0  0  0  0  0  0  0  0  0  0  0
   -6.8420    2.4850  -21.4250 H   0  0  0  0  0  0  0  0  0  0  0  0
   -8.0180    3.7660  -20.9350 H   0  0  0  0  0  0  0  0  0  0  0  0
  1  2  1  0  0  0  0
  1 64  1  0  0  0  0
  1 65  1  0  0  0  0
  1 66  1  0  0  0  0
  2  3  1  0  0  0  0
  2 63  1  0  0  0  0
  3  4  2  0  0  0  0
  3  5  1  0  0  0  0
  5  6  1  0  0  0  0
  5 61  1  0  0  0  0
  5 62  1  0  0  0  0
  6  7  1  0  0  0  0
  6 54  1  0  0  0  0
  7  8  1  0  0  0  0
  7 59  1  0  0  0  0
  7 60  1  0  0  0  0
  8  9  1  1  0  0  0
  8 29  1  0  0  0  0
  8 47  1  0  0  0  0
  9 10  2  0  0  0  0
  9 11  1  0  0  0  0
 11 12  1  0  0  0  0
 11 28  1  0  0  0  0
 12 13  2  0  0  0  0
 12 21  1  0  0  0  0
 13 14  1  0  0  0  0
 13 27  1  0  0  0  0
 14 15  2  0  0  0  0
 15 16  1  0  0  0  0
 15 26  1  0  0  0  0
 16 17  2  0  0  0  0
 16 21  1  0  0  0  0
 17 18  1  0  0  0  0
 17 25  1  0  0  0  0
 18 19  2  0  0  0  0
 18 24  1  0  0  0  0
 19 20  1  0  0  0  0
 19 23  1  0  0  0  0
 20 21  2  0  0  0  0
 20 22  1  0  0  0  0
 28 29  1  0  0  0  0
 28 45  1  0  0  0  0
 28 46  1  0  0  0  0
 29 30  1  0  0  0  0
 29 44  1  1  0  0  0
 30 31  1  0  0  0  0
 30 42  1  0  0  0  0
 30 43  1  0  0  0  0
 31 32  1  0  0  0  0
 32 33  1  0  0  0  0
 32 37  1  0  0  0  0
 32 41  1  0  0  0  0
 33 34  1  0  0  0  0
 33 35  1  0  0  0  0
 33 36  1  0  0  0  0
 37 38  1  0  0  0  0
 37 39  1  0  0  0  0
 37 40  1  0  0  0  0
 47 48  2  0  0  0  0
 47 53  1  0  0  0  0
 48 49  1  0  0  0  0
 48 58  1  0  0  0  0
 49 50  1  0  0  0  0
 49 51  2  0  0  0  0
 51 52  1  0  0  0  0
 51 57  1  0  0  0  0
 52 53  2  0  0  0  0
 52 56  1  0  0  0  0
 53 54  1  0  0  0  0
 54 55  2  0  0  0  0
M  END
>  <MODEL>
       1

$$$$
