tmp_first_model_3_63.pdb
 OpenBabel08272518143D

 57 61  0  0  1  0  0  0  0  0999 V2000
   -8.1140   -5.7110  -27.5780 C   0  0  0  0  0  0  0  0  0  0  0  0
   -8.3880   -4.2950  -27.4130 N   0  0  0  0  0  0  0  0  0  0  0  0
   -7.3700   -3.4710  -27.0700 C   0  0  0  0  0  0  0  0  0  0  0  0
   -6.2340   -3.8780  -26.8640 O   0  0  0  0  0  0  0  0  0  0  0  0
   -7.7560   -1.9920  -26.9200 C   0  0  0  0  0  0  0  0  0  0  0  0
   -8.5900   -1.7620  -25.7410 N   0  0  0  0  0  0  0  0  0  0  0  0
   -7.9940   -1.2570  -24.5020 C   0  0  0  0  0  0  0  0  0  0  0  0
   -8.8030   -1.5780  -23.2090 C   0  0  2  0  0  0  0  0  0  0  0  0
   -8.2450   -0.6290  -22.1230 C   0  0  0  0  0  0  0  0  0  0  0  0
   -8.3830    0.5760  -22.0670 O   0  0  0  0  0  0  0  0  0  0  0  0
   -7.4830   -1.3610  -21.2310 N   0  0  0  0  0  0  0  0  0  0  0  0
   -6.6640   -0.7850  -20.2250 C   0  0  0  0  0  0  0  0  0  0  0  0
   -6.9480   -1.0610  -18.9110 C   0  0  0  0  0  0  0  0  0  0  0  0
   -6.2650   -0.5710  -17.8480 N   0  0  0  0  0  0  0  0  0  0  0  0
   -5.2320    0.1980  -18.1010 C   0  0  0  0  0  0  0  0  0  0  0  0
   -4.7840    0.5140  -19.4160 C   0  0  0  0  0  0  0  0  0  0  0  0
   -3.6400    1.3300  -19.6240 C   0  0  0  0  0  0  0  0  0  0  0  0
   -3.2000    1.5990  -20.8910 C   0  0  0  0  0  0  0  0  0  0  0  0
   -3.8810    1.0580  -22.0060 C   0  0  0  0  0  0  0  0  0  0  0  0
   -4.9960    0.2750  -21.8300 C   0  0  0  0  0  0  0  0  0  0  0  0
   -5.4970   -0.0010  -20.5240 C   0  0  0  0  0  0  0  0  0  0  0  0
   -5.5080   -0.1330  -22.6980 H   0  0  0  0  0  0  0  0  0  0  0  0
   -3.5240    1.2800  -23.0080 H   0  0  0  0  0  0  0  0  0  0  0  0
   -2.3330    2.2350  -21.0470 H   0  0  0  0  0  0  0  0  0  0  0  0
   -3.1380    1.7410  -18.7520 H   0  0  0  0  0  0  0  0  0  0  0  0
   -4.6830    0.6060  -17.2500 H   0  0  0  0  0  0  0  0  0  0  0  0
   -7.7940   -1.7020  -18.6690 H   0  0  0  0  0  0  0  0  0  0  0  0
   -7.4280   -2.7770  -21.5270 C   0  0  0  0  0  0  0  0  0  0  0  0
   -8.5450   -2.9780  -22.5480 C   0  0  2  0  0  0  0  0  0  0  0  0
   -8.2700   -4.1450  -23.4880 C   0  0  0  0  0  0  0  0  0  0  0  0
   -6.9210   -4.0820  -23.9190 O   0  0  0  0  0  0  0  0  0  0  0  0
   -6.8210   -4.5160  -24.7760 H   0  0  0  0  0  0  0  0  0  0  0  0
   -8.4510   -5.0900  -22.9520 H   0  0  0  0  0  0  0  0  0  0  0  0
   -8.9750   -4.0990  -24.3290 H   0  0  0  0  0  0  0  0  0  0  0  0
   -9.4730   -3.2020  -22.0010 H   0  0  0  0  0  0  0  0  0  0  0  0
   -6.4580   -3.0610  -21.9520 H   0  0  0  0  0  0  0  0  0  0  0  0
   -7.5840   -3.3720  -20.6220 H   0  0  0  0  0  0  0  0  0  0  0  0
  -10.2890   -1.3820  -23.4870 C   0  0  0  0  0  0  0  0  0  0  0  0
  -11.2150   -1.3390  -22.4310 C   0  0  0  0  0  0  0  0  0  0  0  0
  -12.5690   -1.2700  -22.7280 C   0  0  0  0  0  0  0  0  0  0  0  0
  -13.7600   -1.5060  -21.4960 Cl  0  0  0  0  0  0  0  0  0  0  0  0
  -13.0370   -1.0760  -24.0290 C   0  0  0  0  0  0  0  0  0  0  0  0
  -12.1290   -1.0920  -25.0630 C   0  0  0  0  0  0  0  0  0  0  0  0
  -10.7850   -1.3650  -24.8010 C   0  0  0  0  0  0  0  0  0  0  0  0
   -9.9340   -1.7850  -25.9490 C   0  0  0  0  0  0  0  0  0  0  0  0
  -10.4040   -2.1720  -27.0230 O   0  0  0  0  0  0  0  0  0  0  0  0
  -12.4470   -0.9620  -26.0930 H   0  0  0  0  0  0  0  0  0  0  0  0
  -14.1060   -0.9900  -24.1960 H   0  0  0  0  0  0  0  0  0  0  0  0
  -10.9070   -1.3670  -21.3840 H   0  0  0  0  0  0  0  0  0  0  0  0
   -6.9900   -1.6790  -24.4170 H   0  0  0  0  0  0  0  0  0  0  0  0
   -7.8820   -0.1660  -24.5470 H   0  0  0  0  0  0  0  0  0  0  0  0
   -6.8390   -1.3990  -26.8670 H   0  0  0  0  0  0  0  0  0  0  0  0
   -8.3450   -1.6810  -27.7940 H   0  0  0  0  0  0  0  0  0  0  0  0
   -9.3210   -3.9150  -27.5320 H   0  0  0  0  0  0  0  0  0  0  0  0
   -7.6810   -6.1330  -26.6630 H   0  0  0  0  0  0  0  0  0  0  0  0
   -9.0380   -6.2410  -27.8190 H   0  0  0  0  0  0  0  0  0  0  0  0
   -7.3790   -5.8730  -28.3730 H   0  0  0  0  0  0  0  0  0  0  0  0
  1  2  1  0  0  0  0
  1 55  1  0  0  0  0
  1 56  1  0  0  0  0
  1 57  1  0  0  0  0
  2  3  1  0  0  0  0
  2 54  1  0  0  0  0
  3  4  2  0  0  0  0
  3  5  1  0  0  0  0
  5  6  1  0  0  0  0
  5 52  1  0  0  0  0
  5 53  1  0  0  0  0
  6  7  1  0  0  0  0
  6 45  1  0  0  0  0
  7  8  1  0  0  0  0
  7 50  1  0  0  0  0
  7 51  1  0  0  0  0
  8  9  1  1  0  0  0
  8 29  1  0  0  0  0
  8 38  1  0  0  0  0
  9 10  2  0  0  0  0
  9 11  1  0  0  0  0
 11 12  1  0  0  0  0
 11 28  1  0  0  0  0
 12 13  2  0  0  0  0
 12 21  1  0  0  0  0
 13 14  1  0  0  0  0
 13 27  1  0  0  0  0
 14 15  2  0  0  0  0
 15 16  1  0  0  0  0
 15 26  1  0  0  0  0
 16 17  2  0  0  0  0
 16 21  1  0  0  0  0
 17 18  1  0  0  0  0
 17 25  1  0  0  0  0
 18 19  2  0  0  0  0
 18 24  1  0  0  0  0
 19 20  1  0  0  0  0
 19 23  1  0  0  0  0
 20 21  2  0  0  0  0
 20 22  1  0  0  0  0
 28 29  1  0  0  0  0
 28 36  1  0  0  0  0
 28 37  1  0  0  0  0
 29 30  1  0  0  0  0
 29 35  1  1  0  0  0
 30 31  1  0  0  0  0
 30 33  1  0  0  0  0
 30 34  1  0  0  0  0
 31 32  1  0  0  0  0
 38 39  2  0  0  0  0
 38 44  1  0  0  0  0
 39 40  1  0  0  0  0
 39 49  1  0  0  0  0
 40 41  1  0  0  0  0
 40 42  2  0  0  0  0
 42 43  1  0  0  0  0
 42 48  1  0  0  0  0
 43 44  2  0  0  0  0
 43 47  1  0  0  0  0
 44 45  1  0  0  0  0
 45 46  2  0  0  0  0
M  END
>  <MODEL>
       1

$$$$
