tmp_first_model_20_84.pdb
 OpenBabel08282503553D

 63 68  0  0  1  0  0  0  0  0999 V2000
  -10.1680   -2.9690  -22.1330 C   0  0  0  0  0  0  0  0  0  0  0  0
   -9.0850   -2.0280  -22.6810 C   0  0  1  0  0  0  0  0  0  0  0  0
   -8.6460   -1.0160  -21.6030 C   0  0  0  0  0  0  0  0  0  0  0  0
   -7.3510   -1.4880  -21.1760 N   0  0  0  0  0  0  0  0  0  0  0  0
   -6.5850   -0.8610  -20.1720 C   0  0  0  0  0  0  0  0  0  0  0  0
   -6.9390   -1.0370  -18.8600 C   0  0  0  0  0  0  0  0  0  0  0  0
   -6.2630   -0.5180  -17.8090 N   0  0  0  0  0  0  0  0  0  0  0  0
   -5.2040    0.2050  -18.0870 C   0  0  0  0  0  0  0  0  0  0  0  0
   -4.7500    0.4930  -19.4070 C   0  0  0  0  0  0  0  0  0  0  0  0
   -3.6160    1.3140  -19.6320 C   0  0  0  0  0  0  0  0  0  0  0  0
   -3.2340    1.6320  -20.9040 C   0  0  0  0  0  0  0  0  0  0  0  0
   -3.9610    1.1340  -22.0110 C   0  0  0  0  0  0  0  0  0  0  0  0
   -5.0500    0.3170  -21.8260 C   0  0  0  0  0  0  0  0  0  0  0  0
   -5.4650   -0.0350  -20.5030 C   0  0  0  0  0  0  0  0  0  0  0  0
   -5.6000   -0.0530  -22.6950 H   0  0  0  0  0  0  0  0  0  0  0  0
   -3.6550    1.4120  -23.0150 H   0  0  0  0  0  0  0  0  0  0  0  0
   -2.3820    2.2850  -21.0750 H   0  0  0  0  0  0  0  0  0  0  0  0
   -3.0810    1.6960  -18.7670 H   0  0  0  0  0  0  0  0  0  0  0  0
   -4.6480    0.6150  -17.2440 H   0  0  0  0  0  0  0  0  0  0  0  0
   -7.8070   -1.6500  -18.6210 H   0  0  0  0  0  0  0  0  0  0  0  0
   -6.7990   -2.4600  -21.9720 C   0  0  0  0  0  0  0  0  0  0  0  0
   -5.7260   -2.9810  -21.7560 O   0  0  0  0  0  0  0  0  0  0  0  0
   -7.7670   -2.7240  -23.1420 C   0  0  1  0  0  0  0  0  0  0  0  0
   -7.9190   -4.2430  -23.3370 C   0  0  0  0  0  0  0  0  0  0  0  0
   -6.6690   -4.8130  -23.8160 N   0  0  0  0  0  0  0  0  0  0  0  0
   -6.3600   -6.1650  -23.3890 C   0  0  0  0  0  0  0  0  0  0  0  0
   -7.3020   -7.1110  -24.1420 C   0  0  0  0  0  0  0  0  0  0  0  0
   -8.3090   -7.5930  -23.6510 O   0  0  0  0  0  0  0  0  0  0  0  0
   -6.9010   -7.2550  -25.4370 N   0  0  0  0  0  0  0  0  0  0  0  0
   -7.7510   -7.7690  -26.4780 C   0  0  0  0  0  0  0  0  0  0  0  0
   -8.6790   -6.7340  -27.0460 C   0  0  0  0  0  0  0  0  0  0  0  0
   -9.6100   -6.2950  -26.1320 F   0  0  0  0  0  0  0  0  0  0  0  0
   -8.2170   -5.7590  -28.0740 C   0  0  0  0  0  0  0  0  0  0  0  0
   -9.1260   -6.9120  -28.4490 C   0  0  0  0  0  0  0  0  0  0  0  0
  -10.1410   -6.6400  -28.6880 H   0  0  0  0  0  0  0  0  0  0  0  0
   -8.7140   -7.7220  -29.0380 H   0  0  0  0  0  0  0  0  0  0  0  0
   -8.6900   -4.7850  -28.0560 H   0  0  0  0  0  0  0  0  0  0  0  0
   -7.1630   -5.7620  -28.3510 H   0  0  0  0  0  0  0  0  0  0  0  0
   -7.0930   -8.1240  -27.2840 H   0  0  0  0  0  0  0  0  0  0  0  0
   -8.3390   -8.6080  -26.1100 H   0  0  0  0  0  0  0  0  0  0  0  0
   -6.1370   -6.6550  -25.7490 H   0  0  0  0  0  0  0  0  0  0  0  0
   -5.3080   -6.3620  -23.6080 H   0  0  0  0  0  0  0  0  0  0  0  0
   -6.5050   -6.2260  -22.3100 H   0  0  0  0  0  0  0  0  0  0  0  0
   -6.0870   -4.3280  -24.9460 C   0  0  0  0  0  0  0  0  0  0  0  0
   -5.3170   -5.0020  -25.6370 O   0  0  0  0  0  0  0  0  0  0  0  0
   -6.4290   -2.9230  -25.3020 C   0  0  0  0  0  0  0  0  0  0  0  0
   -5.9400   -2.4080  -26.5050 C   0  0  0  0  0  0  0  0  0  0  0  0
   -6.1560   -1.0860  -26.8380 C   0  0  0  0  0  0  0  0  0  0  0  0
   -6.8680   -0.2920  -25.9470 C   0  0  0  0  0  0  0  0  0  0  0  0
   -7.0790    0.9990  -26.2600 F   0  0  0  0  0  0  0  0  0  0  0  0
   -7.3850   -0.7860  -24.7620 C   0  0  0  0  0  0  0  0  0  0  0  0
   -7.1990   -2.1350  -24.4340 C   0  0  0  0  0  0  0  0  0  0  0  0
   -7.9450   -0.1040  -24.1290 H   0  0  0  0  0  0  0  0  0  0  0  0
   -5.7810   -0.6550  -27.7600 H   0  0  0  0  0  0  0  0  0  0  0  0
   -5.3840   -3.0700  -27.1630 H   0  0  0  0  0  0  0  0  0  0  0  0
   -8.7370   -4.4460  -24.0490 H   0  0  0  0  0  0  0  0  0  0  0  0
   -8.1610   -4.7280  -22.3910 H   0  0  0  0  0  0  0  0  0  0  0  0
   -8.5880    0.0120  -21.9870 H   0  0  0  0  0  0  0  0  0  0  0  0
   -9.3390   -0.9980  -20.7620 H   0  0  0  0  0  0  0  0  0  0  0  0
   -9.5310   -1.5080  -23.5360 H   0  0  0  0  0  0  0  0  0  0  0  0
  -11.0400   -2.3930  -21.8080 H   0  0  0  0  0  0  0  0  0  0  0  0
  -10.5090   -3.6720  -22.8990 H   0  0  0  0  0  0  0  0  0  0  0  0
   -9.8110   -3.5490  -21.2740 H   0  0  0  0  0  0  0  0  0  0  0  0
  1  2  1  0  0  0  0
  1 61  1  0  0  0  0
  1 62  1  0  0  0  0
  1 63  1  0  0  0  0
  2  3  1  0  0  0  0
  2 23  1  0  0  0  0
  2 60  1  6  0  0  0
  3  4  1  0  0  0  0
  3 58  1  0  0  0  0
  3 59  1  0  0  0  0
  4  5  1  0  0  0  0
  4 21  1  0  0  0  0
  5  6  2  0  0  0  0
  5 14  1  0  0  0  0
  6  7  1  0  0  0  0
  6 20  1  0  0  0  0
  7  8  2  0  0  0  0
  8  9  1  0  0  0  0
  8 19  1  0  0  0  0
  9 10  2  0  0  0  0
  9 14  1  0  0  0  0
 10 11  1  0  0  0  0
 10 18  1  0  0  0  0
 11 12  2  0  0  0  0
 11 17  1  0  0  0  0
 12 13  1  0  0  0  0
 12 16  1  0  0  0  0
 13 14  2  0  0  0  0
 13 15  1  0  0  0  0
 21 22  2  0  0  0  0
 23 21  1  1  0  0  0
 23 24  1  0  0  0  0
 23 52  1  0  0  0  0
 24 25  1  0  0  0  0
 24 56  1  0  0  0  0
 24 57  1  0  0  0  0
 25 26  1  0  0  0  0
 25 44  1  0  0  0  0
 26 27  1  0  0  0  0
 26 42  1  0  0  0  0
 26 43  1  0  0  0  0
 27 28  2  0  0  0  0
 27 29  1  0  0  0  0
 29 30  1  0  0  0  0
 29 41  1  0  0  0  0
 30 31  1  0  0  0  0
 30 39  1  0  0  0  0
 30 40  1  0  0  0  0
 31 32  1  0  0  0  0
 31 33  1  0  0  0  0
 31 34  1  0  0  0  0
 33 34  1  0  0  0  0
 33 37  1  0  0  0  0
 33 38  1  0  0  0  0
 34 35  1  0  0  0  0
 34 36  1  0  0  0  0
 44 45  2  0  0  0  0
 44 46  1  0  0  0  0
 46 47  2  0  0  0  0
 46 52  1  0  0  0  0
 47 48  1  0  0  0  0
 47 55  1  0  0  0  0
 48 49  2  0  0  0  0
 48 54  1  0  0  0  0
 49 50  1  0  0  0  0
 49 51  1  0  0  0  0
 51 52  2  0  0  0  0
 51 53  1  0  0  0  0
M  END
>  <MODEL>
       1

$$$$
