tmp_first_model_2_27.pdb
 OpenBabel08272517383D

 58 62  0  0  1  0  0  0  0  0999 V2000
  -15.0450   -3.3800  -23.3680 C   0  0  0  0  0  0  0  0  0  0  0  0
  -13.7830   -2.6440  -23.1690 N   0  3  0  0  0  0  0  0  0  0  0  0
  -13.3120   -2.6620  -21.7570 C   0  0  0  0  0  0  0  0  0  0  0  0
  -12.4530   -3.8910  -21.4930 C   0  0  0  0  0  0  0  0  0  0  0  0
  -11.1560   -3.8100  -22.1690 N   0  0  0  0  0  0  0  0  0  0  0  0
  -10.0190   -3.2200  -21.4760 C   0  0  0  0  0  0  0  0  0  0  0  0
   -8.8140   -2.8270  -22.3700 C   0  0  2  0  0  0  0  0  0  0  0  0
   -7.6270   -2.6660  -21.4090 C   0  0  0  0  0  0  0  0  0  0  0  0
   -6.9980   -3.5460  -20.8590 O   0  0  0  0  0  0  0  0  0  0  0  0
   -7.3810   -1.3220  -21.2380 N   0  0  0  0  0  0  0  0  0  0  0  0
   -6.5730   -0.8630  -20.1750 C   0  0  0  0  0  0  0  0  0  0  0  0
   -6.8870   -1.1410  -18.8720 C   0  0  0  0  0  0  0  0  0  0  0  0
   -6.2390   -0.5980  -17.8090 N   0  0  0  0  0  0  0  0  0  0  0  0
   -5.2350    0.2110  -18.0570 C   0  0  0  0  0  0  0  0  0  0  0  0
   -4.7680    0.5340  -19.3670 C   0  0  0  0  0  0  0  0  0  0  0  0
   -3.6470    1.3750  -19.6110 C   0  0  0  0  0  0  0  0  0  0  0  0
   -3.2400    1.6320  -20.8920 C   0  0  0  0  0  0  0  0  0  0  0  0
   -3.9250    1.0660  -21.9930 C   0  0  0  0  0  0  0  0  0  0  0  0
   -5.0080    0.2510  -21.7830 C   0  0  0  0  0  0  0  0  0  0  0  0
   -5.4570   -0.0230  -20.4660 C   0  0  0  0  0  0  0  0  0  0  0  0
   -5.5340   -0.2070  -22.6150 H   0  0  0  0  0  0  0  0  0  0  0  0
   -3.5900    1.2750  -23.0060 H   0  0  0  0  0  0  0  0  0  0  0  0
   -2.3780    2.2690  -21.0770 H   0  0  0  0  0  0  0  0  0  0  0  0
   -3.1210    1.8000  -18.7580 H   0  0  0  0  0  0  0  0  0  0  0  0
   -4.7290    0.6460  -17.1930 H   0  0  0  0  0  0  0  0  0  0  0  0
   -7.7050   -1.8200  -18.6360 H   0  0  0  0  0  0  0  0  0  0  0  0
   -8.3670   -0.4680  -21.8830 C   0  0  0  0  0  0  0  0  0  0  0  0
   -8.9520   -1.3830  -22.9650 C   0  0  2  0  0  0  0  0  0  0  0  0
  -10.3370   -0.9660  -23.4550 C   0  0  0  0  0  0  0  0  0  0  0  0
  -11.0590   -0.9010  -22.6340 H   0  0  0  0  0  0  0  0  0  0  0  0
  -10.7230   -1.6790  -24.1930 H   0  0  0  0  0  0  0  0  0  0  0  0
  -10.3020    0.0250  -23.9190 H   0  0  0  0  0  0  0  0  0  0  0  0
   -8.2610   -1.3650  -23.8150 H   0  0  0  0  0  0  0  0  0  0  0  0
   -7.8930    0.4280  -22.2920 H   0  0  0  0  0  0  0  0  0  0  0  0
   -9.1280   -0.1330  -21.1600 H   0  0  0  0  0  0  0  0  0  0  0  0
   -8.5780   -3.8970  -23.4110 C   0  0  0  0  0  0  0  0  0  0  0  0
   -7.3090   -4.1710  -23.9450 C   0  0  0  0  0  0  0  0  0  0  0  0
   -7.1800   -5.1790  -24.8820 C   0  0  0  0  0  0  0  0  0  0  0  0
   -5.9680   -5.4390  -25.3990 F   0  0  0  0  0  0  0  0  0  0  0  0
   -8.2570   -5.9370  -25.3250 C   0  0  0  0  0  0  0  0  0  0  0  0
   -9.5100   -5.6250  -24.8370 C   0  0  0  0  0  0  0  0  0  0  0  0
   -9.6780   -4.6090  -23.9020 C   0  0  0  0  0  0  0  0  0  0  0  0
  -11.0600   -4.2980  -23.4250 C   0  0  0  0  0  0  0  0  0  0  0  0
  -12.0630   -4.4650  -24.1240 O   0  0  0  0  0  0  0  0  0  0  0  0
  -10.3840   -6.1800  -25.1520 H   0  0  0  0  0  0  0  0  0  0  0  0
   -8.1090   -6.7550  -26.0230 H   0  0  0  0  0  0  0  0  0  0  0  0
   -6.4160   -3.6380  -23.6290 H   0  0  0  0  0  0  0  0  0  0  0  0
  -10.3400   -2.3220  -20.9360 H   0  0  0  0  0  0  0  0  0  0  0  0
   -9.6560   -3.9230  -20.7310 H   0  0  0  0  0  0  0  0  0  0  0  0
  -13.0210   -4.7330  -21.8920 H   0  0  0  0  0  0  0  0  0  0  0  0
  -12.3190   -4.0770  -20.4250 H   0  0  0  0  0  0  0  0  0  0  0  0
  -12.7180   -1.7620  -21.5790 H   0  0  0  0  0  0  0  0  0  0  0  0
  -14.1730   -2.6670  -21.0810 H   0  0  0  0  0  0  0  0  0  0  0  0
  -13.9080   -1.6560  -23.4510 H   0  0  0  0  0  0  0  0  0  0  0  0
  -13.0700   -3.1010  -23.7740 H   0  0  0  0  0  0  0  0  0  0  0  0
  -15.4690   -3.1780  -24.3500 H   0  0  0  0  0  0  0  0  0  0  0  0
  -15.7640   -3.0800  -22.6130 H   0  0  0  0  0  0  0  0  0  0  0  0
  -14.9000   -4.4580  -23.2740 H   0  0  0  0  0  0  0  0  0  0  0  0
  1  2  1  0  0  0  0
  1 56  1  0  0  0  0
  1 57  1  0  0  0  0
  1 58  1  0  0  0  0
  2  3  1  0  0  0  0
  2 54  1  0  0  0  0
  2 55  1  0  0  0  0
  3  4  1  0  0  0  0
  3 52  1  0  0  0  0
  3 53  1  0  0  0  0
  4  5  1  0  0  0  0
  4 50  1  0  0  0  0
  4 51  1  0  0  0  0
  5  6  1  0  0  0  0
  5 43  1  0  0  0  0
  6  7  1  0  0  0  0
  6 48  1  0  0  0  0
  6 49  1  0  0  0  0
  7  8  1  1  0  0  0
  7 28  1  0  0  0  0
  7 36  1  0  0  0  0
  8  9  2  0  0  0  0
  8 10  1  0  0  0  0
 10 11  1  0  0  0  0
 10 27  1  0  0  0  0
 11 12  2  0  0  0  0
 11 20  1  0  0  0  0
 12 13  1  0  0  0  0
 12 26  1  0  0  0  0
 13 14  2  0  0  0  0
 14 15  1  0  0  0  0
 14 25  1  0  0  0  0
 15 16  2  0  0  0  0
 15 20  1  0  0  0  0
 16 17  1  0  0  0  0
 16 24  1  0  0  0  0
 17 18  2  0  0  0  0
 17 23  1  0  0  0  0
 18 19  1  0  0  0  0
 18 22  1  0  0  0  0
 19 20  2  0  0  0  0
 19 21  1  0  0  0  0
 27 28  1  0  0  0  0
 27 34  1  0  0  0  0
 27 35  1  0  0  0  0
 28 29  1  0  0  0  0
 28 33  1  6  0  0  0
 29 30  1  0  0  0  0
 29 31  1  0  0  0  0
 29 32  1  0  0  0  0
 36 37  2  0  0  0  0
 36 42  1  0  0  0  0
 37 38  1  0  0  0  0
 37 47  1  0  0  0  0
 38 39  1  0  0  0  0
 38 40  2  0  0  0  0
 40 41  1  0  0  0  0
 40 46  1  0  0  0  0
 41 42  2  0  0  0  0
 41 45  1  0  0  0  0
 42 43  1  0  0  0  0
 43 44  2  0  0  0  0
M  CHG  1   2   1
M  END
>  <MODEL>
       1

$$$$
