tmp_first_model_18_1.pdb
 OpenBabel08282502533D

 68 73  0  0  1  0  0  0  0  0999 V2000
   -9.8590    0.8790  -29.1560 C   0  0  0  0  0  0  0  0  0  0  0  0
   -9.6330   -0.3690  -28.4480 N   0  0  0  0  0  0  0  0  0  0  0  0
   -8.7350   -0.3750  -27.4240 C   0  0  0  0  0  0  0  0  0  0  0  0
   -8.0320    0.5860  -27.1440 O   0  0  0  0  0  0  0  0  0  0  0  0
   -8.6400   -1.6950  -26.6550 C   0  0  0  0  0  0  0  0  0  0  0  0
   -9.3020   -1.6200  -25.3700 N   0  0  0  0  0  0  0  0  0  0  0  0
   -8.6080   -1.0600  -24.2170 C   0  0  0  0  0  0  0  0  0  0  0  0
   -8.9890   -1.7890  -22.9090 C   0  0  2  0  0  0  0  0  0  0  0  0
   -8.4920   -0.8940  -21.7460 C   0  0  0  0  0  0  0  0  0  0  0  0
   -8.9360    0.1790  -21.3870 O   0  0  0  0  0  0  0  0  0  0  0  0
   -7.3730   -1.4800  -21.1970 N   0  0  0  0  0  0  0  0  0  0  0  0
   -6.6140   -0.8380  -20.1850 C   0  0  0  0  0  0  0  0  0  0  0  0
   -6.9400   -1.0460  -18.8720 C   0  0  0  0  0  0  0  0  0  0  0  0
   -6.2530   -0.5420  -17.8150 N   0  0  0  0  0  0  0  0  0  0  0  0
   -5.2100    0.2040  -18.0830 C   0  0  0  0  0  0  0  0  0  0  0  0
   -4.7640    0.5110  -19.4010 C   0  0  0  0  0  0  0  0  0  0  0  0
   -3.6330    1.3380  -19.6280 C   0  0  0  0  0  0  0  0  0  0  0  0
   -3.2280    1.6180  -20.9040 C   0  0  0  0  0  0  0  0  0  0  0  0
   -3.9330    1.0870  -22.0060 C   0  0  0  0  0  0  0  0  0  0  0  0
   -5.0320    0.2860  -21.8110 C   0  0  0  0  0  0  0  0  0  0  0  0
   -5.4770   -0.0250  -20.4970 C   0  0  0  0  0  0  0  0  0  0  0  0
   -5.5730   -0.1080  -22.6660 H   0  0  0  0  0  0  0  0  0  0  0  0
   -3.6010    1.3180  -23.0140 H   0  0  0  0  0  0  0  0  0  0  0  0
   -2.3640    2.2550  -21.0760 H   0  0  0  0  0  0  0  0  0  0  0  0
   -3.1090    1.7430  -18.7660 H   0  0  0  0  0  0  0  0  0  0  0  0
   -4.6550    0.6100  -17.2360 H   0  0  0  0  0  0  0  0  0  0  0  0
   -7.8040   -1.6610  -18.6330 H   0  0  0  0  0  0  0  0  0  0  0  0
   -6.9870   -2.7340  -21.8080 C   0  0  0  0  0  0  0  0  0  0  0  0
   -8.2310   -3.1340  -22.6050 C   0  0  2  0  0  0  0  0  0  0  0  0
   -7.8840   -4.0090  -23.8030 C   0  0  0  0  0  0  0  0  0  0  0  0
   -9.0740   -4.5990  -24.3740 N   0  0  0  0  0  0  0  0  0  0  0  0
   -9.0270   -5.0770  -25.6740 C   0  0  0  0  0  0  0  0  0  0  0  0
  -10.1260   -5.4850  -26.4810 C   0  0  0  0  0  0  0  0  0  0  0  0
   -9.7160   -5.9390  -27.6620 N   0  0  0  0  0  0  0  0  0  0  0  0
   -8.3850   -5.8400  -27.6430 N   0  0  0  0  0  0  0  0  0  0  0  0
   -7.6080   -6.2730  -28.7890 C   0  0  0  0  0  0  0  0  0  0  0  0
   -7.4090   -5.4430  -29.4820 H   0  0  0  0  0  0  0  0  0  0  0  0
   -6.6550   -6.6940  -28.4470 H   0  0  0  0  0  0  0  0  0  0  0  0
   -8.1860   -7.0470  -29.3040 H   0  0  0  0  0  0  0  0  0  0  0  0
   -7.9210   -5.3160  -26.4730 C   0  0  0  0  0  0  0  0  0  0  0  0
   -6.8580   -5.1520  -26.3110 H   0  0  0  0  0  0  0  0  0  0  0  0
  -11.1920   -5.4950  -26.2640 H   0  0  0  0  0  0  0  0  0  0  0  0
   -9.9670   -4.1930  -24.1130 H   0  0  0  0  0  0  0  0  0  0  0  0
   -7.3470   -3.4060  -24.5540 H   0  0  0  0  0  0  0  0  0  0  0  0
   -7.1930   -4.8020  -23.4860 H   0  0  0  0  0  0  0  0  0  0  0  0
   -8.8880   -3.7170  -21.9400 H   0  0  0  0  0  0  0  0  0  0  0  0
   -6.7200   -3.4660  -21.0400 H   0  0  0  0  0  0  0  0  0  0  0  0
   -6.1060   -2.6180  -22.4600 H   0  0  0  0  0  0  0  0  0  0  0  0
  -10.4920   -1.9500  -22.9200 C   0  0  0  0  0  0  0  0  0  0  0  0
  -11.1210   -2.3400  -21.7400 C   0  0  0  0  0  0  0  0  0  0  0  0
  -12.4960   -2.4880  -21.7070 C   0  0  0  0  0  0  0  0  0  0  0  0
  -13.2500   -3.2320  -20.3340 Cl  0  0  0  0  0  0  0  0  0  0  0  0
  -13.3010   -2.0750  -22.7720 C   0  0  0  0  0  0  0  0  0  0  0  0
  -12.6780   -1.6240  -23.9260 C   0  0  0  0  0  0  0  0  0  0  0  0
  -11.2910   -1.7020  -24.0430 C   0  0  0  0  0  0  0  0  0  0  0  0
  -10.6650   -1.6850  -25.3950 C   0  0  0  0  0  0  0  0  0  0  0  0
  -11.2890   -1.7730  -26.4520 O   0  0  0  0  0  0  0  0  0  0  0  0
  -13.2210   -1.2290  -24.7830 H   0  0  0  0  0  0  0  0  0  0  0  0
  -14.3810   -2.1760  -22.7080 H   0  0  0  0  0  0  0  0  0  0  0  0
  -10.4980   -2.4540  -20.8660 H   0  0  0  0  0  0  0  0  0  0  0  0
   -7.5300   -1.1190  -24.3980 H   0  0  0  0  0  0  0  0  0  0  0  0
   -8.8710    0.0030  -24.0810 H   0  0  0  0  0  0  0  0  0  0  0  0
   -7.5870   -1.9030  -26.4640 H   0  0  0  0  0  0  0  0  0  0  0  0
   -9.0790   -2.5250  -27.2190 H   0  0  0  0  0  0  0  0  0  0  0  0
  -10.4040   -1.0170  -28.3520 H   0  0  0  0  0  0  0  0  0  0  0  0
   -8.9360    1.1800  -29.6660 H   0  0  0  0  0  0  0  0  0  0  0  0
  -10.6440    0.7230  -29.9020 H   0  0  0  0  0  0  0  0  0  0  0  0
  -10.1520    1.6850  -28.4680 H   0  0  0  0  0  0  0  0  0  0  0  0
  1  2  1  0  0  0  0
  1 66  1  0  0  0  0
  1 67  1  0  0  0  0
  1 68  1  0  0  0  0
  2  3  1  0  0  0  0
  2 65  1  0  0  0  0
  3  4  2  0  0  0  0
  3  5  1  0  0  0  0
  5  6  1  0  0  0  0
  5 63  1  0  0  0  0
  5 64  1  0  0  0  0
  6  7  1  0  0  0  0
  6 56  1  0  0  0  0
  7  8  1  0  0  0  0
  7 61  1  0  0  0  0
  7 62  1  0  0  0  0
  8  9  1  1  0  0  0
  8 29  1  0  0  0  0
  8 49  1  0  0  0  0
  9 10  2  0  0  0  0
  9 11  1  0  0  0  0
 11 12  1  0  0  0  0
 11 28  1  0  0  0  0
 12 13  2  0  0  0  0
 12 21  1  0  0  0  0
 13 14  1  0  0  0  0
 13 27  1  0  0  0  0
 14 15  2  0  0  0  0
 15 16  1  0  0  0  0
 15 26  1  0  0  0  0
 16 17  2  0  0  0  0
 16 21  1  0  0  0  0
 17 18  1  0  0  0  0
 17 25  1  0  0  0  0
 18 19  2  0  0  0  0
 18 24  1  0  0  0  0
 19 20  1  0  0  0  0
 19 23  1  0  0  0  0
 20 21  2  0  0  0  0
 20 22  1  0  0  0  0
 28 29  1  0  0  0  0
 28 47  1  0  0  0  0
 28 48  1  0  0  0  0
 29 30  1  0  0  0  0
 29 46  1  1  0  0  0
 30 31  1  0  0  0  0
 30 44  1  0  0  0  0
 30 45  1  0  0  0  0
 31 32  1  0  0  0  0
 31 43  1  0  0  0  0
 32 33  1  0  0  0  0
 32 40  2  0  0  0  0
 33 34  2  0  0  0  0
 33 42  1  0  0  0  0
 34 35  1  0  0  0  0
 35 36  1  0  0  0  0
 35 40  1  0  0  0  0
 36 37  1  0  0  0  0
 36 38  1  0  0  0  0
 36 39  1  0  0  0  0
 40 41  1  0  0  0  0
 49 50  2  0  0  0  0
 49 55  1  0  0  0  0
 50 51  1  0  0  0  0
 50 60  1  0  0  0  0
 51 52  1  0  0  0  0
 51 53  2  0  0  0  0
 53 54  1  0  0  0  0
 53 59  1  0  0  0  0
 54 55  2  0  0  0  0
 54 58  1  0  0  0  0
 55 56  1  0  0  0  0
 56 57  2  0  0  0  0
M  END
>  <MODEL>
       1

$$$$
