tmp_first_model_8_31.pdb
 OpenBabel08272521063D

 66 71  0  0  1  0  0  0  0  0999 V2000
   -7.8310   -6.0240  -26.6750 C   0  0  0  0  0  0  0  0  0  0  0  0
   -8.0160   -4.6110  -26.9580 N   0  0  0  0  0  0  0  0  0  0  0  0
   -7.1130   -3.6950  -26.5430 C   0  0  0  0  0  0  0  0  0  0  0  0
   -6.0970   -3.9720  -25.9130 O   0  0  0  0  0  0  0  0  0  0  0  0
   -7.4970   -2.2390  -26.8120 C   0  0  0  0  0  0  0  0  0  0  0  0
   -8.4060   -1.7410  -25.7820 N   0  0  0  0  0  0  0  0  0  0  0  0
   -7.8700   -1.2930  -24.5000 C   0  0  0  0  0  0  0  0  0  0  0  0
   -8.7690   -1.5770  -23.2540 C   0  0  2  0  0  0  0  0  0  0  0  0
   -8.2500   -0.6270  -22.1540 C   0  0  0  0  0  0  0  0  0  0  0  0
   -8.4390    0.5670  -22.0690 O   0  0  0  0  0  0  0  0  0  0  0  0
   -7.4500   -1.3510  -21.2870 N   0  0  0  0  0  0  0  0  0  0  0  0
   -6.6830   -0.7720  -20.2460 C   0  0  0  0  0  0  0  0  0  0  0  0
   -6.9610   -1.1020  -18.9410 C   0  0  0  0  0  0  0  0  0  0  0  0
   -6.2790   -0.6410  -17.8670 N   0  0  0  0  0  0  0  0  0  0  0  0
   -5.2640    0.1580  -18.0940 C   0  0  0  0  0  0  0  0  0  0  0  0
   -4.8400    0.5540  -19.3930 C   0  0  0  0  0  0  0  0  0  0  0  0
   -3.7140    1.4000  -19.5780 C   0  0  0  0  0  0  0  0  0  0  0  0
   -3.3200    1.7620  -20.8360 C   0  0  0  0  0  0  0  0  0  0  0  0
   -4.0310    1.2940  -21.9620 C   0  0  0  0  0  0  0  0  0  0  0  0
   -5.1180    0.4700  -21.8090 C   0  0  0  0  0  0  0  0  0  0  0  0
   -5.5630    0.0860  -20.5110 C   0  0  0  0  0  0  0  0  0  0  0  0
   -5.6500    0.1160  -22.6850 H   0  0  0  0  0  0  0  0  0  0  0  0
   -3.7020    1.5710  -22.9590 H   0  0  0  0  0  0  0  0  0  0  0  0
   -2.4670    2.4180  -20.9830 H   0  0  0  0  0  0  0  0  0  0  0  0
   -3.1830    1.7550  -18.7010 H   0  0  0  0  0  0  0  0  0  0  0  0
   -4.7190    0.5250  -17.2260 H   0  0  0  0  0  0  0  0  0  0  0  0
   -7.7990   -1.7650  -18.7220 H   0  0  0  0  0  0  0  0  0  0  0  0
   -7.3580   -2.7620  -21.6100 C   0  0  0  0  0  0  0  0  0  0  0  0
   -8.5480   -2.9570  -22.5570 C   0  0  2  0  0  0  0  0  0  0  0  0
   -8.4450   -4.1390  -23.5190 C   0  0  0  0  0  0  0  0  0  0  0  0
   -8.3480   -5.4380  -22.8760 N   0  0  0  0  0  0  0  0  0  0  0  0
   -7.1700   -5.9540  -22.4200 C   0  0  0  0  0  0  0  0  0  0  0  0
   -5.9350   -5.6580  -23.0330 C   0  0  0  0  0  0  0  0  0  0  0  0
   -4.8230   -6.2350  -22.4500 C   0  0  0  0  0  0  0  0  0  0  0  0
   -4.8830   -7.0070  -21.3600 N   0  0  0  0  0  0  0  0  0  0  0  0
   -6.1030   -7.2370  -20.8980 C   0  0  0  0  0  0  0  0  0  0  0  0
   -7.2560   -6.7850  -21.3720 N   0  0  0  0  0  0  0  0  0  0  0  0
   -6.1650   -7.8630  -20.0120 H   0  0  0  0  0  0  0  0  0  0  0  0
   -3.8240   -6.0720  -22.8550 H   0  0  0  0  0  0  0  0  0  0  0  0
   -5.8800   -5.0110  -23.9070 H   0  0  0  0  0  0  0  0  0  0  0  0
   -9.1390   -5.6800  -22.2920 H   0  0  0  0  0  0  0  0  0  0  0  0
   -9.3450   -4.1270  -24.1460 H   0  0  0  0  0  0  0  0  0  0  0  0
   -7.5750   -4.0070  -24.1630 H   0  0  0  0  0  0  0  0  0  0  0  0
   -9.4420   -3.1140  -21.9310 H   0  0  0  0  0  0  0  0  0  0  0  0
   -7.4320   -3.3610  -20.6970 H   0  0  0  0  0  0  0  0  0  0  0  0
   -6.3890   -2.9990  -22.0840 H   0  0  0  0  0  0  0  0  0  0  0  0
  -10.2270   -1.3770  -23.6150 C   0  0  0  0  0  0  0  0  0  0  0  0
  -11.2000   -1.1960  -22.6190 C   0  0  0  0  0  0  0  0  0  0  0  0
  -12.5290   -1.0350  -22.9810 C   0  0  0  0  0  0  0  0  0  0  0  0
  -13.7640   -0.8470  -21.7750 Cl  0  0  0  0  0  0  0  0  0  0  0  0
  -12.9350   -1.0410  -24.3130 C   0  0  0  0  0  0  0  0  0  0  0  0
  -11.9880   -1.2650  -25.2890 C   0  0  0  0  0  0  0  0  0  0  0  0
  -10.6580   -1.4780  -24.9420 C   0  0  0  0  0  0  0  0  0  0  0  0
   -9.7340   -1.9080  -26.0250 C   0  0  0  0  0  0  0  0  0  0  0  0
  -10.1430   -2.4250  -27.0660 O   0  0  0  0  0  0  0  0  0  0  0  0
  -12.2560   -1.2930  -26.3380 H   0  0  0  0  0  0  0  0  0  0  0  0
  -13.9830   -0.8990  -24.5460 H   0  0  0  0  0  0  0  0  0  0  0  0
  -10.9180   -1.1710  -21.5720 H   0  0  0  0  0  0  0  0  0  0  0  0
   -7.7070   -0.2080  -24.5340 H   0  0  0  0  0  0  0  0  0  0  0  0
   -6.9000   -1.7910  -24.3740 H   0  0  0  0  0  0  0  0  0  0  0  0
   -6.5800   -1.6470  -26.8650 H   0  0  0  0  0  0  0  0  0  0  0  0
   -8.0270   -2.1770  -27.7610 H   0  0  0  0  0  0  0  0  0  0  0  0
   -8.9050   -4.2690  -27.2960 H   0  0  0  0  0  0  0  0  0  0  0  0
   -7.5920   -6.1780  -25.6150 H   0  0  0  0  0  0  0  0  0  0  0  0
   -8.7550   -6.5520  -26.9130 H   0  0  0  0  0  0  0  0  0  0  0  0
   -7.0190   -6.4440  -27.2760 H   0  0  0  0  0  0  0  0  0  0  0  0
  1  2  1  0  0  0  0
  1 64  1  0  0  0  0
  1 65  1  0  0  0  0
  1 66  1  0  0  0  0
  2  3  1  0  0  0  0
  2 63  1  0  0  0  0
  3  4  2  0  0  0  0
  3  5  1  0  0  0  0
  5  6  1  0  0  0  0
  5 61  1  0  0  0  0
  5 62  1  0  0  0  0
  6  7  1  0  0  0  0
  6 54  1  0  0  0  0
  7  8  1  0  0  0  0
  7 59  1  0  0  0  0
  7 60  1  0  0  0  0
  8  9  1  1  0  0  0
  8 29  1  0  0  0  0
  8 47  1  0  0  0  0
  9 10  2  0  0  0  0
  9 11  1  0  0  0  0
 11 12  1  0  0  0  0
 11 28  1  0  0  0  0
 12 13  2  0  0  0  0
 12 21  1  0  0  0  0
 13 14  1  0  0  0  0
 13 27  1  0  0  0  0
 14 15  2  0  0  0  0
 15 16  1  0  0  0  0
 15 26  1  0  0  0  0
 16 17  2  0  0  0  0
 16 21  1  0  0  0  0
 17 18  1  0  0  0  0
 17 25  1  0  0  0  0
 18 19  2  0  0  0  0
 18 24  1  0  0  0  0
 19 20  1  0  0  0  0
 19 23  1  0  0  0  0
 20 21  2  0  0  0  0
 20 22  1  0  0  0  0
 28 29  1  0  0  0  0
 28 45  1  0  0  0  0
 28 46  1  0  0  0  0
 29 30  1  0  0  0  0
 29 44  1  1  0  0  0
 30 31  1  0  0  0  0
 30 42  1  0  0  0  0
 30 43  1  0  0  0  0
 31 32  1  0  0  0  0
 31 41  1  0  0  0  0
 32 33  2  0  0  0  0
 32 37  1  0  0  0  0
 33 34  1  0  0  0  0
 33 40  1  0  0  0  0
 34 35  2  0  0  0  0
 34 39  1  0  0  0  0
 35 36  1  0  0  0  0
 36 37  2  0  0  0  0
 36 38  1  0  0  0  0
 47 48  2  0  0  0  0
 47 53  1  0  0  0  0
 48 49  1  0  0  0  0
 48 58  1  0  0  0  0
 49 50  1  0  0  0  0
 49 51  2  0  0  0  0
 51 52  1  0  0  0  0
 51 57  1  0  0  0  0
 52 53  2  0  0  0  0
 52 56  1  0  0  0  0
 53 54  1  0  0  0  0
 54 55  2  0  0  0  0
M  END
>  <MODEL>
       1

$$$$
