tmp_first_model_19_7.pdb
 OpenBabel08282503233D

 44 47  0  0  0  0  0  0  0  0999 V2000
  -10.0920   -5.9990  -27.5800 C   0  0  0  0  0  0  0  0  0  0  0  0
   -8.9750   -5.2880  -26.8090 C   0  0  0  0  0  0  0  0  0  0  0  0
   -9.2130   -5.5150  -25.0540 S   0  0  0  0  0  0  0  0  0  0  0  0
   -9.0100   -6.9200  -24.7520 O   0  0  0  0  0  0  0  0  0  0  0  0
  -10.4610   -4.8440  -24.7090 O   0  0  0  0  0  0  0  0  0  0  0  0
   -7.9490   -4.6910  -24.2770 N   0  0  0  0  0  0  0  0  0  0  0  0
   -7.9910   -3.2070  -24.3170 C   0  0  0  0  0  0  0  0  0  0  0  0
   -8.0640   -3.1460  -22.7700 C   0  0  0  0  0  0  0  0  0  0  0  0
   -8.0630   -4.6840  -22.7760 C   0  0  0  0  0  0  0  0  0  0  0  0
   -7.1830   -5.1270  -22.3080 H   0  0  0  0  0  0  0  0  0  0  0  0
   -8.9720   -5.1340  -22.3700 H   0  0  0  0  0  0  0  0  0  0  0  0
   -6.8680   -2.5250  -22.0680 C   0  0  0  0  0  0  0  0  0  0  0  0
   -5.7080   -2.8150  -22.2230 O   0  0  0  0  0  0  0  0  0  0  0  0
   -7.3670   -1.5340  -21.2170 N   0  0  0  0  0  0  0  0  0  0  0  0
   -6.6000   -0.8670  -20.2050 C   0  0  0  0  0  0  0  0  0  0  0  0
   -6.9140   -1.0660  -18.8820 C   0  0  0  0  0  0  0  0  0  0  0  0
   -6.2150   -0.5570  -17.8360 N   0  0  0  0  0  0  0  0  0  0  0  0
   -5.1820    0.2030  -18.1020 C   0  0  0  0  0  0  0  0  0  0  0  0
   -4.7490    0.5170  -19.4180 C   0  0  0  0  0  0  0  0  0  0  0  0
   -3.6160    1.3480  -19.6420 C   0  0  0  0  0  0  0  0  0  0  0  0
   -3.2250    1.6570  -20.9150 C   0  0  0  0  0  0  0  0  0  0  0  0
   -3.9550    1.1460  -22.0100 C   0  0  0  0  0  0  0  0  0  0  0  0
   -5.0510    0.3390  -21.8180 C   0  0  0  0  0  0  0  0  0  0  0  0
   -5.4780   -0.0170  -20.5090 C   0  0  0  0  0  0  0  0  0  0  0  0
   -5.5980   -0.0450  -22.6730 H   0  0  0  0  0  0  0  0  0  0  0  0
   -3.6470    1.3990  -23.0190 H   0  0  0  0  0  0  0  0  0  0  0  0
   -2.3680    2.3040  -21.0880 H   0  0  0  0  0  0  0  0  0  0  0  0
   -3.0860    1.7470  -18.7800 H   0  0  0  0  0  0  0  0  0  0  0  0
   -4.6320    0.6080  -17.2510 H   0  0  0  0  0  0  0  0  0  0  0  0
   -7.7620   -1.6860  -18.6060 H   0  0  0  0  0  0  0  0  0  0  0  0
   -8.7610   -1.3840  -21.4060 C   0  0  0  0  0  0  0  0  0  0  0  0
   -9.4380   -0.4620  -21.0100 O   0  0  0  0  0  0  0  0  0  0  0  0
   -9.1720   -2.4480  -22.1720 N   0  0  0  0  0  0  0  0  0  0  0  0
  -10.5620   -2.6990  -22.4970 C   0  0  0  0  0  0  0  0  0  0  0  0
  -10.7630   -2.4920  -23.5550 H   0  0  0  0  0  0  0  0  0  0  0  0
  -10.8350   -3.7410  -22.2840 H   0  0  0  0  0  0  0  0  0  0  0  0
  -11.1490   -2.0260  -21.8710 H   0  0  0  0  0  0  0  0  0  0  0  0
   -7.0640   -2.8160  -24.7350 H   0  0  0  0  0  0  0  0  0  0  0  0
   -8.8530   -2.7790  -24.8410 H   0  0  0  0  0  0  0  0  0  0  0  0
   -8.9750   -4.2050  -26.9830 H   0  0  0  0  0  0  0  0  0  0  0  0
   -7.9850   -5.6970  -27.0330 H   0  0  0  0  0  0  0  0  0  0  0  0
  -11.0770   -5.6120  -27.3060 H   0  0  0  0  0  0  0  0  0  0  0  0
   -9.9520   -5.8550  -28.6550 H   0  0  0  0  0  0  0  0  0  0  0  0
  -10.0900   -7.0730  -27.3660 H   0  0  0  0  0  0  0  0  0  0  0  0
  1  2  1  0  0  0  0
  1 42  1  0  0  0  0
  1 43  1  0  0  0  0
  1 44  1  0  0  0  0
  2  3  1  0  0  0  0
  2 40  1  0  0  0  0
  2 41  1  0  0  0  0
  3  4  2  0  0  0  0
  3  5  2  0  0  0  0
  3  6  1  0  0  0  0
  6  7  1  0  0  0  0
  6  9  1  0  0  0  0
  7  8  1  0  0  0  0
  7 38  1  0  0  0  0
  7 39  1  0  0  0  0
  8  9  1  0  0  0  0
  8 12  1  0  0  0  0
  8 33  1  0  0  0  0
  9 10  1  0  0  0  0
  9 11  1  0  0  0  0
 12 13  2  0  0  0  0
 12 14  1  0  0  0  0
 14 15  1  0  0  0  0
 14 31  1  0  0  0  0
 15 16  2  0  0  0  0
 15 24  1  0  0  0  0
 16 17  1  0  0  0  0
 16 30  1  0  0  0  0
 17 18  2  0  0  0  0
 18 19  1  0  0  0  0
 18 29  1  0  0  0  0
 19 20  2  0  0  0  0
 19 24  1  0  0  0  0
 20 21  1  0  0  0  0
 20 28  1  0  0  0  0
 21 22  2  0  0  0  0
 21 27  1  0  0  0  0
 22 23  1  0  0  0  0
 22 26  1  0  0  0  0
 23 24  2  0  0  0  0
 23 25  1  0  0  0  0
 31 32  2  0  0  0  0
 31 33  1  0  0  0  0
 33 34  1  0  0  0  0
 34 35  1  0  0  0  0
 34 36  1  0  0  0  0
 34 37  1  0  0  0  0
M  END
>  <MODEL>
       1

$$$$
