tmp_first_model_2_66.pdb
 OpenBabel08272517383D

 44 47  0  0  1  0  0  0  0  0999 V2000
   -9.8080    1.4200  -24.4210 C   0  0  0  0  0  0  0  0  0  0  0  0
  -10.9440    0.5070  -23.9880 C   0  0  0  0  0  0  0  0  0  0  0  0
  -10.7780   -0.1620  -22.6110 C   0  0  1  0  0  0  0  0  0  0  0  0
  -11.9950   -0.9940  -22.3190 C   0  0  0  0  0  0  0  0  0  0  0  0
  -13.3270   -0.4860  -22.1930 C   0  0  0  0  0  0  0  0  0  0  0  0
  -14.2170   -1.4600  -21.8730 C   0  0  0  0  0  0  0  0  0  0  0  0
  -13.4760   -3.0120  -21.7960 S   0  0  0  0  0  0  0  0  0  0  0  0
  -11.9220   -2.3420  -22.1450 C   0  0  0  0  0  0  0  0  0  0  0  0
  -10.6720   -3.1680  -22.2740 C   0  0  0  0  0  0  0  0  0  0  0  0
   -9.6390   -2.3180  -23.0140 C   0  0  0  0  0  0  0  0  0  0  0  0
   -9.5690   -0.9720  -22.4570 N   0  0  0  0  0  0  0  0  0  0  0  0
   -8.5220   -0.4290  -21.7550 C   0  0  0  0  0  0  0  0  0  0  0  0
   -8.4590    0.7600  -21.4920 O   0  0  0  0  0  0  0  0  0  0  0  0
   -7.4580   -1.4140  -21.2600 C   0  0  0  0  0  0  0  0  0  0  0  0
   -6.5930   -0.8330  -20.1820 C   0  0  0  0  0  0  0  0  0  0  0  0
   -6.9030   -1.0490  -18.8640 C   0  0  0  0  0  0  0  0  0  0  0  0
   -6.2280   -0.5420  -17.7980 N   0  0  0  0  0  0  0  0  0  0  0  0
   -5.1910    0.2150  -18.0670 C   0  0  0  0  0  0  0  0  0  0  0  0
   -4.7530    0.5260  -19.3820 C   0  0  0  0  0  0  0  0  0  0  0  0
   -3.6240    1.3540  -19.6170 C   0  0  0  0  0  0  0  0  0  0  0  0
   -3.2310    1.6450  -20.8950 C   0  0  0  0  0  0  0  0  0  0  0  0
   -3.9500    1.1260  -21.9950 C   0  0  0  0  0  0  0  0  0  0  0  0
   -5.0520    0.3280  -21.7940 C   0  0  0  0  0  0  0  0  0  0  0  0
   -5.4760   -0.0000  -20.4770 C   0  0  0  0  0  0  0  0  0  0  0  0
   -5.6140   -0.0410  -22.6460 H   0  0  0  0  0  0  0  0  0  0  0  0
   -3.6300    1.3660  -23.0060 H   0  0  0  0  0  0  0  0  0  0  0  0
   -2.3700    2.2850  -21.0740 H   0  0  0  0  0  0  0  0  0  0  0  0
   -3.0930    1.7570  -18.7580 H   0  0  0  0  0  0  0  0  0  0  0  0
   -4.6320    0.6280  -17.2250 H   0  0  0  0  0  0  0  0  0  0  0  0
   -7.7540   -1.6780  -18.6020 H   0  0  0  0  0  0  0  0  0  0  0  0
   -7.9940   -2.2870  -20.8660 H   0  0  0  0  0  0  0  0  0  0  0  0
   -6.8740   -1.7610  -22.1220 H   0  0  0  0  0  0  0  0  0  0  0  0
   -8.6480   -2.7800  -23.0600 H   0  0  0  0  0  0  0  0  0  0  0  0
   -9.9900   -2.2170  -24.0460 H   0  0  0  0  0  0  0  0  0  0  0  0
  -10.3010   -3.4700  -21.2860 H   0  0  0  0  0  0  0  0  0  0  0  0
  -10.8710   -4.1010  -22.8150 H   0  0  0  0  0  0  0  0  0  0  0  0
  -15.2640   -1.3280  -21.6480 H   0  0  0  0  0  0  0  0  0  0  0  0
  -13.6100    0.5540  -22.3490 H   0  0  0  0  0  0  0  0  0  0  0  0
  -10.6810    0.6480  -21.8760 H   0  0  0  0  0  0  0  0  0  0  0  0
  -11.8740    1.0820  -23.9060 H   0  0  0  0  0  0  0  0  0  0  0  0
  -11.1470   -0.2540  -24.7500 H   0  0  0  0  0  0  0  0  0  0  0  0
   -8.8690    0.8750  -24.5480 H   0  0  0  0  0  0  0  0  0  0  0  0
  -10.0430    1.9050  -25.3760 H   0  0  0  0  0  0  0  0  0  0  0  0
   -9.6450    2.2060  -23.6790 H   0  0  0  0  0  0  0  0  0  0  0  0
  1  2  1  0  0  0  0
  1 42  1  0  0  0  0
  1 43  1  0  0  0  0
  1 44  1  0  0  0  0
  2  3  1  0  0  0  0
  2 40  1  0  0  0  0
  2 41  1  0  0  0  0
  3  4  1  0  0  0  0
  3 11  1  0  0  0  0
  3 39  1  1  0  0  0
  4  5  1  0  0  0  0
  4  8  2  0  0  0  0
  5  6  2  0  0  0  0
  5 38  1  0  0  0  0
  6  7  1  0  0  0  0
  6 37  1  0  0  0  0
  7  8  1  0  0  0  0
  8  9  1  0  0  0  0
  9 10  1  0  0  0  0
  9 35  1  0  0  0  0
  9 36  1  0  0  0  0
 10 11  1  0  0  0  0
 10 33  1  0  0  0  0
 10 34  1  0  0  0  0
 11 12  1  0  0  0  0
 12 13  2  0  0  0  0
 12 14  1  0  0  0  0
 14 15  1  0  0  0  0
 14 31  1  0  0  0  0
 14 32  1  0  0  0  0
 15 16  2  0  0  0  0
 15 24  1  0  0  0  0
 16 17  1  0  0  0  0
 16 30  1  0  0  0  0
 17 18  2  0  0  0  0
 18 19  1  0  0  0  0
 18 29  1  0  0  0  0
 19 20  2  0  0  0  0
 19 24  1  0  0  0  0
 20 21  1  0  0  0  0
 20 28  1  0  0  0  0
 21 22  2  0  0  0  0
 21 27  1  0  0  0  0
 22 23  1  0  0  0  0
 22 26  1  0  0  0  0
 23 24  2  0  0  0  0
 23 25  1  0  0  0  0
M  END
>  <MODEL>
       1

$$$$
