tmp_first_model_15_28.pdb
 OpenBabel08282501153D

 64 68  0  0  1  0  0  0  0  0999 V2000
   -7.5950    3.1840  -21.8770 C   0  0  0  0  0  0  0  0  0  0  0  0
   -8.7010    2.7100  -22.6930 N   0  0  0  0  0  0  0  0  0  0  0  0
   -8.3530    1.9250  -23.7560 C   0  0  0  0  0  0  0  0  0  0  0  0
   -7.1820    1.7000  -24.0270 O   0  0  0  0  0  0  0  0  0  0  0  0
   -9.4680    1.3280  -24.6060 C   0  0  0  0  0  0  0  0  0  0  0  0
   -9.9640    0.1120  -23.9920 N   0  0  0  0  0  0  0  0  0  0  0  0
   -9.1090   -1.0690  -23.9630 C   0  0  0  0  0  0  0  0  0  0  0  0
   -9.2600   -1.8310  -22.6200 C   0  0  2  0  0  0  0  0  0  0  0  0
   -8.6760   -0.9570  -21.4830 C   0  0  0  0  0  0  0  0  0  0  0  0
   -9.2060   -0.0020  -20.9560 O   0  0  0  0  0  0  0  0  0  0  0  0
   -7.4090   -1.4170  -21.1880 N   0  0  0  0  0  0  0  0  0  0  0  0
   -6.6200   -0.8270  -20.1700 C   0  0  0  0  0  0  0  0  0  0  0  0
   -6.9310   -1.0490  -18.8520 C   0  0  0  0  0  0  0  0  0  0  0  0
   -6.2310   -0.5560  -17.8020 N   0  0  0  0  0  0  0  0  0  0  0  0
   -5.1910    0.1980  -18.0750 C   0  0  0  0  0  0  0  0  0  0  0  0
   -4.7590    0.5170  -19.3960 C   0  0  0  0  0  0  0  0  0  0  0  0
   -3.6380    1.3570  -19.6350 C   0  0  0  0  0  0  0  0  0  0  0  0
   -3.2590    1.6560  -20.9150 C   0  0  0  0  0  0  0  0  0  0  0  0
   -3.9840    1.1440  -22.0120 C   0  0  0  0  0  0  0  0  0  0  0  0
   -5.0800    0.3380  -21.8080 C   0  0  0  0  0  0  0  0  0  0  0  0
   -5.4910   -0.0080  -20.4900 C   0  0  0  0  0  0  0  0  0  0  0  0
   -5.6530   -0.0050  -22.6650 H   0  0  0  0  0  0  0  0  0  0  0  0
   -3.6750    1.3910  -23.0230 H   0  0  0  0  0  0  0  0  0  0  0  0
   -2.4020    2.2970  -21.0930 H   0  0  0  0  0  0  0  0  0  0  0  0
   -3.1030    1.7600  -18.7780 H   0  0  0  0  0  0  0  0  0  0  0  0
   -4.6240    0.6010  -17.2330 H   0  0  0  0  0  0  0  0  0  0  0  0
   -7.7890   -1.6670  -18.6080 H   0  0  0  0  0  0  0  0  0  0  0  0
   -6.9990   -2.5700  -21.9600 C   0  0  0  0  0  0  0  0  0  0  0  0
   -8.3310   -3.0790  -22.5460 C   0  0  2  0  0  0  0  0  0  0  0  0
   -8.1710   -3.8710  -23.8440 C   0  0  0  0  0  0  0  0  0  0  0  0
   -7.2620   -5.3870  -23.5510 S   0  0  0  0  0  0  0  0  0  0  0  0
   -5.8710   -5.0400  -23.2550 O   0  0  0  0  0  0  0  0  0  0  0  0
   -7.9910   -6.2130  -22.6010 O   0  0  0  0  0  0  0  0  0  0  0  0
   -7.4100   -6.1510  -25.0350 N   0  0  0  0  0  0  0  0  0  0  0  0
   -6.6870   -5.6290  -26.1920 C   0  0  0  0  0  0  0  0  0  0  0  0
   -7.1690   -4.7160  -26.5580 H   0  0  0  0  0  0  0  0  0  0  0  0
   -6.7610   -6.3680  -26.9930 H   0  0  0  0  0  0  0  0  0  0  0  0
   -5.6310   -5.4320  -25.9850 H   0  0  0  0  0  0  0  0  0  0  0  0
   -7.2870   -7.1470  -24.8830 H   0  0  0  0  0  0  0  0  0  0  0  0
   -7.6190   -3.2960  -24.5950 H   0  0  0  0  0  0  0  0  0  0  0  0
   -9.1380   -4.1540  -24.2690 H   0  0  0  0  0  0  0  0  0  0  0  0
   -8.7470   -3.7690  -21.8100 H   0  0  0  0  0  0  0  0  0  0  0  0
   -6.5270   -3.3230  -21.3240 H   0  0  0  0  0  0  0  0  0  0  0  0
   -6.2850   -2.2980  -22.7530 H   0  0  0  0  0  0  0  0  0  0  0  0
  -10.7490   -2.0840  -22.4190 C   0  0  0  0  0  0  0  0  0  0  0  0
  -11.2260   -3.1480  -21.6490 C   0  0  0  0  0  0  0  0  0  0  0  0
  -12.5750   -3.2470  -21.3570 C   0  0  0  0  0  0  0  0  0  0  0  0
  -13.1150   -4.4610  -20.2460 Cl  0  0  0  0  0  0  0  0  0  0  0  0
  -13.5150   -2.3600  -21.8680 C   0  0  0  0  0  0  0  0  0  0  0  0
  -13.0630   -1.3220  -22.6520 C   0  0  0  0  0  0  0  0  0  0  0  0
  -11.7010   -1.1720  -22.9040 C   0  0  0  0  0  0  0  0  0  0  0  0
  -11.2890    0.0430  -23.6700 C   0  0  0  0  0  0  0  0  0  0  0  0
  -12.0880    0.9220  -23.9710 O   0  0  0  0  0  0  0  0  0  0  0  0
  -13.7420   -0.5830  -23.0630 H   0  0  0  0  0  0  0  0  0  0  0  0
  -14.5660   -2.4740  -21.6250 H   0  0  0  0  0  0  0  0  0  0  0  0
  -10.5640   -3.8940  -21.2270 H   0  0  0  0  0  0  0  0  0  0  0  0
   -8.0710   -0.7520  -24.1150 H   0  0  0  0  0  0  0  0  0  0  0  0
   -9.3810   -1.7470  -24.7850 H   0  0  0  0  0  0  0  0  0  0  0  0
  -10.3180    2.0070  -24.7360 H   0  0  0  0  0  0  0  0  0  0  0  0
   -9.0450    1.0950  -25.5900 H   0  0  0  0  0  0  0  0  0  0  0  0
   -9.5800    2.5600  -22.2100 H   0  0  0  0  0  0  0  0  0  0  0  0
   -6.8490    3.6090  -22.5530 H   0  0  0  0  0  0  0  0  0  0  0  0
   -7.9460    3.9670  -21.1970 H   0  0  0  0  0  0  0  0  0  0  0  0
   -7.1170    2.3550  -21.3230 H   0  0  0  0  0  0  0  0  0  0  0  0
  1  2  1  0  0  0  0
  1 62  1  0  0  0  0
  1 63  1  0  0  0  0
  1 64  1  0  0  0  0
  2  3  1  0  0  0  0
  2 61  1  0  0  0  0
  3  4  2  0  0  0  0
  3  5  1  0  0  0  0
  5  6  1  0  0  0  0
  5 59  1  0  0  0  0
  5 60  1  0  0  0  0
  6  7  1  0  0  0  0
  6 52  1  0  0  0  0
  7  8  1  0  0  0  0
  7 57  1  0  0  0  0
  7 58  1  0  0  0  0
  8  9  1  1  0  0  0
  8 29  1  0  0  0  0
  8 45  1  0  0  0  0
  9 10  2  0  0  0  0
  9 11  1  0  0  0  0
 11 12  1  0  0  0  0
 11 28  1  0  0  0  0
 12 13  2  0  0  0  0
 12 21  1  0  0  0  0
 13 14  1  0  0  0  0
 13 27  1  0  0  0  0
 14 15  2  0  0  0  0
 15 16  1  0  0  0  0
 15 26  1  0  0  0  0
 16 17  2  0  0  0  0
 16 21  1  0  0  0  0
 17 18  1  0  0  0  0
 17 25  1  0  0  0  0
 18 19  2  0  0  0  0
 18 24  1  0  0  0  0
 19 20  1  0  0  0  0
 19 23  1  0  0  0  0
 20 21  2  0  0  0  0
 20 22  1  0  0  0  0
 28 29  1  0  0  0  0
 28 43  1  0  0  0  0
 28 44  1  0  0  0  0
 29 30  1  0  0  0  0
 29 42  1  1  0  0  0
 30 31  1  0  0  0  0
 30 40  1  0  0  0  0
 30 41  1  0  0  0  0
 31 32  2  0  0  0  0
 31 33  2  0  0  0  0
 31 34  1  0  0  0  0
 34 35  1  0  0  0  0
 34 39  1  0  0  0  0
 35 36  1  0  0  0  0
 35 37  1  0  0  0  0
 35 38  1  0  0  0  0
 45 46  2  0  0  0  0
 45 51  1  0  0  0  0
 46 47  1  0  0  0  0
 46 56  1  0  0  0  0
 47 48  1  0  0  0  0
 47 49  2  0  0  0  0
 49 50  1  0  0  0  0
 49 55  1  0  0  0  0
 50 51  2  0  0  0  0
 50 54  1  0  0  0  0
 51 52  1  0  0  0  0
 52 53  2  0  0  0  0
M  END
>  <MODEL>
       1

$$$$
