tmp_first_model_6_61.pdb
 OpenBabel08272519583D

 44 47  0  0  0  0  0  0  0  0999 V2000
   -8.6220   -3.4090  -21.2090 O   0  0  0  0  0  0  0  0  0  0  0  0
   -7.5270   -2.9060  -21.4330 C   0  0  0  0  0  0  0  0  0  0  0  0
   -7.3940   -1.3770  -21.3040 C   0  0  0  0  0  0  0  0  0  0  0  0
   -6.5250   -0.8230  -20.2010 C   0  0  0  0  0  0  0  0  0  0  0  0
   -6.8510   -1.0520  -18.8890 C   0  0  0  0  0  0  0  0  0  0  0  0
   -6.1850   -0.5520  -17.8220 N   0  0  0  0  0  0  0  0  0  0  0  0
   -5.1490    0.2220  -18.0570 C   0  0  0  0  0  0  0  0  0  0  0  0
   -4.7040    0.5660  -19.3620 C   0  0  0  0  0  0  0  0  0  0  0  0
   -3.5750    1.3960  -19.5900 C   0  0  0  0  0  0  0  0  0  0  0  0
   -3.1850    1.7080  -20.8690 C   0  0  0  0  0  0  0  0  0  0  0  0
   -3.9180    1.2200  -21.9700 C   0  0  0  0  0  0  0  0  0  0  0  0
   -5.0020    0.4030  -21.7680 C   0  0  0  0  0  0  0  0  0  0  0  0
   -5.4240    0.0450  -20.4650 C   0  0  0  0  0  0  0  0  0  0  0  0
   -5.5050   -0.0300  -22.6290 H   0  0  0  0  0  0  0  0  0  0  0  0
   -3.5960    1.4360  -22.9860 H   0  0  0  0  0  0  0  0  0  0  0  0
   -2.3130    2.3250  -21.0480 H   0  0  0  0  0  0  0  0  0  0  0  0
   -3.0280    1.7760  -18.7310 H   0  0  0  0  0  0  0  0  0  0  0  0
   -4.6120    0.6150  -17.1890 H   0  0  0  0  0  0  0  0  0  0  0  0
   -7.7200   -1.6630  -18.6500 H   0  0  0  0  0  0  0  0  0  0  0  0
   -7.0910   -0.9390  -22.2560 H   0  0  0  0  0  0  0  0  0  0  0  0
   -8.4270   -1.0520  -21.1530 H   0  0  0  0  0  0  0  0  0  0  0  0
   -6.4680   -3.6640  -21.8630 N   0  0  0  0  0  0  0  0  0  0  0  0
   -5.2110   -3.0860  -22.3450 C   0  0  0  0  0  0  0  0  0  0  0  0
   -4.2160   -4.1750  -22.7430 C   0  0  0  0  0  0  0  0  0  0  0  0
   -4.7360   -5.1590  -23.7960 C   0  0  0  0  0  0  0  0  0  0  0  0
   -4.4200   -4.7620  -25.2680 C   0  0  0  0  0  0  0  0  0  0  0  0
   -3.4920   -5.9900  -25.4350 C   0  0  0  0  0  0  0  0  0  0  0  0
   -3.8020   -6.3970  -23.9740 C   0  0  0  0  0  0  0  0  0  0  0  0
   -4.3050   -7.3620  -23.8520 H   0  0  0  0  0  0  0  0  0  0  0  0
   -2.9350   -6.3940  -23.3060 H   0  0  0  0  0  0  0  0  0  0  0  0
   -2.4420   -5.7590  -25.6410 H   0  0  0  0  0  0  0  0  0  0  0  0
   -3.8090   -6.7090  -26.1980 H   0  0  0  0  0  0  0  0  0  0  0  0
   -3.9360   -3.7850  -25.3670 H   0  0  0  0  0  0  0  0  0  0  0  0
   -5.3030   -4.7640  -25.9160 H   0  0  0  0  0  0  0  0  0  0  0  0
   -6.2240   -5.4650  -23.5360 C   0  0  0  0  0  0  0  0  0  0  0  0
   -6.6870   -5.0890  -22.1240 C   0  0  0  0  0  0  0  0  0  0  0  0
   -6.1480   -5.6780  -21.3680 H   0  0  0  0  0  0  0  0  0  0  0  0
   -7.7560   -5.2680  -21.9800 H   0  0  0  0  0  0  0  0  0  0  0  0
   -6.4210   -6.5300  -23.7110 H   0  0  0  0  0  0  0  0  0  0  0  0
   -6.8340   -4.8950  -24.2530 H   0  0  0  0  0  0  0  0  0  0  0  0
   -3.9330   -4.7500  -21.8530 H   0  0  0  0  0  0  0  0  0  0  0  0
   -3.3100   -3.6880  -23.1180 H   0  0  0  0  0  0  0  0  0  0  0  0
   -5.4160   -2.4330  -23.2030 H   0  0  0  0  0  0  0  0  0  0  0  0
   -4.7820   -2.4660  -21.5500 H   0  0  0  0  0  0  0  0  0  0  0  0
  1  2  2  0  0  0  0
  2  3  1  0  0  0  0
  2 22  1  0  0  0  0
  3  4  1  0  0  0  0
  3 20  1  0  0  0  0
  3 21  1  0  0  0  0
  4  5  2  0  0  0  0
  4 13  1  0  0  0  0
  5  6  1  0  0  0  0
  5 19  1  0  0  0  0
  6  7  2  0  0  0  0
  7  8  1  0  0  0  0
  7 18  1  0  0  0  0
  8  9  2  0  0  0  0
  8 13  1  0  0  0  0
  9 10  1  0  0  0  0
  9 17  1  0  0  0  0
 10 11  2  0  0  0  0
 10 16  1  0  0  0  0
 11 12  1  0  0  0  0
 11 15  1  0  0  0  0
 12 13  2  0  0  0  0
 12 14  1  0  0  0  0
 22 23  1  0  0  0  0
 22 36  1  0  0  0  0
 23 24  1  0  0  0  0
 23 43  1  0  0  0  0
 23 44  1  0  0  0  0
 24 25  1  0  0  0  0
 24 41  1  0  0  0  0
 24 42  1  0  0  0  0
 25 26  1  0  0  0  0
 25 28  1  0  0  0  0
 25 35  1  0  0  0  0
 26 27  1  0  0  0  0
 26 33  1  0  0  0  0
 26 34  1  0  0  0  0
 27 28  1  0  0  0  0
 27 31  1  0  0  0  0
 27 32  1  0  0  0  0
 28 29  1  0  0  0  0
 28 30  1  0  0  0  0
 35 36  1  0  0  0  0
 35 39  1  0  0  0  0
 35 40  1  0  0  0  0
 36 37  1  0  0  0  0
 36 38  1  0  0  0  0
M  END
>  <MODEL>
       1

$$$$
