tmp_first_model_1_51.pdb
 OpenBabel08272517043D

 50 52  0  0  0  0  0  0  0  0999 V2000
   -9.7230   -0.9750  -26.4800 C   0  0  0  0  0  0  0  0  0  0  0  0
   -9.1430   -0.3160  -25.4770 C   0  0  0  0  0  0  0  0  0  0  0  0
   -9.6450   -0.4640  -24.0490 C   0  0  0  0  0  0  0  0  0  0  0  0
   -8.7650   -1.2430  -23.1660 N   0  0  0  0  0  0  0  0  0  0  0  0
   -8.1030   -0.5530  -22.1490 C   0  0  0  0  0  0  0  0  0  0  0  0
   -8.1600    0.6630  -22.0450 O   0  0  0  0  0  0  0  0  0  0  0  0
   -7.3760   -1.3460  -21.2770 N   0  0  0  0  0  0  0  0  0  0  0  0
   -6.6100   -0.7910  -20.2160 C   0  0  0  0  0  0  0  0  0  0  0  0
   -6.9060   -1.0540  -18.9020 C   0  0  0  0  0  0  0  0  0  0  0  0
   -6.2070   -0.5680  -17.8430 N   0  0  0  0  0  0  0  0  0  0  0  0
   -5.1810    0.2070  -18.0920 C   0  0  0  0  0  0  0  0  0  0  0  0
   -4.7360    0.5340  -19.4010 C   0  0  0  0  0  0  0  0  0  0  0  0
   -3.5940    1.3480  -19.6340 C   0  0  0  0  0  0  0  0  0  0  0  0
   -3.1720    1.6030  -20.9090 C   0  0  0  0  0  0  0  0  0  0  0  0
   -3.8700    1.0480  -22.0090 C   0  0  0  0  0  0  0  0  0  0  0  0
   -4.9780    0.2690  -21.8090 C   0  0  0  0  0  0  0  0  0  0  0  0
   -5.4600    0.0120  -20.4970 C   0  0  0  0  0  0  0  0  0  0  0  0
   -5.5190   -0.1630  -22.6460 H   0  0  0  0  0  0  0  0  0  0  0  0
   -3.5340    1.2600  -23.0200 H   0  0  0  0  0  0  0  0  0  0  0  0
   -2.3100    2.2390  -21.0820 H   0  0  0  0  0  0  0  0  0  0  0  0
   -3.0780    1.7640  -18.7740 H   0  0  0  0  0  0  0  0  0  0  0  0
   -4.6420    0.6070  -17.2340 H   0  0  0  0  0  0  0  0  0  0  0  0
   -7.7510   -1.6820  -18.6200 H   0  0  0  0  0  0  0  0  0  0  0  0
   -7.6610   -2.3130  -21.1910 H   0  0  0  0  0  0  0  0  0  0  0  0
   -8.4380   -2.5700  -23.5920 C   0  0  0  0  0  0  0  0  0  0  0  0
   -9.4470   -3.5210  -23.7560 C   0  0  0  0  0  0  0  0  0  0  0  0
   -9.1350   -4.8210  -24.1420 C   0  0  0  0  0  0  0  0  0  0  0  0
   -7.8220   -5.1880  -24.4160 C   0  0  0  0  0  0  0  0  0  0  0  0
   -6.8370   -4.2170  -24.3080 C   0  0  0  0  0  0  0  0  0  0  0  0
   -5.1870   -4.6570  -24.6430 Cl  0  0  0  0  0  0  0  0  0  0  0  0
   -7.1240   -2.9160  -23.9150 C   0  0  0  0  0  0  0  0  0  0  0  0
   -6.3230   -2.1840  -23.8560 H   0  0  0  0  0  0  0  0  0  0  0  0
   -7.5630   -6.2000  -24.7140 H   0  0  0  0  0  0  0  0  0  0  0  0
   -9.9270   -5.5600  -24.2300 H   0  0  0  0  0  0  0  0  0  0  0  0
  -10.4780   -3.2380  -23.5610 H   0  0  0  0  0  0  0  0  0  0  0  0
   -9.7920    0.4910  -23.5440 H   0  0  0  0  0  0  0  0  0  0  0  0
  -10.6100   -0.9800  -24.1010 H   0  0  0  0  0  0  0  0  0  0  0  0
   -7.8950    0.4750  -25.7930 C   0  0  0  0  0  0  0  0  0  0  0  0
   -7.2190    0.2090  -26.7810 O   0  0  0  0  0  0  0  0  0  0  0  0
   -7.5650    1.4760  -24.9370 N   0  0  0  0  0  0  0  0  0  0  0  0
   -6.2420    2.0760  -25.0160 C   0  0  0  0  0  0  0  0  0  0  0  0
   -6.0620    3.1720  -23.9680 C   0  0  0  0  0  0  0  0  0  0  0  0
   -6.7350    4.0230  -24.1330 H   0  0  0  0  0  0  0  0  0  0  0  0
   -6.2210    2.7850  -22.9500 H   0  0  0  0  0  0  0  0  0  0  0  0
   -5.0410    3.5620  -24.0130 H   0  0  0  0  0  0  0  0  0  0  0  0
   -6.0760    2.4530  -26.0340 H   0  0  0  0  0  0  0  0  0  0  0  0
   -5.4880    1.2850  -24.8680 H   0  0  0  0  0  0  0  0  0  0  0  0
   -8.1950    1.7890  -24.2110 H   0  0  0  0  0  0  0  0  0  0  0  0
   -9.3250   -0.9500  -27.4890 H   0  0  0  0  0  0  0  0  0  0  0  0
  -10.6170   -1.5730  -26.3160 H   0  0  0  0  0  0  0  0  0  0  0  0
  1  2  2  0  0  0  0
  1 49  1  0  0  0  0
  1 50  1  0  0  0  0
  2  3  1  0  0  0  0
  2 38  1  0  0  0  0
  3  4  1  0  0  0  0
  3 36  1  0  0  0  0
  3 37  1  0  0  0  0
  4  5  1  0  0  0  0
  4 25  1  0  0  0  0
  5  6  2  0  0  0  0
  5  7  1  0  0  0  0
  7  8  1  0  0  0  0
  7 24  1  0  0  0  0
  8  9  2  0  0  0  0
  8 17  1  0  0  0  0
  9 10  1  0  0  0  0
  9 23  1  0  0  0  0
 10 11  2  0  0  0  0
 11 12  1  0  0  0  0
 11 22  1  0  0  0  0
 12 13  2  0  0  0  0
 12 17  1  0  0  0  0
 13 14  1  0  0  0  0
 13 21  1  0  0  0  0
 14 15  2  0  0  0  0
 14 20  1  0  0  0  0
 15 16  1  0  0  0  0
 15 19  1  0  0  0  0
 16 17  2  0  0  0  0
 16 18  1  0  0  0  0
 25 26  2  0  0  0  0
 25 31  1  0  0  0  0
 26 27  1  0  0  0  0
 26 35  1  0  0  0  0
 27 28  2  0  0  0  0
 27 34  1  0  0  0  0
 28 29  1  0  0  0  0
 28 33  1  0  0  0  0
 29 30  1  0  0  0  0
 29 31  2  0  0  0  0
 31 32  1  0  0  0  0
 38 39  2  0  0  0  0
 38 40  1  0  0  0  0
 40 41  1  0  0  0  0
 40 48  1  0  0  0  0
 41 42  1  0  0  0  0
 41 46  1  0  0  0  0
 41 47  1  0  0  0  0
 42 43  1  0  0  0  0
 42 44  1  0  0  0  0
 42 45  1  0  0  0  0
M  END
>  <MODEL>
       1

$$$$
