tmp_first_model_20_53.pdb
 OpenBabel08282503553D

 59 63  0  0  1  0  0  0  0  0999 V2000
   -7.9240    4.4510  -22.6850 C   0  0  0  0  0  0  0  0  0  0  0  0
   -6.9340    3.4960  -23.3260 C   0  0  0  0  0  0  0  0  0  0  0  0
   -7.6520    2.6710  -24.2770 N   0  0  0  0  0  0  0  0  0  0  0  0
   -7.0200    1.6370  -24.8770 C   0  0  0  0  0  0  0  0  0  0  0  0
   -5.8310    1.3950  -24.7190 O   0  0  0  0  0  0  0  0  0  0  0  0
   -7.9230    0.7830  -25.7680 C   0  0  0  0  0  0  0  0  0  0  0  0
   -8.8770    0.0650  -24.9400 N   0  0  0  0  0  0  0  0  0  0  0  0
   -8.4780   -1.2140  -24.3700 C   0  0  0  0  0  0  0  0  0  0  0  0
   -9.0600   -1.4480  -22.9470 C   0  0  2  0  0  0  0  0  0  0  0  0
   -8.3210   -0.5220  -21.9490 C   0  0  0  0  0  0  0  0  0  0  0  0
   -8.4430    0.6790  -21.8260 O   0  0  0  0  0  0  0  0  0  0  0  0
   -7.4730   -1.2940  -21.1890 N   0  0  0  0  0  0  0  0  0  0  0  0
   -6.6440   -0.7630  -20.1800 C   0  0  0  0  0  0  0  0  0  0  0  0
   -6.9280   -1.0440  -18.8660 C   0  0  0  0  0  0  0  0  0  0  0  0
   -6.2300   -0.5670  -17.8110 N   0  0  0  0  0  0  0  0  0  0  0  0
   -5.1910    0.1880  -18.0840 C   0  0  0  0  0  0  0  0  0  0  0  0
   -4.7570    0.5120  -19.4020 C   0  0  0  0  0  0  0  0  0  0  0  0
   -3.6130    1.3210  -19.6290 C   0  0  0  0  0  0  0  0  0  0  0  0
   -3.2110    1.6110  -20.9040 C   0  0  0  0  0  0  0  0  0  0  0  0
   -3.9270    1.1020  -22.0110 C   0  0  0  0  0  0  0  0  0  0  0  0
   -5.0370    0.3140  -21.8210 C   0  0  0  0  0  0  0  0  0  0  0  0
   -5.4920    0.0170  -20.5010 C   0  0  0  0  0  0  0  0  0  0  0  0
   -5.5690   -0.0610  -22.6900 H   0  0  0  0  0  0  0  0  0  0  0  0
   -3.6230    1.3570  -23.0230 H   0  0  0  0  0  0  0  0  0  0  0  0
   -2.3400    2.2370  -21.0750 H   0  0  0  0  0  0  0  0  0  0  0  0
   -3.0740    1.7000  -18.7670 H   0  0  0  0  0  0  0  0  0  0  0  0
   -4.6310    0.5840  -17.2390 H   0  0  0  0  0  0  0  0  0  0  0  0
   -7.7860   -1.6760  -18.6330 H   0  0  0  0  0  0  0  0  0  0  0  0
   -7.4340   -2.6850  -21.5560 C   0  0  0  0  0  0  0  0  0  0  0  0
   -8.6880   -2.8700  -22.4210 C   0  0  2  0  0  0  0  0  0  0  0  0
   -8.4860   -3.9450  -23.4840 C   0  0  0  0  0  0  0  0  0  0  0  0
   -8.2870   -4.9160  -23.0190 H   0  0  0  0  0  0  0  0  0  0  0  0
   -7.6200   -3.7000  -24.1120 H   0  0  0  0  0  0  0  0  0  0  0  0
   -9.3620   -4.0440  -24.1350 H   0  0  0  0  0  0  0  0  0  0  0  0
   -9.4830   -3.2060  -21.7530 H   0  0  0  0  0  0  0  0  0  0  0  0
   -6.5210   -2.9350  -22.1170 H   0  0  0  0  0  0  0  0  0  0  0  0
   -7.4400   -3.3150  -20.6640 H   0  0  0  0  0  0  0  0  0  0  0  0
  -10.5490   -1.1360  -22.9800 C   0  0  0  0  0  0  0  0  0  0  0  0
  -11.4730   -1.7740  -22.1450 C   0  0  0  0  0  0  0  0  0  0  0  0
  -12.8180   -1.4720  -22.2300 C   0  0  0  0  0  0  0  0  0  0  0  0
  -13.9390   -2.3820  -21.2540 Cl  0  0  0  0  0  0  0  0  0  0  0  0
  -13.2860   -0.4680  -23.0790 C   0  0  0  0  0  0  0  0  0  0  0  0
  -12.3780    0.2050  -23.8730 C   0  0  0  0  0  0  0  0  0  0  0  0
  -11.0250   -0.1190  -23.8230 C   0  0  0  0  0  0  0  0  0  0  0  0
  -10.1010    0.6300  -24.7250 C   0  0  0  0  0  0  0  0  0  0  0  0
  -10.4390    1.6850  -25.2570 O   0  0  0  0  0  0  0  0  0  0  0  0
  -12.7060    0.9810  -24.5590 H   0  0  0  0  0  0  0  0  0  0  0  0
  -14.3410   -0.2260  -23.1010 H   0  0  0  0  0  0  0  0  0  0  0  0
  -11.1510   -2.4950  -21.3990 H   0  0  0  0  0  0  0  0  0  0  0  0
   -7.3800   -1.2380  -24.3070 H   0  0  0  0  0  0  0  0  0  0  0  0
   -8.8210   -2.0190  -25.0330 H   0  0  0  0  0  0  0  0  0  0  0  0
   -7.3080    0.0990  -26.3610 H   0  0  0  0  0  0  0  0  0  0  0  0
   -8.4920    1.4200  -26.4510 H   0  0  0  0  0  0  0  0  0  0  0  0
   -8.6610    2.6460  -24.1770 H   0  0  0  0  0  0  0  0  0  0  0  0
   -6.4470    2.8330  -22.5970 H   0  0  0  0  0  0  0  0  0  0  0  0
   -6.1330    4.0270  -23.8460 H   0  0  0  0  0  0  0  0  0  0  0  0
   -8.5730    3.8860  -22.0140 H   0  0  0  0  0  0  0  0  0  0  0  0
   -8.5520    4.9230  -23.4480 H   0  0  0  0  0  0  0  0  0  0  0  0
   -7.4370    5.2450  -22.1140 H   0  0  0  0  0  0  0  0  0  0  0  0
  1  2  1  0  0  0  0
  1 57  1  0  0  0  0
  1 58  1  0  0  0  0
  1 59  1  0  0  0  0
  2  3  1  0  0  0  0
  2 55  1  0  0  0  0
  2 56  1  0  0  0  0
  3  4  1  0  0  0  0
  3 54  1  0  0  0  0
  4  5  2  0  0  0  0
  4  6  1  0  0  0  0
  6  7  1  0  0  0  0
  6 52  1  0  0  0  0
  6 53  1  0  0  0  0
  7  8  1  0  0  0  0
  7 45  1  0  0  0  0
  8  9  1  0  0  0  0
  8 50  1  0  0  0  0
  8 51  1  0  0  0  0
  9 10  1  1  0  0  0
  9 30  1  0  0  0  0
  9 38  1  0  0  0  0
 10 11  2  0  0  0  0
 10 12  1  0  0  0  0
 12 13  1  0  0  0  0
 12 29  1  0  0  0  0
 13 14  2  0  0  0  0
 13 22  1  0  0  0  0
 14 15  1  0  0  0  0
 14 28  1  0  0  0  0
 15 16  2  0  0  0  0
 16 17  1  0  0  0  0
 16 27  1  0  0  0  0
 17 18  2  0  0  0  0
 17 22  1  0  0  0  0
 18 19  1  0  0  0  0
 18 26  1  0  0  0  0
 19 20  2  0  0  0  0
 19 25  1  0  0  0  0
 20 21  1  0  0  0  0
 20 24  1  0  0  0  0
 21 22  2  0  0  0  0
 21 23  1  0  0  0  0
 29 30  1  0  0  0  0
 29 36  1  0  0  0  0
 29 37  1  0  0  0  0
 30 31  1  0  0  0  0
 30 35  1  1  0  0  0
 31 32  1  0  0  0  0
 31 33  1  0  0  0  0
 31 34  1  0  0  0  0
 38 39  2  0  0  0  0
 38 44  1  0  0  0  0
 39 40  1  0  0  0  0
 39 49  1  0  0  0  0
 40 41  1  0  0  0  0
 40 42  2  0  0  0  0
 42 43  1  0  0  0  0
 42 48  1  0  0  0  0
 43 44  2  0  0  0  0
 43 47  1  0  0  0  0
 44 45  1  0  0  0  0
 45 46  2  0  0  0  0
M  END
>  <MODEL>
       1

$$$$
