tmp_first_model_8_13.pdb
 OpenBabel08272521063D

 69 74  0  0  1  0  0  0  0  0999 V2000
   -7.4270    3.3740  -21.8240 C   0  0  0  0  0  0  0  0  0  0  0  0
   -8.4650    2.8900  -22.7190 N   0  0  0  0  0  0  0  0  0  0  0  0
   -8.0720    2.1450  -23.7890 C   0  0  0  0  0  0  0  0  0  0  0  0
   -6.8960    1.8950  -24.0070 O   0  0  0  0  0  0  0  0  0  0  0  0
   -9.1490    1.5910  -24.7180 C   0  0  0  0  0  0  0  0  0  0  0  0
   -9.7410    0.4090  -24.1310 N   0  0  0  0  0  0  0  0  0  0  0  0
   -8.9550   -0.8130  -24.0640 C   0  0  0  0  0  0  0  0  0  0  0  0
   -9.2280   -1.6000  -22.7590 C   0  0  2  0  0  0  0  0  0  0  0  0
   -8.6420   -0.8090  -21.5580 C   0  0  0  0  0  0  0  0  0  0  0  0
   -9.1140    0.1740  -21.0240 O   0  0  0  0  0  0  0  0  0  0  0  0
   -7.4480   -1.3940  -21.1970 N   0  0  0  0  0  0  0  0  0  0  0  0
   -6.6370   -0.8230  -20.1840 C   0  0  0  0  0  0  0  0  0  0  0  0
   -6.9430   -1.0580  -18.8670 C   0  0  0  0  0  0  0  0  0  0  0  0
   -6.2320   -0.5830  -17.8160 N   0  0  0  0  0  0  0  0  0  0  0  0
   -5.1980    0.1770  -18.0840 C   0  0  0  0  0  0  0  0  0  0  0  0
   -4.7790    0.5190  -19.3990 C   0  0  0  0  0  0  0  0  0  0  0  0
   -3.6600    1.3650  -19.6280 C   0  0  0  0  0  0  0  0  0  0  0  0
   -3.2920    1.6940  -20.9040 C   0  0  0  0  0  0  0  0  0  0  0  0
   -4.0260    1.2020  -22.0030 C   0  0  0  0  0  0  0  0  0  0  0  0
   -5.1070    0.3710  -21.8110 C   0  0  0  0  0  0  0  0  0  0  0  0
   -5.5130    0.0060  -20.4970 C   0  0  0  0  0  0  0  0  0  0  0  0
   -5.6640    0.0230  -22.6730 H   0  0  0  0  0  0  0  0  0  0  0  0
   -3.7220    1.4670  -23.0120 H   0  0  0  0  0  0  0  0  0  0  0  0
   -2.4290    2.3310  -21.0780 H   0  0  0  0  0  0  0  0  0  0  0  0
   -3.1190    1.7470  -18.7680 H   0  0  0  0  0  0  0  0  0  0  0  0
   -4.6300    0.5670  -17.2370 H   0  0  0  0  0  0  0  0  0  0  0  0
   -7.8050   -1.6720  -18.6230 H   0  0  0  0  0  0  0  0  0  0  0  0
   -7.1000   -2.5590  -21.9880 C   0  0  0  0  0  0  0  0  0  0  0  0
   -8.4130   -2.9280  -22.6990 C   0  0  2  0  0  0  0  0  0  0  0  0
   -8.1470   -3.6860  -24.0060 C   0  0  0  0  0  0  0  0  0  0  0  0
   -9.3640   -4.1590  -24.6270 N   0  0  0  0  0  0  0  0  0  0  0  0
   -9.3520   -4.8480  -25.8010 C   0  0  0  0  0  0  0  0  0  0  0  0
  -10.5240   -5.4530  -26.3020 C   0  0  0  0  0  0  0  0  0  0  0  0
  -10.4520   -5.9600  -27.5800 C   0  0  0  0  0  0  0  0  0  0  0  0
   -9.3190   -5.9850  -28.2980 N   0  0  0  0  0  0  0  0  0  0  0  0
   -8.2300   -5.5270  -27.6760 C   0  0  0  0  0  0  0  0  0  0  0  0
   -6.9280   -5.7780  -28.4010 C   0  0  0  0  0  0  0  0  0  0  0  0
   -7.1120   -5.7430  -29.4830 H   0  0  0  0  0  0  0  0  0  0  0  0
   -6.5950   -6.8000  -28.1570 H   0  0  0  0  0  0  0  0  0  0  0  0
   -6.1350   -5.0750  -28.1130 H   0  0  0  0  0  0  0  0  0  0  0  0
   -8.1920   -4.9260  -26.4780 N   0  0  0  0  0  0  0  0  0  0  0  0
  -11.3300   -6.3730  -28.0780 H   0  0  0  0  0  0  0  0  0  0  0  0
  -11.4380   -5.5250  -25.7160 H   0  0  0  0  0  0  0  0  0  0  0  0
  -10.2490   -4.0100  -24.1630 H   0  0  0  0  0  0  0  0  0  0  0  0
   -7.5000   -4.5470  -23.7970 H   0  0  0  0  0  0  0  0  0  0  0  0
   -7.5990   -3.0560  -24.7210 H   0  0  0  0  0  0  0  0  0  0  0  0
   -8.9630   -3.6070  -22.0380 H   0  0  0  0  0  0  0  0  0  0  0  0
   -6.3050   -2.3350  -22.7170 H   0  0  0  0  0  0  0  0  0  0  0  0
   -6.7410   -3.3720  -21.3490 H   0  0  0  0  0  0  0  0  0  0  0  0
  -10.7340   -1.7380  -22.6130 C   0  0  0  0  0  0  0  0  0  0  0  0
  -11.3060   -2.7300  -21.8110 C   0  0  0  0  0  0  0  0  0  0  0  0
  -12.6700   -2.7280  -21.5780 C   0  0  0  0  0  0  0  0  0  0  0  0
  -13.3500   -3.8360  -20.4370 Cl  0  0  0  0  0  0  0  0  0  0  0  0
  -13.5290   -1.8060  -22.1670 C   0  0  0  0  0  0  0  0  0  0  0  0
  -12.9760   -0.8290  -22.9610 C   0  0  0  0  0  0  0  0  0  0  0  0
  -11.6000   -0.7760  -23.1560 C   0  0  0  0  0  0  0  0  0  0  0  0
  -11.0840    0.4110  -23.8980 C   0  0  0  0  0  0  0  0  0  0  0  0
  -11.8170    1.3300  -24.2470 O   0  0  0  0  0  0  0  0  0  0  0  0
  -13.5720   -0.0510  -23.4210 H   0  0  0  0  0  0  0  0  0  0  0  0
  -14.5930   -1.8380  -21.9650 H   0  0  0  0  0  0  0  0  0  0  0  0
  -10.7100   -3.4830  -21.3090 H   0  0  0  0  0  0  0  0  0  0  0  0
   -7.8970   -0.5400  -24.1280 H   0  0  0  0  0  0  0  0  0  0  0  0
   -9.1950   -1.4590  -24.9200 H   0  0  0  0  0  0  0  0  0  0  0  0
   -8.6740    1.3310  -25.6730 H   0  0  0  0  0  0  0  0  0  0  0  0
   -9.9670    2.2900  -24.9090 H   0  0  0  0  0  0  0  0  0  0  0  0
   -9.3950    2.7740  -22.3310 H   0  0  0  0  0  0  0  0  0  0  0  0
   -6.8180    2.5260  -21.4780 H   0  0  0  0  0  0  0  0  0  0  0  0
   -6.7870    4.0990  -22.3370 H   0  0  0  0  0  0  0  0  0  0  0  0
   -7.8960    3.8930  -20.9860 H   0  0  0  0  0  0  0  0  0  0  0  0
  1  2  1  0  0  0  0
  1 67  1  0  0  0  0
  1 68  1  0  0  0  0
  1 69  1  0  0  0  0
  2  3  1  0  0  0  0
  2 66  1  0  0  0  0
  3  4  2  0  0  0  0
  3  5  1  0  0  0  0
  5  6  1  0  0  0  0
  5 64  1  0  0  0  0
  5 65  1  0  0  0  0
  6  7  1  0  0  0  0
  6 57  1  0  0  0  0
  7  8  1  0  0  0  0
  7 62  1  0  0  0  0
  7 63  1  0  0  0  0
  8  9  1  1  0  0  0
  8 29  1  0  0  0  0
  8 50  1  0  0  0  0
  9 10  2  0  0  0  0
  9 11  1  0  0  0  0
 11 12  1  0  0  0  0
 11 28  1  0  0  0  0
 12 13  2  0  0  0  0
 12 21  1  0  0  0  0
 13 14  1  0  0  0  0
 13 27  1  0  0  0  0
 14 15  2  0  0  0  0
 15 16  1  0  0  0  0
 15 26  1  0  0  0  0
 16 17  2  0  0  0  0
 16 21  1  0  0  0  0
 17 18  1  0  0  0  0
 17 25  1  0  0  0  0
 18 19  2  0  0  0  0
 18 24  1  0  0  0  0
 19 20  1  0  0  0  0
 19 23  1  0  0  0  0
 20 21  2  0  0  0  0
 20 22  1  0  0  0  0
 28 29  1  0  0  0  0
 28 48  1  0  0  0  0
 28 49  1  0  0  0  0
 29 30  1  0  0  0  0
 29 47  1  1  0  0  0
 30 31  1  0  0  0  0
 30 45  1  0  0  0  0
 30 46  1  0  0  0  0
 31 32  1  0  0  0  0
 31 44  1  0  0  0  0
 32 33  2  0  0  0  0
 32 41  1  0  0  0  0
 33 34  1  0  0  0  0
 33 43  1  0  0  0  0
 34 35  2  0  0  0  0
 34 42  1  0  0  0  0
 35 36  1  0  0  0  0
 36 37  1  0  0  0  0
 36 41  2  0  0  0  0
 37 38  1  0  0  0  0
 37 39  1  0  0  0  0
 37 40  1  0  0  0  0
 50 51  2  0  0  0  0
 50 56  1  0  0  0  0
 51 52  1  0  0  0  0
 51 61  1  0  0  0  0
 52 53  1  0  0  0  0
 52 54  2  0  0  0  0
 54 55  1  0  0  0  0
 54 60  1  0  0  0  0
 55 56  2  0  0  0  0
 55 59  1  0  0  0  0
 56 57  1  0  0  0  0
 57 58  2  0  0  0  0
M  END
>  <MODEL>
       1

$$$$
