tmp_first_model_15_83.pdb
 OpenBabel08282501153D

 46 50  0  0  1  0  0  0  0  0999 V2000
   -8.6420    2.0100  -25.7950 N   0  0  0  0  0  0  0  0  0  0  0  0
   -9.0120    0.5980  -26.5730 S   0  0  0  0  0  0  0  0  0  0  0  0
   -9.9230    0.9660  -27.6400 O   0  0  0  0  0  0  0  0  0  0  0  0
   -7.7380   -0.0590  -26.7950 O   0  0  0  0  0  0  0  0  0  0  0  0
   -9.9340   -0.3830  -25.4200 C   0  0  0  0  0  0  0  0  0  0  0  0
  -11.3200   -0.4810  -25.5420 C   0  0  0  0  0  0  0  0  0  0  0  0
  -12.0330   -1.2290  -24.6240 C   0  0  0  0  0  0  0  0  0  0  0  0
  -11.3560   -1.9000  -23.6050 C   0  0  0  0  0  0  0  0  0  0  0  0
   -9.9650   -1.8050  -23.4830 C   0  0  0  0  0  0  0  0  0  0  0  0
   -9.2630   -1.0200  -24.3890 C   0  0  0  0  0  0  0  0  0  0  0  0
   -8.1870   -0.9250  -24.2890 H   0  0  0  0  0  0  0  0  0  0  0  0
   -9.2060   -2.4640  -22.3550 C   0  0  1  0  0  0  0  0  0  0  0  0
  -10.1060   -3.5370  -21.7200 C   0  0  0  0  0  0  0  0  0  0  0  0
  -11.5350   -3.0400  -21.5680 C   0  0  0  0  0  0  0  0  0  0  0  0
  -12.1240   -2.6790  -22.8050 O   0  0  0  0  0  0  0  0  0  0  0  0
  -11.5380   -2.1660  -20.9110 H   0  0  0  0  0  0  0  0  0  0  0  0
  -12.1850   -3.8210  -21.1630 H   0  0  0  0  0  0  0  0  0  0  0  0
  -10.1030   -4.4300  -22.3570 H   0  0  0  0  0  0  0  0  0  0  0  0
   -9.6940   -3.8180  -20.7540 H   0  0  0  0  0  0  0  0  0  0  0  0
   -7.9270   -3.0170  -22.7480 N   0  0  0  0  0  0  0  0  0  0  0  0
   -6.8500   -2.5310  -22.0700 C   0  0  0  0  0  0  0  0  0  0  0  0
   -5.6880   -2.8420  -22.1960 O   0  0  0  0  0  0  0  0  0  0  0  0
   -7.3540   -1.5460  -21.1890 N   0  0  0  0  0  0  0  0  0  0  0  0
   -6.5850   -0.8710  -20.1890 C   0  0  0  0  0  0  0  0  0  0  0  0
   -6.9060   -1.0640  -18.8660 C   0  0  0  0  0  0  0  0  0  0  0  0
   -6.2160   -0.5490  -17.8190 N   0  0  0  0  0  0  0  0  0  0  0  0
   -5.1800    0.2060  -18.0950 C   0  0  0  0  0  0  0  0  0  0  0  0
   -4.7450    0.5200  -19.4120 C   0  0  0  0  0  0  0  0  0  0  0  0
   -3.6170    1.3590  -19.6370 C   0  0  0  0  0  0  0  0  0  0  0  0
   -3.2290    1.6640  -20.9120 C   0  0  0  0  0  0  0  0  0  0  0  0
   -3.9560    1.1510  -22.0080 C   0  0  0  0  0  0  0  0  0  0  0  0
   -5.0480    0.3400  -21.8140 C   0  0  0  0  0  0  0  0  0  0  0  0
   -5.4680   -0.0180  -20.5020 C   0  0  0  0  0  0  0  0  0  0  0  0
   -5.5940   -0.0430  -22.6680 H   0  0  0  0  0  0  0  0  0  0  0  0
   -3.6500    1.4030  -23.0180 H   0  0  0  0  0  0  0  0  0  0  0  0
   -2.3730    2.3100  -21.0880 H   0  0  0  0  0  0  0  0  0  0  0  0
   -3.0880    1.7580  -18.7760 H   0  0  0  0  0  0  0  0  0  0  0  0
   -4.6300    0.6090  -17.2470 H   0  0  0  0  0  0  0  0  0  0  0  0
   -7.7590   -1.6860  -18.6020 H   0  0  0  0  0  0  0  0  0  0  0  0
   -8.7260   -1.3590  -21.3830 C   0  0  0  0  0  0  0  0  0  0  0  0
   -9.3730   -0.4310  -20.9610 O   0  0  0  0  0  0  0  0  0  0  0  0
   -7.8230   -3.7770  -23.3950 H   0  0  0  0  0  0  0  0  0  0  0  0
  -13.1100   -1.3480  -24.6780 H   0  0  0  0  0  0  0  0  0  0  0  0
  -11.8130    0.0200  -26.3640 H   0  0  0  0  0  0  0  0  0  0  0  0
   -7.9880    1.8610  -25.0350 H   0  0  0  0  0  0  0  0  0  0  0  0
   -9.4650    2.5590  -25.5770 H   0  0  0  0  0  0  0  0  0  0  0  0
  1  2  1  0  0  0  0
  1 45  1  0  0  0  0
  1 46  1  0  0  0  0
  2  3  2  0  0  0  0
  2  4  2  0  0  0  0
  2  5  1  0  0  0  0
  5  6  2  0  0  0  0
  5 10  1  0  0  0  0
  6  7  1  0  0  0  0
  6 44  1  0  0  0  0
  7  8  2  0  0  0  0
  7 43  1  0  0  0  0
  8  9  1  0  0  0  0
  8 15  1  0  0  0  0
  9 10  2  0  0  0  0
 10 11  1  0  0  0  0
 12  9  1  6  0  0  0
 12 13  1  0  0  0  0
 12 20  1  0  0  0  0
 12 40  1  0  0  0  0
 13 14  1  0  0  0  0
 13 18  1  0  0  0  0
 13 19  1  0  0  0  0
 14 15  1  0  0  0  0
 14 16  1  0  0  0  0
 14 17  1  0  0  0  0
 20 21  1  0  0  0  0
 20 42  1  0  0  0  0
 21 22  2  0  0  0  0
 21 23  1  0  0  0  0
 23 24  1  0  0  0  0
 23 40  1  0  0  0  0
 24 25  2  0  0  0  0
 24 33  1  0  0  0  0
 25 26  1  0  0  0  0
 25 39  1  0  0  0  0
 26 27  2  0  0  0  0
 27 28  1  0  0  0  0
 27 38  1  0  0  0  0
 28 29  2  0  0  0  0
 28 33  1  0  0  0  0
 29 30  1  0  0  0  0
 29 37  1  0  0  0  0
 30 31  2  0  0  0  0
 30 36  1  0  0  0  0
 31 32  1  0  0  0  0
 31 35  1  0  0  0  0
 32 33  2  0  0  0  0
 32 34  1  0  0  0  0
 40 41  2  0  0  0  0
M  END
>  <MODEL>
       1

$$$$
