tmp_first_model_13_76.pdb
 OpenBabel08282500103D

 66 71  0  0  1  0  0  0  0  0999 V2000
   -8.2470   -3.4630  -24.0350 C   0  0  0  0  0  0  0  0  0  0  0  0
   -8.4660   -2.7110  -22.7300 C   0  0  1  0  0  0  0  0  0  0  0  0
   -7.1610   -2.4710  -21.9490 C   0  0  0  0  0  0  0  0  0  0  0  0
   -7.4720   -1.2900  -21.1750 N   0  0  0  0  0  0  0  0  0  0  0  0
   -6.6400   -0.7550  -20.1610 C   0  0  0  0  0  0  0  0  0  0  0  0
   -6.9360   -0.9950  -18.8430 C   0  0  0  0  0  0  0  0  0  0  0  0
   -6.2050   -0.5230  -17.8070 N   0  0  0  0  0  0  0  0  0  0  0  0
   -5.1680    0.2250  -18.0840 C   0  0  0  0  0  0  0  0  0  0  0  0
   -4.7490    0.5520  -19.4060 C   0  0  0  0  0  0  0  0  0  0  0  0
   -3.6310    1.3920  -19.6540 C   0  0  0  0  0  0  0  0  0  0  0  0
   -3.2460    1.6740  -20.9370 C   0  0  0  0  0  0  0  0  0  0  0  0
   -3.9620    1.1330  -22.0280 C   0  0  0  0  0  0  0  0  0  0  0  0
   -5.0590    0.3270  -21.8140 C   0  0  0  0  0  0  0  0  0  0  0  0
   -5.4890    0.0250  -20.4900 C   0  0  0  0  0  0  0  0  0  0  0  0
   -5.6030   -0.0730  -22.6650 H   0  0  0  0  0  0  0  0  0  0  0  0
   -3.6540    1.3630  -23.0420 H   0  0  0  0  0  0  0  0  0  0  0  0
   -2.3950    2.3240  -21.1230 H   0  0  0  0  0  0  0  0  0  0  0  0
   -3.1010    1.8000  -18.7990 H   0  0  0  0  0  0  0  0  0  0  0  0
   -4.5950    0.6150  -17.2420 H   0  0  0  0  0  0  0  0  0  0  0  0
   -7.8010   -1.6010  -18.5830 H   0  0  0  0  0  0  0  0  0  0  0  0
   -8.5640   -0.5950  -21.6330 C   0  0  0  0  0  0  0  0  0  0  0  0
   -8.9940    0.4230  -21.1210 O   0  0  0  0  0  0  0  0  0  0  0  0
   -9.1530   -1.3160  -22.8630 C   0  0  1  0  0  0  0  0  0  0  0  0
   -8.7230   -0.6130  -24.1840 C   0  0  0  0  0  0  0  0  0  0  0  0
   -9.3840    0.6620  -24.4140 N   0  0  0  0  0  0  0  0  0  0  0  0
   -8.6540    1.7010  -25.1310 C   0  0  0  0  0  0  0  0  0  0  0  0
   -7.6920    2.3850  -24.1710 C   0  0  0  0  0  0  0  0  0  0  0  0
   -8.4390    3.0670  -23.0470 N   0  3  0  0  0  0  0  0  0  0  0  0
   -7.6650    3.0020  -21.7620 C   0  0  0  0  0  0  0  0  0  0  0  0
   -6.4190    3.8340  -21.8810 C   0  0  0  0  0  0  0  0  0  0  0  0
   -6.7800    5.1960  -22.0110 O   0  0  0  0  0  0  0  0  0  0  0  0
   -7.5130    5.4200  -23.2020 C   0  0  0  0  0  0  0  0  0  0  0  0
   -8.7510    4.5260  -23.3160 C   0  0  0  0  0  0  0  0  0  0  0  0
   -9.5060    4.8490  -22.5970 H   0  0  0  0  0  0  0  0  0  0  0  0
   -9.1640    4.6140  -24.3210 H   0  0  0  0  0  0  0  0  0  0  0  0
   -6.8700    5.2650  -24.0810 H   0  0  0  0  0  0  0  0  0  0  0  0
   -7.8100    6.4750  -23.2020 H   0  0  0  0  0  0  0  0  0  0  0  0
   -5.7990    3.6870  -21.0060 H   0  0  0  0  0  0  0  0  0  0  0  0
   -5.8310    3.5140  -22.7480 H   0  0  0  0  0  0  0  0  0  0  0  0
   -7.4360    1.9680  -21.5380 H   0  0  0  0  0  0  0  0  0  0  0  0
   -8.2600    3.4170  -20.9540 H   0  0  0  0  0  0  0  0  0  0  0  0
   -9.3340    2.5750  -22.9010 H   0  0  0  0  0  0  0  0  0  0  0  0
   -7.0550    1.6210  -23.7080 H   0  0  0  0  0  0  0  0  0  0  0  0
   -7.0480    3.1000  -24.6900 H   0  0  0  0  0  0  0  0  0  0  0  0
   -8.0960    1.2820  -25.9790 H   0  0  0  0  0  0  0  0  0  0  0  0
   -9.3840    2.4120  -25.5230 H   0  0  0  0  0  0  0  0  0  0  0  0
  -10.7180    0.8260  -24.1930 C   0  0  0  0  0  0  0  0  0  0  0  0
  -11.3310    1.8180  -24.5770 O   0  0  0  0  0  0  0  0  0  0  0  0
  -11.3960   -0.2530  -23.3980 C   0  0  0  0  0  0  0  0  0  0  0  0
  -12.7810   -0.1720  -23.2660 C   0  0  0  0  0  0  0  0  0  0  0  0
  -13.4780   -1.1090  -22.5290 C   0  0  0  0  0  0  0  0  0  0  0  0
  -12.7630   -2.1320  -21.9050 C   0  0  0  0  0  0  0  0  0  0  0  0
  -13.6100   -3.3160  -20.9400 Cl  0  0  0  0  0  0  0  0  0  0  0  0
  -11.3860   -2.2230  -22.0190 C   0  0  0  0  0  0  0  0  0  0  0  0
  -10.6720   -1.2930  -22.7900 C   0  0  0  0  0  0  0  0  0  0  0  0
  -10.8860   -3.0230  -21.4860 H   0  0  0  0  0  0  0  0  0  0  0  0
  -14.5570   -1.0550  -22.4270 H   0  0  0  0  0  0  0  0  0  0  0  0
  -13.3020    0.6460  -23.7550 H   0  0  0  0  0  0  0  0  0  0  0  0
   -7.6380   -0.4550  -24.1650 H   0  0  0  0  0  0  0  0  0  0  0  0
   -8.9510   -1.2730  -25.0300 H   0  0  0  0  0  0  0  0  0  0  0  0
   -6.8960   -3.3170  -21.3030 H   0  0  0  0  0  0  0  0  0  0  0  0
   -6.3040   -2.3090  -22.6210 H   0  0  0  0  0  0  0  0  0  0  0  0
   -9.0920   -3.3230  -22.0770 H   0  0  0  0  0  0  0  0  0  0  0  0
   -9.1840   -3.5600  -24.5920 H   0  0  0  0  0  0  0  0  0  0  0  0
   -7.5290   -2.9350  -24.6730 H   0  0  0  0  0  0  0  0  0  0  0  0
   -7.8420   -4.4630  -23.8540 H   0  0  0  0  0  0  0  0  0  0  0  0
  1  2  1  0  0  0  0
  1 64  1  0  0  0  0
  1 65  1  0  0  0  0
  1 66  1  0  0  0  0
  2  3  1  0  0  0  0
  2 23  1  0  0  0  0
  2 63  1  1  0  0  0
  3  4  1  0  0  0  0
  3 61  1  0  0  0  0
  3 62  1  0  0  0  0
  4  5  1  0  0  0  0
  4 21  1  0  0  0  0
  5  6  2  0  0  0  0
  5 14  1  0  0  0  0
  6  7  1  0  0  0  0
  6 20  1  0  0  0  0
  7  8  2  0  0  0  0
  8  9  1  0  0  0  0
  8 19  1  0  0  0  0
  9 10  2  0  0  0  0
  9 14  1  0  0  0  0
 10 11  1  0  0  0  0
 10 18  1  0  0  0  0
 11 12  2  0  0  0  0
 11 17  1  0  0  0  0
 12 13  1  0  0  0  0
 12 16  1  0  0  0  0
 13 14  2  0  0  0  0
 13 15  1  0  0  0  0
 21 22  2  0  0  0  0
 23 21  1  1  0  0  0
 23 24  1  0  0  0  0
 23 55  1  0  0  0  0
 24 25  1  0  0  0  0
 24 59  1  0  0  0  0
 24 60  1  0  0  0  0
 25 26  1  0  0  0  0
 25 47  1  0  0  0  0
 26 27  1  0  0  0  0
 26 45  1  0  0  0  0
 26 46  1  0  0  0  0
 27 28  1  0  0  0  0
 27 43  1  0  0  0  0
 27 44  1  0  0  0  0
 28 29  1  0  0  0  0
 28 33  1  0  0  0  0
 28 42  1  0  0  0  0
 29 30  1  0  0  0  0
 29 40  1  0  0  0  0
 29 41  1  0  0  0  0
 30 31  1  0  0  0  0
 30 38  1  0  0  0  0
 30 39  1  0  0  0  0
 31 32  1  0  0  0  0
 32 33  1  0  0  0  0
 32 36  1  0  0  0  0
 32 37  1  0  0  0  0
 33 34  1  0  0  0  0
 33 35  1  0  0  0  0
 47 48  2  0  0  0  0
 47 49  1  0  0  0  0
 49 50  2  0  0  0  0
 49 55  1  0  0  0  0
 50 51  1  0  0  0  0
 50 58  1  0  0  0  0
 51 52  2  0  0  0  0
 51 57  1  0  0  0  0
 52 53  1  0  0  0  0
 52 54  1  0  0  0  0
 54 55  2  0  0  0  0
 54 56  1  0  0  0  0
M  CHG  1  28   1
M  END
>  <MODEL>
       1

$$$$
