tmp_first_model_8_24.pdb
 OpenBabel08272521063D

 65 70  0  0  1  0  0  0  0  0999 V2000
   -4.9630   -7.3340  -23.7360 O   0  0  0  0  0  0  0  0  0  0  0  0
   -6.0410   -7.2740  -24.3070 C   0  0  0  0  0  0  0  0  0  0  0  0
   -7.2430   -6.6050  -23.6550 C   0  0  0  0  0  0  0  0  0  0  0  0
   -7.1190   -5.1180  -23.8190 N   0  3  1  0  0  0  0  0  0  0  0  0
   -7.2980   -4.7300  -25.3110 C   0  0  0  0  0  0  0  0  0  0  0  0
   -7.2330   -3.2480  -25.5230 C   0  0  0  0  0  0  0  0  0  0  0  0
   -6.8730   -2.7580  -26.7760 C   0  0  0  0  0  0  0  0  0  0  0  0
   -6.8090   -1.3980  -27.0370 C   0  0  0  0  0  0  0  0  0  0  0  0
   -7.1150   -0.5120  -26.0090 C   0  0  0  0  0  0  0  0  0  0  0  0
   -7.0290    1.2030  -26.3040 Cl  0  0  0  0  0  0  0  0  0  0  0  0
   -7.4860   -0.9740  -24.7560 C   0  0  0  0  0  0  0  0  0  0  0  0
   -7.5580   -2.3500  -24.5060 C   0  0  0  0  0  0  0  0  0  0  0  0
   -7.9440   -2.8210  -23.1160 C   0  0  2  0  0  0  0  0  0  0  0  0
   -9.1900   -2.1100  -22.5610 C   0  0  0  0  0  0  0  0  0  0  0  0
   -8.7250   -1.1580  -21.4520 C   0  0  0  0  0  0  0  0  0  0  0  0
   -7.3210   -1.4910  -21.2430 N   0  0  0  0  0  0  0  0  0  0  0  0
   -6.5540   -0.8910  -20.2010 C   0  0  0  0  0  0  0  0  0  0  0  0
   -6.8950   -1.0680  -18.8820 C   0  0  0  0  0  0  0  0  0  0  0  0
   -6.2150   -0.5480  -17.8280 N   0  0  0  0  0  0  0  0  0  0  0  0
   -5.1750    0.2070  -18.0900 C   0  0  0  0  0  0  0  0  0  0  0  0
   -4.7360    0.5200  -19.4050 C   0  0  0  0  0  0  0  0  0  0  0  0
   -3.6180    1.3670  -19.6320 C   0  0  0  0  0  0  0  0  0  0  0  0
   -3.2420    1.6850  -20.9060 C   0  0  0  0  0  0  0  0  0  0  0  0
   -3.9800    1.1870  -22.0040 C   0  0  0  0  0  0  0  0  0  0  0  0
   -5.0510    0.3520  -21.8150 C   0  0  0  0  0  0  0  0  0  0  0  0
   -5.4520   -0.0220  -20.5020 C   0  0  0  0  0  0  0  0  0  0  0  0
   -5.5880   -0.0390  -22.6780 H   0  0  0  0  0  0  0  0  0  0  0  0
   -3.6580    1.4280  -23.0110 H   0  0  0  0  0  0  0  0  0  0  0  0
   -2.3750    2.3140  -21.0880 H   0  0  0  0  0  0  0  0  0  0  0  0
   -3.0820    1.7600  -18.7700 H   0  0  0  0  0  0  0  0  0  0  0  0
   -4.6280    0.6130  -17.2380 H   0  0  0  0  0  0  0  0  0  0  0  0
   -7.7520   -1.6810  -18.6040 H   0  0  0  0  0  0  0  0  0  0  0  0
   -6.8370   -2.4380  -22.1240 C   0  0  0  0  0  0  0  0  0  0  0  0
   -5.7330   -2.9520  -22.1380 O   0  0  0  0  0  0  0  0  0  0  0  0
   -8.8650   -0.0940  -21.6990 H   0  0  0  0  0  0  0  0  0  0  0  0
   -9.2920   -1.3660  -20.5500 H   0  0  0  0  0  0  0  0  0  0  0  0
   -9.7610   -1.6010  -23.3420 H   0  0  0  0  0  0  0  0  0  0  0  0
   -9.8560   -2.8600  -22.1240 H   0  0  0  0  0  0  0  0  0  0  0  0
   -8.1480   -4.3450  -23.0310 C   0  0  0  0  0  0  0  0  0  0  0  0
   -9.1390   -4.5920  -23.4230 H   0  0  0  0  0  0  0  0  0  0  0  0
   -8.1060   -4.6350  -21.9790 H   0  0  0  0  0  0  0  0  0  0  0  0
   -7.7190   -0.2480  -23.9780 H   0  0  0  0  0  0  0  0  0  0  0  0
   -6.5270   -1.0170  -28.0130 H   0  0  0  0  0  0  0  0  0  0  0  0
   -6.6320   -3.4600  -27.5700 H   0  0  0  0  0  0  0  0  0  0  0  0
   -8.2600   -5.1370  -25.6420 H   0  0  0  0  0  0  0  0  0  0  0  0
   -6.5250   -5.2160  -25.9000 H   0  0  0  0  0  0  0  0  0  0  0  0
   -6.1720   -4.8060  -23.4940 H   0  0  0  0  0  0  0  0  0  0  0  0
   -7.2360   -6.8690  -22.5980 H   0  0  0  0  0  0  0  0  0  0  0  0
   -8.1910   -6.9490  -24.0930 H   0  0  0  0  0  0  0  0  0  0  0  0
   -6.2360   -7.7390  -25.5740 N   0  0  0  0  0  0  0  0  0  0  0  0
   -5.1430   -8.4100  -26.2590 C   0  0  0  0  0  0  0  0  0  0  0  0
   -4.1770   -7.3740  -26.8070 C   0  0  1  0  0  0  0  0  0  0  0  0
   -3.0930   -7.9010  -27.7850 C   0  0  0  0  0  0  0  0  0  0  0  0
   -3.7160   -7.0560  -28.9200 C   0  0  1  0  0  0  0  0  0  0  0  0
   -4.2340   -7.8190  -29.9580 F   0  0  0  0  0  0  0  0  0  0  0  0
   -4.7880   -6.5160  -27.9530 C   0  0  0  0  0  0  0  0  0  0  0  0
   -5.8050   -6.8110  -28.2460 H   0  0  0  0  0  0  0  0  0  0  0  0
   -4.8070   -5.4330  -27.7760 H   0  0  0  0  0  0  0  0  0  0  0  0
   -3.0670   -6.3050  -29.3840 H   0  0  0  0  0  0  0  0  0  0  0  0
   -2.0660   -7.6420  -27.5040 H   0  0  0  0  0  0  0  0  0  0  0  0
   -3.1160   -8.9820  -27.9780 H   0  0  0  0  0  0  0  0  0  0  0  0
   -3.7910   -6.8060  -25.9500 H   0  0  0  0  0  0  0  0  0  0  0  0
   -5.5640   -8.9980  -27.0840 H   0  0  0  0  0  0  0  0  0  0  0  0
   -4.6200   -9.0740  -25.5570 H   0  0  0  0  0  0  0  0  0  0  0  0
   -7.1840   -7.9010  -25.8840 H   0  0  0  0  0  0  0  0  0  0  0  0
  1  2  2  0  0  0  0
  2  3  1  0  0  0  0
  2 50  1  0  0  0  0
  3  4  1  0  0  0  0
  3 48  1  0  0  0  0
  3 49  1  0  0  0  0
  4  5  1  0  0  0  0
  4 39  1  0  0  0  0
  4 47  1  1  0  0  0
  5  6  1  0  0  0  0
  5 45  1  0  0  0  0
  5 46  1  0  0  0  0
  6  7  2  0  0  0  0
  6 12  1  0  0  0  0
  7  8  1  0  0  0  0
  7 44  1  0  0  0  0
  8  9  2  0  0  0  0
  8 43  1  0  0  0  0
  9 10  1  0  0  0  0
  9 11  1  0  0  0  0
 11 12  2  0  0  0  0
 11 42  1  0  0  0  0
 13 12  1  6  0  0  0
 13 14  1  0  0  0  0
 13 33  1  0  0  0  0
 13 39  1  0  0  0  0
 14 15  1  0  0  0  0
 14 37  1  0  0  0  0
 14 38  1  0  0  0  0
 15 16  1  0  0  0  0
 15 35  1  0  0  0  0
 15 36  1  0  0  0  0
 16 17  1  0  0  0  0
 16 33  1  0  0  0  0
 17 18  2  0  0  0  0
 17 26  1  0  0  0  0
 18 19  1  0  0  0  0
 18 32  1  0  0  0  0
 19 20  2  0  0  0  0
 20 21  1  0  0  0  0
 20 31  1  0  0  0  0
 21 22  2  0  0  0  0
 21 26  1  0  0  0  0
 22 23  1  0  0  0  0
 22 30  1  0  0  0  0
 23 24  2  0  0  0  0
 23 29  1  0  0  0  0
 24 25  1  0  0  0  0
 24 28  1  0  0  0  0
 25 26  2  0  0  0  0
 25 27  1  0  0  0  0
 33 34  2  0  0  0  0
 39 40  1  0  0  0  0
 39 41  1  0  0  0  0
 50 51  1  0  0  0  0
 50 65  1  0  0  0  0
 51 52  1  0  0  0  0
 51 63  1  0  0  0  0
 51 64  1  0  0  0  0
 52 53  1  0  0  0  0
 52 56  1  0  0  0  0
 52 62  1  1  0  0  0
 53 54  1  0  0  0  0
 53 60  1  0  0  0  0
 53 61  1  0  0  0  0
 54 55  1  0  0  0  0
 54 56  1  0  0  0  0
 54 59  1  6  0  0  0
 56 57  1  0  0  0  0
 56 58  1  0  0  0  0
M  CHG  1   4   1
M  END
>  <MODEL>
       1

$$$$
