tmp_first_model_3_51.pdb
 OpenBabel08272518143D

 50 52  0  0  0  0  0  0  0  0999 V2000
  -11.5830   -0.2620  -25.0500 C   0  0  0  0  0  0  0  0  0  0  0  0
  -10.7930   -0.0090  -24.0110 C   0  0  0  0  0  0  0  0  0  0  0  0
  -10.6870   -0.9480  -22.8220 C   0  0  0  0  0  0  0  0  0  0  0  0
   -9.3330   -1.4340  -22.5710 N   0  0  0  0  0  0  0  0  0  0  0  0
   -8.6460   -0.8410  -21.5250 C   0  0  0  0  0  0  0  0  0  0  0  0
   -9.1460    0.0320  -20.8190 O   0  0  0  0  0  0  0  0  0  0  0  0
   -7.3940   -1.3270  -21.2660 N   0  0  0  0  0  0  0  0  0  0  0  0
   -6.6130   -0.8060  -20.2060 C   0  0  0  0  0  0  0  0  0  0  0  0
   -6.9410   -1.0470  -18.8930 C   0  0  0  0  0  0  0  0  0  0  0  0
   -6.2470   -0.5640  -17.8350 N   0  0  0  0  0  0  0  0  0  0  0  0
   -5.2070    0.1950  -18.0980 C   0  0  0  0  0  0  0  0  0  0  0  0
   -4.7570    0.5180  -19.4100 C   0  0  0  0  0  0  0  0  0  0  0  0
   -3.6370    1.3580  -19.6480 C   0  0  0  0  0  0  0  0  0  0  0  0
   -3.2550    1.6600  -20.9290 C   0  0  0  0  0  0  0  0  0  0  0  0
   -3.9700    1.1450  -22.0330 C   0  0  0  0  0  0  0  0  0  0  0  0
   -5.0650    0.3380  -21.8290 C   0  0  0  0  0  0  0  0  0  0  0  0
   -5.4740   -0.0040  -20.5100 C   0  0  0  0  0  0  0  0  0  0  0  0
   -5.6290   -0.0330  -22.6830 H   0  0  0  0  0  0  0  0  0  0  0  0
   -3.6580    1.3980  -23.0440 H   0  0  0  0  0  0  0  0  0  0  0  0
   -2.3990    2.3060  -21.1030 H   0  0  0  0  0  0  0  0  0  0  0  0
   -3.1080    1.7620  -18.7890 H   0  0  0  0  0  0  0  0  0  0  0  0
   -4.6510    0.5940  -17.2490 H   0  0  0  0  0  0  0  0  0  0  0  0
   -7.8050   -1.6680  -18.6630 H   0  0  0  0  0  0  0  0  0  0  0  0
   -6.9730   -1.9500  -21.9400 H   0  0  0  0  0  0  0  0  0  0  0  0
   -8.7350   -2.2180  -23.6100 C   0  0  0  0  0  0  0  0  0  0  0  0
   -9.1730   -3.5200  -23.8610 C   0  0  0  0  0  0  0  0  0  0  0  0
   -8.5780   -4.2530  -24.8820 C   0  0  0  0  0  0  0  0  0  0  0  0
   -7.5860   -3.6970  -25.6810 C   0  0  0  0  0  0  0  0  0  0  0  0
   -7.1980   -2.3860  -25.4450 C   0  0  0  0  0  0  0  0  0  0  0  0
   -5.9650   -1.6640  -26.4330 Cl  0  0  0  0  0  0  0  0  0  0  0  0
   -7.7640   -1.6380  -24.4240 C   0  0  0  0  0  0  0  0  0  0  0  0
   -7.4810   -0.5980  -24.2740 H   0  0  0  0  0  0  0  0  0  0  0  0
   -7.1120   -4.2670  -26.4720 H   0  0  0  0  0  0  0  0  0  0  0  0
   -8.9010   -5.2730  -25.0640 H   0  0  0  0  0  0  0  0  0  0  0  0
   -9.9760   -3.9510  -23.2620 H   0  0  0  0  0  0  0  0  0  0  0  0
  -11.3290   -1.8140  -23.0130 H   0  0  0  0  0  0  0  0  0  0  0  0
  -11.0210   -0.4760  -21.8980 H   0  0  0  0  0  0  0  0  0  0  0  0
   -9.8970    1.1950  -24.1410 C   0  0  0  0  0  0  0  0  0  0  0  0
   -9.6160    1.6560  -25.2440 O   0  0  0  0  0  0  0  0  0  0  0  0
   -9.3890    1.7390  -23.0090 N   0  0  0  0  0  0  0  0  0  0  0  0
   -8.1550    2.4910  -23.1400 C   0  0  0  0  0  0  0  0  0  0  0  0
   -7.5360    2.7970  -21.7930 C   0  0  0  0  0  0  0  0  0  0  0  0
   -7.5580    1.9220  -21.1370 H   0  0  0  0  0  0  0  0  0  0  0  0
   -6.4900    3.1000  -21.8930 H   0  0  0  0  0  0  0  0  0  0  0  0
   -8.0670    3.5990  -21.2830 H   0  0  0  0  0  0  0  0  0  0  0  0
   -7.4310    1.8990  -23.7110 H   0  0  0  0  0  0  0  0  0  0  0  0
   -8.3600    3.3910  -23.7270 H   0  0  0  0  0  0  0  0  0  0  0  0
   -9.5920    1.3420  -22.1020 H   0  0  0  0  0  0  0  0  0  0  0  0
  -11.5900    0.3990  -25.9130 H   0  0  0  0  0  0  0  0  0  0  0  0
  -12.2520   -1.1180  -25.0480 H   0  0  0  0  0  0  0  0  0  0  0  0
  1  2  2  0  0  0  0
  1 49  1  0  0  0  0
  1 50  1  0  0  0  0
  2  3  1  0  0  0  0
  2 38  1  0  0  0  0
  3  4  1  0  0  0  0
  3 36  1  0  0  0  0
  3 37  1  0  0  0  0
  4  5  1  0  0  0  0
  4 25  1  0  0  0  0
  5  6  2  0  0  0  0
  5  7  1  0  0  0  0
  7  8  1  0  0  0  0
  7 24  1  0  0  0  0
  8  9  2  0  0  0  0
  8 17  1  0  0  0  0
  9 10  1  0  0  0  0
  9 23  1  0  0  0  0
 10 11  2  0  0  0  0
 11 12  1  0  0  0  0
 11 22  1  0  0  0  0
 12 13  2  0  0  0  0
 12 17  1  0  0  0  0
 13 14  1  0  0  0  0
 13 21  1  0  0  0  0
 14 15  2  0  0  0  0
 14 20  1  0  0  0  0
 15 16  1  0  0  0  0
 15 19  1  0  0  0  0
 16 17  2  0  0  0  0
 16 18  1  0  0  0  0
 25 26  2  0  0  0  0
 25 31  1  0  0  0  0
 26 27  1  0  0  0  0
 26 35  1  0  0  0  0
 27 28  2  0  0  0  0
 27 34  1  0  0  0  0
 28 29  1  0  0  0  0
 28 33  1  0  0  0  0
 29 30  1  0  0  0  0
 29 31  2  0  0  0  0
 31 32  1  0  0  0  0
 38 39  2  0  0  0  0
 38 40  1  0  0  0  0
 40 41  1  0  0  0  0
 40 48  1  0  0  0  0
 41 42  1  0  0  0  0
 41 46  1  0  0  0  0
 41 47  1  0  0  0  0
 42 43  1  0  0  0  0
 42 44  1  0  0  0  0
 42 45  1  0  0  0  0
M  END
>  <MODEL>
       1

$$$$
