tmp_first_model_2_12.pdb
 OpenBabel08272517383D

 76 82  0  0  1  0  0  0  0  0999 V2000
  -13.3740   -0.1450  -23.4480 O   0  0  0  0  0  0  0  0  0  0  0  0
  -12.3180   -0.7380  -23.2810 C   0  0  0  0  0  0  0  0  0  0  0  0
  -12.1960   -1.9910  -22.5420 C   0  0  0  0  0  0  0  0  0  0  0  0
  -13.3290   -2.5790  -21.9120 C   0  0  0  0  0  0  0  0  0  0  0  0
  -12.9180   -3.9570  -20.8380 C   0  0  0  0  0  0  0  0  0  0  0  0
  -12.8580   -3.9100  -21.1810 C   0  0  0  0  0  0  0  0  0  0  0  0
  -12.6600   -5.2630  -19.0390 Cl  0  0  0  0  0  0  0  0  0  0  0  0
  -10.9720   -3.6950  -21.4690 C   0  0  0  0  0  0  0  0  0  0  0  0
  -10.8800   -2.6080  -22.2410 C   0  0  0  0  0  0  0  0  0  0  0  0
   -9.5690   -1.9060  -22.6960 C   0  0  1  0  0  0  0  0  0  0  0  0
   -9.9650   -1.0570  -23.9390 C   0  0  0  0  0  0  0  0  0  0  0  0
  -11.1210   -0.2120  -23.7100 N   0  0  0  0  0  0  0  0  0  0  0  0
  -11.1390    1.1880  -24.0860 C   0  0  0  0  0  0  0  0  0  0  0  0
  -11.2660    2.1180  -22.8690 C   0  0  0  0  0  0  0  0  0  0  0  0
  -12.0560    3.3310  -23.2210 N   0  3  0  0  0  0  0  0  0  0  0  0
  -12.5350    4.0670  -22.0020 C   0  0  0  0  0  0  0  0  0  0  0  0
  -13.3250    5.3070  -22.4010 C   0  0  0  0  0  0  0  0  0  0  0  0
  -12.5890    6.1570  -23.2600 O   0  0  0  0  0  0  0  0  0  0  0  0
  -12.2200    5.4750  -24.4420 C   0  0  0  0  0  0  0  0  0  0  0  0
  -11.3270    4.2810  -24.1430 C   0  0  0  0  0  0  0  0  0  0  0  0
  -10.4080    4.6140  -23.6510 H   0  0  0  0  0  0  0  0  0  0  0  0
  -11.0550    3.7620  -25.0640 H   0  0  0  0  0  0  0  0  0  0  0  0
  -13.1250    5.1150  -24.9590 H   0  0  0  0  0  0  0  0  0  0  0  0
  -11.7140    6.1960  -25.0910 H   0  0  0  0  0  0  0  0  0  0  0  0
  -14.2550    4.9910  -22.8970 H   0  0  0  0  0  0  0  0  0  0  0  0
  -13.5890    5.8940  -21.5190 H   0  0  0  0  0  0  0  0  0  0  0  0
  -13.1580    3.3870  -21.4090 H   0  0  0  0  0  0  0  0  0  0  0  0
  -11.6650    4.3440  -21.4020 H   0  0  0  0  0  0  0  0  0  0  0  0
  -12.9090    2.9870  -23.7070 H   0  0  0  0  0  0  0  0  0  0  0  0
  -11.7980    1.6100  -22.0650 H   0  0  0  0  0  0  0  0  0  0  0  0
  -10.2880    2.4070  -22.4650 H   0  0  0  0  0  0  0  0  0  0  0  0
  -12.0170    1.3460  -24.7220 H   0  0  0  0  0  0  0  0  0  0  0  0
  -10.2400    1.4210  -24.6660 H   0  0  0  0  0  0  0  0  0  0  0  0
  -10.1840   -1.7600  -24.7560 H   0  0  0  0  0  0  0  0  0  0  0  0
   -9.1380   -0.4200  -24.2310 H   0  0  0  0  0  0  0  0  0  0  0  0
   -9.0100   -0.9620  -21.5990 C   0  0  0  0  0  0  0  0  0  0  0  0
   -9.5900   -0.0290  -21.0780 O   0  0  0  0  0  0  0  0  0  0  0  0
   -7.7200   -1.3270  -21.3040 N   0  0  0  0  0  0  0  0  0  0  0  0
   -7.0070   -0.7300  -20.2360 C   0  0  0  0  0  0  0  0  0  0  0  0
   -7.4300   -0.8770  -18.9410 C   0  0  0  0  0  0  0  0  0  0  0  0
   -6.7380   -0.4340  -17.8610 N   0  0  0  0  0  0  0  0  0  0  0  0
   -5.6100    0.1960  -18.0820 C   0  0  0  0  0  0  0  0  0  0  0  0
   -5.0750    0.4470  -19.3770 C   0  0  0  0  0  0  0  0  0  0  0  0
   -3.8660    1.1630  -19.5730 C   0  0  0  0  0  0  0  0  0  0  0  0
   -3.4040    1.4100  -20.8370 C   0  0  0  0  0  0  0  0  0  0  0  0
   -4.1270    0.9570  -21.9630 C   0  0  0  0  0  0  0  0  0  0  0  0
   -5.2960    0.2550  -21.8000 C   0  0  0  0  0  0  0  0  0  0  0  0
   -5.7940   -0.0200  -20.4980 C   0  0  0  0  0  0  0  0  0  0  0  0
   -5.8620   -0.0800  -22.6640 H   0  0  0  0  0  0  0  0  0  0  0  0
   -3.7560    1.1730  -22.9620 H   0  0  0  0  0  0  0  0  0  0  0  0
   -2.4820    1.9670  -20.9860 H   0  0  0  0  0  0  0  0  0  0  0  0
   -3.3290    1.5160  -18.6970 H   0  0  0  0  0  0  0  0  0  0  0  0
   -5.0570    0.5450  -17.2090 H   0  0  0  0  0  0  0  0  0  0  0  0
   -8.3660   -1.3840  -18.7180 H   0  0  0  0  0  0  0  0  0  0  0  0
   -7.3760   -2.6450  -21.7940 C   0  0  0  0  0  0  0  0  0  0  0  0
   -8.3510   -2.8670  -22.9650 C   0  0  2  0  0  0  0  0  0  0  0  0
   -7.6470   -2.6530  -24.3250 C   0  0  0  0  0  0  0  0  0  0  0  0
   -6.5380   -3.5700  -24.5230 N   0  0  0  0  0  0  0  0  0  0  0  0
   -6.7370   -4.8250  -25.0310 C   0  0  0  0  0  0  0  0  0  0  0  0
   -5.6240   -5.4620  -25.4490 N   0  0  0  0  0  0  0  0  0  0  0  0
   -5.8070   -6.6860  -25.9190 C   0  0  0  0  0  0  0  0  0  0  0  0
   -7.0540   -7.3000  -25.9850 C   0  0  0  0  0  0  0  0  0  0  0  0
   -8.1240   -6.5450  -25.5370 C   0  0  0  0  0  0  0  0  0  0  0  0
   -7.9860   -5.3090  -25.0560 N   0  0  0  0  0  0  0  0  0  0  0  0
   -9.1410   -6.9350  -25.5560 H   0  0  0  0  0  0  0  0  0  0  0  0
   -7.1870   -8.3050  -26.3650 H   0  0  0  0  0  0  0  0  0  0  0  0
   -4.9070   -7.2000  -26.2600 H   0  0  0  0  0  0  0  0  0  0  0  0
   -5.6590   -3.1760  -24.8210 H   0  0  0  0  0  0  0  0  0  0  0  0
   -8.3790   -2.8130  -25.1240 H   0  0  0  0  0  0  0  0  0  0  0  0
   -7.2560   -1.6330  -24.4060 H   0  0  0  0  0  0  0  0  0  0  0  0
   -8.6570   -3.9150  -23.0080 H   0  0  0  0  0  0  0  0  0  0  0  0
   -6.3250   -2.6750  -22.0980 H   0  0  0  0  0  0  0  0  0  0  0  0
   -7.5130   -3.4040  -21.0090 H   0  0  0  0  0  0  0  0  0  0  0  0
  -10.2060   -4.4090  -21.2020 H   0  0  0  0  0  0  0  0  0  0  0  0
  -12.9690   -3.2720  -19.9980 H   0  0  0  0  0  0  0  0  0  0  0  0
  -14.2100   -2.7550  -22.5050 H   0  0  0  0  0  0  0  0  0  0  0  0
  1  2  2  0  0  0  0
  2  3  1  0  0  0  0
  2 12  1  0  0  0  0
  3  4  2  0  0  0  0
  3  9  1  0  0  0  0
  4  5  1  0  0  0  0
  4 76  1  0  0  0  0
  5  6  2  0  0  0  0
  5 75  1  0  0  0  0
  6  7  1  0  0  0  0
  6  8  1  0  0  0  0
  8  9  2  0  0  0  0
  8 74  1  0  0  0  0
 10  9  1  1  0  0  0
 10 11  1  0  0  0  0
 10 36  1  0  0  0  0
 10 56  1  0  0  0  0
 11 12  1  0  0  0  0
 11 34  1  0  0  0  0
 11 35  1  0  0  0  0
 12 13  1  0  0  0  0
 13 14  1  0  0  0  0
 13 32  1  0  0  0  0
 13 33  1  0  0  0  0
 14 15  1  0  0  0  0
 14 30  1  0  0  0  0
 14 31  1  0  0  0  0
 15 16  1  0  0  0  0
 15 20  1  0  0  0  0
 15 29  1  0  0  0  0
 16 17  1  0  0  0  0
 16 27  1  0  0  0  0
 16 28  1  0  0  0  0
 17 18  1  0  0  0  0
 17 25  1  0  0  0  0
 17 26  1  0  0  0  0
 18 19  1  0  0  0  0
 19 20  1  0  0  0  0
 19 23  1  0  0  0  0
 19 24  1  0  0  0  0
 20 21  1  0  0  0  0
 20 22  1  0  0  0  0
 36 37  2  0  0  0  0
 36 38  1  0  0  0  0
 38 39  1  0  0  0  0
 38 55  1  0  0  0  0
 39 40  2  0  0  0  0
 39 48  1  0  0  0  0
 40 41  1  0  0  0  0
 40 54  1  0  0  0  0
 41 42  2  0  0  0  0
 42 43  1  0  0  0  0
 42 53  1  0  0  0  0
 43 44  2  0  0  0  0
 43 48  1  0  0  0  0
 44 45  1  0  0  0  0
 44 52  1  0  0  0  0
 45 46  2  0  0  0  0
 45 51  1  0  0  0  0
 46 47  1  0  0  0  0
 46 50  1  0  0  0  0
 47 48  2  0  0  0  0
 47 49  1  0  0  0  0
 55 56  1  0  0  0  0
 55 72  1  0  0  0  0
 55 73  1  0  0  0  0
 56 57  1  0  0  0  0
 56 71  1  1  0  0  0
 57 58  1  0  0  0  0
 57 69  1  0  0  0  0
 57 70  1  0  0  0  0
 58 59  1  0  0  0  0
 58 68  1  0  0  0  0
 59 60  2  0  0  0  0
 59 64  1  0  0  0  0
 60 61  1  0  0  0  0
 61 62  2  0  0  0  0
 61 67  1  0  0  0  0
 62 63  1  0  0  0  0
 62 66  1  0  0  0  0
 63 64  2  0  0  0  0
 63 65  1  0  0  0  0
M  CHG  1  15   1
M  END
>  <MODEL>
       1

$$$$
