tmp_first_model_13_39.pdb
 OpenBabel08282500103D

 40 44  0  0  1  0  0  0  0  0999 V2000
   -5.1690   -0.4460  -25.7360 C   0  0  0  0  0  0  0  0  0  0  0  0
   -6.6430   -0.3490  -25.3760 C   0  0  0  0  0  0  0  0  0  0  0  0
   -7.2410    0.7190  -25.3720 O   0  0  0  0  0  0  0  0  0  0  0  0
   -7.2810   -1.5210  -25.0850 N   0  0  0  0  0  0  0  0  0  0  0  0
   -6.6520   -2.8100  -24.7270 C   0  0  0  0  0  0  0  0  0  0  0  0
   -7.8280   -3.5190  -24.0270 C   0  0  2  0  0  0  0  0  0  0  0  0
   -9.0230   -2.9960  -24.8410 C   0  0  0  0  0  0  0  0  0  0  0  0
   -8.6710   -1.5260  -24.5550 C   0  0  1  0  0  0  0  0  0  0  0  0
   -8.5540   -1.5730  -23.0870 C   0  0  0  0  0  0  0  0  0  0  0  0
   -8.1580   -0.6220  -22.0910 C   0  0  0  0  0  0  0  0  0  0  0  0
   -8.3490    0.5660  -21.9950 O   0  5  0  0  0  0  0  0  0  0  0  0
   -7.3910   -1.3990  -21.1860 N   0  0  0  0  0  0  0  0  0  0  0  0
   -6.5760   -0.8290  -20.1730 C   0  0  0  0  0  0  0  0  0  0  0  0
   -6.8880   -1.0570  -18.8590 C   0  0  0  0  0  0  0  0  0  0  0  0
   -6.1910   -0.5400  -17.8190 N   0  0  0  0  0  0  0  0  0  0  0  0
   -5.1620    0.2190  -18.0860 C   0  0  0  0  0  0  0  0  0  0  0  0
   -4.7200    0.5300  -19.4010 C   0  0  0  0  0  0  0  0  0  0  0  0
   -3.5870    1.3550  -19.6350 C   0  0  0  0  0  0  0  0  0  0  0  0
   -3.1760    1.6250  -20.9110 C   0  0  0  0  0  0  0  0  0  0  0  0
   -3.8800    1.0690  -22.0040 C   0  0  0  0  0  0  0  0  0  0  0  0
   -4.9750    0.2670  -21.8050 C   0  0  0  0  0  0  0  0  0  0  0  0
   -5.4410   -0.0140  -20.4900 C   0  0  0  0  0  0  0  0  0  0  0  0
   -5.4960   -0.1490  -22.6650 H   0  0  0  0  0  0  0  0  0  0  0  0
   -3.5600    1.2880  -23.0180 H   0  0  0  0  0  0  0  0  0  0  0  0
   -2.3200    2.2690  -21.0930 H   0  0  0  0  0  0  0  0  0  0  0  0
   -3.0680    1.7670  -18.7740 H   0  0  0  0  0  0  0  0  0  0  0  0
   -4.6200    0.6230  -17.2300 H   0  0  0  0  0  0  0  0  0  0  0  0
   -7.7370   -1.6800  -18.5950 H   0  0  0  0  0  0  0  0  0  0  0  0
   -7.2470   -2.7220  -21.6280 C   0  0  0  0  0  0  0  0  0  0  0  0
   -6.5220   -3.5650  -21.1620 O   0  0  0  0  0  0  0  0  0  0  0  0
   -8.0670   -2.8080  -22.7490 N   0  0  0  0  0  0  0  0  0  0  0  0
   -9.2600   -0.7140  -24.9840 H   0  0  0  0  0  0  0  0  0  0  0  0
   -8.9650   -3.2410  -25.9060 H   0  0  0  0  0  0  0  0  0  0  0  0
   -9.9840   -3.3010  -24.4300 H   0  0  0  0  0  0  0  0  0  0  0  0
   -7.7190   -4.5860  -23.8800 H   0  0  0  0  0  0  0  0  0  0  0  0
   -5.8050   -2.7080  -24.0360 H   0  0  0  0  0  0  0  0  0  0  0  0
   -6.3310   -3.3490  -25.6220 H   0  0  0  0  0  0  0  0  0  0  0  0
   -4.9800   -1.1840  -26.5240 H   0  0  0  0  0  0  0  0  0  0  0  0
   -4.8800    0.5480  -26.0780 H   0  0  0  0  0  0  0  0  0  0  0  0
   -4.5390   -0.7250  -24.8810 H   0  0  0  0  0  0  0  0  0  0  0  0
  1  2  1  0  0  0  0
  1 38  1  0  0  0  0
  1 39  1  0  0  0  0
  1 40  1  0  0  0  0
  2  3  2  0  0  0  0
  2  4  1  0  0  0  0
  4  5  1  0  0  0  0
  4  8  1  0  0  0  0
  5  6  1  0  0  0  0
  5 36  1  0  0  0  0
  5 37  1  0  0  0  0
  6  7  1  0  0  0  0
  6 31  1  0  0  0  0
  6 35  1  1  0  0  0
  7  8  1  0  0  0  0
  7 33  1  0  0  0  0
  7 34  1  0  0  0  0
  8  9  1  0  0  0  0
  8 32  1  6  0  0  0
  9 10  2  0  0  0  0
  9 31  1  0  0  0  0
 10 11  1  0  0  0  0
 10 12  1  0  0  0  0
 12 13  1  0  0  0  0
 12 29  1  0  0  0  0
 13 14  2  0  0  0  0
 13 22  1  0  0  0  0
 14 15  1  0  0  0  0
 14 28  1  0  0  0  0
 15 16  2  0  0  0  0
 16 17  1  0  0  0  0
 16 27  1  0  0  0  0
 17 18  2  0  0  0  0
 17 22  1  0  0  0  0
 18 19  1  0  0  0  0
 18 26  1  0  0  0  0
 19 20  2  0  0  0  0
 19 25  1  0  0  0  0
 20 21  1  0  0  0  0
 20 24  1  0  0  0  0
 21 22  2  0  0  0  0
 21 23  1  0  0  0  0
 29 30  2  0  0  0  0
 29 31  1  0  0  0  0
M  CHG  1  11  -1
M  END
>  <MODEL>
       1

$$$$
