tmp_first_model_18_86.pdb
 OpenBabel08282502533D

 43 45  0  0  1  0  0  0  0  0999 V2000
   -8.5440   -5.5610  -25.7850 C   0  0  0  0  0  0  0  0  0  0  0  0
   -9.0570   -5.4440  -24.3480 C   0  0  1  0  0  0  0  0  0  0  0  0
   -8.0200   -5.8730  -23.3140 C   0  0  0  0  0  0  0  0  0  0  0  0
   -6.9330   -4.8290  -23.0970 C   0  0  0  0  0  0  0  0  0  0  0  0
   -7.5150   -3.5420  -22.7120 N   0  0  0  0  0  0  0  0  0  0  0  0
   -6.7550   -2.7470  -21.8640 C   0  0  0  0  0  0  0  0  0  0  0  0
   -5.6230   -3.0640  -21.5480 O   0  0  0  0  0  0  0  0  0  0  0  0
   -7.4120   -1.4740  -21.2700 C   0  0  0  0  0  0  0  0  0  0  0  0
   -6.5790   -0.8310  -20.1830 C   0  0  0  0  0  0  0  0  0  0  0  0
   -6.8730   -1.0470  -18.8620 C   0  0  0  0  0  0  0  0  0  0  0  0
   -6.1890   -0.5440  -17.7980 N   0  0  0  0  0  0  0  0  0  0  0  0
   -5.1590    0.2230  -18.0650 C   0  0  0  0  0  0  0  0  0  0  0  0
   -4.7230    0.5310  -19.3800 C   0  0  0  0  0  0  0  0  0  0  0  0
   -3.5940    1.3580  -19.6210 C   0  0  0  0  0  0  0  0  0  0  0  0
   -3.1910    1.6340  -20.9000 C   0  0  0  0  0  0  0  0  0  0  0  0
   -3.9020    1.0900  -21.9920 C   0  0  0  0  0  0  0  0  0  0  0  0
   -4.9980    0.2880  -21.7850 C   0  0  0  0  0  0  0  0  0  0  0  0
   -5.4450   -0.0130  -20.4730 C   0  0  0  0  0  0  0  0  0  0  0  0
   -5.5240   -0.1330  -22.6360 H   0  0  0  0  0  0  0  0  0  0  0  0
   -3.5770    1.3090  -23.0050 H   0  0  0  0  0  0  0  0  0  0  0  0
   -2.3300    2.2710  -21.0860 H   0  0  0  0  0  0  0  0  0  0  0  0
   -3.0600    1.7720  -18.7690 H   0  0  0  0  0  0  0  0  0  0  0  0
   -4.6050    0.6290  -17.2160 H   0  0  0  0  0  0  0  0  0  0  0  0
   -7.7210   -1.6700  -18.5850 H   0  0  0  0  0  0  0  0  0  0  0  0
   -7.6210   -0.7480  -22.0680 H   0  0  0  0  0  0  0  0  0  0  0  0
   -8.3920   -1.7510  -20.8550 H   0  0  0  0  0  0  0  0  0  0  0  0
   -8.5400   -2.9950  -23.6130 C   0  0  1  0  0  0  0  0  0  0  0  0
   -7.9410   -2.2910  -24.8400 C   0  0  0  0  0  0  0  0  0  0  0  0
   -8.7280   -1.9760  -25.5350 H   0  0  0  0  0  0  0  0  0  0  0  0
   -7.2480   -2.9310  -25.3930 H   0  0  0  0  0  0  0  0  0  0  0  0
   -7.3900   -1.3890  -24.5500 H   0  0  0  0  0  0  0  0  0  0  0  0
   -9.5890   -4.0620  -23.9670 C   0  0  0  0  0  0  0  0  0  0  0  0
  -10.2120   -3.6820  -24.7830 H   0  0  0  0  0  0  0  0  0  0  0  0
  -10.2610   -4.1730  -23.1090 H   0  0  0  0  0  0  0  0  0  0  0  0
   -9.0790   -2.2360  -23.0430 H   0  0  0  0  0  0  0  0  0  0  0  0
   -6.2960   -4.7510  -23.9900 H   0  0  0  0  0  0  0  0  0  0  0  0
   -6.2730   -5.1430  -22.2910 H   0  0  0  0  0  0  0  0  0  0  0  0
   -7.5730   -6.8270  -23.6140 H   0  0  0  0  0  0  0  0  0  0  0  0
   -8.5000   -6.0460  -22.3500 H   0  0  0  0  0  0  0  0  0  0  0  0
   -9.9080   -6.1300  -24.2890 H   0  0  0  0  0  0  0  0  0  0  0  0
   -7.5980   -5.0380  -25.9420 H   0  0  0  0  0  0  0  0  0  0  0  0
   -8.3800   -6.6130  -26.0490 H   0  0  0  0  0  0  0  0  0  0  0  0
   -9.2680   -5.1520  -26.4970 H   0  0  0  0  0  0  0  0  0  0  0  0
  1  2  1  0  0  0  0
  1 41  1  0  0  0  0
  1 42  1  0  0  0  0
  1 43  1  0  0  0  0
  2  3  1  0  0  0  0
  2 32  1  0  0  0  0
  2 40  1  1  0  0  0
  3  4  1  0  0  0  0
  3 38  1  0  0  0  0
  3 39  1  0  0  0  0
  4  5  1  0  0  0  0
  4 36  1  0  0  0  0
  4 37  1  0  0  0  0
  5  6  1  0  0  0  0
  5 27  1  0  0  0  0
  6  7  2  0  0  0  0
  6  8  1  0  0  0  0
  8  9  1  0  0  0  0
  8 25  1  0  0  0  0
  8 26  1  0  0  0  0
  9 10  2  0  0  0  0
  9 18  1  0  0  0  0
 10 11  1  0  0  0  0
 10 24  1  0  0  0  0
 11 12  2  0  0  0  0
 12 13  1  0  0  0  0
 12 23  1  0  0  0  0
 13 14  2  0  0  0  0
 13 18  1  0  0  0  0
 14 15  1  0  0  0  0
 14 22  1  0  0  0  0
 15 16  2  0  0  0  0
 15 21  1  0  0  0  0
 16 17  1  0  0  0  0
 16 20  1  0  0  0  0
 17 18  2  0  0  0  0
 17 19  1  0  0  0  0
 27 28  1  0  0  0  0
 27 32  1  0  0  0  0
 27 35  1  1  0  0  0
 28 29  1  0  0  0  0
 28 30  1  0  0  0  0
 28 31  1  0  0  0  0
 32 33  1  0  0  0  0
 32 34  1  0  0  0  0
M  END
>  <MODEL>
       1

$$$$
