tmp_first_model_6_74.pdb
 OpenBabel08272519583D

 43 47  0  0  1  0  0  0  0  0999 V2000
   -9.0730    0.1690  -21.0790 O   0  0  0  0  0  0  0  0  0  0  0  0
   -8.6610   -0.9000  -21.4750 C   0  0  0  0  0  0  0  0  0  0  0  0
   -9.2810   -1.8060  -22.2880 N   0  0  0  0  0  0  0  0  0  0  0  0
   -8.5950   -3.0780  -22.3430 C   0  0  1  0  0  0  0  0  0  0  0  0
   -9.3980   -4.3260  -21.9130 C   0  0  0  0  0  0  0  0  0  0  0  0
   -9.3120   -4.8930  -23.3580 C   0  0  2  0  0  0  0  0  0  0  0  0
   -8.6390   -6.2360  -23.3800 C   0  0  0  0  0  0  0  0  0  0  0  0
   -7.3760   -6.4200  -22.7950 C   0  0  0  0  0  0  0  0  0  0  0  0
   -6.7780   -7.6690  -22.6920 C   0  0  0  0  0  0  0  0  0  0  0  0
   -7.4640   -8.7780  -23.1760 C   0  0  0  0  0  0  0  0  0  0  0  0
   -8.6960   -8.6200  -23.7910 C   0  0  0  0  0  0  0  0  0  0  0  0
   -9.2570   -7.3590  -23.9120 C   0  0  0  0  0  0  0  0  0  0  0  0
  -10.7580   -7.2030  -24.7670 Cl  0  0  0  0  0  0  0  0  0  0  0  0
   -9.1980   -9.4790  -24.2170 H   0  0  0  0  0  0  0  0  0  0  0  0
   -7.0670   -9.7820  -23.0750 H   0  0  0  0  0  0  0  0  0  0  0  0
   -5.7960   -7.7580  -22.2270 H   0  0  0  0  0  0  0  0  0  0  0  0
   -6.8380   -5.5620  -22.3990 H   0  0  0  0  0  0  0  0  0  0  0  0
   -8.3930   -3.6990  -23.7500 C   0  0  0  0  0  0  0  0  0  0  0  0
   -8.7640   -3.0410  -24.5420 H   0  0  0  0  0  0  0  0  0  0  0  0
   -7.3640   -4.0130  -23.9630 H   0  0  0  0  0  0  0  0  0  0  0  0
  -10.2640   -4.8780  -23.8920 H   0  0  0  0  0  0  0  0  0  0  0  0
   -8.7960   -4.9720  -21.2910 H   0  0  0  0  0  0  0  0  0  0  0  0
  -10.3720   -4.1730  -21.4340 H   0  0  0  0  0  0  0  0  0  0  0  0
   -7.3220   -2.7890  -21.5590 C   0  0  0  0  0  0  0  0  0  0  0  0
   -6.4220   -3.5530  -21.2960 O   0  0  0  0  0  0  0  0  0  0  0  0
   -7.4030   -1.4480  -21.1720 N   0  0  0  0  0  0  0  0  0  0  0  0
   -6.5980   -0.8680  -20.1590 C   0  0  0  0  0  0  0  0  0  0  0  0
   -6.9110   -1.0980  -18.8460 C   0  0  0  0  0  0  0  0  0  0  0  0
   -6.2240   -0.5850  -17.7970 N   0  0  0  0  0  0  0  0  0  0  0  0
   -5.2100    0.1970  -18.0700 C   0  0  0  0  0  0  0  0  0  0  0  0
   -4.8000    0.5330  -19.3900 C   0  0  0  0  0  0  0  0  0  0  0  0
   -3.6770    1.3560  -19.6200 C   0  0  0  0  0  0  0  0  0  0  0  0
   -3.3080    1.6790  -20.8930 C   0  0  0  0  0  0  0  0  0  0  0  0
   -4.0500    1.2000  -21.9910 C   0  0  0  0  0  0  0  0  0  0  0  0
   -5.1300    0.3730  -21.8020 C   0  0  0  0  0  0  0  0  0  0  0  0
   -5.5180    0.0070  -20.4840 C   0  0  0  0  0  0  0  0  0  0  0  0
   -5.6660   -0.0140  -22.6630 H   0  0  0  0  0  0  0  0  0  0  0  0
   -3.7390    1.4650  -22.9960 H   0  0  0  0  0  0  0  0  0  0  0  0
   -2.4390    2.3010  -21.0690 H   0  0  0  0  0  0  0  0  0  0  0  0
   -3.1250    1.7150  -18.7610 H   0  0  0  0  0  0  0  0  0  0  0  0
   -4.6390    0.6020  -17.2310 H   0  0  0  0  0  0  0  0  0  0  0  0
   -7.7580   -1.7300  -18.5870 H   0  0  0  0  0  0  0  0  0  0  0  0
  -10.2740   -1.7110  -22.4500 H   0  0  0  0  0  0  0  0  0  0  0  0
  1  2  2  0  0  0  0
  2  3  1  0  0  0  0
  2 26  1  0  0  0  0
  3  4  1  0  0  0  0
  3 43  1  0  0  0  0
  4  5  1  0  0  0  0
  4 18  1  0  0  0  0
  4 24  1  1  0  0  0
  5  6  1  0  0  0  0
  5 22  1  0  0  0  0
  5 23  1  0  0  0  0
  6  7  1  0  0  0  0
  6 18  1  0  0  0  0
  6 21  1  6  0  0  0
  7  8  2  0  0  0  0
  7 12  1  0  0  0  0
  8  9  1  0  0  0  0
  8 17  1  0  0  0  0
  9 10  2  0  0  0  0
  9 16  1  0  0  0  0
 10 11  1  0  0  0  0
 10 15  1  0  0  0  0
 11 12  2  0  0  0  0
 11 14  1  0  0  0  0
 12 13  1  0  0  0  0
 18 19  1  0  0  0  0
 18 20  1  0  0  0  0
 24 25  2  0  0  0  0
 24 26  1  0  0  0  0
 26 27  1  0  0  0  0
 27 28  2  0  0  0  0
 27 36  1  0  0  0  0
 28 29  1  0  0  0  0
 28 42  1  0  0  0  0
 29 30  2  0  0  0  0
 30 31  1  0  0  0  0
 30 41  1  0  0  0  0
 31 32  2  0  0  0  0
 31 36  1  0  0  0  0
 32 33  1  0  0  0  0
 32 40  1  0  0  0  0
 33 34  2  0  0  0  0
 33 39  1  0  0  0  0
 34 35  1  0  0  0  0
 34 38  1  0  0  0  0
 35 36  2  0  0  0  0
 35 37  1  0  0  0  0
M  END
>  <MODEL>
       1

$$$$
