tmp_first_model_18_68.pdb
 OpenBabel08282502533D

 65 70  0  0  1  0  0  0  0  0999 V2000
   -5.8720   -3.3950  -20.9240 O   0  0  0  0  0  0  0  0  0  0  0  0
   -6.8330   -2.9640  -21.5370 C   0  0  0  0  0  0  0  0  0  0  0  0
   -7.4020   -1.5730  -21.2220 C   0  0  0  0  0  0  0  0  0  0  0  0
   -6.6070   -0.8620  -20.1620 C   0  0  0  0  0  0  0  0  0  0  0  0
   -6.9060   -1.0580  -18.8380 C   0  0  0  0  0  0  0  0  0  0  0  0
   -6.2300   -0.5360  -17.7830 N   0  0  0  0  0  0  0  0  0  0  0  0
   -5.1990    0.2260  -18.0620 C   0  0  0  0  0  0  0  0  0  0  0  0
   -4.7620    0.5200  -19.3840 C   0  0  0  0  0  0  0  0  0  0  0  0
   -3.6350    1.3480  -19.6230 C   0  0  0  0  0  0  0  0  0  0  0  0
   -3.2310    1.6210  -20.9020 C   0  0  0  0  0  0  0  0  0  0  0  0
   -3.9440    1.0760  -21.9940 C   0  0  0  0  0  0  0  0  0  0  0  0
   -5.0440    0.2800  -21.7850 C   0  0  0  0  0  0  0  0  0  0  0  0
   -5.4840   -0.0310  -20.4700 C   0  0  0  0  0  0  0  0  0  0  0  0
   -5.5770   -0.1090  -22.6490 H   0  0  0  0  0  0  0  0  0  0  0  0
   -3.6170    1.2900  -23.0090 H   0  0  0  0  0  0  0  0  0  0  0  0
   -2.3720    2.2600  -21.0820 H   0  0  0  0  0  0  0  0  0  0  0  0
   -3.1050    1.7590  -18.7670 H   0  0  0  0  0  0  0  0  0  0  0  0
   -4.6440    0.6470  -17.2230 H   0  0  0  0  0  0  0  0  0  0  0  0
   -7.7540   -1.6900  -18.5700 H   0  0  0  0  0  0  0  0  0  0  0  0
   -8.4420   -1.6940  -20.8940 H   0  0  0  0  0  0  0  0  0  0  0  0
   -7.4190   -1.0030  -22.1580 H   0  0  0  0  0  0  0  0  0  0  0  0
   -7.3770   -3.6780  -22.6010 N   0  0  0  0  0  0  0  0  0  0  0  0
   -6.4060   -4.5640  -23.2600 C   0  0  0  0  0  0  0  0  0  0  0  0
   -5.7980   -3.9470  -24.5120 C   0  0  0  0  0  0  0  0  0  0  0  0
   -5.7550   -4.6130  -25.7370 C   0  0  0  0  0  0  0  0  0  0  0  0
   -5.1790   -4.0110  -26.8530 C   0  0  0  0  0  0  0  0  0  0  0  0
   -4.6130   -2.7460  -26.7650 C   0  0  0  0  0  0  0  0  0  0  0  0
   -4.6510   -2.0920  -25.5410 C   0  0  0  0  0  0  0  0  0  0  0  0
   -3.9240   -0.5080  -25.4040 Cl  0  0  0  0  0  0  0  0  0  0  0  0
   -5.2520   -2.6640  -24.4290 C   0  0  0  0  0  0  0  0  0  0  0  0
   -5.2800   -2.1060  -23.4960 H   0  0  0  0  0  0  0  0  0  0  0  0
   -4.1540   -2.2690  -27.6250 H   0  0  0  0  0  0  0  0  0  0  0  0
   -5.1890   -4.5300  -27.8070 H   0  0  0  0  0  0  0  0  0  0  0  0
   -6.1810   -5.6120  -25.8330 H   0  0  0  0  0  0  0  0  0  0  0  0
   -5.6270   -4.7190  -22.5100 H   0  0  0  0  0  0  0  0  0  0  0  0
   -6.8670   -5.5340  -23.4650 H   0  0  0  0  0  0  0  0  0  0  0  0
   -8.7790   -3.6570  -23.0410 C   0  0  2  0  0  0  0  0  0  0  0  0
   -9.0600   -4.6600  -24.1930 C   0  0  0  0  0  0  0  0  0  0  0  0
  -10.4340   -4.2490  -24.7480 C   0  0  0  0  0  0  0  0  0  0  0  0
  -10.7680   -3.0190  -23.9030 C   0  0  2  0  0  0  0  0  0  0  0  0
   -9.3990   -2.3810  -23.6400 C   0  0  0  0  0  0  0  0  0  0  0  0
   -9.4720   -1.5430  -22.9390 H   0  0  0  0  0  0  0  0  0  0  0  0
   -8.9000   -2.0580  -24.5590 H   0  0  0  0  0  0  0  0  0  0  0  0
  -11.1660   -3.5750  -22.5310 N   0  3  2  0  0  0  0  0  0  0  0  0
  -11.9910   -2.6810  -21.6510 C   0  0  0  0  0  0  0  0  0  0  0  0
  -13.4460   -2.5560  -22.0990 C   0  0  0  0  0  0  0  0  0  0  0  0
  -14.4130   -1.8320  -21.1170 C   0  0  0  0  0  0  0  0  0  0  0  0
  -15.0940   -3.0530  -20.8050 O   0  0  0  0  0  0  0  0  0  0  0  0
  -14.2630   -3.8040  -21.6940 C   0  0  0  0  0  0  0  0  0  0  0  0
  -13.6700   -4.5470  -21.1340 H   0  0  0  0  0  0  0  0  0  0  0  0
  -14.8330   -4.3050  -22.4850 H   0  0  0  0  0  0  0  0  0  0  0  0
  -14.0000   -1.3870  -20.2050 H   0  0  0  0  0  0  0  0  0  0  0  0
  -15.1050   -1.0960  -21.5470 H   0  0  0  0  0  0  0  0  0  0  0  0
  -13.5150   -2.2350  -23.1460 H   0  0  0  0  0  0  0  0  0  0  0  0
  -11.4970   -1.7120  -21.5040 H   0  0  0  0  0  0  0  0  0  0  0  0
  -12.0500   -3.1570  -20.6740 H   0  0  0  0  0  0  0  0  0  0  0  0
   -9.8200   -3.9850  -21.9390 C   0  0  0  0  0  0  0  0  0  0  0  0
   -9.8270   -5.0440  -21.6900 H   0  0  0  0  0  0  0  0  0  0  0  0
   -9.6470   -3.4160  -21.0250 H   0  0  0  0  0  0  0  0  0  0  0  0
  -11.7520   -4.4210  -22.6580 H   0  0  0  0  0  0  0  0  0  0  0  0
  -11.5550   -2.3820  -24.2920 H   0  0  0  0  0  0  0  0  0  0  0  0
  -11.1770   -5.0390  -24.6040 H   0  0  0  0  0  0  0  0  0  0  0  0
  -10.3890   -4.0040  -25.8130 H   0  0  0  0  0  0  0  0  0  0  0  0
   -8.3000   -4.5460  -24.9670 H   0  0  0  0  0  0  0  0  0  0  0  0
   -9.0430   -5.6940  -23.8320 H   0  0  0  0  0  0  0  0  0  0  0  0
  1  2  2  0  0  0  0
  2  3  1  0  0  0  0
  2 22  1  0  0  0  0
  3  4  1  0  0  0  0
  3 20  1  0  0  0  0
  3 21  1  0  0  0  0
  4  5  2  0  0  0  0
  4 13  1  0  0  0  0
  5  6  1  0  0  0  0
  5 19  1  0  0  0  0
  6  7  2  0  0  0  0
  7  8  1  0  0  0  0
  7 18  1  0  0  0  0
  8  9  2  0  0  0  0
  8 13  1  0  0  0  0
  9 10  1  0  0  0  0
  9 17  1  0  0  0  0
 10 11  2  0  0  0  0
 10 16  1  0  0  0  0
 11 12  1  0  0  0  0
 11 15  1  0  0  0  0
 12 13  2  0  0  0  0
 12 14  1  0  0  0  0
 22 23  1  0  0  0  0
 23 24  1  0  0  0  0
 23 35  1  0  0  0  0
 23 36  1  0  0  0  0
 24 25  2  0  0  0  0
 24 30  1  0  0  0  0
 25 26  1  0  0  0  0
 25 34  1  0  0  0  0
 26 27  2  0  0  0  0
 26 33  1  0  0  0  0
 27 28  1  0  0  0  0
 27 32  1  0  0  0  0
 28 29  1  0  0  0  0
 28 30  2  0  0  0  0
 30 31  1  0  0  0  0
 37 22  1  1  0  0  0
 37 38  1  0  0  0  0
 37 41  1  0  0  0  0
 37 57  1  0  0  0  0
 38 39  1  0  0  0  0
 38 64  1  0  0  0  0
 38 65  1  0  0  0  0
 39 40  1  0  0  0  0
 39 62  1  0  0  0  0
 39 63  1  0  0  0  0
 40 41  1  0  0  0  0
 40 44  1  0  0  0  0
 40 61  1  6  0  0  0
 41 42  1  0  0  0  0
 41 43  1  0  0  0  0
 44 45  1  0  0  0  0
 44 57  1  0  0  0  0
 44 60  1  6  0  0  0
 45 46  1  0  0  0  0
 45 55  1  0  0  0  0
 45 56  1  0  0  0  0
 46 47  1  0  0  0  0
 46 49  1  0  0  0  0
 46 54  1  0  0  0  0
 47 48  1  0  0  0  0
 47 52  1  0  0  0  0
 47 53  1  0  0  0  0
 48 49  1  0  0  0  0
 49 50  1  0  0  0  0
 49 51  1  0  0  0  0
 57 58  1  0  0  0  0
 57 59  1  0  0  0  0
M  CHG  1  44   1
M  END
>  <MODEL>
       1

$$$$
