tmp_first_model_13_82.pdb
 OpenBabel08282500103D

 54 57  0  0  1  0  0  0  0  0999 V2000
  -10.6430    0.3420  -25.3660 C   0  0  0  0  0  0  0  0  0  0  0  0
   -9.7680   -0.5780  -24.7730 O   0  0  0  0  0  0  0  0  0  0  0  0
   -8.4670   -0.5230  -25.1660 C   0  0  0  0  0  0  0  0  0  0  0  0
   -7.9480    0.4960  -25.9690 C   0  0  0  0  0  0  0  0  0  0  0  0
   -6.5820    0.5280  -26.2400 C   0  0  0  0  0  0  0  0  0  0  0  0
   -5.7560   -0.4590  -25.7260 C   0  0  0  0  0  0  0  0  0  0  0  0
   -6.2970   -1.4830  -24.9470 C   0  0  0  0  0  0  0  0  0  0  0  0
   -7.6540   -1.5560  -24.6700 C   0  0  0  0  0  0  0  0  0  0  0  0
   -8.2990   -2.6690  -23.8360 C   0  0  1  0  0  0  0  0  0  0  0  0
   -9.1460   -3.6470  -24.6880 C   0  0  0  0  0  0  0  0  0  0  0  0
   -8.4070   -4.8570  -25.2720 C   0  0  1  0  0  0  0  0  0  0  0  0
   -7.4990   -4.5290  -26.4630 C   0  0  0  0  0  0  0  0  0  0  0  0
   -6.6730   -3.8690  -26.1820 H   0  0  0  0  0  0  0  0  0  0  0  0
   -7.0710   -5.4460  -26.8880 H   0  0  0  0  0  0  0  0  0  0  0  0
   -8.0620   -4.0220  -27.2550 H   0  0  0  0  0  0  0  0  0  0  0  0
   -7.6730   -5.5520  -24.1220 C   0  0  0  0  0  0  0  0  0  0  0  0
   -6.7120   -4.6110  -23.4050 C   0  0  0  0  0  0  0  0  0  0  0  0
   -7.3560   -3.3710  -22.9600 N   0  0  0  0  0  0  0  0  0  0  0  0
   -6.7450   -2.7500  -21.8850 C   0  0  0  0  0  0  0  0  0  0  0  0
   -5.7330   -3.2130  -21.3880 O   0  0  0  0  0  0  0  0  0  0  0  0
   -7.3970   -1.4810  -21.2900 C   0  0  0  0  0  0  0  0  0  0  0  0
   -6.5720   -0.8450  -20.1950 C   0  0  0  0  0  0  0  0  0  0  0  0
   -6.8730   -1.0570  -18.8740 C   0  0  0  0  0  0  0  0  0  0  0  0
   -6.1910   -0.5430  -17.8170 N   0  0  0  0  0  0  0  0  0  0  0  0
   -5.1590    0.2160  -18.0760 C   0  0  0  0  0  0  0  0  0  0  0  0
   -4.7190    0.5250  -19.3920 C   0  0  0  0  0  0  0  0  0  0  0  0
   -3.5940    1.3540  -19.6270 C   0  0  0  0  0  0  0  0  0  0  0  0
   -3.1950    1.6300  -20.9050 C   0  0  0  0  0  0  0  0  0  0  0  0
   -3.9050    1.0880  -22.0000 C   0  0  0  0  0  0  0  0  0  0  0  0
   -5.0000    0.2820  -21.7970 C   0  0  0  0  0  0  0  0  0  0  0  0
   -5.4400   -0.0210  -20.4820 C   0  0  0  0  0  0  0  0  0  0  0  0
   -5.5360   -0.1260  -22.6510 H   0  0  0  0  0  0  0  0  0  0  0  0
   -3.5880    1.3140  -23.0130 H   0  0  0  0  0  0  0  0  0  0  0  0
   -2.3390    2.2730  -21.0870 H   0  0  0  0  0  0  0  0  0  0  0  0
   -3.0670    1.7660  -18.7690 H   0  0  0  0  0  0  0  0  0  0  0  0
   -4.6130    0.6260  -17.2240 H   0  0  0  0  0  0  0  0  0  0  0  0
   -7.7240   -1.6760  -18.5940 H   0  0  0  0  0  0  0  0  0  0  0  0
   -7.6160   -0.7590  -22.0880 H   0  0  0  0  0  0  0  0  0  0  0  0
   -8.3710   -1.7820  -20.8780 H   0  0  0  0  0  0  0  0  0  0  0  0
   -6.3180   -5.0860  -22.5060 H   0  0  0  0  0  0  0  0  0  0  0  0
   -5.8410   -4.4000  -24.0480 H   0  0  0  0  0  0  0  0  0  0  0  0
   -8.4120   -5.9240  -23.3980 H   0  0  0  0  0  0  0  0  0  0  0  0
   -7.1110   -6.4200  -24.4980 H   0  0  0  0  0  0  0  0  0  0  0  0
   -9.1800   -5.5500  -25.6360 H   0  0  0  0  0  0  0  0  0  0  0  0
   -9.6220   -3.0730  -25.4920 H   0  0  0  0  0  0  0  0  0  0  0  0
   -9.9490   -4.0250  -24.0410 H   0  0  0  0  0  0  0  0  0  0  0  0
   -9.0240   -2.1680  -23.1840 H   0  0  0  0  0  0  0  0  0  0  0  0
   -5.6430   -2.2570  -24.5520 H   0  0  0  0  0  0  0  0  0  0  0  0
   -4.6890   -0.4550  -25.9200 H   0  0  0  0  0  0  0  0  0  0  0  0
   -6.1650    1.3350  -26.8390 H   0  0  0  0  0  0  0  0  0  0  0  0
   -8.5860    1.2780  -26.3670 H   0  0  0  0  0  0  0  0  0  0  0  0
  -11.6520    0.0420  -25.0790 H   0  0  0  0  0  0  0  0  0  0  0  0
  -10.5340    0.3220  -26.4590 H   0  0  0  0  0  0  0  0  0  0  0  0
  -10.4400    1.3570  -25.0010 H   0  0  0  0  0  0  0  0  0  0  0  0
  1  2  1  0  0  0  0
  1 52  1  0  0  0  0
  1 53  1  0  0  0  0
  1 54  1  0  0  0  0
  2  3  1  0  0  0  0
  3  4  2  0  0  0  0
  3  8  1  0  0  0  0
  4  5  1  0  0  0  0
  4 51  1  0  0  0  0
  5  6  2  0  0  0  0
  5 50  1  0  0  0  0
  6  7  1  0  0  0  0
  6 49  1  0  0  0  0
  7  8  2  0  0  0  0
  7 48  1  0  0  0  0
  8  9  1  0  0  0  0
  9 10  1  0  0  0  0
  9 18  1  0  0  0  0
  9 47  1  1  0  0  0
 10 11  1  0  0  0  0
 10 45  1  0  0  0  0
 10 46  1  0  0  0  0
 11 12  1  0  0  0  0
 11 16  1  0  0  0  0
 11 44  1  6  0  0  0
 12 13  1  0  0  0  0
 12 14  1  0  0  0  0
 12 15  1  0  0  0  0
 16 17  1  0  0  0  0
 16 42  1  0  0  0  0
 16 43  1  0  0  0  0
 17 18  1  0  0  0  0
 17 40  1  0  0  0  0
 17 41  1  0  0  0  0
 18 19  1  0  0  0  0
 19 20  2  0  0  0  0
 19 21  1  0  0  0  0
 21 22  1  0  0  0  0
 21 38  1  0  0  0  0
 21 39  1  0  0  0  0
 22 23  2  0  0  0  0
 22 31  1  0  0  0  0
 23 24  1  0  0  0  0
 23 37  1  0  0  0  0
 24 25  2  0  0  0  0
 25 26  1  0  0  0  0
 25 36  1  0  0  0  0
 26 27  2  0  0  0  0
 26 31  1  0  0  0  0
 27 28  1  0  0  0  0
 27 35  1  0  0  0  0
 28 29  2  0  0  0  0
 28 34  1  0  0  0  0
 29 30  1  0  0  0  0
 29 33  1  0  0  0  0
 30 31  2  0  0  0  0
 30 32  1  0  0  0  0
M  END
>  <MODEL>
       1

$$$$
