tmp_first_model_16_53.pdb
 OpenBabel08282501503D

 59 63  0  0  1  0  0  0  0  0999 V2000
   -7.7360    4.4000  -22.3420 C   0  0  0  0  0  0  0  0  0  0  0  0
   -6.8370    3.4640  -23.1200 C   0  0  0  0  0  0  0  0  0  0  0  0
   -7.6300    2.7220  -24.0910 N   0  0  0  0  0  0  0  0  0  0  0  0
   -7.0260    1.7160  -24.7770 C   0  0  0  0  0  0  0  0  0  0  0  0
   -5.8240    1.5040  -24.7190 O   0  0  0  0  0  0  0  0  0  0  0  0
   -7.9360    0.8720  -25.6670 C   0  0  0  0  0  0  0  0  0  0  0  0
   -8.8840    0.0910  -24.9060 N   0  0  0  0  0  0  0  0  0  0  0  0
   -8.4820   -1.1990  -24.3770 C   0  0  0  0  0  0  0  0  0  0  0  0
   -9.0540   -1.4540  -22.9610 C   0  0  2  0  0  0  0  0  0  0  0  0
   -8.2970   -0.5540  -21.9650 C   0  0  0  0  0  0  0  0  0  0  0  0
   -8.3850    0.6500  -21.8650 O   0  0  0  0  0  0  0  0  0  0  0  0
   -7.4600   -1.3390  -21.2150 N   0  0  0  0  0  0  0  0  0  0  0  0
   -6.6230   -0.8320  -20.2010 C   0  0  0  0  0  0  0  0  0  0  0  0
   -6.9070   -1.1380  -18.8960 C   0  0  0  0  0  0  0  0  0  0  0  0
   -6.1470   -0.7760  -17.8390 N   0  0  0  0  0  0  0  0  0  0  0  0
   -5.0910   -0.0390  -18.0970 C   0  0  0  0  0  0  0  0  0  0  0  0
   -4.7190    0.4000  -19.4000 C   0  0  0  0  0  0  0  0  0  0  0  0
   -3.6160    1.2690  -19.6160 C   0  0  0  0  0  0  0  0  0  0  0  0
   -3.2250    1.5930  -20.8850 C   0  0  0  0  0  0  0  0  0  0  0  0
   -3.9230    1.0770  -22.0010 C   0  0  0  0  0  0  0  0  0  0  0  0
   -5.0210    0.2730  -21.8210 C   0  0  0  0  0  0  0  0  0  0  0  0
   -5.4700   -0.0540  -20.5080 C   0  0  0  0  0  0  0  0  0  0  0  0
   -5.5430   -0.1090  -22.6930 H   0  0  0  0  0  0  0  0  0  0  0  0
   -3.6080    1.3310  -23.0090 H   0  0  0  0  0  0  0  0  0  0  0  0
   -2.3680    2.2390  -21.0470 H   0  0  0  0  0  0  0  0  0  0  0  0
   -3.1050    1.6810  -18.7500 H   0  0  0  0  0  0  0  0  0  0  0  0
   -4.4590    0.2430  -17.2560 H   0  0  0  0  0  0  0  0  0  0  0  0
   -7.8230   -1.6870  -18.6750 H   0  0  0  0  0  0  0  0  0  0  0  0
   -7.4830   -2.7410  -21.5410 C   0  0  0  0  0  0  0  0  0  0  0  0
   -8.7000   -2.8950  -22.4690 C   0  0  2  0  0  0  0  0  0  0  0  0
   -8.4440   -3.9670  -23.5330 C   0  0  0  0  0  0  0  0  0  0  0  0
   -8.2510   -4.9400  -23.0630 H   0  0  0  0  0  0  0  0  0  0  0  0
   -7.5600   -3.7170  -24.1330 H   0  0  0  0  0  0  0  0  0  0  0  0
   -9.2920   -4.0910  -24.2150 H   0  0  0  0  0  0  0  0  0  0  0  0
   -9.5380   -3.2380  -21.8630 H   0  0  0  0  0  0  0  0  0  0  0  0
   -6.5480   -3.0420  -22.0380 H   0  0  0  0  0  0  0  0  0  0  0  0
   -7.5750   -3.3380  -20.6280 H   0  0  0  0  0  0  0  0  0  0  0  0
  -10.5360   -1.1100  -22.9680 C   0  0  0  0  0  0  0  0  0  0  0  0
  -11.4130   -1.6360  -22.0130 C   0  0  0  0  0  0  0  0  0  0  0  0
  -12.7660   -1.3460  -22.0790 C   0  0  0  0  0  0  0  0  0  0  0  0
  -13.8540   -2.2250  -21.0370 Cl  0  0  0  0  0  0  0  0  0  0  0  0
  -13.2750   -0.4070  -22.9740 C   0  0  0  0  0  0  0  0  0  0  0  0
  -12.4020    0.1620  -23.8770 C   0  0  0  0  0  0  0  0  0  0  0  0
  -11.0620   -0.2060  -23.9000 C   0  0  0  0  0  0  0  0  0  0  0  0
  -10.1830    0.5030  -24.8780 C   0  0  0  0  0  0  0  0  0  0  0  0
  -10.5900    1.4310  -25.5680 O   0  0  0  0  0  0  0  0  0  0  0  0
  -12.7130    0.9060  -24.5980 H   0  0  0  0  0  0  0  0  0  0  0  0
  -14.3200   -0.1200  -22.9400 H   0  0  0  0  0  0  0  0  0  0  0  0
  -11.0430   -2.2540  -21.2000 H   0  0  0  0  0  0  0  0  0  0  0  0
   -7.3860   -1.2440  -24.3590 H   0  0  0  0  0  0  0  0  0  0  0  0
   -8.8510   -1.9900  -25.0390 H   0  0  0  0  0  0  0  0  0  0  0  0
   -7.2940    0.2060  -26.2490 H   0  0  0  0  0  0  0  0  0  0  0  0
   -8.5260    1.5180  -26.3250 H   0  0  0  0  0  0  0  0  0  0  0  0
   -8.6360    2.7230  -23.9560 H   0  0  0  0  0  0  0  0  0  0  0  0
   -6.3500    2.7610  -22.4300 H   0  0  0  0  0  0  0  0  0  0  0  0
   -6.0370    3.9860  -23.6520 H   0  0  0  0  0  0  0  0  0  0  0  0
   -8.4790    3.7820  -21.8400 H   0  0  0  0  0  0  0  0  0  0  0  0
   -8.2580    5.1100  -22.9900 H   0  0  0  0  0  0  0  0  0  0  0  0
   -7.1890    4.9590  -21.5760 H   0  0  0  0  0  0  0  0  0  0  0  0
  1  2  1  0  0  0  0
  1 57  1  0  0  0  0
  1 58  1  0  0  0  0
  1 59  1  0  0  0  0
  2  3  1  0  0  0  0
  2 55  1  0  0  0  0
  2 56  1  0  0  0  0
  3  4  1  0  0  0  0
  3 54  1  0  0  0  0
  4  5  2  0  0  0  0
  4  6  1  0  0  0  0
  6  7  1  0  0  0  0
  6 52  1  0  0  0  0
  6 53  1  0  0  0  0
  7  8  1  0  0  0  0
  7 45  1  0  0  0  0
  8  9  1  0  0  0  0
  8 50  1  0  0  0  0
  8 51  1  0  0  0  0
  9 10  1  1  0  0  0
  9 30  1  0  0  0  0
  9 38  1  0  0  0  0
 10 11  2  0  0  0  0
 10 12  1  0  0  0  0
 12 13  1  0  0  0  0
 12 29  1  0  0  0  0
 13 14  2  0  0  0  0
 13 22  1  0  0  0  0
 14 15  1  0  0  0  0
 14 28  1  0  0  0  0
 15 16  2  0  0  0  0
 16 17  1  0  0  0  0
 16 27  1  0  0  0  0
 17 18  2  0  0  0  0
 17 22  1  0  0  0  0
 18 19  1  0  0  0  0
 18 26  1  0  0  0  0
 19 20  2  0  0  0  0
 19 25  1  0  0  0  0
 20 21  1  0  0  0  0
 20 24  1  0  0  0  0
 21 22  2  0  0  0  0
 21 23  1  0  0  0  0
 29 30  1  0  0  0  0
 29 36  1  0  0  0  0
 29 37  1  0  0  0  0
 30 31  1  0  0  0  0
 30 35  1  1  0  0  0
 31 32  1  0  0  0  0
 31 33  1  0  0  0  0
 31 34  1  0  0  0  0
 38 39  2  0  0  0  0
 38 44  1  0  0  0  0
 39 40  1  0  0  0  0
 39 49  1  0  0  0  0
 40 41  1  0  0  0  0
 40 42  2  0  0  0  0
 42 43  1  0  0  0  0
 42 48  1  0  0  0  0
 43 44  2  0  0  0  0
 43 47  1  0  0  0  0
 44 45  1  0  0  0  0
 45 46  2  0  0  0  0
M  END
>  <MODEL>
       1

$$$$
