tmp_first_model_12_24.pdb
 OpenBabel08272523333D

 65 70  0  0  1  0  0  0  0  0999 V2000
   -9.1890    2.3560  -26.4410 O   0  0  0  0  0  0  0  0  0  0  0  0
   -9.3940    1.2490  -26.9110 C   0  0  0  0  0  0  0  0  0  0  0  0
   -8.6660    0.0180  -26.3760 C   0  0  0  0  0  0  0  0  0  0  0  0
   -9.1850   -0.3820  -25.0540 N   0  3  1  0  0  0  0  0  0  0  0  0
  -10.6540   -0.6450  -25.1190 C   0  0  0  0  0  0  0  0  0  0  0  0
  -11.2110   -1.1170  -23.8020 C   0  0  0  0  0  0  0  0  0  0  0  0
  -12.5630   -0.9350  -23.5160 C   0  0  0  0  0  0  0  0  0  0  0  0
  -13.1920   -1.6830  -22.5310 C   0  0  0  0  0  0  0  0  0  0  0  0
  -12.4240   -2.5840  -21.7990 C   0  0  0  0  0  0  0  0  0  0  0  0
  -13.2500   -3.6190  -20.6690 Cl  0  0  0  0  0  0  0  0  0  0  0  0
  -11.0570   -2.6970  -21.9880 C   0  0  0  0  0  0  0  0  0  0  0  0
  -10.4220   -1.9060  -22.9570 C   0  0  0  0  0  0  0  0  0  0  0  0
   -8.9110   -1.8870  -23.1250 C   0  0  2  0  0  0  0  0  0  0  0  0
   -8.2110   -3.1320  -22.5810 C   0  0  0  0  0  0  0  0  0  0  0  0
   -7.5730   -2.7190  -21.2530 C   0  0  0  0  0  0  0  0  0  0  0  0
   -7.4930   -1.2600  -21.3140 N   0  0  0  0  0  0  0  0  0  0  0  0
   -6.7440   -0.6020  -20.3000 C   0  0  0  0  0  0  0  0  0  0  0  0
   -6.9750   -0.9880  -18.9980 C   0  0  0  0  0  0  0  0  0  0  0  0
   -6.2900   -0.5700  -17.9110 N   0  0  0  0  0  0  0  0  0  0  0  0
   -5.2750    0.2310  -18.1160 C   0  0  0  0  0  0  0  0  0  0  0  0
   -4.8740    0.6730  -19.4070 C   0  0  0  0  0  0  0  0  0  0  0  0
   -3.7130    1.4780  -19.5630 C   0  0  0  0  0  0  0  0  0  0  0  0
   -3.3410    1.9230  -20.8000 C   0  0  0  0  0  0  0  0  0  0  0  0
   -4.1170    1.5880  -21.9310 C   0  0  0  0  0  0  0  0  0  0  0  0
   -5.2440    0.8070  -21.8080 C   0  0  0  0  0  0  0  0  0  0  0  0
   -5.6450    0.2980  -20.5390 C   0  0  0  0  0  0  0  0  0  0  0  0
   -5.8610    0.6180  -22.6760 H   0  0  0  0  0  0  0  0  0  0  0  0
   -3.8290    1.9720  -22.9060 H   0  0  0  0  0  0  0  0  0  0  0  0
   -2.4640    2.5560  -20.9210 H   0  0  0  0  0  0  0  0  0  0  0  0
   -3.1340    1.7280  -18.6760 H   0  0  0  0  0  0  0  0  0  0  0  0
   -4.7130    0.5530  -17.2390 H   0  0  0  0  0  0  0  0  0  0  0  0
   -7.7860   -1.6800  -18.7860 H   0  0  0  0  0  0  0  0  0  0  0  0
   -8.2340   -0.7390  -22.3470 C   0  0  0  0  0  0  0  0  0  0  0  0
   -8.2870    0.4260  -22.7130 O   0  0  0  0  0  0  0  0  0  0  0  0
   -8.1770   -3.0280  -20.3940 H   0  0  0  0  0  0  0  0  0  0  0  0
   -6.5640   -3.1220  -21.1260 H   0  0  0  0  0  0  0  0  0  0  0  0
   -7.4370   -3.4640  -23.2790 H   0  0  0  0  0  0  0  0  0  0  0  0
   -8.9100   -3.9600  -22.4660 H   0  0  0  0  0  0  0  0  0  0  0  0
   -8.5320   -1.6330  -24.5890 C   0  0  0  0  0  0  0  0  0  0  0  0
   -8.8240   -2.4750  -25.2300 H   0  0  0  0  0  0  0  0  0  0  0  0
   -7.4470   -1.5270  -24.6600 H   0  0  0  0  0  0  0  0  0  0  0  0
  -10.4950   -3.3870  -21.3590 H   0  0  0  0  0  0  0  0  0  0  0  0
  -14.2610   -1.6090  -22.3490 H   0  0  0  0  0  0  0  0  0  0  0  0
  -13.1580   -0.2390  -24.1010 H   0  0  0  0  0  0  0  0  0  0  0  0
  -10.8210   -1.4300  -25.8770 H   0  0  0  0  0  0  0  0  0  0  0  0
  -11.1720    0.2540  -25.4490 H   0  0  0  0  0  0  0  0  0  0  0  0
   -8.9850    0.3500  -24.3300 H   0  0  0  0  0  0  0  0  0  0  0  0
   -7.5990    0.2450  -26.3010 H   0  0  0  0  0  0  0  0  0  0  0  0
   -8.7940   -0.8280  -27.0630 H   0  0  0  0  0  0  0  0  0  0  0  0
  -10.2940    1.0120  -27.9120 N   0  0  0  0  0  0  0  0  0  0  0  0
  -10.9520    2.0970  -28.6150 C   0  0  0  0  0  0  0  0  0  0  0  0
  -10.1080    2.7010  -29.7300 C   0  0  1  0  0  0  0  0  0  0  0  0
   -9.9500    1.8110  -30.9930 C   0  0  0  0  0  0  0  0  0  0  0  0
  -10.6530    2.8970  -31.8320 C   0  0  1  0  0  0  0  0  0  0  0  0
  -11.8550    2.4700  -32.3770 F   0  0  0  0  0  0  0  0  0  0  0  0
  -10.8430    3.7710  -30.5770 C   0  0  0  0  0  0  0  0  0  0  0  0
  -10.3740    4.7600  -30.6110 H   0  0  0  0  0  0  0  0  0  0  0  0
  -11.8990    3.9020  -30.3100 H   0  0  0  0  0  0  0  0  0  0  0  0
  -10.0600    3.3350  -32.6460 H   0  0  0  0  0  0  0  0  0  0  0  0
  -10.5200    0.8740  -30.9720 H   0  0  0  0  0  0  0  0  0  0  0  0
   -8.9170    1.5860  -31.2830 H   0  0  0  0  0  0  0  0  0  0  0  0
   -9.1480    3.0600  -29.3490 H   0  0  0  0  0  0  0  0  0  0  0  0
  -11.2060    2.8720  -27.8850 H   0  0  0  0  0  0  0  0  0  0  0  0
  -11.8780    1.7160  -29.0620 H   0  0  0  0  0  0  0  0  0  0  0  0
  -10.4080    0.0660  -28.2450 H   0  0  0  0  0  0  0  0  0  0  0  0
  1  2  2  0  0  0  0
  2  3  1  0  0  0  0
  2 50  1  0  0  0  0
  3  4  1  0  0  0  0
  3 48  1  0  0  0  0
  3 49  1  0  0  0  0
  4  5  1  0  0  0  0
  4 39  1  0  0  0  0
  4 47  1  1  0  0  0
  5  6  1  0  0  0  0
  5 45  1  0  0  0  0
  5 46  1  0  0  0  0
  6  7  2  0  0  0  0
  6 12  1  0  0  0  0
  7  8  1  0  0  0  0
  7 44  1  0  0  0  0
  8  9  2  0  0  0  0
  8 43  1  0  0  0  0
  9 10  1  0  0  0  0
  9 11  1  0  0  0  0
 11 12  2  0  0  0  0
 11 42  1  0  0  0  0
 13 12  1  1  0  0  0
 13 14  1  0  0  0  0
 13 33  1  0  0  0  0
 13 39  1  0  0  0  0
 14 15  1  0  0  0  0
 14 37  1  0  0  0  0
 14 38  1  0  0  0  0
 15 16  1  0  0  0  0
 15 35  1  0  0  0  0
 15 36  1  0  0  0  0
 16 17  1  0  0  0  0
 16 33  1  0  0  0  0
 17 18  2  0  0  0  0
 17 26  1  0  0  0  0
 18 19  1  0  0  0  0
 18 32  1  0  0  0  0
 19 20  2  0  0  0  0
 20 21  1  0  0  0  0
 20 31  1  0  0  0  0
 21 22  2  0  0  0  0
 21 26  1  0  0  0  0
 22 23  1  0  0  0  0
 22 30  1  0  0  0  0
 23 24  2  0  0  0  0
 23 29  1  0  0  0  0
 24 25  1  0  0  0  0
 24 28  1  0  0  0  0
 25 26  2  0  0  0  0
 25 27  1  0  0  0  0
 33 34  2  0  0  0  0
 39 40  1  0  0  0  0
 39 41  1  0  0  0  0
 50 51  1  0  0  0  0
 50 65  1  0  0  0  0
 51 52  1  0  0  0  0
 51 63  1  0  0  0  0
 51 64  1  0  0  0  0
 52 53  1  0  0  0  0
 52 56  1  0  0  0  0
 52 62  1  1  0  0  0
 53 54  1  0  0  0  0
 53 60  1  0  0  0  0
 53 61  1  0  0  0  0
 54 55  1  0  0  0  0
 54 56  1  0  0  0  0
 54 59  1  6  0  0  0
 56 57  1  0  0  0  0
 56 58  1  0  0  0  0
M  CHG  1   4   1
M  END
>  <MODEL>
       1

$$$$
