tmp_first_model_10_13.pdb
 OpenBabel08272522163D

 69 74  0  0  1  0  0  0  0  0999 V2000
   -7.3720    3.4020  -21.9060 C   0  0  0  0  0  0  0  0  0  0  0  0
   -8.2890    2.9010  -22.9100 N   0  0  0  0  0  0  0  0  0  0  0  0
   -7.7640    2.1890  -23.9430 C   0  0  0  0  0  0  0  0  0  0  0  0
   -6.5600    2.0320  -24.0770 O   0  0  0  0  0  0  0  0  0  0  0  0
   -8.7460    1.5690  -24.9330 C   0  0  0  0  0  0  0  0  0  0  0  0
   -9.4070    0.4240  -24.3370 N   0  0  0  0  0  0  0  0  0  0  0  0
   -8.6620   -0.8170  -24.1680 C   0  0  0  0  0  0  0  0  0  0  0  0
   -9.0580   -1.5490  -22.8590 C   0  0  2  0  0  0  0  0  0  0  0  0
   -8.5460   -0.7520  -21.6370 C   0  0  0  0  0  0  0  0  0  0  0  0
   -9.0190    0.2570  -21.1540 O   0  0  0  0  0  0  0  0  0  0  0  0
   -7.4140   -1.3760  -21.1720 N   0  0  0  0  0  0  0  0  0  0  0  0
   -6.6330   -0.7910  -20.1500 C   0  0  0  0  0  0  0  0  0  0  0  0
   -6.9330   -1.0550  -18.8400 C   0  0  0  0  0  0  0  0  0  0  0  0
   -6.2350   -0.5730  -17.7870 N   0  0  0  0  0  0  0  0  0  0  0  0
   -5.1910    0.1780  -18.0520 C   0  0  0  0  0  0  0  0  0  0  0  0
   -4.7920    0.5590  -19.3660 C   0  0  0  0  0  0  0  0  0  0  0  0
   -3.7030    1.4410  -19.6060 C   0  0  0  0  0  0  0  0  0  0  0  0
   -3.4370    1.8840  -20.8710 C   0  0  0  0  0  0  0  0  0  0  0  0
   -4.2460    1.4870  -21.9570 C   0  0  0  0  0  0  0  0  0  0  0  0
   -5.2380    0.5510  -21.7670 C   0  0  0  0  0  0  0  0  0  0  0  0
   -5.5580    0.0940  -20.4580 C   0  0  0  0  0  0  0  0  0  0  0  0
   -5.8250    0.2210  -22.6170 H   0  0  0  0  0  0  0  0  0  0  0  0
   -4.0890    1.9160  -22.9440 H   0  0  0  0  0  0  0  0  0  0  0  0
   -2.6200    2.5840  -21.0390 H   0  0  0  0  0  0  0  0  0  0  0  0
   -3.0960    1.7490  -18.7590 H   0  0  0  0  0  0  0  0  0  0  0  0
   -4.6310    0.5620  -17.2010 H   0  0  0  0  0  0  0  0  0  0  0  0
   -7.7860   -1.6880  -18.6090 H   0  0  0  0  0  0  0  0  0  0  0  0
   -7.0210   -2.5520  -21.9130 C   0  0  0  0  0  0  0  0  0  0  0  0
   -8.2940   -2.9010  -22.6990 C   0  0  2  0  0  0  0  0  0  0  0  0
   -8.0220   -3.6810  -24.0010 C   0  0  0  0  0  0  0  0  0  0  0  0
   -7.4940   -5.0210  -23.7970 N   0  0  0  0  0  0  0  0  0  0  0  0
   -6.1820   -5.2880  -23.5070 C   0  0  0  0  0  0  0  0  0  0  0  0
   -5.0890   -4.5160  -23.9500 C   0  0  0  0  0  0  0  0  0  0  0  0
   -3.8430   -4.9510  -23.5410 C   0  0  0  0  0  0  0  0  0  0  0  0
   -3.6480   -6.0100  -22.7490 N   0  0  0  0  0  0  0  0  0  0  0  0
   -4.7490   -6.6830  -22.4060 C   0  0  0  0  0  0  0  0  0  0  0  0
   -4.5980   -7.8660  -21.4930 C   0  0  0  0  0  0  0  0  0  0  0  0
   -3.5970   -8.2970  -21.5810 H   0  0  0  0  0  0  0  0  0  0  0  0
   -5.3860   -8.5910  -21.7140 H   0  0  0  0  0  0  0  0  0  0  0  0
   -4.7440   -7.5440  -20.4580 H   0  0  0  0  0  0  0  0  0  0  0  0
   -5.9960   -6.3840  -22.7630 N   0  0  0  0  0  0  0  0  0  0  0  0
   -2.9450   -4.4180  -23.8680 H   0  0  0  0  0  0  0  0  0  0  0  0
   -5.1930   -3.6360  -24.5800 H   0  0  0  0  0  0  0  0  0  0  0  0
   -8.0880   -5.6600  -23.2830 H   0  0  0  0  0  0  0  0  0  0  0  0
   -7.3060   -3.1300  -24.6240 H   0  0  0  0  0  0  0  0  0  0  0  0
   -8.9530   -3.7640  -24.5780 H   0  0  0  0  0  0  0  0  0  0  0  0
   -8.8980   -3.5420  -22.0450 H   0  0  0  0  0  0  0  0  0  0  0  0
   -6.1720   -2.3410  -22.5820 H   0  0  0  0  0  0  0  0  0  0  0  0
   -6.7080   -3.3460  -21.2290 H   0  0  0  0  0  0  0  0  0  0  0  0
  -10.5690   -1.6340  -22.8100 C   0  0  0  0  0  0  0  0  0  0  0  0
  -11.2070   -2.5620  -21.9800 C   0  0  0  0  0  0  0  0  0  0  0  0
  -12.5860   -2.5870  -21.8930 C   0  0  0  0  0  0  0  0  0  0  0  0
  -13.3340   -3.7420  -20.8290 Cl  0  0  0  0  0  0  0  0  0  0  0  0
  -13.3830   -1.7020  -22.6180 C   0  0  0  0  0  0  0  0  0  0  0  0
  -12.7600   -0.7580  -23.4080 C   0  0  0  0  0  0  0  0  0  0  0  0
  -11.3700   -0.7010  -23.4830 C   0  0  0  0  0  0  0  0  0  0  0  0
  -10.7710    0.4350  -24.2510 C   0  0  0  0  0  0  0  0  0  0  0  0
  -11.4600    1.3200  -24.7430 O   0  0  0  0  0  0  0  0  0  0  0  0
  -13.3250   -0.0250  -23.9720 H   0  0  0  0  0  0  0  0  0  0  0  0
  -14.4630   -1.7440  -22.5410 H   0  0  0  0  0  0  0  0  0  0  0  0
  -10.6470   -3.2630  -21.3730 H   0  0  0  0  0  0  0  0  0  0  0  0
   -7.5910   -0.5830  -24.1660 H   0  0  0  0  0  0  0  0  0  0  0  0
   -8.8610   -1.4820  -25.0200 H   0  0  0  0  0  0  0  0  0  0  0  0
   -8.1970    1.2700  -25.8340 H   0  0  0  0  0  0  0  0  0  0  0  0
   -9.5290    2.2720  -25.2280 H   0  0  0  0  0  0  0  0  0  0  0  0
   -9.2280    2.6770  -22.6030 H   0  0  0  0  0  0  0  0  0  0  0  0
   -6.6620    4.0960  -22.3620 H   0  0  0  0  0  0  0  0  0  0  0  0
   -7.9200    3.9440  -21.1360 H   0  0  0  0  0  0  0  0  0  0  0  0
   -6.8160    2.5680  -21.4620 H   0  0  0  0  0  0  0  0  0  0  0  0
  1  2  1  0  0  0  0
  1 67  1  0  0  0  0
  1 68  1  0  0  0  0
  1 69  1  0  0  0  0
  2  3  1  0  0  0  0
  2 66  1  0  0  0  0
  3  4  2  0  0  0  0
  3  5  1  0  0  0  0
  5  6  1  0  0  0  0
  5 64  1  0  0  0  0
  5 65  1  0  0  0  0
  6  7  1  0  0  0  0
  6 57  1  0  0  0  0
  7  8  1  0  0  0  0
  7 62  1  0  0  0  0
  7 63  1  0  0  0  0
  8  9  1  1  0  0  0
  8 29  1  0  0  0  0
  8 50  1  0  0  0  0
  9 10  2  0  0  0  0
  9 11  1  0  0  0  0
 11 12  1  0  0  0  0
 11 28  1  0  0  0  0
 12 13  2  0  0  0  0
 12 21  1  0  0  0  0
 13 14  1  0  0  0  0
 13 27  1  0  0  0  0
 14 15  2  0  0  0  0
 15 16  1  0  0  0  0
 15 26  1  0  0  0  0
 16 17  2  0  0  0  0
 16 21  1  0  0  0  0
 17 18  1  0  0  0  0
 17 25  1  0  0  0  0
 18 19  2  0  0  0  0
 18 24  1  0  0  0  0
 19 20  1  0  0  0  0
 19 23  1  0  0  0  0
 20 21  2  0  0  0  0
 20 22  1  0  0  0  0
 28 29  1  0  0  0  0
 28 48  1  0  0  0  0
 28 49  1  0  0  0  0
 29 30  1  0  0  0  0
 29 47  1  1  0  0  0
 30 31  1  0  0  0  0
 30 45  1  0  0  0  0
 30 46  1  0  0  0  0
 31 32  1  0  0  0  0
 31 44  1  0  0  0  0
 32 33  2  0  0  0  0
 32 41  1  0  0  0  0
 33 34  1  0  0  0  0
 33 43  1  0  0  0  0
 34 35  2  0  0  0  0
 34 42  1  0  0  0  0
 35 36  1  0  0  0  0
 36 37  1  0  0  0  0
 36 41  2  0  0  0  0
 37 38  1  0  0  0  0
 37 39  1  0  0  0  0
 37 40  1  0  0  0  0
 50 51  2  0  0  0  0
 50 56  1  0  0  0  0
 51 52  1  0  0  0  0
 51 61  1  0  0  0  0
 52 53  1  0  0  0  0
 52 54  2  0  0  0  0
 54 55  1  0  0  0  0
 54 60  1  0  0  0  0
 55 56  2  0  0  0  0
 55 59  1  0  0  0  0
 56 57  1  0  0  0  0
 57 58  2  0  0  0  0
M  END
>  <MODEL>
       1

$$$$
