tmp_first_model_7_17.pdb
 OpenBabel08272520323D

 38 41  0  0  1  0  0  0  0  0999 V2000
  -10.8200   -4.6830  -22.9160 C   0  0  0  0  0  0  0  0  0  0  0  0
  -10.5650   -3.4450  -23.7660 C   0  0  2  0  0  0  0  0  0  0  0  0
   -9.3920   -3.6600  -24.7370 C   0  0  0  0  0  0  0  0  0  0  0  0
   -8.0560   -3.7770  -23.9740 C   0  0  0  0  0  0  0  0  0  0  0  0
   -7.9720   -2.7830  -22.8970 C   0  0  0  0  0  0  0  0  0  0  0  0
   -6.8300   -2.4160  -22.1170 C   0  0  0  0  0  0  0  0  0  0  0  0
   -5.6820   -2.7920  -22.2020 O   0  5  0  0  0  0  0  0  0  0  0  0
   -7.3360   -1.4620  -21.1870 N   0  0  0  0  0  0  0  0  0  0  0  0
   -6.5730   -0.8360  -20.1740 C   0  0  0  0  0  0  0  0  0  0  0  0
   -6.8890   -1.0530  -18.8570 C   0  0  0  0  0  0  0  0  0  0  0  0
   -6.1920   -0.5440  -17.8160 N   0  0  0  0  0  0  0  0  0  0  0  0
   -5.1560    0.2140  -18.0820 C   0  0  0  0  0  0  0  0  0  0  0  0
   -4.7260    0.5300  -19.3980 C   0  0  0  0  0  0  0  0  0  0  0  0
   -3.5960    1.3600  -19.6300 C   0  0  0  0  0  0  0  0  0  0  0  0
   -3.2160    1.6680  -20.9110 C   0  0  0  0  0  0  0  0  0  0  0  0
   -3.9540    1.1640  -22.0030 C   0  0  0  0  0  0  0  0  0  0  0  0
   -5.0500    0.3610  -21.8010 C   0  0  0  0  0  0  0  0  0  0  0  0
   -5.4570    0.0040  -20.4850 C   0  0  0  0  0  0  0  0  0  0  0  0
   -5.6140   -0.0170  -22.6460 H   0  0  0  0  0  0  0  0  0  0  0  0
   -3.6560    1.4200  -23.0160 H   0  0  0  0  0  0  0  0  0  0  0  0
   -2.3650    2.3190  -21.0880 H   0  0  0  0  0  0  0  0  0  0  0  0
   -3.0650    1.7650  -18.7750 H   0  0  0  0  0  0  0  0  0  0  0  0
   -4.6110    0.6180  -17.2290 H   0  0  0  0  0  0  0  0  0  0  0  0
   -7.7400   -1.6730  -18.5910 H   0  0  0  0  0  0  0  0  0  0  0  0
   -8.6860   -1.2000  -21.4390 C   0  0  0  0  0  0  0  0  0  0  0  0
   -9.3950   -0.3500  -20.9510 O   0  0  0  0  0  0  0  0  0  0  0  0
   -9.0430   -2.1120  -22.4090 N   0  0  0  0  0  0  0  0  0  0  0  0
  -10.3760   -2.1780  -22.9590 C   0  0  0  0  0  0  0  0  0  0  0  0
  -10.5650   -1.3120  -23.6030 H   0  0  0  0  0  0  0  0  0  0  0  0
  -11.1000   -2.1490  -22.1430 H   0  0  0  0  0  0  0  0  0  0  0  0
   -7.2010   -3.6590  -24.6530 H   0  0  0  0  0  0  0  0  0  0  0  0
   -7.9400   -4.7810  -23.5370 H   0  0  0  0  0  0  0  0  0  0  0  0
   -9.5530   -4.5650  -25.3430 H   0  0  0  0  0  0  0  0  0  0  0  0
   -9.3420   -2.8130  -25.4310 H   0  0  0  0  0  0  0  0  0  0  0  0
  -11.4920   -3.2250  -24.2840 H   0  0  0  0  0  0  0  0  0  0  0  0
  -10.8920   -5.5240  -23.6140 H   0  0  0  0  0  0  0  0  0  0  0  0
  -10.0310   -4.8870  -22.1760 H   0  0  0  0  0  0  0  0  0  0  0  0
  -11.7750   -4.5880  -22.3870 H   0  0  0  0  0  0  0  0  0  0  0  0
  1  2  1  0  0  0  0
  1 36  1  0  0  0  0
  1 37  1  0  0  0  0
  1 38  1  0  0  0  0
  2  3  1  0  0  0  0
  2 28  1  0  0  0  0
  2 35  1  6  0  0  0
  3  4  1  0  0  0  0
  3 33  1  0  0  0  0
  3 34  1  0  0  0  0
  4  5  1  0  0  0  0
  4 31  1  0  0  0  0
  4 32  1  0  0  0  0
  5  6  2  0  0  0  0
  5 27  1  0  0  0  0
  6  7  1  0  0  0  0
  6  8  1  0  0  0  0
  8  9  1  0  0  0  0
  8 25  1  0  0  0  0
  9 10  2  0  0  0  0
  9 18  1  0  0  0  0
 10 11  1  0  0  0  0
 10 24  1  0  0  0  0
 11 12  2  0  0  0  0
 12 13  1  0  0  0  0
 12 23  1  0  0  0  0
 13 14  2  0  0  0  0
 13 18  1  0  0  0  0
 14 15  1  0  0  0  0
 14 22  1  0  0  0  0
 15 16  2  0  0  0  0
 15 21  1  0  0  0  0
 16 17  1  0  0  0  0
 16 20  1  0  0  0  0
 17 18  2  0  0  0  0
 17 19  1  0  0  0  0
 25 26  2  0  0  0  0
 25 27  1  0  0  0  0
 27 28  1  0  0  0  0
 28 29  1  0  0  0  0
 28 30  1  0  0  0  0
M  CHG  1   7  -1
M  END
>  <MODEL>
       1

$$$$
