tmp_first_model_14_96.pdb
 OpenBabel08282500413D

 66 70  0  0  1  0  0  0  0  0999 V2000
   -7.7270   -0.2500  -29.8100 C   0  0  0  0  0  0  0  0  0  0  0  0
   -7.9670   -1.2760  -28.8230 N   0  0  0  0  0  0  0  0  0  0  0  0
   -7.1530   -1.3530  -27.7340 C   0  0  0  0  0  0  0  0  0  0  0  0
   -6.1910   -0.6290  -27.5410 O   0  0  0  0  0  0  0  0  0  0  0  0
   -7.5410   -2.4460  -26.7350 C   0  0  0  0  0  0  0  0  0  0  0  0
   -8.4310   -1.9340  -25.7050 N   0  0  0  0  0  0  0  0  0  0  0  0
   -7.9040   -1.2470  -24.5360 C   0  0  0  0  0  0  0  0  0  0  0  0
   -8.7390   -1.5520  -23.2650 C   0  0  2  0  0  0  0  0  0  0  0  0
   -8.2440   -0.5800  -22.1800 C   0  0  0  0  0  0  0  0  0  0  0  0
   -8.4770    0.6050  -22.0960 O   0  0  0  0  0  0  0  0  0  0  0  0
   -7.4180   -1.2800  -21.3190 N   0  0  0  0  0  0  0  0  0  0  0  0
   -6.6420   -0.6840  -20.2900 C   0  0  0  0  0  0  0  0  0  0  0  0
   -6.9560   -0.9480  -18.9820 C   0  0  0  0  0  0  0  0  0  0  0  0
   -6.2860   -0.4570  -17.9140 N   0  0  0  0  0  0  0  0  0  0  0  0
   -5.2320    0.2840  -18.1520 C   0  0  0  0  0  0  0  0  0  0  0  0
   -4.7520    0.5900  -19.4550 C   0  0  0  0  0  0  0  0  0  0  0  0
   -3.5870    1.3780  -19.6560 C   0  0  0  0  0  0  0  0  0  0  0  0
   -3.1360    1.6340  -20.9210 C   0  0  0  0  0  0  0  0  0  0  0  0
   -3.8180    1.1040  -22.0390 C   0  0  0  0  0  0  0  0  0  0  0  0
   -4.9470    0.3430  -21.8690 C   0  0  0  0  0  0  0  0  0  0  0  0
   -5.4610    0.0820  -20.5690 C   0  0  0  0  0  0  0  0  0  0  0  0
   -5.4540   -0.0730  -22.7350 H   0  0  0  0  0  0  0  0  0  0  0  0
   -3.4480    1.3110  -23.0380 H   0  0  0  0  0  0  0  0  0  0  0  0
   -2.2580    2.2540  -21.0750 H   0  0  0  0  0  0  0  0  0  0  0  0
   -3.0750    1.7790  -18.7860 H   0  0  0  0  0  0  0  0  0  0  0  0
   -4.6990    0.6680  -17.2840 H   0  0  0  0  0  0  0  0  0  0  0  0
   -7.8130   -1.5830  -18.7580 H   0  0  0  0  0  0  0  0  0  0  0  0
   -7.3000   -2.6950  -21.6130 C   0  0  0  0  0  0  0  0  0  0  0  0
   -8.4380   -2.9410  -22.6100 C   0  0  2  0  0  0  0  0  0  0  0  0
   -8.1770   -4.0820  -23.5860 C   0  0  0  0  0  0  0  0  0  0  0  0
   -7.7700   -5.2370  -22.8830 O   0  0  0  0  0  0  0  0  0  0  0  0
   -7.4710   -6.3180  -23.7560 C   0  0  0  0  0  0  0  0  0  0  0  0
   -6.5480   -7.2550  -22.9970 C   0  0  0  0  0  0  0  0  0  0  0  0
   -5.5730   -6.7880  -22.8260 H   0  0  0  0  0  0  0  0  0  0  0  0
   -6.9950   -7.5120  -22.0310 H   0  0  0  0  0  0  0  0  0  0  0  0
   -6.3750   -8.1730  -23.5650 H   0  0  0  0  0  0  0  0  0  0  0  0
   -8.7440   -7.0120  -24.2360 C   0  0  0  0  0  0  0  0  0  0  0  0
   -9.0740   -7.7640  -23.5090 H   0  0  0  0  0  0  0  0  0  0  0  0
   -8.5660   -7.5080  -25.1940 H   0  0  0  0  0  0  0  0  0  0  0  0
   -9.5310   -6.2700  -24.3990 H   0  0  0  0  0  0  0  0  0  0  0  0
   -6.9270   -5.9240  -24.6330 H   0  0  0  0  0  0  0  0  0  0  0  0
   -9.0950   -4.2640  -24.1630 H   0  0  0  0  0  0  0  0  0  0  0  0
   -7.4030   -3.8090  -24.3150 H   0  0  0  0  0  0  0  0  0  0  0  0
   -9.3310   -3.2150  -22.0320 H   0  0  0  0  0  0  0  0  0  0  0  0
   -7.4320   -3.2760  -20.6990 H   0  0  0  0  0  0  0  0  0  0  0  0
   -6.3070   -2.9410  -22.0210 H   0  0  0  0  0  0  0  0  0  0  0  0
  -10.2100   -1.3940  -23.5980 C   0  0  0  0  0  0  0  0  0  0  0  0
  -11.1700   -1.3190  -22.5780 C   0  0  0  0  0  0  0  0  0  0  0  0
  -12.5170   -1.3110  -22.9070 C   0  0  0  0  0  0  0  0  0  0  0  0
  -13.7420   -1.3410  -21.6780 Cl  0  0  0  0  0  0  0  0  0  0  0  0
  -12.9570   -1.3940  -24.2260 C   0  0  0  0  0  0  0  0  0  0  0  0
  -12.0140   -1.4860  -25.2230 C   0  0  0  0  0  0  0  0  0  0  0  0
  -10.6620   -1.4960  -24.9190 C   0  0  0  0  0  0  0  0  0  0  0  0
   -9.7390   -1.7960  -26.0450 C   0  0  0  0  0  0  0  0  0  0  0  0
  -10.1460   -1.9690  -27.1950 O   0  0  0  0  0  0  0  0  0  0  0  0
  -12.2740   -1.6160  -26.2650 H   0  0  0  0  0  0  0  0  0  0  0  0
  -14.0230   -1.4460  -24.4240 H   0  0  0  0  0  0  0  0  0  0  0  0
  -10.8630   -1.3210  -21.5340 H   0  0  0  0  0  0  0  0  0  0  0  0
   -6.8580   -1.5460  -24.3840 H   0  0  0  0  0  0  0  0  0  0  0  0
   -7.9300   -0.1580  -24.6860 H   0  0  0  0  0  0  0  0  0  0  0  0
   -8.0640   -3.2600  -27.2480 H   0  0  0  0  0  0  0  0  0  0  0  0
   -6.6240   -2.8300  -26.2750 H   0  0  0  0  0  0  0  0  0  0  0  0
   -8.9190   -1.6000  -28.6850 H   0  0  0  0  0  0  0  0  0  0  0  0
   -6.6940   -0.3210  -30.1550 H   0  0  0  0  0  0  0  0  0  0  0  0
   -7.8820    0.7580  -29.4080 H   0  0  0  0  0  0  0  0  0  0  0  0
   -8.3960   -0.4140  -30.6580 H   0  0  0  0  0  0  0  0  0  0  0  0
  1  2  1  0  0  0  0
  1 64  1  0  0  0  0
  1 65  1  0  0  0  0
  1 66  1  0  0  0  0
  2  3  1  0  0  0  0
  2 63  1  0  0  0  0
  3  4  2  0  0  0  0
  3  5  1  0  0  0  0
  5  6  1  0  0  0  0
  5 61  1  0  0  0  0
  5 62  1  0  0  0  0
  6  7  1  0  0  0  0
  6 54  1  0  0  0  0
  7  8  1  0  0  0  0
  7 59  1  0  0  0  0
  7 60  1  0  0  0  0
  8  9  1  1  0  0  0
  8 29  1  0  0  0  0
  8 47  1  0  0  0  0
  9 10  2  0  0  0  0
  9 11  1  0  0  0  0
 11 12  1  0  0  0  0
 11 28  1  0  0  0  0
 12 13  2  0  0  0  0
 12 21  1  0  0  0  0
 13 14  1  0  0  0  0
 13 27  1  0  0  0  0
 14 15  2  0  0  0  0
 15 16  1  0  0  0  0
 15 26  1  0  0  0  0
 16 17  2  0  0  0  0
 16 21  1  0  0  0  0
 17 18  1  0  0  0  0
 17 25  1  0  0  0  0
 18 19  2  0  0  0  0
 18 24  1  0  0  0  0
 19 20  1  0  0  0  0
 19 23  1  0  0  0  0
 20 21  2  0  0  0  0
 20 22  1  0  0  0  0
 28 29  1  0  0  0  0
 28 45  1  0  0  0  0
 28 46  1  0  0  0  0
 29 30  1  0  0  0  0
 29 44  1  1  0  0  0
 30 31  1  0  0  0  0
 30 42  1  0  0  0  0
 30 43  1  0  0  0  0
 31 32  1  0  0  0  0
 32 33  1  0  0  0  0
 32 37  1  0  0  0  0
 32 41  1  0  0  0  0
 33 34  1  0  0  0  0
 33 35  1  0  0  0  0
 33 36  1  0  0  0  0
 37 38  1  0  0  0  0
 37 39  1  0  0  0  0
 37 40  1  0  0  0  0
 47 48  2  0  0  0  0
 47 53  1  0  0  0  0
 48 49  1  0  0  0  0
 48 58  1  0  0  0  0
 49 50  1  0  0  0  0
 49 51  2  0  0  0  0
 51 52  1  0  0  0  0
 51 57  1  0  0  0  0
 52 53  2  0  0  0  0
 52 56  1  0  0  0  0
 53 54  1  0  0  0  0
 54 55  2  0  0  0  0
M  END
>  <MODEL>
       1

$$$$
