tmp_first_model_3_1.pdb
 OpenBabel08272518143D

 68 73  0  0  1  0  0  0  0  0999 V2000
   -7.5210   -5.9790  -26.7890 C   0  0  0  0  0  0  0  0  0  0  0  0
   -7.8980   -4.5940  -26.9970 N   0  0  0  0  0  0  0  0  0  0  0  0
   -7.0030   -3.6210  -26.6950 C   0  0  0  0  0  0  0  0  0  0  0  0
   -5.8860   -3.8610  -26.2620 O   0  0  0  0  0  0  0  0  0  0  0  0
   -7.5250   -2.1920  -26.8620 C   0  0  0  0  0  0  0  0  0  0  0  0
   -8.3980   -1.8490  -25.7490 N   0  0  0  0  0  0  0  0  0  0  0  0
   -7.8320   -1.3170  -24.5100 C   0  0  0  0  0  0  0  0  0  0  0  0
   -8.6840   -1.6110  -23.2340 C   0  0  2  0  0  0  0  0  0  0  0  0
   -8.1340   -0.6780  -22.1400 C   0  0  0  0  0  0  0  0  0  0  0  0
   -8.2610    0.5280  -22.0890 O   0  0  0  0  0  0  0  0  0  0  0  0
   -7.3950   -1.4220  -21.2400 N   0  0  0  0  0  0  0  0  0  0  0  0
   -6.6110   -0.8280  -20.2180 C   0  0  0  0  0  0  0  0  0  0  0  0
   -6.9170   -1.0700  -18.9040 C   0  0  0  0  0  0  0  0  0  0  0  0
   -6.2450   -0.5600  -17.8420 N   0  0  0  0  0  0  0  0  0  0  0  0
   -5.2120    0.2040  -18.1040 C   0  0  0  0  0  0  0  0  0  0  0  0
   -4.7620    0.5140  -19.4170 C   0  0  0  0  0  0  0  0  0  0  0  0
   -3.6270    1.3370  -19.6300 C   0  0  0  0  0  0  0  0  0  0  0  0
   -3.1960    1.6090  -20.8970 C   0  0  0  0  0  0  0  0  0  0  0  0
   -3.8810    1.0670  -22.0090 C   0  0  0  0  0  0  0  0  0  0  0  0
   -4.9840    0.2730  -21.8280 C   0  0  0  0  0  0  0  0  0  0  0  0
   -5.4680   -0.0170  -20.5210 C   0  0  0  0  0  0  0  0  0  0  0  0
   -5.5050   -0.1260  -22.6940 H   0  0  0  0  0  0  0  0  0  0  0  0
   -3.5290    1.2880  -23.0100 H   0  0  0  0  0  0  0  0  0  0  0  0
   -2.3290    2.2410  -21.0570 H   0  0  0  0  0  0  0  0  0  0  0  0
   -3.1190    1.7500  -18.7610 H   0  0  0  0  0  0  0  0  0  0  0  0
   -4.6670    0.6130  -17.2530 H   0  0  0  0  0  0  0  0  0  0  0  0
   -7.7690   -1.7030  -18.6600 H   0  0  0  0  0  0  0  0  0  0  0  0
   -7.3480   -2.8440  -21.5370 C   0  0  0  0  0  0  0  0  0  0  0  0
   -8.4900   -3.0180  -22.5520 C   0  0  2  0  0  0  0  0  0  0  0  0
   -8.3020   -4.1840  -23.5330 C   0  0  0  0  0  0  0  0  0  0  0  0
   -8.2610   -5.4940  -22.9300 N   0  0  0  0  0  0  0  0  0  0  0  0
   -7.0870   -6.2150  -22.7670 C   0  0  0  0  0  0  0  0  0  0  0  0
   -6.9780   -7.5600  -22.3300 C   0  0  0  0  0  0  0  0  0  0  0  0
   -5.7130   -7.9400  -22.2340 N   0  0  0  0  0  0  0  0  0  0  0  0
   -4.9890   -6.8920  -22.6340 N   0  0  0  0  0  0  0  0  0  0  0  0
   -3.5430   -7.0040  -22.6860 C   0  0  0  0  0  0  0  0  0  0  0  0
   -3.2540   -7.7890  -21.9830 H   0  0  0  0  0  0  0  0  0  0  0  0
   -3.1720   -7.2920  -23.6790 H   0  0  0  0  0  0  0  0  0  0  0  0
   -3.0870   -6.0480  -22.4050 H   0  0  0  0  0  0  0  0  0  0  0  0
   -5.7740   -5.8270  -22.9720 C   0  0  0  0  0  0  0  0  0  0  0  0
   -5.3340   -4.9160  -23.3660 H   0  0  0  0  0  0  0  0  0  0  0  0
   -7.7660   -8.2550  -22.0500 H   0  0  0  0  0  0  0  0  0  0  0  0
   -9.0840   -5.8340  -22.4510 H   0  0  0  0  0  0  0  0  0  0  0  0
   -9.1370   -4.1320  -24.2460 H   0  0  0  0  0  0  0  0  0  0  0  0
   -7.3620   -4.0480  -24.0780 H   0  0  0  0  0  0  0  0  0  0  0  0
   -9.4090   -3.2020  -21.9700 H   0  0  0  0  0  0  0  0  0  0  0  0
   -6.3650   -3.1390  -21.9460 H   0  0  0  0  0  0  0  0  0  0  0  0
   -7.4950   -3.4240  -20.6190 H   0  0  0  0  0  0  0  0  0  0  0  0
  -10.1370   -1.3310  -23.5720 C   0  0  0  0  0  0  0  0  0  0  0  0
  -11.0860   -1.1150  -22.5670 C   0  0  0  0  0  0  0  0  0  0  0  0
  -12.4310   -1.0420  -22.8920 C   0  0  0  0  0  0  0  0  0  0  0  0
  -13.6410   -1.1890  -21.6610 Cl  0  0  0  0  0  0  0  0  0  0  0  0
  -12.8710   -0.9700  -24.2100 C   0  0  0  0  0  0  0  0  0  0  0  0
  -11.9350   -1.1440  -25.2030 C   0  0  0  0  0  0  0  0  0  0  0  0
  -10.6060   -1.4070  -24.8850 C   0  0  0  0  0  0  0  0  0  0  0  0
   -9.7390   -1.8870  -25.9870 C   0  0  0  0  0  0  0  0  0  0  0  0
  -10.2080   -2.3200  -27.0360 O   0  0  0  0  0  0  0  0  0  0  0  0
  -12.2270   -1.1750  -26.2430 H   0  0  0  0  0  0  0  0  0  0  0  0
  -13.9230   -0.8390  -24.4390 H   0  0  0  0  0  0  0  0  0  0  0  0
  -10.7780   -1.0060  -21.5350 H   0  0  0  0  0  0  0  0  0  0  0  0
   -7.7590   -0.2230  -24.5970 H   0  0  0  0  0  0  0  0  0  0  0  0
   -6.8160   -1.7210  -24.3910 H   0  0  0  0  0  0  0  0  0  0  0  0
   -6.6890   -1.4890  -26.9160 H   0  0  0  0  0  0  0  0  0  0  0  0
   -8.1130   -2.1020  -27.7800 H   0  0  0  0  0  0  0  0  0  0  0  0
   -8.8470   -4.3390  -27.2350 H   0  0  0  0  0  0  0  0  0  0  0  0
   -7.2020   -6.1410  -25.7490 H   0  0  0  0  0  0  0  0  0  0  0  0
   -8.3770   -6.6180  -27.0060 H   0  0  0  0  0  0  0  0  0  0  0  0
   -6.6940   -6.2450  -27.4570 H   0  0  0  0  0  0  0  0  0  0  0  0
  1  2  1  0  0  0  0
  1 66  1  0  0  0  0
  1 67  1  0  0  0  0
  1 68  1  0  0  0  0
  2  3  1  0  0  0  0
  2 65  1  0  0  0  0
  3  4  2  0  0  0  0
  3  5  1  0  0  0  0
  5  6  1  0  0  0  0
  5 63  1  0  0  0  0
  5 64  1  0  0  0  0
  6  7  1  0  0  0  0
  6 56  1  0  0  0  0
  7  8  1  0  0  0  0
  7 61  1  0  0  0  0
  7 62  1  0  0  0  0
  8  9  1  1  0  0  0
  8 29  1  0  0  0  0
  8 49  1  0  0  0  0
  9 10  2  0  0  0  0
  9 11  1  0  0  0  0
 11 12  1  0  0  0  0
 11 28  1  0  0  0  0
 12 13  2  0  0  0  0
 12 21  1  0  0  0  0
 13 14  1  0  0  0  0
 13 27  1  0  0  0  0
 14 15  2  0  0  0  0
 15 16  1  0  0  0  0
 15 26  1  0  0  0  0
 16 17  2  0  0  0  0
 16 21  1  0  0  0  0
 17 18  1  0  0  0  0
 17 25  1  0  0  0  0
 18 19  2  0  0  0  0
 18 24  1  0  0  0  0
 19 20  1  0  0  0  0
 19 23  1  0  0  0  0
 20 21  2  0  0  0  0
 20 22  1  0  0  0  0
 28 29  1  0  0  0  0
 28 47  1  0  0  0  0
 28 48  1  0  0  0  0
 29 30  1  0  0  0  0
 29 46  1  1  0  0  0
 30 31  1  0  0  0  0
 30 44  1  0  0  0  0
 30 45  1  0  0  0  0
 31 32  1  0  0  0  0
 31 43  1  0  0  0  0
 32 33  1  0  0  0  0
 32 40  2  0  0  0  0
 33 34  2  0  0  0  0
 33 42  1  0  0  0  0
 34 35  1  0  0  0  0
 35 36  1  0  0  0  0
 35 40  1  0  0  0  0
 36 37  1  0  0  0  0
 36 38  1  0  0  0  0
 36 39  1  0  0  0  0
 40 41  1  0  0  0  0
 49 50  2  0  0  0  0
 49 55  1  0  0  0  0
 50 51  1  0  0  0  0
 50 60  1  0  0  0  0
 51 52  1  0  0  0  0
 51 53  2  0  0  0  0
 53 54  1  0  0  0  0
 53 59  1  0  0  0  0
 54 55  2  0  0  0  0
 54 58  1  0  0  0  0
 55 56  1  0  0  0  0
 56 57  2  0  0  0  0
M  END
>  <MODEL>
       1

$$$$
