tmp_first_model_19_84.pdb
 OpenBabel08282503233D

 63 68  0  0  1  0  0  0  0  0999 V2000
   -8.2210   -3.6460  -23.9660 C   0  0  0  0  0  0  0  0  0  0  0  0
   -8.3740   -2.9080  -22.6430 C   0  0  1  0  0  0  0  0  0  0  0  0
   -7.0430   -2.4720  -22.0050 C   0  0  0  0  0  0  0  0  0  0  0  0
   -7.4360   -1.3340  -21.2010 N   0  0  0  0  0  0  0  0  0  0  0  0
   -6.6320   -0.7800  -20.1750 C   0  0  0  0  0  0  0  0  0  0  0  0
   -6.9470   -1.0130  -18.8600 C   0  0  0  0  0  0  0  0  0  0  0  0
   -6.2220   -0.5540  -17.8130 N   0  0  0  0  0  0  0  0  0  0  0  0
   -5.1720    0.1870  -18.0760 C   0  0  0  0  0  0  0  0  0  0  0  0
   -4.7230    0.4950  -19.3940 C   0  0  0  0  0  0  0  0  0  0  0  0
   -3.5890    1.3190  -19.6370 C   0  0  0  0  0  0  0  0  0  0  0  0
   -3.1990    1.6070  -20.9180 C   0  0  0  0  0  0  0  0  0  0  0  0
   -3.9150    1.0790  -22.0150 C   0  0  0  0  0  0  0  0  0  0  0  0
   -5.0180    0.2810  -21.8040 C   0  0  0  0  0  0  0  0  0  0  0  0
   -5.4580   -0.0230  -20.4850 C   0  0  0  0  0  0  0  0  0  0  0  0
   -5.6130   -0.0410  -22.6530 H   0  0  0  0  0  0  0  0  0  0  0  0
   -3.6240    1.3340  -23.0310 H   0  0  0  0  0  0  0  0  0  0  0  0
   -2.3540    2.2670  -21.0990 H   0  0  0  0  0  0  0  0  0  0  0  0
   -3.0680    1.7360  -18.7790 H   0  0  0  0  0  0  0  0  0  0  0  0
   -4.6150    0.5830  -17.2260 H   0  0  0  0  0  0  0  0  0  0  0  0
   -7.8180   -1.6130  -18.6030 H   0  0  0  0  0  0  0  0  0  0  0  0
   -8.6510   -0.7890  -21.5500 C   0  0  0  0  0  0  0  0  0  0  0  0
   -9.1210    0.2180  -21.0540 O   0  0  0  0  0  0  0  0  0  0  0  0
   -9.2750   -1.6360  -22.6850 C   0  0  1  0  0  0  0  0  0  0  0  0
   -9.1290   -0.8760  -24.0380 C   0  0  0  0  0  0  0  0  0  0  0  0
   -9.9810    0.3010  -24.1180 N   0  0  0  0  0  0  0  0  0  0  0  0
   -9.4390    1.4980  -24.7520 C   0  0  0  0  0  0  0  0  0  0  0  0
   -8.2110    1.9580  -23.9640 C   0  0  0  0  0  0  0  0  0  0  0  0
   -7.0670    1.6290  -24.2530 O   0  0  0  0  0  0  0  0  0  0  0  0
   -8.5170    2.7000  -22.8690 N   0  0  0  0  0  0  0  0  0  0  0  0
   -7.5500    2.8910  -21.8090 C   0  0  0  0  0  0  0  0  0  0  0  0
   -6.8800    4.2470  -21.8620 C   0  0  0  0  0  0  0  0  0  0  0  0
   -6.0100    4.2640  -22.9420 F   0  0  0  0  0  0  0  0  0  0  0  0
   -6.3920    5.1080  -20.7420 C   0  0  0  0  0  0  0  0  0  0  0  0
   -7.5190    5.5800  -21.6360 C   0  0  0  0  0  0  0  0  0  0  0  0
   -8.5180    5.6540  -21.2040 H   0  0  0  0  0  0  0  0  0  0  0  0
   -7.2740    6.3080  -22.4040 H   0  0  0  0  0  0  0  0  0  0  0  0
   -6.6520    4.9220  -19.7050 H   0  0  0  0  0  0  0  0  0  0  0  0
   -5.4020    5.5220  -20.9140 H   0  0  0  0  0  0  0  0  0  0  0  0
   -6.7910    2.1240  -21.9450 H   0  0  0  0  0  0  0  0  0  0  0  0
   -8.0530    2.6370  -20.8780 H   0  0  0  0  0  0  0  0  0  0  0  0
   -9.4880    2.8540  -22.6350 H   0  0  0  0  0  0  0  0  0  0  0  0
   -9.1400    1.2990  -25.7880 H   0  0  0  0  0  0  0  0  0  0  0  0
  -10.2370    2.2470  -24.7500 H   0  0  0  0  0  0  0  0  0  0  0  0
  -11.2780    0.2780  -23.6960 C   0  0  0  0  0  0  0  0  0  0  0  0
  -12.0510    1.2090  -23.9010 O   0  0  0  0  0  0  0  0  0  0  0  0
  -11.7030   -0.9660  -22.9660 C   0  0  0  0  0  0  0  0  0  0  0  0
  -13.0740   -1.1810  -22.8070 C   0  0  0  0  0  0  0  0  0  0  0  0
  -13.5330   -2.3010  -22.1490 C   0  0  0  0  0  0  0  0  0  0  0  0
  -12.6040   -3.1820  -21.6210 C   0  0  0  0  0  0  0  0  0  0  0  0
  -13.0610   -4.2660  -20.9730 F   0  0  0  0  0  0  0  0  0  0  0  0
  -11.2410   -2.9860  -21.7480 C   0  0  0  0  0  0  0  0  0  0  0  0
  -10.7620   -1.8800  -22.4630 C   0  0  0  0  0  0  0  0  0  0  0  0
  -10.5730   -3.6860  -21.2650 H   0  0  0  0  0  0  0  0  0  0  0  0
  -14.5850   -2.5200  -22.0190 H   0  0  0  0  0  0  0  0  0  0  0  0
  -13.7560   -0.4550  -23.2360 H   0  0  0  0  0  0  0  0  0  0  0  0
   -9.3710   -1.5490  -24.8740 H   0  0  0  0  0  0  0  0  0  0  0  0
   -8.0980   -0.5340  -24.1500 H   0  0  0  0  0  0  0  0  0  0  0  0
   -6.2900   -2.1960  -22.7580 H   0  0  0  0  0  0  0  0  0  0  0  0
   -6.5970   -3.2560  -21.3810 H   0  0  0  0  0  0  0  0  0  0  0  0
   -8.8370   -3.5770  -21.9160 H   0  0  0  0  0  0  0  0  0  0  0  0
   -7.6770   -3.0320  -24.6920 H   0  0  0  0  0  0  0  0  0  0  0  0
   -7.6690   -4.5810  -23.8460 H   0  0  0  0  0  0  0  0  0  0  0  0
   -9.2010   -3.8790  -24.3950 H   0  0  0  0  0  0  0  0  0  0  0  0
  1  2  1  0  0  0  0
  1 61  1  0  0  0  0
  1 62  1  0  0  0  0
  1 63  1  0  0  0  0
  2  3  1  0  0  0  0
  2 23  1  0  0  0  0
  2 60  1  1  0  0  0
  3  4  1  0  0  0  0
  3 58  1  0  0  0  0
  3 59  1  0  0  0  0
  4  5  1  0  0  0  0
  4 21  1  0  0  0  0
  5  6  2  0  0  0  0
  5 14  1  0  0  0  0
  6  7  1  0  0  0  0
  6 20  1  0  0  0  0
  7  8  2  0  0  0  0
  8  9  1  0  0  0  0
  8 19  1  0  0  0  0
  9 10  2  0  0  0  0
  9 14  1  0  0  0  0
 10 11  1  0  0  0  0
 10 18  1  0  0  0  0
 11 12  2  0  0  0  0
 11 17  1  0  0  0  0
 12 13  1  0  0  0  0
 12 16  1  0  0  0  0
 13 14  2  0  0  0  0
 13 15  1  0  0  0  0
 21 22  2  0  0  0  0
 23 21  1  1  0  0  0
 23 24  1  0  0  0  0
 23 52  1  0  0  0  0
 24 25  1  0  0  0  0
 24 56  1  0  0  0  0
 24 57  1  0  0  0  0
 25 26  1  0  0  0  0
 25 44  1  0  0  0  0
 26 27  1  0  0  0  0
 26 42  1  0  0  0  0
 26 43  1  0  0  0  0
 27 28  2  0  0  0  0
 27 29  1  0  0  0  0
 29 30  1  0  0  0  0
 29 41  1  0  0  0  0
 30 31  1  0  0  0  0
 30 39  1  0  0  0  0
 30 40  1  0  0  0  0
 31 32  1  0  0  0  0
 31 33  1  0  0  0  0
 31 34  1  0  0  0  0
 33 34  1  0  0  0  0
 33 37  1  0  0  0  0
 33 38  1  0  0  0  0
 34 35  1  0  0  0  0
 34 36  1  0  0  0  0
 44 45  2  0  0  0  0
 44 46  1  0  0  0  0
 46 47  2  0  0  0  0
 46 52  1  0  0  0  0
 47 48  1  0  0  0  0
 47 55  1  0  0  0  0
 48 49  2  0  0  0  0
 48 54  1  0  0  0  0
 49 50  1  0  0  0  0
 49 51  1  0  0  0  0
 51 52  2  0  0  0  0
 51 53  1  0  0  0  0
M  END
>  <MODEL>
       1

$$$$
