tmp_first_model_18_27.pdb
 OpenBabel08282502533D

 58 62  0  0  1  0  0  0  0  0999 V2000
   -9.6050    0.4380  -29.1630 C   0  0  0  0  0  0  0  0  0  0  0  0
   -9.6460    0.8140  -27.7530 N   0  3  0  0  0  0  0  0  0  0  0  0
   -8.3300    0.8250  -27.0690 C   0  0  0  0  0  0  0  0  0  0  0  0
   -8.5780    1.0330  -25.5790 C   0  0  0  0  0  0  0  0  0  0  0  0
   -9.3090   -0.0960  -25.0140 N   0  0  0  0  0  0  0  0  0  0  0  0
   -8.5590   -1.2430  -24.5530 C   0  0  0  0  0  0  0  0  0  0  0  0
   -8.9260   -1.6390  -23.1010 C   0  0  2  0  0  0  0  0  0  0  0  0
   -8.2480   -0.6450  -22.1060 C   0  0  0  0  0  0  0  0  0  0  0  0
   -8.3890    0.5600  -22.0600 O   0  0  0  0  0  0  0  0  0  0  0  0
   -7.4130   -1.3620  -21.2730 N   0  0  0  0  0  0  0  0  0  0  0  0
   -6.6350   -0.7910  -20.2350 C   0  0  0  0  0  0  0  0  0  0  0  0
   -6.9310   -1.0650  -18.9220 C   0  0  0  0  0  0  0  0  0  0  0  0
   -6.2550   -0.5730  -17.8540 N   0  0  0  0  0  0  0  0  0  0  0  0
   -5.2290    0.2060  -18.0980 C   0  0  0  0  0  0  0  0  0  0  0  0
   -4.7800    0.5320  -19.4080 C   0  0  0  0  0  0  0  0  0  0  0  0
   -3.6400    1.3520  -19.6140 C   0  0  0  0  0  0  0  0  0  0  0  0
   -3.1970    1.6150  -20.8810 C   0  0  0  0  0  0  0  0  0  0  0  0
   -3.8620    1.0600  -21.9960 C   0  0  0  0  0  0  0  0  0  0  0  0
   -4.9700    0.2690  -21.8230 C   0  0  0  0  0  0  0  0  0  0  0  0
   -5.4770    0.0070  -20.5200 C   0  0  0  0  0  0  0  0  0  0  0  0
   -5.4610   -0.1730  -22.6840 H   0  0  0  0  0  0  0  0  0  0  0  0
   -3.4920    1.2600  -22.9970 H   0  0  0  0  0  0  0  0  0  0  0  0
   -2.3290    2.2480  -21.0390 H   0  0  0  0  0  0  0  0  0  0  0  0
   -3.1350    1.7600  -18.7430 H   0  0  0  0  0  0  0  0  0  0  0  0
   -4.6840    0.6050  -17.2420 H   0  0  0  0  0  0  0  0  0  0  0  0
   -7.7750   -1.7080  -18.6770 H   0  0  0  0  0  0  0  0  0  0  0  0
   -7.6620   -2.7850  -21.3220 C   0  0  0  0  0  0  0  0  0  0  0  0
   -8.3220   -3.0260  -22.6970 C   0  0  2  0  0  0  0  0  0  0  0  0
   -7.3930   -3.6860  -23.7280 C   0  0  0  0  0  0  0  0  0  0  0  0
   -6.4950   -3.0960  -23.9510 H   0  0  0  0  0  0  0  0  0  0  0  0
   -7.0720   -4.6690  -23.3730 H   0  0  0  0  0  0  0  0  0  0  0  0
   -7.9300   -3.8590  -24.6680 H   0  0  0  0  0  0  0  0  0  0  0  0
   -9.1500   -3.7330  -22.5740 H   0  0  0  0  0  0  0  0  0  0  0  0
   -8.3610   -3.0650  -20.5220 H   0  0  0  0  0  0  0  0  0  0  0  0
   -6.7220   -3.3290  -21.1750 H   0  0  0  0  0  0  0  0  0  0  0  0
  -10.4550   -1.6470  -22.9980 C   0  0  0  0  0  0  0  0  0  0  0  0
  -11.1140   -2.3510  -21.9790 C   0  0  0  0  0  0  0  0  0  0  0  0
  -12.4910   -2.3060  -21.8720 C   0  0  0  0  0  0  0  0  0  0  0  0
  -13.0730   -3.0130  -20.8860 F   0  0  0  0  0  0  0  0  0  0  0  0
  -13.2910   -1.5930  -22.7580 C   0  0  0  0  0  0  0  0  0  0  0  0
  -12.6490   -0.8690  -23.7430 C   0  0  0  0  0  0  0  0  0  0  0  0
  -11.2610   -0.9200  -23.8840 C   0  0  0  0  0  0  0  0  0  0  0  0
  -10.6650   -0.1260  -24.9880 C   0  0  0  0  0  0  0  0  0  0  0  0
  -11.3700    0.4810  -25.7970 O   0  0  0  0  0  0  0  0  0  0  0  0
  -13.1990   -0.2290  -24.4270 H   0  0  0  0  0  0  0  0  0  0  0  0
  -14.3740   -1.6550  -22.6880 H   0  0  0  0  0  0  0  0  0  0  0  0
  -10.5860   -2.9550  -21.2540 H   0  0  0  0  0  0  0  0  0  0  0  0
   -7.4950   -1.0080  -24.6240 H   0  0  0  0  0  0  0  0  0  0  0  0
   -8.7570   -2.1150  -25.1940 H   0  0  0  0  0  0  0  0  0  0  0  0
   -7.6520    1.1390  -24.9960 H   0  0  0  0  0  0  0  0  0  0  0  0
   -9.1750    1.9320  -25.3920 H   0  0  0  0  0  0  0  0  0  0  0  0
   -7.8210   -0.1380  -27.2080 H   0  0  0  0  0  0  0  0  0  0  0  0
   -7.6720    1.6070  -27.4620 H   0  0  0  0  0  0  0  0  0  0  0  0
  -10.0760    1.7520  -27.6400 H   0  0  0  0  0  0  0  0  0  0  0  0
  -10.2870    0.2040  -27.2230 H   0  0  0  0  0  0  0  0  0  0  0  0
   -9.0020    1.1560  -29.7270 H   0  0  0  0  0  0  0  0  0  0  0  0
  -10.6130    0.4190  -29.5730 H   0  0  0  0  0  0  0  0  0  0  0  0
   -9.1610   -0.5550  -29.2890 H   0  0  0  0  0  0  0  0  0  0  0  0
  1  2  1  0  0  0  0
  1 56  1  0  0  0  0
  1 57  1  0  0  0  0
  1 58  1  0  0  0  0
  2  3  1  0  0  0  0
  2 54  1  0  0  0  0
  2 55  1  0  0  0  0
  3  4  1  0  0  0  0
  3 52  1  0  0  0  0
  3 53  1  0  0  0  0
  4  5  1  0  0  0  0
  4 50  1  0  0  0  0
  4 51  1  0  0  0  0
  5  6  1  0  0  0  0
  5 43  1  0  0  0  0
  6  7  1  0  0  0  0
  6 48  1  0  0  0  0
  6 49  1  0  0  0  0
  7  8  1  1  0  0  0
  7 28  1  0  0  0  0
  7 36  1  0  0  0  0
  8  9  2  0  0  0  0
  8 10  1  0  0  0  0
 10 11  1  0  0  0  0
 10 27  1  0  0  0  0
 11 12  2  0  0  0  0
 11 20  1  0  0  0  0
 12 13  1  0  0  0  0
 12 26  1  0  0  0  0
 13 14  2  0  0  0  0
 14 15  1  0  0  0  0
 14 25  1  0  0  0  0
 15 16  2  0  0  0  0
 15 20  1  0  0  0  0
 16 17  1  0  0  0  0
 16 24  1  0  0  0  0
 17 18  2  0  0  0  0
 17 23  1  0  0  0  0
 18 19  1  0  0  0  0
 18 22  1  0  0  0  0
 19 20  2  0  0  0  0
 19 21  1  0  0  0  0
 27 28  1  0  0  0  0
 27 34  1  0  0  0  0
 27 35  1  0  0  0  0
 28 29  1  0  0  0  0
 28 33  1  1  0  0  0
 29 30  1  0  0  0  0
 29 31  1  0  0  0  0
 29 32  1  0  0  0  0
 36 37  2  0  0  0  0
 36 42  1  0  0  0  0
 37 38  1  0  0  0  0
 37 47  1  0  0  0  0
 38 39  1  0  0  0  0
 38 40  2  0  0  0  0
 40 41  1  0  0  0  0
 40 46  1  0  0  0  0
 41 42  2  0  0  0  0
 41 45  1  0  0  0  0
 42 43  1  0  0  0  0
 43 44  2  0  0  0  0
M  CHG  1   2   1
M  END
>  <MODEL>
       1

$$$$
