tmp_first_model_17_21.pdb
 OpenBabel08282502223D

 63 68  0  0  1  0  0  0  0  0999 V2000
   -8.3320   -4.1660  -23.1900 C   0  0  0  0  0  0  0  0  0  0  0  0
   -8.5770   -3.2770  -21.9410 C   0  0  1  0  0  0  0  0  0  0  0  0
   -7.1040   -2.7790  -21.6250 C   0  0  0  0  0  0  0  0  0  0  0  0
   -7.2160   -1.3950  -21.1790 N   0  0  0  0  0  0  0  0  0  0  0  0
   -6.4080   -0.8840  -20.1460 C   0  0  0  0  0  0  0  0  0  0  0  0
   -6.7350   -1.0770  -18.8250 C   0  0  0  0  0  0  0  0  0  0  0  0
   -6.0750   -0.5520  -17.7740 N   0  0  0  0  0  0  0  0  0  0  0  0
   -5.0530    0.2200  -18.0410 C   0  0  0  0  0  0  0  0  0  0  0  0
   -4.6040    0.5160  -19.3590 C   0  0  0  0  0  0  0  0  0  0  0  0
   -3.5140    1.3940  -19.5970 C   0  0  0  0  0  0  0  0  0  0  0  0
   -3.1580    1.7130  -20.8790 C   0  0  0  0  0  0  0  0  0  0  0  0
   -3.8650    1.1750  -21.9790 C   0  0  0  0  0  0  0  0  0  0  0  0
   -4.9050    0.3030  -21.7740 C   0  0  0  0  0  0  0  0  0  0  0  0
   -5.2920   -0.0470  -20.4550 C   0  0  0  0  0  0  0  0  0  0  0  0
   -5.4610   -0.1070  -22.6080 H   0  0  0  0  0  0  0  0  0  0  0  0
   -3.5680    1.4470  -22.9880 H   0  0  0  0  0  0  0  0  0  0  0  0
   -2.3220    2.3820  -21.0640 H   0  0  0  0  0  0  0  0  0  0  0  0
   -2.9840    1.8180  -18.7480 H   0  0  0  0  0  0  0  0  0  0  0  0
   -4.5330    0.6370  -17.1840 H   0  0  0  0  0  0  0  0  0  0  0  0
   -7.5930   -1.6690  -18.5290 H   0  0  0  0  0  0  0  0  0  0  0  0
   -8.6680   -1.0980  -20.8970 C   0  0  0  0  0  0  0  0  0  0  0  0
   -8.9250    0.1410  -20.8370 O   0  0  0  0  0  0  0  0  0  0  0  0
   -9.4090   -1.9450  -21.9470 C   0  0  1  0  0  0  0  0  0  0  0  0
   -9.3010   -1.1260  -23.3460 C   0  0  0  0  0  0  0  0  0  0  0  0
   -9.9300   -1.9510  -24.3310 N   0  0  0  0  0  0  0  0  0  0  0  0
   -9.5150   -1.8280  -25.7020 C   0  0  0  0  0  0  0  0  0  0  0  0
   -8.7340   -3.0570  -26.2030 C   0  0  0  0  0  0  0  0  0  0  0  0
   -7.5790   -2.9660  -26.5290 O   0  0  0  0  0  0  0  0  0  0  0  0
   -9.4390   -4.2140  -26.2960 N   0  0  0  0  0  0  0  0  0  0  0  0
   -8.8130   -5.3370  -26.9780 C   0  0  0  0  0  0  0  0  0  0  0  0
   -9.6440   -6.5880  -26.8810 C   0  0  0  0  0  0  0  0  0  0  0  0
   -8.9270   -7.8970  -26.7580 C   0  0  0  0  0  0  0  0  0  0  0  0
   -9.6780   -7.3420  -25.5830 C   0  0  0  0  0  0  0  0  0  0  0  0
  -10.6060   -7.8230  -25.3000 H   0  0  0  0  0  0  0  0  0  0  0  0
   -9.1040   -6.9380  -24.7500 H   0  0  0  0  0  0  0  0  0  0  0  0
   -7.8410   -7.8580  -26.7230 H   0  0  0  0  0  0  0  0  0  0  0  0
   -9.3290   -8.7630  -27.2750 H   0  0  0  0  0  0  0  0  0  0  0  0
  -10.5610   -6.5880  -27.4710 H   0  0  0  0  0  0  0  0  0  0  0  0
   -8.6100   -5.0900  -28.0280 H   0  0  0  0  0  0  0  0  0  0  0  0
   -7.8320   -5.4860  -26.5130 H   0  0  0  0  0  0  0  0  0  0  0  0
  -10.4340   -4.1940  -26.1240 H   0  0  0  0  0  0  0  0  0  0  0  0
  -10.3700   -1.5930  -26.3360 H   0  0  0  0  0  0  0  0  0  0  0  0
   -8.8190   -0.9880  -25.8110 H   0  0  0  0  0  0  0  0  0  0  0  0
  -10.9470   -2.7750  -23.8730 C   0  0  0  0  0  0  0  0  0  0  0  0
  -11.6720   -3.3190  -24.7240 O   0  0  0  0  0  0  0  0  0  0  0  0
  -11.0600   -3.0990  -22.5620 C   0  0  0  0  0  0  0  0  0  0  0  0
  -12.2360   -3.9260  -22.1490 C   0  0  0  0  0  0  0  0  0  0  0  0
  -12.7050   -3.8580  -20.7430 C   0  0  0  0  0  0  0  0  0  0  0  0
  -12.7890   -3.6800  -20.9720 C   0  0  0  0  0  0  0  0  0  0  0  0
  -12.6280   -4.5910  -19.5620 F   0  0  0  0  0  0  0  0  0  0  0  0
  -11.0240   -1.7290  -21.8000 C   0  0  0  0  0  0  0  0  0  0  0  0
  -11.0230   -1.7290  -21.8000 C   0  0  0  0  0  0  0  0  0  0  0  0
   -8.7940   -1.6750  -19.9170 H   0  0  0  0  0  0  0  0  0  0  0  0
  -13.1350   -2.8720  -20.1350 H   0  0  0  0  0  0  0  0  0  0  0  0
  -13.1160   -3.7190  -22.6610 H   0  0  0  0  0  0  0  0  0  0  0  0
   -8.2440   -1.0060  -23.5320 H   0  0  0  0  0  0  0  0  0  0  0  0
   -9.6810   -0.0490  -23.3420 H   0  0  0  0  0  0  0  0  0  0  0  0
   -6.4850   -2.7960  -22.5490 H   0  0  0  0  0  0  0  0  0  0  0  0
   -6.5330   -3.4280  -20.9380 H   0  0  0  0  0  0  0  0  0  0  0  0
   -9.0190   -3.8710  -21.1280 H   0  0  0  0  0  0  0  0  0  0  0  0
   -9.2210   -4.5830  -23.6530 H   0  0  0  0  0  0  0  0  0  0  0  0
   -7.6440   -5.0010  -22.9570 H   0  0  0  0  0  0  0  0  0  0  0  0
   -7.8160   -3.5740  -23.9520 H   0  0  0  0  0  0  0  0  0  0  0  0
  1  2  1  0  0  0  0
  1 61  1  0  0  0  0
  1 62  1  0  0  0  0
  1 63  1  0  0  0  0
  2  3  1  0  0  0  0
  2 23  1  0  0  0  0
  2 60  1  1  0  0  0
  3  4  1  0  0  0  0
  3 58  1  0  0  0  0
  3 59  1  0  0  0  0
  4  5  1  0  0  0  0
  4 21  1  0  0  0  0
  5  6  2  0  0  0  0
  5 14  1  0  0  0  0
  6  7  1  0  0  0  0
  6 20  1  0  0  0  0
  7  8  2  0  0  0  0
  8  9  1  0  0  0  0
  8 19  1  0  0  0  0
  9 10  2  0  0  0  0
  9 14  1  0  0  0  0
 10 11  1  0  0  0  0
 10 18  1  0  0  0  0
 11 12  2  0  0  0  0
 11 17  1  0  0  0  0
 12 13  1  0  0  0  0
 12 16  1  0  0  0  0
 13 14  2  0  0  0  0
 13 15  1  0  0  0  0
 21 22  2  0  0  0  0
 23 21  1  1  0  0  0
 23 24  1  0  0  0  0
 23 52  1  0  0  0  0
 24 25  1  0  0  0  0
 24 56  1  0  0  0  0
 24 57  1  0  0  0  0
 25 26  1  0  0  0  0
 25 44  1  0  0  0  0
 26 27  1  0  0  0  0
 26 42  1  0  0  0  0
 26 43  1  0  0  0  0
 27 28  2  0  0  0  0
 27 29  1  0  0  0  0
 29 30  1  0  0  0  0
 29 41  1  0  0  0  0
 30 31  1  0  0  0  0
 30 39  1  0  0  0  0
 30 40  1  0  0  0  0
 31 32  1  0  0  0  0
 31 33  1  0  0  0  0
 31 38  1  0  0  0  0
 32 33  1  0  0  0  0
 32 36  1  0  0  0  0
 32 37  1  0  0  0  0
 33 34  1  0  0  0  0
 33 35  1  0  0  0  0
 44 45  2  0  0  0  0
 44 46  1  0  0  0  0
 46 47  2  0  0  0  0
 46 52  1  0  0  0  0
 47 48  1  0  0  0  0
 47 55  1  0  0  0  0
 48 49  2  0  0  0  0
 48 54  1  0  0  0  0
 49 50  1  0  0  0  0
 49 51  1  0  0  0  0
 51 52  2  0  0  0  0
 51 53  1  0  0  0  0
M  END
>  <MODEL>
       1

$$$$
