tmp_first_model_16_9.pdb
 OpenBabel08282501503D

 41 43  0  0  1  0  0  0  0  0999 V2000
  -13.1850   -2.9330  -22.8960 C   0  0  0  0  0  0  0  0  0  0  0  0
  -11.9750   -2.0490  -23.2190 C   0  0  1  0  0  0  0  0  0  0  0  0
  -12.1610   -0.6610  -22.6370 C   0  0  0  0  0  0  0  0  0  0  0  0
  -11.3090    0.3480  -22.8180 C   0  0  0  0  0  0  0  0  0  0  0  0
  -10.0090    0.2130  -23.5880 C   0  0  0  0  0  0  0  0  0  0  0  0
   -9.0910   -0.7830  -23.0370 N   0  0  0  0  0  0  0  0  0  0  0  0
   -8.3780   -0.3940  -21.9330 C   0  0  0  0  0  0  0  0  0  0  0  0
   -8.4860    0.7320  -21.4680 O   0  0  0  0  0  0  0  0  0  0  0  0
   -7.4370   -1.4260  -21.2990 C   0  0  0  0  0  0  0  0  0  0  0  0
   -6.6010   -0.8320  -20.2040 C   0  0  0  0  0  0  0  0  0  0  0  0
   -6.9180   -1.0700  -18.8960 C   0  0  0  0  0  0  0  0  0  0  0  0
   -6.1800   -0.6680  -17.8280 N   0  0  0  0  0  0  0  0  0  0  0  0
   -5.1070    0.0430  -18.0760 C   0  0  0  0  0  0  0  0  0  0  0  0
   -4.7120    0.4640  -19.3810 C   0  0  0  0  0  0  0  0  0  0  0  0
   -3.6080    1.3300  -19.6140 C   0  0  0  0  0  0  0  0  0  0  0  0
   -3.2290    1.6480  -20.8900 C   0  0  0  0  0  0  0  0  0  0  0  0
   -3.9450    1.1300  -21.9940 C   0  0  0  0  0  0  0  0  0  0  0  0
   -5.0390    0.3260  -21.7950 C   0  0  0  0  0  0  0  0  0  0  0  0
   -5.4650   -0.0130  -20.4810 C   0  0  0  0  0  0  0  0  0  0  0  0
   -5.5870   -0.0670  -22.6460 H   0  0  0  0  0  0  0  0  0  0  0  0
   -3.6190    1.3700  -23.0020 H   0  0  0  0  0  0  0  0  0  0  0  0
   -2.3700    2.2870  -21.0690 H   0  0  0  0  0  0  0  0  0  0  0  0
   -3.0840    1.7420  -18.7540 H   0  0  0  0  0  0  0  0  0  0  0  0
   -4.4930    0.3130  -17.2110 H   0  0  0  0  0  0  0  0  0  0  0  0
   -7.7940   -1.6650  -18.6310 H   0  0  0  0  0  0  0  0  0  0  0  0
   -6.8110   -1.8990  -22.0680 H   0  0  0  0  0  0  0  0  0  0  0  0
   -8.0570   -2.2260  -20.8710 H   0  0  0  0  0  0  0  0  0  0  0  0
   -9.3830   -2.1690  -23.3890 C   0  0  0  0  0  0  0  0  0  0  0  0
  -10.6630   -2.7220  -22.7420 C   0  0  0  0  0  0  0  0  0  0  0  0
  -10.6010   -2.6480  -21.6420 H   0  0  0  0  0  0  0  0  0  0  0  0
  -10.7280   -3.7880  -22.9870 H   0  0  0  0  0  0  0  0  0  0  0  0
   -8.5170   -2.7890  -23.1360 H   0  0  0  0  0  0  0  0  0  0  0  0
   -9.4950   -2.2000  -24.4860 H   0  0  0  0  0  0  0  0  0  0  0  0
  -10.2090   -0.1070  -24.6210 H   0  0  0  0  0  0  0  0  0  0  0  0
   -9.4840    1.1740  -23.6070 H   0  0  0  0  0  0  0  0  0  0  0  0
  -11.5350    1.3290  -22.4020 H   0  0  0  0  0  0  0  0  0  0  0  0
  -13.0510   -0.4960  -22.0240 H   0  0  0  0  0  0  0  0  0  0  0  0
  -11.8980   -1.9500  -24.3200 H   0  0  0  0  0  0  0  0  0  0  0  0
  -13.0990   -3.9130  -23.3760 H   0  0  0  0  0  0  0  0  0  0  0  0
  -13.2680   -3.0940  -21.8130 H   0  0  0  0  0  0  0  0  0  0  0  0
  -14.1110   -2.4640  -23.2430 H   0  0  0  0  0  0  0  0  0  0  0  0
  1  2  1  0  0  0  0
  1 39  1  0  0  0  0
  1 40  1  0  0  0  0
  1 41  1  0  0  0  0
  2  3  1  0  0  0  0
  2 29  1  0  0  0  0
  2 38  1  6  0  0  0
  3  4  2  0  0  0  0
  3 37  1  0  0  0  0
  4  5  1  0  0  0  0
  4 36  1  0  0  0  0
  5  6  1  0  0  0  0
  5 34  1  0  0  0  0
  5 35  1  0  0  0  0
  6  7  1  0  0  0  0
  6 28  1  0  0  0  0
  7  8  2  0  0  0  0
  7  9  1  0  0  0  0
  9 10  1  0  0  0  0
  9 26  1  0  0  0  0
  9 27  1  0  0  0  0
 10 11  2  0  0  0  0
 10 19  1  0  0  0  0
 11 12  1  0  0  0  0
 11 25  1  0  0  0  0
 12 13  2  0  0  0  0
 13 14  1  0  0  0  0
 13 24  1  0  0  0  0
 14 15  2  0  0  0  0
 14 19  1  0  0  0  0
 15 16  1  0  0  0  0
 15 23  1  0  0  0  0
 16 17  2  0  0  0  0
 16 22  1  0  0  0  0
 17 18  1  0  0  0  0
 17 21  1  0  0  0  0
 18 19  2  0  0  0  0
 18 20  1  0  0  0  0
 28 29  1  0  0  0  0
 28 32  1  0  0  0  0
 28 33  1  0  0  0  0
 29 30  1  0  0  0  0
 29 31  1  0  0  0  0
M  END
>  <MODEL>
       1

$$$$
