tmp_first_model_5_60.pdb
 OpenBabel08272519233D

 62 67  0  0  1  0  0  0  0  0999 V2000
   -5.6480    1.6670  -25.5490 C   0  0  0  0  0  0  0  0  0  0  0  0
   -6.7360    2.6020  -26.0710 C   0  0  0  0  0  0  0  0  0  0  0  0
   -7.8660    1.9180  -26.6810 N   0  0  0  0  0  0  0  0  0  0  0  0
   -7.8570    1.6950  -28.0090 N   0  0  0  0  0  0  0  0  0  0  0  0
   -8.8830    0.8860  -28.2300 C   0  0  0  0  0  0  0  0  0  0  0  0
   -9.5450    0.5600  -27.0340 C   0  0  0  0  0  0  0  0  0  0  0  0
   -8.8860    1.2630  -26.0640 C   0  0  0  0  0  0  0  0  0  0  0  0
   -9.2650    1.3250  -24.6130 C   0  0  0  0  0  0  0  0  0  0  0  0
   -9.7850    0.0610  -24.1310 N   0  0  0  0  0  0  0  0  0  0  0  0
   -8.8900   -1.0730  -24.0570 C   0  0  0  0  0  0  0  0  0  0  0  0
   -9.1170   -1.8650  -22.7460 C   0  0  2  0  0  0  0  0  0  0  0  0
   -8.5640   -1.0390  -21.5530 C   0  0  0  0  0  0  0  0  0  0  0  0
   -9.0470   -0.0550  -21.0390 O   0  0  0  0  0  0  0  0  0  0  0  0
   -7.3560   -1.5840  -21.1780 N   0  0  0  0  0  0  0  0  0  0  0  0
   -6.5400   -1.0120  -20.1770 C   0  0  0  0  0  0  0  0  0  0  0  0
   -6.8290   -1.1760  -18.8450 C   0  0  0  0  0  0  0  0  0  0  0  0
   -5.9350   -0.9490  -17.8480 N   0  0  0  0  0  0  0  0  0  0  0  0
   -4.7600   -0.4640  -18.1910 C   0  0  0  0  0  0  0  0  0  0  0  0
   -4.4150   -0.0570  -19.5190 C   0  0  0  0  0  0  0  0  0  0  0  0
   -3.2510    0.7070  -19.8150 C   0  0  0  0  0  0  0  0  0  0  0  0
   -3.1500    1.3810  -21.0010 C   0  0  0  0  0  0  0  0  0  0  0  0
   -4.0880    1.1410  -22.0380 C   0  0  0  0  0  0  0  0  0  0  0  0
   -5.1260    0.2700  -21.8320 C   0  0  0  0  0  0  0  0  0  0  0  0
   -5.3570   -0.2900  -20.5450 C   0  0  0  0  0  0  0  0  0  0  0  0
   -5.7800   -0.0030  -22.6550 H   0  0  0  0  0  0  0  0  0  0  0  0
   -3.9630    1.6400  -22.9930 H   0  0  0  0  0  0  0  0  0  0  0  0
   -2.2800    1.9990  -21.2000 H   0  0  0  0  0  0  0  0  0  0  0  0
   -2.4850    0.8320  -19.0510 H   0  0  0  0  0  0  0  0  0  0  0  0
   -4.0290   -0.3320  -17.3900 H   0  0  0  0  0  0  0  0  0  0  0  0
   -7.7920   -1.5660  -18.5150 H   0  0  0  0  0  0  0  0  0  0  0  0
   -6.9280   -2.7130  -21.9750 C   0  0  0  0  0  0  0  0  0  0  0  0
   -8.2260   -3.1460  -22.6720 C   0  0  2  0  0  0  0  0  0  0  0  0
   -7.9900   -3.8980  -23.9790 C   0  0  0  0  0  0  0  0  0  0  0  0
   -8.9380   -4.1630  -24.4590 H   0  0  0  0  0  0  0  0  0  0  0  0
   -7.4140   -3.2930  -24.6890 H   0  0  0  0  0  0  0  0  0  0  0  0
   -7.4260   -4.8240  -23.8170 H   0  0  0  0  0  0  0  0  0  0  0  0
   -8.7270   -3.8270  -21.9780 H   0  0  0  0  0  0  0  0  0  0  0  0
   -6.1430   -2.4270  -22.6930 H   0  0  0  0  0  0  0  0  0  0  0  0
   -6.5060   -3.5020  -21.3400 H   0  0  0  0  0  0  0  0  0  0  0  0
  -10.6090   -2.1320  -22.6270 C   0  0  0  0  0  0  0  0  0  0  0  0
  -11.0890   -3.1000  -21.7400 C   0  0  0  0  0  0  0  0  0  0  0  0
  -12.4460   -3.3450  -21.6690 C   0  0  0  0  0  0  0  0  0  0  0  0
  -12.9090   -4.1990  -20.7450 F   0  0  0  0  0  0  0  0  0  0  0  0
  -13.3680   -2.7300  -22.5090 C   0  0  0  0  0  0  0  0  0  0  0  0
  -12.9010   -1.7450  -23.3560 C   0  0  0  0  0  0  0  0  0  0  0  0
  -11.5500   -1.3930  -23.3590 C   0  0  0  0  0  0  0  0  0  0  0  0
  -11.1360   -0.1710  -24.1200 C   0  0  0  0  0  0  0  0  0  0  0  0
  -11.9460    0.5690  -24.6650 O   0  0  0  0  0  0  0  0  0  0  0  0
  -13.5740   -1.1960  -24.0040 H   0  0  0  0  0  0  0  0  0  0  0  0
  -14.4180   -2.9990  -22.4550 H   0  0  0  0  0  0  0  0  0  0  0  0
  -10.4170   -3.6630  -21.0990 H   0  0  0  0  0  0  0  0  0  0  0  0
   -9.0680   -1.7350  -24.9210 H   0  0  0  0  0  0  0  0  0  0  0  0
   -7.8620   -0.7100  -24.1190 H   0  0  0  0  0  0  0  0  0  0  0  0
  -10.0720    2.0450  -24.4540 H   0  0  0  0  0  0  0  0  0  0  0  0
   -8.4110    1.6180  -23.9860 H   0  0  0  0  0  0  0  0  0  0  0  0
  -10.3600   -0.1090  -26.8120 H   0  0  0  0  0  0  0  0  0  0  0  0
   -9.0910    0.5610  -29.2410 H   0  0  0  0  0  0  0  0  0  0  0  0
   -6.3350    3.2490  -26.8520 H   0  0  0  0  0  0  0  0  0  0  0  0
   -7.1170    3.2440  -25.2730 H   0  0  0  0  0  0  0  0  0  0  0  0
   -4.8300    2.2570  -25.1240 H   0  0  0  0  0  0  0  0  0  0  0  0
   -5.2560    1.0520  -26.3620 H   0  0  0  0  0  0  0  0  0  0  0  0
   -6.0120    0.9970  -24.7600 H   0  0  0  0  0  0  0  0  0  0  0  0
  1  2  1  0  0  0  0
  1 60  1  0  0  0  0
  1 61  1  0  0  0  0
  1 62  1  0  0  0  0
  2  3  1  0  0  0  0
  2 58  1  0  0  0  0
  2 59  1  0  0  0  0
  3  4  1  0  0  0  0
  3  7  1  0  0  0  0
  4  5  2  0  0  0  0
  5  6  1  0  0  0  0
  5 57  1  0  0  0  0
  6  7  2  0  0  0  0
  6 56  1  0  0  0  0
  7  8  1  0  0  0  0
  8  9  1  0  0  0  0
  8 54  1  0  0  0  0
  8 55  1  0  0  0  0
  9 10  1  0  0  0  0
  9 47  1  0  0  0  0
 10 11  1  0  0  0  0
 10 52  1  0  0  0  0
 10 53  1  0  0  0  0
 11 12  1  1  0  0  0
 11 32  1  0  0  0  0
 11 40  1  0  0  0  0
 12 13  2  0  0  0  0
 12 14  1  0  0  0  0
 14 15  1  0  0  0  0
 14 31  1  0  0  0  0
 15 16  2  0  0  0  0
 15 24  1  0  0  0  0
 16 17  1  0  0  0  0
 16 30  1  0  0  0  0
 17 18  2  0  0  0  0
 18 19  1  0  0  0  0
 18 29  1  0  0  0  0
 19 20  2  0  0  0  0
 19 24  1  0  0  0  0
 20 21  1  0  0  0  0
 20 28  1  0  0  0  0
 21 22  2  0  0  0  0
 21 27  1  0  0  0  0
 22 23  1  0  0  0  0
 22 26  1  0  0  0  0
 23 24  2  0  0  0  0
 23 25  1  0  0  0  0
 31 32  1  0  0  0  0
 31 38  1  0  0  0  0
 31 39  1  0  0  0  0
 32 33  1  0  0  0  0
 32 37  1  1  0  0  0
 33 34  1  0  0  0  0
 33 35  1  0  0  0  0
 33 36  1  0  0  0  0
 40 41  2  0  0  0  0
 40 46  1  0  0  0  0
 41 42  1  0  0  0  0
 41 51  1  0  0  0  0
 42 43  1  0  0  0  0
 42 44  2  0  0  0  0
 44 45  1  0  0  0  0
 44 50  1  0  0  0  0
 45 46  2  0  0  0  0
 45 49  1  0  0  0  0
 46 47  1  0  0  0  0
 47 48  2  0  0  0  0
M  END
>  <MODEL>
       1

$$$$
