tmp_first_model_16_30.pdb
 OpenBabel08282501503D

 58 63  0  0  1  0  0  0  0  0999 V2000
  -10.4420   -1.0040  -23.3740 C   0  0  0  0  0  0  0  0  0  0  0  0
   -9.0200   -1.4200  -23.0000 C   0  0  1  0  0  0  0  0  0  0  0  0
   -8.3840   -0.5110  -21.9330 C   0  0  0  0  0  0  0  0  0  0  0  0
   -7.4140   -1.3820  -21.2870 N   0  0  0  0  0  0  0  0  0  0  0  0
   -6.5730   -0.9580  -20.2330 C   0  0  0  0  0  0  0  0  0  0  0  0
   -6.8650   -1.2910  -18.9350 C   0  0  0  0  0  0  0  0  0  0  0  0
   -6.1230   -0.9060  -17.8700 N   0  0  0  0  0  0  0  0  0  0  0  0
   -5.0800   -0.1470  -18.1010 C   0  0  0  0  0  0  0  0  0  0  0  0
   -4.6890    0.3040  -19.3940 C   0  0  0  0  0  0  0  0  0  0  0  0
   -3.5940    1.1850  -19.5910 C   0  0  0  0  0  0  0  0  0  0  0  0
   -3.2370    1.5680  -20.8540 C   0  0  0  0  0  0  0  0  0  0  0  0
   -3.9460    1.0800  -21.9770 C   0  0  0  0  0  0  0  0  0  0  0  0
   -5.0240    0.2450  -21.8090 C   0  0  0  0  0  0  0  0  0  0  0  0
   -5.4370   -0.1360  -20.5060 C   0  0  0  0  0  0  0  0  0  0  0  0
   -5.5730   -0.1370  -22.6640 H   0  0  0  0  0  0  0  0  0  0  0  0
   -3.6310    1.3650  -22.9750 H   0  0  0  0  0  0  0  0  0  0  0  0
   -2.4000    2.2440  -21.0070 H   0  0  0  0  0  0  0  0  0  0  0  0
   -3.0670    1.5510  -18.7140 H   0  0  0  0  0  0  0  0  0  0  0  0
   -4.4800    0.1440  -17.2390 H   0  0  0  0  0  0  0  0  0  0  0  0
   -7.7400   -1.8930  -18.7020 H   0  0  0  0  0  0  0  0  0  0  0  0
   -7.7190   -2.7180  -21.4340 C   0  0  0  0  0  0  0  0  0  0  0  0
   -7.1320   -3.6120  -20.8530 O   0  0  0  0  0  0  0  0  0  0  0  0
   -8.8760   -2.8740  -22.4280 C   0  0  1  0  0  0  0  0  0  0  0  0
  -10.1160   -3.3150  -21.6210 C   0  0  0  0  0  0  0  0  0  0  0  0
  -11.2200   -3.7750  -22.4560 N   0  0  0  0  0  0  0  0  0  0  0  0
  -12.5930   -3.6930  -21.9490 C   0  0  0  0  0  0  0  0  0  0  0  0
  -13.5100   -2.7270  -22.6640 C   0  0  0  0  0  0  0  0  0  0  0  0
  -14.0680   -1.6210  -22.0910 C   0  0  0  0  0  0  0  0  0  0  0  0
  -14.9540   -0.7820  -22.8630 C   0  0  0  0  0  0  0  0  0  0  0  0
  -15.6480    0.1500  -22.5110 O   0  0  0  0  0  0  0  0  0  0  0  0
  -14.9700   -1.1570  -24.2220 N   0  0  0  0  0  0  0  0  0  0  0  0
  -14.5220   -2.3500  -24.6690 C   0  0  0  0  0  0  0  0  0  0  0  0
  -13.8230   -3.1460  -23.9420 N   0  0  0  0  0  0  0  0  0  0  0  0
  -14.7650   -2.6000  -25.7040 H   0  0  0  0  0  0  0  0  0  0  0  0
  -15.6420   -0.6490  -24.7710 H   0  0  0  0  0  0  0  0  0  0  0  0
  -13.9300   -1.3550  -21.0510 H   0  0  0  0  0  0  0  0  0  0  0  0
  -13.0580   -4.6500  -22.1670 H   0  0  0  0  0  0  0  0  0  0  0  0
  -12.5730   -3.4970  -20.8710 H   0  0  0  0  0  0  0  0  0  0  0  0
  -10.9720   -4.6480  -23.4890 C   0  0  0  0  0  0  0  0  0  0  0  0
  -11.8610   -5.2840  -24.0370 O   0  0  0  0  0  0  0  0  0  0  0  0
   -9.5550   -4.7760  -23.9420 C   0  0  0  0  0  0  0  0  0  0  0  0
   -9.2640   -5.7560  -24.8930 C   0  0  0  0  0  0  0  0  0  0  0  0
   -7.9870   -5.8930  -25.4030 C   0  0  0  0  0  0  0  0  0  0  0  0
   -7.0020   -5.0260  -24.9420 C   0  0  0  0  0  0  0  0  0  0  0  0
   -5.7550   -5.1420  -25.4290 F   0  0  0  0  0  0  0  0  0  0  0  0
   -7.2540   -4.0680  -23.9780 C   0  0  0  0  0  0  0  0  0  0  0  0
   -8.5530   -3.9270  -23.4670 C   0  0  0  0  0  0  0  0  0  0  0  0
   -6.4230   -3.4870  -23.5900 H   0  0  0  0  0  0  0  0  0  0  0  0
   -7.7280   -6.6640  -26.1230 H   0  0  0  0  0  0  0  0  0  0  0  0
  -10.0580   -6.4230  -25.2130 H   0  0  0  0  0  0  0  0  0  0  0  0
   -9.7970   -4.0980  -20.9270 H   0  0  0  0  0  0  0  0  0  0  0  0
  -10.4450   -2.4660  -21.0160 H   0  0  0  0  0  0  0  0  0  0  0  0
   -9.1360   -0.1480  -21.2120 H   0  0  0  0  0  0  0  0  0  0  0  0
   -7.9070    0.3770  -22.3610 H   0  0  0  0  0  0  0  0  0  0  0  0
   -8.3830   -1.3890  -23.8930 H   0  0  0  0  0  0  0  0  0  0  0  0
  -11.0840   -0.9720  -22.4860 H   0  0  0  0  0  0  0  0  0  0  0  0
  -10.8800   -1.7270  -24.0670 H   0  0  0  0  0  0  0  0  0  0  0  0
  -10.4690   -0.0130  -23.8370 H   0  0  0  0  0  0  0  0  0  0  0  0
  1  2  1  0  0  0  0
  1 56  1  0  0  0  0
  1 57  1  0  0  0  0
  1 58  1  0  0  0  0
  2  3  1  0  0  0  0
  2 23  1  0  0  0  0
  2 55  1  6  0  0  0
  3  4  1  0  0  0  0
  3 53  1  0  0  0  0
  3 54  1  0  0  0  0
  4  5  1  0  0  0  0
  4 21  1  0  0  0  0
  5  6  2  0  0  0  0
  5 14  1  0  0  0  0
  6  7  1  0  0  0  0
  6 20  1  0  0  0  0
  7  8  2  0  0  0  0
  8  9  1  0  0  0  0
  8 19  1  0  0  0  0
  9 10  2  0  0  0  0
  9 14  1  0  0  0  0
 10 11  1  0  0  0  0
 10 18  1  0  0  0  0
 11 12  2  0  0  0  0
 11 17  1  0  0  0  0
 12 13  1  0  0  0  0
 12 16  1  0  0  0  0
 13 14  2  0  0  0  0
 13 15  1  0  0  0  0
 21 22  2  0  0  0  0
 23 21  1  1  0  0  0
 23 24  1  0  0  0  0
 23 47  1  0  0  0  0
 24 25  1  0  0  0  0
 24 51  1  0  0  0  0
 24 52  1  0  0  0  0
 25 26  1  0  0  0  0
 25 39  1  0  0  0  0
 26 27  1  0  0  0  0
 26 37  1  0  0  0  0
 26 38  1  0  0  0  0
 27 28  2  0  0  0  0
 27 33  1  0  0  0  0
 28 29  1  0  0  0  0
 28 36  1  0  0  0  0
 29 30  2  0  0  0  0
 29 31  1  0  0  0  0
 31 32  1  0  0  0  0
 31 35  1  0  0  0  0
 32 33  2  0  0  0  0
 32 34  1  0  0  0  0
 39 40  2  0  0  0  0
 39 41  1  0  0  0  0
 41 42  2  0  0  0  0
 41 47  1  0  0  0  0
 42 43  1  0  0  0  0
 42 50  1  0  0  0  0
 43 44  2  0  0  0  0
 43 49  1  0  0  0  0
 44 45  1  0  0  0  0
 44 46  1  0  0  0  0
 46 47  2  0  0  0  0
 46 48  1  0  0  0  0
M  END
>  <MODEL>
       1

$$$$
