tmp_first_model_14_84.pdb
 OpenBabel08282500413D

 63 68  0  0  1  0  0  0  0  0999 V2000
   -8.3110   -4.1580  -23.4970 C   0  0  0  0  0  0  0  0  0  0  0  0
   -8.4870   -2.9570  -22.5760 C   0  0  1  0  0  0  0  0  0  0  0  0
   -7.2780   -2.6930  -21.6720 C   0  0  0  0  0  0  0  0  0  0  0  0
   -7.4070   -1.2890  -21.3480 N   0  0  0  0  0  0  0  0  0  0  0  0
   -6.6500   -0.6800  -20.3130 C   0  0  0  0  0  0  0  0  0  0  0  0
   -6.9890   -0.9150  -19.0060 C   0  0  0  0  0  0  0  0  0  0  0  0
   -6.3290   -0.4160  -17.9330 N   0  0  0  0  0  0  0  0  0  0  0  0
   -5.2630    0.3100  -18.1650 C   0  0  0  0  0  0  0  0  0  0  0  0
   -4.7710    0.6030  -19.4670 C   0  0  0  0  0  0  0  0  0  0  0  0
   -3.6000    1.3820  -19.6590 C   0  0  0  0  0  0  0  0  0  0  0  0
   -3.1360    1.6350  -20.9200 C   0  0  0  0  0  0  0  0  0  0  0  0
   -3.8200    1.1190  -22.0450 C   0  0  0  0  0  0  0  0  0  0  0  0
   -4.9600    0.3700  -21.8830 C   0  0  0  0  0  0  0  0  0  0  0  0
   -5.4740    0.0960  -20.5860 C   0  0  0  0  0  0  0  0  0  0  0  0
   -5.4800   -0.0160  -22.7560 H   0  0  0  0  0  0  0  0  0  0  0  0
   -3.4420    1.3220  -23.0420 H   0  0  0  0  0  0  0  0  0  0  0  0
   -2.2450    2.2370  -21.0660 H   0  0  0  0  0  0  0  0  0  0  0  0
   -3.0910    1.7780  -18.7830 H   0  0  0  0  0  0  0  0  0  0  0  0
   -4.7240    0.6970  -17.2990 H   0  0  0  0  0  0  0  0  0  0  0  0
   -7.8550   -1.5380  -18.7790 H   0  0  0  0  0  0  0  0  0  0  0  0
   -8.2610   -0.5960  -22.1830 C   0  0  0  0  0  0  0  0  0  0  0  0
   -8.5000    0.5860  -22.0820 O   0  0  0  0  0  0  0  0  0  0  0  0
   -8.7850   -1.5770  -23.2600 C   0  0  1  0  0  0  0  0  0  0  0  0
   -7.9610   -1.2930  -24.5470 C   0  0  0  0  0  0  0  0  0  0  0  0
   -8.5460   -1.8230  -25.7760 N   0  0  0  0  0  0  0  0  0  0  0  0
   -7.6790   -2.2000  -26.8840 C   0  0  0  0  0  0  0  0  0  0  0  0
   -7.6250   -3.7290  -27.0930 C   0  0  0  0  0  0  0  0  0  0  0  0
   -6.7790   -4.4230  -26.5570 O   0  0  0  0  0  0  0  0  0  0  0  0
   -8.6050   -4.2070  -27.9000 N   0  0  0  0  0  0  0  0  0  0  0  0
   -8.6160   -5.5890  -28.3290 C   0  0  0  0  0  0  0  0  0  0  0  0
   -7.4870   -5.9150  -29.2030 C   0  0  0  0  0  0  0  0  0  0  0  0
   -6.4920   -5.0130  -29.4260 F   0  0  0  0  0  0  0  0  0  0  0  0
   -7.3750   -6.9550  -30.0590 C   0  0  0  0  0  0  0  0  0  0  0  0
   -7.5130   -7.1340  -30.0070 C   0  0  0  0  0  0  0  0  0  0  0  0
   -6.2920   -7.6600  -29.8850 H   0  0  0  0  0  0  0  0  0  0  0  0
   -8.4700   -8.1900  -29.1610 H   0  0  0  0  0  0  0  0  0  0  0  0
   -6.3200   -6.7460  -30.7040 H   0  0  0  0  0  0  0  0  0  0  0  0
   -8.1520   -6.9010  -31.0980 H   0  0  0  0  0  0  0  0  0  0  0  0
   -8.5820   -6.2440  -27.4390 H   0  0  0  0  0  0  0  0  0  0  0  0
   -9.6080   -5.7670  -28.7880 H   0  0  0  0  0  0  0  0  0  0  0  0
   -9.3850   -3.5990  -28.1080 H   0  0  0  0  0  0  0  0  0  0  0  0
   -8.0450   -1.7190  -27.7970 H   0  0  0  0  0  0  0  0  0  0  0  0
   -6.6700   -1.8430  -26.6710 H   0  0  0  0  0  0  0  0  0  0  0  0
   -9.8840   -1.8290  -26.0150 C   0  0  0  0  0  0  0  0  0  0  0  0
  -10.3440   -2.0940  -27.1310 O   0  0  0  0  0  0  0  0  0  0  0  0
  -10.7670   -1.5610  -24.8490 C   0  0  0  0  0  0  0  0  0  0  0  0
  -12.1370   -1.5570  -25.0890 C   0  0  0  0  0  0  0  0  0  0  0  0
  -13.0360   -1.3490  -24.0660 C   0  0  0  0  0  0  0  0  0  0  0  0
  -12.5240   -1.1660  -22.7870 C   0  0  0  0  0  0  0  0  0  0  0  0
  -13.3980   -0.9750  -21.7880 F   0  0  0  0  0  0  0  0  0  0  0  0
  -11.1690   -1.1980  -22.5110 C   0  0  0  0  0  0  0  0  0  0  0  0
  -10.2590   -1.4010  -23.5560 C   0  0  0  0  0  0  0  0  0  0  0  0
  -10.8250   -1.0760  -21.4880 H   0  0  0  0  0  0  0  0  0  0  0  0
  -14.1090   -1.3430  -24.2290 H   0  0  0  0  0  0  0  0  0  0  0  0
  -12.4560   -1.7430  -26.1070 H   0  0  0  0  0  0  0  0  0  0  0  0
   -6.9650   -1.7390  -24.4460 H   0  0  0  0  0  0  0  0  0  0  0  0
   -7.8340   -0.2040  -24.6210 H   0  0  0  0  0  0  0  0  0  0  0  0
   -6.3320   -2.9060  -22.1960 H   0  0  0  0  0  0  0  0  0  0  0  0
   -7.2810   -3.2870  -20.7560 H   0  0  0  0  0  0  0  0  0  0  0  0
   -9.3520   -3.1440  -21.9200 H   0  0  0  0  0  0  0  0  0  0  0  0
   -9.1780   -4.2800  -24.1530 H   0  0  0  0  0  0  0  0  0  0  0  0
   -7.4220   -4.0600  -24.1320 H   0  0  0  0  0  0  0  0  0  0  0  0
   -8.2060   -5.0750  -22.9070 H   0  0  0  0  0  0  0  0  0  0  0  0
  1  2  1  0  0  0  0
  1 61  1  0  0  0  0
  1 62  1  0  0  0  0
  1 63  1  0  0  0  0
  2  3  1  0  0  0  0
  2 23  1  0  0  0  0
  2 60  1  1  0  0  0
  3  4  1  0  0  0  0
  3 58  1  0  0  0  0
  3 59  1  0  0  0  0
  4  5  1  0  0  0  0
  4 21  1  0  0  0  0
  5  6  2  0  0  0  0
  5 14  1  0  0  0  0
  6  7  1  0  0  0  0
  6 20  1  0  0  0  0
  7  8  2  0  0  0  0
  8  9  1  0  0  0  0
  8 19  1  0  0  0  0
  9 10  2  0  0  0  0
  9 14  1  0  0  0  0
 10 11  1  0  0  0  0
 10 18  1  0  0  0  0
 11 12  2  0  0  0  0
 11 17  1  0  0  0  0
 12 13  1  0  0  0  0
 12 16  1  0  0  0  0
 13 14  2  0  0  0  0
 13 15  1  0  0  0  0
 21 22  2  0  0  0  0
 23 21  1  1  0  0  0
 23 24  1  0  0  0  0
 23 52  1  0  0  0  0
 24 25  1  0  0  0  0
 24 56  1  0  0  0  0
 24 57  1  0  0  0  0
 25 26  1  0  0  0  0
 25 44  1  0  0  0  0
 26 27  1  0  0  0  0
 26 42  1  0  0  0  0
 26 43  1  0  0  0  0
 27 28  2  0  0  0  0
 27 29  1  0  0  0  0
 29 30  1  0  0  0  0
 29 41  1  0  0  0  0
 30 31  1  0  0  0  0
 30 39  1  0  0  0  0
 30 40  1  0  0  0  0
 31 32  1  0  0  0  0
 31 33  1  0  0  0  0
 31 34  1  0  0  0  0
 33 34  1  0  0  0  0
 33 37  1  0  0  0  0
 33 38  1  0  0  0  0
 34 35  1  0  0  0  0
 34 36  1  0  0  0  0
 44 45  2  0  0  0  0
 44 46  1  0  0  0  0
 46 47  2  0  0  0  0
 46 52  1  0  0  0  0
 47 48  1  0  0  0  0
 47 55  1  0  0  0  0
 48 49  2  0  0  0  0
 48 54  1  0  0  0  0
 49 50  1  0  0  0  0
 49 51  1  0  0  0  0
 51 52  2  0  0  0  0
 51 53  1  0  0  0  0
M  END
>  <MODEL>
       1

$$$$
