tmp_first_model_18_54.pdb
 OpenBabel08282502533D

 40 43  0  0  0  0  0  0  0  0999 V2000
   -9.5750   -1.3390  -24.0570 C   0  0  0  0  0  0  0  0  0  0  0  0
   -8.7820   -1.6250  -22.8760 N   0  0  0  0  0  0  0  0  0  0  0  0
   -8.4640   -2.8430  -22.3330 C   0  0  0  0  0  0  0  0  0  0  0  0
   -8.9100   -4.1510  -22.9020 C   0  0  0  0  0  0  0  0  0  0  0  0
   -8.0830   -4.5390  -24.1090 C   0  0  0  0  0  0  0  0  0  0  0  0
   -8.5950   -4.4430  -25.4000 C   0  0  0  0  0  0  0  0  0  0  0  0
   -7.8120   -4.7740  -26.5010 C   0  0  0  0  0  0  0  0  0  0  0  0
   -6.5010   -5.2000  -26.3160 C   0  0  0  0  0  0  0  0  0  0  0  0
   -5.9780   -5.2880  -25.0290 C   0  0  0  0  0  0  0  0  0  0  0  0
   -6.7630   -4.9520  -23.9320 C   0  0  0  0  0  0  0  0  0  0  0  0
   -6.3520   -5.0120  -22.9270 H   0  0  0  0  0  0  0  0  0  0  0  0
   -4.9540   -5.6190  -24.8830 H   0  0  0  0  0  0  0  0  0  0  0  0
   -5.8880   -5.4620  -27.1740 H   0  0  0  0  0  0  0  0  0  0  0  0
   -8.2280   -4.7030  -27.5010 H   0  0  0  0  0  0  0  0  0  0  0  0
   -9.6180   -4.1030  -25.5460 H   0  0  0  0  0  0  0  0  0  0  0  0
   -9.9750   -4.1080  -23.1630 H   0  0  0  0  0  0  0  0  0  0  0  0
   -8.8080   -4.8950  -22.1070 H   0  0  0  0  0  0  0  0  0  0  0  0
   -7.6570   -2.7300  -21.3200 N   0  0  0  0  0  0  0  0  0  0  0  0
   -7.4050   -1.3860  -21.2120 N   0  0  0  0  0  0  0  0  0  0  0  0
   -6.5810   -0.8350  -20.1830 C   0  0  0  0  0  0  0  0  0  0  0  0
   -6.8870   -1.0600  -18.8620 C   0  0  0  0  0  0  0  0  0  0  0  0
   -6.1970   -0.5430  -17.8150 N   0  0  0  0  0  0  0  0  0  0  0  0
   -5.1630    0.2240  -18.0710 C   0  0  0  0  0  0  0  0  0  0  0  0
   -4.7240    0.5330  -19.3880 C   0  0  0  0  0  0  0  0  0  0  0  0
   -3.5880    1.3570  -19.6250 C   0  0  0  0  0  0  0  0  0  0  0  0
   -3.1800    1.6160  -20.9050 C   0  0  0  0  0  0  0  0  0  0  0  0
   -3.8790    1.0570  -21.9980 C   0  0  0  0  0  0  0  0  0  0  0  0
   -4.9730    0.2560  -21.7940 C   0  0  0  0  0  0  0  0  0  0  0  0
   -5.4400   -0.0130  -20.4790 C   0  0  0  0  0  0  0  0  0  0  0  0
   -5.4950   -0.1770  -22.6390 H   0  0  0  0  0  0  0  0  0  0  0  0
   -3.5460    1.2560  -23.0110 H   0  0  0  0  0  0  0  0  0  0  0  0
   -2.3160    2.2460  -21.0960 H   0  0  0  0  0  0  0  0  0  0  0  0
   -3.0520    1.7750  -18.7750 H   0  0  0  0  0  0  0  0  0  0  0  0
   -4.6050    0.6260  -17.2200 H   0  0  0  0  0  0  0  0  0  0  0  0
   -7.7380   -1.6780  -18.5920 H   0  0  0  0  0  0  0  0  0  0  0  0
   -8.1140   -0.6450  -22.1480 C   0  0  0  0  0  0  0  0  0  0  0  0
   -8.1400    0.5580  -22.3050 O   0  0  0  0  0  0  0  0  0  0  0  0
   -9.0060   -1.4810  -24.9810 H   0  0  0  0  0  0  0  0  0  0  0  0
   -9.8970   -0.3000  -24.0230 H   0  0  0  0  0  0  0  0  0  0  0  0
  -10.4730   -1.9610  -24.1010 H   0  0  0  0  0  0  0  0  0  0  0  0
  1  2  1  0  0  0  0
  1 38  1  0  0  0  0
  1 39  1  0  0  0  0
  1 40  1  0  0  0  0
  2  3  1  0  0  0  0
  2 36  1  0  0  0  0
  3  4  1  0  0  0  0
  3 18  2  0  0  0  0
  4  5  1  0  0  0  0
  4 16  1  0  0  0  0
  4 17  1  0  0  0  0
  5  6  2  0  0  0  0
  5 10  1  0  0  0  0
  6  7  1  0  0  0  0
  6 15  1  0  0  0  0
  7  8  2  0  0  0  0
  7 14  1  0  0  0  0
  8  9  1  0  0  0  0
  8 13  1  0  0  0  0
  9 10  2  0  0  0  0
  9 12  1  0  0  0  0
 10 11  1  0  0  0  0
 18 19  1  0  0  0  0
 19 20  1  0  0  0  0
 19 36  1  0  0  0  0
 20 21  2  0  0  0  0
 20 29  1  0  0  0  0
 21 22  1  0  0  0  0
 21 35  1  0  0  0  0
 22 23  2  0  0  0  0
 23 24  1  0  0  0  0
 23 34  1  0  0  0  0
 24 25  2  0  0  0  0
 24 29  1  0  0  0  0
 25 26  1  0  0  0  0
 25 33  1  0  0  0  0
 26 27  2  0  0  0  0
 26 32  1  0  0  0  0
 27 28  1  0  0  0  0
 27 31  1  0  0  0  0
 28 29  2  0  0  0  0
 28 30  1  0  0  0  0
 36 37  2  0  0  0  0
M  END
>  <MODEL>
       1

$$$$
