tmp_first_model_7_69.pdb
 OpenBabel08272520323D

 63 67  0  0  0  0  0  0  0  0999 V2000
   -7.4460   -4.3800  -27.9850 C   0  0  0  0  0  0  0  0  0  0  0  0
   -8.5640   -4.0230  -28.6160 C   0  0  0  0  0  0  0  0  0  0  0  0
   -9.0090   -2.6020  -28.6840 C   0  0  0  0  0  0  0  0  0  0  0  0
   -9.6620   -2.1780  -29.6180 O   0  0  0  0  0  0  0  0  0  0  0  0
   -8.5360   -1.7380  -27.6820 N   0  0  0  0  0  0  0  0  0  0  0  0
   -7.9450   -0.4830  -28.1450 C   0  0  0  0  0  0  0  0  0  0  0  0
   -6.7120   -0.2090  -27.3050 C   0  0  0  0  0  0  0  0  0  0  0  0
   -7.1770    0.0230  -25.8700 C   0  0  0  0  0  0  0  0  0  0  0  0
   -8.0310   -1.1270  -25.3660 C   0  0  0  0  0  0  0  0  0  0  0  0
   -8.6700   -1.9730  -26.2990 C   0  0  0  0  0  0  0  0  0  0  0  0
   -9.4350   -3.0540  -25.8280 C   0  0  0  0  0  0  0  0  0  0  0  0
   -9.3590   -3.4320  -24.4960 C   0  0  0  0  0  0  0  0  0  0  0  0
   -8.6920   -2.6270  -23.5730 C   0  0  0  0  0  0  0  0  0  0  0  0
   -8.2190   -1.3920  -24.0020 C   0  0  0  0  0  0  0  0  0  0  0  0
   -8.0510   -0.2320  -22.9800 N   0  3  0  0  0  0  0  0  0  0  0  0
   -8.9810    1.0420  -23.2750 C   0  0  0  0  0  0  0  0  0  0  0  0
  -10.4610    0.8260  -23.0460 C   0  0  0  0  0  0  0  0  0  0  0  0
  -11.2420    1.8730  -22.5670 C   0  0  0  0  0  0  0  0  0  0  0  0
  -12.6240    1.7370  -22.4590 C   0  0  0  0  0  0  0  0  0  0  0  0
  -13.2340    0.5230  -22.7530 C   0  0  0  0  0  0  0  0  0  0  0  0
  -12.4420   -0.5200  -23.2050 C   0  0  0  0  0  0  0  0  0  0  0  0
  -13.1760   -2.0540  -23.5890 Cl  0  0  0  0  0  0  0  0  0  0  0  0
  -11.0750   -0.3760  -23.3840 C   0  0  0  0  0  0  0  0  0  0  0  0
  -10.5070   -1.1760  -23.8420 H   0  0  0  0  0  0  0  0  0  0  0  0
  -14.3010    0.3680  -22.6230 H   0  0  0  0  0  0  0  0  0  0  0  0
  -13.2350    2.5850  -22.1730 H   0  0  0  0  0  0  0  0  0  0  0  0
  -10.7700    2.8100  -22.2770 H   0  0  0  0  0  0  0  0  0  0  0  0
   -8.5980    1.8510  -22.6490 H   0  0  0  0  0  0  0  0  0  0  0  0
   -8.8160    1.2940  -24.3220 H   0  0  0  0  0  0  0  0  0  0  0  0
   -8.0910   -0.5350  -21.4870 C   0  0  0  0  0  0  0  0  0  0  0  0
   -8.8610    0.0640  -20.7810 O   0  0  0  0  0  0  0  0  0  0  0  0
   -7.1020   -1.5670  -20.9360 C   0  0  0  0  0  0  0  0  0  0  0  0
   -6.2230   -0.9640  -19.8670 C   0  0  0  0  0  0  0  0  0  0  0  0
   -6.5110   -1.1280  -18.5380 C   0  0  0  0  0  0  0  0  0  0  0  0
   -5.8250   -0.5540  -17.5160 N   0  0  0  0  0  0  0  0  0  0  0  0
   -4.8280    0.2310  -17.8330 C   0  0  0  0  0  0  0  0  0  0  0  0
   -4.4130    0.5010  -19.1620 C   0  0  0  0  0  0  0  0  0  0  0  0
   -3.3570    1.4060  -19.4540 C   0  0  0  0  0  0  0  0  0  0  0  0
   -3.0560    1.7180  -20.7530 C   0  0  0  0  0  0  0  0  0  0  0  0
   -3.7970    1.1370  -21.8110 C   0  0  0  0  0  0  0  0  0  0  0  0
   -4.7960    0.2320  -21.5480 C   0  0  0  0  0  0  0  0  0  0  0  0
   -5.1430   -0.1010  -20.2140 C   0  0  0  0  0  0  0  0  0  0  0  0
   -5.3670   -0.1900  -22.3710 H   0  0  0  0  0  0  0  0  0  0  0  0
   -3.5960    1.4260  -22.8400 H   0  0  0  0  0  0  0  0  0  0  0  0
   -2.2840    2.4490  -20.9780 H   0  0  0  0  0  0  0  0  0  0  0  0
   -2.8340    1.8790  -18.6240 H   0  0  0  0  0  0  0  0  0  0  0  0
   -4.3080    0.7220  -17.0110 H   0  0  0  0  0  0  0  0  0  0  0  0
   -7.3550   -1.7460  -18.2310 H   0  0  0  0  0  0  0  0  0  0  0  0
   -7.7120   -2.3720  -20.5050 H   0  0  0  0  0  0  0  0  0  0  0  0
   -6.5270   -1.9940  -21.7600 H   0  0  0  0  0  0  0  0  0  0  0  0
   -7.0770    0.0960  -23.1680 H   0  0  0  0  0  0  0  0  0  0  0  0
   -8.6430   -2.9070  -22.5290 H   0  0  0  0  0  0  0  0  0  0  0  0
   -9.8760   -4.3270  -24.1620 H   0  0  0  0  0  0  0  0  0  0  0  0
  -10.0680   -3.6200  -26.5010 H   0  0  0  0  0  0  0  0  0  0  0  0
   -7.7610    0.9540  -25.8720 H   0  0  0  0  0  0  0  0  0  0  0  0
   -6.3240    0.2020  -25.2050 H   0  0  0  0  0  0  0  0  0  0  0  0
   -6.1580    0.6560  -27.6820 H   0  0  0  0  0  0  0  0  0  0  0  0
   -6.0370   -1.0720  -27.3670 H   0  0  0  0  0  0  0  0  0  0  0  0
   -8.6700    0.3380  -28.0600 H   0  0  0  0  0  0  0  0  0  0  0  0
   -7.7010   -0.5870  -29.2050 H   0  0  0  0  0  0  0  0  0  0  0  0
   -9.1580   -4.7200  -29.2010 H   0  0  0  0  0  0  0  0  0  0  0  0
   -7.0410   -5.3830  -28.0630 H   0  0  0  0  0  0  0  0  0  0  0  0
   -6.8850   -3.6530  -27.3990 H   0  0  0  0  0  0  0  0  0  0  0  0
  1  2  2  0  0  0  0
  1 62  1  0  0  0  0
  1 63  1  0  0  0  0
  2  3  1  0  0  0  0
  2 61  1  0  0  0  0
  3  4  2  0  0  0  0
  3  5  1  0  0  0  0
  5  6  1  0  0  0  0
  5 10  1  0  0  0  0
  6  7  1  0  0  0  0
  6 59  1  0  0  0  0
  6 60  1  0  0  0  0
  7  8  1  0  0  0  0
  7 57  1  0  0  0  0
  7 58  1  0  0  0  0
  8  9  1  0  0  0  0
  8 55  1  0  0  0  0
  8 56  1  0  0  0  0
  9 10  2  0  0  0  0
  9 14  1  0  0  0  0
 10 11  1  0  0  0  0
 11 12  2  0  0  0  0
 11 54  1  0  0  0  0
 12 13  1  0  0  0  0
 12 53  1  0  0  0  0
 13 14  2  0  0  0  0
 13 52  1  0  0  0  0
 14 15  1  0  0  0  0
 15 16  1  0  0  0  0
 15 30  1  0  0  0  0
 15 51  1  0  0  0  0
 16 17  1  0  0  0  0
 16 28  1  0  0  0  0
 16 29  1  0  0  0  0
 17 18  2  0  0  0  0
 17 23  1  0  0  0  0
 18 19  1  0  0  0  0
 18 27  1  0  0  0  0
 19 20  2  0  0  0  0
 19 26  1  0  0  0  0
 20 21  1  0  0  0  0
 20 25  1  0  0  0  0
 21 22  1  0  0  0  0
 21 23  2  0  0  0  0
 23 24  1  0  0  0  0
 30 31  2  0  0  0  0
 30 32  1  0  0  0  0
 32 33  1  0  0  0  0
 32 49  1  0  0  0  0
 32 50  1  0  0  0  0
 33 34  2  0  0  0  0
 33 42  1  0  0  0  0
 34 35  1  0  0  0  0
 34 48  1  0  0  0  0
 35 36  2  0  0  0  0
 36 37  1  0  0  0  0
 36 47  1  0  0  0  0
 37 38  2  0  0  0  0
 37 42  1  0  0  0  0
 38 39  1  0  0  0  0
 38 46  1  0  0  0  0
 39 40  2  0  0  0  0
 39 45  1  0  0  0  0
 40 41  1  0  0  0  0
 40 44  1  0  0  0  0
 41 42  2  0  0  0  0
 41 43  1  0  0  0  0
M  CHG  1  15   1
M  END
>  <MODEL>
       1

$$$$
