tmp_first_model_5_25.pdb
 OpenBabel08272519233D

 70 75  0  0  1  0  0  0  0  0999 V2000
   -8.1390   -7.0800  -23.9550 O   0  0  0  0  0  0  0  0  0  0  0  0
   -8.0700   -6.3400  -22.9880 C   0  0  0  0  0  0  0  0  0  0  0  0
   -9.1850   -5.3680  -22.6070 C   0  0  0  0  0  0  0  0  0  0  0  0
   -8.7930   -3.9430  -22.8690 N   0  3  1  0  0  0  0  0  0  0  0  0
   -8.4340   -3.7580  -24.3480 C   0  0  0  0  0  0  0  0  0  0  0  0
   -8.1450   -2.3180  -24.6880 C   0  0  0  0  0  0  0  0  0  0  0  0
   -7.3510   -2.0050  -25.7920 C   0  0  0  0  0  0  0  0  0  0  0  0
   -7.0710   -0.6860  -26.1280 C   0  0  0  0  0  0  0  0  0  0  0  0
   -7.5910    0.3350  -25.3380 C   0  0  0  0  0  0  0  0  0  0  0  0
   -7.2250    1.9970  -25.7190 Cl  0  0  0  0  0  0  0  0  0  0  0  0
   -8.3760    0.0460  -24.2340 C   0  0  0  0  0  0  0  0  0  0  0  0
   -8.6680   -1.2840  -23.9160 C   0  0  0  0  0  0  0  0  0  0  0  0
   -9.4460   -1.5330  -22.6490 C   0  0  2  0  0  0  0  0  0  0  0  0
   -8.6430   -1.0450  -21.4520 C   0  0  0  0  0  0  0  0  0  0  0  0
   -9.0550   -0.1880  -20.6940 O   0  0  0  0  0  0  0  0  0  0  0  0
   -7.4100   -1.6450  -21.2760 N   0  0  0  0  0  0  0  0  0  0  0  0
   -6.5390   -1.1280  -20.2890 C   0  0  0  0  0  0  0  0  0  0  0  0
   -6.8490   -1.2880  -18.9650 C   0  0  0  0  0  0  0  0  0  0  0  0
   -6.0000   -1.0070  -17.9460 N   0  0  0  0  0  0  0  0  0  0  0  0
   -4.8370   -0.4930  -18.2710 C   0  0  0  0  0  0  0  0  0  0  0  0
   -4.4800   -0.0960  -19.5940 C   0  0  0  0  0  0  0  0  0  0  0  0
   -3.3140    0.6760  -19.8510 C   0  0  0  0  0  0  0  0  0  0  0  0
   -3.2000    1.3710  -21.0210 C   0  0  0  0  0  0  0  0  0  0  0  0
   -4.1230    1.1390  -22.0760 C   0  0  0  0  0  0  0  0  0  0  0  0
   -5.1480    0.2380  -21.9170 C   0  0  0  0  0  0  0  0  0  0  0  0
   -5.3830   -0.3560  -20.6440 C   0  0  0  0  0  0  0  0  0  0  0  0
   -5.7760   -0.0210  -22.7630 H   0  0  0  0  0  0  0  0  0  0  0  0
   -3.9920    1.6590  -23.0220 H   0  0  0  0  0  0  0  0  0  0  0  0
   -2.3190    1.9830  -21.2040 H   0  0  0  0  0  0  0  0  0  0  0  0
   -2.5930    0.7950  -19.0480 H   0  0  0  0  0  0  0  0  0  0  0  0
   -4.1350   -0.2950  -17.4600 H   0  0  0  0  0  0  0  0  0  0  0  0
   -7.8230   -1.6630  -18.6640 H   0  0  0  0  0  0  0  0  0  0  0  0
   -6.9680   -2.0390  -22.0940 H   0  0  0  0  0  0  0  0  0  0  0  0
   -9.8930   -2.9840  -22.4780 C   0  0  0  0  0  0  0  0  0  0  0  0
  -10.1810   -3.1680  -21.4400 H   0  0  0  0  0  0  0  0  0  0  0  0
  -10.7550   -3.1890  -23.1220 H   0  0  0  0  0  0  0  0  0  0  0  0
  -10.3330   -0.9030  -22.6330 H   0  0  0  0  0  0  0  0  0  0  0  0
   -8.7570    0.8440  -23.6030 H   0  0  0  0  0  0  0  0  0  0  0  0
   -6.4510   -0.4510  -26.9880 H   0  0  0  0  0  0  0  0  0  0  0  0
   -6.9450   -2.8130  -26.3970 H   0  0  0  0  0  0  0  0  0  0  0  0
   -9.2760   -4.1400  -24.9400 H   0  0  0  0  0  0  0  0  0  0  0  0
   -7.5690   -4.3840  -24.5710 H   0  0  0  0  0  0  0  0  0  0  0  0
   -7.9570   -3.7370  -22.2830 H   0  0  0  0  0  0  0  0  0  0  0  0
  -10.0720   -5.6310  -23.1910 H   0  0  0  0  0  0  0  0  0  0  0  0
   -9.4260   -5.4640  -21.5440 H   0  0  0  0  0  0  0  0  0  0  0  0
   -6.9720   -6.2740  -22.1720 N   0  0  0  0  0  0  0  0  0  0  0  0
   -5.7670   -6.9550  -22.4360 C   0  0  0  0  0  0  0  0  0  0  0  0
   -4.9970   -7.4350  -21.3810 C   0  0  0  0  0  0  0  0  0  0  0  0
   -3.7870   -8.0440  -21.6620 C   0  0  0  0  0  0  0  0  0  0  0  0
   -3.3020   -8.1570  -22.9630 C   0  0  0  0  0  0  0  0  0  0  0  0
   -2.0690   -8.8150  -23.2080 N   0  0  0  0  0  0  0  0  0  0  0  0
   -1.0490   -8.7980  -22.1590 C   0  0  0  0  0  0  0  0  0  0  0  0
    0.2900   -9.1770  -22.7610 C   0  0  0  0  0  0  0  0  0  0  0  0
    0.1910  -10.4690  -23.3220 O   0  0  0  0  0  0  0  0  0  0  0  0
   -0.6890  -10.4860  -24.4190 C   0  0  0  0  0  0  0  0  0  0  0  0
   -2.0000   -9.7200  -24.2450 C   0  0  0  0  0  0  0  0  0  0  0  0
   -2.9200   -9.9250  -25.0180 O   0  0  0  0  0  0  0  0  0  0  0  0
   -0.9740  -11.5250  -24.5920 H   0  0  0  0  0  0  0  0  0  0  0  0
   -0.2070  -10.1060  -25.3350 H   0  0  0  0  0  0  0  0  0  0  0  0
    1.0640   -9.2140  -21.9900 H   0  0  0  0  0  0  0  0  0  0  0  0
    0.5850   -8.4380  -23.5210 H   0  0  0  0  0  0  0  0  0  0  0  0
   -1.0130   -7.7990  -21.7180 H   0  0  0  0  0  0  0  0  0  0  0  0
   -1.2880   -9.5120  -21.3580 H   0  0  0  0  0  0  0  0  0  0  0  0
   -4.0780   -7.6710  -24.0110 C   0  0  0  0  0  0  0  0  0  0  0  0
   -5.3100   -7.1000  -23.7480 C   0  0  0  0  0  0  0  0  0  0  0  0
   -5.9360   -6.7850  -24.5730 H   0  0  0  0  0  0  0  0  0  0  0  0
   -3.7430   -7.7620  -25.0370 H   0  0  0  0  0  0  0  0  0  0  0  0
   -3.2320   -8.5180  -20.8560 H   0  0  0  0  0  0  0  0  0  0  0  0
   -5.3320   -7.3510  -20.3480 H   0  0  0  0  0  0  0  0  0  0  0  0
   -7.0480   -5.7830  -21.2920 H   0  0  0  0  0  0  0  0  0  0  0  0
  1  2  2  0  0  0  0
  2  3  1  0  0  0  0
  2 46  1  0  0  0  0
  3  4  1  0  0  0  0
  3 44  1  0  0  0  0
  3 45  1  0  0  0  0
  4  5  1  0  0  0  0
  4 34  1  0  0  0  0
  4 43  1  1  0  0  0
  5  6  1  0  0  0  0
  5 41  1  0  0  0  0
  5 42  1  0  0  0  0
  6  7  2  0  0  0  0
  6 12  1  0  0  0  0
  7  8  1  0  0  0  0
  7 40  1  0  0  0  0
  8  9  2  0  0  0  0
  8 39  1  0  0  0  0
  9 10  1  0  0  0  0
  9 11  1  0  0  0  0
 11 12  2  0  0  0  0
 11 38  1  0  0  0  0
 12 13  1  0  0  0  0
 13 14  1  0  0  0  0
 13 34  1  0  0  0  0
 13 37  1  6  0  0  0
 14 15  2  0  0  0  0
 14 16  1  0  0  0  0
 16 17  1  0  0  0  0
 16 33  1  0  0  0  0
 17 18  2  0  0  0  0
 17 26  1  0  0  0  0
 18 19  1  0  0  0  0
 18 32  1  0  0  0  0
 19 20  2  0  0  0  0
 20 21  1  0  0  0  0
 20 31  1  0  0  0  0
 21 22  2  0  0  0  0
 21 26  1  0  0  0  0
 22 23  1  0  0  0  0
 22 30  1  0  0  0  0
 23 24  2  0  0  0  0
 23 29  1  0  0  0  0
 24 25  1  0  0  0  0
 24 28  1  0  0  0  0
 25 26  2  0  0  0  0
 25 27  1  0  0  0  0
 34 35  1  0  0  0  0
 34 36  1  0  0  0  0
 46 47  1  0  0  0  0
 46 70  1  0  0  0  0
 47 48  2  0  0  0  0
 47 65  1  0  0  0  0
 48 49  1  0  0  0  0
 48 69  1  0  0  0  0
 49 50  2  0  0  0  0
 49 68  1  0  0  0  0
 50 51  1  0  0  0  0
 50 64  1  0  0  0  0
 51 52  1  0  0  0  0
 51 56  1  0  0  0  0
 52 53  1  0  0  0  0
 52 62  1  0  0  0  0
 52 63  1  0  0  0  0
 53 54  1  0  0  0  0
 53 60  1  0  0  0  0
 53 61  1  0  0  0  0
 54 55  1  0  0  0  0
 55 56  1  0  0  0  0
 55 58  1  0  0  0  0
 55 59  1  0  0  0  0
 56 57  2  0  0  0  0
 64 65  2  0  0  0  0
 64 67  1  0  0  0  0
 65 66  1  0  0  0  0
M  CHG  1   4   1
M  END
>  <MODEL>
       1

$$$$
