tmp_first_model_13_43.pdb
 OpenBabel08282500103D

 67 72  0  0  1  0  0  0  0  0999 V2000
   -7.4050    3.3580  -21.7430 C   0  0  0  0  0  0  0  0  0  0  0  0
   -8.2490    2.9040  -22.8320 N   0  0  0  0  0  0  0  0  0  0  0  0
   -7.6790    2.2470  -23.8630 C   0  0  0  0  0  0  0  0  0  0  0  0
   -6.4650    2.1510  -23.9900 O   0  0  0  0  0  0  0  0  0  0  0  0
   -8.6380    1.6380  -24.8960 C   0  0  0  0  0  0  0  0  0  0  0  0
   -9.3630    0.4800  -24.4030 N   0  0  0  0  0  0  0  0  0  0  0  0
   -8.6430   -0.7720  -24.2480 C   0  0  0  0  0  0  0  0  0  0  0  0
   -9.0340   -1.5040  -22.9380 C   0  0  2  0  0  0  0  0  0  0  0  0
   -8.4960   -0.7230  -21.7090 C   0  0  0  0  0  0  0  0  0  0  0  0
   -8.9430    0.3040  -21.2410 O   0  0  0  0  0  0  0  0  0  0  0  0
   -7.3990   -1.3860  -21.2060 N   0  0  0  0  0  0  0  0  0  0  0  0
   -6.6020   -0.8110  -20.1780 C   0  0  0  0  0  0  0  0  0  0  0  0
   -6.9060   -1.0420  -18.8610 C   0  0  0  0  0  0  0  0  0  0  0  0
   -6.1990   -0.5470  -17.8180 N   0  0  0  0  0  0  0  0  0  0  0  0
   -5.1650    0.2100  -18.0810 C   0  0  0  0  0  0  0  0  0  0  0  0
   -4.7280    0.5330  -19.3970 C   0  0  0  0  0  0  0  0  0  0  0  0
   -3.6010    1.3660  -19.6410 C   0  0  0  0  0  0  0  0  0  0  0  0
   -3.2150    1.6560  -20.9210 C   0  0  0  0  0  0  0  0  0  0  0  0
   -3.9380    1.1260  -22.0130 C   0  0  0  0  0  0  0  0  0  0  0  0
   -5.0310    0.3200  -21.8020 C   0  0  0  0  0  0  0  0  0  0  0  0
   -5.4640    0.0030  -20.4860 C   0  0  0  0  0  0  0  0  0  0  0  0
   -5.5870   -0.0690  -22.6510 H   0  0  0  0  0  0  0  0  0  0  0  0
   -3.6490    1.3660  -23.0300 H   0  0  0  0  0  0  0  0  0  0  0  0
   -2.3630    2.3070  -21.1010 H   0  0  0  0  0  0  0  0  0  0  0  0
   -3.0700    1.7730  -18.7850 H   0  0  0  0  0  0  0  0  0  0  0  0
   -4.6170    0.6120  -17.2290 H   0  0  0  0  0  0  0  0  0  0  0  0
   -7.7580   -1.6670  -18.6010 H   0  0  0  0  0  0  0  0  0  0  0  0
   -7.0440   -2.5880  -21.9300 C   0  0  0  0  0  0  0  0  0  0  0  0
   -8.2890   -2.8720  -22.7940 C   0  0  2  0  0  0  0  0  0  0  0  0
   -7.9210   -3.6300  -24.0890 C   0  0  0  0  0  0  0  0  0  0  0  0
   -7.3800   -4.9380  -23.8030 N   0  0  0  0  0  0  0  0  0  0  0  0
   -6.0600   -5.2840  -23.8090 C   0  0  0  0  0  0  0  0  0  0  0  0
   -4.8010   -4.2320  -24.4220 S   0  0  0  0  0  0  0  0  0  0  0  0
   -3.6510   -5.4720  -23.9950 C   0  0  0  0  0  0  0  0  0  0  0  0
   -4.1440   -6.5380  -23.4690 N   0  0  0  0  0  0  0  0  0  0  0  0
   -5.5210   -6.4590  -23.3630 C   0  0  0  0  0  0  0  0  0  0  0  0
   -6.3050   -7.6040  -22.7840 C   0  0  0  0  0  0  0  0  0  0  0  0
   -7.0270   -8.0120  -23.5050 H   0  0  0  0  0  0  0  0  0  0  0  0
   -6.8640   -7.3000  -21.8880 H   0  0  0  0  0  0  0  0  0  0  0  0
   -5.6180   -8.4060  -22.5000 H   0  0  0  0  0  0  0  0  0  0  0  0
   -2.5920   -5.3130  -24.1810 H   0  0  0  0  0  0  0  0  0  0  0  0
   -8.0170   -5.6600  -23.5030 H   0  0  0  0  0  0  0  0  0  0  0  0
   -8.8150   -3.7740  -24.7060 H   0  0  0  0  0  0  0  0  0  0  0  0
   -7.1780   -3.0700  -24.6760 H   0  0  0  0  0  0  0  0  0  0  0  0
   -8.9560   -3.5250  -22.2220 H   0  0  0  0  0  0  0  0  0  0  0  0
   -6.1490   -2.4320  -22.5530 H   0  0  0  0  0  0  0  0  0  0  0  0
   -6.8130   -3.4120  -21.2430 H   0  0  0  0  0  0  0  0  0  0  0  0
  -10.5530   -1.5500  -22.8640 C   0  0  0  0  0  0  0  0  0  0  0  0
  -11.1910   -2.4320  -21.9820 C   0  0  0  0  0  0  0  0  0  0  0  0
  -12.5710   -2.4540  -21.8970 C   0  0  0  0  0  0  0  0  0  0  0  0
  -13.3470   -3.5640  -20.8050 Cl  0  0  0  0  0  0  0  0  0  0  0  0
  -13.3610   -1.5940  -22.6590 C   0  0  0  0  0  0  0  0  0  0  0  0
  -12.7390   -0.6700  -23.4740 C   0  0  0  0  0  0  0  0  0  0  0  0
  -11.3470   -0.6220  -23.5550 C   0  0  0  0  0  0  0  0  0  0  0  0
  -10.7310    0.5140  -24.3220 C   0  0  0  0  0  0  0  0  0  0  0  0
  -11.4060    1.4130  -24.7990 O   0  0  0  0  0  0  0  0  0  0  0  0
  -13.3050    0.0560  -24.0490 H   0  0  0  0  0  0  0  0  0  0  0  0
  -14.4410   -1.6410  -22.5810 H   0  0  0  0  0  0  0  0  0  0  0  0
  -10.6240   -3.0870  -21.3310 H   0  0  0  0  0  0  0  0  0  0  0  0
   -7.5760   -0.5270  -24.2270 H   0  0  0  0  0  0  0  0  0  0  0  0
   -8.8440   -1.4340  -25.1060 H   0  0  0  0  0  0  0  0  0  0  0  0
   -8.0060    1.3750  -25.7520 H   0  0  0  0  0  0  0  0  0  0  0  0
   -9.4060    2.3510  -25.2120 H   0  0  0  0  0  0  0  0  0  0  0  0
   -9.2480    2.8470  -22.6880 H   0  0  0  0  0  0  0  0  0  0  0  0
   -6.8090    2.5270  -21.3360 H   0  0  0  0  0  0  0  0  0  0  0  0
   -6.7200    4.1450  -22.0790 H   0  0  0  0  0  0  0  0  0  0  0  0
   -8.0590    3.7650  -20.9820 H   0  0  0  0  0  0  0  0  0  0  0  0
  1  2  1  0  0  0  0
  1 65  1  0  0  0  0
  1 66  1  0  0  0  0
  1 67  1  0  0  0  0
  2  3  1  0  0  0  0
  2 64  1  0  0  0  0
  3  4  2  0  0  0  0
  3  5  1  0  0  0  0
  5  6  1  0  0  0  0
  5 62  1  0  0  0  0
  5 63  1  0  0  0  0
  6  7  1  0  0  0  0
  6 55  1  0  0  0  0
  7  8  1  0  0  0  0
  7 60  1  0  0  0  0
  7 61  1  0  0  0  0
  8  9  1  1  0  0  0
  8 29  1  0  0  0  0
  8 48  1  0  0  0  0
  9 10  2  0  0  0  0
  9 11  1  0  0  0  0
 11 12  1  0  0  0  0
 11 28  1  0  0  0  0
 12 13  2  0  0  0  0
 12 21  1  0  0  0  0
 13 14  1  0  0  0  0
 13 27  1  0  0  0  0
 14 15  2  0  0  0  0
 15 16  1  0  0  0  0
 15 26  1  0  0  0  0
 16 17  2  0  0  0  0
 16 21  1  0  0  0  0
 17 18  1  0  0  0  0
 17 25  1  0  0  0  0
 18 19  2  0  0  0  0
 18 24  1  0  0  0  0
 19 20  1  0  0  0  0
 19 23  1  0  0  0  0
 20 21  2  0  0  0  0
 20 22  1  0  0  0  0
 28 29  1  0  0  0  0
 28 46  1  0  0  0  0
 28 47  1  0  0  0  0
 29 30  1  0  0  0  0
 29 45  1  1  0  0  0
 30 31  1  0  0  0  0
 30 43  1  0  0  0  0
 30 44  1  0  0  0  0
 31 32  1  0  0  0  0
 31 42  1  0  0  0  0
 32 33  1  0  0  0  0
 32 36  2  0  0  0  0
 33 34  1  0  0  0  0
 34 35  2  0  0  0  0
 34 41  1  0  0  0  0
 35 36  1  0  0  0  0
 36 37  1  0  0  0  0
 37 38  1  0  0  0  0
 37 39  1  0  0  0  0
 37 40  1  0  0  0  0
 48 49  2  0  0  0  0
 48 54  1  0  0  0  0
 49 50  1  0  0  0  0
 49 59  1  0  0  0  0
 50 51  1  0  0  0  0
 50 52  2  0  0  0  0
 52 53  1  0  0  0  0
 52 58  1  0  0  0  0
 53 54  2  0  0  0  0
 53 57  1  0  0  0  0
 54 55  1  0  0  0  0
 55 56  2  0  0  0  0
M  END
>  <MODEL>
       1

$$$$
