tmp_first_model_17_7.pdb
 OpenBabel08282502223D

 44 47  0  0  0  0  0  0  0  0999 V2000
  -10.1020   -5.9900  -27.5670 C   0  0  0  0  0  0  0  0  0  0  0  0
   -8.9770   -5.3060  -26.7840 C   0  0  0  0  0  0  0  0  0  0  0  0
   -9.2410   -5.5280  -25.0310 S   0  0  0  0  0  0  0  0  0  0  0  0
   -9.0740   -6.9340  -24.7100 O   0  0  0  0  0  0  0  0  0  0  0  0
  -10.4850   -4.8360  -24.7150 O   0  0  0  0  0  0  0  0  0  0  0  0
   -7.9640   -4.7040  -24.2690 N   0  0  0  0  0  0  0  0  0  0  0  0
   -8.0750   -4.6910  -22.7680 C   0  0  0  0  0  0  0  0  0  0  0  0
   -8.0700   -3.1500  -22.7660 C   0  0  0  0  0  0  0  0  0  0  0  0
   -7.9980   -3.2180  -24.3130 C   0  0  0  0  0  0  0  0  0  0  0  0
   -7.0700   -2.8290  -24.7320 H   0  0  0  0  0  0  0  0  0  0  0  0
   -8.8580   -2.7840  -24.8360 H   0  0  0  0  0  0  0  0  0  0  0  0
   -6.8710   -2.5290  -22.0650 C   0  0  0  0  0  0  0  0  0  0  0  0
   -5.7120   -2.8170  -22.2270 O   0  0  0  0  0  0  0  0  0  0  0  0
   -7.3670   -1.5370  -21.2130 N   0  0  0  0  0  0  0  0  0  0  0  0
   -6.6000   -0.8700  -20.1990 C   0  0  0  0  0  0  0  0  0  0  0  0
   -6.9160   -1.0640  -18.8750 C   0  0  0  0  0  0  0  0  0  0  0  0
   -6.2230   -0.5450  -17.8280 N   0  0  0  0  0  0  0  0  0  0  0  0
   -5.1850    0.2040  -18.0990 C   0  0  0  0  0  0  0  0  0  0  0  0
   -4.7540    0.5200  -19.4150 C   0  0  0  0  0  0  0  0  0  0  0  0
   -3.6250    1.3580  -19.6370 C   0  0  0  0  0  0  0  0  0  0  0  0
   -3.2370    1.6670  -20.9100 C   0  0  0  0  0  0  0  0  0  0  0  0
   -3.9650    1.1540  -22.0060 C   0  0  0  0  0  0  0  0  0  0  0  0
   -5.0560    0.3410  -21.8150 C   0  0  0  0  0  0  0  0  0  0  0  0
   -5.4810   -0.0160  -20.5060 C   0  0  0  0  0  0  0  0  0  0  0  0
   -5.5970   -0.0470  -22.6710 H   0  0  0  0  0  0  0  0  0  0  0  0
   -3.6450    1.3990  -23.0130 H   0  0  0  0  0  0  0  0  0  0  0  0
   -2.3710    2.3020  -21.0890 H   0  0  0  0  0  0  0  0  0  0  0  0
   -3.0850    1.7480  -18.7770 H   0  0  0  0  0  0  0  0  0  0  0  0
   -4.6290    0.6060  -17.2490 H   0  0  0  0  0  0  0  0  0  0  0  0
   -7.7630   -1.6860  -18.5990 H   0  0  0  0  0  0  0  0  0  0  0  0
   -8.7610   -1.3810  -21.4060 C   0  0  0  0  0  0  0  0  0  0  0  0
   -9.4330   -0.4540  -21.0120 O   0  0  0  0  0  0  0  0  0  0  0  0
   -9.1740   -2.4430  -22.1730 N   0  0  0  0  0  0  0  0  0  0  0  0
  -10.5630   -2.6990  -22.4930 C   0  0  0  0  0  0  0  0  0  0  0  0
  -10.8330   -3.7410  -22.2760 H   0  0  0  0  0  0  0  0  0  0  0  0
  -10.7660   -2.4950  -23.5520 H   0  0  0  0  0  0  0  0  0  0  0  0
  -11.1500   -2.0250  -21.8680 H   0  0  0  0  0  0  0  0  0  0  0  0
   -7.1900   -5.1300  -22.3040 H   0  0  0  0  0  0  0  0  0  0  0  0
   -8.9810   -5.1490  -22.3580 H   0  0  0  0  0  0  0  0  0  0  0  0
   -8.9550   -4.2200  -26.9280 H   0  0  0  0  0  0  0  0  0  0  0  0
   -7.9910   -5.7210  -27.0100 H   0  0  0  0  0  0  0  0  0  0  0  0
   -9.9560   -5.8520  -28.6430 H   0  0  0  0  0  0  0  0  0  0  0  0
  -11.0810   -5.5810  -27.2950 H   0  0  0  0  0  0  0  0  0  0  0  0
  -10.1150   -7.0650  -27.3560 H   0  0  0  0  0  0  0  0  0  0  0  0
  1  2  1  0  0  0  0
  1 42  1  0  0  0  0
  1 43  1  0  0  0  0
  1 44  1  0  0  0  0
  2  3  1  0  0  0  0
  2 40  1  0  0  0  0
  2 41  1  0  0  0  0
  3  4  2  0  0  0  0
  3  5  2  0  0  0  0
  3  6  1  0  0  0  0
  6  7  1  0  0  0  0
  6  9  1  0  0  0  0
  7  8  1  0  0  0  0
  7 38  1  0  0  0  0
  7 39  1  0  0  0  0
  8  9  1  0  0  0  0
  8 12  1  0  0  0  0
  8 33  1  0  0  0  0
  9 10  1  0  0  0  0
  9 11  1  0  0  0  0
 12 13  2  0  0  0  0
 12 14  1  0  0  0  0
 14 15  1  0  0  0  0
 14 31  1  0  0  0  0
 15 16  2  0  0  0  0
 15 24  1  0  0  0  0
 16 17  1  0  0  0  0
 16 30  1  0  0  0  0
 17 18  2  0  0  0  0
 18 19  1  0  0  0  0
 18 29  1  0  0  0  0
 19 20  2  0  0  0  0
 19 24  1  0  0  0  0
 20 21  1  0  0  0  0
 20 28  1  0  0  0  0
 21 22  2  0  0  0  0
 21 27  1  0  0  0  0
 22 23  1  0  0  0  0
 22 26  1  0  0  0  0
 23 24  2  0  0  0  0
 23 25  1  0  0  0  0
 31 32  2  0  0  0  0
 31 33  1  0  0  0  0
 33 34  1  0  0  0  0
 34 35  1  0  0  0  0
 34 36  1  0  0  0  0
 34 37  1  0  0  0  0
M  END
>  <MODEL>
       1

$$$$
