tmp_first_model_19_49.pdb
 OpenBabel08282503233D

 67 72  0  0  1  0  0  0  0  0999 V2000
   -7.4290    3.3870  -21.8190 C   0  0  0  0  0  0  0  0  0  0  0  0
   -8.2620    2.8940  -22.8910 N   0  0  0  0  0  0  0  0  0  0  0  0
   -7.6930    2.2000  -23.9030 C   0  0  0  0  0  0  0  0  0  0  0  0
   -6.4820    2.0880  -24.0180 O   0  0  0  0  0  0  0  0  0  0  0  0
   -8.6470    1.5810  -24.9170 C   0  0  0  0  0  0  0  0  0  0  0  0
   -9.3590    0.4400  -24.3900 N   0  0  0  0  0  0  0  0  0  0  0  0
   -8.6400   -0.8060  -24.2190 C   0  0  0  0  0  0  0  0  0  0  0  0
   -9.0310   -1.5240  -22.9090 C   0  0  2  0  0  0  0  0  0  0  0  0
   -8.4980   -0.7430  -21.6880 C   0  0  0  0  0  0  0  0  0  0  0  0
   -8.9540    0.2710  -21.2020 O   0  0  0  0  0  0  0  0  0  0  0  0
   -7.3830   -1.3920  -21.2130 N   0  0  0  0  0  0  0  0  0  0  0  0
   -6.5940   -0.8200  -20.1850 C   0  0  0  0  0  0  0  0  0  0  0  0
   -6.9160   -1.0520  -18.8740 C   0  0  0  0  0  0  0  0  0  0  0  0
   -6.2170   -0.5640  -17.8210 N   0  0  0  0  0  0  0  0  0  0  0  0
   -5.1820    0.1990  -18.0830 C   0  0  0  0  0  0  0  0  0  0  0  0
   -4.7360    0.5170  -19.3980 C   0  0  0  0  0  0  0  0  0  0  0  0
   -3.6080    1.3460  -19.6420 C   0  0  0  0  0  0  0  0  0  0  0  0
   -3.2210    1.6450  -20.9190 C   0  0  0  0  0  0  0  0  0  0  0  0
   -3.9470    1.1320  -22.0200 C   0  0  0  0  0  0  0  0  0  0  0  0
   -5.0430    0.3310  -21.8130 C   0  0  0  0  0  0  0  0  0  0  0  0
   -5.4650   -0.0010  -20.4960 C   0  0  0  0  0  0  0  0  0  0  0  0
   -5.6050   -0.0410  -22.6660 H   0  0  0  0  0  0  0  0  0  0  0  0
   -3.6510    1.3840  -23.0350 H   0  0  0  0  0  0  0  0  0  0  0  0
   -2.3650    2.2920  -21.0940 H   0  0  0  0  0  0  0  0  0  0  0  0
   -3.0770    1.7520  -18.7840 H   0  0  0  0  0  0  0  0  0  0  0  0
   -4.6270    0.6000  -17.2330 H   0  0  0  0  0  0  0  0  0  0  0  0
   -7.7800   -1.6670  -18.6270 H   0  0  0  0  0  0  0  0  0  0  0  0
   -7.0380   -2.5970  -21.9310 C   0  0  0  0  0  0  0  0  0  0  0  0
   -8.2970   -2.8900  -22.7580 C   0  0  2  0  0  0  0  0  0  0  0  0
   -7.9710   -3.6780  -24.0350 C   0  0  0  0  0  0  0  0  0  0  0  0
   -7.4510   -4.9950  -23.7460 N   0  0  0  0  0  0  0  0  0  0  0  0
   -6.1210   -5.3070  -23.6460 C   0  0  0  0  0  0  0  0  0  0  0  0
   -5.0250   -4.5790  -24.0000 C   0  0  0  0  0  0  0  0  0  0  0  0
   -3.8010   -5.1720  -23.7880 N   0  0  0  0  0  0  0  0  0  0  0  0
   -3.9420   -6.3630  -23.3020 C   0  0  0  0  0  0  0  0  0  0  0  0
   -2.8100   -7.2890  -22.9860 C   0  0  0  0  0  0  0  0  0  0  0  0
   -3.0230   -7.9210  -22.1180 H   0  0  0  0  0  0  0  0  0  0  0  0
   -2.5980   -7.9460  -23.8410 H   0  0  0  0  0  0  0  0  0  0  0  0
   -1.9170   -6.6880  -22.7970 H   0  0  0  0  0  0  0  0  0  0  0  0
   -5.6010   -6.8540  -23.0310 S   0  0  0  0  0  0  0  0  0  0  0  0
   -5.0470   -3.5930  -24.4470 H   0  0  0  0  0  0  0  0  0  0  0  0
   -8.1060   -5.7260  -23.5350 H   0  0  0  0  0  0  0  0  0  0  0  0
   -8.8630   -3.7840  -24.6630 H   0  0  0  0  0  0  0  0  0  0  0  0
   -7.2260   -3.1360  -24.6200 H   0  0  0  0  0  0  0  0  0  0  0  0
   -8.9550   -3.5210  -22.1620 H   0  0  0  0  0  0  0  0  0  0  0  0
   -6.1640   -2.4420  -22.5800 H   0  0  0  0  0  0  0  0  0  0  0  0
   -6.7880   -3.4140  -21.2500 H   0  0  0  0  0  0  0  0  0  0  0  0
  -10.5460   -1.5750  -22.8460 C   0  0  0  0  0  0  0  0  0  0  0  0
  -11.1900   -2.4700  -21.9870 C   0  0  0  0  0  0  0  0  0  0  0  0
  -12.5710   -2.4860  -21.9120 C   0  0  0  0  0  0  0  0  0  0  0  0
  -13.3410   -3.5980  -20.8140 Cl  0  0  0  0  0  0  0  0  0  0  0  0
  -13.3580   -1.6180  -22.6720 C   0  0  0  0  0  0  0  0  0  0  0  0
  -12.7290   -0.6860  -23.4740 C   0  0  0  0  0  0  0  0  0  0  0  0
  -11.3370   -0.6390  -23.5270 C   0  0  0  0  0  0  0  0  0  0  0  0
  -10.7140    0.5090  -24.2530 C   0  0  0  0  0  0  0  0  0  0  0  0
  -11.3760    1.4620  -24.6570 O   0  0  0  0  0  0  0  0  0  0  0  0
  -13.2870    0.0450  -24.0540 H   0  0  0  0  0  0  0  0  0  0  0  0
  -14.4380   -1.6670  -22.5930 H   0  0  0  0  0  0  0  0  0  0  0  0
  -10.6220   -3.1410  -21.3520 H   0  0  0  0  0  0  0  0  0  0  0  0
   -7.5730   -0.5710  -24.2180 H   0  0  0  0  0  0  0  0  0  0  0  0
   -8.8580   -1.4730  -25.0630 H   0  0  0  0  0  0  0  0  0  0  0  0
   -9.4240    2.2880  -25.2100 H   0  0  0  0  0  0  0  0  0  0  0  0
   -8.0350    1.2960  -25.7780 H   0  0  0  0  0  0  0  0  0  0  0  0
   -9.2390    2.7520  -22.6990 H   0  0  0  0  0  0  0  0  0  0  0  0
   -6.9120    2.5660  -21.3140 H   0  0  0  0  0  0  0  0  0  0  0  0
   -6.6710    4.0590  -22.2150 H   0  0  0  0  0  0  0  0  0  0  0  0
   -8.0330    3.9470  -21.1090 H   0  0  0  0  0  0  0  0  0  0  0  0
  1  2  1  0  0  0  0
  1 65  1  0  0  0  0
  1 66  1  0  0  0  0
  1 67  1  0  0  0  0
  2  3  1  0  0  0  0
  2 64  1  0  0  0  0
  3  4  2  0  0  0  0
  3  5  1  0  0  0  0
  5  6  1  0  0  0  0
  5 62  1  0  0  0  0
  5 63  1  0  0  0  0
  6  7  1  0  0  0  0
  6 55  1  0  0  0  0
  7  8  1  0  0  0  0
  7 60  1  0  0  0  0
  7 61  1  0  0  0  0
  8  9  1  1  0  0  0
  8 29  1  0  0  0  0
  8 48  1  0  0  0  0
  9 10  2  0  0  0  0
  9 11  1  0  0  0  0
 11 12  1  0  0  0  0
 11 28  1  0  0  0  0
 12 13  2  0  0  0  0
 12 21  1  0  0  0  0
 13 14  1  0  0  0  0
 13 27  1  0  0  0  0
 14 15  2  0  0  0  0
 15 16  1  0  0  0  0
 15 26  1  0  0  0  0
 16 17  2  0  0  0  0
 16 21  1  0  0  0  0
 17 18  1  0  0  0  0
 17 25  1  0  0  0  0
 18 19  2  0  0  0  0
 18 24  1  0  0  0  0
 19 20  1  0  0  0  0
 19 23  1  0  0  0  0
 20 21  2  0  0  0  0
 20 22  1  0  0  0  0
 28 29  1  0  0  0  0
 28 46  1  0  0  0  0
 28 47  1  0  0  0  0
 29 30  1  0  0  0  0
 29 45  1  1  0  0  0
 30 31  1  0  0  0  0
 30 43  1  0  0  0  0
 30 44  1  0  0  0  0
 31 32  1  0  0  0  0
 31 42  1  0  0  0  0
 32 33  2  0  0  0  0
 32 40  1  0  0  0  0
 33 34  1  0  0  0  0
 33 41  1  0  0  0  0
 34 35  2  0  0  0  0
 35 36  1  0  0  0  0
 35 40  1  0  0  0  0
 36 37  1  0  0  0  0
 36 38  1  0  0  0  0
 36 39  1  0  0  0  0
 48 49  2  0  0  0  0
 48 54  1  0  0  0  0
 49 50  1  0  0  0  0
 49 59  1  0  0  0  0
 50 51  1  0  0  0  0
 50 52  2  0  0  0  0
 52 53  1  0  0  0  0
 52 58  1  0  0  0  0
 53 54  2  0  0  0  0
 53 57  1  0  0  0  0
 54 55  1  0  0  0  0
 55 56  2  0  0  0  0
M  END
>  <MODEL>
       1

$$$$
