tmp_first_model_20_47.pdb
 OpenBabel08282503553D

 58 63  0  0  1  0  0  0  0  0999 V2000
   -9.0690    0.4040  -21.0490 O   0  0  0  0  0  0  0  0  0  0  0  0
   -8.3150   -0.2000  -21.7960 C   0  0  0  0  0  0  0  0  0  0  0  0
   -7.4900   -1.3660  -21.2780 C   0  0  0  0  0  0  0  0  0  0  0  0
   -6.6000   -0.8570  -20.1740 C   0  0  0  0  0  0  0  0  0  0  0  0
   -6.9190   -1.0610  -18.8590 C   0  0  0  0  0  0  0  0  0  0  0  0
   -6.2360   -0.5570  -17.7980 N   0  0  0  0  0  0  0  0  0  0  0  0
   -5.1960    0.1910  -18.0720 C   0  0  0  0  0  0  0  0  0  0  0  0
   -4.7490    0.4970  -19.3860 C   0  0  0  0  0  0  0  0  0  0  0  0
   -3.6280    1.3360  -19.6190 C   0  0  0  0  0  0  0  0  0  0  0  0
   -3.2410    1.6430  -20.8930 C   0  0  0  0  0  0  0  0  0  0  0  0
   -3.9530    1.1150  -21.9930 C   0  0  0  0  0  0  0  0  0  0  0  0
   -5.0350    0.2900  -21.7920 C   0  0  0  0  0  0  0  0  0  0  0  0
   -5.4720   -0.0380  -20.4780 C   0  0  0  0  0  0  0  0  0  0  0  0
   -5.5720   -0.0810  -22.6580 H   0  0  0  0  0  0  0  0  0  0  0  0
   -3.6460    1.3770  -23.0030 H   0  0  0  0  0  0  0  0  0  0  0  0
   -2.3940    2.3000  -21.0710 H   0  0  0  0  0  0  0  0  0  0  0  0
   -3.0920    1.7360  -18.7610 H   0  0  0  0  0  0  0  0  0  0  0  0
   -4.6480    0.6100  -17.2260 H   0  0  0  0  0  0  0  0  0  0  0  0
   -7.7860   -1.6700  -18.6020 H   0  0  0  0  0  0  0  0  0  0  0  0
   -8.1850   -2.1260  -20.9080 H   0  0  0  0  0  0  0  0  0  0  0  0
   -6.9070   -1.8060  -22.0870 H   0  0  0  0  0  0  0  0  0  0  0  0
   -8.1120    0.1850  -23.1210 N   0  0  0  0  0  0  0  0  0  0  0  0
   -7.9790   -0.7520  -24.2300 C   0  0  0  0  0  0  0  0  0  0  0  0
   -9.0230   -1.8490  -24.1470 C   0  0  0  0  0  0  0  0  0  0  0  0
  -10.3690   -1.5120  -23.9720 C   0  0  0  0  0  0  0  0  0  0  0  0
  -11.3090   -2.4980  -23.7080 C   0  0  0  0  0  0  0  0  0  0  0  0
  -10.9220   -3.8390  -23.6780 C   0  0  0  0  0  0  0  0  0  0  0  0
   -9.6030   -4.1730  -23.9590 C   0  0  0  0  0  0  0  0  0  0  0  0
   -9.1350   -5.8480  -24.1190 Cl  0  0  0  0  0  0  0  0  0  0  0  0
   -8.6320   -3.1870  -24.1240 C   0  0  0  0  0  0  0  0  0  0  0  0
   -7.5830   -3.4690  -24.2340 H   0  0  0  0  0  0  0  0  0  0  0  0
  -11.6370   -4.6150  -23.4220 H   0  0  0  0  0  0  0  0  0  0  0  0
  -12.3480   -2.2150  -23.5400 H   0  0  0  0  0  0  0  0  0  0  0  0
  -10.6940   -0.4700  -24.0020 H   0  0  0  0  0  0  0  0  0  0  0  0
   -6.9710   -1.1840  -24.2230 H   0  0  0  0  0  0  0  0  0  0  0  0
   -8.0760   -0.1820  -25.1590 H   0  0  0  0  0  0  0  0  0  0  0  0
   -8.2730    1.5780  -23.3920 C   0  0  2  0  0  0  0  0  0  0  0  0
   -9.6560    2.1190  -23.7690 C   0  0  0  0  0  0  0  0  0  0  0  0
   -9.3070    3.5770  -23.9340 N   0  3  1  0  0  0  0  0  0  0  0  0
  -10.1560    4.5380  -23.2320 C   0  0  0  0  0  0  0  0  0  0  0  0
  -10.0730    5.9660  -23.6610 C   0  0  0  0  0  0  0  0  0  0  0  0
  -11.2940    5.1520  -23.9810 C   0  0  0  0  0  0  0  0  0  0  0  0
  -11.4320    4.8340  -25.0090 H   0  0  0  0  0  0  0  0  0  0  0  0
  -12.2080    5.3580  -23.4420 H   0  0  0  0  0  0  0  0  0  0  0  0
  -10.1400    6.7280  -22.8980 H   0  0  0  0  0  0  0  0  0  0  0  0
   -9.4010    6.1940  -24.4820 H   0  0  0  0  0  0  0  0  0  0  0  0
  -10.2990    4.3270  -22.1780 H   0  0  0  0  0  0  0  0  0  0  0  0
   -7.8360    3.5380  -23.5230 C   0  0  2  0  0  0  0  0  0  0  0  0
   -7.3730    2.3510  -24.3820 C   0  0  0  0  0  0  0  0  0  0  0  0
   -7.7040    2.3780  -25.4220 H   0  0  0  0  0  0  0  0  0  0  0  0
   -6.3180    2.1050  -24.2880 H   0  0  0  0  0  0  0  0  0  0  0  0
   -7.8150    2.5940  -22.3310 C   0  0  0  0  0  0  0  0  0  0  0  0
   -6.8220    2.3500  -21.9620 H   0  0  0  0  0  0  0  0  0  0  0  0
   -8.4990    2.7600  -21.5050 H   0  0  0  0  0  0  0  0  0  0  0  0
   -7.3550    4.5040  -23.4910 H   0  0  0  0  0  0  0  0  0  0  0  0
   -9.3280    3.8240  -24.9440 H   0  0  0  0  0  0  0  0  0  0  0  0
  -10.0380    1.7250  -24.7100 H   0  0  0  0  0  0  0  0  0  0  0  0
  -10.3920    1.9840  -22.9770 H   0  0  0  0  0  0  0  0  0  0  0  0
  1  2  2  0  0  0  0
  2  3  1  0  0  0  0
  2 22  1  0  0  0  0
  3  4  1  0  0  0  0
  3 20  1  0  0  0  0
  3 21  1  0  0  0  0
  4  5  2  0  0  0  0
  4 13  1  0  0  0  0
  5  6  1  0  0  0  0
  5 19  1  0  0  0  0
  6  7  2  0  0  0  0
  7  8  1  0  0  0  0
  7 18  1  0  0  0  0
  8  9  2  0  0  0  0
  8 13  1  0  0  0  0
  9 10  1  0  0  0  0
  9 17  1  0  0  0  0
 10 11  2  0  0  0  0
 10 16  1  0  0  0  0
 11 12  1  0  0  0  0
 11 15  1  0  0  0  0
 12 13  2  0  0  0  0
 12 14  1  0  0  0  0
 22 23  1  0  0  0  0
 23 24  1  0  0  0  0
 23 35  1  0  0  0  0
 23 36  1  0  0  0  0
 24 25  2  0  0  0  0
 24 30  1  0  0  0  0
 25 26  1  0  0  0  0
 25 34  1  0  0  0  0
 26 27  2  0  0  0  0
 26 33  1  0  0  0  0
 27 28  1  0  0  0  0
 27 32  1  0  0  0  0
 28 29  1  0  0  0  0
 28 30  2  0  0  0  0
 30 31  1  0  0  0  0
 37 22  1  1  0  0  0
 37 38  1  0  0  0  0
 37 49  1  0  0  0  0
 37 52  1  0  0  0  0
 38 39  1  0  0  0  0
 38 57  1  0  0  0  0
 38 58  1  0  0  0  0
 39 40  1  0  0  0  0
 39 48  1  0  0  0  0
 39 56  1  6  0  0  0
 40 41  1  0  0  0  0
 40 42  1  0  0  0  0
 40 47  1  0  0  0  0
 41 42  1  0  0  0  0
 41 45  1  0  0  0  0
 41 46  1  0  0  0  0
 42 43  1  0  0  0  0
 42 44  1  0  0  0  0
 48 49  1  0  0  0  0
 48 52  1  0  0  0  0
 48 55  1  1  0  0  0
 49 50  1  0  0  0  0
 49 51  1  0  0  0  0
 52 53  1  0  0  0  0
 52 54  1  0  0  0  0
M  CHG  1  39   1
M  END
>  <MODEL>
       1

$$$$
