tmp_first_model_18_14.pdb
 OpenBabel08282502533D

 73 78  0  0  1  0  0  0  0  0999 V2000
   -7.9650   -3.7830  -23.9500 C   0  0  0  0  0  0  0  0  0  0  0  0
   -8.2520   -2.9020  -22.7460 C   0  0  1  0  0  0  0  0  0  0  0  0
   -7.0420   -2.6620  -21.8390 C   0  0  0  0  0  0  0  0  0  0  0  0
   -7.3960   -1.4240  -21.1720 N   0  0  0  0  0  0  0  0  0  0  0  0
   -6.6070   -0.8210  -20.1670 C   0  0  0  0  0  0  0  0  0  0  0  0
   -6.9250   -1.0460  -18.8540 C   0  0  0  0  0  0  0  0  0  0  0  0
   -6.2370   -0.5450  -17.8020 N   0  0  0  0  0  0  0  0  0  0  0  0
   -5.2060    0.2190  -18.0800 C   0  0  0  0  0  0  0  0  0  0  0  0
   -4.7780    0.5450  -19.4010 C   0  0  0  0  0  0  0  0  0  0  0  0
   -3.6530    1.3800  -19.6330 C   0  0  0  0  0  0  0  0  0  0  0  0
   -3.2580    1.6750  -20.9100 C   0  0  0  0  0  0  0  0  0  0  0  0
   -3.9730    1.1590  -22.0130 C   0  0  0  0  0  0  0  0  0  0  0  0
   -5.0690    0.3520  -21.8130 C   0  0  0  0  0  0  0  0  0  0  0  0
   -5.4970    0.0160  -20.4940 C   0  0  0  0  0  0  0  0  0  0  0  0
   -5.5950   -0.0420  -22.6750 H   0  0  0  0  0  0  0  0  0  0  0  0
   -3.6630    1.4130  -23.0240 H   0  0  0  0  0  0  0  0  0  0  0  0
   -2.3890    2.3040  -21.0790 H   0  0  0  0  0  0  0  0  0  0  0  0
   -3.1240    1.7710  -18.7710 H   0  0  0  0  0  0  0  0  0  0  0  0
   -4.6440    0.6220  -17.2390 H   0  0  0  0  0  0  0  0  0  0  0  0
   -7.7890   -1.6670  -18.6310 H   0  0  0  0  0  0  0  0  0  0  0  0
   -8.3940   -0.7090  -21.7960 C   0  0  0  0  0  0  0  0  0  0  0  0
   -8.8390    0.3360  -21.3670 O   0  0  0  0  0  0  0  0  0  0  0  0
   -8.7740   -1.4760  -23.0870 C   0  0  1  0  0  0  0  0  0  0  0  0
   -8.0170   -0.8950  -24.3130 C   0  0  0  0  0  0  0  0  0  0  0  0
   -8.5230    0.4030  -24.6990 N   0  0  0  0  0  0  0  0  0  0  0  0
   -7.6430    1.5350  -24.9150 C   0  0  0  0  0  0  0  0  0  0  0  0
   -7.5840    2.4540  -23.6920 C   0  0  0  0  0  0  0  0  0  0  0  0
   -6.4890    3.4840  -23.8320 N   0  3  0  0  0  0  0  0  0  0  0  0
   -6.7970    4.6020  -24.8140 C   0  0  0  0  0  0  0  0  0  0  0  0
   -7.7550    5.6480  -24.2290 C   0  0  0  0  0  0  0  0  0  0  0  0
   -7.2820    6.1700  -22.9450 N   0  0  0  0  0  0  0  0  0  0  0  0
   -6.5500    7.6640  -22.8590 S   0  0  0  0  0  0  0  0  0  0  0  0
   -6.1070    7.8570  -21.4880 O   0  0  0  0  0  0  0  0  0  0  0  0
   -7.4410    8.6180  -23.5050 O   0  0  0  0  0  0  0  0  0  0  0  0
   -5.0990    7.5310  -23.9080 C   0  0  0  0  0  0  0  0  0  0  0  0
   -5.4370    7.4660  -24.9490 H   0  0  0  0  0  0  0  0  0  0  0  0
   -4.5080    6.6540  -23.6250 H   0  0  0  0  0  0  0  0  0  0  0  0
   -4.5080    8.4440  -23.7720 H   0  0  0  0  0  0  0  0  0  0  0  0
   -7.0090    5.1110  -21.9690 C   0  0  0  0  0  0  0  0  0  0  0  0
   -6.0270    4.0760  -22.5200 C   0  0  0  0  0  0  0  0  0  0  0  0
   -5.0590    4.5490  -22.7090 H   0  0  0  0  0  0  0  0  0  0  0  0
   -5.8840    3.2550  -21.8070 H   0  0  0  0  0  0  0  0  0  0  0  0
   -7.9600    4.6060  -21.7510 H   0  0  0  0  0  0  0  0  0  0  0  0
   -6.6390    5.5490  -21.0420 H   0  0  0  0  0  0  0  0  0  0  0  0
   -8.7320    5.1780  -24.0610 H   0  0  0  0  0  0  0  0  0  0  0  0
   -7.9100    6.4710  -24.9300 H   0  0  0  0  0  0  0  0  0  0  0  0
   -7.2210    4.1710  -25.7240 H   0  0  0  0  0  0  0  0  0  0  0  0
   -5.8460    5.0740  -25.0770 H   0  0  0  0  0  0  0  0  0  0  0  0
   -5.6730    2.9670  -24.2040 H   0  0  0  0  0  0  0  0  0  0  0  0
   -7.3810    1.8660  -22.7920 H   0  0  0  0  0  0  0  0  0  0  0  0
   -8.5470    2.9510  -23.5530 H   0  0  0  0  0  0  0  0  0  0  0  0
   -6.6380    1.1640  -25.1380 H   0  0  0  0  0  0  0  0  0  0  0  0
   -8.0070    2.0810  -25.7890 H   0  0  0  0  0  0  0  0  0  0  0  0
   -9.8480    0.5450  -24.9830 C   0  0  0  0  0  0  0  0  0  0  0  0
  -10.2800    1.4430  -25.6920 O   0  0  0  0  0  0  0  0  0  0  0  0
  -10.7500   -0.4570  -24.3090 C   0  0  0  0  0  0  0  0  0  0  0  0
  -12.1210   -0.3380  -24.5320 C   0  0  0  0  0  0  0  0  0  0  0  0
  -13.0260   -1.0800  -23.7950 C   0  0  0  0  0  0  0  0  0  0  0  0
  -12.5260   -1.9970  -22.8690 C   0  0  0  0  0  0  0  0  0  0  0  0
  -13.6260   -2.9560  -21.9190 Cl  0  0  0  0  0  0  0  0  0  0  0  0
  -11.1690   -2.1710  -22.6790 C   0  0  0  0  0  0  0  0  0  0  0  0
  -10.2510   -1.3870  -23.3870 C   0  0  0  0  0  0  0  0  0  0  0  0
  -10.8420   -2.9250  -21.9730 H   0  0  0  0  0  0  0  0  0  0  0  0
  -14.0960   -0.9300  -23.8990 H   0  0  0  0  0  0  0  0  0  0  0  0
  -12.4470    0.3910  -25.2660 H   0  0  0  0  0  0  0  0  0  0  0  0
   -8.1640   -1.5870  -25.1550 H   0  0  0  0  0  0  0  0  0  0  0  0
   -6.9440   -0.8150  -24.1130 H   0  0  0  0  0  0  0  0  0  0  0  0
   -6.1130   -2.5720  -22.4260 H   0  0  0  0  0  0  0  0  0  0  0  0
   -6.8910   -3.4660  -21.1150 H   0  0  0  0  0  0  0  0  0  0  0  0
   -9.0090   -3.3860  -22.1220 H   0  0  0  0  0  0  0  0  0  0  0  0
   -7.1350   -3.3720  -24.5360 H   0  0  0  0  0  0  0  0  0  0  0  0
   -7.6870   -4.7940  -23.6420 H   0  0  0  0  0  0  0  0  0  0  0  0
   -8.8430   -3.8420  -24.6030 H   0  0  0  0  0  0  0  0  0  0  0  0
  1  2  1  0  0  0  0
  1 71  1  0  0  0  0
  1 72  1  0  0  0  0
  1 73  1  0  0  0  0
  2  3  1  0  0  0  0
  2 23  1  0  0  0  0
  2 70  1  1  0  0  0
  3  4  1  0  0  0  0
  3 68  1  0  0  0  0
  3 69  1  0  0  0  0
  4  5  1  0  0  0  0
  4 21  1  0  0  0  0
  5  6  2  0  0  0  0
  5 14  1  0  0  0  0
  6  7  1  0  0  0  0
  6 20  1  0  0  0  0
  7  8  2  0  0  0  0
  8  9  1  0  0  0  0
  8 19  1  0  0  0  0
  9 10  2  0  0  0  0
  9 14  1  0  0  0  0
 10 11  1  0  0  0  0
 10 18  1  0  0  0  0
 11 12  2  0  0  0  0
 11 17  1  0  0  0  0
 12 13  1  0  0  0  0
 12 16  1  0  0  0  0
 13 14  2  0  0  0  0
 13 15  1  0  0  0  0
 21 22  2  0  0  0  0
 23 21  1  1  0  0  0
 23 24  1  0  0  0  0
 23 62  1  0  0  0  0
 24 25  1  0  0  0  0
 24 66  1  0  0  0  0
 24 67  1  0  0  0  0
 25 26  1  0  0  0  0
 25 54  1  0  0  0  0
 26 27  1  0  0  0  0
 26 52  1  0  0  0  0
 26 53  1  0  0  0  0
 27 28  1  0  0  0  0
 27 50  1  0  0  0  0
 27 51  1  0  0  0  0
 28 29  1  0  0  0  0
 28 40  1  0  0  0  0
 28 49  1  0  0  0  0
 29 30  1  0  0  0  0
 29 47  1  0  0  0  0
 29 48  1  0  0  0  0
 30 31  1  0  0  0  0
 30 45  1  0  0  0  0
 30 46  1  0  0  0  0
 31 32  1  0  0  0  0
 31 39  1  0  0  0  0
 32 33  2  0  0  0  0
 32 34  2  0  0  0  0
 32 35  1  0  0  0  0
 35 36  1  0  0  0  0
 35 37  1  0  0  0  0
 35 38  1  0  0  0  0
 39 40  1  0  0  0  0
 39 43  1  0  0  0  0
 39 44  1  0  0  0  0
 40 41  1  0  0  0  0
 40 42  1  0  0  0  0
 54 55  2  0  0  0  0
 54 56  1  0  0  0  0
 56 57  2  0  0  0  0
 56 62  1  0  0  0  0
 57 58  1  0  0  0  0
 57 65  1  0  0  0  0
 58 59  2  0  0  0  0
 58 64  1  0  0  0  0
 59 60  1  0  0  0  0
 59 61  1  0  0  0  0
 61 62  2  0  0  0  0
 61 63  1  0  0  0  0
M  CHG  1  28   1
M  END
>  <MODEL>
       1

$$$$
