tmp_first_model_3_36.pdb
 OpenBabel08272518143D

 47 50  0  0  1  0  0  0  0  0999 V2000
   -8.6680    0.6230  -21.3320 O   0  0  0  0  0  0  0  0  0  0  0  0
   -8.4210   -0.4140  -21.9240 C   0  0  0  0  0  0  0  0  0  0  0  0
   -7.4270   -1.4240  -21.2920 C   0  0  0  0  0  0  0  0  0  0  0  0
   -6.5850   -0.8240  -20.1870 C   0  0  0  0  0  0  0  0  0  0  0  0
   -6.8820   -1.0360  -18.8640 C   0  0  0  0  0  0  0  0  0  0  0  0
   -6.1970   -0.5330  -17.7980 N   0  0  0  0  0  0  0  0  0  0  0  0
   -5.1590    0.2230  -18.0670 C   0  0  0  0  0  0  0  0  0  0  0  0
   -4.7240    0.5330  -19.3840 C   0  0  0  0  0  0  0  0  0  0  0  0
   -3.5970    1.3600  -19.6240 C   0  0  0  0  0  0  0  0  0  0  0  0
   -3.2070    1.6520  -20.9000 C   0  0  0  0  0  0  0  0  0  0  0  0
   -3.9340    1.1220  -21.9930 C   0  0  0  0  0  0  0  0  0  0  0  0
   -5.0300    0.3180  -21.7970 C   0  0  0  0  0  0  0  0  0  0  0  0
   -5.4560    0.0020  -20.4790 C   0  0  0  0  0  0  0  0  0  0  0  0
   -5.5730   -0.0720  -22.6600 H   0  0  0  0  0  0  0  0  0  0  0  0
   -3.6200    1.3650  -23.0020 H   0  0  0  0  0  0  0  0  0  0  0  0
   -2.3510    2.2970  -21.0880 H   0  0  0  0  0  0  0  0  0  0  0  0
   -3.0620    1.7730  -18.7710 H   0  0  0  0  0  0  0  0  0  0  0  0
   -4.6040    0.6260  -17.2160 H   0  0  0  0  0  0  0  0  0  0  0  0
   -7.7290   -1.6590  -18.5850 H   0  0  0  0  0  0  0  0  0  0  0  0
   -6.7840   -1.8980  -22.0430 H   0  0  0  0  0  0  0  0  0  0  0  0
   -8.0340   -2.2310  -20.8590 H   0  0  0  0  0  0  0  0  0  0  0  0
   -9.0740   -0.7320  -23.1060 N   0  0  0  0  0  0  0  0  0  0  0  0
  -10.0880    0.2410  -23.5330 C   0  0  0  0  0  0  0  0  0  0  0  0
  -11.0600   -0.3100  -24.5660 C   0  0  0  0  0  0  0  0  0  0  0  0
  -10.3390   -0.9990  -25.7110 C   0  0  0  0  0  0  0  0  0  0  0  0
   -9.5340   -2.1490  -25.1290 C   0  0  0  0  0  0  0  0  0  0  0  0
   -8.5280   -1.7180  -24.0440 C   0  0  1  0  0  0  0  0  0  0  0  0
   -7.1910   -1.3000  -24.6580 C   0  0  0  0  0  0  0  0  0  0  0  0
   -6.9720   -0.0170  -25.1570 C   0  0  0  0  0  0  0  0  0  0  0  0
   -5.7510    0.3350  -25.7260 C   0  0  0  0  0  0  0  0  0  0  0  0
   -4.7250   -0.5990  -25.8270 C   0  0  0  0  0  0  0  0  0  0  0  0
   -4.9520   -1.8950  -25.3780 C   0  0  0  0  0  0  0  0  0  0  0  0
   -6.1660   -2.2410  -24.7920 C   0  0  0  0  0  0  0  0  0  0  0  0
   -6.3090   -3.2620  -24.4400 H   0  0  0  0  0  0  0  0  0  0  0  0
   -4.1860   -2.6450  -25.5130 H   0  0  0  0  0  0  0  0  0  0  0  0
   -3.7650   -0.3240  -26.2550 H   0  0  0  0  0  0  0  0  0  0  0  0
   -5.6040    1.3440  -26.0930 H   0  0  0  0  0  0  0  0  0  0  0  0
   -7.7600    0.7250  -25.1060 H   0  0  0  0  0  0  0  0  0  0  0  0
   -8.3260   -2.6130  -23.4510 H   0  0  0  0  0  0  0  0  0  0  0  0
  -10.2260   -2.8780  -24.6980 H   0  0  0  0  0  0  0  0  0  0  0  0
   -8.9890   -2.6770  -25.9160 H   0  0  0  0  0  0  0  0  0  0  0  0
   -9.6750   -0.2950  -26.2260 H   0  0  0  0  0  0  0  0  0  0  0  0
  -11.0500   -1.3650  -26.4620 H   0  0  0  0  0  0  0  0  0  0  0  0
  -11.6930    0.5020  -24.9350 H   0  0  0  0  0  0  0  0  0  0  0  0
  -11.7330   -1.0250  -24.0850 H   0  0  0  0  0  0  0  0  0  0  0  0
  -10.6250    0.5480  -22.6360 H   0  0  0  0  0  0  0  0  0  0  0  0
   -9.6300    1.1630  -23.9210 H   0  0  0  0  0  0  0  0  0  0  0  0
  1  2  2  0  0  0  0
  2  3  1  0  0  0  0
  2 22  1  0  0  0  0
  3  4  1  0  0  0  0
  3 20  1  0  0  0  0
  3 21  1  0  0  0  0
  4  5  2  0  0  0  0
  4 13  1  0  0  0  0
  5  6  1  0  0  0  0
  5 19  1  0  0  0  0
  6  7  2  0  0  0  0
  7  8  1  0  0  0  0
  7 18  1  0  0  0  0
  8  9  2  0  0  0  0
  8 13  1  0  0  0  0
  9 10  1  0  0  0  0
  9 17  1  0  0  0  0
 10 11  2  0  0  0  0
 10 16  1  0  0  0  0
 11 12  1  0  0  0  0
 11 15  1  0  0  0  0
 12 13  2  0  0  0  0
 12 14  1  0  0  0  0
 22 23  1  0  0  0  0
 22 27  1  0  0  0  0
 23 24  1  0  0  0  0
 23 46  1  0  0  0  0
 23 47  1  0  0  0  0
 24 25  1  0  0  0  0
 24 44  1  0  0  0  0
 24 45  1  0  0  0  0
 25 26  1  0  0  0  0
 25 42  1  0  0  0  0
 25 43  1  0  0  0  0
 26 27  1  0  0  0  0
 26 40  1  0  0  0  0
 26 41  1  0  0  0  0
 27 28  1  0  0  0  0
 27 39  1  1  0  0  0
 28 29  2  0  0  0  0
 28 33  1  0  0  0  0
 29 30  1  0  0  0  0
 29 38  1  0  0  0  0
 30 31  2  0  0  0  0
 30 37  1  0  0  0  0
 31 32  1  0  0  0  0
 31 36  1  0  0  0  0
 32 33  2  0  0  0  0
 32 35  1  0  0  0  0
 33 34  1  0  0  0  0
M  END
>  <MODEL>
       1

$$$$
