tmp_first_model_10_95.pdb
 OpenBabel08272522163D

 66 71  0  0  1  0  0  0  0  0999 V2000
   -7.8380   -6.0310  -26.6970 C   0  0  0  0  0  0  0  0  0  0  0  0
   -8.0240   -4.6130  -26.9520 N   0  0  0  0  0  0  0  0  0  0  0  0
   -7.1010   -3.7070  -26.5610 C   0  0  0  0  0  0  0  0  0  0  0  0
   -6.0570   -4.0230  -25.9950 O   0  0  0  0  0  0  0  0  0  0  0  0
   -7.4520   -2.2390  -26.8090 C   0  0  0  0  0  0  0  0  0  0  0  0
   -8.3550   -1.7240  -25.7880 N   0  0  0  0  0  0  0  0  0  0  0  0
   -7.8280   -1.2410  -24.5140 C   0  0  0  0  0  0  0  0  0  0  0  0
   -8.7280   -1.5410  -23.2750 C   0  0  2  0  0  0  0  0  0  0  0  0
   -8.2700   -0.5670  -22.1660 C   0  0  0  0  0  0  0  0  0  0  0  0
   -8.4740    0.6290  -22.1340 O   0  0  0  0  0  0  0  0  0  0  0  0
   -7.5040   -1.2620  -21.2470 N   0  0  0  0  0  0  0  0  0  0  0  0
   -6.7290   -0.6770  -20.2160 C   0  0  0  0  0  0  0  0  0  0  0  0
   -6.9310   -1.0870  -18.9200 C   0  0  0  0  0  0  0  0  0  0  0  0
   -6.2100   -0.6710  -17.8520 N   0  0  0  0  0  0  0  0  0  0  0  0
   -5.2270    0.1640  -18.0800 C   0  0  0  0  0  0  0  0  0  0  0  0
   -4.8950    0.6650  -19.3710 C   0  0  0  0  0  0  0  0  0  0  0  0
   -3.8150    1.5700  -19.5580 C   0  0  0  0  0  0  0  0  0  0  0  0
   -3.5280    2.0620  -20.8000 C   0  0  0  0  0  0  0  0  0  0  0  0
   -4.2970    1.6590  -21.9170 C   0  0  0  0  0  0  0  0  0  0  0  0
   -5.3310    0.7700  -21.7630 C   0  0  0  0  0  0  0  0  0  0  0  0
   -5.6700    0.2550  -20.4800 C   0  0  0  0  0  0  0  0  0  0  0  0
   -5.9230    0.4900  -22.6270 H   0  0  0  0  0  0  0  0  0  0  0  0
   -4.0790    2.0690  -22.8980 H   0  0  0  0  0  0  0  0  0  0  0  0
   -2.7380    2.7960  -20.9310 H   0  0  0  0  0  0  0  0  0  0  0  0
   -3.2260    1.8550  -18.6910 H   0  0  0  0  0  0  0  0  0  0  0  0
   -4.6460    0.4970  -17.2190 H   0  0  0  0  0  0  0  0  0  0  0  0
   -7.7470   -1.7740  -18.7020 H   0  0  0  0  0  0  0  0  0  0  0  0
   -7.3910   -2.6800  -21.5360 C   0  0  0  0  0  0  0  0  0  0  0  0
   -8.4800   -2.9140  -22.5840 C   0  0  2  0  0  0  0  0  0  0  0  0
   -8.1920   -4.0870  -23.5160 C   0  0  0  0  0  0  0  0  0  0  0  0
   -8.1270   -5.3450  -22.8020 N   0  0  0  0  0  0  0  0  0  0  0  0
   -6.9920   -5.9100  -22.3090 C   0  0  0  0  0  0  0  0  0  0  0  0
   -5.7240   -5.7020  -22.8770 C   0  0  0  0  0  0  0  0  0  0  0  0
   -4.6700   -6.3510  -22.2660 C   0  0  0  0  0  0  0  0  0  0  0  0
   -4.8210   -7.1150  -21.1790 N   0  0  0  0  0  0  0  0  0  0  0  0
   -6.0620   -7.2380  -20.7380 C   0  0  0  0  0  0  0  0  0  0  0  0
   -7.1640   -6.7040  -21.2410 N   0  0  0  0  0  0  0  0  0  0  0  0
   -6.1930   -7.8610  -19.8530 H   0  0  0  0  0  0  0  0  0  0  0  0
   -3.6490   -6.2660  -22.6430 H   0  0  0  0  0  0  0  0  0  0  0  0
   -5.6020   -5.0860  -23.7630 H   0  0  0  0  0  0  0  0  0  0  0  0
   -8.9190   -5.5140  -22.1980 H   0  0  0  0  0  0  0  0  0  0  0  0
   -9.0060   -4.1410  -24.2490 H   0  0  0  0  0  0  0  0  0  0  0  0
   -7.2540   -3.9170  -24.0450 H   0  0  0  0  0  0  0  0  0  0  0  0
   -9.4140   -3.1430  -22.0480 H   0  0  0  0  0  0  0  0  0  0  0  0
   -7.5520   -3.2680  -20.6290 H   0  0  0  0  0  0  0  0  0  0  0  0
   -6.3830   -2.9220  -21.9070 H   0  0  0  0  0  0  0  0  0  0  0  0
  -10.1870   -1.3670  -23.6490 C   0  0  0  0  0  0  0  0  0  0  0  0
  -11.1560   -1.2950  -22.6380 C   0  0  0  0  0  0  0  0  0  0  0  0
  -12.4960   -1.1780  -22.9650 C   0  0  0  0  0  0  0  0  0  0  0  0
  -13.7380   -1.1930  -21.7450 Cl  0  0  0  0  0  0  0  0  0  0  0  0
  -12.9060   -1.1080  -24.2960 C   0  0  0  0  0  0  0  0  0  0  0  0
  -11.9580   -1.2070  -25.2970 C   0  0  0  0  0  0  0  0  0  0  0  0
  -10.6170   -1.4000  -24.9770 C   0  0  0  0  0  0  0  0  0  0  0  0
   -9.6850   -1.8180  -26.0640 C   0  0  0  0  0  0  0  0  0  0  0  0
  -10.0960   -2.2810  -27.1260 O   0  0  0  0  0  0  0  0  0  0  0  0
  -12.2350   -1.1670  -26.3470 H   0  0  0  0  0  0  0  0  0  0  0  0
  -13.9660   -1.0560  -24.5160 H   0  0  0  0  0  0  0  0  0  0  0  0
  -10.8470   -1.3420  -21.6010 H   0  0  0  0  0  0  0  0  0  0  0  0
   -7.6990   -0.1500  -24.5620 H   0  0  0  0  0  0  0  0  0  0  0  0
   -6.8420   -1.7060  -24.3840 H   0  0  0  0  0  0  0  0  0  0  0  0
   -6.5270   -1.6610  -26.8270 H   0  0  0  0  0  0  0  0  0  0  0  0
   -7.9690   -2.1390  -27.7640 H   0  0  0  0  0  0  0  0  0  0  0  0
   -8.8970   -4.2780  -27.3320 H   0  0  0  0  0  0  0  0  0  0  0  0
   -7.5810   -6.1940  -25.6420 H   0  0  0  0  0  0  0  0  0  0  0  0
   -8.7680   -6.5590  -26.9210 H   0  0  0  0  0  0  0  0  0  0  0  0
   -7.0440   -6.4490  -27.3260 H   0  0  0  0  0  0  0  0  0  0  0  0
  1  2  1  0  0  0  0
  1 64  1  0  0  0  0
  1 65  1  0  0  0  0
  1 66  1  0  0  0  0
  2  3  1  0  0  0  0
  2 63  1  0  0  0  0
  3  4  2  0  0  0  0
  3  5  1  0  0  0  0
  5  6  1  0  0  0  0
  5 61  1  0  0  0  0
  5 62  1  0  0  0  0
  6  7  1  0  0  0  0
  6 54  1  0  0  0  0
  7  8  1  0  0  0  0
  7 59  1  0  0  0  0
  7 60  1  0  0  0  0
  8  9  1  1  0  0  0
  8 29  1  0  0  0  0
  8 47  1  0  0  0  0
  9 10  2  0  0  0  0
  9 11  1  0  0  0  0
 11 12  1  0  0  0  0
 11 28  1  0  0  0  0
 12 13  2  0  0  0  0
 12 21  1  0  0  0  0
 13 14  1  0  0  0  0
 13 27  1  0  0  0  0
 14 15  2  0  0  0  0
 15 16  1  0  0  0  0
 15 26  1  0  0  0  0
 16 17  2  0  0  0  0
 16 21  1  0  0  0  0
 17 18  1  0  0  0  0
 17 25  1  0  0  0  0
 18 19  2  0  0  0  0
 18 24  1  0  0  0  0
 19 20  1  0  0  0  0
 19 23  1  0  0  0  0
 20 21  2  0  0  0  0
 20 22  1  0  0  0  0
 28 29  1  0  0  0  0
 28 45  1  0  0  0  0
 28 46  1  0  0  0  0
 29 30  1  0  0  0  0
 29 44  1  1  0  0  0
 30 31  1  0  0  0  0
 30 42  1  0  0  0  0
 30 43  1  0  0  0  0
 31 32  1  0  0  0  0
 31 41  1  0  0  0  0
 32 33  2  0  0  0  0
 32 37  1  0  0  0  0
 33 34  1  0  0  0  0
 33 40  1  0  0  0  0
 34 35  2  0  0  0  0
 34 39  1  0  0  0  0
 35 36  1  0  0  0  0
 36 37  2  0  0  0  0
 36 38  1  0  0  0  0
 47 48  2  0  0  0  0
 47 53  1  0  0  0  0
 48 49  1  0  0  0  0
 48 58  1  0  0  0  0
 49 50  1  0  0  0  0
 49 51  2  0  0  0  0
 51 52  1  0  0  0  0
 51 57  1  0  0  0  0
 52 53  2  0  0  0  0
 52 56  1  0  0  0  0
 53 54  1  0  0  0  0
 54 55  2  0  0  0  0
M  END
>  <MODEL>
       1

$$$$
