tmp_first_model_20_48.pdb
 OpenBabel08282503553D

 46 48  0  0  0  0  0  0  0  0999 V2000
   -8.3320   -6.6040  -26.1120 C   0  0  0  0  0  0  0  0  0  0  0  0
   -9.4350   -6.4620  -25.0640 C   0  0  0  0  0  0  0  0  0  0  0  0
  -10.7870   -6.3560  -25.7650 C   0  0  0  0  0  0  0  0  0  0  0  0
  -11.6190   -6.2730  -25.0570 H   0  0  0  0  0  0  0  0  0  0  0  0
  -10.9540   -7.2550  -26.3710 H   0  0  0  0  0  0  0  0  0  0  0  0
  -10.8170   -5.4870  -26.4330 H   0  0  0  0  0  0  0  0  0  0  0  0
   -9.2220   -5.3770  -23.9950 C   0  0  0  0  0  0  0  0  0  0  0  0
   -9.0240   -3.9330  -24.4850 C   0  0  0  0  0  0  0  0  0  0  0  0
   -8.7270   -3.0820  -23.2510 C   0  0  0  0  0  0  0  0  0  0  0  0
   -7.4440   -3.4940  -22.6620 N   0  0  0  0  0  0  0  0  0  0  0  0
   -6.6970   -2.7420  -21.8040 C   0  0  0  0  0  0  0  0  0  0  0  0
   -5.5610   -3.0580  -21.4780 O   0  0  0  0  0  0  0  0  0  0  0  0
   -7.3750   -1.4910  -21.2660 C   0  0  0  0  0  0  0  0  0  0  0  0
   -6.5830   -0.8530  -20.1770 C   0  0  0  0  0  0  0  0  0  0  0  0
   -6.9100   -1.0630  -18.8640 C   0  0  0  0  0  0  0  0  0  0  0  0
   -6.2380   -0.5530  -17.7970 N   0  0  0  0  0  0  0  0  0  0  0  0
   -5.1920    0.1860  -18.0690 C   0  0  0  0  0  0  0  0  0  0  0  0
   -4.7310    0.4800  -19.3800 C   0  0  0  0  0  0  0  0  0  0  0  0
   -3.6080    1.3080  -19.6180 C   0  0  0  0  0  0  0  0  0  0  0  0
   -3.2120    1.5970  -20.8960 C   0  0  0  0  0  0  0  0  0  0  0  0
   -3.9170    1.0600  -21.9960 C   0  0  0  0  0  0  0  0  0  0  0  0
   -5.0040    0.2480  -21.7950 C   0  0  0  0  0  0  0  0  0  0  0  0
   -5.4440   -0.0570  -20.4780 C   0  0  0  0  0  0  0  0  0  0  0  0
   -5.5380   -0.1540  -22.6520 H   0  0  0  0  0  0  0  0  0  0  0  0
   -3.6040    1.3120  -23.0060 H   0  0  0  0  0  0  0  0  0  0  0  0
   -2.3630    2.2500  -21.0770 H   0  0  0  0  0  0  0  0  0  0  0  0
   -3.0820    1.7250  -18.7640 H   0  0  0  0  0  0  0  0  0  0  0  0
   -4.6430    0.6100  -17.2240 H   0  0  0  0  0  0  0  0  0  0  0  0
   -7.7730   -1.6810  -18.6150 H   0  0  0  0  0  0  0  0  0  0  0  0
   -8.3640   -1.7930  -20.8930 H   0  0  0  0  0  0  0  0  0  0  0  0
   -7.5280   -0.7930  -22.1010 H   0  0  0  0  0  0  0  0  0  0  0  0
   -6.9410   -4.8140  -22.9920 C   0  0  0  0  0  0  0  0  0  0  0  0
   -8.1080   -5.7800  -22.9950 C   0  0  0  0  0  0  0  0  0  0  0  0
   -7.7560   -6.8020  -23.1650 H   0  0  0  0  0  0  0  0  0  0  0  0
   -8.5100   -5.7740  -21.9770 H   0  0  0  0  0  0  0  0  0  0  0  0
   -6.1970   -5.0820  -22.2390 H   0  0  0  0  0  0  0  0  0  0  0  0
   -6.4160   -4.7880  -23.9540 H   0  0  0  0  0  0  0  0  0  0  0  0
   -8.7060   -2.0110  -23.4760 H   0  0  0  0  0  0  0  0  0  0  0  0
   -9.5610   -3.2270  -22.5470 H   0  0  0  0  0  0  0  0  0  0  0  0
   -9.9270   -3.5590  -24.9870 H   0  0  0  0  0  0  0  0  0  0  0  0
   -8.2120   -3.8310  -25.2110 H   0  0  0  0  0  0  0  0  0  0  0  0
  -10.1560   -5.3240  -23.4130 H   0  0  0  0  0  0  0  0  0  0  0  0
   -9.4240   -7.4000  -24.5010 H   0  0  0  0  0  0  0  0  0  0  0  0
   -7.3320   -6.7170  -25.6760 H   0  0  0  0  0  0  0  0  0  0  0  0
   -8.3060   -5.7460  -26.7900 H   0  0  0  0  0  0  0  0  0  0  0  0
   -8.5360   -7.4890  -26.7290 H   0  0  0  0  0  0  0  0  0  0  0  0
  1  2  1  0  0  0  0
  1 44  1  0  0  0  0
  1 45  1  0  0  0  0
  1 46  1  0  0  0  0
  2  3  1  0  0  0  0
  2  7  1  0  0  0  0
  2 43  1  0  0  0  0
  3  4  1  0  0  0  0
  3  5  1  0  0  0  0
  3  6  1  0  0  0  0
  7  8  1  0  0  0  0
  7 33  1  0  0  0  0
  7 42  1  0  0  0  0
  8  9  1  0  0  0  0
  8 40  1  0  0  0  0
  8 41  1  0  0  0  0
  9 10  1  0  0  0  0
  9 38  1  0  0  0  0
  9 39  1  0  0  0  0
 10 11  1  0  0  0  0
 10 32  1  0  0  0  0
 11 12  2  0  0  0  0
 11 13  1  0  0  0  0
 13 14  1  0  0  0  0
 13 30  1  0  0  0  0
 13 31  1  0  0  0  0
 14 15  2  0  0  0  0
 14 23  1  0  0  0  0
 15 16  1  0  0  0  0
 15 29  1  0  0  0  0
 16 17  2  0  0  0  0
 17 18  1  0  0  0  0
 17 28  1  0  0  0  0
 18 19  2  0  0  0  0
 18 23  1  0  0  0  0
 19 20  1  0  0  0  0
 19 27  1  0  0  0  0
 20 21  2  0  0  0  0
 20 26  1  0  0  0  0
 21 22  1  0  0  0  0
 21 25  1  0  0  0  0
 22 23  2  0  0  0  0
 22 24  1  0  0  0  0
 32 33  1  0  0  0  0
 32 36  1  0  0  0  0
 32 37  1  0  0  0  0
 33 34  1  0  0  0  0
 33 35  1  0  0  0  0
M  END
>  <MODEL>
       1

$$$$
