tmp_first_model_4_50.pdb
 OpenBabel08272518513D

 66 70  0  0  1  0  0  0  0  0999 V2000
   -7.3620    3.3320  -21.9020 C   0  0  0  0  0  0  0  0  0  0  0  0
   -8.3190    2.8750  -22.8960 N   0  0  0  0  0  0  0  0  0  0  0  0
   -7.8410    2.1300  -23.9300 C   0  0  0  0  0  0  0  0  0  0  0  0
   -6.6470    1.9050  -24.0730 O   0  0  0  0  0  0  0  0  0  0  0  0
   -8.8720    1.5530  -24.8990 C   0  0  0  0  0  0  0  0  0  0  0  0
   -9.5310    0.4110  -24.2890 N   0  0  0  0  0  0  0  0  0  0  0  0
   -8.7850   -0.8320  -24.1430 C   0  0  0  0  0  0  0  0  0  0  0  0
   -9.1250   -1.5590  -22.8140 C   0  0  2  0  0  0  0  0  0  0  0  0
   -8.5340   -0.7730  -21.6110 C   0  0  0  0  0  0  0  0  0  0  0  0
   -8.9640    0.2430  -21.1070 O   0  0  0  0  0  0  0  0  0  0  0  0
   -7.3910   -1.4240  -21.2090 N   0  0  0  0  0  0  0  0  0  0  0  0
   -6.5300   -0.9510  -20.1940 C   0  0  0  0  0  0  0  0  0  0  0  0
   -6.7690   -1.2580  -18.8820 C   0  0  0  0  0  0  0  0  0  0  0  0
   -5.8900   -1.0240  -17.8780 N   0  0  0  0  0  0  0  0  0  0  0  0
   -4.7610   -0.4280  -18.1780 C   0  0  0  0  0  0  0  0  0  0  0  0
   -4.4270    0.0090  -19.4900 C   0  0  0  0  0  0  0  0  0  0  0  0
   -3.2520    0.7550  -19.7510 C   0  0  0  0  0  0  0  0  0  0  0  0
   -3.0370    1.2860  -20.9950 C   0  0  0  0  0  0  0  0  0  0  0  0
   -3.9450    1.0270  -22.0510 C   0  0  0  0  0  0  0  0  0  0  0  0
   -5.0520    0.2440  -21.8350 C   0  0  0  0  0  0  0  0  0  0  0  0
   -5.3400   -0.2460  -20.5340 C   0  0  0  0  0  0  0  0  0  0  0  0
   -5.7270    0.0230  -22.6550 H   0  0  0  0  0  0  0  0  0  0  0  0
   -3.7760    1.4590  -23.0330 H   0  0  0  0  0  0  0  0  0  0  0  0
   -2.1770    1.9220  -21.1710 H   0  0  0  0  0  0  0  0  0  0  0  0
   -2.5920    0.9580  -18.9120 H   0  0  0  0  0  0  0  0  0  0  0  0
   -4.0400   -0.2590  -17.3760 H   0  0  0  0  0  0  0  0  0  0  0  0
   -7.6960   -1.7680  -18.6240 H   0  0  0  0  0  0  0  0  0  0  0  0
   -7.0640   -2.6150  -21.9580 C   0  0  0  0  0  0  0  0  0  0  0  0
   -8.3690   -2.9190  -22.7040 C   0  0  2  0  0  0  0  0  0  0  0  0
   -8.1180   -3.6600  -24.0080 C   0  0  0  0  0  0  0  0  0  0  0  0
   -7.4810   -4.8850  -23.7160 O   0  0  0  0  0  0  0  0  0  0  0  0
   -7.3110   -5.7350  -24.8420 C   0  0  0  0  0  0  0  0  0  0  0  0
   -8.4480   -6.7470  -24.9120 C   0  0  0  0  0  0  0  0  0  0  0  0
   -8.4360   -7.3870  -24.0240 H   0  0  0  0  0  0  0  0  0  0  0  0
   -8.3300   -7.3730  -25.8030 H   0  0  0  0  0  0  0  0  0  0  0  0
   -9.4240   -6.2530  -24.9660 H   0  0  0  0  0  0  0  0  0  0  0  0
   -5.9590   -6.4230  -24.7280 C   0  0  0  0  0  0  0  0  0  0  0  0
   -5.9280   -7.0480  -23.8290 H   0  0  0  0  0  0  0  0  0  0  0  0
   -5.7940   -7.0590  -25.6060 H   0  0  0  0  0  0  0  0  0  0  0  0
   -5.1500   -5.6880  -24.6740 H   0  0  0  0  0  0  0  0  0  0  0  0
   -7.3170   -5.1250  -25.7590 H   0  0  0  0  0  0  0  0  0  0  0  0
   -9.0670   -3.8220  -24.5420 H   0  0  0  0  0  0  0  0  0  0  0  0
   -7.4610   -3.0630  -24.6610 H   0  0  0  0  0  0  0  0  0  0  0  0
   -8.9500   -3.5890  -22.0690 H   0  0  0  0  0  0  0  0  0  0  0  0
   -6.7830   -3.4190  -21.2730 H   0  0  0  0  0  0  0  0  0  0  0  0
   -6.2190   -2.4540  -22.6470 H   0  0  0  0  0  0  0  0  0  0  0  0
  -10.6370   -1.6380  -22.7050 C   0  0  0  0  0  0  0  0  0  0  0  0
  -11.2460   -2.5730  -21.8610 C   0  0  0  0  0  0  0  0  0  0  0  0
  -12.6160   -2.5760  -21.7100 C   0  0  0  0  0  0  0  0  0  0  0  0
  -13.1720   -3.4640  -20.8700 F   0  0  0  0  0  0  0  0  0  0  0  0
  -13.4480   -1.6860  -22.3770 C   0  0  0  0  0  0  0  0  0  0  0  0
  -12.8530   -0.7510  -23.1980 C   0  0  0  0  0  0  0  0  0  0  0  0
  -11.4660   -0.7020  -23.3440 C   0  0  0  0  0  0  0  0  0  0  0  0
  -10.8920    0.4260  -24.1480 C   0  0  0  0  0  0  0  0  0  0  0  0
  -11.5980    1.3090  -24.6210 O   0  0  0  0  0  0  0  0  0  0  0  0
  -13.4470   -0.0190  -23.7300 H   0  0  0  0  0  0  0  0  0  0  0  0
  -14.5210   -1.7210  -22.2230 H   0  0  0  0  0  0  0  0  0  0  0  0
  -10.6770   -3.3000  -21.2930 H   0  0  0  0  0  0  0  0  0  0  0  0
   -9.0260   -1.5030  -24.9810 H   0  0  0  0  0  0  0  0  0  0  0  0
   -7.7120   -0.6090  -24.1850 H   0  0  0  0  0  0  0  0  0  0  0  0
   -8.3620    1.2490  -25.8210 H   0  0  0  0  0  0  0  0  0  0  0  0
   -9.6430    2.2830  -25.1630 H   0  0  0  0  0  0  0  0  0  0  0  0
   -9.2750    2.7410  -22.5950 H   0  0  0  0  0  0  0  0  0  0  0  0
   -7.8920    3.8390  -21.0960 H   0  0  0  0  0  0  0  0  0  0  0  0
   -6.7810    2.4830  -21.5140 H   0  0  0  0  0  0  0  0  0  0  0  0
   -6.6730    4.0510  -22.3540 H   0  0  0  0  0  0  0  0  0  0  0  0
  1  2  1  0  0  0  0
  1 64  1  0  0  0  0
  1 65  1  0  0  0  0
  1 66  1  0  0  0  0
  2  3  1  0  0  0  0
  2 63  1  0  0  0  0
  3  4  2  0  0  0  0
  3  5  1  0  0  0  0
  5  6  1  0  0  0  0
  5 61  1  0  0  0  0
  5 62  1  0  0  0  0
  6  7  1  0  0  0  0
  6 54  1  0  0  0  0
  7  8  1  0  0  0  0
  7 59  1  0  0  0  0
  7 60  1  0  0  0  0
  8  9  1  1  0  0  0
  8 29  1  0  0  0  0
  8 47  1  0  0  0  0
  9 10  2  0  0  0  0
  9 11  1  0  0  0  0
 11 12  1  0  0  0  0
 11 28  1  0  0  0  0
 12 13  2  0  0  0  0
 12 21  1  0  0  0  0
 13 14  1  0  0  0  0
 13 27  1  0  0  0  0
 14 15  2  0  0  0  0
 15 16  1  0  0  0  0
 15 26  1  0  0  0  0
 16 17  2  0  0  0  0
 16 21  1  0  0  0  0
 17 18  1  0  0  0  0
 17 25  1  0  0  0  0
 18 19  2  0  0  0  0
 18 24  1  0  0  0  0
 19 20  1  0  0  0  0
 19 23  1  0  0  0  0
 20 21  2  0  0  0  0
 20 22  1  0  0  0  0
 28 29  1  0  0  0  0
 28 45  1  0  0  0  0
 28 46  1  0  0  0  0
 29 30  1  0  0  0  0
 29 44  1  1  0  0  0
 30 31  1  0  0  0  0
 30 42  1  0  0  0  0
 30 43  1  0  0  0  0
 31 32  1  0  0  0  0
 32 33  1  0  0  0  0
 32 37  1  0  0  0  0
 32 41  1  0  0  0  0
 33 34  1  0  0  0  0
 33 35  1  0  0  0  0
 33 36  1  0  0  0  0
 37 38  1  0  0  0  0
 37 39  1  0  0  0  0
 37 40  1  0  0  0  0
 47 48  2  0  0  0  0
 47 53  1  0  0  0  0
 48 49  1  0  0  0  0
 48 58  1  0  0  0  0
 49 50  1  0  0  0  0
 49 51  2  0  0  0  0
 51 52  1  0  0  0  0
 51 57  1  0  0  0  0
 52 53  2  0  0  0  0
 52 56  1  0  0  0  0
 53 54  1  0  0  0  0
 54 55  2  0  0  0  0
M  END
>  <MODEL>
       1

$$$$
