tmp_first_model_6_32.pdb
 OpenBabel08272519583D

 57 62  0  0  1  0  0  0  0  0999 V2000
  -10.2130   -2.9730  -22.0770 C   0  0  0  0  0  0  0  0  0  0  0  0
   -9.1450   -2.0240  -22.6330 C   0  0  1  0  0  0  0  0  0  0  0  0
   -8.6760   -1.0430  -21.5430 C   0  0  0  0  0  0  0  0  0  0  0  0
   -7.3410   -1.4680  -21.2030 N   0  0  0  0  0  0  0  0  0  0  0  0
   -6.5740   -0.8540  -20.1890 C   0  0  0  0  0  0  0  0  0  0  0  0
   -6.9110   -1.0620  -18.8750 C   0  0  0  0  0  0  0  0  0  0  0  0
   -6.2260   -0.5630  -17.8200 N   0  0  0  0  0  0  0  0  0  0  0  0
   -5.1910    0.2020  -18.0850 C   0  0  0  0  0  0  0  0  0  0  0  0
   -4.7580    0.5270  -19.4040 C   0  0  0  0  0  0  0  0  0  0  0  0
   -3.6360    1.3690  -19.6250 C   0  0  0  0  0  0  0  0  0  0  0  0
   -3.2590    1.7010  -20.8980 C   0  0  0  0  0  0  0  0  0  0  0  0
   -3.9960    1.2230  -22.0040 C   0  0  0  0  0  0  0  0  0  0  0  0
   -5.0730    0.3860  -21.8220 C   0  0  0  0  0  0  0  0  0  0  0  0
   -5.4720    0.0050  -20.5040 C   0  0  0  0  0  0  0  0  0  0  0  0
   -5.6080    0.0040  -22.6920 H   0  0  0  0  0  0  0  0  0  0  0  0
   -3.6850    1.4840  -23.0120 H   0  0  0  0  0  0  0  0  0  0  0  0
   -2.3880    2.3280  -21.0700 H   0  0  0  0  0  0  0  0  0  0  0  0
   -3.0880    1.7350  -18.7610 H   0  0  0  0  0  0  0  0  0  0  0  0
   -4.6360    0.6100  -17.2400 H   0  0  0  0  0  0  0  0  0  0  0  0
   -7.7670   -1.6950  -18.6370 H   0  0  0  0  0  0  0  0  0  0  0  0
   -6.8210   -2.4180  -22.0420 C   0  0  0  0  0  0  0  0  0  0  0  0
   -5.7340   -2.9420  -21.9020 O   0  0  0  0  0  0  0  0  0  0  0  0
   -7.8410   -2.6900  -23.1610 C   0  0  1  0  0  0  0  0  0  0  0  0
   -7.9870   -4.2080  -23.3800 C   0  0  0  0  0  0  0  0  0  0  0  0
   -6.8030   -4.7810  -24.0020 N   0  0  0  0  0  0  0  0  0  0  0  0
   -6.2330   -5.9700  -23.3860 C   0  0  0  0  0  0  0  0  0  0  0  0
   -7.2420   -7.0730  -23.4460 C   0  0  0  0  0  0  0  0  0  0  0  0
   -8.0160   -7.4830  -22.4670 N   0  0  0  0  0  0  0  0  0  0  0  0
   -8.9550   -8.2640  -23.0430 N   0  0  0  0  0  0  0  0  0  0  0  0
   -8.7760   -8.3430  -24.3100 N   0  0  0  0  0  0  0  0  0  0  0  0
   -7.6970   -7.5980  -24.5970 N   0  0  0  0  0  0  0  0  0  0  0  0
   -7.1790   -7.4890  -25.9460 C   0  0  0  0  0  0  0  0  0  0  0  0
   -7.4830   -6.5570  -26.4210 H   0  0  0  0  0  0  0  0  0  0  0  0
   -6.0910   -7.5320  -25.9400 H   0  0  0  0  0  0  0  0  0  0  0  0
   -7.5620   -8.3260  -26.5250 H   0  0  0  0  0  0  0  0  0  0  0  0
   -5.9910   -5.7410  -22.3400 H   0  0  0  0  0  0  0  0  0  0  0  0
   -5.3160   -6.1840  -23.9400 H   0  0  0  0  0  0  0  0  0  0  0  0
   -6.2140   -4.2290  -25.0980 C   0  0  0  0  0  0  0  0  0  0  0  0
   -5.3970   -4.8230  -25.7970 O   0  0  0  0  0  0  0  0  0  0  0  0
   -6.6000   -2.8160  -25.3810 C   0  0  0  0  0  0  0  0  0  0  0  0
   -6.1260   -2.2610  -26.5670 C   0  0  0  0  0  0  0  0  0  0  0  0
   -6.3640   -0.9280  -26.8480 C   0  0  0  0  0  0  0  0  0  0  0  0
   -7.0670   -0.1720  -25.9160 C   0  0  0  0  0  0  0  0  0  0  0  0
   -7.2770    1.1350  -26.1690 F   0  0  0  0  0  0  0  0  0  0  0  0
   -7.5540   -0.7070  -24.7370 C   0  0  0  0  0  0  0  0  0  0  0  0
   -7.3440   -2.0660  -24.4620 C   0  0  0  0  0  0  0  0  0  0  0  0
   -8.0990   -0.0560  -24.0600 H   0  0  0  0  0  0  0  0  0  0  0  0
   -5.9980   -0.4500  -27.7480 H   0  0  0  0  0  0  0  0  0  0  0  0
   -5.5590   -2.9130  -27.2270 H   0  0  0  0  0  0  0  0  0  0  0  0
   -8.8560   -4.3890  -24.0260 H   0  0  0  0  0  0  0  0  0  0  0  0
   -8.1380   -4.7140  -22.4230 H   0  0  0  0  0  0  0  0  0  0  0  0
   -8.6710    0.0000  -21.8800 H   0  0  0  0  0  0  0  0  0  0  0  0
   -9.3260   -1.0970  -20.6750 H   0  0  0  0  0  0  0  0  0  0  0  0
   -9.6150   -1.4890  -23.4630 H   0  0  0  0  0  0  0  0  0  0  0  0
  -10.5960   -3.6520  -22.8440 H   0  0  0  0  0  0  0  0  0  0  0  0
  -11.0660   -2.3980  -21.7010 H   0  0  0  0  0  0  0  0  0  0  0  0
   -9.8230   -3.5710  -21.2460 H   0  0  0  0  0  0  0  0  0  0  0  0
  1  2  1  0  0  0  0
  1 55  1  0  0  0  0
  1 56  1  0  0  0  0
  1 57  1  0  0  0  0
  2  3  1  0  0  0  0
  2 23  1  0  0  0  0
  2 54  1  6  0  0  0
  3  4  1  0  0  0  0
  3 52  1  0  0  0  0
  3 53  1  0  0  0  0
  4  5  1  0  0  0  0
  4 21  1  0  0  0  0
  5  6  2  0  0  0  0
  5 14  1  0  0  0  0
  6  7  1  0  0  0  0
  6 20  1  0  0  0  0
  7  8  2  0  0  0  0
  8  9  1  0  0  0  0
  8 19  1  0  0  0  0
  9 10  2  0  0  0  0
  9 14  1  0  0  0  0
 10 11  1  0  0  0  0
 10 18  1  0  0  0  0
 11 12  2  0  0  0  0
 11 17  1  0  0  0  0
 12 13  1  0  0  0  0
 12 16  1  0  0  0  0
 13 14  2  0  0  0  0
 13 15  1  0  0  0  0
 21 22  2  0  0  0  0
 23 21  1  1  0  0  0
 23 24  1  0  0  0  0
 23 46  1  0  0  0  0
 24 25  1  0  0  0  0
 24 50  1  0  0  0  0
 24 51  1  0  0  0  0
 25 26  1  0  0  0  0
 25 38  1  0  0  0  0
 26 27  1  0  0  0  0
 26 36  1  0  0  0  0
 26 37  1  0  0  0  0
 27 28  2  0  0  0  0
 27 31  1  0  0  0  0
 28 29  1  0  0  0  0
 29 30  2  0  0  0  0
 30 31  1  0  0  0  0
 31 32  1  0  0  0  0
 32 33  1  0  0  0  0
 32 34  1  0  0  0  0
 32 35  1  0  0  0  0
 38 39  2  0  0  0  0
 38 40  1  0  0  0  0
 40 41  2  0  0  0  0
 40 46  1  0  0  0  0
 41 42  1  0  0  0  0
 41 49  1  0  0  0  0
 42 43  2  0  0  0  0
 42 48  1  0  0  0  0
 43 44  1  0  0  0  0
 43 45  1  0  0  0  0
 45 46  2  0  0  0  0
 45 47  1  0  0  0  0
M  END
>  <MODEL>
       1

$$$$
