tmp_first_model_4_38.pdb
 OpenBabel08272518513D

 46 48  0  0  1  0  0  0  0  0999 V2000
   -8.1450   -4.6760  -26.5260 C   0  0  0  0  0  0  0  0  0  0  0  0
   -8.6490   -4.9430  -25.1040 C   0  0  1  0  0  0  0  0  0  0  0  0
   -7.5870   -5.5200  -24.1620 C   0  0  0  0  0  0  0  0  0  0  0  0
   -6.6160   -4.5130  -23.5450 C   0  0  1  0  0  0  0  0  0  0  0  0
   -5.4290   -4.1380  -24.4380 C   0  0  0  0  0  0  0  0  0  0  0  0
   -4.6310   -3.6990  -23.8320 H   0  0  0  0  0  0  0  0  0  0  0  0
   -5.6920   -3.4150  -25.2150 H   0  0  0  0  0  0  0  0  0  0  0  0
   -5.0460   -5.0450  -24.9170 H   0  0  0  0  0  0  0  0  0  0  0  0
   -7.3280   -3.3420  -23.0190 N   0  0  0  0  0  0  0  0  0  0  0  0
   -6.7230   -2.7300  -21.9530 C   0  0  0  0  0  0  0  0  0  0  0  0
   -5.6750   -3.1490  -21.4830 O   0  0  0  0  0  0  0  0  0  0  0  0
   -7.4000   -1.5110  -21.3080 C   0  0  0  0  0  0  0  0  0  0  0  0
   -6.5000   -0.9960  -20.2280 C   0  0  0  0  0  0  0  0  0  0  0  0
   -6.7540   -1.2770  -18.9150 C   0  0  0  0  0  0  0  0  0  0  0  0
   -5.9360   -0.9890  -17.8730 N   0  0  0  0  0  0  0  0  0  0  0  0
   -4.8270   -0.3480  -18.1500 C   0  0  0  0  0  0  0  0  0  0  0  0
   -4.4430    0.0420  -19.4630 C   0  0  0  0  0  0  0  0  0  0  0  0
   -3.2930    0.8370  -19.7080 C   0  0  0  0  0  0  0  0  0  0  0  0
   -3.0500    1.3450  -20.9580 C   0  0  0  0  0  0  0  0  0  0  0  0
   -3.8870    0.9850  -22.0380 C   0  0  0  0  0  0  0  0  0  0  0  0
   -4.9640    0.1590  -21.8430 C   0  0  0  0  0  0  0  0  0  0  0  0
   -5.3030   -0.2930  -20.5380 C   0  0  0  0  0  0  0  0  0  0  0  0
   -5.6310   -0.0660  -22.6700 H   0  0  0  0  0  0  0  0  0  0  0  0
   -3.6940    1.3910  -23.0280 H   0  0  0  0  0  0  0  0  0  0  0  0
   -2.2650    2.0780  -21.1130 H   0  0  0  0  0  0  0  0  0  0  0  0
   -2.6570    1.1040  -18.8670 H   0  0  0  0  0  0  0  0  0  0  0  0
   -4.1980   -0.0790  -17.3010 H   0  0  0  0  0  0  0  0  0  0  0  0
   -7.7080   -1.7260  -18.6440 H   0  0  0  0  0  0  0  0  0  0  0  0
   -7.6370   -0.7550  -22.0660 H   0  0  0  0  0  0  0  0  0  0  0  0
   -8.3630   -1.8230  -20.8820 H   0  0  0  0  0  0  0  0  0  0  0  0
   -8.4120   -2.7070  -23.7820 C   0  0  1  0  0  0  0  0  0  0  0  0
   -7.9320   -1.6650  -24.7960 C   0  0  0  0  0  0  0  0  0  0  0  0
   -7.4430   -2.1180  -25.6630 H   0  0  0  0  0  0  0  0  0  0  0  0
   -8.8020   -1.1090  -25.1630 H   0  0  0  0  0  0  0  0  0  0  0  0
   -7.2270   -0.9510  -24.3570 H   0  0  0  0  0  0  0  0  0  0  0  0
   -9.3370   -3.7600  -24.4090 C   0  0  0  0  0  0  0  0  0  0  0  0
   -9.9620   -4.1650  -23.6040 H   0  0  0  0  0  0  0  0  0  0  0  0
  -10.0070   -3.2440  -25.1110 H   0  0  0  0  0  0  0  0  0  0  0  0
   -9.0240   -2.1770  -23.0410 H   0  0  0  0  0  0  0  0  0  0  0  0
   -6.1920   -4.9920  -22.6580 H   0  0  0  0  0  0  0  0  0  0  0  0
   -8.1010   -6.0230  -23.3330 H   0  0  0  0  0  0  0  0  0  0  0  0
   -6.9900   -6.2840  -24.6820 H   0  0  0  0  0  0  0  0  0  0  0  0
   -9.4220   -5.7180  -25.2070 H   0  0  0  0  0  0  0  0  0  0  0  0
   -7.9050   -5.6220  -27.0290 H   0  0  0  0  0  0  0  0  0  0  0  0
   -8.9140   -4.1770  -27.1280 H   0  0  0  0  0  0  0  0  0  0  0  0
   -7.2400   -4.0640  -26.5610 H   0  0  0  0  0  0  0  0  0  0  0  0
  1  2  1  0  0  0  0
  1 44  1  0  0  0  0
  1 45  1  0  0  0  0
  1 46  1  0  0  0  0
  2  3  1  0  0  0  0
  2 36  1  0  0  0  0
  2 43  1  6  0  0  0
  3  4  1  0  0  0  0
  3 41  1  0  0  0  0
  3 42  1  0  0  0  0
  4  5  1  0  0  0  0
  4  9  1  0  0  0  0
  4 40  1  1  0  0  0
  5  6  1  0  0  0  0
  5  7  1  0  0  0  0
  5  8  1  0  0  0  0
  9 10  1  0  0  0  0
  9 31  1  0  0  0  0
 10 11  2  0  0  0  0
 10 12  1  0  0  0  0
 12 13  1  0  0  0  0
 12 29  1  0  0  0  0
 12 30  1  0  0  0  0
 13 14  2  0  0  0  0
 13 22  1  0  0  0  0
 14 15  1  0  0  0  0
 14 28  1  0  0  0  0
 15 16  2  0  0  0  0
 16 17  1  0  0  0  0
 16 27  1  0  0  0  0
 17 18  2  0  0  0  0
 17 22  1  0  0  0  0
 18 19  1  0  0  0  0
 18 26  1  0  0  0  0
 19 20  2  0  0  0  0
 19 25  1  0  0  0  0
 20 21  1  0  0  0  0
 20 24  1  0  0  0  0
 21 22  2  0  0  0  0
 21 23  1  0  0  0  0
 31 32  1  0  0  0  0
 31 36  1  0  0  0  0
 31 39  1  1  0  0  0
 32 33  1  0  0  0  0
 32 34  1  0  0  0  0
 32 35  1  0  0  0  0
 36 37  1  0  0  0  0
 36 38  1  0  0  0  0
M  END
>  <MODEL>
       1

$$$$
