tmp_first_model_8_91.pdb
 OpenBabel08272521063D

 66 71  0  0  1  0  0  0  0  0999 V2000
   -8.2310   -4.7510  -28.8810 C   0  0  0  0  0  0  0  0  0  0  0  0
   -8.0980   -3.3590  -28.4840 N   0  0  0  0  0  0  0  0  0  0  0  0
   -7.3700   -3.0840  -27.3680 C   0  0  0  0  0  0  0  0  0  0  0  0
   -6.7200   -3.9260  -26.7670 O   0  0  0  0  0  0  0  0  0  0  0  0
   -7.4460   -1.6350  -26.9010 C   0  0  0  0  0  0  0  0  0  0  0  0
   -8.3500   -1.5510  -25.7670 N   0  0  0  0  0  0  0  0  0  0  0  0
   -7.8160   -1.1380  -24.4790 C   0  0  0  0  0  0  0  0  0  0  0  0
   -8.6930   -1.5430  -23.2640 C   0  0  2  0  0  0  0  0  0  0  0  0
   -8.1930   -0.6510  -22.1070 C   0  0  0  0  0  0  0  0  0  0  0  0
   -8.3660    0.5450  -21.9790 O   0  0  0  0  0  0  0  0  0  0  0  0
   -7.4320   -1.4120  -21.2470 N   0  0  0  0  0  0  0  0  0  0  0  0
   -6.6380   -0.8310  -20.2280 C   0  0  0  0  0  0  0  0  0  0  0  0
   -6.9280   -1.1090  -18.9180 C   0  0  0  0  0  0  0  0  0  0  0  0
   -6.2490   -0.6200  -17.8530 N   0  0  0  0  0  0  0  0  0  0  0  0
   -5.2300    0.1670  -18.1040 C   0  0  0  0  0  0  0  0  0  0  0  0
   -4.8030    0.5170  -19.4150 C   0  0  0  0  0  0  0  0  0  0  0  0
   -3.6760    1.3550  -19.6180 C   0  0  0  0  0  0  0  0  0  0  0  0
   -3.2760    1.6830  -20.8820 C   0  0  0  0  0  0  0  0  0  0  0  0
   -3.9860    1.1880  -21.9980 C   0  0  0  0  0  0  0  0  0  0  0  0
   -5.0600    0.3530  -21.8320 C   0  0  0  0  0  0  0  0  0  0  0  0
   -5.5160    0.0090  -20.5250 C   0  0  0  0  0  0  0  0  0  0  0  0
   -5.5650   -0.0440  -22.7090 H   0  0  0  0  0  0  0  0  0  0  0  0
   -3.6490    1.4480  -22.9970 H   0  0  0  0  0  0  0  0  0  0  0  0
   -2.4050    2.3130  -21.0380 H   0  0  0  0  0  0  0  0  0  0  0  0
   -3.1450    1.7260  -18.7450 H   0  0  0  0  0  0  0  0  0  0  0  0
   -4.6770    0.5630  -17.2510 H   0  0  0  0  0  0  0  0  0  0  0  0
   -7.7750   -1.7540  -18.6890 H   0  0  0  0  0  0  0  0  0  0  0  0
   -7.3010   -2.7970  -21.6470 C   0  0  0  0  0  0  0  0  0  0  0  0
   -8.4230   -2.9770  -22.6720 C   0  0  2  0  0  0  0  0  0  0  0  0
   -8.1040   -4.1050  -23.6460 C   0  0  0  0  0  0  0  0  0  0  0  0
   -9.3050   -4.5380  -24.3240 N   0  0  0  0  0  0  0  0  0  0  0  0
   -9.2680   -5.5710  -25.2180 C   0  0  0  0  0  0  0  0  0  0  0  0
  -10.3840   -5.8470  -26.0410 C   0  0  0  0  0  0  0  0  0  0  0  0
  -10.3860   -6.8290  -26.9200 N   0  0  0  0  0  0  0  0  0  0  0  0
   -9.2790   -7.5800  -26.9930 C   0  0  0  0  0  0  0  0  0  0  0  0
   -8.1900   -7.3140  -26.1920 C   0  0  0  0  0  0  0  0  0  0  0  0
   -8.1670   -6.3140  -25.3010 N   0  0  0  0  0  0  0  0  0  0  0  0
   -7.2780   -7.8970  -26.2940 H   0  0  0  0  0  0  0  0  0  0  0  0
   -9.2650   -8.3850  -27.7260 H   0  0  0  0  0  0  0  0  0  0  0  0
  -11.2770   -5.2350  -25.9860 H   0  0  0  0  0  0  0  0  0  0  0  0
  -10.0560   -3.8660  -24.4150 H   0  0  0  0  0  0  0  0  0  0  0  0
   -7.3310   -3.8150  -24.3760 H   0  0  0  0  0  0  0  0  0  0  0  0
   -7.7160   -4.9670  -23.0890 H   0  0  0  0  0  0  0  0  0  0  0  0
   -9.3330   -3.2610  -22.1190 H   0  0  0  0  0  0  0  0  0  0  0  0
   -7.4110   -3.4610  -20.7860 H   0  0  0  0  0  0  0  0  0  0  0  0
   -6.3110   -3.0050  -22.0840 H   0  0  0  0  0  0  0  0  0  0  0  0
  -10.1500   -1.2870  -23.6050 C   0  0  0  0  0  0  0  0  0  0  0  0
  -11.0950   -1.0860  -22.5900 C   0  0  0  0  0  0  0  0  0  0  0  0
  -12.4340   -0.9210  -22.9060 C   0  0  0  0  0  0  0  0  0  0  0  0
  -13.6050   -0.7400  -21.6430 Cl  0  0  0  0  0  0  0  0  0  0  0  0
  -12.8860   -0.9230  -24.2240 C   0  0  0  0  0  0  0  0  0  0  0  0
  -11.9580   -1.1290  -25.2260 C   0  0  0  0  0  0  0  0  0  0  0  0
  -10.6080   -1.2920  -24.9270 C   0  0  0  0  0  0  0  0  0  0  0  0
   -9.6760   -1.4820  -26.0710 C   0  0  0  0  0  0  0  0  0  0  0  0
  -10.0840   -1.5790  -27.2300 O   0  0  0  0  0  0  0  0  0  0  0  0
  -12.2540   -1.1710  -26.2660 H   0  0  0  0  0  0  0  0  0  0  0  0
  -13.9370   -0.7600  -24.4510 H   0  0  0  0  0  0  0  0  0  0  0  0
  -10.7720   -1.0380  -21.5570 H   0  0  0  0  0  0  0  0  0  0  0  0
   -6.8160   -1.5800  -24.3690 H   0  0  0  0  0  0  0  0  0  0  0  0
   -7.6980   -0.0440  -24.4580 H   0  0  0  0  0  0  0  0  0  0  0  0
   -6.4620   -1.2960  -26.5810 H   0  0  0  0  0  0  0  0  0  0  0  0
   -7.7970   -0.9810  -27.7040 H   0  0  0  0  0  0  0  0  0  0  0  0
   -8.8560   -2.7240  -28.6950 H   0  0  0  0  0  0  0  0  0  0  0  0
   -9.1230   -4.8820  -29.4960 H   0  0  0  0  0  0  0  0  0  0  0  0
   -8.3150   -5.3770  -27.9880 H   0  0  0  0  0  0  0  0  0  0  0  0
   -7.3550   -5.0890  -29.4450 H   0  0  0  0  0  0  0  0  0  0  0  0
  1  2  1  0  0  0  0
  1 64  1  0  0  0  0
  1 65  1  0  0  0  0
  1 66  1  0  0  0  0
  2  3  1  0  0  0  0
  2 63  1  0  0  0  0
  3  4  2  0  0  0  0
  3  5  1  0  0  0  0
  5  6  1  0  0  0  0
  5 61  1  0  0  0  0
  5 62  1  0  0  0  0
  6  7  1  0  0  0  0
  6 54  1  0  0  0  0
  7  8  1  0  0  0  0
  7 59  1  0  0  0  0
  7 60  1  0  0  0  0
  8  9  1  1  0  0  0
  8 29  1  0  0  0  0
  8 47  1  0  0  0  0
  9 10  2  0  0  0  0
  9 11  1  0  0  0  0
 11 12  1  0  0  0  0
 11 28  1  0  0  0  0
 12 13  2  0  0  0  0
 12 21  1  0  0  0  0
 13 14  1  0  0  0  0
 13 27  1  0  0  0  0
 14 15  2  0  0  0  0
 15 16  1  0  0  0  0
 15 26  1  0  0  0  0
 16 17  2  0  0  0  0
 16 21  1  0  0  0  0
 17 18  1  0  0  0  0
 17 25  1  0  0  0  0
 18 19  2  0  0  0  0
 18 24  1  0  0  0  0
 19 20  1  0  0  0  0
 19 23  1  0  0  0  0
 20 21  2  0  0  0  0
 20 22  1  0  0  0  0
 28 29  1  0  0  0  0
 28 45  1  0  0  0  0
 28 46  1  0  0  0  0
 29 30  1  0  0  0  0
 29 44  1  1  0  0  0
 30 31  1  0  0  0  0
 30 42  1  0  0  0  0
 30 43  1  0  0  0  0
 31 32  1  0  0  0  0
 31 41  1  0  0  0  0
 32 33  2  0  0  0  0
 32 37  1  0  0  0  0
 33 34  1  0  0  0  0
 33 40  1  0  0  0  0
 34 35  2  0  0  0  0
 35 36  1  0  0  0  0
 35 39  1  0  0  0  0
 36 37  2  0  0  0  0
 36 38  1  0  0  0  0
 47 48  2  0  0  0  0
 47 53  1  0  0  0  0
 48 49  1  0  0  0  0
 48 58  1  0  0  0  0
 49 50  1  0  0  0  0
 49 51  2  0  0  0  0
 51 52  1  0  0  0  0
 51 57  1  0  0  0  0
 52 53  2  0  0  0  0
 52 56  1  0  0  0  0
 53 54  1  0  0  0  0
 54 55  2  0  0  0  0
M  END
>  <MODEL>
       1

$$$$
