tmp_first_model_10_83.pdb
 OpenBabel08272522163D

 46 50  0  0  1  0  0  0  0  0999 V2000
   -9.9870    2.8220  -24.9740 N   0  0  0  0  0  0  0  0  0  0  0  0
   -9.3770    1.7010  -26.0450 S   0  0  0  0  0  0  0  0  0  0  0  0
  -10.0160    1.9700  -27.3210 O   0  0  0  0  0  0  0  0  0  0  0  0
   -7.9380    1.7240  -25.8610 O   0  0  0  0  0  0  0  0  0  0  0  0
   -9.9800    0.1360  -25.4460 C   0  0  0  0  0  0  0  0  0  0  0  0
  -11.1390   -0.4410  -25.9650 C   0  0  0  0  0  0  0  0  0  0  0  0
  -11.7110   -1.5150  -25.2990 C   0  0  0  0  0  0  0  0  0  0  0  0
  -11.1320   -2.0120  -24.1320 C   0  0  0  0  0  0  0  0  0  0  0  0
   -9.9010   -1.5080  -23.6840 C   0  0  0  0  0  0  0  0  0  0  0  0
   -9.3360   -0.4210  -24.3490 C   0  0  0  0  0  0  0  0  0  0  0  0
   -8.3990    0.0090  -24.0030 H   0  0  0  0  0  0  0  0  0  0  0  0
   -9.2020   -2.1150  -22.4840 C   0  0  1  0  0  0  0  0  0  0  0  0
  -10.2140   -2.9620  -21.7010 C   0  0  0  0  0  0  0  0  0  0  0  0
  -11.0420   -3.8060  -22.6350 C   0  0  0  0  0  0  0  0  0  0  0  0
  -11.8270   -2.9800  -23.4730 O   0  0  0  0  0  0  0  0  0  0  0  0
  -10.4100   -4.4620  -23.2560 H   0  0  0  0  0  0  0  0  0  0  0  0
  -11.7640   -4.3940  -22.0720 H   0  0  0  0  0  0  0  0  0  0  0  0
  -10.8780   -2.2590  -21.1870 H   0  0  0  0  0  0  0  0  0  0  0  0
   -9.6920   -3.5710  -20.9610 H   0  0  0  0  0  0  0  0  0  0  0  0
   -7.9740   -2.8290  -22.8130 N   0  0  0  0  0  0  0  0  0  0  0  0
   -6.9030   -2.4950  -22.0260 C   0  0  0  0  0  0  0  0  0  0  0  0
   -5.8070   -2.9900  -21.9830 O   0  0  0  0  0  0  0  0  0  0  0  0
   -7.3410   -1.4000  -21.2460 N   0  0  0  0  0  0  0  0  0  0  0  0
   -6.5880   -0.8110  -20.1920 C   0  0  0  0  0  0  0  0  0  0  0  0
   -6.9010   -1.0860  -18.8880 C   0  0  0  0  0  0  0  0  0  0  0  0
   -6.2120   -0.6090  -17.8190 N   0  0  0  0  0  0  0  0  0  0  0  0
   -5.1900    0.1800  -18.0560 C   0  0  0  0  0  0  0  0  0  0  0  0
   -4.7810    0.5790  -19.3630 C   0  0  0  0  0  0  0  0  0  0  0  0
   -3.7090    1.4890  -19.5800 C   0  0  0  0  0  0  0  0  0  0  0  0
   -3.4640    1.9740  -20.8350 C   0  0  0  0  0  0  0  0  0  0  0  0
   -4.2480    1.5520  -21.9330 C   0  0  0  0  0  0  0  0  0  0  0  0
   -5.2380    0.6190  -21.7580 C   0  0  0  0  0  0  0  0  0  0  0  0
   -5.5250    0.1040  -20.4660 C   0  0  0  0  0  0  0  0  0  0  0  0
   -5.8310    0.2830  -22.6010 H   0  0  0  0  0  0  0  0  0  0  0  0
   -4.0610    1.9590  -22.9230 H   0  0  0  0  0  0  0  0  0  0  0  0
   -2.6770    2.7070  -20.9970 H   0  0  0  0  0  0  0  0  0  0  0  0
   -3.1220    1.8170  -18.7240 H   0  0  0  0  0  0  0  0  0  0  0  0
   -4.6440    0.5680  -17.1930 H   0  0  0  0  0  0  0  0  0  0  0  0
   -7.7520   -1.7260  -18.6650 H   0  0  0  0  0  0  0  0  0  0  0  0
   -8.6660   -1.0720  -21.5040 C   0  0  0  0  0  0  0  0  0  0  0  0
   -9.2700   -0.1560  -21.0050 O   0  0  0  0  0  0  0  0  0  0  0  0
   -7.9200   -3.6120  -23.4460 H   0  0  0  0  0  0  0  0  0  0  0  0
  -12.6190   -1.9890  -25.6520 H   0  0  0  0  0  0  0  0  0  0  0  0
  -11.5850   -0.0370  -26.8710 H   0  0  0  0  0  0  0  0  0  0  0  0
  -11.0030    2.8520  -24.9790 H   0  0  0  0  0  0  0  0  0  0  0  0
   -9.6010    2.6870  -24.0430 H   0  0  0  0  0  0  0  0  0  0  0  0
  1  2  1  0  0  0  0
  1 45  1  0  0  0  0
  1 46  1  0  0  0  0
  2  3  2  0  0  0  0
  2  4  2  0  0  0  0
  2  5  1  0  0  0  0
  5  6  2  0  0  0  0
  5 10  1  0  0  0  0
  6  7  1  0  0  0  0
  6 44  1  0  0  0  0
  7  8  2  0  0  0  0
  7 43  1  0  0  0  0
  8  9  1  0  0  0  0
  8 15  1  0  0  0  0
  9 10  2  0  0  0  0
 10 11  1  0  0  0  0
 12  9  1  6  0  0  0
 12 13  1  0  0  0  0
 12 20  1  0  0  0  0
 12 40  1  0  0  0  0
 13 14  1  0  0  0  0
 13 18  1  0  0  0  0
 13 19  1  0  0  0  0
 14 15  1  0  0  0  0
 14 16  1  0  0  0  0
 14 17  1  0  0  0  0
 20 21  1  0  0  0  0
 20 42  1  0  0  0  0
 21 22  2  0  0  0  0
 21 23  1  0  0  0  0
 23 24  1  0  0  0  0
 23 40  1  0  0  0  0
 24 25  2  0  0  0  0
 24 33  1  0  0  0  0
 25 26  1  0  0  0  0
 25 39  1  0  0  0  0
 26 27  2  0  0  0  0
 27 28  1  0  0  0  0
 27 38  1  0  0  0  0
 28 29  2  0  0  0  0
 28 33  1  0  0  0  0
 29 30  1  0  0  0  0
 29 37  1  0  0  0  0
 30 31  2  0  0  0  0
 30 36  1  0  0  0  0
 31 32  1  0  0  0  0
 31 35  1  0  0  0  0
 32 33  2  0  0  0  0
 32 34  1  0  0  0  0
 40 41  2  0  0  0  0
M  END
>  <MODEL>
       1

$$$$
