tmp_first_model_6_72.pdb
 OpenBabel08272519583D

 41 44  0  0  0  0  0  0  0  0999 V2000
   -8.6830    0.7160  -21.2780 O   0  0  0  0  0  0  0  0  0  0  0  0
   -8.6460   -0.4290  -21.7030 C   0  0  0  0  0  0  0  0  0  0  0  0
   -7.5190   -1.3820  -21.2870 C   0  0  0  0  0  0  0  0  0  0  0  0
   -6.6580   -0.8080  -20.1960 C   0  0  0  0  0  0  0  0  0  0  0  0
   -6.9440   -1.0760  -18.8870 C   0  0  0  0  0  0  0  0  0  0  0  0
   -6.2640   -0.6000  -17.8100 N   0  0  0  0  0  0  0  0  0  0  0  0
   -5.2430    0.1860  -18.0590 C   0  0  0  0  0  0  0  0  0  0  0  0
   -4.8230    0.5550  -19.3650 C   0  0  0  0  0  0  0  0  0  0  0  0
   -3.6890    1.3770  -19.5820 C   0  0  0  0  0  0  0  0  0  0  0  0
   -3.3210    1.7290  -20.8530 C   0  0  0  0  0  0  0  0  0  0  0  0
   -4.0830    1.2850  -21.9550 C   0  0  0  0  0  0  0  0  0  0  0  0
   -5.1770    0.4790  -21.7730 C   0  0  0  0  0  0  0  0  0  0  0  0
   -5.5690    0.0740  -20.4700 C   0  0  0  0  0  0  0  0  0  0  0  0
   -5.7400    0.1350  -22.6350 H   0  0  0  0  0  0  0  0  0  0  0  0
   -3.7790    1.5710  -22.9590 H   0  0  0  0  0  0  0  0  0  0  0  0
   -2.4500    2.3530  -21.0160 H   0  0  0  0  0  0  0  0  0  0  0  0
   -3.1220    1.7190  -18.7190 H   0  0  0  0  0  0  0  0  0  0  0  0
   -4.6890    0.5630  -17.1990 H   0  0  0  0  0  0  0  0  0  0  0  0
   -7.7810   -1.7320  -18.6450 H   0  0  0  0  0  0  0  0  0  0  0  0
   -7.9690   -2.3230  -20.9380 H   0  0  0  0  0  0  0  0  0  0  0  0
   -6.9090   -1.6300  -22.1640 H   0  0  0  0  0  0  0  0  0  0  0  0
   -9.6140   -0.9310  -22.5380 N   0  0  0  0  0  0  0  0  0  0  0  0
   -9.5730   -2.2410  -23.2000 C   0  0  0  0  0  0  0  0  0  0  0  0
  -10.3120   -3.3370  -22.4160 C   0  0  0  0  0  0  0  0  0  0  0  0
  -11.5430   -2.7600  -21.6910 C   0  0  0  0  0  0  0  0  0  0  0  0
  -12.4300   -1.8260  -22.4910 C   0  0  0  0  0  0  0  0  0  0  0  0
  -14.1400   -2.0880  -22.6650 S   0  0  0  0  0  0  0  0  0  0  0  0
  -14.3540   -0.5660  -23.4420 C   0  0  0  0  0  0  0  0  0  0  0  0
  -13.1810    0.1090  -23.5590 C   0  0  0  0  0  0  0  0  0  0  0  0
  -12.0620   -0.6110  -23.0070 C   0  0  0  0  0  0  0  0  0  0  0  0
  -10.6730   -0.0060  -22.9320 C   0  0  0  0  0  0  0  0  0  0  0  0
  -10.4060    0.4600  -23.8960 H   0  0  0  0  0  0  0  0  0  0  0  0
  -10.6810    0.8140  -22.2030 H   0  0  0  0  0  0  0  0  0  0  0  0
  -13.1410    1.0970  -24.0140 H   0  0  0  0  0  0  0  0  0  0  0  0
  -15.3390   -0.1960  -23.6930 H   0  0  0  0  0  0  0  0  0  0  0  0
  -12.1390   -3.5410  -21.2100 H   0  0  0  0  0  0  0  0  0  0  0  0
  -11.1240   -2.1310  -20.8960 H   0  0  0  0  0  0  0  0  0  0  0  0
   -9.6560   -3.7890  -21.6610 H   0  0  0  0  0  0  0  0  0  0  0  0
  -10.5700   -4.1550  -23.1010 H   0  0  0  0  0  0  0  0  0  0  0  0
  -10.1030   -2.1310  -24.1530 H   0  0  0  0  0  0  0  0  0  0  0  0
   -8.5390   -2.5450  -23.4190 H   0  0  0  0  0  0  0  0  0  0  0  0
  1  2  2  0  0  0  0
  2  3  1  0  0  0  0
  2 22  1  0  0  0  0
  3  4  1  0  0  0  0
  3 20  1  0  0  0  0
  3 21  1  0  0  0  0
  4  5  2  0  0  0  0
  4 13  1  0  0  0  0
  5  6  1  0  0  0  0
  5 19  1  0  0  0  0
  6  7  2  0  0  0  0
  7  8  1  0  0  0  0
  7 18  1  0  0  0  0
  8  9  2  0  0  0  0
  8 13  1  0  0  0  0
  9 10  1  0  0  0  0
  9 17  1  0  0  0  0
 10 11  2  0  0  0  0
 10 16  1  0  0  0  0
 11 12  1  0  0  0  0
 11 15  1  0  0  0  0
 12 13  2  0  0  0  0
 12 14  1  0  0  0  0
 22 23  1  0  0  0  0
 22 31  1  0  0  0  0
 23 24  1  0  0  0  0
 23 40  1  0  0  0  0
 23 41  1  0  0  0  0
 24 25  1  0  0  0  0
 24 38  1  0  0  0  0
 24 39  1  0  0  0  0
 25 26  1  0  0  0  0
 25 36  1  0  0  0  0
 25 37  1  0  0  0  0
 26 27  1  0  0  0  0
 26 30  2  0  0  0  0
 27 28  1  0  0  0  0
 28 29  2  0  0  0  0
 28 35  1  0  0  0  0
 29 30  1  0  0  0  0
 29 34  1  0  0  0  0
 30 31  1  0  0  0  0
 31 32  1  0  0  0  0
 31 33  1  0  0  0  0
M  END
>  <MODEL>
       1

$$$$
