tmp_first_model_10_69.pdb
 OpenBabel08272522163D

 63 67  0  0  0  0  0  0  0  0999 V2000
  -15.2520   -5.0380  -25.1960 C   0  0  0  0  0  0  0  0  0  0  0  0
  -14.5020   -4.3380  -24.3510 C   0  0  0  0  0  0  0  0  0  0  0  0
  -13.5240   -3.3420  -24.8520 C   0  0  0  0  0  0  0  0  0  0  0  0
  -13.5040   -2.9530  -26.0050 O   0  0  0  0  0  0  0  0  0  0  0  0
  -12.5750   -2.9600  -23.9060 N   0  0  0  0  0  0  0  0  0  0  0  0
  -12.9930   -2.6850  -22.5350 C   0  0  0  0  0  0  0  0  0  0  0  0
  -12.8120   -1.2010  -22.3320 C   0  0  0  0  0  0  0  0  0  0  0  0
  -11.3240   -0.9330  -22.3260 C   0  0  0  0  0  0  0  0  0  0  0  0
  -10.6280   -1.5460  -23.5170 C   0  0  0  0  0  0  0  0  0  0  0  0
  -11.3140   -2.4710  -24.3210 C   0  0  0  0  0  0  0  0  0  0  0  0
  -10.7320   -2.9270  -25.5100 C   0  0  0  0  0  0  0  0  0  0  0  0
   -9.4240   -2.6120  -25.8230 C   0  0  0  0  0  0  0  0  0  0  0  0
   -8.6940   -1.7690  -24.9910 C   0  0  0  0  0  0  0  0  0  0  0  0
   -9.3210   -1.2210  -23.8780 C   0  0  0  0  0  0  0  0  0  0  0  0
   -8.5460   -0.1200  -23.1390 N   0  3  0  0  0  0  0  0  0  0  0  0
   -8.9590    1.3210  -23.5610 C   0  0  0  0  0  0  0  0  0  0  0  0
   -7.8280    2.2830  -23.2830 C   0  0  0  0  0  0  0  0  0  0  0  0
   -7.7810    2.9360  -22.0550 C   0  0  0  0  0  0  0  0  0  0  0  0
   -6.8490    3.9340  -21.8150 C   0  0  0  0  0  0  0  0  0  0  0  0
   -5.8890    4.2350  -22.7760 C   0  0  0  0  0  0  0  0  0  0  0  0
   -5.8500    3.4810  -23.9420 C   0  0  0  0  0  0  0  0  0  0  0  0
   -4.4920    3.6640  -25.0240 Cl  0  0  0  0  0  0  0  0  0  0  0  0
   -6.8220    2.5280  -24.2160 C   0  0  0  0  0  0  0  0  0  0  0  0
   -6.8030    1.9850  -25.1500 H   0  0  0  0  0  0  0  0  0  0  0  0
   -5.1690    5.0280  -22.6250 H   0  0  0  0  0  0  0  0  0  0  0  0
   -6.8690    4.4760  -20.8730 H   0  0  0  0  0  0  0  0  0  0  0  0
   -8.4760    2.6080  -21.2930 H   0  0  0  0  0  0  0  0  0  0  0  0
   -9.2460    1.2760  -24.6120 H   0  0  0  0  0  0  0  0  0  0  0  0
   -9.8420    1.5860  -22.9770 H   0  0  0  0  0  0  0  0  0  0  0  0
   -8.4660   -0.2700  -21.6780 C   0  0  0  0  0  0  0  0  0  0  0  0
   -9.1780    0.3640  -20.9400 O   0  0  0  0  0  0  0  0  0  0  0  0
   -7.4870   -1.3320  -21.2000 C   0  0  0  0  0  0  0  0  0  0  0  0
   -6.6060   -0.7880  -20.1090 C   0  0  0  0  0  0  0  0  0  0  0  0
   -6.8600   -1.0810  -18.7960 C   0  0  0  0  0  0  0  0  0  0  0  0
   -6.1540   -0.6030  -17.7380 N   0  0  0  0  0  0  0  0  0  0  0  0
   -5.1610    0.2070  -18.0110 C   0  0  0  0  0  0  0  0  0  0  0  0
   -4.7840    0.6030  -19.3260 C   0  0  0  0  0  0  0  0  0  0  0  0
   -3.7120    1.4990  -19.5650 C   0  0  0  0  0  0  0  0  0  0  0  0
   -3.4550    1.9590  -20.8250 C   0  0  0  0  0  0  0  0  0  0  0  0
   -4.2200    1.4890  -21.9150 C   0  0  0  0  0  0  0  0  0  0  0  0
   -5.2500    0.6020  -21.7180 C   0  0  0  0  0  0  0  0  0  0  0  0
   -5.5510    0.1230  -20.4140 C   0  0  0  0  0  0  0  0  0  0  0  0
   -5.8620    0.3160  -22.5680 H   0  0  0  0  0  0  0  0  0  0  0  0
   -3.9970    1.8360  -22.9200 H   0  0  0  0  0  0  0  0  0  0  0  0
   -2.6770    2.6980  -20.9990 H   0  0  0  0  0  0  0  0  0  0  0  0
   -3.1310    1.8480  -18.7150 H   0  0  0  0  0  0  0  0  0  0  0  0
   -4.5920    0.5990  -17.1680 H   0  0  0  0  0  0  0  0  0  0  0  0
   -7.6680   -1.7670  -18.5390 H   0  0  0  0  0  0  0  0  0  0  0  0
   -6.8980   -1.7040  -22.0430 H   0  0  0  0  0  0  0  0  0  0  0  0
   -8.0950   -2.1690  -20.8320 H   0  0  0  0  0  0  0  0  0  0  0  0
   -7.5790   -0.2480  -23.4980 H   0  0  0  0  0  0  0  0  0  0  0  0
   -7.6600   -1.5340  -25.2300 H   0  0  0  0  0  0  0  0  0  0  0  0
   -8.9820   -3.0120  -26.7350 H   0  0  0  0  0  0  0  0  0  0  0  0
  -11.3230   -3.5060  -26.2000 H   0  0  0  0  0  0  0  0  0  0  0  0
  -11.1380    0.1370  -22.2740 H   0  0  0  0  0  0  0  0  0  0  0  0
  -10.8930   -1.3540  -21.4140 H   0  0  0  0  0  0  0  0  0  0  0  0
  -13.2780   -0.6980  -23.1810 H   0  0  0  0  0  0  0  0  0  0  0  0
  -13.3080   -0.8350  -21.4330 H   0  0  0  0  0  0  0  0  0  0  0  0
  -12.3850   -3.2650  -21.8330 H   0  0  0  0  0  0  0  0  0  0  0  0
  -14.0310   -2.9810  -22.3990 H   0  0  0  0  0  0  0  0  0  0  0  0
  -14.4600   -4.5810  -23.2950 H   0  0  0  0  0  0  0  0  0  0  0  0
  -15.7730   -5.9290  -24.8720 H   0  0  0  0  0  0  0  0  0  0  0  0
  -15.3040   -4.7850  -26.2490 H   0  0  0  0  0  0  0  0  0  0  0  0
  1  2  2  0  0  0  0
  1 62  1  0  0  0  0
  1 63  1  0  0  0  0
  2  3  1  0  0  0  0
  2 61  1  0  0  0  0
  3  4  2  0  0  0  0
  3  5  1  0  0  0  0
  5  6  1  0  0  0  0
  5 10  1  0  0  0  0
  6  7  1  0  0  0  0
  6 59  1  0  0  0  0
  6 60  1  0  0  0  0
  7  8  1  0  0  0  0
  7 57  1  0  0  0  0
  7 58  1  0  0  0  0
  8  9  1  0  0  0  0
  8 55  1  0  0  0  0
  8 56  1  0  0  0  0
  9 10  2  0  0  0  0
  9 14  1  0  0  0  0
 10 11  1  0  0  0  0
 11 12  2  0  0  0  0
 11 54  1  0  0  0  0
 12 13  1  0  0  0  0
 12 53  1  0  0  0  0
 13 14  2  0  0  0  0
 13 52  1  0  0  0  0
 14 15  1  0  0  0  0
 15 16  1  0  0  0  0
 15 30  1  0  0  0  0
 15 51  1  0  0  0  0
 16 17  1  0  0  0  0
 16 28  1  0  0  0  0
 16 29  1  0  0  0  0
 17 18  2  0  0  0  0
 17 23  1  0  0  0  0
 18 19  1  0  0  0  0
 18 27  1  0  0  0  0
 19 20  2  0  0  0  0
 19 26  1  0  0  0  0
 20 21  1  0  0  0  0
 20 25  1  0  0  0  0
 21 22  1  0  0  0  0
 21 23  2  0  0  0  0
 23 24  1  0  0  0  0
 30 31  2  0  0  0  0
 30 32  1  0  0  0  0
 32 33  1  0  0  0  0
 32 49  1  0  0  0  0
 32 50  1  0  0  0  0
 33 34  2  0  0  0  0
 33 42  1  0  0  0  0
 34 35  1  0  0  0  0
 34 48  1  0  0  0  0
 35 36  2  0  0  0  0
 36 37  1  0  0  0  0
 36 47  1  0  0  0  0
 37 38  2  0  0  0  0
 37 42  1  0  0  0  0
 38 39  1  0  0  0  0
 38 46  1  0  0  0  0
 39 40  2  0  0  0  0
 39 45  1  0  0  0  0
 40 41  1  0  0  0  0
 40 44  1  0  0  0  0
 41 42  2  0  0  0  0
 41 43  1  0  0  0  0
M  CHG  1  15   1
M  END
>  <MODEL>
       1

$$$$
