tmp_first_model_8_55.pdb
 OpenBabel08272521063D

 61 66  0  0  1  0  0  0  0  0999 V2000
   -7.0090   -5.4610  -25.0450 C   0  0  0  0  0  0  0  0  0  0  0  0
   -7.3350   -4.7940  -23.8510 O   0  0  0  0  0  0  0  0  0  0  0  0
   -7.9910   -3.5730  -24.0840 C   0  0  0  0  0  0  0  0  0  0  0  0
   -8.2970   -2.9160  -22.7400 C   0  0  1  0  0  0  0  0  0  0  0  0
   -7.0160   -2.5530  -21.9640 C   0  0  0  0  0  0  0  0  0  0  0  0
   -7.3980   -1.3750  -21.2090 N   0  0  0  0  0  0  0  0  0  0  0  0
   -6.6110   -0.8070  -20.1790 C   0  0  0  0  0  0  0  0  0  0  0  0
   -6.9220   -1.0520  -18.8670 C   0  0  0  0  0  0  0  0  0  0  0  0
   -6.2170   -0.5710  -17.8150 N   0  0  0  0  0  0  0  0  0  0  0  0
   -5.1900    0.2020  -18.0800 C   0  0  0  0  0  0  0  0  0  0  0  0
   -4.7660    0.5440  -19.3950 C   0  0  0  0  0  0  0  0  0  0  0  0
   -3.6470    1.3860  -19.6310 C   0  0  0  0  0  0  0  0  0  0  0  0
   -3.2730    1.7000  -20.9080 C   0  0  0  0  0  0  0  0  0  0  0  0
   -3.9900    1.1810  -22.0070 C   0  0  0  0  0  0  0  0  0  0  0  0
   -5.0500    0.3280  -21.8050 C   0  0  0  0  0  0  0  0  0  0  0  0
   -5.4820    0.0080  -20.4890 C   0  0  0  0  0  0  0  0  0  0  0  0
   -5.5980   -0.0530  -22.6610 H   0  0  0  0  0  0  0  0  0  0  0  0
   -3.6800    1.4500  -23.0150 H   0  0  0  0  0  0  0  0  0  0  0  0
   -2.4120    2.3360  -21.0890 H   0  0  0  0  0  0  0  0  0  0  0  0
   -3.0990    1.7670  -18.7750 H   0  0  0  0  0  0  0  0  0  0  0  0
   -4.6240    0.5940  -17.2330 H   0  0  0  0  0  0  0  0  0  0  0  0
   -7.7840   -1.6710  -18.6230 H   0  0  0  0  0  0  0  0  0  0  0  0
   -8.6000   -0.8190  -21.5770 C   0  0  0  0  0  0  0  0  0  0  0  0
   -9.1180    0.1350  -21.0310 O   0  0  0  0  0  0  0  0  0  0  0  0
   -9.1390   -1.6090  -22.7910 C   0  0  1  0  0  0  0  0  0  0  0  0
   -8.8630   -0.8300  -24.0980 C   0  0  0  0  0  0  0  0  0  0  0  0
   -9.6720    0.3640  -24.2070 N   0  0  0  0  0  0  0  0  0  0  0  0
   -9.0400    1.5900  -24.6590 C   0  0  0  0  0  0  0  0  0  0  0  0
   -8.2260    2.2710  -23.5930 C   0  0  0  0  0  0  0  0  0  0  0  0
   -6.8860    2.3760  -23.4260 C   0  0  0  0  0  0  0  0  0  0  0  0
   -6.6640    3.1180  -22.2910 N   0  3  0  0  0  0  0  0  0  0  0  0
   -7.8330    3.4810  -21.7610 C   0  0  0  0  0  0  0  0  0  0  0  0
   -8.8030    2.9710  -22.5410 N   0  0  0  0  0  0  0  0  0  0  0  0
   -9.7760    2.9270  -22.2570 H   0  0  0  0  0  0  0  0  0  0  0  0
   -7.9660    4.1330  -20.9060 H   0  0  0  0  0  0  0  0  0  0  0  0
   -5.7510    3.1660  -21.8590 H   0  0  0  0  0  0  0  0  0  0  0  0
   -6.0450    1.9790  -23.9800 H   0  0  0  0  0  0  0  0  0  0  0  0
   -9.8520    2.2300  -25.0210 H   0  0  0  0  0  0  0  0  0  0  0  0
   -8.4040    1.3470  -25.5160 H   0  0  0  0  0  0  0  0  0  0  0  0
  -11.0150    0.3440  -23.9870 C   0  0  0  0  0  0  0  0  0  0  0  0
  -11.7550    1.2630  -24.3150 O   0  0  0  0  0  0  0  0  0  0  0  0
  -11.5200   -0.8720  -23.2810 C   0  0  0  0  0  0  0  0  0  0  0  0
  -12.9000   -0.9990  -23.1560 C   0  0  0  0  0  0  0  0  0  0  0  0
  -13.4370   -1.9550  -22.3230 C   0  0  0  0  0  0  0  0  0  0  0  0
  -12.5560   -2.7630  -21.6060 C   0  0  0  0  0  0  0  0  0  0  0  0
  -13.2210   -3.7930  -20.3820 Cl  0  0  0  0  0  0  0  0  0  0  0  0
  -11.1860   -2.7200  -21.7990 C   0  0  0  0  0  0  0  0  0  0  0  0
  -10.6400   -1.7740  -22.6690 C   0  0  0  0  0  0  0  0  0  0  0  0
  -10.5490   -3.4100  -21.2560 H   0  0  0  0  0  0  0  0  0  0  0  0
  -14.5080   -2.0620  -22.1840 H   0  0  0  0  0  0  0  0  0  0  0  0
  -13.5220   -0.2940  -23.6940 H   0  0  0  0  0  0  0  0  0  0  0  0
   -9.0720   -1.4920  -24.9470 H   0  0  0  0  0  0  0  0  0  0  0  0
   -7.8130   -0.5290  -24.1440 H   0  0  0  0  0  0  0  0  0  0  0  0
   -6.1750   -2.3430  -22.6410 H   0  0  0  0  0  0  0  0  0  0  0  0
   -6.7010   -3.3530  -21.2890 H   0  0  0  0  0  0  0  0  0  0  0  0
   -8.8470   -3.6530  -22.1540 H   0  0  0  0  0  0  0  0  0  0  0  0
   -8.9220   -3.7400  -24.6540 H   0  0  0  0  0  0  0  0  0  0  0  0
   -7.3490   -2.9090  -24.6910 H   0  0  0  0  0  0  0  0  0  0  0  0
   -6.5440   -6.4120  -24.7760 H   0  0  0  0  0  0  0  0  0  0  0  0
   -7.9000   -5.6700  -25.6600 H   0  0  0  0  0  0  0  0  0  0  0  0
   -6.2970   -4.8840  -25.6580 H   0  0  0  0  0  0  0  0  0  0  0  0
  1  2  1  0  0  0  0
  1 59  1  0  0  0  0
  1 60  1  0  0  0  0
  1 61  1  0  0  0  0
  2  3  1  0  0  0  0
  3  4  1  0  0  0  0
  3 57  1  0  0  0  0
  3 58  1  0  0  0  0
  4  5  1  0  0  0  0
  4 25  1  0  0  0  0
  4 56  1  1  0  0  0
  5  6  1  0  0  0  0
  5 54  1  0  0  0  0
  5 55  1  0  0  0  0
  6  7  1  0  0  0  0
  6 23  1  0  0  0  0
  7  8  2  0  0  0  0
  7 16  1  0  0  0  0
  8  9  1  0  0  0  0
  8 22  1  0  0  0  0
  9 10  2  0  0  0  0
 10 11  1  0  0  0  0
 10 21  1  0  0  0  0
 11 12  2  0  0  0  0
 11 16  1  0  0  0  0
 12 13  1  0  0  0  0
 12 20  1  0  0  0  0
 13 14  2  0  0  0  0
 13 19  1  0  0  0  0
 14 15  1  0  0  0  0
 14 18  1  0  0  0  0
 15 16  2  0  0  0  0
 15 17  1  0  0  0  0
 23 24  2  0  0  0  0
 25 23  1  1  0  0  0
 25 26  1  0  0  0  0
 25 48  1  0  0  0  0
 26 27  1  0  0  0  0
 26 52  1  0  0  0  0
 26 53  1  0  0  0  0
 27 28  1  0  0  0  0
 27 40  1  0  0  0  0
 28 29  1  0  0  0  0
 28 38  1  0  0  0  0
 28 39  1  0  0  0  0
 29 30  2  0  0  0  0
 29 33  1  0  0  0  0
 30 31  1  0  0  0  0
 30 37  1  0  0  0  0
 31 32  2  0  0  0  0
 31 36  1  0  0  0  0
 32 33  1  0  0  0  0
 32 35  1  0  0  0  0
 33 34  1  0  0  0  0
 40 41  2  0  0  0  0
 40 42  1  0  0  0  0
 42 43  2  0  0  0  0
 42 48  1  0  0  0  0
 43 44  1  0  0  0  0
 43 51  1  0  0  0  0
 44 45  2  0  0  0  0
 44 50  1  0  0  0  0
 45 46  1  0  0  0  0
 45 47  1  0  0  0  0
 47 48  2  0  0  0  0
 47 49  1  0  0  0  0
M  CHG  1  31   1
M  END
>  <MODEL>
       1

$$$$
