tmp_first_model_10_61.pdb
 OpenBabel08272522163D

 44 47  0  0  0  0  0  0  0  0999 V2000
   -8.4460    0.7720  -21.5310 O   0  0  0  0  0  0  0  0  0  0  0  0
   -8.5480   -0.4270  -21.7540 C   0  0  0  0  0  0  0  0  0  0  0  0
   -7.4850   -1.4070  -21.2540 C   0  0  0  0  0  0  0  0  0  0  0  0
   -6.6370   -0.8040  -20.1680 C   0  0  0  0  0  0  0  0  0  0  0  0
   -6.9130   -1.0650  -18.8490 C   0  0  0  0  0  0  0  0  0  0  0  0
   -6.2130   -0.5900  -17.7840 N   0  0  0  0  0  0  0  0  0  0  0  0
   -5.2080    0.2110  -18.0490 C   0  0  0  0  0  0  0  0  0  0  0  0
   -4.8180    0.5870  -19.3650 C   0  0  0  0  0  0  0  0  0  0  0  0
   -3.6880    1.4120  -19.6060 C   0  0  0  0  0  0  0  0  0  0  0  0
   -3.3980    1.8470  -20.8710 C   0  0  0  0  0  0  0  0  0  0  0  0
   -4.2030    1.4340  -21.9610 C   0  0  0  0  0  0  0  0  0  0  0  0
   -5.2090    0.5160  -21.7710 C   0  0  0  0  0  0  0  0  0  0  0  0
   -5.5590    0.0840  -20.4610 C   0  0  0  0  0  0  0  0  0  0  0  0
   -5.7700    0.1430  -22.6230 H   0  0  0  0  0  0  0  0  0  0  0  0
   -4.0170    1.8450  -22.9540 H   0  0  0  0  0  0  0  0  0  0  0  0
   -2.5570    2.5170  -21.0470 H   0  0  0  0  0  0  0  0  0  0  0  0
   -3.0880    1.7140  -18.7510 H   0  0  0  0  0  0  0  0  0  0  0  0
   -4.6280    0.5910  -17.2030 H   0  0  0  0  0  0  0  0  0  0  0  0
   -7.7520   -1.7080  -18.5800 H   0  0  0  0  0  0  0  0  0  0  0  0
   -6.8750   -1.7390  -22.1080 H   0  0  0  0  0  0  0  0  0  0  0  0
   -8.0020   -2.2970  -20.8730 H   0  0  0  0  0  0  0  0  0  0  0  0
   -9.6200   -0.9490  -22.4220 N   0  0  0  0  0  0  0  0  0  0  0  0
   -9.7670   -2.3380  -22.8670 C   0  0  0  0  0  0  0  0  0  0  0  0
  -10.8140   -2.4380  -23.9850 C   0  0  0  0  0  0  0  0  0  0  0  0
  -12.2070   -1.9490  -23.5750 C   0  0  0  0  0  0  0  0  0  0  0  0
  -13.2060   -1.6980  -24.7400 C   0  0  0  0  0  0  0  0  0  0  0  0
  -14.1410   -2.8160  -24.2200 C   0  0  0  0  0  0  0  0  0  0  0  0
  -13.1600   -3.0580  -23.0510 C   0  0  0  0  0  0  0  0  0  0  0  0
  -13.5740   -2.8310  -22.0650 H   0  0  0  0  0  0  0  0  0  0  0  0
  -12.7030   -4.0510  -23.0130 H   0  0  0  0  0  0  0  0  0  0  0  0
  -15.1410   -2.4860  -23.9190 H   0  0  0  0  0  0  0  0  0  0  0  0
  -14.2740   -3.6640  -24.9000 H   0  0  0  0  0  0  0  0  0  0  0  0
  -13.6400   -0.6940  -24.7300 H   0  0  0  0  0  0  0  0  0  0  0  0
  -12.7940   -1.8720  -25.7360 H   0  0  0  0  0  0  0  0  0  0  0  0
  -12.0360   -0.7870  -22.5920 C   0  0  0  0  0  0  0  0  0  0  0  0
  -10.7170   -0.0400  -22.7210 C   0  0  0  0  0  0  0  0  0  0  0  0
  -10.6440    0.7840  -22.0100 H   0  0  0  0  0  0  0  0  0  0  0  0
  -10.5730    0.3870  -23.7190 H   0  0  0  0  0  0  0  0  0  0  0  0
  -12.8890   -0.1010  -22.6150 H   0  0  0  0  0  0  0  0  0  0  0  0
  -12.0130   -1.2330  -21.6000 H   0  0  0  0  0  0  0  0  0  0  0  0
  -10.4660   -1.8130  -24.8140 H   0  0  0  0  0  0  0  0  0  0  0  0
  -10.8610   -3.4650  -24.3650 H   0  0  0  0  0  0  0  0  0  0  0  0
   -8.8040   -2.6910  -23.2500 H   0  0  0  0  0  0  0  0  0  0  0  0
  -10.0400   -2.9900  -22.0240 H   0  0  0  0  0  0  0  0  0  0  0  0
  1  2  2  0  0  0  0
  2  3  1  0  0  0  0
  2 22  1  0  0  0  0
  3  4  1  0  0  0  0
  3 20  1  0  0  0  0
  3 21  1  0  0  0  0
  4  5  2  0  0  0  0
  4 13  1  0  0  0  0
  5  6  1  0  0  0  0
  5 19  1  0  0  0  0
  6  7  2  0  0  0  0
  7  8  1  0  0  0  0
  7 18  1  0  0  0  0
  8  9  2  0  0  0  0
  8 13  1  0  0  0  0
  9 10  1  0  0  0  0
  9 17  1  0  0  0  0
 10 11  2  0  0  0  0
 10 16  1  0  0  0  0
 11 12  1  0  0  0  0
 11 15  1  0  0  0  0
 12 13  2  0  0  0  0
 12 14  1  0  0  0  0
 22 23  1  0  0  0  0
 22 36  1  0  0  0  0
 23 24  1  0  0  0  0
 23 43  1  0  0  0  0
 23 44  1  0  0  0  0
 24 25  1  0  0  0  0
 24 41  1  0  0  0  0
 24 42  1  0  0  0  0
 25 26  1  0  0  0  0
 25 28  1  0  0  0  0
 25 35  1  0  0  0  0
 26 27  1  0  0  0  0
 26 33  1  0  0  0  0
 26 34  1  0  0  0  0
 27 28  1  0  0  0  0
 27 31  1  0  0  0  0
 27 32  1  0  0  0  0
 28 29  1  0  0  0  0
 28 30  1  0  0  0  0
 35 36  1  0  0  0  0
 35 39  1  0  0  0  0
 35 40  1  0  0  0  0
 36 37  1  0  0  0  0
 36 38  1  0  0  0  0
M  END
>  <MODEL>
       1

$$$$
