tmp_first_model_20_60.pdb
 OpenBabel08282503553D

 62 67  0  0  1  0  0  0  0  0999 V2000
  -11.3320    4.3030  -25.2510 C   0  0  0  0  0  0  0  0  0  0  0  0
   -9.8480    4.1560  -25.5860 C   0  0  0  0  0  0  0  0  0  0  0  0
   -9.0860    3.5680  -24.4960 N   0  0  0  0  0  0  0  0  0  0  0  0
   -8.5820    4.4190  -23.5950 N   0  0  0  0  0  0  0  0  0  0  0  0
   -8.0160    3.6600  -22.6760 C   0  0  0  0  0  0  0  0  0  0  0  0
   -8.1510    2.2920  -22.9890 C   0  0  0  0  0  0  0  0  0  0  0  0
   -8.8960    2.2650  -24.1450 C   0  0  0  0  0  0  0  0  0  0  0  0
   -9.3980    1.0860  -24.9350 C   0  0  0  0  0  0  0  0  0  0  0  0
   -9.8610   -0.0070  -24.0950 N   0  0  0  0  0  0  0  0  0  0  0  0
   -9.0400   -1.1980  -23.9790 C   0  0  0  0  0  0  0  0  0  0  0  0
   -9.2250   -1.9160  -22.6150 C   0  0  2  0  0  0  0  0  0  0  0  0
   -8.6620   -1.0280  -21.4700 C   0  0  0  0  0  0  0  0  0  0  0  0
   -9.2300   -0.1120  -20.9120 O   0  0  0  0  0  0  0  0  0  0  0  0
   -7.3750   -1.4350  -21.1920 N   0  0  0  0  0  0  0  0  0  0  0  0
   -6.6000   -0.8270  -20.1670 C   0  0  0  0  0  0  0  0  0  0  0  0
   -6.9090   -1.0460  -18.8470 C   0  0  0  0  0  0  0  0  0  0  0  0
   -6.2060   -0.5430  -17.8020 N   0  0  0  0  0  0  0  0  0  0  0  0
   -5.1660    0.2060  -18.0760 C   0  0  0  0  0  0  0  0  0  0  0  0
   -4.7300    0.5240  -19.3950 C   0  0  0  0  0  0  0  0  0  0  0  0
   -3.6060    1.3600  -19.6370 C   0  0  0  0  0  0  0  0  0  0  0  0
   -3.2280    1.6590  -20.9170 C   0  0  0  0  0  0  0  0  0  0  0  0
   -3.9550    1.1340  -22.0090 C   0  0  0  0  0  0  0  0  0  0  0  0
   -5.0460    0.3220  -21.7990 C   0  0  0  0  0  0  0  0  0  0  0  0
   -5.4640   -0.0080  -20.4820 C   0  0  0  0  0  0  0  0  0  0  0  0
   -5.6060   -0.0550  -22.6490 H   0  0  0  0  0  0  0  0  0  0  0  0
   -3.6580    1.3910  -23.0220 H   0  0  0  0  0  0  0  0  0  0  0  0
   -2.3800    2.3120  -21.1030 H   0  0  0  0  0  0  0  0  0  0  0  0
   -3.0670    1.7650  -18.7850 H   0  0  0  0  0  0  0  0  0  0  0  0
   -4.6130    0.6130  -17.2280 H   0  0  0  0  0  0  0  0  0  0  0  0
   -7.7570   -1.6740  -18.5830 H   0  0  0  0  0  0  0  0  0  0  0  0
   -6.9640   -2.6140  -21.9350 C   0  0  0  0  0  0  0  0  0  0  0  0
   -8.2910   -3.1600  -22.5110 C   0  0  2  0  0  0  0  0  0  0  0  0
   -8.0930   -3.9860  -23.7840 C   0  0  0  0  0  0  0  0  0  0  0  0
   -7.5530   -3.4120  -24.5480 H   0  0  0  0  0  0  0  0  0  0  0  0
   -7.5060   -4.8890  -23.5810 H   0  0  0  0  0  0  0  0  0  0  0  0
   -9.0500   -4.2980  -24.2190 H   0  0  0  0  0  0  0  0  0  0  0  0
   -8.7230   -3.8030  -21.7370 H   0  0  0  0  0  0  0  0  0  0  0  0
   -6.4650   -3.3290  -21.2700 H   0  0  0  0  0  0  0  0  0  0  0  0
   -6.2540   -2.3620  -22.7390 H   0  0  0  0  0  0  0  0  0  0  0  0
  -10.7170   -2.1460  -22.4260 C   0  0  0  0  0  0  0  0  0  0  0  0
  -11.2300   -3.2290  -21.7000 C   0  0  0  0  0  0  0  0  0  0  0  0
  -12.5880   -3.3020  -21.4570 C   0  0  0  0  0  0  0  0  0  0  0  0
  -13.0770   -4.2870  -20.6870 F   0  0  0  0  0  0  0  0  0  0  0  0
  -13.4870   -2.3610  -21.9350 C   0  0  0  0  0  0  0  0  0  0  0  0
  -12.9900   -1.2860  -22.6400 C   0  0  0  0  0  0  0  0  0  0  0  0
  -11.6200   -1.1710  -22.8820 C   0  0  0  0  0  0  0  0  0  0  0  0
  -11.1470    0.0360  -23.6410 C   0  0  0  0  0  0  0  0  0  0  0  0
  -11.8840    0.9870  -23.8610 O   0  0  0  0  0  0  0  0  0  0  0  0
  -13.6440   -0.5020  -23.0060 H   0  0  0  0  0  0  0  0  0  0  0  0
  -14.5410   -2.4890  -21.7210 H   0  0  0  0  0  0  0  0  0  0  0  0
  -10.5960   -3.9870  -21.2580 H   0  0  0  0  0  0  0  0  0  0  0  0
   -9.2950   -1.9050  -24.7850 H   0  0  0  0  0  0  0  0  0  0  0  0
   -7.9930   -0.8970  -24.0900 H   0  0  0  0  0  0  0  0  0  0  0  0
  -10.2130    1.3860  -25.6090 H   0  0  0  0  0  0  0  0  0  0  0  0
   -8.5740    0.6940  -25.5430 H   0  0  0  0  0  0  0  0  0  0  0  0
   -7.7930    1.4110  -22.4810 H   0  0  0  0  0  0  0  0  0  0  0  0
   -7.6420    4.1810  -21.8040 H   0  0  0  0  0  0  0  0  0  0  0  0
   -9.3850    5.1390  -25.7380 H   0  0  0  0  0  0  0  0  0  0  0  0
   -9.6870    3.5510  -26.4900 H   0  0  0  0  0  0  0  0  0  0  0  0
  -11.7780    3.3220  -25.0470 H   0  0  0  0  0  0  0  0  0  0  0  0
  -11.4720    4.9420  -24.3690 H   0  0  0  0  0  0  0  0  0  0  0  0
  -11.8490    4.7670  -26.0970 H   0  0  0  0  0  0  0  0  0  0  0  0
  1  2  1  0  0  0  0
  1 60  1  0  0  0  0
  1 61  1  0  0  0  0
  1 62  1  0  0  0  0
  2  3  1  0  0  0  0
  2 58  1  0  0  0  0
  2 59  1  0  0  0  0
  3  4  1  0  0  0  0
  3  7  1  0  0  0  0
  4  5  2  0  0  0  0
  5  6  1  0  0  0  0
  5 57  1  0  0  0  0
  6  7  2  0  0  0  0
  6 56  1  0  0  0  0
  7  8  1  0  0  0  0
  8  9  1  0  0  0  0
  8 54  1  0  0  0  0
  8 55  1  0  0  0  0
  9 10  1  0  0  0  0
  9 47  1  0  0  0  0
 10 11  1  0  0  0  0
 10 52  1  0  0  0  0
 10 53  1  0  0  0  0
 11 12  1  1  0  0  0
 11 32  1  0  0  0  0
 11 40  1  0  0  0  0
 12 13  2  0  0  0  0
 12 14  1  0  0  0  0
 14 15  1  0  0  0  0
 14 31  1  0  0  0  0
 15 16  2  0  0  0  0
 15 24  1  0  0  0  0
 16 17  1  0  0  0  0
 16 30  1  0  0  0  0
 17 18  2  0  0  0  0
 18 19  1  0  0  0  0
 18 29  1  0  0  0  0
 19 20  2  0  0  0  0
 19 24  1  0  0  0  0
 20 21  1  0  0  0  0
 20 28  1  0  0  0  0
 21 22  2  0  0  0  0
 21 27  1  0  0  0  0
 22 23  1  0  0  0  0
 22 26  1  0  0  0  0
 23 24  2  0  0  0  0
 23 25  1  0  0  0  0
 31 32  1  0  0  0  0
 31 38  1  0  0  0  0
 31 39  1  0  0  0  0
 32 33  1  0  0  0  0
 32 37  1  1  0  0  0
 33 34  1  0  0  0  0
 33 35  1  0  0  0  0
 33 36  1  0  0  0  0
 40 41  2  0  0  0  0
 40 46  1  0  0  0  0
 41 42  1  0  0  0  0
 41 51  1  0  0  0  0
 42 43  1  0  0  0  0
 42 44  2  0  0  0  0
 44 45  1  0  0  0  0
 44 50  1  0  0  0  0
 45 46  2  0  0  0  0
 45 49  1  0  0  0  0
 46 47  1  0  0  0  0
 47 48  2  0  0  0  0
M  END
>  <MODEL>
       1

$$$$
