tmp_first_model_8_81.pdb
 OpenBabel08272521063D

 36 38  0  0  0  0  0  0  0  0999 V2000
   -8.5060    0.7110  -21.4630 O   0  0  0  0  0  0  0  0  0  0  0  0
   -8.3850   -0.4020  -21.9340 C   0  0  0  0  0  0  0  0  0  0  0  0
   -7.4390   -1.4330  -21.2760 C   0  0  0  0  0  0  0  0  0  0  0  0
   -6.5830   -0.8290  -20.1850 C   0  0  0  0  0  0  0  0  0  0  0  0
   -6.8790   -1.0400  -18.8640 C   0  0  0  0  0  0  0  0  0  0  0  0
   -6.1920   -0.5410  -17.8010 N   0  0  0  0  0  0  0  0  0  0  0  0
   -5.1570    0.2200  -18.0650 C   0  0  0  0  0  0  0  0  0  0  0  0
   -4.7260    0.5350  -19.3810 C   0  0  0  0  0  0  0  0  0  0  0  0
   -3.6000    1.3660  -19.6190 C   0  0  0  0  0  0  0  0  0  0  0  0
   -3.2190    1.6680  -20.8990 C   0  0  0  0  0  0  0  0  0  0  0  0
   -3.9580    1.1570  -21.9880 C   0  0  0  0  0  0  0  0  0  0  0  0
   -5.0370    0.3310  -21.7850 C   0  0  0  0  0  0  0  0  0  0  0  0
   -5.4570    0.0010  -20.4720 C   0  0  0  0  0  0  0  0  0  0  0  0
   -5.5760   -0.0670  -22.6380 H   0  0  0  0  0  0  0  0  0  0  0  0
   -3.6300    1.3790  -22.9990 H   0  0  0  0  0  0  0  0  0  0  0  0
   -2.3550    2.3000  -21.0880 H   0  0  0  0  0  0  0  0  0  0  0  0
   -3.0570    1.7750  -18.7700 H   0  0  0  0  0  0  0  0  0  0  0  0
   -4.6030    0.6260  -17.2160 H   0  0  0  0  0  0  0  0  0  0  0  0
   -7.7290   -1.6590  -18.5860 H   0  0  0  0  0  0  0  0  0  0  0  0
   -6.8030   -1.8990  -22.0410 H   0  0  0  0  0  0  0  0  0  0  0  0
   -8.0410   -2.2450  -20.8450 H   0  0  0  0  0  0  0  0  0  0  0  0
   -9.0620   -0.7720  -23.0890 N   0  0  0  0  0  0  0  0  0  0  0  0
  -10.0070    0.1960  -23.6420 C   0  0  0  0  0  0  0  0  0  0  0  0
  -11.3810    0.2150  -23.0210 C   0  0  0  0  0  0  0  0  0  0  0  0
  -12.0210   -0.7920  -22.4170 C   0  0  0  0  0  0  0  0  0  0  0  0
  -11.5710   -2.1750  -22.1560 C   0  0  0  0  0  0  0  0  0  0  0  0
  -10.4470   -2.7810  -22.5510 C   0  0  0  0  0  0  0  0  0  0  0  0
   -9.3680   -2.1600  -23.4040 C   0  0  0  0  0  0  0  0  0  0  0  0
   -8.4500   -2.7530  -23.3600 H   0  0  0  0  0  0  0  0  0  0  0  0
   -9.6840   -2.1750  -24.4540 H   0  0  0  0  0  0  0  0  0  0  0  0
  -10.2830   -3.8160  -22.2470 H   0  0  0  0  0  0  0  0  0  0  0  0
  -12.2760   -2.7630  -21.5730 H   0  0  0  0  0  0  0  0  0  0  0  0
  -13.0200   -0.5780  -22.0390 H   0  0  0  0  0  0  0  0  0  0  0  0
  -11.8930    1.1790  -23.0810 H   0  0  0  0  0  0  0  0  0  0  0  0
  -10.1130   -0.0410  -24.7080 H   0  0  0  0  0  0  0  0  0  0  0  0
   -9.5580    1.1920  -23.5950 H   0  0  0  0  0  0  0  0  0  0  0  0
  1  2  2  0  0  0  0
  2  3  1  0  0  0  0
  2 22  1  0  0  0  0
  3  4  1  0  0  0  0
  3 20  1  0  0  0  0
  3 21  1  0  0  0  0
  4  5  2  0  0  0  0
  4 13  1  0  0  0  0
  5  6  1  0  0  0  0
  5 19  1  0  0  0  0
  6  7  2  0  0  0  0
  7  8  1  0  0  0  0
  7 18  1  0  0  0  0
  8  9  2  0  0  0  0
  8 13  1  0  0  0  0
  9 10  1  0  0  0  0
  9 17  1  0  0  0  0
 10 11  2  0  0  0  0
 10 16  1  0  0  0  0
 11 12  1  0  0  0  0
 11 15  1  0  0  0  0
 12 13  2  0  0  0  0
 12 14  1  0  0  0  0
 22 23  1  0  0  0  0
 22 28  1  0  0  0  0
 23 24  1  0  0  0  0
 23 35  1  0  0  0  0
 23 36  1  0  0  0  0
 24 25  2  0  0  0  0
 24 34  1  0  0  0  0
 25 26  1  0  0  0  0
 25 33  1  0  0  0  0
 26 27  2  0  0  0  0
 26 32  1  0  0  0  0
 27 28  1  0  0  0  0
 27 31  1  0  0  0  0
 28 29  1  0  0  0  0
 28 30  1  0  0  0  0
M  END
>  <MODEL>
       1

$$$$
