tmp_first_model_8_85.pdb
 OpenBabel08272521063D

 57 62  0  0  1  0  0  0  0  0999 V2000
   -6.5890    3.4700  -23.1110 C   0  0  0  0  0  0  0  0  0  0  0  0
   -6.9780    2.4760  -24.0940 N   0  0  0  0  0  0  0  0  0  0  0  0
   -8.2480    2.5180  -24.5880 C   0  0  0  0  0  0  0  0  0  0  0  0
   -8.9830    3.4690  -24.3920 O   0  0  0  0  0  0  0  0  0  0  0  0
   -8.6810    1.3230  -25.4410 C   0  0  0  0  0  0  0  0  0  0  0  0
   -9.3710    0.2970  -24.6840 N   0  0  0  0  0  0  0  0  0  0  0  0
   -8.7630   -1.0050  -24.4450 C   0  0  0  0  0  0  0  0  0  0  0  0
   -8.9870   -1.5010  -22.9980 C   0  0  2  0  0  0  0  0  0  0  0  0
   -8.2260   -0.5920  -22.0090 C   0  0  0  0  0  0  0  0  0  0  0  0
   -8.3260    0.6160  -21.9130 O   0  0  0  0  0  0  0  0  0  0  0  0
   -7.3900   -1.3600  -21.2360 N   0  0  0  0  0  0  0  0  0  0  0  0
   -6.6050   -0.8080  -20.1960 C   0  0  0  0  0  0  0  0  0  0  0  0
   -6.9000   -1.0770  -18.8830 C   0  0  0  0  0  0  0  0  0  0  0  0
   -6.2100   -0.5840  -17.8260 N   0  0  0  0  0  0  0  0  0  0  0  0
   -5.1880    0.2000  -18.0850 C   0  0  0  0  0  0  0  0  0  0  0  0
   -4.7620    0.5420  -19.4000 C   0  0  0  0  0  0  0  0  0  0  0  0
   -3.6290    1.3700  -19.6300 C   0  0  0  0  0  0  0  0  0  0  0  0
   -3.2330    1.6650  -20.9060 C   0  0  0  0  0  0  0  0  0  0  0  0
   -3.9510    1.1520  -22.0100 C   0  0  0  0  0  0  0  0  0  0  0  0
   -5.0260    0.3220  -21.8170 C   0  0  0  0  0  0  0  0  0  0  0  0
   -5.4810    0.0220  -20.4990 C   0  0  0  0  0  0  0  0  0  0  0  0
   -5.5150   -0.1360  -22.6690 H   0  0  0  0  0  0  0  0  0  0  0  0
   -3.6190    1.3940  -23.0190 H   0  0  0  0  0  0  0  0  0  0  0  0
   -2.3580    2.2810  -21.0870 H   0  0  0  0  0  0  0  0  0  0  0  0
   -3.0860    1.7540  -18.7710 H   0  0  0  0  0  0  0  0  0  0  0  0
   -4.6340    0.5990  -17.2340 H   0  0  0  0  0  0  0  0  0  0  0  0
   -7.7590   -1.7020  -18.6360 H   0  0  0  0  0  0  0  0  0  0  0  0
   -7.4900   -2.7770  -21.4810 C   0  0  0  0  0  0  0  0  0  0  0  0
   -8.3660   -2.8820  -22.7230 C   0  0  0  0  0  0  0  0  0  0  0  0
   -7.9240   -3.8250  -23.8130 C   0  0  0  0  0  0  0  0  0  0  0  0
   -9.1300   -4.1490  -22.9850 C   0  0  0  0  0  0  0  0  0  0  0  0
  -10.1060   -4.0430  -23.4480 H   0  0  0  0  0  0  0  0  0  0  0  0
   -9.0810   -4.9420  -22.2410 H   0  0  0  0  0  0  0  0  0  0  0  0
   -8.0690   -3.5160  -24.8420 H   0  0  0  0  0  0  0  0  0  0  0  0
   -7.0090   -4.3880  -23.6490 H   0  0  0  0  0  0  0  0  0  0  0  0
   -6.4930   -3.1990  -21.6420 H   0  0  0  0  0  0  0  0  0  0  0  0
   -7.9520   -3.2810  -20.6290 H   0  0  0  0  0  0  0  0  0  0  0  0
  -10.4910   -1.4090  -22.7540 C   0  0  0  0  0  0  0  0  0  0  0  0
  -11.1170   -2.2440  -21.8260 C   0  0  0  0  0  0  0  0  0  0  0  0
  -12.4900   -2.1670  -21.6560 C   0  0  0  0  0  0  0  0  0  0  0  0
  -13.2850   -3.3630  -20.6520 Cl  0  0  0  0  0  0  0  0  0  0  0  0
  -13.2500   -1.1490  -22.2360 C   0  0  0  0  0  0  0  0  0  0  0  0
  -12.6200   -0.2670  -23.0920 C   0  0  0  0  0  0  0  0  0  0  0  0
  -11.2720   -0.4390  -23.3950 C   0  0  0  0  0  0  0  0  0  0  0  0
  -10.6740    0.5340  -24.3540 C   0  0  0  0  0  0  0  0  0  0  0  0
  -11.3040    1.4910  -24.7840 O   0  0  0  0  0  0  0  0  0  0  0  0
  -13.1240    0.5790  -23.5530 H   0  0  0  0  0  0  0  0  0  0  0  0
  -14.3020   -1.0440  -21.9940 H   0  0  0  0  0  0  0  0  0  0  0  0
  -10.5410   -2.9530  -21.2420 H   0  0  0  0  0  0  0  0  0  0  0  0
   -7.6910   -0.9530  -24.6480 H   0  0  0  0  0  0  0  0  0  0  0  0
   -9.2100   -1.7510  -25.1150 H   0  0  0  0  0  0  0  0  0  0  0  0
   -7.8140    0.8580  -25.9180 H   0  0  0  0  0  0  0  0  0  0  0  0
   -9.3780    1.7090  -26.1910 H   0  0  0  0  0  0  0  0  0  0  0  0
   -6.4600    1.6120  -24.1100 H   0  0  0  0  0  0  0  0  0  0  0  0
   -5.5760    3.2560  -22.7570 H   0  0  0  0  0  0  0  0  0  0  0  0
   -7.2830    3.4570  -22.2660 H   0  0  0  0  0  0  0  0  0  0  0  0
   -6.6230    4.4680  -23.5530 H   0  0  0  0  0  0  0  0  0  0  0  0
  1  2  1  0  0  0  0
  1 55  1  0  0  0  0
  1 56  1  0  0  0  0
  1 57  1  0  0  0  0
  2  3  1  0  0  0  0
  2 54  1  0  0  0  0
  3  4  2  0  0  0  0
  3  5  1  0  0  0  0
  5  6  1  0  0  0  0
  5 52  1  0  0  0  0
  5 53  1  0  0  0  0
  6  7  1  0  0  0  0
  6 45  1  0  0  0  0
  7  8  1  0  0  0  0
  7 50  1  0  0  0  0
  7 51  1  0  0  0  0
  8  9  1  1  0  0  0
  8 29  1  0  0  0  0
  8 38  1  0  0  0  0
  9 10  2  0  0  0  0
  9 11  1  0  0  0  0
 11 12  1  0  0  0  0
 11 28  1  0  0  0  0
 12 13  2  0  0  0  0
 12 21  1  0  0  0  0
 13 14  1  0  0  0  0
 13 27  1  0  0  0  0
 14 15  2  0  0  0  0
 15 16  1  0  0  0  0
 15 26  1  0  0  0  0
 16 17  2  0  0  0  0
 16 21  1  0  0  0  0
 17 18  1  0  0  0  0
 17 25  1  0  0  0  0
 18 19  2  0  0  0  0
 18 24  1  0  0  0  0
 19 20  1  0  0  0  0
 19 23  1  0  0  0  0
 20 21  2  0  0  0  0
 20 22  1  0  0  0  0
 28 29  1  0  0  0  0
 28 36  1  0  0  0  0
 28 37  1  0  0  0  0
 29 30  1  0  0  0  0
 29 31  1  0  0  0  0
 30 31  1  0  0  0  0
 30 34  1  0  0  0  0
 30 35  1  0  0  0  0
 31 32  1  0  0  0  0
 31 33  1  0  0  0  0
 38 39  2  0  0  0  0
 38 44  1  0  0  0  0
 39 40  1  0  0  0  0
 39 49  1  0  0  0  0
 40 41  1  0  0  0  0
 40 42  2  0  0  0  0
 42 43  1  0  0  0  0
 42 48  1  0  0  0  0
 43 44  2  0  0  0  0
 43 47  1  0  0  0  0
 44 45  1  0  0  0  0
 45 46  2  0  0  0  0
M  END
>  <MODEL>
       1

$$$$
