tmp_first_model_10_28.pdb
 OpenBabel08272522163D

 64 68  0  0  1  0  0  0  0  0999 V2000
   -7.5760    3.2130  -21.9300 C   0  0  0  0  0  0  0  0  0  0  0  0
   -8.6970    2.7240  -22.7140 N   0  0  0  0  0  0  0  0  0  0  0  0
   -8.3690    1.9310  -23.7760 C   0  0  0  0  0  0  0  0  0  0  0  0
   -7.2010    1.6970  -24.0590 O   0  0  0  0  0  0  0  0  0  0  0  0
   -9.4930    1.3290  -24.6110 C   0  0  0  0  0  0  0  0  0  0  0  0
   -9.9700    0.1110  -23.9870 N   0  0  0  0  0  0  0  0  0  0  0  0
   -9.1080   -1.0670  -23.9580 C   0  0  0  0  0  0  0  0  0  0  0  0
   -9.2570   -1.8320  -22.6170 C   0  0  2  0  0  0  0  0  0  0  0  0
   -8.6800   -0.9540  -21.4800 C   0  0  0  0  0  0  0  0  0  0  0  0
   -9.2060    0.0120  -20.9660 O   0  0  0  0  0  0  0  0  0  0  0  0
   -7.4200   -1.4220  -21.1650 N   0  0  0  0  0  0  0  0  0  0  0  0
   -6.6410   -0.8140  -20.1520 C   0  0  0  0  0  0  0  0  0  0  0  0
   -6.9340   -1.0640  -18.8340 C   0  0  0  0  0  0  0  0  0  0  0  0
   -6.2250   -0.5820  -17.7870 N   0  0  0  0  0  0  0  0  0  0  0  0
   -5.2010    0.1920  -18.0580 C   0  0  0  0  0  0  0  0  0  0  0  0
   -4.8000    0.5510  -19.3780 C   0  0  0  0  0  0  0  0  0  0  0  0
   -3.7000    1.4180  -19.6190 C   0  0  0  0  0  0  0  0  0  0  0  0
   -3.4230    1.8560  -20.8830 C   0  0  0  0  0  0  0  0  0  0  0  0
   -4.2150    1.4300  -21.9730 C   0  0  0  0  0  0  0  0  0  0  0  0
   -5.2270    0.5140  -21.7810 C   0  0  0  0  0  0  0  0  0  0  0  0
   -5.5570    0.0630  -20.4720 C   0  0  0  0  0  0  0  0  0  0  0  0
   -5.8070    0.1820  -22.6380 H   0  0  0  0  0  0  0  0  0  0  0  0
   -4.0310    1.8360  -22.9640 H   0  0  0  0  0  0  0  0  0  0  0  0
   -2.5970    2.5410  -21.0560 H   0  0  0  0  0  0  0  0  0  0  0  0
   -3.1080    1.7420  -18.7660 H   0  0  0  0  0  0  0  0  0  0  0  0
   -4.6240    0.5690  -17.2130 H   0  0  0  0  0  0  0  0  0  0  0  0
   -7.7840   -1.6970  -18.5910 H   0  0  0  0  0  0  0  0  0  0  0  0
   -6.9960   -2.5620  -21.9500 C   0  0  0  0  0  0  0  0  0  0  0  0
   -8.3230   -3.0760  -22.5340 C   0  0  2  0  0  0  0  0  0  0  0  0
   -8.1460   -3.8720  -23.8240 C   0  0  0  0  0  0  0  0  0  0  0  0
   -7.1470   -5.3280  -23.5570 S   0  0  0  0  0  0  0  0  0  0  0  0
   -5.7610   -4.9130  -23.3640 O   0  0  0  0  0  0  0  0  0  0  0  0
   -7.7710   -6.1870  -22.5590 O   0  0  0  0  0  0  0  0  0  0  0  0
   -7.3800   -6.1120  -25.0110 N   0  0  0  0  0  0  0  0  0  0  0  0
   -6.6840   -5.6250  -26.1980 C   0  0  0  0  0  0  0  0  0  0  0  0
   -7.1680   -4.7170  -26.5790 H   0  0  0  0  0  0  0  0  0  0  0  0
   -6.7780   -6.3850  -26.9770 H   0  0  0  0  0  0  0  0  0  0  0  0
   -5.6230   -5.4250  -26.0140 H   0  0  0  0  0  0  0  0  0  0  0  0
   -7.3120   -7.1140  -24.8560 H   0  0  0  0  0  0  0  0  0  0  0  0
   -7.6370   -3.2820  -24.5920 H   0  0  0  0  0  0  0  0  0  0  0  0
   -9.1010   -4.2110  -24.2320 H   0  0  0  0  0  0  0  0  0  0  0  0
   -8.7400   -3.7660  -21.7980 H   0  0  0  0  0  0  0  0  0  0  0  0
   -6.5090   -3.3190  -21.3290 H   0  0  0  0  0  0  0  0  0  0  0  0
   -6.2900   -2.2750  -22.7440 H   0  0  0  0  0  0  0  0  0  0  0  0
  -10.7420   -2.0960  -22.4220 C   0  0  0  0  0  0  0  0  0  0  0  0
  -11.2170   -3.1790  -21.6810 C   0  0  0  0  0  0  0  0  0  0  0  0
  -12.5660   -3.2960  -21.3980 C   0  0  0  0  0  0  0  0  0  0  0  0
  -13.0820   -4.5960  -20.3690 Cl  0  0  0  0  0  0  0  0  0  0  0  0
  -13.5090   -2.3890  -21.8700 C   0  0  0  0  0  0  0  0  0  0  0  0
  -13.0550   -1.3350  -22.6320 C   0  0  0  0  0  0  0  0  0  0  0  0
  -11.6960   -1.1810  -22.8920 C   0  0  0  0  0  0  0  0  0  0  0  0
  -11.2920    0.0360  -23.6600 C   0  0  0  0  0  0  0  0  0  0  0  0
  -12.0970    0.9080  -23.9640 O   0  0  0  0  0  0  0  0  0  0  0  0
  -13.7310   -0.5870  -23.0300 H   0  0  0  0  0  0  0  0  0  0  0  0
  -14.5590   -2.4980  -21.6250 H   0  0  0  0  0  0  0  0  0  0  0  0
  -10.5590   -3.9360  -21.2720 H   0  0  0  0  0  0  0  0  0  0  0  0
   -8.0720   -0.7440  -24.1100 H   0  0  0  0  0  0  0  0  0  0  0  0
   -9.3760   -1.7440  -24.7820 H   0  0  0  0  0  0  0  0  0  0  0  0
  -10.3550    1.9910  -24.7460 H   0  0  0  0  0  0  0  0  0  0  0  0
   -9.0830    1.0910  -25.5980 H   0  0  0  0  0  0  0  0  0  0  0  0
   -9.5610    2.5860  -22.2020 H   0  0  0  0  0  0  0  0  0  0  0  0
   -6.8740    3.7080  -22.6040 H   0  0  0  0  0  0  0  0  0  0  0  0
   -7.9140    3.9620  -21.2060 H   0  0  0  0  0  0  0  0  0  0  0  0
   -7.0560    2.3710  -21.4410 H   0  0  0  0  0  0  0  0  0  0  0  0
  1  2  1  0  0  0  0
  1 62  1  0  0  0  0
  1 63  1  0  0  0  0
  1 64  1  0  0  0  0
  2  3  1  0  0  0  0
  2 61  1  0  0  0  0
  3  4  2  0  0  0  0
  3  5  1  0  0  0  0
  5  6  1  0  0  0  0
  5 59  1  0  0  0  0
  5 60  1  0  0  0  0
  6  7  1  0  0  0  0
  6 52  1  0  0  0  0
  7  8  1  0  0  0  0
  7 57  1  0  0  0  0
  7 58  1  0  0  0  0
  8  9  1  1  0  0  0
  8 29  1  0  0  0  0
  8 45  1  0  0  0  0
  9 10  2  0  0  0  0
  9 11  1  0  0  0  0
 11 12  1  0  0  0  0
 11 28  1  0  0  0  0
 12 13  2  0  0  0  0
 12 21  1  0  0  0  0
 13 14  1  0  0  0  0
 13 27  1  0  0  0  0
 14 15  2  0  0  0  0
 15 16  1  0  0  0  0
 15 26  1  0  0  0  0
 16 17  2  0  0  0  0
 16 21  1  0  0  0  0
 17 18  1  0  0  0  0
 17 25  1  0  0  0  0
 18 19  2  0  0  0  0
 18 24  1  0  0  0  0
 19 20  1  0  0  0  0
 19 23  1  0  0  0  0
 20 21  2  0  0  0  0
 20 22  1  0  0  0  0
 28 29  1  0  0  0  0
 28 43  1  0  0  0  0
 28 44  1  0  0  0  0
 29 30  1  0  0  0  0
 29 42  1  1  0  0  0
 30 31  1  0  0  0  0
 30 40  1  0  0  0  0
 30 41  1  0  0  0  0
 31 32  2  0  0  0  0
 31 33  2  0  0  0  0
 31 34  1  0  0  0  0
 34 35  1  0  0  0  0
 34 39  1  0  0  0  0
 35 36  1  0  0  0  0
 35 37  1  0  0  0  0
 35 38  1  0  0  0  0
 45 46  2  0  0  0  0
 45 51  1  0  0  0  0
 46 47  1  0  0  0  0
 46 56  1  0  0  0  0
 47 48  1  0  0  0  0
 47 49  2  0  0  0  0
 49 50  1  0  0  0  0
 49 55  1  0  0  0  0
 50 51  2  0  0  0  0
 50 54  1  0  0  0  0
 51 52  1  0  0  0  0
 52 53  2  0  0  0  0
M  END
>  <MODEL>
       1

$$$$
