tmp_first_model_6_78.pdb
 OpenBabel08272519583D

 56 60  0  0  1  0  0  0  0  0999 V2000
   -7.3100    3.4460  -21.8850 C   0  0  0  0  0  0  0  0  0  0  0  0
   -8.1460    2.9730  -22.9740 N   0  0  0  0  0  0  0  0  0  0  0  0
   -7.5740    2.2630  -23.9740 C   0  0  0  0  0  0  0  0  0  0  0  0
   -6.3620    2.1340  -24.0760 O   0  0  0  0  0  0  0  0  0  0  0  0
   -8.5350    1.6440  -25.0030 C   0  0  0  0  0  0  0  0  0  0  0  0
   -9.2800    0.5020  -24.5040 N   0  0  0  0  0  0  0  0  0  0  0  0
   -8.5780   -0.7550  -24.3100 C   0  0  0  0  0  0  0  0  0  0  0  0
   -8.9900   -1.4560  -22.9890 C   0  0  2  0  0  0  0  0  0  0  0  0
   -8.4430   -0.6650  -21.7680 C   0  0  0  0  0  0  0  0  0  0  0  0
   -8.8380    0.4010  -21.3490 O   0  0  0  0  0  0  0  0  0  0  0  0
   -7.4110   -1.3770  -21.2000 N   0  0  0  0  0  0  0  0  0  0  0  0
   -6.6100   -0.8030  -20.1740 C   0  0  0  0  0  0  0  0  0  0  0  0
   -6.9060   -1.0460  -18.8590 C   0  0  0  0  0  0  0  0  0  0  0  0
   -6.1990   -0.5590  -17.8100 N   0  0  0  0  0  0  0  0  0  0  0  0
   -5.1670    0.2060  -18.0740 C   0  0  0  0  0  0  0  0  0  0  0  0
   -4.7360    0.5400  -19.3880 C   0  0  0  0  0  0  0  0  0  0  0  0
   -3.6070    1.3730  -19.6310 C   0  0  0  0  0  0  0  0  0  0  0  0
   -3.2290    1.6800  -20.9100 C   0  0  0  0  0  0  0  0  0  0  0  0
   -3.9690    1.1750  -22.0010 C   0  0  0  0  0  0  0  0  0  0  0  0
   -5.0580    0.3610  -21.7920 C   0  0  0  0  0  0  0  0  0  0  0  0
   -5.4810    0.0250  -20.4790 C   0  0  0  0  0  0  0  0  0  0  0  0
   -5.5800   -0.0640  -22.6440 H   0  0  0  0  0  0  0  0  0  0  0  0
   -3.6600    1.3860  -23.0190 H   0  0  0  0  0  0  0  0  0  0  0  0
   -2.3580    2.3020  -21.0950 H   0  0  0  0  0  0  0  0  0  0  0  0
   -3.0660    1.7690  -18.7750 H   0  0  0  0  0  0  0  0  0  0  0  0
   -4.6210    0.6120  -17.2220 H   0  0  0  0  0  0  0  0  0  0  0  0
   -7.7570   -1.6710  -18.6000 H   0  0  0  0  0  0  0  0  0  0  0  0
   -7.0880   -2.6120  -21.8850 C   0  0  0  0  0  0  0  0  0  0  0  0
   -8.2930   -2.8490  -22.8270 C   0  0  2  0  0  0  0  0  0  0  0  0
   -7.8790   -3.5870  -24.1090 C   0  0  0  0  0  0  0  0  0  0  0  0
   -7.4620   -4.5730  -23.8720 H   0  0  0  0  0  0  0  0  0  0  0  0
   -7.1090   -3.0320  -24.6600 H   0  0  0  0  0  0  0  0  0  0  0  0
   -8.7270   -3.7400  -24.7870 H   0  0  0  0  0  0  0  0  0  0  0  0
   -9.0090   -3.4830  -22.2990 H   0  0  0  0  0  0  0  0  0  0  0  0
   -6.1470   -2.5230  -22.4530 H   0  0  0  0  0  0  0  0  0  0  0  0
   -6.9500   -3.4280  -21.1630 H   0  0  0  0  0  0  0  0  0  0  0  0
  -10.5110   -1.4720  -22.9230 C   0  0  0  0  0  0  0  0  0  0  0  0
  -11.1660   -2.2970  -21.9970 C   0  0  0  0  0  0  0  0  0  0  0  0
  -12.5440   -2.2530  -21.8910 C   0  0  0  0  0  0  0  0  0  0  0  0
  -13.3700   -3.1320  -20.6380 Cl  0  0  0  0  0  0  0  0  0  0  0  0
  -13.3130   -1.4360  -22.7160 C   0  0  0  0  0  0  0  0  0  0  0  0
  -12.6740   -0.5640  -23.5710 C   0  0  0  0  0  0  0  0  0  0  0  0
  -11.2810   -0.5480  -23.6420 C   0  0  0  0  0  0  0  0  0  0  0  0
  -10.6430    0.5700  -24.4100 C   0  0  0  0  0  0  0  0  0  0  0  0
  -11.3070    1.4880  -24.8680 O   0  0  0  0  0  0  0  0  0  0  0  0
  -13.2240    0.1650  -24.1580 H   0  0  0  0  0  0  0  0  0  0  0  0
  -14.3910   -1.4560  -22.6200 H   0  0  0  0  0  0  0  0  0  0  0  0
  -10.6060   -2.9320  -21.3200 H   0  0  0  0  0  0  0  0  0  0  0  0
   -7.5100   -0.5230  -24.2790 H   0  0  0  0  0  0  0  0  0  0  0  0
   -8.7700   -1.4410  -25.1520 H   0  0  0  0  0  0  0  0  0  0  0  0
   -7.9020    1.3550  -25.8480 H   0  0  0  0  0  0  0  0  0  0  0  0
   -9.2920    2.3530  -25.3530 H   0  0  0  0  0  0  0  0  0  0  0  0
   -9.1500    2.9340  -22.8520 H   0  0  0  0  0  0  0  0  0  0  0  0
   -7.9610    3.9190  -21.1460 H   0  0  0  0  0  0  0  0  0  0  0  0
   -6.7460    2.6100  -21.4360 H   0  0  0  0  0  0  0  0  0  0  0  0
   -6.5860    4.1890  -22.2430 H   0  0  0  0  0  0  0  0  0  0  0  0
  1  2  1  0  0  0  0
  1 54  1  0  0  0  0
  1 55  1  0  0  0  0
  1 56  1  0  0  0  0
  2  3  1  0  0  0  0
  2 53  1  0  0  0  0
  3  4  2  0  0  0  0
  3  5  1  0  0  0  0
  5  6  1  0  0  0  0
  5 51  1  0  0  0  0
  5 52  1  0  0  0  0
  6  7  1  0  0  0  0
  6 44  1  0  0  0  0
  7  8  1  0  0  0  0
  7 49  1  0  0  0  0
  7 50  1  0  0  0  0
  8  9  1  1  0  0  0
  8 29  1  0  0  0  0
  8 37  1  0  0  0  0
  9 10  2  0  0  0  0
  9 11  1  0  0  0  0
 11 12  1  0  0  0  0
 11 28  1  0  0  0  0
 12 13  2  0  0  0  0
 12 21  1  0  0  0  0
 13 14  1  0  0  0  0
 13 27  1  0  0  0  0
 14 15  2  0  0  0  0
 15 16  1  0  0  0  0
 15 26  1  0  0  0  0
 16 17  2  0  0  0  0
 16 21  1  0  0  0  0
 17 18  1  0  0  0  0
 17 25  1  0  0  0  0
 18 19  2  0  0  0  0
 18 24  1  0  0  0  0
 19 20  1  0  0  0  0
 19 23  1  0  0  0  0
 20 21  2  0  0  0  0
 20 22  1  0  0  0  0
 28 29  1  0  0  0  0
 28 35  1  0  0  0  0
 28 36  1  0  0  0  0
 29 30  1  0  0  0  0
 29 34  1  1  0  0  0
 30 31  1  0  0  0  0
 30 32  1  0  0  0  0
 30 33  1  0  0  0  0
 37 38  2  0  0  0  0
 37 43  1  0  0  0  0
 38 39  1  0  0  0  0
 38 48  1  0  0  0  0
 39 40  1  0  0  0  0
 39 41  2  0  0  0  0
 41 42  1  0  0  0  0
 41 47  1  0  0  0  0
 42 43  2  0  0  0  0
 42 46  1  0  0  0  0
 43 44  1  0  0  0  0
 44 45  2  0  0  0  0
M  END
>  <MODEL>
       1

$$$$
