tmp_first_model_14_9.pdb
 OpenBabel08282500413D

 41 43  0  0  1  0  0  0  0  0999 V2000
  -13.1790   -2.9270  -22.9040 C   0  0  0  0  0  0  0  0  0  0  0  0
  -11.9680   -2.0500  -23.2210 C   0  0  1  0  0  0  0  0  0  0  0  0
  -12.1520   -0.6610  -22.6480 C   0  0  0  0  0  0  0  0  0  0  0  0
  -11.3100    0.3520  -22.8400 C   0  0  0  0  0  0  0  0  0  0  0  0
  -10.0170    0.2140  -23.6080 C   0  0  0  0  0  0  0  0  0  0  0  0
   -9.0880   -0.7840  -23.0610 N   0  0  0  0  0  0  0  0  0  0  0  0
   -8.3780   -0.4060  -21.9320 C   0  0  0  0  0  0  0  0  0  0  0  0
   -8.4820    0.7170  -21.4710 O   0  0  0  0  0  0  0  0  0  0  0  0
   -7.4320   -1.4340  -21.2750 C   0  0  0  0  0  0  0  0  0  0  0  0
   -6.5780   -0.8290  -20.1870 C   0  0  0  0  0  0  0  0  0  0  0  0
   -6.8800   -1.0340  -18.8680 C   0  0  0  0  0  0  0  0  0  0  0  0
   -6.2010   -0.5110  -17.8140 N   0  0  0  0  0  0  0  0  0  0  0  0
   -5.1550    0.2290  -18.0730 C   0  0  0  0  0  0  0  0  0  0  0  0
   -4.7190    0.5360  -19.3870 C   0  0  0  0  0  0  0  0  0  0  0  0
   -3.5940    1.3650  -19.6250 C   0  0  0  0  0  0  0  0  0  0  0  0
   -3.2080    1.6580  -20.9030 C   0  0  0  0  0  0  0  0  0  0  0  0
   -3.9330    1.1300  -21.9940 C   0  0  0  0  0  0  0  0  0  0  0  0
   -5.0260    0.3230  -21.7890 C   0  0  0  0  0  0  0  0  0  0  0  0
   -5.4530    0.0020  -20.4760 C   0  0  0  0  0  0  0  0  0  0  0  0
   -5.5770   -0.0660  -22.6380 H   0  0  0  0  0  0  0  0  0  0  0  0
   -3.6230    1.3730  -23.0050 H   0  0  0  0  0  0  0  0  0  0  0  0
   -2.3530    2.3040  -21.0880 H   0  0  0  0  0  0  0  0  0  0  0  0
   -3.0560    1.7760  -18.7730 H   0  0  0  0  0  0  0  0  0  0  0  0
   -4.6010    0.6280  -17.2190 H   0  0  0  0  0  0  0  0  0  0  0  0
   -7.7270   -1.6580  -18.5850 H   0  0  0  0  0  0  0  0  0  0  0  0
   -6.7960   -1.9000  -22.0390 H   0  0  0  0  0  0  0  0  0  0  0  0
   -8.0410   -2.2440  -20.8460 H   0  0  0  0  0  0  0  0  0  0  0  0
   -9.3940   -2.1700  -23.3970 C   0  0  0  0  0  0  0  0  0  0  0  0
  -10.6660   -2.7300  -22.7530 C   0  0  0  0  0  0  0  0  0  0  0  0
  -10.5880   -2.6370  -21.6640 H   0  0  0  0  0  0  0  0  0  0  0  0
  -10.7250   -3.8070  -22.9660 H   0  0  0  0  0  0  0  0  0  0  0  0
   -8.5300   -2.7930  -23.1560 H   0  0  0  0  0  0  0  0  0  0  0  0
   -9.5110   -2.2190  -24.4850 H   0  0  0  0  0  0  0  0  0  0  0  0
  -10.2430   -0.0790  -24.6400 H   0  0  0  0  0  0  0  0  0  0  0  0
   -9.5070    1.1780  -23.6540 H   0  0  0  0  0  0  0  0  0  0  0  0
  -11.4860    1.3330  -22.3990 H   0  0  0  0  0  0  0  0  0  0  0  0
  -13.0270   -0.5170  -22.0130 H   0  0  0  0  0  0  0  0  0  0  0  0
  -11.9080   -1.9540  -24.3150 H   0  0  0  0  0  0  0  0  0  0  0  0
  -13.0980   -3.9090  -23.3850 H   0  0  0  0  0  0  0  0  0  0  0  0
  -13.2640   -3.0900  -21.8220 H   0  0  0  0  0  0  0  0  0  0  0  0
  -14.1070   -2.4570  -23.2510 H   0  0  0  0  0  0  0  0  0  0  0  0
  1  2  1  0  0  0  0
  1 39  1  0  0  0  0
  1 40  1  0  0  0  0
  1 41  1  0  0  0  0
  2  3  1  0  0  0  0
  2 29  1  0  0  0  0
  2 38  1  6  0  0  0
  3  4  2  0  0  0  0
  3 37  1  0  0  0  0
  4  5  1  0  0  0  0
  4 36  1  0  0  0  0
  5  6  1  0  0  0  0
  5 34  1  0  0  0  0
  5 35  1  0  0  0  0
  6  7  1  0  0  0  0
  6 28  1  0  0  0  0
  7  8  2  0  0  0  0
  7  9  1  0  0  0  0
  9 10  1  0  0  0  0
  9 26  1  0  0  0  0
  9 27  1  0  0  0  0
 10 11  2  0  0  0  0
 10 19  1  0  0  0  0
 11 12  1  0  0  0  0
 11 25  1  0  0  0  0
 12 13  2  0  0  0  0
 13 14  1  0  0  0  0
 13 24  1  0  0  0  0
 14 15  2  0  0  0  0
 14 19  1  0  0  0  0
 15 16  1  0  0  0  0
 15 23  1  0  0  0  0
 16 17  2  0  0  0  0
 16 22  1  0  0  0  0
 17 18  1  0  0  0  0
 17 21  1  0  0  0  0
 18 19  2  0  0  0  0
 18 20  1  0  0  0  0
 28 29  1  0  0  0  0
 28 32  1  0  0  0  0
 28 33  1  0  0  0  0
 29 30  1  0  0  0  0
 29 31  1  0  0  0  0
M  END
>  <MODEL>
       1

$$$$
