tmp_first_model_7_29.pdb
 OpenBabel08272520323D

 55 60  0  0  1  0  0  0  0  0999 V2000
  -10.2210   -2.9760  -22.0760 C   0  0  0  0  0  0  0  0  0  0  0  0
   -9.1540   -2.0200  -22.6280 C   0  0  1  0  0  0  0  0  0  0  0  0
   -8.6890   -1.0390  -21.5340 C   0  0  0  0  0  0  0  0  0  0  0  0
   -7.3490   -1.4530  -21.2000 N   0  0  0  0  0  0  0  0  0  0  0  0
   -6.5710   -0.8500  -20.1900 C   0  0  0  0  0  0  0  0  0  0  0  0
   -6.9080   -1.0500  -18.8760 C   0  0  0  0  0  0  0  0  0  0  0  0
   -6.2200   -0.5450  -17.8280 N   0  0  0  0  0  0  0  0  0  0  0  0
   -5.1770    0.2010  -18.0990 C   0  0  0  0  0  0  0  0  0  0  0  0
   -4.7340    0.5040  -19.4180 C   0  0  0  0  0  0  0  0  0  0  0  0
   -3.6120    1.3410  -19.6440 C   0  0  0  0  0  0  0  0  0  0  0  0
   -3.2310    1.6620  -20.9170 C   0  0  0  0  0  0  0  0  0  0  0  0
   -3.9550    1.1600  -22.0240 C   0  0  0  0  0  0  0  0  0  0  0  0
   -5.0370    0.3370  -21.8370 C   0  0  0  0  0  0  0  0  0  0  0  0
   -5.4490   -0.0230  -20.5150 C   0  0  0  0  0  0  0  0  0  0  0  0
   -5.5890   -0.0330  -22.7030 H   0  0  0  0  0  0  0  0  0  0  0  0
   -3.6530    1.4420  -23.0290 H   0  0  0  0  0  0  0  0  0  0  0  0
   -2.3790    2.3150  -21.0850 H   0  0  0  0  0  0  0  0  0  0  0  0
   -3.0880    1.7410  -18.7810 H   0  0  0  0  0  0  0  0  0  0  0  0
   -4.6250    0.6180  -17.2560 H   0  0  0  0  0  0  0  0  0  0  0  0
   -7.7660   -1.6790  -18.6380 H   0  0  0  0  0  0  0  0  0  0  0  0
   -6.8260   -2.4040  -22.0340 C   0  0  0  0  0  0  0  0  0  0  0  0
   -5.7400   -2.9290  -21.8770 O   0  0  0  0  0  0  0  0  0  0  0  0
   -7.8450   -2.6720  -23.1570 C   0  0  1  0  0  0  0  0  0  0  0  0
   -7.9350   -4.1830  -23.3640 C   0  0  0  0  0  0  0  0  0  0  0  0
   -6.6770   -4.6580  -23.8950 N   0  0  0  0  0  0  0  0  0  0  0  0
   -6.2450   -5.9570  -23.4390 C   0  0  0  0  0  0  0  0  0  0  0  0
   -7.1320   -7.0100  -24.0400 C   0  0  0  0  0  0  0  0  0  0  0  0
   -8.4030   -7.4730  -23.6670 C   0  0  0  0  0  0  0  0  0  0  0  0
   -8.9140   -8.1940  -24.6550 N   0  0  0  0  0  0  0  0  0  0  0  0
   -7.9690   -8.1400  -25.5780 N   0  0  0  0  0  0  0  0  0  0  0  0
   -6.8870   -7.4520  -25.2680 N   0  0  0  0  0  0  0  0  0  0  0  0
   -7.9990   -8.7170  -26.4130 H   0  0  0  0  0  0  0  0  0  0  0  0
   -8.9510   -7.3050  -22.7500 H   0  0  0  0  0  0  0  0  0  0  0  0
   -5.2170   -6.0860  -23.7780 H   0  0  0  0  0  0  0  0  0  0  0  0
   -6.2640   -5.9260  -22.3440 H   0  0  0  0  0  0  0  0  0  0  0  0
   -6.2000   -4.1870  -25.0840 C   0  0  0  0  0  0  0  0  0  0  0  0
   -5.4640   -4.8350  -25.8140 O   0  0  0  0  0  0  0  0  0  0  0  0
   -6.6210   -2.7980  -25.3920 C   0  0  0  0  0  0  0  0  0  0  0  0
   -6.1750   -2.2560  -26.5940 C   0  0  0  0  0  0  0  0  0  0  0  0
   -6.4000   -0.9250  -26.8710 C   0  0  0  0  0  0  0  0  0  0  0  0
   -7.0780   -0.1700  -25.9180 C   0  0  0  0  0  0  0  0  0  0  0  0
   -7.2760    1.1370  -26.1630 F   0  0  0  0  0  0  0  0  0  0  0  0
   -7.5560   -0.6980  -24.7340 C   0  0  0  0  0  0  0  0  0  0  0  0
   -7.3550   -2.0540  -24.4630 C   0  0  0  0  0  0  0  0  0  0  0  0
   -8.0850   -0.0510  -24.0410 H   0  0  0  0  0  0  0  0  0  0  0  0
   -6.0370   -0.4530  -27.7760 H   0  0  0  0  0  0  0  0  0  0  0  0
   -5.6300   -2.9150  -27.2650 H   0  0  0  0  0  0  0  0  0  0  0  0
   -8.1210   -4.6940  -22.4170 H   0  0  0  0  0  0  0  0  0  0  0  0
   -8.7590   -4.4220  -24.0510 H   0  0  0  0  0  0  0  0  0  0  0  0
   -9.3320   -1.1070  -20.6630 H   0  0  0  0  0  0  0  0  0  0  0  0
   -8.7010    0.0040  -21.8700 H   0  0  0  0  0  0  0  0  0  0  0  0
   -9.6290   -1.4850  -23.4570 H   0  0  0  0  0  0  0  0  0  0  0  0
   -9.8340   -3.5770  -21.2470 H   0  0  0  0  0  0  0  0  0  0  0  0
  -11.0750   -2.4000  -21.7000 H   0  0  0  0  0  0  0  0  0  0  0  0
  -10.6000   -3.6520  -22.8490 H   0  0  0  0  0  0  0  0  0  0  0  0
  1  2  1  0  0  0  0
  1 53  1  0  0  0  0
  1 54  1  0  0  0  0
  1 55  1  0  0  0  0
  2  3  1  0  0  0  0
  2 23  1  0  0  0  0
  2 52  1  6  0  0  0
  3  4  1  0  0  0  0
  3 50  1  0  0  0  0
  3 51  1  0  0  0  0
  4  5  1  0  0  0  0
  4 21  1  0  0  0  0
  5  6  2  0  0  0  0
  5 14  1  0  0  0  0
  6  7  1  0  0  0  0
  6 20  1  0  0  0  0
  7  8  2  0  0  0  0
  8  9  1  0  0  0  0
  8 19  1  0  0  0  0
  9 10  2  0  0  0  0
  9 14  1  0  0  0  0
 10 11  1  0  0  0  0
 10 18  1  0  0  0  0
 11 12  2  0  0  0  0
 11 17  1  0  0  0  0
 12 13  1  0  0  0  0
 12 16  1  0  0  0  0
 13 14  2  0  0  0  0
 13 15  1  0  0  0  0
 21 22  2  0  0  0  0
 23 21  1  1  0  0  0
 23 24  1  0  0  0  0
 23 44  1  0  0  0  0
 24 25  1  0  0  0  0
 24 48  1  0  0  0  0
 24 49  1  0  0  0  0
 25 26  1  0  0  0  0
 25 36  1  0  0  0  0
 26 27  1  0  0  0  0
 26 34  1  0  0  0  0
 26 35  1  0  0  0  0
 27 28  1  0  0  0  0
 27 31  2  0  0  0  0
 28 29  2  0  0  0  0
 28 33  1  0  0  0  0
 29 30  1  0  0  0  0
 30 31  1  0  0  0  0
 30 32  1  0  0  0  0
 36 37  2  0  0  0  0
 36 38  1  0  0  0  0
 38 39  2  0  0  0  0
 38 44  1  0  0  0  0
 39 40  1  0  0  0  0
 39 47  1  0  0  0  0
 40 41  2  0  0  0  0
 40 46  1  0  0  0  0
 41 42  1  0  0  0  0
 41 43  1  0  0  0  0
 43 44  2  0  0  0  0
 43 45  1  0  0  0  0
M  END
>  <MODEL>
       1

$$$$
