tmp_first_model_20_63.pdb
 OpenBabel08282503553D

 57 61  0  0  1  0  0  0  0  0999 V2000
   -6.7870    3.5580  -23.2900 C   0  0  0  0  0  0  0  0  0  0  0  0
   -7.7210    2.9970  -24.2480 N   0  0  0  0  0  0  0  0  0  0  0  0
   -7.3520    1.8540  -24.8790 C   0  0  0  0  0  0  0  0  0  0  0  0
   -6.2250    1.3840  -24.7940 O   0  0  0  0  0  0  0  0  0  0  0  0
   -8.4550    1.1720  -25.6880 C   0  0  0  0  0  0  0  0  0  0  0  0
   -9.2390    0.3040  -24.8330 N   0  0  0  0  0  0  0  0  0  0  0  0
   -8.7290   -1.0200  -24.5160 C   0  0  0  0  0  0  0  0  0  0  0  0
   -8.9780   -1.4050  -23.0350 C   0  0  2  0  0  0  0  0  0  0  0  0
   -8.1470   -0.5060  -22.0930 C   0  0  0  0  0  0  0  0  0  0  0  0
   -8.1020    0.7070  -22.0980 O   0  0  0  0  0  0  0  0  0  0  0  0
   -7.4340   -1.3080  -21.2290 N   0  0  0  0  0  0  0  0  0  0  0  0
   -6.6200   -0.7920  -20.2000 C   0  0  0  0  0  0  0  0  0  0  0  0
   -6.9080   -1.0650  -18.8850 C   0  0  0  0  0  0  0  0  0  0  0  0
   -6.2220   -0.5700  -17.8260 N   0  0  0  0  0  0  0  0  0  0  0  0
   -5.1870    0.1910  -18.0920 C   0  0  0  0  0  0  0  0  0  0  0  0
   -4.7460    0.5090  -19.4090 C   0  0  0  0  0  0  0  0  0  0  0  0
   -3.6110    1.3340  -19.6360 C   0  0  0  0  0  0  0  0  0  0  0  0
   -3.2000    1.6180  -20.9100 C   0  0  0  0  0  0  0  0  0  0  0  0
   -3.9000    1.0860  -22.0170 C   0  0  0  0  0  0  0  0  0  0  0  0
   -4.9980    0.2840  -21.8270 C   0  0  0  0  0  0  0  0  0  0  0  0
   -5.4660   -0.0060  -20.5100 C   0  0  0  0  0  0  0  0  0  0  0  0
   -5.5260   -0.1000  -22.6940 H   0  0  0  0  0  0  0  0  0  0  0  0
   -3.5940    1.3390  -23.0290 H   0  0  0  0  0  0  0  0  0  0  0  0
   -2.3410    2.2610  -21.0790 H   0  0  0  0  0  0  0  0  0  0  0  0
   -3.0880    1.7370  -18.7740 H   0  0  0  0  0  0  0  0  0  0  0  0
   -4.6360    0.5990  -17.2450 H   0  0  0  0  0  0  0  0  0  0  0  0
   -7.7650   -1.6920  -18.6400 H   0  0  0  0  0  0  0  0  0  0  0  0
   -7.7910   -2.7070  -21.3090 C   0  0  0  0  0  0  0  0  0  0  0  0
   -8.4980   -2.8400  -22.6710 C   0  0  2  0  0  0  0  0  0  0  0  0
   -7.6280   -3.5620  -23.6950 C   0  0  0  0  0  0  0  0  0  0  0  0
   -6.3760   -2.9100  -23.8120 O   0  0  0  0  0  0  0  0  0  0  0  0
   -5.8860   -3.3510  -24.5160 H   0  0  0  0  0  0  0  0  0  0  0  0
   -7.4940   -4.6060  -23.3700 H   0  0  0  0  0  0  0  0  0  0  0  0
   -8.1560   -3.5930  -24.6580 H   0  0  0  0  0  0  0  0  0  0  0  0
   -9.3710   -3.4860  -22.5790 H   0  0  0  0  0  0  0  0  0  0  0  0
   -6.8900   -3.3220  -21.2310 H   0  0  0  0  0  0  0  0  0  0  0  0
   -8.4660   -2.9810  -20.4900 H   0  0  0  0  0  0  0  0  0  0  0  0
  -10.4690   -1.1960  -22.7880 C   0  0  0  0  0  0  0  0  0  0  0  0
  -11.2220   -2.0580  -21.9800 C   0  0  0  0  0  0  0  0  0  0  0  0
  -12.5830   -1.8650  -21.8310 C   0  0  0  0  0  0  0  0  0  0  0  0
  -13.4800   -3.0540  -20.9250 Cl  0  0  0  0  0  0  0  0  0  0  0  0
  -13.2320   -0.7530  -22.3730 C   0  0  0  0  0  0  0  0  0  0  0  0
  -12.4750    0.1320  -23.1220 C   0  0  0  0  0  0  0  0  0  0  0  0
  -11.1290   -0.1140  -23.3820 C   0  0  0  0  0  0  0  0  0  0  0  0
  -10.4190    0.7840  -24.3500 C   0  0  0  0  0  0  0  0  0  0  0  0
  -10.8660    1.8750  -24.6960 O   0  0  0  0  0  0  0  0  0  0  0  0
  -12.8970    1.0230  -23.5720 H   0  0  0  0  0  0  0  0  0  0  0  0
  -14.2900   -0.5770  -22.1930 H   0  0  0  0  0  0  0  0  0  0  0  0
  -10.7640   -2.8720  -21.4280 H   0  0  0  0  0  0  0  0  0  0  0  0
   -7.6650   -1.0430  -24.7510 H   0  0  0  0  0  0  0  0  0  0  0  0
   -9.2280   -1.7660  -25.1490 H   0  0  0  0  0  0  0  0  0  0  0  0
   -9.1430    1.9050  -26.1160 H   0  0  0  0  0  0  0  0  0  0  0  0
   -7.9840    0.5710  -26.4710 H   0  0  0  0  0  0  0  0  0  0  0  0
   -8.7090    3.1410  -24.0830 H   0  0  0  0  0  0  0  0  0  0  0  0
   -6.4270    2.7560  -22.6350 H   0  0  0  0  0  0  0  0  0  0  0  0
   -7.2750    4.3390  -22.7010 H   0  0  0  0  0  0  0  0  0  0  0  0
   -5.9280    3.9900  -23.8120 H   0  0  0  0  0  0  0  0  0  0  0  0
  1  2  1  0  0  0  0
  1 55  1  0  0  0  0
  1 56  1  0  0  0  0
  1 57  1  0  0  0  0
  2  3  1  0  0  0  0
  2 54  1  0  0  0  0
  3  4  2  0  0  0  0
  3  5  1  0  0  0  0
  5  6  1  0  0  0  0
  5 52  1  0  0  0  0
  5 53  1  0  0  0  0
  6  7  1  0  0  0  0
  6 45  1  0  0  0  0
  7  8  1  0  0  0  0
  7 50  1  0  0  0  0
  7 51  1  0  0  0  0
  8  9  1  1  0  0  0
  8 29  1  0  0  0  0
  8 38  1  0  0  0  0
  9 10  2  0  0  0  0
  9 11  1  0  0  0  0
 11 12  1  0  0  0  0
 11 28  1  0  0  0  0
 12 13  2  0  0  0  0
 12 21  1  0  0  0  0
 13 14  1  0  0  0  0
 13 27  1  0  0  0  0
 14 15  2  0  0  0  0
 15 16  1  0  0  0  0
 15 26  1  0  0  0  0
 16 17  2  0  0  0  0
 16 21  1  0  0  0  0
 17 18  1  0  0  0  0
 17 25  1  0  0  0  0
 18 19  2  0  0  0  0
 18 24  1  0  0  0  0
 19 20  1  0  0  0  0
 19 23  1  0  0  0  0
 20 21  2  0  0  0  0
 20 22  1  0  0  0  0
 28 29  1  0  0  0  0
 28 36  1  0  0  0  0
 28 37  1  0  0  0  0
 29 30  1  0  0  0  0
 29 35  1  1  0  0  0
 30 31  1  0  0  0  0
 30 33  1  0  0  0  0
 30 34  1  0  0  0  0
 31 32  1  0  0  0  0
 38 39  2  0  0  0  0
 38 44  1  0  0  0  0
 39 40  1  0  0  0  0
 39 49  1  0  0  0  0
 40 41  1  0  0  0  0
 40 42  2  0  0  0  0
 42 43  1  0  0  0  0
 42 48  1  0  0  0  0
 43 44  2  0  0  0  0
 43 47  1  0  0  0  0
 44 45  1  0  0  0  0
 45 46  2  0  0  0  0
M  END
>  <MODEL>
       1

$$$$
