tmp_first_model_6_0.pdb
 OpenBabel08272519583D

 66 71  0  0  1  0  0  0  0  0999 V2000
   -8.6220    2.7540  -28.4570 C   0  0  0  0  0  0  0  0  0  0  0  0
   -8.6100    2.8490  -27.0010 N   0  0  0  0  0  0  0  0  0  0  0  0
   -7.9470    1.8540  -26.3220 C   0  0  0  0  0  0  0  0  0  0  0  0
   -7.1500    1.0950  -26.8440 O   0  0  0  0  0  0  0  0  0  0  0  0
   -8.2480    1.7920  -24.8200 C   0  0  0  0  0  0  0  0  0  0  0  0
   -9.0700    0.6600  -24.4430 N   0  0  0  0  0  0  0  0  0  0  0  0
   -8.4750   -0.6550  -24.2640 C   0  0  0  0  0  0  0  0  0  0  0  0
   -8.9960   -1.3610  -22.9810 C   0  0  2  0  0  0  0  0  0  0  0  0
   -8.4620   -0.6250  -21.7270 C   0  0  0  0  0  0  0  0  0  0  0  0
   -8.8550    0.4230  -21.2640 O   0  0  0  0  0  0  0  0  0  0  0  0
   -7.4220   -1.3550  -21.2000 N   0  0  0  0  0  0  0  0  0  0  0  0
   -6.6120   -0.8020  -20.1780 C   0  0  0  0  0  0  0  0  0  0  0  0
   -6.9130   -1.0530  -18.8660 C   0  0  0  0  0  0  0  0  0  0  0  0
   -6.2080   -0.5740  -17.8110 N   0  0  0  0  0  0  0  0  0  0  0  0
   -5.1800    0.1980  -18.0730 C   0  0  0  0  0  0  0  0  0  0  0  0
   -4.7600    0.5470  -19.3890 C   0  0  0  0  0  0  0  0  0  0  0  0
   -3.6340    1.3810  -19.6200 C   0  0  0  0  0  0  0  0  0  0  0  0
   -3.2590    1.7040  -20.8950 C   0  0  0  0  0  0  0  0  0  0  0  0
   -3.9960    1.2140  -21.9960 C   0  0  0  0  0  0  0  0  0  0  0  0
   -5.0780    0.3900  -21.7990 C   0  0  0  0  0  0  0  0  0  0  0  0
   -5.4920    0.0370  -20.4840 C   0  0  0  0  0  0  0  0  0  0  0  0
   -5.5960   -0.0240  -22.6600 H   0  0  0  0  0  0  0  0  0  0  0  0
   -3.6810    1.4520  -23.0070 H   0  0  0  0  0  0  0  0  0  0  0  0
   -2.3920    2.3330  -21.0740 H   0  0  0  0  0  0  0  0  0  0  0  0
   -3.0820    1.7520  -18.7610 H   0  0  0  0  0  0  0  0  0  0  0  0
   -4.6160    0.5880  -17.2240 H   0  0  0  0  0  0  0  0  0  0  0  0
   -7.7770   -1.6680  -18.6210 H   0  0  0  0  0  0  0  0  0  0  0  0
   -7.1140   -2.5710  -21.9250 C   0  0  0  0  0  0  0  0  0  0  0  0
   -8.3870   -2.8040  -22.7660 C   0  0  2  0  0  0  0  0  0  0  0  0
   -8.1480   -3.6540  -24.0390 C   0  0  0  0  0  0  0  0  0  0  0  0
   -7.6470   -4.9800  -23.8410 N   0  0  0  0  0  0  0  0  0  0  0  0
   -8.4670   -6.0170  -23.5250 C   0  0  0  0  0  0  0  0  0  0  0  0
  -10.0150   -5.9390  -23.5430 C   0  0  0  0  0  0  0  0  0  0  0  0
   -9.8690   -5.8520  -23.7160 C   0  0  0  0  0  0  0  0  0  0  0  0
   -9.7970   -8.3120  -23.2580 N   0  0  0  0  0  0  0  0  0  0  0  0
   -8.5520   -8.2100  -23.1490 C   0  0  0  0  0  0  0  0  0  0  0  0
   -7.7440   -7.0480  -23.2020 N   0  0  0  0  0  0  0  0  0  0  0  0
   -7.9410   -9.0890  -22.9990 H   0  0  0  0  0  0  0  0  0  0  0  0
  -10.0230   -6.0310  -24.8690 H   0  0  0  0  0  0  0  0  0  0  0  0
  -10.4550   -4.8320  -23.3890 H   0  0  0  0  0  0  0  0  0  0  0  0
   -6.6480   -5.1770  -23.7350 H   0  0  0  0  0  0  0  0  0  0  0  0
   -7.4380   -3.1160  -24.6920 H   0  0  0  0  0  0  0  0  0  0  0  0
   -9.0990   -3.7490  -24.5730 H   0  0  0  0  0  0  0  0  0  0  0  0
   -9.0930   -3.3270  -22.1180 H   0  0  0  0  0  0  0  0  0  0  0  0
   -6.2430   -2.4480  -22.5850 H   0  0  0  0  0  0  0  0  0  0  0  0
   -6.8820   -3.3690  -21.2070 H   0  0  0  0  0  0  0  0  0  0  0  0
  -10.5160   -1.2810  -23.0190 C   0  0  0  0  0  0  0  0  0  0  0  0
  -11.2970   -2.1570  -22.2530 C   0  0  0  0  0  0  0  0  0  0  0  0
  -12.6770   -2.0420  -22.2680 C   0  0  0  0  0  0  0  0  0  0  0  0
  -13.6400   -3.0660  -21.2430 Cl  0  0  0  0  0  0  0  0  0  0  0  0
  -13.3310   -1.1050  -23.0650 C   0  0  0  0  0  0  0  0  0  0  0  0
  -12.5680   -0.2110  -23.7870 C   0  0  0  0  0  0  0  0  0  0  0  0
  -11.1770   -0.2720  -23.7390 C   0  0  0  0  0  0  0  0  0  0  0  0
  -10.4220    0.8280  -24.4190 C   0  0  0  0  0  0  0  0  0  0  0  0
  -10.9760    1.8220  -24.8820 O   0  0  0  0  0  0  0  0  0  0  0  0
  -13.0180    0.5750  -24.3840 H   0  0  0  0  0  0  0  0  0  0  0  0
  -14.4140   -1.0760  -23.0770 H   0  0  0  0  0  0  0  0  0  0  0  0
  -10.8470   -2.9300  -21.6370 H   0  0  0  0  0  0  0  0  0  0  0  0
   -8.7130   -1.2780  -25.1370 H   0  0  0  0  0  0  0  0  0  0  0  0
   -7.3900   -0.5180  -24.2290 H   0  0  0  0  0  0  0  0  0  0  0  0
   -8.7550    2.7010  -24.4870 H   0  0  0  0  0  0  0  0  0  0  0  0
   -7.2890    1.7010  -24.3000 H   0  0  0  0  0  0  0  0  0  0  0  0
   -9.5190    3.0370  -26.5910 H   0  0  0  0  0  0  0  0  0  0  0  0
   -7.6440    3.0070  -28.8680 H   0  0  0  0  0  0  0  0  0  0  0  0
   -9.3610    3.4530  -28.8580 H   0  0  0  0  0  0  0  0  0  0  0  0
   -8.8640    1.7360  -28.7830 H   0  0  0  0  0  0  0  0  0  0  0  0
  1  2  1  0  0  0  0
  1 64  1  0  0  0  0
  1 65  1  0  0  0  0
  1 66  1  0  0  0  0
  2  3  1  0  0  0  0
  2 63  1  0  0  0  0
  3  4  2  0  0  0  0
  3  5  1  0  0  0  0
  5  6  1  0  0  0  0
  5 61  1  0  0  0  0
  5 62  1  0  0  0  0
  6  7  1  0  0  0  0
  6 54  1  0  0  0  0
  7  8  1  0  0  0  0
  7 59  1  0  0  0  0
  7 60  1  0  0  0  0
  8  9  1  1  0  0  0
  8 29  1  0  0  0  0
  8 47  1  0  0  0  0
  9 10  2  0  0  0  0
  9 11  1  0  0  0  0
 11 12  1  0  0  0  0
 11 28  1  0  0  0  0
 12 13  2  0  0  0  0
 12 21  1  0  0  0  0
 13 14  1  0  0  0  0
 13 27  1  0  0  0  0
 14 15  2  0  0  0  0
 15 16  1  0  0  0  0
 15 26  1  0  0  0  0
 16 17  2  0  0  0  0
 16 21  1  0  0  0  0
 17 18  1  0  0  0  0
 17 25  1  0  0  0  0
 18 19  2  0  0  0  0
 18 24  1  0  0  0  0
 19 20  1  0  0  0  0
 19 23  1  0  0  0  0
 20 21  2  0  0  0  0
 20 22  1  0  0  0  0
 28 29  1  0  0  0  0
 28 45  1  0  0  0  0
 28 46  1  0  0  0  0
 29 30  1  0  0  0  0
 29 44  1  1  0  0  0
 30 31  1  0  0  0  0
 30 42  1  0  0  0  0
 30 43  1  0  0  0  0
 31 32  1  0  0  0  0
 31 41  1  0  0  0  0
 32 33  2  0  0  0  0
 32 37  1  0  0  0  0
 33 34  1  0  0  0  0
 33 40  1  0  0  0  0
 34 35  2  0  0  0  0
 34 39  1  0  0  0  0
 35 36  1  0  0  0  0
 36 37  2  0  0  0  0
 36 38  1  0  0  0  0
 47 48  2  0  0  0  0
 47 53  1  0  0  0  0
 48 49  1  0  0  0  0
 48 58  1  0  0  0  0
 49 50  1  0  0  0  0
 49 51  2  0  0  0  0
 51 52  1  0  0  0  0
 51 57  1  0  0  0  0
 52 53  2  0  0  0  0
 52 56  1  0  0  0  0
 53 54  1  0  0  0  0
 54 55  2  0  0  0  0
M  END
>  <MODEL>
       1

$$$$
