tmp_first_model_20_66.pdb
 OpenBabel08282503553D

 44 47  0  0  1  0  0  0  0  0999 V2000
   -7.8530   -0.5970  -24.9400 C   0  0  0  0  0  0  0  0  0  0  0  0
   -8.3650   -2.0240  -25.0940 C   0  0  0  0  0  0  0  0  0  0  0  0
   -8.3270   -2.8450  -23.7880 C   0  0  1  0  0  0  0  0  0  0  0  0
   -8.8860   -4.2160  -24.0600 C   0  0  0  0  0  0  0  0  0  0  0  0
  -10.2470   -4.4860  -24.3880 C   0  0  0  0  0  0  0  0  0  0  0  0
  -10.4510   -5.7570  -24.8260 C   0  0  0  0  0  0  0  0  0  0  0  0
   -8.9760   -6.6660  -24.7960 S   0  0  0  0  0  0  0  0  0  0  0  0
   -8.0860   -5.3150  -24.1770 C   0  0  0  0  0  0  0  0  0  0  0  0
   -6.6100   -5.3360  -23.8910 C   0  0  0  0  0  0  0  0  0  0  0  0
   -6.1010   -3.8940  -23.9430 C   0  0  0  0  0  0  0  0  0  0  0  0
   -6.9830   -2.9790  -23.2290 N   0  0  0  0  0  0  0  0  0  0  0  0
   -6.6410   -2.6670  -21.9310 C   0  0  0  0  0  0  0  0  0  0  0  0
   -5.7590   -3.2720  -21.3420 O   0  0  0  0  0  0  0  0  0  0  0  0
   -7.3840   -1.4960  -21.2760 C   0  0  0  0  0  0  0  0  0  0  0  0
   -6.5780   -0.8410  -20.1860 C   0  0  0  0  0  0  0  0  0  0  0  0
   -6.8830   -1.0550  -18.8660 C   0  0  0  0  0  0  0  0  0  0  0  0
   -6.2080   -0.5410  -17.8050 N   0  0  0  0  0  0  0  0  0  0  0  0
   -5.1680    0.2100  -18.0710 C   0  0  0  0  0  0  0  0  0  0  0  0
   -4.7230    0.5190  -19.3870 C   0  0  0  0  0  0  0  0  0  0  0  0
   -3.5960    1.3440  -19.6210 C   0  0  0  0  0  0  0  0  0  0  0  0
   -3.1950    1.6250  -20.8990 C   0  0  0  0  0  0  0  0  0  0  0  0
   -3.9060    1.0900  -21.9970 C   0  0  0  0  0  0  0  0  0  0  0  0
   -5.0020    0.2880  -21.7940 C   0  0  0  0  0  0  0  0  0  0  0  0
   -5.4440   -0.0220  -20.4790 C   0  0  0  0  0  0  0  0  0  0  0  0
   -5.5460   -0.1010  -22.6500 H   0  0  0  0  0  0  0  0  0  0  0  0
   -3.5910    1.3290  -23.0090 H   0  0  0  0  0  0  0  0  0  0  0  0
   -2.3430    2.2730  -21.0790 H   0  0  0  0  0  0  0  0  0  0  0  0
   -3.0690    1.7530  -18.7600 H   0  0  0  0  0  0  0  0  0  0  0  0
   -4.6220    0.6180  -17.2200 H   0  0  0  0  0  0  0  0  0  0  0  0
   -7.7340   -1.6810  -18.5970 H   0  0  0  0  0  0  0  0  0  0  0  0
   -7.6600   -0.7770  -22.0570 H   0  0  0  0  0  0  0  0  0  0  0  0
   -8.3290   -1.8700  -20.8560 H   0  0  0  0  0  0  0  0  0  0  0  0
   -6.0500   -3.5520  -24.9880 H   0  0  0  0  0  0  0  0  0  0  0  0
   -5.1260   -3.8230  -23.4610 H   0  0  0  0  0  0  0  0  0  0  0  0
   -6.3930   -5.7780  -22.9030 H   0  0  0  0  0  0  0  0  0  0  0  0
   -6.0880   -5.9410  -24.6450 H   0  0  0  0  0  0  0  0  0  0  0  0
  -11.3860   -6.2210  -25.1180 H   0  0  0  0  0  0  0  0  0  0  0  0
  -11.0430   -3.7720  -24.2310 H   0  0  0  0  0  0  0  0  0  0  0  0
   -8.9530   -2.3360  -23.0370 H   0  0  0  0  0  0  0  0  0  0  0  0
   -7.8110   -2.5730  -25.8740 H   0  0  0  0  0  0  0  0  0  0  0  0
   -9.4130   -2.0410  -25.4200 H   0  0  0  0  0  0  0  0  0  0  0  0
   -7.9160   -0.0450  -25.8830 H   0  0  0  0  0  0  0  0  0  0  0  0
   -6.8050   -0.5800  -24.6150 H   0  0  0  0  0  0  0  0  0  0  0  0
   -8.4440   -0.0410  -24.2000 H   0  0  0  0  0  0  0  0  0  0  0  0
  1  2  1  0  0  0  0
  1 42  1  0  0  0  0
  1 43  1  0  0  0  0
  1 44  1  0  0  0  0
  2  3  1  0  0  0  0
  2 40  1  0  0  0  0
  2 41  1  0  0  0  0
  3  4  1  0  0  0  0
  3 11  1  0  0  0  0
  3 39  1  1  0  0  0
  4  5  1  0  0  0  0
  4  8  2  0  0  0  0
  5  6  2  0  0  0  0
  5 38  1  0  0  0  0
  6  7  1  0  0  0  0
  6 37  1  0  0  0  0
  7  8  1  0  0  0  0
  8  9  1  0  0  0  0
  9 10  1  0  0  0  0
  9 35  1  0  0  0  0
  9 36  1  0  0  0  0
 10 11  1  0  0  0  0
 10 33  1  0  0  0  0
 10 34  1  0  0  0  0
 11 12  1  0  0  0  0
 12 13  2  0  0  0  0
 12 14  1  0  0  0  0
 14 15  1  0  0  0  0
 14 31  1  0  0  0  0
 14 32  1  0  0  0  0
 15 16  2  0  0  0  0
 15 24  1  0  0  0  0
 16 17  1  0  0  0  0
 16 30  1  0  0  0  0
 17 18  2  0  0  0  0
 18 19  1  0  0  0  0
 18 29  1  0  0  0  0
 19 20  2  0  0  0  0
 19 24  1  0  0  0  0
 20 21  1  0  0  0  0
 20 28  1  0  0  0  0
 21 22  2  0  0  0  0
 21 27  1  0  0  0  0
 22 23  1  0  0  0  0
 22 26  1  0  0  0  0
 23 24  2  0  0  0  0
 23 25  1  0  0  0  0
M  END
>  <MODEL>
       1

$$$$
