tmp_first_model_5_12.pdb
 OpenBabel08272519223D

 76 82  0  0  1  0  0  0  0  0999 V2000
  -11.7790    1.0470  -24.4030 O   0  0  0  0  0  0  0  0  0  0  0  0
  -11.0020    0.1480  -24.0880 C   0  0  0  0  0  0  0  0  0  0  0  0
  -11.4800   -1.1140  -23.4450 C   0  0  0  0  0  0  0  0  0  0  0  0
  -12.8430   -1.4000  -23.4980 C   0  0  0  0  0  0  0  0  0  0  0  0
  -13.3750   -2.3950  -22.6980 C   0  0  0  0  0  0  0  0  0  0  0  0
  -12.5180   -3.0430  -21.8060 C   0  0  0  0  0  0  0  0  0  0  0  0
  -13.2010   -4.0380  -20.5620 Cl  0  0  0  0  0  0  0  0  0  0  0  0
  -11.1460   -2.8750  -21.8600 C   0  0  0  0  0  0  0  0  0  0  0  0
  -10.5940   -1.9310  -22.7290 C   0  0  0  0  0  0  0  0  0  0  0  0
   -9.0940   -1.7300  -22.8100 C   0  0  1  0  0  0  0  0  0  0  0  0
   -8.8170   -0.9440  -24.1240 C   0  0  0  0  0  0  0  0  0  0  0  0
   -9.6520    0.2340  -24.2660 N   0  0  0  0  0  0  0  0  0  0  0  0
   -9.0690    1.5570  -24.4420 C   0  0  0  0  0  0  0  0  0  0  0  0
   -9.2430    2.1110  -25.8510 C   0  0  0  0  0  0  0  0  0  0  0  0
   -8.6670    1.2420  -26.9000 N   0  3  0  0  0  0  0  0  0  0  0  0
   -9.1310    1.6600  -28.2650 C   0  0  0  0  0  0  0  0  0  0  0  0
   -8.5960    0.6800  -29.3260 C   0  0  0  0  0  0  0  0  0  0  0  0
   -7.6460   -0.2020  -28.7650 O   0  0  0  0  0  0  0  0  0  0  0  0
   -6.6220    0.5330  -28.1290 C   0  0  0  0  0  0  0  0  0  0  0  0
   -7.1580    1.1620  -26.8330 C   0  0  0  0  0  0  0  0  0  0  0  0
   -6.7500    2.1640  -26.6760 H   0  0  0  0  0  0  0  0  0  0  0  0
   -6.8790    0.5400  -25.9800 H   0  0  0  0  0  0  0  0  0  0  0  0
   -6.2260    1.3050  -28.8050 H   0  0  0  0  0  0  0  0  0  0  0  0
   -5.8120   -0.1660  -27.9050 H   0  0  0  0  0  0  0  0  0  0  0  0
   -8.1450    1.2450  -30.1570 H   0  0  0  0  0  0  0  0  0  0  0  0
   -9.3960    0.0610  -29.7390 H   0  0  0  0  0  0  0  0  0  0  0  0
   -8.7720    2.6760  -28.4600 H   0  0  0  0  0  0  0  0  0  0  0  0
  -10.2250    1.6920  -28.2750 H   0  0  0  0  0  0  0  0  0  0  0  0
   -9.0230    0.2800  -26.7420 H   0  0  0  0  0  0  0  0  0  0  0  0
  -10.3110    2.2340  -26.0440 H   0  0  0  0  0  0  0  0  0  0  0  0
   -8.7780    3.1060  -25.8960 H   0  0  0  0  0  0  0  0  0  0  0  0
   -9.5400    2.2410  -23.7290 H   0  0  0  0  0  0  0  0  0  0  0  0
   -8.0080    1.4970  -24.1800 H   0  0  0  0  0  0  0  0  0  0  0  0
   -7.7620   -0.6490  -24.1940 H   0  0  0  0  0  0  0  0  0  0  0  0
   -9.0290   -1.6300  -24.9570 H   0  0  0  0  0  0  0  0  0  0  0  0
   -8.5470   -0.9550  -21.5840 C   0  0  0  0  0  0  0  0  0  0  0  0
   -9.0340    0.0060  -21.0290 O   0  0  0  0  0  0  0  0  0  0  0  0
   -7.3520   -1.5350  -21.2260 N   0  0  0  0  0  0  0  0  0  0  0  0
   -6.5200   -1.0000  -20.2260 C   0  0  0  0  0  0  0  0  0  0  0  0
   -6.8410   -1.1340  -18.9050 C   0  0  0  0  0  0  0  0  0  0  0  0
   -6.0070   -0.8000  -17.8890 N   0  0  0  0  0  0  0  0  0  0  0  0
   -4.8410   -0.2900  -18.2120 C   0  0  0  0  0  0  0  0  0  0  0  0
   -4.4370   -0.0080  -19.5460 C   0  0  0  0  0  0  0  0  0  0  0  0
   -3.2740    0.7610  -19.8110 C   0  0  0  0  0  0  0  0  0  0  0  0
   -3.1600    1.4160  -21.0020 C   0  0  0  0  0  0  0  0  0  0  0  0
   -4.0590    1.1280  -22.0640 C   0  0  0  0  0  0  0  0  0  0  0  0
   -5.0920    0.2450  -21.8770 C   0  0  0  0  0  0  0  0  0  0  0  0
   -5.3350   -0.2950  -20.5860 C   0  0  0  0  0  0  0  0  0  0  0  0
   -5.7230   -0.0430  -22.7130 H   0  0  0  0  0  0  0  0  0  0  0  0
   -3.9020    1.5930  -23.0330 H   0  0  0  0  0  0  0  0  0  0  0  0
   -2.3160    2.0750  -21.1780 H   0  0  0  0  0  0  0  0  0  0  0  0
   -2.5730    0.9040  -18.9970 H   0  0  0  0  0  0  0  0  0  0  0  0
   -4.1900    0.0370  -17.4000 H   0  0  0  0  0  0  0  0  0  0  0  0
   -7.8180   -1.5290  -18.6340 H   0  0  0  0  0  0  0  0  0  0  0  0
   -6.9640   -2.6800  -22.0100 C   0  0  0  0  0  0  0  0  0  0  0  0
   -8.2590   -3.0420  -22.7410 C   0  0  2  0  0  0  0  0  0  0  0  0
   -8.0070   -3.7370  -24.0710 C   0  0  0  0  0  0  0  0  0  0  0  0
   -7.3160   -4.9890  -23.8840 N   0  0  0  0  0  0  0  0  0  0  0  0
   -6.8950   -5.7430  -24.9260 C   0  0  0  0  0  0  0  0  0  0  0  0
   -6.1850   -6.8410  -24.6040 N   0  0  0  0  0  0  0  0  0  0  0  0
   -5.7840   -7.5780  -25.6270 C   0  0  0  0  0  0  0  0  0  0  0  0
   -6.0740   -7.2840  -26.9540 C   0  0  0  0  0  0  0  0  0  0  0  0
   -6.7940   -6.1190  -27.1600 C   0  0  0  0  0  0  0  0  0  0  0  0
   -7.2000   -5.3280  -26.1680 N   0  0  0  0  0  0  0  0  0  0  0  0
   -7.0440   -5.8020  -28.1720 H   0  0  0  0  0  0  0  0  0  0  0  0
   -5.7650   -7.9320  -27.7650 H   0  0  0  0  0  0  0  0  0  0  0  0
   -5.2050   -8.4570  -25.3590 H   0  0  0  0  0  0  0  0  0  0  0  0
   -7.1520   -5.3670  -22.9660 H   0  0  0  0  0  0  0  0  0  0  0  0
   -7.3870   -3.1000  -24.7150 H   0  0  0  0  0  0  0  0  0  0  0  0
   -8.9530   -3.9130  -24.5950 H   0  0  0  0  0  0  0  0  0  0  0  0
   -8.8060   -3.7380  -22.1020 H   0  0  0  0  0  0  0  0  0  0  0  0
   -6.6190   -3.4790  -21.3470 H   0  0  0  0  0  0  0  0  0  0  0  0
   -6.1440   -2.4610  -22.7130 H   0  0  0  0  0  0  0  0  0  0  0  0
  -10.5130   -3.4760  -21.2190 H   0  0  0  0  0  0  0  0  0  0  0  0
  -14.4420   -2.6110  -22.6960 H   0  0  0  0  0  0  0  0  0  0  0  0
  -13.4740   -0.7800  -24.1300 H   0  0  0  0  0  0  0  0  0  0  0  0
  1  2  2  0  0  0  0
  2  3  1  0  0  0  0
  2 12  1  0  0  0  0
  3  4  2  0  0  0  0
  3  9  1  0  0  0  0
  4  5  1  0  0  0  0
  4 76  1  0  0  0  0
  5  6  2  0  0  0  0
  5 75  1  0  0  0  0
  6  7  1  0  0  0  0
  6  8  1  0  0  0  0
  8  9  2  0  0  0  0
  8 74  1  0  0  0  0
 10  9  1  1  0  0  0
 10 11  1  0  0  0  0
 10 36  1  0  0  0  0
 10 56  1  0  0  0  0
 11 12  1  0  0  0  0
 11 34  1  0  0  0  0
 11 35  1  0  0  0  0
 12 13  1  0  0  0  0
 13 14  1  0  0  0  0
 13 32  1  0  0  0  0
 13 33  1  0  0  0  0
 14 15  1  0  0  0  0
 14 30  1  0  0  0  0
 14 31  1  0  0  0  0
 15 16  1  0  0  0  0
 15 20  1  0  0  0  0
 15 29  1  0  0  0  0
 16 17  1  0  0  0  0
 16 27  1  0  0  0  0
 16 28  1  0  0  0  0
 17 18  1  0  0  0  0
 17 25  1  0  0  0  0
 17 26  1  0  0  0  0
 18 19  1  0  0  0  0
 19 20  1  0  0  0  0
 19 23  1  0  0  0  0
 19 24  1  0  0  0  0
 20 21  1  0  0  0  0
 20 22  1  0  0  0  0
 36 37  2  0  0  0  0
 36 38  1  0  0  0  0
 38 39  1  0  0  0  0
 38 55  1  0  0  0  0
 39 40  2  0  0  0  0
 39 48  1  0  0  0  0
 40 41  1  0  0  0  0
 40 54  1  0  0  0  0
 41 42  2  0  0  0  0
 42 43  1  0  0  0  0
 42 53  1  0  0  0  0
 43 44  2  0  0  0  0
 43 48  1  0  0  0  0
 44 45  1  0  0  0  0
 44 52  1  0  0  0  0
 45 46  2  0  0  0  0
 45 51  1  0  0  0  0
 46 47  1  0  0  0  0
 46 50  1  0  0  0  0
 47 48  2  0  0  0  0
 47 49  1  0  0  0  0
 55 56  1  0  0  0  0
 55 72  1  0  0  0  0
 55 73  1  0  0  0  0
 56 57  1  0  0  0  0
 56 71  1  1  0  0  0
 57 58  1  0  0  0  0
 57 69  1  0  0  0  0
 57 70  1  0  0  0  0
 58 59  1  0  0  0  0
 58 68  1  0  0  0  0
 59 60  2  0  0  0  0
 59 64  1  0  0  0  0
 60 61  1  0  0  0  0
 61 62  2  0  0  0  0
 61 67  1  0  0  0  0
 62 63  1  0  0  0  0
 62 66  1  0  0  0  0
 63 64  2  0  0  0  0
 63 65  1  0  0  0  0
M  CHG  1  15   1
M  END
>  <MODEL>
       1

$$$$
