tmp_first_model_8_32.pdb
 OpenBabel08272521063D

 57 62  0  0  1  0  0  0  0  0999 V2000
   -8.2340   -4.1120  -23.5460 C   0  0  0  0  0  0  0  0  0  0  0  0
   -8.5010   -2.9720  -22.5660 C   0  0  1  0  0  0  0  0  0  0  0  0
   -7.3780   -2.7940  -21.5330 C   0  0  0  0  0  0  0  0  0  0  0  0
   -7.4170   -1.3810  -21.2080 N   0  0  0  0  0  0  0  0  0  0  0  0
   -6.6150   -0.8030  -20.1860 C   0  0  0  0  0  0  0  0  0  0  0  0
   -6.8980   -1.0600  -18.8700 C   0  0  0  0  0  0  0  0  0  0  0  0
   -6.1990   -0.5660  -17.8180 N   0  0  0  0  0  0  0  0  0  0  0  0
   -5.1720    0.2050  -18.0830 C   0  0  0  0  0  0  0  0  0  0  0  0
   -4.7400    0.5290  -19.3980 C   0  0  0  0  0  0  0  0  0  0  0  0
   -3.6060    1.3570  -19.6280 C   0  0  0  0  0  0  0  0  0  0  0  0
   -3.2100    1.6460  -20.9040 C   0  0  0  0  0  0  0  0  0  0  0  0
   -3.9320    1.1210  -22.0000 C   0  0  0  0  0  0  0  0  0  0  0  0
   -5.0100    0.3000  -21.8030 C   0  0  0  0  0  0  0  0  0  0  0  0
   -5.4700    0.0060  -20.4910 C   0  0  0  0  0  0  0  0  0  0  0  0
   -5.5160   -0.1360  -22.6580 H   0  0  0  0  0  0  0  0  0  0  0  0
   -3.5940    1.3310  -23.0100 H   0  0  0  0  0  0  0  0  0  0  0  0
   -2.3350    2.2630  -21.0890 H   0  0  0  0  0  0  0  0  0  0  0  0
   -3.0730    1.7600  -18.7690 H   0  0  0  0  0  0  0  0  0  0  0  0
   -4.6260    0.6140  -17.2310 H   0  0  0  0  0  0  0  0  0  0  0  0
   -7.7470   -1.6890  -18.6080 H   0  0  0  0  0  0  0  0  0  0  0  0
   -8.1390   -0.6230  -22.1050 C   0  0  0  0  0  0  0  0  0  0  0  0
   -8.2460    0.5860  -22.0350 O   0  0  0  0  0  0  0  0  0  0  0  0
   -8.7290   -1.5500  -23.1930 C   0  0  1  0  0  0  0  0  0  0  0  0
   -7.9520   -1.2600  -24.5000 C   0  0  0  0  0  0  0  0  0  0  0  0
   -8.5740   -1.8130  -25.7020 N   0  0  0  0  0  0  0  0  0  0  0  0
   -7.6910   -2.0470  -26.8380 C   0  0  0  0  0  0  0  0  0  0  0  0
   -6.9250   -3.3290  -26.7250 C   0  0  0  0  0  0  0  0  0  0  0  0
   -5.6890   -3.4790  -26.2910 N   0  0  0  0  0  0  0  0  0  0  0  0
   -5.4340   -4.8070  -26.3370 N   0  0  0  0  0  0  0  0  0  0  0  0
   -6.4560   -5.4560  -26.7680 N   0  0  0  0  0  0  0  0  0  0  0  0
   -7.4120   -4.5440  -27.0260 N   0  0  0  0  0  0  0  0  0  0  0  0
   -8.7290   -4.9260  -27.5010 C   0  0  0  0  0  0  0  0  0  0  0  0
   -8.6680   -5.9790  -27.7790 H   0  0  0  0  0  0  0  0  0  0  0  0
   -9.4790   -4.7910  -26.7120 H   0  0  0  0  0  0  0  0  0  0  0  0
   -9.0050   -4.3170  -28.3690 H   0  0  0  0  0  0  0  0  0  0  0  0
   -8.3140   -2.0270  -27.7360 H   0  0  0  0  0  0  0  0  0  0  0  0
   -6.9560   -1.2380  -26.8950 H   0  0  0  0  0  0  0  0  0  0  0  0
   -9.9300   -1.8200  -25.9010 C   0  0  0  0  0  0  0  0  0  0  0  0
  -10.4430   -2.1390  -26.9680 O   0  0  0  0  0  0  0  0  0  0  0  0
  -10.7630   -1.4400  -24.7220 C   0  0  0  0  0  0  0  0  0  0  0  0
  -12.1360   -1.2890  -24.9180 C   0  0  0  0  0  0  0  0  0  0  0  0
  -12.9560   -0.9600  -23.8600 C   0  0  0  0  0  0  0  0  0  0  0  0
  -12.3950   -0.8090  -22.6010 C   0  0  0  0  0  0  0  0  0  0  0  0
  -13.2410   -0.4900  -21.6110 F   0  0  0  0  0  0  0  0  0  0  0  0
  -11.0430   -0.9850  -22.3690 C   0  0  0  0  0  0  0  0  0  0  0  0
  -10.2020   -1.2820  -23.4480 C   0  0  0  0  0  0  0  0  0  0  0  0
  -10.6230   -0.8930  -21.3740 H   0  0  0  0  0  0  0  0  0  0  0  0
  -14.0260   -0.8160  -23.9520 H   0  0  0  0  0  0  0  0  0  0  0  0
  -12.5310   -1.4420  -25.9170 H   0  0  0  0  0  0  0  0  0  0  0  0
   -6.9450   -1.6910  -24.4470 H   0  0  0  0  0  0  0  0  0  0  0  0
   -7.8630   -0.1650  -24.5780 H   0  0  0  0  0  0  0  0  0  0  0  0
   -7.5370   -3.3910  -20.6320 H   0  0  0  0  0  0  0  0  0  0  0  0
   -6.3980   -3.0830  -21.9460 H   0  0  0  0  0  0  0  0  0  0  0  0
   -9.4290   -3.1840  -22.0140 H   0  0  0  0  0  0  0  0  0  0  0  0
   -7.2740   -3.9640  -24.0520 H   0  0  0  0  0  0  0  0  0  0  0  0
   -8.1940   -5.0750  -23.0260 H   0  0  0  0  0  0  0  0  0  0  0  0
   -9.0180   -4.1690  -24.3070 H   0  0  0  0  0  0  0  0  0  0  0  0
  1  2  1  0  0  0  0
  1 55  1  0  0  0  0
  1 56  1  0  0  0  0
  1 57  1  0  0  0  0
  2  3  1  0  0  0  0
  2 23  1  0  0  0  0
  2 54  1  1  0  0  0
  3  4  1  0  0  0  0
  3 52  1  0  0  0  0
  3 53  1  0  0  0  0
  4  5  1  0  0  0  0
  4 21  1  0  0  0  0
  5  6  2  0  0  0  0
  5 14  1  0  0  0  0
  6  7  1  0  0  0  0
  6 20  1  0  0  0  0
  7  8  2  0  0  0  0
  8  9  1  0  0  0  0
  8 19  1  0  0  0  0
  9 10  2  0  0  0  0
  9 14  1  0  0  0  0
 10 11  1  0  0  0  0
 10 18  1  0  0  0  0
 11 12  2  0  0  0  0
 11 17  1  0  0  0  0
 12 13  1  0  0  0  0
 12 16  1  0  0  0  0
 13 14  2  0  0  0  0
 13 15  1  0  0  0  0
 21 22  2  0  0  0  0
 23 21  1  1  0  0  0
 23 24  1  0  0  0  0
 23 46  1  0  0  0  0
 24 25  1  0  0  0  0
 24 50  1  0  0  0  0
 24 51  1  0  0  0  0
 25 26  1  0  0  0  0
 25 38  1  0  0  0  0
 26 27  1  0  0  0  0
 26 36  1  0  0  0  0
 26 37  1  0  0  0  0
 27 28  2  0  0  0  0
 27 31  1  0  0  0  0
 28 29  1  0  0  0  0
 29 30  2  0  0  0  0
 30 31  1  0  0  0  0
 31 32  1  0  0  0  0
 32 33  1  0  0  0  0
 32 34  1  0  0  0  0
 32 35  1  0  0  0  0
 38 39  2  0  0  0  0
 38 40  1  0  0  0  0
 40 41  2  0  0  0  0
 40 46  1  0  0  0  0
 41 42  1  0  0  0  0
 41 49  1  0  0  0  0
 42 43  2  0  0  0  0
 42 48  1  0  0  0  0
 43 44  1  0  0  0  0
 43 45  1  0  0  0  0
 45 46  2  0  0  0  0
 45 47  1  0  0  0  0
M  END
>  <MODEL>
       1

$$$$
