tmp_first_model_15_43.pdb
 OpenBabel08282501153D

 67 72  0  0  1  0  0  0  0  0999 V2000
   -7.6020    3.1100  -21.9230 C   0  0  0  0  0  0  0  0  0  0  0  0
   -8.7240    2.6420  -22.7160 N   0  0  0  0  0  0  0  0  0  0  0  0
   -8.3920    1.8710  -23.7940 C   0  0  0  0  0  0  0  0  0  0  0  0
   -7.2220    1.6550  -24.0850 O   0  0  0  0  0  0  0  0  0  0  0  0
   -9.5280    1.2760  -24.6180 C   0  0  0  0  0  0  0  0  0  0  0  0
   -9.9810    0.0420  -24.0090 N   0  0  0  0  0  0  0  0  0  0  0  0
   -9.0790   -1.1010  -23.9750 C   0  0  0  0  0  0  0  0  0  0  0  0
   -9.2130   -1.8860  -22.6450 C   0  0  2  0  0  0  0  0  0  0  0  0
   -8.6590   -1.0100  -21.4940 C   0  0  0  0  0  0  0  0  0  0  0  0
   -9.2160   -0.0660  -20.9690 O   0  0  0  0  0  0  0  0  0  0  0  0
   -7.3880   -1.4460  -21.1880 N   0  0  0  0  0  0  0  0  0  0  0  0
   -6.6120   -0.8380  -20.1710 C   0  0  0  0  0  0  0  0  0  0  0  0
   -6.9310   -1.0530  -18.8520 C   0  0  0  0  0  0  0  0  0  0  0  0
   -6.2350   -0.5530  -17.8030 N   0  0  0  0  0  0  0  0  0  0  0  0
   -5.1940    0.1990  -18.0770 C   0  0  0  0  0  0  0  0  0  0  0  0
   -4.7590    0.5120  -19.3960 C   0  0  0  0  0  0  0  0  0  0  0  0
   -3.6420    1.3540  -19.6360 C   0  0  0  0  0  0  0  0  0  0  0  0
   -3.2650    1.6580  -20.9150 C   0  0  0  0  0  0  0  0  0  0  0  0
   -3.9900    1.1500  -22.0140 C   0  0  0  0  0  0  0  0  0  0  0  0
   -5.0850    0.3400  -21.8110 C   0  0  0  0  0  0  0  0  0  0  0  0
   -5.4870   -0.0150  -20.4910 C   0  0  0  0  0  0  0  0  0  0  0  0
   -5.6640    0.0110  -22.6700 H   0  0  0  0  0  0  0  0  0  0  0  0
   -3.6840    1.4030  -23.0250 H   0  0  0  0  0  0  0  0  0  0  0  0
   -2.4090    2.3020  -21.0930 H   0  0  0  0  0  0  0  0  0  0  0  0
   -3.1070    1.7580  -18.7800 H   0  0  0  0  0  0  0  0  0  0  0  0
   -4.6270    0.6040  -17.2360 H   0  0  0  0  0  0  0  0  0  0  0  0
   -7.7940   -1.6670  -18.6070 H   0  0  0  0  0  0  0  0  0  0  0  0
   -6.9480   -2.5840  -21.9730 C   0  0  0  0  0  0  0  0  0  0  0  0
   -8.2520   -3.1120  -22.6010 C   0  0  2  0  0  0  0  0  0  0  0  0
   -8.0450   -3.8330  -23.9380 C   0  0  0  0  0  0  0  0  0  0  0  0
   -7.2860   -5.0430  -23.7730 N   0  0  0  0  0  0  0  0  0  0  0  0
   -6.9000   -5.8480  -24.8140 C   0  0  0  0  0  0  0  0  0  0  0  0
   -7.3570   -5.5170  -26.4640 S   0  0  0  0  0  0  0  0  0  0  0  0
   -6.4680   -6.9340  -26.9360 C   0  0  0  0  0  0  0  0  0  0  0  0
   -5.8890   -7.5790  -25.9820 N   0  0  0  0  0  0  0  0  0  0  0  0
   -6.1330   -6.9780  -24.7600 C   0  0  0  0  0  0  0  0  0  0  0  0
   -5.5670   -7.5910  -23.5150 C   0  0  0  0  0  0  0  0  0  0  0  0
   -5.0350   -8.5020  -23.7950 H   0  0  0  0  0  0  0  0  0  0  0  0
   -6.3470   -7.8650  -22.7910 H   0  0  0  0  0  0  0  0  0  0  0  0
   -4.8570   -6.9270  -23.0060 H   0  0  0  0  0  0  0  0  0  0  0  0
   -6.4180   -7.2350  -27.9740 H   0  0  0  0  0  0  0  0  0  0  0  0
   -7.0080   -5.3140  -22.8420 H   0  0  0  0  0  0  0  0  0  0  0  0
   -7.5250   -3.1660  -24.6390 H   0  0  0  0  0  0  0  0  0  0  0  0
   -9.0230   -4.0580  -24.3810 H   0  0  0  0  0  0  0  0  0  0  0  0
   -8.6680   -3.8400  -21.8990 H   0  0  0  0  0  0  0  0  0  0  0  0
   -6.4710   -3.3280  -21.3260 H   0  0  0  0  0  0  0  0  0  0  0  0
   -6.2180   -2.2860  -22.7430 H   0  0  0  0  0  0  0  0  0  0  0  0
  -10.6950   -2.1760  -22.4500 C   0  0  0  0  0  0  0  0  0  0  0  0
  -11.1440   -3.2240  -21.6420 C   0  0  0  0  0  0  0  0  0  0  0  0
  -12.4930   -3.3540  -21.3540 C   0  0  0  0  0  0  0  0  0  0  0  0
  -13.0000   -4.5150  -20.1680 Cl  0  0  0  0  0  0  0  0  0  0  0  0
  -13.4630   -2.5330  -21.9230 C   0  0  0  0  0  0  0  0  0  0  0  0
  -13.0350   -1.5150  -22.7420 C   0  0  0  0  0  0  0  0  0  0  0  0
  -11.6770   -1.3160  -22.9730 C   0  0  0  0  0  0  0  0  0  0  0  0
  -11.3080   -0.0870  -23.7300 C   0  0  0  0  0  0  0  0  0  0  0  0
  -12.1340    0.7590  -24.0500 O   0  0  0  0  0  0  0  0  0  0  0  0
  -13.7310   -0.8150  -23.1880 H   0  0  0  0  0  0  0  0  0  0  0  0
  -14.5130   -2.6860  -21.6960 H   0  0  0  0  0  0  0  0  0  0  0  0
  -10.4570   -3.9310  -21.1890 H   0  0  0  0  0  0  0  0  0  0  0  0
   -8.0540   -0.7410  -24.1140 H   0  0  0  0  0  0  0  0  0  0  0  0
   -9.3150   -1.7750  -24.8080 H   0  0  0  0  0  0  0  0  0  0  0  0
  -10.3940    1.9460  -24.7030 H   0  0  0  0  0  0  0  0  0  0  0  0
   -9.1430    1.0720  -25.6220 H   0  0  0  0  0  0  0  0  0  0  0  0
   -9.5920    2.4640  -22.2100 H   0  0  0  0  0  0  0  0  0  0  0  0
   -7.9340    3.8900  -21.2350 H   0  0  0  0  0  0  0  0  0  0  0  0
   -6.8770    3.5450  -22.6120 H   0  0  0  0  0  0  0  0  0  0  0  0
   -7.0990    2.2820  -21.3830 H   0  0  0  0  0  0  0  0  0  0  0  0
  1  2  1  0  0  0  0
  1 65  1  0  0  0  0
  1 66  1  0  0  0  0
  1 67  1  0  0  0  0
  2  3  1  0  0  0  0
  2 64  1  0  0  0  0
  3  4  2  0  0  0  0
  3  5  1  0  0  0  0
  5  6  1  0  0  0  0
  5 62  1  0  0  0  0
  5 63  1  0  0  0  0
  6  7  1  0  0  0  0
  6 55  1  0  0  0  0
  7  8  1  0  0  0  0
  7 60  1  0  0  0  0
  7 61  1  0  0  0  0
  8  9  1  1  0  0  0
  8 29  1  0  0  0  0
  8 48  1  0  0  0  0
  9 10  2  0  0  0  0
  9 11  1  0  0  0  0
 11 12  1  0  0  0  0
 11 28  1  0  0  0  0
 12 13  2  0  0  0  0
 12 21  1  0  0  0  0
 13 14  1  0  0  0  0
 13 27  1  0  0  0  0
 14 15  2  0  0  0  0
 15 16  1  0  0  0  0
 15 26  1  0  0  0  0
 16 17  2  0  0  0  0
 16 21  1  0  0  0  0
 17 18  1  0  0  0  0
 17 25  1  0  0  0  0
 18 19  2  0  0  0  0
 18 24  1  0  0  0  0
 19 20  1  0  0  0  0
 19 23  1  0  0  0  0
 20 21  2  0  0  0  0
 20 22  1  0  0  0  0
 28 29  1  0  0  0  0
 28 46  1  0  0  0  0
 28 47  1  0  0  0  0
 29 30  1  0  0  0  0
 29 45  1  1  0  0  0
 30 31  1  0  0  0  0
 30 43  1  0  0  0  0
 30 44  1  0  0  0  0
 31 32  1  0  0  0  0
 31 42  1  0  0  0  0
 32 33  1  0  0  0  0
 32 36  2  0  0  0  0
 33 34  1  0  0  0  0
 34 35  2  0  0  0  0
 34 41  1  0  0  0  0
 35 36  1  0  0  0  0
 36 37  1  0  0  0  0
 37 38  1  0  0  0  0
 37 39  1  0  0  0  0
 37 40  1  0  0  0  0
 48 49  2  0  0  0  0
 48 54  1  0  0  0  0
 49 50  1  0  0  0  0
 49 59  1  0  0  0  0
 50 51  1  0  0  0  0
 50 52  2  0  0  0  0
 52 53  1  0  0  0  0
 52 58  1  0  0  0  0
 53 54  2  0  0  0  0
 53 57  1  0  0  0  0
 54 55  1  0  0  0  0
 55 56  2  0  0  0  0
M  END
>  <MODEL>
       1

$$$$
