tmp_first_model_16_14.pdb
 OpenBabel08282501503D

 73 78  0  0  1  0  0  0  0  0999 V2000
   -6.9900   -2.9540  -24.1050 C   0  0  0  0  0  0  0  0  0  0  0  0
   -8.1200   -2.7720  -23.0810 C   0  0  1  0  0  0  0  0  0  0  0  0
   -7.4820   -2.7460  -21.6700 C   0  0  0  0  0  0  0  0  0  0  0  0
   -7.5240   -1.3510  -21.2860 N   0  0  0  0  0  0  0  0  0  0  0  0
   -6.6730   -0.8750  -20.2420 C   0  0  0  0  0  0  0  0  0  0  0  0
   -6.8930   -1.3050  -18.9560 C   0  0  0  0  0  0  0  0  0  0  0  0
   -6.1540   -0.9390  -17.8810 N   0  0  0  0  0  0  0  0  0  0  0  0
   -5.1270   -0.1510  -18.0850 C   0  0  0  0  0  0  0  0  0  0  0  0
   -4.7240    0.2980  -19.3700 C   0  0  0  0  0  0  0  0  0  0  0  0
   -3.5400    1.0640  -19.5490 C   0  0  0  0  0  0  0  0  0  0  0  0
   -3.1540    1.4760  -20.7960 C   0  0  0  0  0  0  0  0  0  0  0  0
   -3.9560    1.1600  -21.9140 C   0  0  0  0  0  0  0  0  0  0  0  0
   -5.1050    0.4180  -21.7700 C   0  0  0  0  0  0  0  0  0  0  0  0
   -5.5230   -0.0470  -20.4890 C   0  0  0  0  0  0  0  0  0  0  0  0
   -5.7240    0.1860  -22.6310 H   0  0  0  0  0  0  0  0  0  0  0  0
   -3.6720    1.5270  -22.8970 H   0  0  0  0  0  0  0  0  0  0  0  0
   -2.2510    2.0690  -20.9200 H   0  0  0  0  0  0  0  0  0  0  0  0
   -2.9650    1.3170  -18.6620 H   0  0  0  0  0  0  0  0  0  0  0  0
   -4.5480    0.1630  -17.2130 H   0  0  0  0  0  0  0  0  0  0  0  0
   -7.7300   -1.9680  -18.7390 H   0  0  0  0  0  0  0  0  0  0  0  0
   -8.2750   -0.5700  -22.1340 C   0  0  0  0  0  0  0  0  0  0  0  0
   -8.3720    0.6410  -22.0460 O   0  0  0  0  0  0  0  0  0  0  0  0
   -8.9300   -1.4340  -23.2370 C   0  0  1  0  0  0  0  0  0  0  0  0
   -8.7600   -0.7890  -24.6460 C   0  0  0  0  0  0  0  0  0  0  0  0
   -9.6940    0.2880  -24.9310 N   0  0  0  0  0  0  0  0  0  0  0  0
   -9.2920    1.5160  -25.6040 C   0  0  0  0  0  0  0  0  0  0  0  0
   -9.3170    2.6930  -24.6230 C   0  0  0  0  0  0  0  0  0  0  0  0
   -8.0720    2.7210  -23.8070 N   0  3  0  0  0  0  0  0  0  0  0  0
   -8.2150    3.5060  -22.5430 C   0  0  0  0  0  0  0  0  0  0  0  0
   -6.8880    3.6280  -21.7960 C   0  0  0  0  0  0  0  0  0  0  0  0
   -5.7910    4.0090  -22.6980 N   0  0  0  0  0  0  0  0  0  0  0  0
   -4.4680    4.7800  -22.0570 S   0  0  0  0  0  0  0  0  0  0  0  0
   -3.4180    4.6740  -23.0530 O   0  0  0  0  0  0  0  0  0  0  0  0
   -4.2860    4.3040  -20.6970 O   0  0  0  0  0  0  0  0  0  0  0  0
   -4.9590    6.5020  -21.9650 C   0  0  0  0  0  0  0  0  0  0  0  0
   -4.1990    7.0390  -21.3890 H   0  0  0  0  0  0  0  0  0  0  0  0
   -5.9290    6.5800  -21.4590 H   0  0  0  0  0  0  0  0  0  0  0  0
   -4.9970    6.9040  -22.9840 H   0  0  0  0  0  0  0  0  0  0  0  0
   -6.2150    4.3880  -24.0420 C   0  0  0  0  0  0  0  0  0  0  0  0
   -6.9060    3.1790  -24.6530 C   0  0  0  0  0  0  0  0  0  0  0  0
   -6.2010    2.3440  -24.7550 H   0  0  0  0  0  0  0  0  0  0  0  0
   -7.2790    3.4330  -25.6490 H   0  0  0  0  0  0  0  0  0  0  0  0
   -6.8940    5.2580  -24.0060 H   0  0  0  0  0  0  0  0  0  0  0  0
   -5.3380    4.6480  -24.6350 H   0  0  0  0  0  0  0  0  0  0  0  0
   -6.9960    4.3930  -21.0270 H   0  0  0  0  0  0  0  0  0  0  0  0
   -6.6040    2.6900  -21.2990 H   0  0  0  0  0  0  0  0  0  0  0  0
   -8.6140    4.5080  -22.7540 H   0  0  0  0  0  0  0  0  0  0  0  0
   -8.9520    2.9920  -21.9260 H   0  0  0  0  0  0  0  0  0  0  0  0
   -7.9160    1.7550  -23.4740 H   0  0  0  0  0  0  0  0  0  0  0  0
  -10.1820    2.5940  -23.9590 H   0  0  0  0  0  0  0  0  0  0  0  0
   -9.4340    3.6420  -25.1600 H   0  0  0  0  0  0  0  0  0  0  0  0
   -9.9840    1.6930  -26.4320 H   0  0  0  0  0  0  0  0  0  0  0  0
   -8.2920    1.3690  -26.0350 H   0  0  0  0  0  0  0  0  0  0  0  0
  -11.0180    0.1850  -24.6380 C   0  0  0  0  0  0  0  0  0  0  0  0
  -11.8330    1.0450  -24.9640 O   0  0  0  0  0  0  0  0  0  0  0  0
  -11.3920   -0.9950  -23.8230 C   0  0  0  0  0  0  0  0  0  0  0  0
  -12.7360   -1.3400  -23.7710 C   0  0  0  0  0  0  0  0  0  0  0  0
  -13.1720   -2.2400  -22.8320 C   0  0  0  0  0  0  0  0  0  0  0  0
  -12.2620   -2.7160  -21.8900 C   0  0  0  0  0  0  0  0  0  0  0  0
  -12.9440   -3.6680  -20.6120 Cl  0  0  0  0  0  0  0  0  0  0  0  0
  -10.9070   -2.4250  -21.9640 C   0  0  0  0  0  0  0  0  0  0  0  0
  -10.4360   -1.6210  -23.0090 C   0  0  0  0  0  0  0  0  0  0  0  0
  -10.2070   -2.7890  -21.2190 H   0  0  0  0  0  0  0  0  0  0  0  0
  -14.2120   -2.5390  -22.7640 H   0  0  0  0  0  0  0  0  0  0  0  0
  -13.4340   -0.8570  -24.4480 H   0  0  0  0  0  0  0  0  0  0  0  0
   -8.9060   -1.5890  -25.3850 H   0  0  0  0  0  0  0  0  0  0  0  0
   -7.7520   -0.3800  -24.7600 H   0  0  0  0  0  0  0  0  0  0  0  0
   -6.4370   -3.0900  -21.6980 H   0  0  0  0  0  0  0  0  0  0  0  0
   -8.0040   -3.3930  -20.9540 H   0  0  0  0  0  0  0  0  0  0  0  0
   -8.8170   -3.6120  -23.1710 H   0  0  0  0  0  0  0  0  0  0  0  0
   -7.3590   -3.0520  -25.1290 H   0  0  0  0  0  0  0  0  0  0  0  0
   -6.4180   -3.8570  -23.8710 H   0  0  0  0  0  0  0  0  0  0  0  0
   -6.2910   -2.1070  -24.0710 H   0  0  0  0  0  0  0  0  0  0  0  0
  1  2  1  0  0  0  0
  1 71  1  0  0  0  0
  1 72  1  0  0  0  0
  1 73  1  0  0  0  0
  2  3  1  0  0  0  0
  2 23  1  0  0  0  0
  2 70  1  6  0  0  0
  3  4  1  0  0  0  0
  3 68  1  0  0  0  0
  3 69  1  0  0  0  0
  4  5  1  0  0  0  0
  4 21  1  0  0  0  0
  5  6  2  0  0  0  0
  5 14  1  0  0  0  0
  6  7  1  0  0  0  0
  6 20  1  0  0  0  0
  7  8  2  0  0  0  0
  8  9  1  0  0  0  0
  8 19  1  0  0  0  0
  9 10  2  0  0  0  0
  9 14  1  0  0  0  0
 10 11  1  0  0  0  0
 10 18  1  0  0  0  0
 11 12  2  0  0  0  0
 11 17  1  0  0  0  0
 12 13  1  0  0  0  0
 12 16  1  0  0  0  0
 13 14  2  0  0  0  0
 13 15  1  0  0  0  0
 21 22  2  0  0  0  0
 23 21  1  1  0  0  0
 23 24  1  0  0  0  0
 23 62  1  0  0  0  0
 24 25  1  0  0  0  0
 24 66  1  0  0  0  0
 24 67  1  0  0  0  0
 25 26  1  0  0  0  0
 25 54  1  0  0  0  0
 26 27  1  0  0  0  0
 26 52  1  0  0  0  0
 26 53  1  0  0  0  0
 27 28  1  0  0  0  0
 27 50  1  0  0  0  0
 27 51  1  0  0  0  0
 28 29  1  0  0  0  0
 28 40  1  0  0  0  0
 28 49  1  0  0  0  0
 29 30  1  0  0  0  0
 29 47  1  0  0  0  0
 29 48  1  0  0  0  0
 30 31  1  0  0  0  0
 30 45  1  0  0  0  0
 30 46  1  0  0  0  0
 31 32  1  0  0  0  0
 31 39  1  0  0  0  0
 32 33  2  0  0  0  0
 32 34  2  0  0  0  0
 32 35  1  0  0  0  0
 35 36  1  0  0  0  0
 35 37  1  0  0  0  0
 35 38  1  0  0  0  0
 39 40  1  0  0  0  0
 39 43  1  0  0  0  0
 39 44  1  0  0  0  0
 40 41  1  0  0  0  0
 40 42  1  0  0  0  0
 54 55  2  0  0  0  0
 54 56  1  0  0  0  0
 56 57  2  0  0  0  0
 56 62  1  0  0  0  0
 57 58  1  0  0  0  0
 57 65  1  0  0  0  0
 58 59  2  0  0  0  0
 58 64  1  0  0  0  0
 59 60  1  0  0  0  0
 59 61  1  0  0  0  0
 61 62  2  0  0  0  0
 61 63  1  0  0  0  0
M  CHG  1  28   1
M  END
>  <MODEL>
       1

$$$$
