tmp_first_model_15_53.pdb
 OpenBabel08282501153D

 59 63  0  0  1  0  0  0  0  0999 V2000
  -13.9590   -1.0660  -24.4400 C   0  0  0  0  0  0  0  0  0  0  0  0
  -14.8720   -2.0270  -23.6850 C   0  0  0  0  0  0  0  0  0  0  0  0
  -14.1180   -3.1200  -23.1010 N   0  0  0  0  0  0  0  0  0  0  0  0
  -13.3310   -2.8420  -22.0290 C   0  0  0  0  0  0  0  0  0  0  0  0
  -13.3660   -1.7680  -21.4570 O   0  0  0  0  0  0  0  0  0  0  0  0
  -12.4220   -3.9900  -21.6340 C   0  0  0  0  0  0  0  0  0  0  0  0
  -11.1170   -3.8980  -22.2640 N   0  0  0  0  0  0  0  0  0  0  0  0
   -9.9910   -3.4020  -21.4850 C   0  0  0  0  0  0  0  0  0  0  0  0
   -8.8000   -2.9240  -22.3420 C   0  0  2  0  0  0  0  0  0  0  0  0
   -7.5770   -2.7060  -21.4360 C   0  0  0  0  0  0  0  0  0  0  0  0
   -6.8400   -3.5620  -20.9880 O   0  0  0  0  0  0  0  0  0  0  0  0
   -7.4070   -1.3530  -21.2340 N   0  0  0  0  0  0  0  0  0  0  0  0
   -6.5890   -0.8560  -20.1900 C   0  0  0  0  0  0  0  0  0  0  0  0
   -6.9030   -1.1010  -18.8770 C   0  0  0  0  0  0  0  0  0  0  0  0
   -6.2340   -0.5720  -17.8210 N   0  0  0  0  0  0  0  0  0  0  0  0
   -5.2110    0.2050  -18.0840 C   0  0  0  0  0  0  0  0  0  0  0  0
   -4.7610    0.5150  -19.3990 C   0  0  0  0  0  0  0  0  0  0  0  0
   -3.6330    1.3430  -19.6320 C   0  0  0  0  0  0  0  0  0  0  0  0
   -3.2250    1.6090  -20.9100 C   0  0  0  0  0  0  0  0  0  0  0  0
   -3.9240    1.0660  -22.0110 C   0  0  0  0  0  0  0  0  0  0  0  0
   -5.0220    0.2660  -21.8130 C   0  0  0  0  0  0  0  0  0  0  0  0
   -5.4680   -0.0240  -20.4960 C   0  0  0  0  0  0  0  0  0  0  0  0
   -5.5490   -0.1610  -22.6600 H   0  0  0  0  0  0  0  0  0  0  0  0
   -3.5910    1.2890  -23.0200 H   0  0  0  0  0  0  0  0  0  0  0  0
   -2.3650    2.2480  -21.0870 H   0  0  0  0  0  0  0  0  0  0  0  0
   -3.1140    1.7620  -18.7740 H   0  0  0  0  0  0  0  0  0  0  0  0
   -4.6710    0.6260  -17.2340 H   0  0  0  0  0  0  0  0  0  0  0  0
   -7.7460   -1.7410  -18.6260 H   0  0  0  0  0  0  0  0  0  0  0  0
   -8.4030   -0.5310  -21.9000 C   0  0  0  0  0  0  0  0  0  0  0  0
   -9.0250   -1.4870  -22.9290 C   0  0  2  0  0  0  0  0  0  0  0  0
  -10.4700   -1.1460  -23.2610 C   0  0  0  0  0  0  0  0  0  0  0  0
  -10.5520   -0.1860  -23.7760 H   0  0  0  0  0  0  0  0  0  0  0  0
  -11.0800   -1.1070  -22.3500 H   0  0  0  0  0  0  0  0  0  0  0  0
  -10.8970   -1.9190  -23.9070 H   0  0  0  0  0  0  0  0  0  0  0  0
   -8.4190   -1.4490  -23.8450 H   0  0  0  0  0  0  0  0  0  0  0  0
   -7.9380    0.3400  -22.3740 H   0  0  0  0  0  0  0  0  0  0  0  0
   -9.1530   -0.1570  -21.1840 H   0  0  0  0  0  0  0  0  0  0  0  0
   -8.5340   -3.9580  -23.4030 C   0  0  0  0  0  0  0  0  0  0  0  0
   -7.2550   -4.0910  -23.9480 C   0  0  0  0  0  0  0  0  0  0  0  0
   -7.0280   -5.0160  -24.9480 C   0  0  0  0  0  0  0  0  0  0  0  0
   -5.4440   -5.1400  -25.6450 Cl  0  0  0  0  0  0  0  0  0  0  0  0
   -8.0400   -5.8560  -25.4070 C   0  0  0  0  0  0  0  0  0  0  0  0
   -9.3150   -5.6870  -24.9000 C   0  0  0  0  0  0  0  0  0  0  0  0
   -9.5750   -4.7260  -23.9290 C   0  0  0  0  0  0  0  0  0  0  0  0
  -10.9790   -4.5330  -23.4590 C   0  0  0  0  0  0  0  0  0  0  0  0
  -11.9580   -4.9110  -24.1050 O   0  0  0  0  0  0  0  0  0  0  0  0
  -10.1420   -6.2860  -25.2610 H   0  0  0  0  0  0  0  0  0  0  0  0
   -7.8280   -6.6140  -26.1530 H   0  0  0  0  0  0  0  0  0  0  0  0
   -6.4320   -3.4880  -23.5820 H   0  0  0  0  0  0  0  0  0  0  0  0
   -9.6670   -4.1950  -20.8070 H   0  0  0  0  0  0  0  0  0  0  0  0
  -10.3370   -2.5400  -20.9080 H   0  0  0  0  0  0  0  0  0  0  0  0
  -12.9000   -4.8970  -21.9920 H   0  0  0  0  0  0  0  0  0  0  0  0
  -12.3390   -4.0430  -20.5500 H   0  0  0  0  0  0  0  0  0  0  0  0
  -13.7590   -3.8270  -23.7340 H   0  0  0  0  0  0  0  0  0  0  0  0
  -15.3790   -1.4990  -22.8710 H   0  0  0  0  0  0  0  0  0  0  0  0
  -15.6330   -2.4660  -24.3350 H   0  0  0  0  0  0  0  0  0  0  0  0
  -14.5290   -0.3040  -24.9710 H   0  0  0  0  0  0  0  0  0  0  0  0
  -13.3290   -1.5990  -25.1670 H   0  0  0  0  0  0  0  0  0  0  0  0
  -13.3110   -0.5620  -23.7150 H   0  0  0  0  0  0  0  0  0  0  0  0
  1  2  1  0  0  0  0
  1 57  1  0  0  0  0
  1 58  1  0  0  0  0
  1 59  1  0  0  0  0
  2  3  1  0  0  0  0
  2 55  1  0  0  0  0
  2 56  1  0  0  0  0
  3  4  1  0  0  0  0
  3 54  1  0  0  0  0
  4  5  2  0  0  0  0
  4  6  1  0  0  0  0
  6  7  1  0  0  0  0
  6 52  1  0  0  0  0
  6 53  1  0  0  0  0
  7  8  1  0  0  0  0
  7 45  1  0  0  0  0
  8  9  1  0  0  0  0
  8 50  1  0  0  0  0
  8 51  1  0  0  0  0
  9 10  1  1  0  0  0
  9 30  1  0  0  0  0
  9 38  1  0  0  0  0
 10 11  2  0  0  0  0
 10 12  1  0  0  0  0
 12 13  1  0  0  0  0
 12 29  1  0  0  0  0
 13 14  2  0  0  0  0
 13 22  1  0  0  0  0
 14 15  1  0  0  0  0
 14 28  1  0  0  0  0
 15 16  2  0  0  0  0
 16 17  1  0  0  0  0
 16 27  1  0  0  0  0
 17 18  2  0  0  0  0
 17 22  1  0  0  0  0
 18 19  1  0  0  0  0
 18 26  1  0  0  0  0
 19 20  2  0  0  0  0
 19 25  1  0  0  0  0
 20 21  1  0  0  0  0
 20 24  1  0  0  0  0
 21 22  2  0  0  0  0
 21 23  1  0  0  0  0
 29 30  1  0  0  0  0
 29 36  1  0  0  0  0
 29 37  1  0  0  0  0
 30 31  1  0  0  0  0
 30 35  1  6  0  0  0
 31 32  1  0  0  0  0
 31 33  1  0  0  0  0
 31 34  1  0  0  0  0
 38 39  2  0  0  0  0
 38 44  1  0  0  0  0
 39 40  1  0  0  0  0
 39 49  1  0  0  0  0
 40 41  1  0  0  0  0
 40 42  2  0  0  0  0
 42 43  1  0  0  0  0
 42 48  1  0  0  0  0
 43 44  2  0  0  0  0
 43 47  1  0  0  0  0
 44 45  1  0  0  0  0
 45 46  2  0  0  0  0
M  END
>  <MODEL>
       1

$$$$
