tmp_first_model_16_67.pdb
 OpenBabel08282501503D

 58 63  0  0  1  0  0  0  0  0999 V2000
   -6.4870   -0.2660  -30.5850 C   0  0  0  0  0  0  0  0  0  0  0  0
   -6.3850   -0.2680  -29.0930 C   0  0  0  0  0  0  0  0  0  0  0  0
   -7.0990    0.5820  -28.2020 C   0  0  0  0  0  0  0  0  0  0  0  0
   -6.6790    0.1940  -26.9750 C   0  0  0  0  0  0  0  0  0  0  0  0
   -7.0620    0.6620  -25.6050 C   0  0  0  0  0  0  0  0  0  0  0  0
   -8.1840   -0.0490  -25.0340 N   0  0  0  0  0  0  0  0  0  0  0  0
   -7.9710   -1.3630  -24.4680 C   0  0  0  0  0  0  0  0  0  0  0  0
   -8.7620   -1.5220  -23.1510 C   0  0  2  0  0  0  0  0  0  0  0  0
   -8.1360   -0.6000  -22.0850 C   0  0  0  0  0  0  0  0  0  0  0  0
   -8.2160    0.6040  -22.0140 O   0  0  0  0  0  0  0  0  0  0  0  0
   -7.4250   -1.3790  -21.2080 N   0  0  0  0  0  0  0  0  0  0  0  0
   -6.6210   -0.8200  -20.1930 C   0  0  0  0  0  0  0  0  0  0  0  0
   -6.9190   -1.1030  -18.8840 C   0  0  0  0  0  0  0  0  0  0  0  0
   -6.1690   -0.7110  -17.8310 N   0  0  0  0  0  0  0  0  0  0  0  0
   -5.1070    0.0180  -18.0890 C   0  0  0  0  0  0  0  0  0  0  0  0
   -4.7200    0.4430  -19.3970 C   0  0  0  0  0  0  0  0  0  0  0  0
   -3.6090    1.3050  -19.6210 C   0  0  0  0  0  0  0  0  0  0  0  0
   -3.2050    1.6060  -20.8940 C   0  0  0  0  0  0  0  0  0  0  0  0
   -3.8930    1.0650  -22.0040 C   0  0  0  0  0  0  0  0  0  0  0  0
   -4.9940    0.2680  -21.8130 C   0  0  0  0  0  0  0  0  0  0  0  0
   -5.4640   -0.0310  -20.4980 C   0  0  0  0  0  0  0  0  0  0  0  0
   -5.5120   -0.1410  -22.6750 H   0  0  0  0  0  0  0  0  0  0  0  0
   -3.5430    1.2890  -23.0080 H   0  0  0  0  0  0  0  0  0  0  0  0
   -2.3460    2.2500  -21.0650 H   0  0  0  0  0  0  0  0  0  0  0  0
   -3.0980    1.7290  -18.7600 H   0  0  0  0  0  0  0  0  0  0  0  0
   -4.4920    0.3010  -17.2340 H   0  0  0  0  0  0  0  0  0  0  0  0
   -7.8120   -1.6880  -18.6570 H   0  0  0  0  0  0  0  0  0  0  0  0
   -7.4450   -2.7950  -21.5070 C   0  0  0  0  0  0  0  0  0  0  0  0
   -8.5820   -2.9410  -22.5340 C   0  0  2  0  0  0  0  0  0  0  0  0
   -8.3430   -4.0960  -23.5120 C   0  0  0  0  0  0  0  0  0  0  0  0
   -8.2990   -5.0550  -22.9830 H   0  0  0  0  0  0  0  0  0  0  0  0
   -7.3890   -3.9690  -24.0400 H   0  0  0  0  0  0  0  0  0  0  0  0
   -9.1360   -4.1660  -24.2660 H   0  0  0  0  0  0  0  0  0  0  0  0
   -9.5000   -3.1460  -21.9800 H   0  0  0  0  0  0  0  0  0  0  0  0
   -7.6160   -3.3720  -20.5920 H   0  0  0  0  0  0  0  0  0  0  0  0
   -6.4780   -3.1130  -21.9230 H   0  0  0  0  0  0  0  0  0  0  0  0
  -10.1910   -1.0800  -23.3820 C   0  0  0  0  0  0  0  0  0  0  0  0
  -11.2050   -1.4540  -22.4910 C   0  0  0  0  0  0  0  0  0  0  0  0
  -12.4920   -1.0100  -22.7130 C   0  0  0  0  0  0  0  0  0  0  0  0
  -13.4690   -1.4060  -21.8800 F   0  0  0  0  0  0  0  0  0  0  0  0
  -12.8190   -0.1460  -23.7530 C   0  0  0  0  0  0  0  0  0  0  0  0
  -11.7970    0.3360  -24.5490 C   0  0  0  0  0  0  0  0  0  0  0  0
  -10.5000   -0.1480  -24.3830 C   0  0  0  0  0  0  0  0  0  0  0  0
   -9.4470    0.4110  -25.2840 C   0  0  0  0  0  0  0  0  0  0  0  0
   -9.6930    1.2370  -26.1540 O   0  0  0  0  0  0  0  0  0  0  0  0
  -11.9370    1.1360  -25.2730 H   0  0  0  0  0  0  0  0  0  0  0  0
  -13.8560    0.1230  -23.9160 H   0  0  0  0  0  0  0  0  0  0  0  0
  -11.0030   -2.0060  -21.5790 H   0  0  0  0  0  0  0  0  0  0  0  0
   -8.3070   -2.1300  -25.1850 H   0  0  0  0  0  0  0  0  0  0  0  0
   -6.8940   -1.4870  -24.2870 H   0  0  0  0  0  0  0  0  0  0  0  0
   -6.2090    0.5730  -24.9230 H   0  0  0  0  0  0  0  0  0  0  0  0
   -7.3680    1.7080  -25.6710 H   0  0  0  0  0  0  0  0  0  0  0  0
   -5.7960   -0.8040  -27.0960 O   0  0  0  0  0  0  0  0  0  0  0  0
   -5.6040   -1.0910  -28.4340 N   0  0  0  0  0  0  0  0  0  0  0  0
   -7.8220    1.3510  -28.4320 H   0  0  0  0  0  0  0  0  0  0  0  0
   -7.5130   -0.0210  -30.8780 H   0  0  0  0  0  0  0  0  0  0  0  0
   -6.2210   -1.2350  -31.0180 H   0  0  0  0  0  0  0  0  0  0  0  0
   -5.8290    0.4970  -31.0150 H   0  0  0  0  0  0  0  0  0  0  0  0
  1  2  1  0  0  0  0
  1 56  1  0  0  0  0
  1 57  1  0  0  0  0
  1 58  1  0  0  0  0
  2  3  1  0  0  0  0
  2 54  2  0  0  0  0
  3  4  2  0  0  0  0
  3 55  1  0  0  0  0
  4  5  1  0  0  0  0
  4 53  1  0  0  0  0
  5  6  1  0  0  0  0
  5 51  1  0  0  0  0
  5 52  1  0  0  0  0
  6  7  1  0  0  0  0
  6 44  1  0  0  0  0
  7  8  1  0  0  0  0
  7 49  1  0  0  0  0
  7 50  1  0  0  0  0
  8  9  1  1  0  0  0
  8 29  1  0  0  0  0
  8 37  1  0  0  0  0
  9 10  2  0  0  0  0
  9 11  1  0  0  0  0
 11 12  1  0  0  0  0
 11 28  1  0  0  0  0
 12 13  2  0  0  0  0
 12 21  1  0  0  0  0
 13 14  1  0  0  0  0
 13 27  1  0  0  0  0
 14 15  2  0  0  0  0
 15 16  1  0  0  0  0
 15 26  1  0  0  0  0
 16 17  2  0  0  0  0
 16 21  1  0  0  0  0
 17 18  1  0  0  0  0
 17 25  1  0  0  0  0
 18 19  2  0  0  0  0
 18 24  1  0  0  0  0
 19 20  1  0  0  0  0
 19 23  1  0  0  0  0
 20 21  2  0  0  0  0
 20 22  1  0  0  0  0
 28 29  1  0  0  0  0
 28 35  1  0  0  0  0
 28 36  1  0  0  0  0
 29 30  1  0  0  0  0
 29 34  1  1  0  0  0
 30 31  1  0  0  0  0
 30 32  1  0  0  0  0
 30 33  1  0  0  0  0
 37 38  2  0  0  0  0
 37 43  1  0  0  0  0
 38 39  1  0  0  0  0
 38 48  1  0  0  0  0
 39 40  1  0  0  0  0
 39 41  2  0  0  0  0
 41 42  1  0  0  0  0
 41 47  1  0  0  0  0
 42 43  2  0  0  0  0
 42 46  1  0  0  0  0
 43 44  1  0  0  0  0
 44 45  2  0  0  0  0
 53 54  1  0  0  0  0
M  END
>  <MODEL>
       1

$$$$
