tmp_first_model_18_28.pdb
 OpenBabel08282502533D

 64 68  0  0  1  0  0  0  0  0999 V2000
   -9.7640    1.1470  -29.2170 C   0  0  0  0  0  0  0  0  0  0  0  0
   -9.5760    1.4570  -27.8160 N   0  0  0  0  0  0  0  0  0  0  0  0
   -8.5720    0.8300  -27.1380 C   0  0  0  0  0  0  0  0  0  0  0  0
   -7.7340    0.1230  -27.6760 O   0  0  0  0  0  0  0  0  0  0  0  0
   -8.6240    1.0450  -25.6180 C   0  0  0  0  0  0  0  0  0  0  0  0
   -9.3070   -0.0710  -24.9970 N   0  0  0  0  0  0  0  0  0  0  0  0
   -8.5700   -1.2480  -24.5800 C   0  0  0  0  0  0  0  0  0  0  0  0
   -8.9440   -1.6480  -23.1350 C   0  0  2  0  0  0  0  0  0  0  0  0
   -8.2710   -0.6390  -22.1540 C   0  0  0  0  0  0  0  0  0  0  0  0
   -8.4130    0.5630  -22.1300 O   0  0  0  0  0  0  0  0  0  0  0  0
   -7.4350   -1.3460  -21.3050 N   0  0  0  0  0  0  0  0  0  0  0  0
   -6.6540   -0.7770  -20.2620 C   0  0  0  0  0  0  0  0  0  0  0  0
   -6.9460   -1.0600  -18.9500 C   0  0  0  0  0  0  0  0  0  0  0  0
   -6.2740   -0.5750  -17.8760 N   0  0  0  0  0  0  0  0  0  0  0  0
   -5.2450    0.2000  -18.1120 C   0  0  0  0  0  0  0  0  0  0  0  0
   -4.7860    0.5320  -19.4180 C   0  0  0  0  0  0  0  0  0  0  0  0
   -3.6440    1.3510  -19.6150 C   0  0  0  0  0  0  0  0  0  0  0  0
   -3.1950    1.6130  -20.8800 C   0  0  0  0  0  0  0  0  0  0  0  0
   -3.8570    1.0600  -21.9980 C   0  0  0  0  0  0  0  0  0  0  0  0
   -4.9690    0.2720  -21.8310 C   0  0  0  0  0  0  0  0  0  0  0  0
   -5.4830    0.0110  -20.5330 C   0  0  0  0  0  0  0  0  0  0  0  0
   -5.4580   -0.1700  -22.6920 H   0  0  0  0  0  0  0  0  0  0  0  0
   -3.4820    1.2580  -22.9970 H   0  0  0  0  0  0  0  0  0  0  0  0
   -2.3240    2.2430  -21.0330 H   0  0  0  0  0  0  0  0  0  0  0  0
   -3.1390    1.7550  -18.7420 H   0  0  0  0  0  0  0  0  0  0  0  0
   -4.7040    0.5870  -17.2480 H   0  0  0  0  0  0  0  0  0  0  0  0
   -7.7920   -1.7010  -18.7080 H   0  0  0  0  0  0  0  0  0  0  0  0
   -7.6320   -2.7740  -21.3680 C   0  0  0  0  0  0  0  0  0  0  0  0
   -8.3490   -3.0210  -22.7080 C   0  0  2  0  0  0  0  0  0  0  0  0
   -7.4790   -3.7410  -23.7530 C   0  0  0  0  0  0  0  0  0  0  0  0
   -7.1250   -5.4230  -23.2470 S   0  0  0  0  0  0  0  0  0  0  0  0
   -5.8180   -5.4700  -22.6090 O   0  0  0  0  0  0  0  0  0  0  0  0
   -8.2910   -5.9470  -22.5440 O   0  0  0  0  0  0  0  0  0  0  0  0
   -7.0200   -6.1820  -24.7460 N   0  0  0  0  0  0  0  0  0  0  0  0
   -6.6490   -7.6000  -24.6280 C   0  0  0  0  0  0  0  0  0  0  0  0
   -5.6690   -7.6660  -24.1540 H   0  0  0  0  0  0  0  0  0  0  0  0
   -7.3750   -8.1810  -24.0450 H   0  0  0  0  0  0  0  0  0  0  0  0
   -6.5850   -8.0020  -25.6400 H   0  0  0  0  0  0  0  0  0  0  0  0
   -7.9240   -6.0940  -25.2130 H   0  0  0  0  0  0  0  0  0  0  0  0
   -8.0380   -3.8610  -24.6860 H   0  0  0  0  0  0  0  0  0  0  0  0
   -6.5300   -3.2460  -23.9820 H   0  0  0  0  0  0  0  0  0  0  0  0
   -9.1720   -3.7180  -22.5490 H   0  0  0  0  0  0  0  0  0  0  0  0
   -8.2800   -3.0950  -20.5430 H   0  0  0  0  0  0  0  0  0  0  0  0
   -6.6740   -3.2990  -21.2750 H   0  0  0  0  0  0  0  0  0  0  0  0
  -10.4770   -1.6480  -23.0450 C   0  0  0  0  0  0  0  0  0  0  0  0
  -11.1410   -2.3720  -22.0390 C   0  0  0  0  0  0  0  0  0  0  0  0
  -12.5230   -2.3480  -21.9480 C   0  0  0  0  0  0  0  0  0  0  0  0
  -13.3040   -3.2640  -20.6830 Cl  0  0  0  0  0  0  0  0  0  0  0  0
  -13.3150   -1.6120  -22.8240 C   0  0  0  0  0  0  0  0  0  0  0  0
  -12.6730   -0.8600  -23.7850 C   0  0  0  0  0  0  0  0  0  0  0  0
  -11.2820   -0.8990  -23.9130 C   0  0  0  0  0  0  0  0  0  0  0  0
  -10.6660   -0.0380  -24.9600 C   0  0  0  0  0  0  0  0  0  0  0  0
  -11.3280    0.7120  -25.6810 O   0  0  0  0  0  0  0  0  0  0  0  0
  -13.2330   -0.2350  -24.4690 H   0  0  0  0  0  0  0  0  0  0  0  0
  -14.3970   -1.6400  -22.7440 H   0  0  0  0  0  0  0  0  0  0  0  0
  -10.6170   -2.9560  -21.2880 H   0  0  0  0  0  0  0  0  0  0  0  0
   -7.5070   -1.0140  -24.6490 H   0  0  0  0  0  0  0  0  0  0  0  0
   -8.7880   -2.0860  -25.2560 H   0  0  0  0  0  0  0  0  0  0  0  0
   -7.6160    1.1340  -25.1910 H   0  0  0  0  0  0  0  0  0  0  0  0
   -9.1780    1.9580  -25.3710 H   0  0  0  0  0  0  0  0  0  0  0  0
  -10.4080    1.6520  -27.2710 H   0  0  0  0  0  0  0  0  0  0  0  0
   -9.9970    0.0860  -29.3790 H   0  0  0  0  0  0  0  0  0  0  0  0
  -10.5820    1.7590  -29.6060 H   0  0  0  0  0  0  0  0  0  0  0  0
   -8.8420    1.3790  -29.7540 H   0  0  0  0  0  0  0  0  0  0  0  0
  1  2  1  0  0  0  0
  1 62  1  0  0  0  0
  1 63  1  0  0  0  0
  1 64  1  0  0  0  0
  2  3  1  0  0  0  0
  2 61  1  0  0  0  0
  3  4  2  0  0  0  0
  3  5  1  0  0  0  0
  5  6  1  0  0  0  0
  5 59  1  0  0  0  0
  5 60  1  0  0  0  0
  6  7  1  0  0  0  0
  6 52  1  0  0  0  0
  7  8  1  0  0  0  0
  7 57  1  0  0  0  0
  7 58  1  0  0  0  0
  8  9  1  1  0  0  0
  8 29  1  0  0  0  0
  8 45  1  0  0  0  0
  9 10  2  0  0  0  0
  9 11  1  0  0  0  0
 11 12  1  0  0  0  0
 11 28  1  0  0  0  0
 12 13  2  0  0  0  0
 12 21  1  0  0  0  0
 13 14  1  0  0  0  0
 13 27  1  0  0  0  0
 14 15  2  0  0  0  0
 15 16  1  0  0  0  0
 15 26  1  0  0  0  0
 16 17  2  0  0  0  0
 16 21  1  0  0  0  0
 17 18  1  0  0  0  0
 17 25  1  0  0  0  0
 18 19  2  0  0  0  0
 18 24  1  0  0  0  0
 19 20  1  0  0  0  0
 19 23  1  0  0  0  0
 20 21  2  0  0  0  0
 20 22  1  0  0  0  0
 28 29  1  0  0  0  0
 28 43  1  0  0  0  0
 28 44  1  0  0  0  0
 29 30  1  0  0  0  0
 29 42  1  1  0  0  0
 30 31  1  0  0  0  0
 30 40  1  0  0  0  0
 30 41  1  0  0  0  0
 31 32  2  0  0  0  0
 31 33  2  0  0  0  0
 31 34  1  0  0  0  0
 34 35  1  0  0  0  0
 34 39  1  0  0  0  0
 35 36  1  0  0  0  0
 35 37  1  0  0  0  0
 35 38  1  0  0  0  0
 45 46  2  0  0  0  0
 45 51  1  0  0  0  0
 46 47  1  0  0  0  0
 46 56  1  0  0  0  0
 47 48  1  0  0  0  0
 47 49  2  0  0  0  0
 49 50  1  0  0  0  0
 49 55  1  0  0  0  0
 50 51  2  0  0  0  0
 50 54  1  0  0  0  0
 51 52  1  0  0  0  0
 52 53  2  0  0  0  0
M  END
>  <MODEL>
       1

$$$$
