tmp_first_model_18_12.pdb
 OpenBabel08282502533D

 76 82  0  0  1  0  0  0  0  0999 V2000
  -10.3260    1.1810  -25.8640 O   0  0  0  0  0  0  0  0  0  0  0  0
   -9.9800    0.2530  -25.1340 C   0  0  0  0  0  0  0  0  0  0  0  0
  -10.9750   -0.5370  -24.3430 C   0  0  0  0  0  0  0  0  0  0  0  0
  -12.3350   -0.3740  -24.6230 C   0  0  0  0  0  0  0  0  0  0  0  0
  -13.2910   -0.9900  -23.8340 C   0  0  0  0  0  0  0  0  0  0  0  0
  -12.8690   -1.7810  -22.7670 C   0  0  0  0  0  0  0  0  0  0  0  0
  -14.0470   -2.5290  -21.7240 Cl  0  0  0  0  0  0  0  0  0  0  0  0
  -11.5220   -1.9680  -22.4990 C   0  0  0  0  0  0  0  0  0  0  0  0
  -10.5370   -1.3710  -23.3030 C   0  0  0  0  0  0  0  0  0  0  0  0
   -9.0560   -1.5790  -23.0260 C   0  0  1  0  0  0  0  0  0  0  0  0
   -8.3050   -1.3640  -24.3650 C   0  0  0  0  0  0  0  0  0  0  0  0
   -8.6740   -0.1150  -24.9980 N   0  0  0  0  0  0  0  0  0  0  0  0
   -7.6710    0.6780  -25.6740 C   0  0  0  0  0  0  0  0  0  0  0  0
   -7.1840    1.8150  -24.7840 C   0  0  0  0  0  0  0  0  0  0  0  0
   -6.1730    2.6490  -25.4650 N   0  3  0  0  0  0  0  0  0  0  0  0
   -4.9480    1.8650  -25.8910 C   0  0  0  0  0  0  0  0  0  0  0  0
   -3.8200    2.8530  -26.1990 C   0  0  0  0  0  0  0  0  0  0  0  0
   -4.3880    4.0720  -26.6310 O   0  0  0  0  0  0  0  0  0  0  0  0
   -4.9130    4.7770  -25.5220 C   0  0  0  0  0  0  0  0  0  0  0  0
   -5.8010    3.8580  -24.6640 C   0  0  0  0  0  0  0  0  0  0  0  0
   -6.7150    4.3650  -24.3460 H   0  0  0  0  0  0  0  0  0  0  0  0
   -5.2750    3.5250  -23.7600 H   0  0  0  0  0  0  0  0  0  0  0  0
   -5.4730    5.6190  -25.9360 H   0  0  0  0  0  0  0  0  0  0  0  0
   -4.0940    5.1760  -24.9050 H   0  0  0  0  0  0  0  0  0  0  0  0
   -3.1940    3.0200  -25.3080 H   0  0  0  0  0  0  0  0  0  0  0  0
   -3.1800    2.4820  -27.0040 H   0  0  0  0  0  0  0  0  0  0  0  0
   -5.2020    1.2990  -26.7900 H   0  0  0  0  0  0  0  0  0  0  0  0
   -4.6720    1.1600  -25.0990 H   0  0  0  0  0  0  0  0  0  0  0  0
   -6.6030    3.0100  -26.3370 H   0  0  0  0  0  0  0  0  0  0  0  0
   -8.0480    2.4360  -24.5180 H   0  0  0  0  0  0  0  0  0  0  0  0
   -6.7700    1.4170  -23.8470 H   0  0  0  0  0  0  0  0  0  0  0  0
   -8.1340    1.1010  -26.5670 H   0  0  0  0  0  0  0  0  0  0  0  0
   -6.8490    0.0250  -25.9910 H   0  0  0  0  0  0  0  0  0  0  0  0
   -7.2220   -1.3720  -24.1890 H   0  0  0  0  0  0  0  0  0  0  0  0
   -8.5570   -2.1900  -25.0400 H   0  0  0  0  0  0  0  0  0  0  0  0
   -8.4650   -0.6060  -21.9700 C   0  0  0  0  0  0  0  0  0  0  0  0
   -8.7180    0.5670  -21.7950 O   0  0  0  0  0  0  0  0  0  0  0  0
   -7.5140   -1.3060  -21.2620 N   0  0  0  0  0  0  0  0  0  0  0  0
   -6.7310   -0.7470  -20.2370 C   0  0  0  0  0  0  0  0  0  0  0  0
   -7.0310   -1.0450  -18.9320 C   0  0  0  0  0  0  0  0  0  0  0  0
   -6.3420   -0.5790  -17.8660 N   0  0  0  0  0  0  0  0  0  0  0  0
   -5.3090    0.1880  -18.1280 C   0  0  0  0  0  0  0  0  0  0  0  0
   -4.8650    0.5300  -19.4380 C   0  0  0  0  0  0  0  0  0  0  0  0
   -3.7160    1.3340  -19.6500 C   0  0  0  0  0  0  0  0  0  0  0  0
   -3.2680    1.5860  -20.9170 C   0  0  0  0  0  0  0  0  0  0  0  0
   -3.9470    1.0480  -22.0330 C   0  0  0  0  0  0  0  0  0  0  0  0
   -5.0770    0.2830  -21.8580 C   0  0  0  0  0  0  0  0  0  0  0  0
   -5.5750    0.0260  -20.5470 C   0  0  0  0  0  0  0  0  0  0  0  0
   -5.5790   -0.1350  -22.7270 H   0  0  0  0  0  0  0  0  0  0  0  0
   -3.5670    1.2340  -23.0340 H   0  0  0  0  0  0  0  0  0  0  0  0
   -2.3830    2.1970  -21.0650 H   0  0  0  0  0  0  0  0  0  0  0  0
   -3.2060    1.7270  -18.7770 H   0  0  0  0  0  0  0  0  0  0  0  0
   -4.7470    0.5590  -17.2750 H   0  0  0  0  0  0  0  0  0  0  0  0
   -7.8830   -1.6920  -18.7200 H   0  0  0  0  0  0  0  0  0  0  0  0
   -7.3960   -2.6980  -21.6070 C   0  0  0  0  0  0  0  0  0  0  0  0
   -8.6920   -2.9580  -22.3730 C   0  0  2  0  0  0  0  0  0  0  0  0
   -8.5710   -4.1710  -23.2860 C   0  0  0  0  0  0  0  0  0  0  0  0
   -9.7950   -4.3970  -24.0230 N   0  0  0  0  0  0  0  0  0  0  0  0
   -9.8370   -5.2510  -25.0740 C   0  0  0  0  0  0  0  0  0  0  0  0
  -10.9480   -5.2220  -25.8290 N   0  0  0  0  0  0  0  0  0  0  0  0
  -10.9970   -6.0920  -26.8280 C   0  0  0  0  0  0  0  0  0  0  0  0
   -9.9620   -6.9770  -27.1050 C   0  0  0  0  0  0  0  0  0  0  0  0
   -8.8560   -6.8990  -26.2710 C   0  0  0  0  0  0  0  0  0  0  0  0
   -8.7690   -6.0470  -25.2540 N   0  0  0  0  0  0  0  0  0  0  0  0
   -7.9890   -7.5420  -26.4270 H   0  0  0  0  0  0  0  0  0  0  0  0
  -10.0040   -7.6810  -27.9210 H   0  0  0  0  0  0  0  0  0  0  0  0
  -11.9050   -6.0720  -27.4320 H   0  0  0  0  0  0  0  0  0  0  0  0
  -10.5340   -3.7070  -24.0100 H   0  0  0  0  0  0  0  0  0  0  0  0
   -8.3400   -5.0720  -22.7050 H   0  0  0  0  0  0  0  0  0  0  0  0
   -7.7330   -4.0430  -23.9860 H   0  0  0  0  0  0  0  0  0  0  0  0
   -9.4690   -3.1740  -21.6330 H   0  0  0  0  0  0  0  0  0  0  0  0
   -6.5100   -2.8890  -22.2350 H   0  0  0  0  0  0  0  0  0  0  0  0
   -7.2820   -3.3020  -20.7020 H   0  0  0  0  0  0  0  0  0  0  0  0
  -11.2590   -2.5690  -21.6440 H   0  0  0  0  0  0  0  0  0  0  0  0
  -14.3460   -0.8220  -24.0150 H   0  0  0  0  0  0  0  0  0  0  0  0
  -12.6180    0.2750  -25.4490 H   0  0  0  0  0  0  0  0  0  0  0  0
  1  2  2  0  0  0  0
  2  3  1  0  0  0  0
  2 12  1  0  0  0  0
  3  4  2  0  0  0  0
  3  9  1  0  0  0  0
  4  5  1  0  0  0  0
  4 76  1  0  0  0  0
  5  6  2  0  0  0  0
  5 75  1  0  0  0  0
  6  7  1  0  0  0  0
  6  8  1  0  0  0  0
  8  9  2  0  0  0  0
  8 74  1  0  0  0  0
 10  9  1  6  0  0  0
 10 11  1  0  0  0  0
 10 36  1  0  0  0  0
 10 56  1  0  0  0  0
 11 12  1  0  0  0  0
 11 34  1  0  0  0  0
 11 35  1  0  0  0  0
 12 13  1  0  0  0  0
 13 14  1  0  0  0  0
 13 32  1  0  0  0  0
 13 33  1  0  0  0  0
 14 15  1  0  0  0  0
 14 30  1  0  0  0  0
 14 31  1  0  0  0  0
 15 16  1  0  0  0  0
 15 20  1  0  0  0  0
 15 29  1  0  0  0  0
 16 17  1  0  0  0  0
 16 27  1  0  0  0  0
 16 28  1  0  0  0  0
 17 18  1  0  0  0  0
 17 25  1  0  0  0  0
 17 26  1  0  0  0  0
 18 19  1  0  0  0  0
 19 20  1  0  0  0  0
 19 23  1  0  0  0  0
 19 24  1  0  0  0  0
 20 21  1  0  0  0  0
 20 22  1  0  0  0  0
 36 37  2  0  0  0  0
 36 38  1  0  0  0  0
 38 39  1  0  0  0  0
 38 55  1  0  0  0  0
 39 40  2  0  0  0  0
 39 48  1  0  0  0  0
 40 41  1  0  0  0  0
 40 54  1  0  0  0  0
 41 42  2  0  0  0  0
 42 43  1  0  0  0  0
 42 53  1  0  0  0  0
 43 44  2  0  0  0  0
 43 48  1  0  0  0  0
 44 45  1  0  0  0  0
 44 52  1  0  0  0  0
 45 46  2  0  0  0  0
 45 51  1  0  0  0  0
 46 47  1  0  0  0  0
 46 50  1  0  0  0  0
 47 48  2  0  0  0  0
 47 49  1  0  0  0  0
 55 56  1  0  0  0  0
 55 72  1  0  0  0  0
 55 73  1  0  0  0  0
 56 57  1  0  0  0  0
 56 71  1  1  0  0  0
 57 58  1  0  0  0  0
 57 69  1  0  0  0  0
 57 70  1  0  0  0  0
 58 59  1  0  0  0  0
 58 68  1  0  0  0  0
 59 60  2  0  0  0  0
 59 64  1  0  0  0  0
 60 61  1  0  0  0  0
 61 62  2  0  0  0  0
 61 67  1  0  0  0  0
 62 63  1  0  0  0  0
 62 66  1  0  0  0  0
 63 64  2  0  0  0  0
 63 65  1  0  0  0  0
M  CHG  1  15   1
M  END
>  <MODEL>
       1

$$$$
