tmp_first_model_17_56.pdb
 OpenBabel08282502223D

 57 62  0  0  1  0  0  0  0  0999 V2000
  -10.0330   -0.8010  -23.7010 C   0  0  0  0  0  0  0  0  0  0  0  0
   -8.7430   -1.3700  -23.1220 C   0  0  1  0  0  0  0  0  0  0  0  0
   -8.2480   -0.5270  -21.9410 C   0  0  0  0  0  0  0  0  0  0  0  0
   -7.3240   -1.4170  -21.2630 N   0  0  0  0  0  0  0  0  0  0  0  0
   -6.5540   -0.9510  -20.1730 C   0  0  0  0  0  0  0  0  0  0  0  0
   -6.8780   -1.2280  -18.8670 C   0  0  0  0  0  0  0  0  0  0  0  0
   -6.2600   -0.6610  -17.7960 N   0  0  0  0  0  0  0  0  0  0  0  0
   -5.2750    0.1740  -18.0300 C   0  0  0  0  0  0  0  0  0  0  0  0
   -4.8070    0.5090  -19.3340 C   0  0  0  0  0  0  0  0  0  0  0  0
   -3.7120    1.3880  -19.5550 C   0  0  0  0  0  0  0  0  0  0  0  0
   -3.3120    1.6830  -20.8310 C   0  0  0  0  0  0  0  0  0  0  0  0
   -3.9800    1.1220  -21.9420 C   0  0  0  0  0  0  0  0  0  0  0  0
   -5.0320    0.2640  -21.7520 C   0  0  0  0  0  0  0  0  0  0  0  0
   -5.4710   -0.0580  -20.4410 C   0  0  0  0  0  0  0  0  0  0  0  0
   -5.5320   -0.1850  -22.6030 H   0  0  0  0  0  0  0  0  0  0  0  0
   -3.6610    1.3710  -22.9500 H   0  0  0  0  0  0  0  0  0  0  0  0
   -2.4770    2.3540  -21.0040 H   0  0  0  0  0  0  0  0  0  0  0  0
   -3.2040    1.8220  -18.6960 H   0  0  0  0  0  0  0  0  0  0  0  0
   -4.7900    0.6290  -17.1650 H   0  0  0  0  0  0  0  0  0  0  0  0
   -7.6830   -1.9210  -18.6320 H   0  0  0  0  0  0  0  0  0  0  0  0
   -7.6180   -2.7470  -21.4850 C   0  0  0  0  0  0  0  0  0  0  0  0
   -7.0750   -3.6750  -20.9140 O   0  0  0  0  0  0  0  0  0  0  0  0
   -8.7210   -2.8490  -22.5680 C   0  0  1  0  0  0  0  0  0  0  0  0
  -10.0090   -3.2770  -21.8150 C   0  0  0  0  0  0  0  0  0  0  0  0
  -11.0340   -3.8910  -22.6470 N   0  0  0  0  0  0  0  0  0  0  0  0
  -12.4240   -3.7940  -22.2180 C   0  0  0  0  0  0  0  0  0  0  0  0
  -13.1250   -2.6520  -22.8900 C   0  0  0  0  0  0  0  0  0  0  0  0
  -13.7160   -2.8890  -24.0670 N   0  0  0  0  0  0  0  0  0  0  0  0
  -14.3040   -1.8450  -24.6460 C   0  0  0  0  0  0  0  0  0  0  0  0
  -14.3000   -0.5820  -24.0710 C   0  0  0  0  0  0  0  0  0  0  0  0
  -13.6760   -0.4710  -22.8400 C   0  0  0  0  0  0  0  0  0  0  0  0
  -13.0540   -1.4850  -22.2430 N   0  0  0  0  0  0  0  0  0  0  0  0
  -13.6540    0.4720  -22.3000 H   0  0  0  0  0  0  0  0  0  0  0  0
  -14.6840    0.3020  -24.5640 H   0  0  0  0  0  0  0  0  0  0  0  0
  -14.7970   -2.0280  -25.6020 H   0  0  0  0  0  0  0  0  0  0  0  0
  -12.9140   -4.7390  -22.4680 H   0  0  0  0  0  0  0  0  0  0  0  0
  -12.4380   -3.5990  -21.1420 H   0  0  0  0  0  0  0  0  0  0  0  0
  -10.7710   -4.6890  -23.7210 C   0  0  0  0  0  0  0  0  0  0  0  0
  -11.6450   -5.3120  -24.3110 O   0  0  0  0  0  0  0  0  0  0  0  0
   -9.3410   -4.7640  -24.1290 C   0  0  0  0  0  0  0  0  0  0  0  0
   -9.0150   -5.7340  -25.0760 C   0  0  0  0  0  0  0  0  0  0  0  0
   -7.7090   -5.8920  -25.4950 C   0  0  0  0  0  0  0  0  0  0  0  0
   -6.7460   -5.0370  -24.9690 C   0  0  0  0  0  0  0  0  0  0  0  0
   -5.4710   -5.1800  -25.3690 F   0  0  0  0  0  0  0  0  0  0  0  0
   -7.0520   -4.0460  -24.0540 C   0  0  0  0  0  0  0  0  0  0  0  0
   -8.3700   -3.9090  -23.5970 C   0  0  0  0  0  0  0  0  0  0  0  0
   -6.2640   -3.4010  -23.6790 H   0  0  0  0  0  0  0  0  0  0  0  0
   -7.4300   -6.6400  -26.2280 H   0  0  0  0  0  0  0  0  0  0  0  0
   -9.8210   -6.3520  -25.4630 H   0  0  0  0  0  0  0  0  0  0  0  0
   -9.7140   -3.9710  -21.0200 H   0  0  0  0  0  0  0  0  0  0  0  0
  -10.4600   -2.4040  -21.3290 H   0  0  0  0  0  0  0  0  0  0  0  0
   -7.7660    0.4120  -22.2290 H   0  0  0  0  0  0  0  0  0  0  0  0
   -9.0820   -0.2540  -21.2720 H   0  0  0  0  0  0  0  0  0  0  0  0
   -7.9760   -1.3410  -23.9070 H   0  0  0  0  0  0  0  0  0  0  0  0
   -9.8260    0.1400  -24.2260 H   0  0  0  0  0  0  0  0  0  0  0  0
  -10.7560   -0.5800  -22.9090 H   0  0  0  0  0  0  0  0  0  0  0  0
  -10.5050   -1.4730  -24.4210 H   0  0  0  0  0  0  0  0  0  0  0  0
  1  2  1  0  0  0  0
  1 55  1  0  0  0  0
  1 56  1  0  0  0  0
  1 57  1  0  0  0  0
  2  3  1  0  0  0  0
  2 23  1  0  0  0  0
  2 54  1  6  0  0  0
  3  4  1  0  0  0  0
  3 52  1  0  0  0  0
  3 53  1  0  0  0  0
  4  5  1  0  0  0  0
  4 21  1  0  0  0  0
  5  6  2  0  0  0  0
  5 14  1  0  0  0  0
  6  7  1  0  0  0  0
  6 20  1  0  0  0  0
  7  8  2  0  0  0  0
  8  9  1  0  0  0  0
  8 19  1  0  0  0  0
  9 10  2  0  0  0  0
  9 14  1  0  0  0  0
 10 11  1  0  0  0  0
 10 18  1  0  0  0  0
 11 12  2  0  0  0  0
 11 17  1  0  0  0  0
 12 13  1  0  0  0  0
 12 16  1  0  0  0  0
 13 14  2  0  0  0  0
 13 15  1  0  0  0  0
 21 22  2  0  0  0  0
 23 21  1  1  0  0  0
 23 24  1  0  0  0  0
 23 46  1  0  0  0  0
 24 25  1  0  0  0  0
 24 50  1  0  0  0  0
 24 51  1  0  0  0  0
 25 26  1  0  0  0  0
 25 38  1  0  0  0  0
 26 27  1  0  0  0  0
 26 36  1  0  0  0  0
 26 37  1  0  0  0  0
 27 28  2  0  0  0  0
 27 32  1  0  0  0  0
 28 29  1  0  0  0  0
 29 30  2  0  0  0  0
 29 35  1  0  0  0  0
 30 31  1  0  0  0  0
 30 34  1  0  0  0  0
 31 32  2  0  0  0  0
 31 33  1  0  0  0  0
 38 39  2  0  0  0  0
 38 40  1  0  0  0  0
 40 41  2  0  0  0  0
 40 46  1  0  0  0  0
 41 42  1  0  0  0  0
 41 49  1  0  0  0  0
 42 43  2  0  0  0  0
 42 48  1  0  0  0  0
 43 44  1  0  0  0  0
 43 45  1  0  0  0  0
 45 46  2  0  0  0  0
 45 47  1  0  0  0  0
M  END
>  <MODEL>
       1

$$$$
