tmp_first_model_13_77.pdb
 OpenBabel08282500103D

 55 60  0  0  1  0  0  0  0  0999 V2000
  -10.4280   -1.0770  -23.3610 C   0  0  0  0  0  0  0  0  0  0  0  0
   -8.9840   -1.4140  -22.9970 C   0  0  1  0  0  0  0  0  0  0  0  0
   -8.4020   -0.4910  -21.9090 C   0  0  0  0  0  0  0  0  0  0  0  0
   -7.3980   -1.3220  -21.2700 N   0  0  0  0  0  0  0  0  0  0  0  0
   -6.5830   -0.8440  -20.2140 C   0  0  0  0  0  0  0  0  0  0  0  0
   -6.8870   -1.1150  -18.9050 C   0  0  0  0  0  0  0  0  0  0  0  0
   -6.2150   -0.5870  -17.8510 N   0  0  0  0  0  0  0  0  0  0  0  0
   -5.2060    0.2090  -18.1040 C   0  0  0  0  0  0  0  0  0  0  0  0
   -4.7540    0.5330  -19.4150 C   0  0  0  0  0  0  0  0  0  0  0  0
   -3.6270    1.3640  -19.6510 C   0  0  0  0  0  0  0  0  0  0  0  0
   -3.2220    1.6280  -20.9310 C   0  0  0  0  0  0  0  0  0  0  0  0
   -3.9150    1.0720  -22.0320 C   0  0  0  0  0  0  0  0  0  0  0  0
   -5.0090    0.2660  -21.8300 C   0  0  0  0  0  0  0  0  0  0  0  0
   -5.4570   -0.0120  -20.5120 C   0  0  0  0  0  0  0  0  0  0  0  0
   -5.5370   -0.1810  -22.6690 H   0  0  0  0  0  0  0  0  0  0  0  0
   -3.5810    1.2760  -23.0450 H   0  0  0  0  0  0  0  0  0  0  0  0
   -2.3590    2.2600  -21.1130 H   0  0  0  0  0  0  0  0  0  0  0  0
   -3.0980    1.7740  -18.7940 H   0  0  0  0  0  0  0  0  0  0  0  0
   -4.6810    0.6340  -17.2470 H   0  0  0  0  0  0  0  0  0  0  0  0
   -7.7150   -1.7780  -18.6560 H   0  0  0  0  0  0  0  0  0  0  0  0
   -7.5700   -2.6680  -21.5030 C   0  0  0  0  0  0  0  0  0  0  0  0
   -6.8530   -3.5340  -21.0350 O   0  0  0  0  0  0  0  0  0  0  0  0
   -8.7580   -2.8720  -22.4510 C   0  0  1  0  0  0  0  0  0  0  0  0
   -9.9680   -3.3360  -21.5980 C   0  0  0  0  0  0  0  0  0  0  0  0
  -11.0860   -3.8200  -22.3940 N   0  0  0  0  0  0  0  0  0  0  0  0
  -12.4610   -3.7940  -21.9000 C   0  0  0  0  0  0  0  0  0  0  0  0
  -13.3120   -2.6860  -22.4340 C   0  0  0  0  0  0  0  0  0  0  0  0
  -13.9560   -2.6380  -23.6210 C   0  0  0  0  0  0  0  0  0  0  0  0
  -14.6940   -1.4890  -23.6590 O   0  0  0  0  0  0  0  0  0  0  0  0
  -14.4340   -0.8890  -22.4810 C   0  0  0  0  0  0  0  0  0  0  0  0
  -13.6170   -1.5350  -21.7160 N   0  0  0  0  0  0  0  0  0  0  0  0
  -14.9290    0.0550  -22.2800 H   0  0  0  0  0  0  0  0  0  0  0  0
  -14.0300   -3.2870  -24.4850 H   0  0  0  0  0  0  0  0  0  0  0  0
  -12.4740   -3.7750  -20.8080 H   0  0  0  0  0  0  0  0  0  0  0  0
  -12.9200   -4.7170  -22.2560 H   0  0  0  0  0  0  0  0  0  0  0  0
  -10.8970   -4.5460  -23.5390 C   0  0  0  0  0  0  0  0  0  0  0  0
  -11.8400   -5.0400  -24.1510 O   0  0  0  0  0  0  0  0  0  0  0  0
   -9.4890   -4.7200  -23.9960 C   0  0  0  0  0  0  0  0  0  0  0  0
   -9.2410   -5.7220  -24.9330 C   0  0  0  0  0  0  0  0  0  0  0  0
   -7.9670   -5.9120  -25.4380 C   0  0  0  0  0  0  0  0  0  0  0  0
   -6.9510   -5.0610  -25.0100 C   0  0  0  0  0  0  0  0  0  0  0  0
   -5.7100   -5.2180  -25.5080 F   0  0  0  0  0  0  0  0  0  0  0  0
   -7.1630   -4.0870  -24.0500 C   0  0  0  0  0  0  0  0  0  0  0  0
   -8.4520   -3.9150  -23.5110 C   0  0  0  0  0  0  0  0  0  0  0  0
   -6.3090   -3.5190  -23.6940 H   0  0  0  0  0  0  0  0  0  0  0  0
   -7.7470   -6.6990  -26.1480 H   0  0  0  0  0  0  0  0  0  0  0  0
  -10.0690   -6.3520  -25.2490 H   0  0  0  0  0  0  0  0  0  0  0  0
  -10.2760   -2.4910  -20.9750 H   0  0  0  0  0  0  0  0  0  0  0  0
   -9.6330   -4.1110  -20.9080 H   0  0  0  0  0  0  0  0  0  0  0  0
   -9.1770   -0.1790  -21.1900 H   0  0  0  0  0  0  0  0  0  0  0  0
   -7.9600    0.4280  -22.3110 H   0  0  0  0  0  0  0  0  0  0  0  0
   -8.3550   -1.3220  -23.8920 H   0  0  0  0  0  0  0  0  0  0  0  0
  -10.5190   -0.1110  -23.8600 H   0  0  0  0  0  0  0  0  0  0  0  0
  -10.8470   -1.8430  -24.0210 H   0  0  0  0  0  0  0  0  0  0  0  0
  -11.0660   -1.0290  -22.4730 H   0  0  0  0  0  0  0  0  0  0  0  0
  1  2  1  0  0  0  0
  1 53  1  0  0  0  0
  1 54  1  0  0  0  0
  1 55  1  0  0  0  0
  2  3  1  0  0  0  0
  2 23  1  0  0  0  0
  2 52  1  6  0  0  0
  3  4  1  0  0  0  0
  3 50  1  0  0  0  0
  3 51  1  0  0  0  0
  4  5  1  0  0  0  0
  4 21  1  0  0  0  0
  5  6  2  0  0  0  0
  5 14  1  0  0  0  0
  6  7  1  0  0  0  0
  6 20  1  0  0  0  0
  7  8  2  0  0  0  0
  8  9  1  0  0  0  0
  8 19  1  0  0  0  0
  9 10  2  0  0  0  0
  9 14  1  0  0  0  0
 10 11  1  0  0  0  0
 10 18  1  0  0  0  0
 11 12  2  0  0  0  0
 11 17  1  0  0  0  0
 12 13  1  0  0  0  0
 12 16  1  0  0  0  0
 13 14  2  0  0  0  0
 13 15  1  0  0  0  0
 21 22  2  0  0  0  0
 23 21  1  1  0  0  0
 23 24  1  0  0  0  0
 23 44  1  0  0  0  0
 24 25  1  0  0  0  0
 24 48  1  0  0  0  0
 24 49  1  0  0  0  0
 25 26  1  0  0  0  0
 25 36  1  0  0  0  0
 26 27  1  0  0  0  0
 26 34  1  0  0  0  0
 26 35  1  0  0  0  0
 27 28  2  0  0  0  0
 27 31  1  0  0  0  0
 28 29  1  0  0  0  0
 28 33  1  0  0  0  0
 29 30  1  0  0  0  0
 30 31  2  0  0  0  0
 30 32  1  0  0  0  0
 36 37  2  0  0  0  0
 36 38  1  0  0  0  0
 38 39  2  0  0  0  0
 38 44  1  0  0  0  0
 39 40  1  0  0  0  0
 39 47  1  0  0  0  0
 40 41  2  0  0  0  0
 40 46  1  0  0  0  0
 41 42  1  0  0  0  0
 41 43  1  0  0  0  0
 43 44  2  0  0  0  0
 43 45  1  0  0  0  0
M  END
>  <MODEL>
       1

$$$$
