tmp_first_model_18_92.pdb
 OpenBabel08282502533D

 60 65  0  0  1  0  0  0  0  0999 V2000
   -7.8680   -6.2920  -23.9430 C   0  0  0  0  0  0  0  0  0  0  0  0
   -8.0930   -5.3160  -22.9600 O   0  0  0  0  0  0  0  0  0  0  0  0
   -8.3840   -4.0740  -23.5430 C   0  0  0  0  0  0  0  0  0  0  0  0
   -8.5630   -3.0420  -22.4460 C   0  0  1  0  0  0  0  0  0  0  0  0
   -7.2990   -2.7470  -21.6290 C   0  0  0  0  0  0  0  0  0  0  0  0
   -7.4670   -1.3650  -21.2350 N   0  0  0  0  0  0  0  0  0  0  0  0
   -6.6650   -0.7870  -20.2160 C   0  0  0  0  0  0  0  0  0  0  0  0
   -6.9500   -1.0560  -18.9000 C   0  0  0  0  0  0  0  0  0  0  0  0
   -6.2530   -0.5710  -17.8430 N   0  0  0  0  0  0  0  0  0  0  0  0
   -5.2250    0.1980  -18.1030 C   0  0  0  0  0  0  0  0  0  0  0  0
   -4.7870    0.5200  -19.4180 C   0  0  0  0  0  0  0  0  0  0  0  0
   -3.6480    1.3370  -19.6370 C   0  0  0  0  0  0  0  0  0  0  0  0
   -3.2180    1.6020  -20.9070 C   0  0  0  0  0  0  0  0  0  0  0  0
   -3.9030    1.0510  -22.0140 C   0  0  0  0  0  0  0  0  0  0  0  0
   -5.0130    0.2630  -21.8290 C   0  0  0  0  0  0  0  0  0  0  0  0
   -5.5040   -0.0040  -20.5200 C   0  0  0  0  0  0  0  0  0  0  0  0
   -5.5190   -0.1770  -22.6840 H   0  0  0  0  0  0  0  0  0  0  0  0
   -3.5440    1.2640  -23.0190 H   0  0  0  0  0  0  0  0  0  0  0  0
   -2.3460    2.2300  -21.0690 H   0  0  0  0  0  0  0  0  0  0  0  0
   -3.1330    1.7400  -18.7690 H   0  0  0  0  0  0  0  0  0  0  0  0
   -4.6670    0.6010  -17.2550 H   0  0  0  0  0  0  0  0  0  0  0  0
   -7.7890   -1.7030  -18.6480 H   0  0  0  0  0  0  0  0  0  0  0  0
   -8.4910   -0.6960  -21.8830 C   0  0  0  0  0  0  0  0  0  0  0  0
   -8.8330    0.4380  -21.6340 O   0  0  0  0  0  0  0  0  0  0  0  0
   -9.0900   -1.6690  -22.9450 C   0  0  1  0  0  0  0  0  0  0  0  0
   -8.5340   -1.3330  -24.3560 C   0  0  0  0  0  0  0  0  0  0  0  0
   -9.1230   -0.1240  -24.9000 N   0  0  0  0  0  0  0  0  0  0  0  0
   -8.2940    0.8900  -25.5370 C   0  0  0  0  0  0  0  0  0  0  0  0
   -7.7540    1.9660  -24.6160 C   0  0  0  0  0  0  0  0  0  0  0  0
   -8.4390    3.0360  -23.9800 C   0  0  0  0  0  0  0  0  0  0  0  0
   -7.6180    3.8270  -23.2950 N   0  0  0  0  0  0  0  0  0  0  0  0
   -6.4140    3.2830  -23.4830 N   0  0  0  0  0  0  0  0  0  0  0  0
   -6.4350    2.1790  -24.2650 C   0  0  0  0  0  0  0  0  0  0  0  0
   -5.5210    1.6460  -24.4870 H   0  0  0  0  0  0  0  0  0  0  0  0
   -5.6050    3.6850  -23.0370 H   0  0  0  0  0  0  0  0  0  0  0  0
   -9.4970    3.2740  -23.9870 H   0  0  0  0  0  0  0  0  0  0  0  0
   -8.9250    1.3360  -26.3130 H   0  0  0  0  0  0  0  0  0  0  0  0
   -7.4630    0.3870  -26.0440 H   0  0  0  0  0  0  0  0  0  0  0  0
  -10.4830   -0.0120  -25.0000 C   0  0  0  0  0  0  0  0  0  0  0  0
  -11.0250    0.6820  -25.8520 O   0  0  0  0  0  0  0  0  0  0  0  0
  -11.2560   -0.7830  -23.9800 C   0  0  0  0  0  0  0  0  0  0  0  0
  -12.6450   -0.7020  -24.0200 C   0  0  0  0  0  0  0  0  0  0  0  0
  -13.4220   -1.3320  -23.0690 C   0  0  0  0  0  0  0  0  0  0  0  0
  -12.7660   -2.0830  -22.0960 C   0  0  0  0  0  0  0  0  0  0  0  0
  -13.6750   -2.9370  -20.8860 Cl  0  0  0  0  0  0  0  0  0  0  0  0
  -11.3970   -2.2330  -22.0910 C   0  0  0  0  0  0  0  0  0  0  0  0
  -10.6000   -1.5850  -23.0360 C   0  0  0  0  0  0  0  0  0  0  0  0
  -10.9700   -2.8730  -21.3330 H   0  0  0  0  0  0  0  0  0  0  0  0
  -14.5030   -1.2570  -23.0800 H   0  0  0  0  0  0  0  0  0  0  0  0
  -13.1000   -0.1050  -24.8010 H   0  0  0  0  0  0  0  0  0  0  0  0
   -8.7440   -2.1710  -25.0400 H   0  0  0  0  0  0  0  0  0  0  0  0
   -7.4500   -1.1950  -24.3110 H   0  0  0  0  0  0  0  0  0  0  0  0
   -6.3730   -2.9110  -22.2000 H   0  0  0  0  0  0  0  0  0  0  0  0
   -7.2330   -3.3820  -20.7460 H   0  0  0  0  0  0  0  0  0  0  0  0
   -9.2920   -3.4650  -21.7540 H   0  0  0  0  0  0  0  0  0  0  0  0
   -9.3080   -4.1360  -24.1480 H   0  0  0  0  0  0  0  0  0  0  0  0
   -7.5620   -3.7700  -24.2170 H   0  0  0  0  0  0  0  0  0  0  0  0
   -8.7450   -6.4190  -24.5970 H   0  0  0  0  0  0  0  0  0  0  0  0
   -7.6620   -7.2360  -23.4370 H   0  0  0  0  0  0  0  0  0  0  0  0
   -7.0090   -6.0310  -24.5800 H   0  0  0  0  0  0  0  0  0  0  0  0
  1  2  1  0  0  0  0
  1 58  1  0  0  0  0
  1 59  1  0  0  0  0
  1 60  1  0  0  0  0
  2  3  1  0  0  0  0
  3  4  1  0  0  0  0
  3 56  1  0  0  0  0
  3 57  1  0  0  0  0
  4  5  1  0  0  0  0
  4 25  1  0  0  0  0
  4 55  1  1  0  0  0
  5  6  1  0  0  0  0
  5 53  1  0  0  0  0
  5 54  1  0  0  0  0
  6  7  1  0  0  0  0
  6 23  1  0  0  0  0
  7  8  2  0  0  0  0
  7 16  1  0  0  0  0
  8  9  1  0  0  0  0
  8 22  1  0  0  0  0
  9 10  2  0  0  0  0
 10 11  1  0  0  0  0
 10 21  1  0  0  0  0
 11 12  2  0  0  0  0
 11 16  1  0  0  0  0
 12 13  1  0  0  0  0
 12 20  1  0  0  0  0
 13 14  2  0  0  0  0
 13 19  1  0  0  0  0
 14 15  1  0  0  0  0
 14 18  1  0  0  0  0
 15 16  2  0  0  0  0
 15 17  1  0  0  0  0
 23 24  2  0  0  0  0
 25 23  1  1  0  0  0
 25 26  1  0  0  0  0
 25 47  1  0  0  0  0
 26 27  1  0  0  0  0
 26 51  1  0  0  0  0
 26 52  1  0  0  0  0
 27 28  1  0  0  0  0
 27 39  1  0  0  0  0
 28 29  1  0  0  0  0
 28 37  1  0  0  0  0
 28 38  1  0  0  0  0
 29 30  1  0  0  0  0
 29 33  2  0  0  0  0
 30 31  2  0  0  0  0
 30 36  1  0  0  0  0
 31 32  1  0  0  0  0
 32 33  1  0  0  0  0
 32 35  1  0  0  0  0
 33 34  1  0  0  0  0
 39 40  2  0  0  0  0
 39 41  1  0  0  0  0
 41 42  2  0  0  0  0
 41 47  1  0  0  0  0
 42 43  1  0  0  0  0
 42 50  1  0  0  0  0
 43 44  2  0  0  0  0
 43 49  1  0  0  0  0
 44 45  1  0  0  0  0
 44 46  1  0  0  0  0
 46 47  2  0  0  0  0
 46 48  1  0  0  0  0
M  END
>  <MODEL>
       1

$$$$
