tmp_first_model_7_51.pdb
 OpenBabel08272520323D

 50 52  0  0  0  0  0  0  0  0999 V2000
   -9.3520   -1.2010  -26.4900 C   0  0  0  0  0  0  0  0  0  0  0  0
   -8.9780   -0.4140  -25.4850 C   0  0  0  0  0  0  0  0  0  0  0  0
   -9.5740   -0.4980  -24.0920 C   0  0  0  0  0  0  0  0  0  0  0  0
   -8.7360   -1.2460  -23.1570 N   0  0  0  0  0  0  0  0  0  0  0  0
   -8.0420   -0.5410  -22.2000 C   0  0  0  0  0  0  0  0  0  0  0  0
   -8.0400    0.6870  -22.1640 O   0  0  0  0  0  0  0  0  0  0  0  0
   -7.3490   -1.3300  -21.3120 N   0  0  0  0  0  0  0  0  0  0  0  0
   -6.5970   -0.7820  -20.2560 C   0  0  0  0  0  0  0  0  0  0  0  0
   -6.9230   -1.0470  -18.9530 C   0  0  0  0  0  0  0  0  0  0  0  0
   -6.2470   -0.5660  -17.8840 N   0  0  0  0  0  0  0  0  0  0  0  0
   -5.2100    0.1990  -18.1220 C   0  0  0  0  0  0  0  0  0  0  0  0
   -4.7510    0.5340  -19.4250 C   0  0  0  0  0  0  0  0  0  0  0  0
   -3.6020    1.3420  -19.6410 C   0  0  0  0  0  0  0  0  0  0  0  0
   -3.1830    1.6250  -20.9120 C   0  0  0  0  0  0  0  0  0  0  0  0
   -3.8860    1.1140  -22.0250 C   0  0  0  0  0  0  0  0  0  0  0  0
   -4.9900    0.3250  -21.8420 C   0  0  0  0  0  0  0  0  0  0  0  0
   -5.4640    0.0320  -20.5330 C   0  0  0  0  0  0  0  0  0  0  0  0
   -5.5290   -0.0720  -22.6940 H   0  0  0  0  0  0  0  0  0  0  0  0
   -3.5610    1.3660  -23.0320 H   0  0  0  0  0  0  0  0  0  0  0  0
   -2.3070    2.2470  -21.0660 H   0  0  0  0  0  0  0  0  0  0  0  0
   -3.0810    1.7420  -18.7750 H   0  0  0  0  0  0  0  0  0  0  0  0
   -4.6840    0.5880  -17.2530 H   0  0  0  0  0  0  0  0  0  0  0  0
   -7.7780   -1.6830  -18.7290 H   0  0  0  0  0  0  0  0  0  0  0  0
   -7.6630   -2.2860  -21.2030 H   0  0  0  0  0  0  0  0  0  0  0  0
   -8.4060   -2.5820  -23.5380 C   0  0  0  0  0  0  0  0  0  0  0  0
   -9.4230   -3.5170  -23.7110 C   0  0  0  0  0  0  0  0  0  0  0  0
   -9.1280   -4.8130  -24.1190 C   0  0  0  0  0  0  0  0  0  0  0  0
   -7.8200   -5.1920  -24.3990 C   0  0  0  0  0  0  0  0  0  0  0  0
   -6.8180   -4.2360  -24.2750 C   0  0  0  0  0  0  0  0  0  0  0  0
   -5.1790   -4.6740  -24.6770 Cl  0  0  0  0  0  0  0  0  0  0  0  0
   -7.0940   -2.9410  -23.8540 C   0  0  0  0  0  0  0  0  0  0  0  0
   -6.2920   -2.2120  -23.7920 H   0  0  0  0  0  0  0  0  0  0  0  0
   -7.5910   -6.2000  -24.7410 H   0  0  0  0  0  0  0  0  0  0  0  0
   -9.9380   -5.5280  -24.2450 H   0  0  0  0  0  0  0  0  0  0  0  0
  -10.4480   -3.2150  -23.5190 H   0  0  0  0  0  0  0  0  0  0  0  0
   -9.7760    0.4810  -23.6480 H   0  0  0  0  0  0  0  0  0  0  0  0
  -10.5120   -1.0500  -24.1470 H   0  0  0  0  0  0  0  0  0  0  0  0
   -7.8280    0.5000  -25.7820 C   0  0  0  0  0  0  0  0  0  0  0  0
   -7.1640    0.3670  -26.8020 O   0  0  0  0  0  0  0  0  0  0  0  0
   -7.5570    1.4740  -24.8740 N   0  0  0  0  0  0  0  0  0  0  0  0
   -6.2410    2.0730  -24.9810 C   0  0  0  0  0  0  0  0  0  0  0  0
   -6.0820    3.1520  -23.9320 C   0  0  0  0  0  0  0  0  0  0  0  0
   -6.7800    3.9790  -24.1150 H   0  0  0  0  0  0  0  0  0  0  0  0
   -6.2750    2.7230  -22.9370 H   0  0  0  0  0  0  0  0  0  0  0  0
   -5.0630    3.5540  -23.9460 H   0  0  0  0  0  0  0  0  0  0  0  0
   -6.1230    2.4570  -26.0000 H   0  0  0  0  0  0  0  0  0  0  0  0
   -5.4630    1.2990  -24.8550 H   0  0  0  0  0  0  0  0  0  0  0  0
   -7.9630    1.4460  -23.9430 H   0  0  0  0  0  0  0  0  0  0  0  0
   -8.8490   -1.1340  -27.4530 H   0  0  0  0  0  0  0  0  0  0  0  0
  -10.1750   -1.9060  -26.3710 H   0  0  0  0  0  0  0  0  0  0  0  0
  1  2  2  0  0  0  0
  1 49  1  0  0  0  0
  1 50  1  0  0  0  0
  2  3  1  0  0  0  0
  2 38  1  0  0  0  0
  3  4  1  0  0  0  0
  3 36  1  0  0  0  0
  3 37  1  0  0  0  0
  4  5  1  0  0  0  0
  4 25  1  0  0  0  0
  5  6  2  0  0  0  0
  5  7  1  0  0  0  0
  7  8  1  0  0  0  0
  7 24  1  0  0  0  0
  8  9  2  0  0  0  0
  8 17  1  0  0  0  0
  9 10  1  0  0  0  0
  9 23  1  0  0  0  0
 10 11  2  0  0  0  0
 11 12  1  0  0  0  0
 11 22  1  0  0  0  0
 12 13  2  0  0  0  0
 12 17  1  0  0  0  0
 13 14  1  0  0  0  0
 13 21  1  0  0  0  0
 14 15  2  0  0  0  0
 14 20  1  0  0  0  0
 15 16  1  0  0  0  0
 15 19  1  0  0  0  0
 16 17  2  0  0  0  0
 16 18  1  0  0  0  0
 25 26  2  0  0  0  0
 25 31  1  0  0  0  0
 26 27  1  0  0  0  0
 26 35  1  0  0  0  0
 27 28  2  0  0  0  0
 27 34  1  0  0  0  0
 28 29  1  0  0  0  0
 28 33  1  0  0  0  0
 29 30  1  0  0  0  0
 29 31  2  0  0  0  0
 31 32  1  0  0  0  0
 38 39  2  0  0  0  0
 38 40  1  0  0  0  0
 40 41  1  0  0  0  0
 40 48  1  0  0  0  0
 41 42  1  0  0  0  0
 41 46  1  0  0  0  0
 41 47  1  0  0  0  0
 42 43  1  0  0  0  0
 42 44  1  0  0  0  0
 42 45  1  0  0  0  0
M  END
>  <MODEL>
       1

$$$$
