tmp_first_model_6_49.pdb
 OpenBabel08272519583D

 67 72  0  0  1  0  0  0  0  0999 V2000
   -7.2590    3.4130  -21.9830 C   0  0  0  0  0  0  0  0  0  0  0  0
   -8.1420    2.9050  -23.0140 N   0  0  0  0  0  0  0  0  0  0  0  0
   -7.6020    2.2380  -24.0680 C   0  0  0  0  0  0  0  0  0  0  0  0
   -6.3960    2.1010  -24.2140 O   0  0  0  0  0  0  0  0  0  0  0  0
   -8.6160    1.6520  -25.0540 C   0  0  0  0  0  0  0  0  0  0  0  0
   -9.3170    0.5310  -24.4480 N   0  0  0  0  0  0  0  0  0  0  0  0
   -8.5660   -0.6850  -24.1700 C   0  0  0  0  0  0  0  0  0  0  0  0
   -9.0230   -1.4090  -22.8680 C   0  0  2  0  0  0  0  0  0  0  0  0
   -8.5440   -0.6090  -21.6310 C   0  0  0  0  0  0  0  0  0  0  0  0
   -9.0210    0.4090  -21.1800 O   0  0  0  0  0  0  0  0  0  0  0  0
   -7.4550   -1.2520  -21.0960 N   0  0  0  0  0  0  0  0  0  0  0  0
   -6.6590   -0.6910  -20.0830 C   0  0  0  0  0  0  0  0  0  0  0  0
   -6.9400   -0.9940  -18.7820 C   0  0  0  0  0  0  0  0  0  0  0  0
   -6.2120   -0.5510  -17.7330 N   0  0  0  0  0  0  0  0  0  0  0  0
   -5.1750    0.2060  -18.0030 C   0  0  0  0  0  0  0  0  0  0  0  0
   -4.7610    0.5710  -19.3170 C   0  0  0  0  0  0  0  0  0  0  0  0
   -3.6320    1.3960  -19.5660 C   0  0  0  0  0  0  0  0  0  0  0  0
   -3.2970    1.7530  -20.8440 C   0  0  0  0  0  0  0  0  0  0  0  0
   -4.0730    1.3080  -21.9390 C   0  0  0  0  0  0  0  0  0  0  0  0
   -5.1570    0.4900  -21.7280 C   0  0  0  0  0  0  0  0  0  0  0  0
   -5.5290    0.1090  -20.4080 C   0  0  0  0  0  0  0  0  0  0  0  0
   -5.7610    0.1740  -22.5750 H   0  0  0  0  0  0  0  0  0  0  0  0
   -3.8320    1.6260  -22.9500 H   0  0  0  0  0  0  0  0  0  0  0  0
   -2.4400    2.3940  -21.0270 H   0  0  0  0  0  0  0  0  0  0  0  0
   -3.0640    1.7520  -18.7110 H   0  0  0  0  0  0  0  0  0  0  0  0
   -4.6030    0.5780  -17.1530 H   0  0  0  0  0  0  0  0  0  0  0  0
   -7.7940   -1.6310  -18.5580 H   0  0  0  0  0  0  0  0  0  0  0  0
   -7.0390   -2.4360  -21.7860 C   0  0  0  0  0  0  0  0  0  0  0  0
   -8.2570   -2.7610  -22.6530 C   0  0  2  0  0  0  0  0  0  0  0  0
   -7.7900   -3.5120  -23.8850 C   0  0  0  0  0  0  0  0  0  0  0  0
   -8.9130   -3.9510  -24.6610 N   0  0  0  0  0  0  0  0  0  0  0  0
   -8.6940   -4.7890  -25.7230 C   0  0  0  0  0  0  0  0  0  0  0  0
   -7.5070   -5.0390  -26.3460 C   0  0  0  0  0  0  0  0  0  0  0  0
   -7.5690   -5.7910  -27.4990 N   0  0  0  0  0  0  0  0  0  0  0  0
   -8.7930   -6.1130  -27.7520 C   0  0  0  0  0  0  0  0  0  0  0  0
   -9.2920   -6.6760  -29.0350 C   0  0  0  0  0  0  0  0  0  0  0  0
   -9.7490   -5.8600  -29.6010 H   0  0  0  0  0  0  0  0  0  0  0  0
   -8.4750   -7.1380  -29.5920 H   0  0  0  0  0  0  0  0  0  0  0  0
  -10.0840   -7.3980  -28.8730 H   0  0  0  0  0  0  0  0  0  0  0  0
   -9.9730   -5.6340  -26.5490 S   0  0  0  0  0  0  0  0  0  0  0  0
   -6.5360   -4.7030  -25.9990 H   0  0  0  0  0  0  0  0  0  0  0  0
   -9.8460   -3.6660  -24.4000 H   0  0  0  0  0  0  0  0  0  0  0  0
   -7.1190   -2.8650  -24.4770 H   0  0  0  0  0  0  0  0  0  0  0  0
   -7.1780   -4.3790  -23.5910 H   0  0  0  0  0  0  0  0  0  0  0  0
   -8.9170   -3.4220  -22.0810 H   0  0  0  0  0  0  0  0  0  0  0  0
   -6.7940   -3.2410  -21.0820 H   0  0  0  0  0  0  0  0  0  0  0  0
   -6.1340   -2.2580  -22.3940 H   0  0  0  0  0  0  0  0  0  0  0  0
  -10.5450   -1.4750  -22.8540 C   0  0  0  0  0  0  0  0  0  0  0  0
  -11.2200   -2.3190  -21.9590 C   0  0  0  0  0  0  0  0  0  0  0  0
  -12.6020   -2.2610  -21.8590 C   0  0  0  0  0  0  0  0  0  0  0  0
  -13.4290   -3.1670  -20.6280 Cl  0  0  0  0  0  0  0  0  0  0  0  0
  -13.3600   -1.4270  -22.6790 C   0  0  0  0  0  0  0  0  0  0  0  0
  -12.7020   -0.5910  -23.5560 C   0  0  0  0  0  0  0  0  0  0  0  0
  -11.3100   -0.5550  -23.5910 C   0  0  0  0  0  0  0  0  0  0  0  0
  -10.6760    0.5820  -24.3390 C   0  0  0  0  0  0  0  0  0  0  0  0
  -11.3460    1.5140  -24.7780 O   0  0  0  0  0  0  0  0  0  0  0  0
  -13.2470    0.0800  -24.2090 H   0  0  0  0  0  0  0  0  0  0  0  0
  -14.4390   -1.4000  -22.5820 H   0  0  0  0  0  0  0  0  0  0  0  0
  -10.6780   -2.9870  -21.2980 H   0  0  0  0  0  0  0  0  0  0  0  0
   -8.6570   -1.3680  -25.0250 H   0  0  0  0  0  0  0  0  0  0  0  0
   -7.5120   -0.4070  -24.0740 H   0  0  0  0  0  0  0  0  0  0  0  0
   -8.0860    1.3580  -25.9690 H   0  0  0  0  0  0  0  0  0  0  0  0
   -9.3840    2.3820  -25.3260 H   0  0  0  0  0  0  0  0  0  0  0  0
   -9.0800    2.6510  -22.7310 H   0  0  0  0  0  0  0  0  0  0  0  0
   -6.5260    4.0910  -22.4280 H   0  0  0  0  0  0  0  0  0  0  0  0
   -6.7110    2.6010  -21.4890 H   0  0  0  0  0  0  0  0  0  0  0  0
   -7.8450    3.9600  -21.2440 H   0  0  0  0  0  0  0  0  0  0  0  0
  1  2  1  0  0  0  0
  1 65  1  0  0  0  0
  1 66  1  0  0  0  0
  1 67  1  0  0  0  0
  2  3  1  0  0  0  0
  2 64  1  0  0  0  0
  3  4  2  0  0  0  0
  3  5  1  0  0  0  0
  5  6  1  0  0  0  0
  5 62  1  0  0  0  0
  5 63  1  0  0  0  0
  6  7  1  0  0  0  0
  6 55  1  0  0  0  0
  7  8  1  0  0  0  0
  7 60  1  0  0  0  0
  7 61  1  0  0  0  0
  8  9  1  1  0  0  0
  8 29  1  0  0  0  0
  8 48  1  0  0  0  0
  9 10  2  0  0  0  0
  9 11  1  0  0  0  0
 11 12  1  0  0  0  0
 11 28  1  0  0  0  0
 12 13  2  0  0  0  0
 12 21  1  0  0  0  0
 13 14  1  0  0  0  0
 13 27  1  0  0  0  0
 14 15  2  0  0  0  0
 15 16  1  0  0  0  0
 15 26  1  0  0  0  0
 16 17  2  0  0  0  0
 16 21  1  0  0  0  0
 17 18  1  0  0  0  0
 17 25  1  0  0  0  0
 18 19  2  0  0  0  0
 18 24  1  0  0  0  0
 19 20  1  0  0  0  0
 19 23  1  0  0  0  0
 20 21  2  0  0  0  0
 20 22  1  0  0  0  0
 28 29  1  0  0  0  0
 28 46  1  0  0  0  0
 28 47  1  0  0  0  0
 29 30  1  0  0  0  0
 29 45  1  1  0  0  0
 30 31  1  0  0  0  0
 30 43  1  0  0  0  0
 30 44  1  0  0  0  0
 31 32  1  0  0  0  0
 31 42  1  0  0  0  0
 32 33  2  0  0  0  0
 32 40  1  0  0  0  0
 33 34  1  0  0  0  0
 33 41  1  0  0  0  0
 34 35  2  0  0  0  0
 35 36  1  0  0  0  0
 35 40  1  0  0  0  0
 36 37  1  0  0  0  0
 36 38  1  0  0  0  0
 36 39  1  0  0  0  0
 48 49  2  0  0  0  0
 48 54  1  0  0  0  0
 49 50  1  0  0  0  0
 49 59  1  0  0  0  0
 50 51  1  0  0  0  0
 50 52  2  0  0  0  0
 52 53  1  0  0  0  0
 52 58  1  0  0  0  0
 53 54  2  0  0  0  0
 53 57  1  0  0  0  0
 54 55  1  0  0  0  0
 55 56  2  0  0  0  0
M  END
>  <MODEL>
       1

$$$$
