tmp_first_model_3_4.pdb
 OpenBabel08272518143D

 59 64  0  0  1  0  0  0  0  0999 V2000
   -8.2660   -4.1090  -23.5380 C   0  0  0  0  0  0  0  0  0  0  0  0
   -8.5200   -2.9670  -22.5570 C   0  0  1  0  0  0  0  0  0  0  0  0
   -7.3960   -2.7990  -21.5200 C   0  0  0  0  0  0  0  0  0  0  0  0
   -7.4210   -1.3820  -21.2020 N   0  0  0  0  0  0  0  0  0  0  0  0
   -6.6130   -0.8020  -20.1850 C   0  0  0  0  0  0  0  0  0  0  0  0
   -6.8980   -1.0520  -18.8680 C   0  0  0  0  0  0  0  0  0  0  0  0
   -6.2040   -0.5510  -17.8150 N   0  0  0  0  0  0  0  0  0  0  0  0
   -5.1710    0.2120  -18.0830 C   0  0  0  0  0  0  0  0  0  0  0  0
   -4.7340    0.5260  -19.4000 C   0  0  0  0  0  0  0  0  0  0  0  0
   -3.5960    1.3470  -19.6350 C   0  0  0  0  0  0  0  0  0  0  0  0
   -3.1840    1.6160  -20.9100 C   0  0  0  0  0  0  0  0  0  0  0  0
   -3.8840    1.0650  -22.0090 C   0  0  0  0  0  0  0  0  0  0  0  0
   -4.9840    0.2710  -21.8060 C   0  0  0  0  0  0  0  0  0  0  0  0
   -5.4590   -0.0030  -20.4930 C   0  0  0  0  0  0  0  0  0  0  0  0
   -5.5150   -0.1430  -22.6570 H   0  0  0  0  0  0  0  0  0  0  0  0
   -3.5570    1.2880  -23.0200 H   0  0  0  0  0  0  0  0  0  0  0  0
   -2.3260    2.2590  -21.0880 H   0  0  0  0  0  0  0  0  0  0  0  0
   -3.0770    1.7670  -18.7760 H   0  0  0  0  0  0  0  0  0  0  0  0
   -4.6240    0.6180  -17.2320 H   0  0  0  0  0  0  0  0  0  0  0  0
   -7.7450   -1.6850  -18.6060 H   0  0  0  0  0  0  0  0  0  0  0  0
   -8.1380   -0.6220  -22.1020 C   0  0  0  0  0  0  0  0  0  0  0  0
   -8.2340    0.5880  -22.0370 O   0  0  0  0  0  0  0  0  0  0  0  0
   -8.7380   -1.5450  -23.1880 C   0  0  1  0  0  0  0  0  0  0  0  0
   -7.9710   -1.2650  -24.5010 C   0  0  0  0  0  0  0  0  0  0  0  0
   -8.6070   -1.8230  -25.6950 N   0  0  0  0  0  0  0  0  0  0  0  0
   -7.7350   -2.0660  -26.8410 C   0  0  0  0  0  0  0  0  0  0  0  0
   -6.9390   -3.3380  -26.7150 C   0  0  0  0  0  0  0  0  0  0  0  0
   -5.7050   -3.3970  -26.2590 N   0  0  0  0  0  0  0  0  0  0  0  0
   -5.3730   -4.7300  -26.2690 C   0  0  0  0  0  0  0  0  0  0  0  0
   -6.4280   -5.4770  -26.7180 C   0  0  0  0  0  0  0  0  0  0  0  0
   -7.4290   -4.5740  -27.0210 N   0  0  0  0  0  0  0  0  0  0  0  0
   -8.7690   -4.8940  -27.4780 C   0  0  0  0  0  0  0  0  0  0  0  0
   -9.0380   -4.2890  -28.3500 H   0  0  0  0  0  0  0  0  0  0  0  0
   -9.5100   -4.7210  -26.6900 H   0  0  0  0  0  0  0  0  0  0  0  0
   -8.7830   -5.9510  -27.7540 H   0  0  0  0  0  0  0  0  0  0  0  0
   -6.5820   -6.5400  -26.8220 H   0  0  0  0  0  0  0  0  0  0  0  0
   -4.3960   -5.0600  -25.9380 H   0  0  0  0  0  0  0  0  0  0  0  0
   -8.3690   -2.0540  -27.7310 H   0  0  0  0  0  0  0  0  0  0  0  0
   -7.0130   -1.2450  -26.9120 H   0  0  0  0  0  0  0  0  0  0  0  0
   -9.9620   -1.8010  -25.8880 C   0  0  0  0  0  0  0  0  0  0  0  0
  -10.4890   -2.1140  -26.9510 O   0  0  0  0  0  0  0  0  0  0  0  0
  -10.7810   -1.4000  -24.7070 C   0  0  0  0  0  0  0  0  0  0  0  0
  -12.1530   -1.2160  -24.8960 C   0  0  0  0  0  0  0  0  0  0  0  0
  -12.9650   -0.9090  -23.8290 C   0  0  0  0  0  0  0  0  0  0  0  0
  -12.3900   -0.7840  -22.5770 C   0  0  0  0  0  0  0  0  0  0  0  0
  -13.2260   -0.4760  -21.5840 F   0  0  0  0  0  0  0  0  0  0  0  0
  -11.0400   -0.9700  -22.3510 C   0  0  0  0  0  0  0  0  0  0  0  0
  -10.2090   -1.2650  -23.4370 C   0  0  0  0  0  0  0  0  0  0  0  0
  -10.6190   -0.8880  -21.3560 H   0  0  0  0  0  0  0  0  0  0  0  0
  -14.0380   -0.7750  -23.9000 H   0  0  0  0  0  0  0  0  0  0  0  0
  -12.5690   -1.3600  -25.8870 H   0  0  0  0  0  0  0  0  0  0  0  0
   -6.9650   -1.6980  -24.4570 H   0  0  0  0  0  0  0  0  0  0  0  0
   -7.8810   -0.1710  -24.5840 H   0  0  0  0  0  0  0  0  0  0  0  0
   -6.4210   -3.0990  -21.9350 H   0  0  0  0  0  0  0  0  0  0  0  0
   -7.5680   -3.3990  -20.6200 H   0  0  0  0  0  0  0  0  0  0  0  0
   -9.4480   -3.1750  -22.0040 H   0  0  0  0  0  0  0  0  0  0  0  0
   -7.3120   -3.9740  -24.0590 H   0  0  0  0  0  0  0  0  0  0  0  0
   -8.2320   -5.0700  -23.0130 H   0  0  0  0  0  0  0  0  0  0  0  0
   -9.0610   -4.1600  -24.2880 H   0  0  0  0  0  0  0  0  0  0  0  0
  1  2  1  0  0  0  0
  1 57  1  0  0  0  0
  1 58  1  0  0  0  0
  1 59  1  0  0  0  0
  2  3  1  0  0  0  0
  2 23  1  0  0  0  0
  2 56  1  1  0  0  0
  3  4  1  0  0  0  0
  3 54  1  0  0  0  0
  3 55  1  0  0  0  0
  4  5  1  0  0  0  0
  4 21  1  0  0  0  0
  5  6  2  0  0  0  0
  5 14  1  0  0  0  0
  6  7  1  0  0  0  0
  6 20  1  0  0  0  0
  7  8  2  0  0  0  0
  8  9  1  0  0  0  0
  8 19  1  0  0  0  0
  9 10  2  0  0  0  0
  9 14  1  0  0  0  0
 10 11  1  0  0  0  0
 10 18  1  0  0  0  0
 11 12  2  0  0  0  0
 11 17  1  0  0  0  0
 12 13  1  0  0  0  0
 12 16  1  0  0  0  0
 13 14  2  0  0  0  0
 13 15  1  0  0  0  0
 21 22  2  0  0  0  0
 23 21  1  1  0  0  0
 23 24  1  0  0  0  0
 23 48  1  0  0  0  0
 24 25  1  0  0  0  0
 24 52  1  0  0  0  0
 24 53  1  0  0  0  0
 25 26  1  0  0  0  0
 25 40  1  0  0  0  0
 26 27  1  0  0  0  0
 26 38  1  0  0  0  0
 26 39  1  0  0  0  0
 27 28  2  0  0  0  0
 27 31  1  0  0  0  0
 28 29  1  0  0  0  0
 29 30  2  0  0  0  0
 29 37  1  0  0  0  0
 30 31  1  0  0  0  0
 30 36  1  0  0  0  0
 31 32  1  0  0  0  0
 32 33  1  0  0  0  0
 32 34  1  0  0  0  0
 32 35  1  0  0  0  0
 40 41  2  0  0  0  0
 40 42  1  0  0  0  0
 42 43  2  0  0  0  0
 42 48  1  0  0  0  0
 43 44  1  0  0  0  0
 43 51  1  0  0  0  0
 44 45  2  0  0  0  0
 44 50  1  0  0  0  0
 45 46  1  0  0  0  0
 45 47  1  0  0  0  0
 47 48  2  0  0  0  0
 47 49  1  0  0  0  0
M  END
>  <MODEL>
       1

$$$$
