tmp_first_model_3_92.pdb
 OpenBabel08272518143D

 60 65  0  0  1  0  0  0  0  0999 V2000
   -6.7800   -3.4380  -26.0930 C   0  0  0  0  0  0  0  0  0  0  0  0
   -7.0060   -2.8920  -24.8190 O   0  0  0  0  0  0  0  0  0  0  0  0
   -7.9850   -3.5950  -24.0820 C   0  0  0  0  0  0  0  0  0  0  0  0
   -8.2880   -2.8780  -22.7700 C   0  0  1  0  0  0  0  0  0  0  0  0
   -7.0180   -2.5490  -21.9720 C   0  0  0  0  0  0  0  0  0  0  0  0
   -7.3770   -1.3510  -21.2390 N   0  0  0  0  0  0  0  0  0  0  0  0
   -6.5960   -0.8070  -20.1900 C   0  0  0  0  0  0  0  0  0  0  0  0
   -6.9310   -1.0300  -18.8790 C   0  0  0  0  0  0  0  0  0  0  0  0
   -6.2390   -0.5390  -17.8200 N   0  0  0  0  0  0  0  0  0  0  0  0
   -5.1940    0.2100  -18.0830 C   0  0  0  0  0  0  0  0  0  0  0  0
   -4.7430    0.5290  -19.3970 C   0  0  0  0  0  0  0  0  0  0  0  0
   -3.6240    1.3700  -19.6350 C   0  0  0  0  0  0  0  0  0  0  0  0
   -3.2330    1.6560  -20.9150 C   0  0  0  0  0  0  0  0  0  0  0  0
   -3.9230    1.1060  -22.0150 C   0  0  0  0  0  0  0  0  0  0  0  0
   -4.9970    0.2720  -21.8090 C   0  0  0  0  0  0  0  0  0  0  0  0
   -5.4470   -0.0160  -20.4930 C   0  0  0  0  0  0  0  0  0  0  0  0
   -5.5170   -0.1630  -22.6580 H   0  0  0  0  0  0  0  0  0  0  0  0
   -3.5960    1.3510  -23.0220 H   0  0  0  0  0  0  0  0  0  0  0  0
   -2.3780    2.3000  -21.0910 H   0  0  0  0  0  0  0  0  0  0  0  0
   -3.1020    1.7840  -18.7780 H   0  0  0  0  0  0  0  0  0  0  0  0
   -4.6410    0.6120  -17.2330 H   0  0  0  0  0  0  0  0  0  0  0  0
   -7.8000   -1.6390  -18.6420 H   0  0  0  0  0  0  0  0  0  0  0  0
   -8.5920   -0.8030  -21.5860 C   0  0  0  0  0  0  0  0  0  0  0  0
   -9.1340    0.1030  -20.9880 O   0  0  0  0  0  0  0  0  0  0  0  0
   -9.1250   -1.5600  -22.8280 C   0  0  1  0  0  0  0  0  0  0  0  0
   -8.8530   -0.7820  -24.1420 C   0  0  0  0  0  0  0  0  0  0  0  0
   -9.6990    0.3920  -24.2720 N   0  0  0  0  0  0  0  0  0  0  0  0
   -9.1180    1.6330  -24.7710 C   0  0  0  0  0  0  0  0  0  0  0  0
   -8.3310    2.3990  -23.7360 C   0  0  0  0  0  0  0  0  0  0  0  0
   -8.8690    3.3080  -22.7890 C   0  0  0  0  0  0  0  0  0  0  0  0
   -7.9380    3.7720  -21.9540 N   0  0  0  0  0  0  0  0  0  0  0  0
   -6.8110    3.1880  -22.3630 N   0  0  0  0  0  0  0  0  0  0  0  0
   -6.9880    2.3570  -23.4220 C   0  0  0  0  0  0  0  0  0  0  0  0
   -6.1370    1.8100  -23.8110 H   0  0  0  0  0  0  0  0  0  0  0  0
   -5.9250    3.3550  -21.9040 H   0  0  0  0  0  0  0  0  0  0  0  0
   -9.8980    3.6460  -22.6730 H   0  0  0  0  0  0  0  0  0  0  0  0
   -8.5020    1.3970  -25.6440 H   0  0  0  0  0  0  0  0  0  0  0  0
   -9.9600    2.2360  -25.1290 H   0  0  0  0  0  0  0  0  0  0  0  0
  -11.0530    0.3310  -24.0800 C   0  0  0  0  0  0  0  0  0  0  0  0
  -11.8170    1.1850  -24.5150 O   0  0  0  0  0  0  0  0  0  0  0  0
  -11.5330   -0.8220  -23.2590 C   0  0  0  0  0  0  0  0  0  0  0  0
  -12.9020   -0.8990  -22.9970 C   0  0  0  0  0  0  0  0  0  0  0  0
  -13.3910   -1.8410  -22.1130 C   0  0  0  0  0  0  0  0  0  0  0  0
  -12.4920   -2.7440  -21.5460 C   0  0  0  0  0  0  0  0  0  0  0  0
  -13.0440   -3.9600  -20.4350 Cl  0  0  0  0  0  0  0  0  0  0  0  0
  -11.1410   -2.6930  -21.8160 C   0  0  0  0  0  0  0  0  0  0  0  0
  -10.6280   -1.7250  -22.6830 C   0  0  0  0  0  0  0  0  0  0  0  0
  -10.5020   -3.4020  -21.3040 H   0  0  0  0  0  0  0  0  0  0  0  0
  -14.4340   -1.8650  -21.8190 H   0  0  0  0  0  0  0  0  0  0  0  0
  -13.5470   -0.1800  -23.4890 H   0  0  0  0  0  0  0  0  0  0  0  0
   -9.0270   -1.4760  -24.9750 H   0  0  0  0  0  0  0  0  0  0  0  0
   -7.8070   -0.4710  -24.1950 H   0  0  0  0  0  0  0  0  0  0  0  0
   -6.1610   -2.3800  -22.6350 H   0  0  0  0  0  0  0  0  0  0  0  0
   -6.7580   -3.3590  -21.2810 H   0  0  0  0  0  0  0  0  0  0  0  0
   -8.8730   -3.5870  -22.1800 H   0  0  0  0  0  0  0  0  0  0  0  0
   -7.6220   -4.6100  -23.8610 H   0  0  0  0  0  0  0  0  0  0  0  0
   -8.9120   -3.6980  -24.6720 H   0  0  0  0  0  0  0  0  0  0  0  0
   -6.0170   -2.8280  -26.5850 H   0  0  0  0  0  0  0  0  0  0  0  0
   -6.4150   -4.4740  -26.0280 H   0  0  0  0  0  0  0  0  0  0  0  0
   -7.6930   -3.4230  -26.7090 H   0  0  0  0  0  0  0  0  0  0  0  0
  1  2  1  0  0  0  0
  1 58  1  0  0  0  0
  1 59  1  0  0  0  0
  1 60  1  0  0  0  0
  2  3  1  0  0  0  0
  3  4  1  0  0  0  0
  3 56  1  0  0  0  0
  3 57  1  0  0  0  0
  4  5  1  0  0  0  0
  4 25  1  0  0  0  0
  4 55  1  1  0  0  0
  5  6  1  0  0  0  0
  5 53  1  0  0  0  0
  5 54  1  0  0  0  0
  6  7  1  0  0  0  0
  6 23  1  0  0  0  0
  7  8  2  0  0  0  0
  7 16  1  0  0  0  0
  8  9  1  0  0  0  0
  8 22  1  0  0  0  0
  9 10  2  0  0  0  0
 10 11  1  0  0  0  0
 10 21  1  0  0  0  0
 11 12  2  0  0  0  0
 11 16  1  0  0  0  0
 12 13  1  0  0  0  0
 12 20  1  0  0  0  0
 13 14  2  0  0  0  0
 13 19  1  0  0  0  0
 14 15  1  0  0  0  0
 14 18  1  0  0  0  0
 15 16  2  0  0  0  0
 15 17  1  0  0  0  0
 23 24  2  0  0  0  0
 25 23  1  1  0  0  0
 25 26  1  0  0  0  0
 25 47  1  0  0  0  0
 26 27  1  0  0  0  0
 26 51  1  0  0  0  0
 26 52  1  0  0  0  0
 27 28  1  0  0  0  0
 27 39  1  0  0  0  0
 28 29  1  0  0  0  0
 28 37  1  0  0  0  0
 28 38  1  0  0  0  0
 29 30  1  0  0  0  0
 29 33  2  0  0  0  0
 30 31  2  0  0  0  0
 30 36  1  0  0  0  0
 31 32  1  0  0  0  0
 32 33  1  0  0  0  0
 32 35  1  0  0  0  0
 33 34  1  0  0  0  0
 39 40  2  0  0  0  0
 39 41  1  0  0  0  0
 41 42  2  0  0  0  0
 41 47  1  0  0  0  0
 42 43  1  0  0  0  0
 42 50  1  0  0  0  0
 43 44  2  0  0  0  0
 43 49  1  0  0  0  0
 44 45  1  0  0  0  0
 44 46  1  0  0  0  0
 46 47  2  0  0  0  0
 46 48  1  0  0  0  0
M  END
>  <MODEL>
       1

$$$$
