tmp_first_model_3_86.pdb
 OpenBabel08272518143D

 43 45  0  0  1  0  0  0  0  0999 V2000
   -8.5460   -5.5630  -25.7830 C   0  0  0  0  0  0  0  0  0  0  0  0
   -9.0610   -5.4480  -24.3460 C   0  0  1  0  0  0  0  0  0  0  0  0
   -8.0260   -5.8770  -23.3090 C   0  0  0  0  0  0  0  0  0  0  0  0
   -6.9360   -4.8330  -23.0940 C   0  0  0  0  0  0  0  0  0  0  0  0
   -7.5100   -3.5400  -22.7130 N   0  0  0  0  0  0  0  0  0  0  0  0
   -6.7550   -2.7450  -21.8640 C   0  0  0  0  0  0  0  0  0  0  0  0
   -5.6180   -3.0510  -21.5530 O   0  0  0  0  0  0  0  0  0  0  0  0
   -7.4130   -1.4740  -21.2690 C   0  0  0  0  0  0  0  0  0  0  0  0
   -6.5790   -0.8310  -20.1830 C   0  0  0  0  0  0  0  0  0  0  0  0
   -6.8740   -1.0450  -18.8630 C   0  0  0  0  0  0  0  0  0  0  0  0
   -6.1920   -0.5400  -17.7990 N   0  0  0  0  0  0  0  0  0  0  0  0
   -5.1590    0.2220  -18.0660 C   0  0  0  0  0  0  0  0  0  0  0  0
   -4.7210    0.5290  -19.3820 C   0  0  0  0  0  0  0  0  0  0  0  0
   -3.5930    1.3550  -19.6230 C   0  0  0  0  0  0  0  0  0  0  0  0
   -3.1900    1.6320  -20.9010 C   0  0  0  0  0  0  0  0  0  0  0  0
   -3.9010    1.0890  -21.9940 C   0  0  0  0  0  0  0  0  0  0  0  0
   -4.9980    0.2870  -21.7860 C   0  0  0  0  0  0  0  0  0  0  0  0
   -5.4440   -0.0140  -20.4740 C   0  0  0  0  0  0  0  0  0  0  0  0
   -5.5290   -0.1300  -22.6350 H   0  0  0  0  0  0  0  0  0  0  0  0
   -3.5780    1.3140  -23.0060 H   0  0  0  0  0  0  0  0  0  0  0  0
   -2.3300    2.2720  -21.0850 H   0  0  0  0  0  0  0  0  0  0  0  0
   -3.0610    1.7740  -18.7710 H   0  0  0  0  0  0  0  0  0  0  0  0
   -4.6050    0.6280  -17.2170 H   0  0  0  0  0  0  0  0  0  0  0  0
   -7.7210   -1.6700  -18.5860 H   0  0  0  0  0  0  0  0  0  0  0  0
   -7.6220   -0.7480  -22.0670 H   0  0  0  0  0  0  0  0  0  0  0  0
   -8.3930   -1.7510  -20.8540 H   0  0  0  0  0  0  0  0  0  0  0  0
   -8.5360   -2.9960  -23.6100 C   0  0  1  0  0  0  0  0  0  0  0  0
   -7.9410   -2.2910  -24.8400 C   0  0  0  0  0  0  0  0  0  0  0  0
   -8.7290   -1.9760  -25.5350 H   0  0  0  0  0  0  0  0  0  0  0  0
   -7.2480   -2.9310  -25.3930 H   0  0  0  0  0  0  0  0  0  0  0  0
   -7.3910   -1.3890  -24.5490 H   0  0  0  0  0  0  0  0  0  0  0  0
   -9.5850   -4.0630  -23.9610 C   0  0  0  0  0  0  0  0  0  0  0  0
  -10.1950   -3.6630  -24.7730 H   0  0  0  0  0  0  0  0  0  0  0  0
  -10.2610   -4.1730  -23.1060 H   0  0  0  0  0  0  0  0  0  0  0  0
   -9.0790   -2.2360  -23.0430 H   0  0  0  0  0  0  0  0  0  0  0  0
   -6.2990   -4.7560  -23.9880 H   0  0  0  0  0  0  0  0  0  0  0  0
   -6.2730   -5.1460  -22.2900 H   0  0  0  0  0  0  0  0  0  0  0  0
   -7.5750   -6.8280  -23.6120 H   0  0  0  0  0  0  0  0  0  0  0  0
   -8.5200   -6.0610  -22.3510 H   0  0  0  0  0  0  0  0  0  0  0  0
   -9.9140   -6.1370  -24.2790 H   0  0  0  0  0  0  0  0  0  0  0  0
   -7.5990   -5.0390  -25.9400 H   0  0  0  0  0  0  0  0  0  0  0  0
   -8.3810   -6.6140  -26.0490 H   0  0  0  0  0  0  0  0  0  0  0  0
   -9.2680   -5.1520  -26.4970 H   0  0  0  0  0  0  0  0  0  0  0  0
  1  2  1  0  0  0  0
  1 41  1  0  0  0  0
  1 42  1  0  0  0  0
  1 43  1  0  0  0  0
  2  3  1  0  0  0  0
  2 32  1  0  0  0  0
  2 40  1  1  0  0  0
  3  4  1  0  0  0  0
  3 38  1  0  0  0  0
  3 39  1  0  0  0  0
  4  5  1  0  0  0  0
  4 36  1  0  0  0  0
  4 37  1  0  0  0  0
  5  6  1  0  0  0  0
  5 27  1  0  0  0  0
  6  7  2  0  0  0  0
  6  8  1  0  0  0  0
  8  9  1  0  0  0  0
  8 25  1  0  0  0  0
  8 26  1  0  0  0  0
  9 10  2  0  0  0  0
  9 18  1  0  0  0  0
 10 11  1  0  0  0  0
 10 24  1  0  0  0  0
 11 12  2  0  0  0  0
 12 13  1  0  0  0  0
 12 23  1  0  0  0  0
 13 14  2  0  0  0  0
 13 18  1  0  0  0  0
 14 15  1  0  0  0  0
 14 22  1  0  0  0  0
 15 16  2  0  0  0  0
 15 21  1  0  0  0  0
 16 17  1  0  0  0  0
 16 20  1  0  0  0  0
 17 18  2  0  0  0  0
 17 19  1  0  0  0  0
 27 28  1  0  0  0  0
 27 32  1  0  0  0  0
 27 35  1  1  0  0  0
 28 29  1  0  0  0  0
 28 30  1  0  0  0  0
 28 31  1  0  0  0  0
 32 33  1  0  0  0  0
 32 34  1  0  0  0  0
M  END
>  <MODEL>
       1

$$$$
