tmp_first_model_17_10.pdb
 OpenBabel08282502223D

 57 62  0  0  1  0  0  0  0  0999 V2000
  -10.3180   -1.0270  -23.3740 C   0  0  0  0  0  0  0  0  0  0  0  0
   -8.8960   -1.4520  -23.0130 C   0  0  1  0  0  0  0  0  0  0  0  0
   -8.3010   -0.5540  -21.9200 C   0  0  0  0  0  0  0  0  0  0  0  0
   -7.3330   -1.4100  -21.2590 N   0  0  0  0  0  0  0  0  0  0  0  0
   -6.5570   -0.9150  -20.1850 C   0  0  0  0  0  0  0  0  0  0  0  0
   -6.8940   -1.1610  -18.8780 C   0  0  0  0  0  0  0  0  0  0  0  0
   -6.2570   -0.6030  -17.8160 N   0  0  0  0  0  0  0  0  0  0  0  0
   -5.2480    0.1980  -18.0640 C   0  0  0  0  0  0  0  0  0  0  0  0
   -4.7820    0.5210  -19.3720 C   0  0  0  0  0  0  0  0  0  0  0  0
   -3.6670    1.3720  -19.6060 C   0  0  0  0  0  0  0  0  0  0  0  0
   -3.2720    1.6570  -20.8850 C   0  0  0  0  0  0  0  0  0  0  0  0
   -3.9640    1.1090  -21.9890 C   0  0  0  0  0  0  0  0  0  0  0  0
   -5.0340    0.2740  -21.7880 C   0  0  0  0  0  0  0  0  0  0  0  0
   -5.4660   -0.0380  -20.4710 C   0  0  0  0  0  0  0  0  0  0  0  0
   -5.5550   -0.1700  -22.6280 H   0  0  0  0  0  0  0  0  0  0  0  0
   -3.6340    1.3370  -22.9980 H   0  0  0  0  0  0  0  0  0  0  0  0
   -2.4110    2.2950  -21.0660 H   0  0  0  0  0  0  0  0  0  0  0  0
   -3.1340    1.7840  -18.7520 H   0  0  0  0  0  0  0  0  0  0  0  0
   -4.7390    0.6320  -17.2030 H   0  0  0  0  0  0  0  0  0  0  0  0
   -7.7230   -1.8250  -18.6400 H   0  0  0  0  0  0  0  0  0  0  0  0
   -7.5940   -2.7550  -21.4280 C   0  0  0  0  0  0  0  0  0  0  0  0
   -7.0110   -3.6430  -20.8410 O   0  0  0  0  0  0  0  0  0  0  0  0
   -8.7290   -2.9120  -22.4580 C   0  0  1  0  0  0  0  0  0  0  0  0
   -9.9740   -3.3750  -21.6670 C   0  0  0  0  0  0  0  0  0  0  0  0
  -11.0620   -3.8180  -22.5280 N   0  0  0  0  0  0  0  0  0  0  0  0
  -12.4440   -3.6320  -22.1160 C   0  0  0  0  0  0  0  0  0  0  0  0
  -13.1700   -2.5350  -22.8370 C   0  0  0  0  0  0  0  0  0  0  0  0
  -13.6960   -2.4820  -24.0800 C   0  0  0  0  0  0  0  0  0  0  0  0
  -14.5500   -1.3970  -24.1200 N   0  3  0  0  0  0  0  0  0  0  0  0
  -14.4970   -0.7630  -22.9460 C   0  0  0  0  0  0  0  0  0  0  0  0
  -13.6410   -1.4270  -22.1570 N   0  0  0  0  0  0  0  0  0  0  0  0
  -13.3710   -1.1830  -21.2100 H   0  0  0  0  0  0  0  0  0  0  0  0
  -15.0060    0.1500  -22.6830 H   0  0  0  0  0  0  0  0  0  0  0  0
  -15.1810   -1.2130  -24.8910 H   0  0  0  0  0  0  0  0  0  0  0  0
  -13.5240   -3.1120  -24.9430 H   0  0  0  0  0  0  0  0  0  0  0  0
  -12.9780   -4.5620  -22.3410 H   0  0  0  0  0  0  0  0  0  0  0  0
  -12.4660   -3.4380  -21.0370 H   0  0  0  0  0  0  0  0  0  0  0  0
  -10.8480   -4.5730  -23.6480 C   0  0  0  0  0  0  0  0  0  0  0  0
  -11.7690   -5.0500  -24.3010 O   0  0  0  0  0  0  0  0  0  0  0  0
   -9.4200   -4.7660  -24.0510 C   0  0  0  0  0  0  0  0  0  0  0  0
   -9.1320   -5.7470  -25.0060 C   0  0  0  0  0  0  0  0  0  0  0  0
   -7.8470   -5.9110  -25.4880 C   0  0  0  0  0  0  0  0  0  0  0  0
   -6.8630   -5.0580  -25.0000 C   0  0  0  0  0  0  0  0  0  0  0  0
   -5.6140   -5.1810  -25.4790 F   0  0  0  0  0  0  0  0  0  0  0  0
   -7.1120   -4.1050  -24.0290 C   0  0  0  0  0  0  0  0  0  0  0  0
   -8.4090   -3.9540  -23.5220 C   0  0  0  0  0  0  0  0  0  0  0  0
   -6.2880   -3.5120  -23.6470 H   0  0  0  0  0  0  0  0  0  0  0  0
   -7.5900   -6.6790  -26.2120 H   0  0  0  0  0  0  0  0  0  0  0  0
   -9.9410   -6.3790  -25.3600 H   0  0  0  0  0  0  0  0  0  0  0  0
   -9.6550   -4.1700  -20.9870 H   0  0  0  0  0  0  0  0  0  0  0  0
  -10.3240   -2.5410  -21.0500 H   0  0  0  0  0  0  0  0  0  0  0  0
   -7.8240    0.3450  -22.3190 H   0  0  0  0  0  0  0  0  0  0  0  0
   -9.0760   -0.2120  -21.2130 H   0  0  0  0  0  0  0  0  0  0  0  0
   -8.2550   -1.3990  -23.9020 H   0  0  0  0  0  0  0  0  0  0  0  0
  -10.9120   -0.8770  -22.4660 H   0  0  0  0  0  0  0  0  0  0  0  0
  -10.8230   -1.7820  -23.9800 H   0  0  0  0  0  0  0  0  0  0  0  0
  -10.3290   -0.0820  -23.9230 H   0  0  0  0  0  0  0  0  0  0  0  0
  1  2  1  0  0  0  0
  1 55  1  0  0  0  0
  1 56  1  0  0  0  0
  1 57  1  0  0  0  0
  2  3  1  0  0  0  0
  2 23  1  0  0  0  0
  2 54  1  6  0  0  0
  3  4  1  0  0  0  0
  3 52  1  0  0  0  0
  3 53  1  0  0  0  0
  4  5  1  0  0  0  0
  4 21  1  0  0  0  0
  5  6  2  0  0  0  0
  5 14  1  0  0  0  0
  6  7  1  0  0  0  0
  6 20  1  0  0  0  0
  7  8  2  0  0  0  0
  8  9  1  0  0  0  0
  8 19  1  0  0  0  0
  9 10  2  0  0  0  0
  9 14  1  0  0  0  0
 10 11  1  0  0  0  0
 10 18  1  0  0  0  0
 11 12  2  0  0  0  0
 11 17  1  0  0  0  0
 12 13  1  0  0  0  0
 12 16  1  0  0  0  0
 13 14  2  0  0  0  0
 13 15  1  0  0  0  0
 21 22  2  0  0  0  0
 23 21  1  1  0  0  0
 23 24  1  0  0  0  0
 23 46  1  0  0  0  0
 24 25  1  0  0  0  0
 24 50  1  0  0  0  0
 24 51  1  0  0  0  0
 25 26  1  0  0  0  0
 25 38  1  0  0  0  0
 26 27  1  0  0  0  0
 26 36  1  0  0  0  0
 26 37  1  0  0  0  0
 27 28  2  0  0  0  0
 27 31  1  0  0  0  0
 28 29  1  0  0  0  0
 28 35  1  0  0  0  0
 29 30  2  0  0  0  0
 29 34  1  0  0  0  0
 30 31  1  0  0  0  0
 30 33  1  0  0  0  0
 31 32  1  0  0  0  0
 38 39  2  0  0  0  0
 38 40  1  0  0  0  0
 40 41  2  0  0  0  0
 40 46  1  0  0  0  0
 41 42  1  0  0  0  0
 41 49  1  0  0  0  0
 42 43  2  0  0  0  0
 42 48  1  0  0  0  0
 43 44  1  0  0  0  0
 43 45  1  0  0  0  0
 45 46  2  0  0  0  0
 45 47  1  0  0  0  0
M  CHG  1  29   1
M  END
>  <MODEL>
       1

$$$$
