tmp_first_model_9_71.pdb
 OpenBabel08272521403D

 50 54  0  0  1  0  0  0  0  0999 V2000
  -10.4550   -1.1640  -23.2690 C   0  0  0  0  0  0  0  0  0  0  0  0
   -9.0060   -1.4960  -22.9390 C   0  0  1  0  0  0  0  0  0  0  0  0
   -8.3890   -0.5330  -21.9140 C   0  0  0  0  0  0  0  0  0  0  0  0
   -7.3980   -1.3430  -21.2310 N   0  0  0  0  0  0  0  0  0  0  0  0
   -6.5840   -0.8410  -20.1900 C   0  0  0  0  0  0  0  0  0  0  0  0
   -6.8900   -1.0920  -18.8790 C   0  0  0  0  0  0  0  0  0  0  0  0
   -6.2110   -0.5690  -17.8270 N   0  0  0  0  0  0  0  0  0  0  0  0
   -5.1920    0.2110  -18.0870 C   0  0  0  0  0  0  0  0  0  0  0  0
   -4.7500    0.5250  -19.4050 C   0  0  0  0  0  0  0  0  0  0  0  0
   -3.6220    1.3510  -19.6410 C   0  0  0  0  0  0  0  0  0  0  0  0
   -3.2190    1.6200  -20.9180 C   0  0  0  0  0  0  0  0  0  0  0  0
   -3.9210    1.0800  -22.0170 C   0  0  0  0  0  0  0  0  0  0  0  0
   -5.0160    0.2750  -21.8180 C   0  0  0  0  0  0  0  0  0  0  0  0
   -5.4620   -0.0140  -20.5000 C   0  0  0  0  0  0  0  0  0  0  0  0
   -5.5370   -0.1550  -22.6690 H   0  0  0  0  0  0  0  0  0  0  0  0
   -3.5900    1.2990  -23.0280 H   0  0  0  0  0  0  0  0  0  0  0  0
   -2.3620    2.2580  -21.0970 H   0  0  0  0  0  0  0  0  0  0  0  0
   -3.1060    1.7670  -18.7810 H   0  0  0  0  0  0  0  0  0  0  0  0
   -4.6490    0.6380  -17.2390 H   0  0  0  0  0  0  0  0  0  0  0  0
   -7.7280   -1.7360  -18.6260 H   0  0  0  0  0  0  0  0  0  0  0  0
   -7.5410   -2.6940  -21.4460 C   0  0  0  0  0  0  0  0  0  0  0  0
   -6.7810   -3.5450  -21.0250 O   0  0  0  0  0  0  0  0  0  0  0  0
   -8.7770   -2.9230  -22.3320 C   0  0  1  0  0  0  0  0  0  0  0  0
   -9.9620   -3.3780  -21.4520 C   0  0  0  0  0  0  0  0  0  0  0  0
  -11.1020   -3.8320  -22.2340 N   0  0  0  0  0  0  0  0  0  0  0  0
  -12.4640   -3.6360  -21.7870 C   0  0  0  0  0  0  0  0  0  0  0  0
  -13.3260   -2.7970  -22.6460 C   0  0  0  0  0  0  0  0  0  0  0  0
  -14.1120   -2.1900  -23.2370 N   0  0  0  0  0  0  0  0  0  0  0  0
  -12.4690   -3.2010  -20.7880 H   0  0  0  0  0  0  0  0  0  0  0  0
  -12.9620   -4.6030  -21.7600 H   0  0  0  0  0  0  0  0  0  0  0  0
  -10.9580   -4.6100  -23.3500 C   0  0  0  0  0  0  0  0  0  0  0  0
  -11.9340   -5.0440  -23.9460 O   0  0  0  0  0  0  0  0  0  0  0  0
   -9.5580   -4.8240  -23.8180 C   0  0  0  0  0  0  0  0  0  0  0  0
   -9.3120   -5.8100  -24.7710 C   0  0  0  0  0  0  0  0  0  0  0  0
   -8.0620   -5.9450  -25.3390 C   0  0  0  0  0  0  0  0  0  0  0  0
   -7.0680   -5.0790  -24.9100 C   0  0  0  0  0  0  0  0  0  0  0  0
   -5.8680   -5.1570  -25.4950 F   0  0  0  0  0  0  0  0  0  0  0  0
   -7.2630   -4.1270  -23.9340 C   0  0  0  0  0  0  0  0  0  0  0  0
   -8.5270   -3.9940  -23.3640 C   0  0  0  0  0  0  0  0  0  0  0  0
   -6.4410   -3.4960  -23.6190 H   0  0  0  0  0  0  0  0  0  0  0  0
   -7.8530   -6.6740  -26.1120 H   0  0  0  0  0  0  0  0  0  0  0  0
  -10.1320   -6.4590  -25.0480 H   0  0  0  0  0  0  0  0  0  0  0  0
   -9.6160   -4.1620  -20.7770 H   0  0  0  0  0  0  0  0  0  0  0  0
  -10.2790   -2.5240  -20.8510 H   0  0  0  0  0  0  0  0  0  0  0  0
   -9.1490   -0.1660  -21.2090 H   0  0  0  0  0  0  0  0  0  0  0  0
   -7.9310    0.3410  -22.3870 H   0  0  0  0  0  0  0  0  0  0  0  0
   -8.4010   -1.4580  -23.8560 H   0  0  0  0  0  0  0  0  0  0  0  0
  -10.5370   -0.1880  -23.7470 H   0  0  0  0  0  0  0  0  0  0  0  0
  -11.0480   -1.1470  -22.3500 H   0  0  0  0  0  0  0  0  0  0  0  0
  -10.8850   -1.9250  -23.9250 H   0  0  0  0  0  0  0  0  0  0  0  0
  1  2  1  0  0  0  0
  1 48  1  0  0  0  0
  1 49  1  0  0  0  0
  1 50  1  0  0  0  0
  2  3  1  0  0  0  0
  2 23  1  0  0  0  0
  2 47  1  6  0  0  0
  3  4  1  0  0  0  0
  3 45  1  0  0  0  0
  3 46  1  0  0  0  0
  4  5  1  0  0  0  0
  4 21  1  0  0  0  0
  5  6  2  0  0  0  0
  5 14  1  0  0  0  0
  6  7  1  0  0  0  0
  6 20  1  0  0  0  0
  7  8  2  0  0  0  0
  8  9  1  0  0  0  0
  8 19  1  0  0  0  0
  9 10  2  0  0  0  0
  9 14  1  0  0  0  0
 10 11  1  0  0  0  0
 10 18  1  0  0  0  0
 11 12  2  0  0  0  0
 11 17  1  0  0  0  0
 12 13  1  0  0  0  0
 12 16  1  0  0  0  0
 13 14  2  0  0  0  0
 13 15  1  0  0  0  0
 21 22  2  0  0  0  0
 23 21  1  1  0  0  0
 23 24  1  0  0  0  0
 23 39  1  0  0  0  0
 24 25  1  0  0  0  0
 24 43  1  0  0  0  0
 24 44  1  0  0  0  0
 25 26  1  0  0  0  0
 25 31  1  0  0  0  0
 26 27  1  0  0  0  0
 26 29  1  0  0  0  0
 26 30  1  0  0  0  0
 27 28  3  0  0  0  0
 31 32  2  0  0  0  0
 31 33  1  0  0  0  0
 33 34  2  0  0  0  0
 33 39  1  0  0  0  0
 34 35  1  0  0  0  0
 34 42  1  0  0  0  0
 35 36  2  0  0  0  0
 35 41  1  0  0  0  0
 36 37  1  0  0  0  0
 36 38  1  0  0  0  0
 38 39  2  0  0  0  0
 38 40  1  0  0  0  0
M  END
>  <MODEL>
       1

$$$$
