tmp_first_model_13_35.pdb
 OpenBabel08282500103D

 40 42  0  0  0  0  0  0  0  0999 V2000
   -9.1790   -1.9550  -22.6040 O   0  0  0  0  0  0  0  0  0  0  0  0
   -8.2690   -1.1650  -22.3660 C   0  0  0  0  0  0  0  0  0  0  0  0
   -6.8770   -1.6340  -21.9600 C   0  0  0  0  0  0  0  0  0  0  0  0
   -6.3240   -0.9050  -20.7420 C   0  0  0  0  0  0  0  0  0  0  0  0
   -6.9550   -1.0300  -19.5290 C   0  0  0  0  0  0  0  0  0  0  0  0
   -6.5570   -0.4450  -18.3710 N   0  0  0  0  0  0  0  0  0  0  0  0
   -5.4920    0.3160  -18.4130 C   0  0  0  0  0  0  0  0  0  0  0  0
   -4.7390    0.5590  -19.5930 C   0  0  0  0  0  0  0  0  0  0  0  0
   -3.6180    1.4290  -19.6070 C   0  0  0  0  0  0  0  0  0  0  0  0
   -2.9420    1.6740  -20.7720 C   0  0  0  0  0  0  0  0  0  0  0  0
   -3.3770    1.0760  -21.9730 C   0  0  0  0  0  0  0  0  0  0  0  0
   -4.4500    0.2170  -21.9790 C   0  0  0  0  0  0  0  0  0  0  0  0
   -5.1620   -0.0720  -20.7900 C   0  0  0  0  0  0  0  0  0  0  0  0
   -4.7740   -0.2130  -22.9230 H   0  0  0  0  0  0  0  0  0  0  0  0
   -2.8720    1.2990  -22.9080 H   0  0  0  0  0  0  0  0  0  0  0  0
   -2.0830    2.3380  -20.7850 H   0  0  0  0  0  0  0  0  0  0  0  0
   -3.3340    1.9210  -18.6800 H   0  0  0  0  0  0  0  0  0  0  0  0
   -5.1790    0.7860  -17.4820 H   0  0  0  0  0  0  0  0  0  0  0  0
   -7.8470   -1.6510  -19.4400 H   0  0  0  0  0  0  0  0  0  0  0  0
   -6.9740   -2.7010  -21.7570 H   0  0  0  0  0  0  0  0  0  0  0  0
   -6.1940   -1.5460  -22.8060 H   0  0  0  0  0  0  0  0  0  0  0  0
   -8.3690    0.2020  -22.4090 N   0  0  0  0  0  0  0  0  0  0  0  0
   -9.5350    0.8710  -21.7740 C   0  0  0  0  0  0  0  0  0  0  0  0
   -9.5210    1.0160  -21.9550 C   0  0  0  0  0  0  0  0  0  0  0  0
   -9.2240    2.7180  -23.7690 C   0  0  0  0  0  0  0  0  0  0  0  0
   -8.5170    5.3610  -23.2080 C   0  0  0  0  0  0  0  0  0  0  0  0
   -7.9540    5.9960  -24.2150 F   0  0  0  0  0  0  0  0  0  0  0  0
   -9.4250    6.1110  -22.6200 F   0  0  0  0  0  0  0  0  0  0  0  0
   -7.6130    4.9550  -22.3370 F   0  0  0  0  0  0  0  0  0  0  0  0
   -7.9530    2.3290  -23.7160 C   0  0  0  0  0  0  0  0  0  0  0  0
   -7.4110    1.0240  -23.2000 C   0  0  0  0  0  0  0  0  0  0  0  0
   -7.0380    0.4240  -24.0380 H   0  0  0  0  0  0  0  0  0  0  0  0
   -6.5610    1.2630  -22.5570 H   0  0  0  0  0  0  0  0  0  0  0  0
  -10.0180    2.0150  -23.6260 H   0  0  0  0  0  0  0  0  0  0  0  0
   -7.1430    2.9700  -24.0540 H   0  0  0  0  0  0  0  0  0  0  0  0
   -9.4590    3.7570  -24.0030 H   0  0  0  0  0  0  0  0  0  0  0  0
  -10.4260    1.8010  -21.7060 H   0  0  0  0  0  0  0  0  0  0  0  0
   -8.7770    1.8690  -21.4860 H   0  0  0  0  0  0  0  0  0  0  0  0
   -9.8180    0.0770  -20.4680 H   0  0  0  0  0  0  0  0  0  0  0  0
  -10.3150    0.4840  -22.7160 H   0  0  0  0  0  0  0  0  0  0  0  0
  1  2  2  0  0  0  0
  2  3  1  0  0  0  0
  2 22  1  0  0  0  0
  3  4  1  0  0  0  0
  3 20  1  0  0  0  0
  3 21  1  0  0  0  0
  4  5  2  0  0  0  0
  4 13  1  0  0  0  0
  5  6  1  0  0  0  0
  5 19  1  0  0  0  0
  6  7  2  0  0  0  0
  7  8  1  0  0  0  0
  7 18  1  0  0  0  0
  8  9  2  0  0  0  0
  8 13  1  0  0  0  0
  9 10  1  0  0  0  0
  9 17  1  0  0  0  0
 10 11  2  0  0  0  0
 10 16  1  0  0  0  0
 11 12  1  0  0  0  0
 11 15  1  0  0  0  0
 12 13  2  0  0  0  0
 12 14  1  0  0  0  0
 22 23  1  0  0  0  0
 22 31  1  0  0  0  0
 23 24  1  0  0  0  0
 23 39  1  0  0  0  0
 23 40  1  0  0  0  0
 24 25  1  0  0  0  0
 24 37  1  0  0  0  0
 24 38  1  0  0  0  0
 25 26  1  0  0  0  0
 25 30  1  0  0  0  0
 25 36  1  0  0  0  0
 26 27  1  0  0  0  0
 26 28  1  0  0  0  0
 26 29  1  0  0  0  0
 30 31  1  0  0  0  0
 30 34  1  0  0  0  0
 30 35  1  0  0  0  0
 31 32  1  0  0  0  0
 31 33  1  0  0  0  0
M  END
>  <MODEL>
       1

$$$$
