tmp_first_model_13_32.pdb
 OpenBabel08282500103D

 57 62  0  0  1  0  0  0  0  0999 V2000
   -8.1540   -4.0550  -23.7590 C   0  0  0  0  0  0  0  0  0  0  0  0
   -8.3960   -3.1950  -22.5190 C   0  0  1  0  0  0  0  0  0  0  0  0
   -7.0980   -2.4950  -22.0740 C   0  0  0  0  0  0  0  0  0  0  0  0
   -7.5410   -1.3300  -21.3350 N   0  0  0  0  0  0  0  0  0  0  0  0
   -6.7660   -0.7720  -20.2780 C   0  0  0  0  0  0  0  0  0  0  0  0
   -7.0970   -1.0050  -18.9630 C   0  0  0  0  0  0  0  0  0  0  0  0
   -6.3670   -0.5700  -17.9050 N   0  0  0  0  0  0  0  0  0  0  0  0
   -5.2890    0.1360  -18.1360 C   0  0  0  0  0  0  0  0  0  0  0  0
   -4.8280    0.4600  -19.4430 C   0  0  0  0  0  0  0  0  0  0  0  0
   -3.6830    1.2750  -19.6590 C   0  0  0  0  0  0  0  0  0  0  0  0
   -3.2490    1.5370  -20.9300 C   0  0  0  0  0  0  0  0  0  0  0  0
   -3.9170    0.9670  -22.0370 C   0  0  0  0  0  0  0  0  0  0  0  0
   -5.0280    0.1780  -21.8500 C   0  0  0  0  0  0  0  0  0  0  0  0
   -5.5500   -0.0530  -20.5500 C   0  0  0  0  0  0  0  0  0  0  0  0
   -5.5220   -0.2660  -22.7090 H   0  0  0  0  0  0  0  0  0  0  0  0
   -3.5550    1.1450  -23.0450 H   0  0  0  0  0  0  0  0  0  0  0  0
   -2.3930    2.1850  -21.1000 H   0  0  0  0  0  0  0  0  0  0  0  0
   -3.1640    1.6860  -18.7960 H   0  0  0  0  0  0  0  0  0  0  0  0
   -4.7070    0.4750  -17.2720 H   0  0  0  0  0  0  0  0  0  0  0  0
   -7.9800   -1.5850  -18.7060 H   0  0  0  0  0  0  0  0  0  0  0  0
   -8.8740   -1.0380  -21.5610 C   0  0  0  0  0  0  0  0  0  0  0  0
   -9.4850   -0.1630  -20.9910 O   0  0  0  0  0  0  0  0  0  0  0  0
   -9.4270   -2.0250  -22.6540 C   0  0  1  0  0  0  0  0  0  0  0  0
   -9.3050   -1.3960  -24.0670 C   0  0  0  0  0  0  0  0  0  0  0  0
  -10.3250   -0.4070  -24.3770 N   0  0  0  0  0  0  0  0  0  0  0  0
   -9.8810    0.8090  -25.0460 C   0  0  0  0  0  0  0  0  0  0  0  0
   -9.0870    1.6190  -24.0710 C   0  0  0  0  0  0  0  0  0  0  0  0
   -7.7760    1.7560  -24.0360 N   0  0  0  0  0  0  0  0  0  0  0  0
   -7.5010    2.3820  -22.8730 N   0  0  0  0  0  0  0  0  0  0  0  0
   -8.5810    2.6140  -22.2150 N   0  0  0  0  0  0  0  0  0  0  0  0
   -9.5990    2.1530  -22.9540 N   0  0  0  0  0  0  0  0  0  0  0  0
  -10.9570    2.3050  -22.4510 C   0  0  0  0  0  0  0  0  0  0  0  0
  -11.0910    1.6270  -21.6060 H   0  0  0  0  0  0  0  0  0  0  0  0
  -11.6740    2.0710  -23.2440 H   0  0  0  0  0  0  0  0  0  0  0  0
  -11.0900    3.3420  -22.1260 H   0  0  0  0  0  0  0  0  0  0  0  0
  -10.7660    1.3260  -25.4270 H   0  0  0  0  0  0  0  0  0  0  0  0
   -9.2300    0.5640  -25.8880 H   0  0  0  0  0  0  0  0  0  0  0  0
  -11.6380   -0.5440  -24.0300 C   0  0  0  0  0  0  0  0  0  0  0  0
  -12.5250    0.1600  -24.5030 O   0  0  0  0  0  0  0  0  0  0  0  0
  -11.9240   -1.5860  -22.9990 C   0  0  0  0  0  0  0  0  0  0  0  0
  -13.2550   -1.7110  -22.5980 C   0  0  0  0  0  0  0  0  0  0  0  0
  -13.6080   -2.6330  -21.6370 C   0  0  0  0  0  0  0  0  0  0  0  0
  -12.6150   -3.4650  -21.1490 C   0  0  0  0  0  0  0  0  0  0  0  0
  -12.9510   -4.3110  -20.1620 F   0  0  0  0  0  0  0  0  0  0  0  0
  -11.2920   -3.3760  -21.5440 C   0  0  0  0  0  0  0  0  0  0  0  0
  -10.8970   -2.3630  -22.4250 C   0  0  0  0  0  0  0  0  0  0  0  0
  -10.5760   -4.0340  -21.0660 H   0  0  0  0  0  0  0  0  0  0  0  0
  -14.6120   -2.7650  -21.2590 H   0  0  0  0  0  0  0  0  0  0  0  0
  -13.9930   -1.0470  -23.0330 H   0  0  0  0  0  0  0  0  0  0  0  0
   -8.3260   -0.9080  -24.1490 H   0  0  0  0  0  0  0  0  0  0  0  0
   -9.3750   -2.2030  -24.8060 H   0  0  0  0  0  0  0  0  0  0  0  0
   -6.5200   -2.2160  -22.9650 H   0  0  0  0  0  0  0  0  0  0  0  0
   -6.4530   -3.1150  -21.4490 H   0  0  0  0  0  0  0  0  0  0  0  0
   -8.7220   -3.8350  -21.6950 H   0  0  0  0  0  0  0  0  0  0  0  0
   -7.4660   -4.8780  -23.5460 H   0  0  0  0  0  0  0  0  0  0  0  0
   -9.0740   -4.4840  -24.1690 H   0  0  0  0  0  0  0  0  0  0  0  0
   -7.6920   -3.4560  -24.5510 H   0  0  0  0  0  0  0  0  0  0  0  0
  1  2  1  0  0  0  0
  1 55  1  0  0  0  0
  1 56  1  0  0  0  0
  1 57  1  0  0  0  0
  2  3  1  0  0  0  0
  2 23  1  0  0  0  0
  2 54  1  1  0  0  0
  3  4  1  0  0  0  0
  3 52  1  0  0  0  0
  3 53  1  0  0  0  0
  4  5  1  0  0  0  0
  4 21  1  0  0  0  0
  5  6  2  0  0  0  0
  5 14  1  0  0  0  0
  6  7  1  0  0  0  0
  6 20  1  0  0  0  0
  7  8  2  0  0  0  0
  8  9  1  0  0  0  0
  8 19  1  0  0  0  0
  9 10  2  0  0  0  0
  9 14  1  0  0  0  0
 10 11  1  0  0  0  0
 10 18  1  0  0  0  0
 11 12  2  0  0  0  0
 11 17  1  0  0  0  0
 12 13  1  0  0  0  0
 12 16  1  0  0  0  0
 13 14  2  0  0  0  0
 13 15  1  0  0  0  0
 21 22  2  0  0  0  0
 23 21  1  1  0  0  0
 23 24  1  0  0  0  0
 23 46  1  0  0  0  0
 24 25  1  0  0  0  0
 24 50  1  0  0  0  0
 24 51  1  0  0  0  0
 25 26  1  0  0  0  0
 25 38  1  0  0  0  0
 26 27  1  0  0  0  0
 26 36  1  0  0  0  0
 26 37  1  0  0  0  0
 27 28  2  0  0  0  0
 27 31  1  0  0  0  0
 28 29  1  0  0  0  0
 29 30  2  0  0  0  0
 30 31  1  0  0  0  0
 31 32  1  0  0  0  0
 32 33  1  0  0  0  0
 32 34  1  0  0  0  0
 32 35  1  0  0  0  0
 38 39  2  0  0  0  0
 38 40  1  0  0  0  0
 40 41  2  0  0  0  0
 40 46  1  0  0  0  0
 41 42  1  0  0  0  0
 41 49  1  0  0  0  0
 42 43  2  0  0  0  0
 42 48  1  0  0  0  0
 43 44  1  0  0  0  0
 43 45  1  0  0  0  0
 45 46  2  0  0  0  0
 45 47  1  0  0  0  0
M  END
>  <MODEL>
       1

$$$$
