tmp_first_model_4_6.pdb
 OpenBabel08272518513D

 43 45  0  0  0  0  0  0  0  0999 V2000
   -9.7260   -6.0170  -26.7190 C   0  0  0  0  0  0  0  0  0  0  0  0
   -9.4370   -6.4320  -25.2750 C   0  0  0  0  0  0  0  0  0  0  0  0
   -8.5330   -5.4500  -24.5130 C   0  0  0  0  0  0  0  0  0  0  0  0
   -8.0740   -6.0130  -23.1670 C   0  0  0  0  0  0  0  0  0  0  0  0
   -7.0830   -5.0760  -22.4990 C   0  0  0  0  0  0  0  0  0  0  0  0
   -7.6010   -3.7140  -22.4480 N   0  0  0  0  0  0  0  0  0  0  0  0
   -6.7960   -2.8190  -21.8140 C   0  0  0  0  0  0  0  0  0  0  0  0
   -5.6200   -3.0760  -21.6000 O   0  0  0  0  0  0  0  0  0  0  0  0
   -7.4100   -1.5140  -21.2930 C   0  0  0  0  0  0  0  0  0  0  0  0
   -6.5000   -0.9910  -20.2200 C   0  0  0  0  0  0  0  0  0  0  0  0
   -6.7550   -1.2710  -18.9040 C   0  0  0  0  0  0  0  0  0  0  0  0
   -5.9280   -0.9940  -17.8660 N   0  0  0  0  0  0  0  0  0  0  0  0
   -4.8170   -0.3570  -18.1450 C   0  0  0  0  0  0  0  0  0  0  0  0
   -4.4350    0.0340  -19.4580 C   0  0  0  0  0  0  0  0  0  0  0  0
   -3.2850    0.8280  -19.7080 C   0  0  0  0  0  0  0  0  0  0  0  0
   -3.0490    1.3390  -20.9570 C   0  0  0  0  0  0  0  0  0  0  0  0
   -3.8870    0.9770  -22.0370 C   0  0  0  0  0  0  0  0  0  0  0  0
   -4.9620    0.1490  -21.8380 C   0  0  0  0  0  0  0  0  0  0  0  0
   -5.3010   -0.2940  -20.5310 C   0  0  0  0  0  0  0  0  0  0  0  0
   -5.6220   -0.0890  -22.6670 H   0  0  0  0  0  0  0  0  0  0  0  0
   -3.6960    1.3820  -23.0270 H   0  0  0  0  0  0  0  0  0  0  0  0
   -2.2680    2.0760  -21.1130 H   0  0  0  0  0  0  0  0  0  0  0  0
   -2.6480    1.0940  -18.8680 H   0  0  0  0  0  0  0  0  0  0  0  0
   -4.1880   -0.0860  -17.2970 H   0  0  0  0  0  0  0  0  0  0  0  0
   -7.7110   -1.7120  -18.6240 H   0  0  0  0  0  0  0  0  0  0  0  0
   -8.4000   -1.7230  -20.8700 H   0  0  0  0  0  0  0  0  0  0  0  0
   -7.5750   -0.8070  -22.1190 H   0  0  0  0  0  0  0  0  0  0  0  0
   -8.9500   -3.4540  -22.9270 C   0  0  0  0  0  0  0  0  0  0  0  0
   -9.2030   -4.0700  -24.3130 C   0  0  0  0  0  0  0  0  0  0  0  0
   -8.8590   -3.3820  -25.0940 H   0  0  0  0  0  0  0  0  0  0  0  0
  -10.2910   -4.1620  -24.4240 H   0  0  0  0  0  0  0  0  0  0  0  0
   -9.0960   -2.3720  -22.9740 H   0  0  0  0  0  0  0  0  0  0  0  0
   -9.6850   -3.8560  -22.2140 H   0  0  0  0  0  0  0  0  0  0  0  0
   -6.8570   -5.4100  -21.4780 H   0  0  0  0  0  0  0  0  0  0  0  0
   -6.1260   -5.0480  -23.0340 H   0  0  0  0  0  0  0  0  0  0  0  0
   -7.5960   -6.9930  -23.2980 H   0  0  0  0  0  0  0  0  0  0  0  0
   -8.9420   -6.1590  -22.5120 H   0  0  0  0  0  0  0  0  0  0  0  0
   -7.6240   -5.3090  -25.1180 H   0  0  0  0  0  0  0  0  0  0  0  0
   -8.9610   -7.4200  -25.2660 H   0  0  0  0  0  0  0  0  0  0  0  0
  -10.3830   -6.5470  -24.7300 H   0  0  0  0  0  0  0  0  0  0  0  0
  -10.2690   -5.0670  -26.7640 H   0  0  0  0  0  0  0  0  0  0  0  0
   -8.7990   -5.8930  -27.2890 H   0  0  0  0  0  0  0  0  0  0  0  0
  -10.3340   -6.7630  -27.2420 H   0  0  0  0  0  0  0  0  0  0  0  0
  1  2  1  0  0  0  0
  1 41  1  0  0  0  0
  1 42  1  0  0  0  0
  1 43  1  0  0  0  0
  2  3  1  0  0  0  0
  2 39  1  0  0  0  0
  2 40  1  0  0  0  0
  3  4  1  0  0  0  0
  3 29  1  0  0  0  0
  3 38  1  0  0  0  0
  4  5  1  0  0  0  0
  4 36  1  0  0  0  0
  4 37  1  0  0  0  0
  5  6  1  0  0  0  0
  5 34  1  0  0  0  0
  5 35  1  0  0  0  0
  6  7  1  0  0  0  0
  6 28  1  0  0  0  0
  7  8  2  0  0  0  0
  7  9  1  0  0  0  0
  9 10  1  0  0  0  0
  9 26  1  0  0  0  0
  9 27  1  0  0  0  0
 10 11  2  0  0  0  0
 10 19  1  0  0  0  0
 11 12  1  0  0  0  0
 11 25  1  0  0  0  0
 12 13  2  0  0  0  0
 13 14  1  0  0  0  0
 13 24  1  0  0  0  0
 14 15  2  0  0  0  0
 14 19  1  0  0  0  0
 15 16  1  0  0  0  0
 15 23  1  0  0  0  0
 16 17  2  0  0  0  0
 16 22  1  0  0  0  0
 17 18  1  0  0  0  0
 17 21  1  0  0  0  0
 18 19  2  0  0  0  0
 18 20  1  0  0  0  0
 28 29  1  0  0  0  0
 28 32  1  0  0  0  0
 28 33  1  0  0  0  0
 29 30  1  0  0  0  0
 29 31  1  0  0  0  0
M  END
>  <MODEL>
       1

$$$$
