tmp_first_model_12_90.pdb
 OpenBabel08272523333D

 64 68  0  0  1  0  0  0  0  0999 V2000
   -7.3060   -4.5290  -27.8330 C   0  0  0  0  0  0  0  0  0  0  0  0
   -7.9640   -3.4550  -27.1020 N   0  0  0  0  0  0  0  0  0  0  0  0
   -9.1900   -3.7000  -26.5490 C   0  0  0  0  0  0  0  0  0  0  0  0
   -9.6640   -4.8220  -26.5290 O   0  0  0  0  0  0  0  0  0  0  0  0
   -9.9140   -2.4920  -25.9420 C   0  0  0  0  0  0  0  0  0  0  0  0
  -10.0100   -2.5480  -24.4850 N   0  0  0  0  0  0  0  0  0  0  0  0
   -9.2640   -1.5750  -23.6670 C   0  0  0  0  0  0  0  0  0  0  0  0
   -8.8090   -2.1080  -22.2770 C   0  0  2  0  0  0  0  0  0  0  0  0
   -8.2380   -1.0010  -21.4030 C   0  0  0  0  0  0  0  0  0  0  0  0
   -8.8910   -0.1120  -20.8900 O   0  0  0  0  0  0  0  0  0  0  0  0
   -6.8920   -1.2160  -21.2300 N   0  0  0  0  0  0  0  0  0  0  0  0
   -6.2220   -0.6080  -20.1380 C   0  0  0  0  0  0  0  0  0  0  0  0
   -6.5470   -0.9360  -18.8450 C   0  0  0  0  0  0  0  0  0  0  0  0
   -5.8890   -0.4730  -17.7540 N   0  0  0  0  0  0  0  0  0  0  0  0
   -4.8890    0.3530  -17.9570 C   0  0  0  0  0  0  0  0  0  0  0  0
   -4.4710    0.8000  -19.2440 C   0  0  0  0  0  0  0  0  0  0  0  0
   -3.3890    1.7010  -19.4240 C   0  0  0  0  0  0  0  0  0  0  0  0
   -3.0770    2.1580  -20.6750 C   0  0  0  0  0  0  0  0  0  0  0  0
   -3.8310    1.7530  -21.8000 C   0  0  0  0  0  0  0  0  0  0  0  0
   -4.8720    0.8690  -21.6530 C   0  0  0  0  0  0  0  0  0  0  0  0
   -5.1870    0.3440  -20.3730 C   0  0  0  0  0  0  0  0  0  0  0  0
   -5.4640    0.5600  -22.5100 H   0  0  0  0  0  0  0  0  0  0  0  0
   -3.5870    2.1470  -22.7820 H   0  0  0  0  0  0  0  0  0  0  0  0
   -2.2570    2.8580  -20.8110 H   0  0  0  0  0  0  0  0  0  0  0  0
   -2.8370    2.0260  -18.5450 H   0  0  0  0  0  0  0  0  0  0  0  0
   -4.3610    0.7120  -17.0740 H   0  0  0  0  0  0  0  0  0  0  0  0
   -7.3730   -1.6140  -18.6400 H   0  0  0  0  0  0  0  0  0  0  0  0
   -6.3950   -2.3410  -22.0120 C   0  0  0  0  0  0  0  0  0  0  0  0
   -7.6660   -3.1690  -22.3070 C   0  0  2  0  0  0  0  0  0  0  0  0
   -7.6300   -4.0190  -23.5790 C   0  0  0  0  0  0  0  0  0  0  0  0
   -6.4660   -5.3710  -23.6150 S   0  0  0  0  0  0  0  0  0  0  0  0
   -6.6110   -6.0080  -24.9150 O   0  0  0  0  0  0  0  0  0  0  0  0
   -5.1780   -4.8960  -23.1360 O   0  0  0  0  0  0  0  0  0  0  0  0
   -7.0200   -6.4430  -22.4870 N   0  0  0  0  0  0  0  0  0  0  0  0
   -8.2990   -7.1020  -22.7240 C   0  0  0  0  0  0  0  0  0  0  0  0
   -8.2240   -7.6900  -23.6420 H   0  0  0  0  0  0  0  0  0  0  0  0
   -9.1440   -6.4020  -22.8160 H   0  0  0  0  0  0  0  0  0  0  0  0
   -8.4940   -7.7730  -21.8840 H   0  0  0  0  0  0  0  0  0  0  0  0
   -6.8260   -6.1300  -21.5460 H   0  0  0  0  0  0  0  0  0  0  0  0
   -7.3710   -3.4280  -24.4620 H   0  0  0  0  0  0  0  0  0  0  0  0
   -8.6150   -4.4640  -23.7410 H   0  0  0  0  0  0  0  0  0  0  0  0
   -7.8500   -3.8370  -21.4550 H   0  0  0  0  0  0  0  0  0  0  0  0
   -5.9430   -1.9880  -22.9510 H   0  0  0  0  0  0  0  0  0  0  0  0
   -5.6340   -2.9000  -21.4630 H   0  0  0  0  0  0  0  0  0  0  0  0
  -10.0600   -2.5420  -21.5310 C   0  0  0  0  0  0  0  0  0  0  0  0
  -10.4140   -3.8310  -21.5790 C   0  0  0  0  0  0  0  0  0  0  0  0
  -13.1830   -3.7200  -20.9200 C   0  0  0  0  0  0  0  0  0  0  0  0
  -13.9860   -4.5540  -20.2630 F   0  0  0  0  0  0  0  0  0  0  0  0
  -13.1530   -3.6330  -20.9480 C   0  0  0  0  0  0  0  0  0  0  0  0
  -12.7200   -3.5230  -22.2580 C   0  0  0  0  0  0  0  0  0  0  0  0
  -11.2350   -3.3510  -22.5080 C   0  0  0  0  0  0  0  0  0  0  0  0
  -11.0660   -3.2800  -23.9690 C   0  0  0  0  0  0  0  0  0  0  0  0
  -11.8780   -3.8520  -24.6630 O   0  0  0  0  0  0  0  0  0  0  0  0
  -13.1470   -4.4510  -22.3560 H   0  0  0  0  0  0  0  0  0  0  0  0
  -12.9110   -2.7540  -20.0720 H   0  0  0  0  0  0  0  0  0  0  0  0
  -10.4720   -1.8190  -20.8020 H   0  0  0  0  0  0  0  0  0  0  0  0
   -9.8880   -0.6970  -23.4680 H   0  0  0  0  0  0  0  0  0  0  0  0
   -8.3910   -1.2440  -24.2380 H   0  0  0  0  0  0  0  0  0  0  0  0
  -10.9280   -2.5120  -26.3510 H   0  0  0  0  0  0  0  0  0  0  0  0
   -9.4260   -1.5560  -26.2410 H   0  0  0  0  0  0  0  0  0  0  0  0
   -7.6940   -2.5030  -27.2900 H   0  0  0  0  0  0  0  0  0  0  0  0
   -6.2680   -4.2500  -28.0270 H   0  0  0  0  0  0  0  0  0  0  0  0
   -7.8090   -4.7500  -28.7840 H   0  0  0  0  0  0  0  0  0  0  0  0
   -7.3370   -5.4200  -27.2030 H   0  0  0  0  0  0  0  0  0  0  0  0
  1  2  1  0  0  0  0
  1 62  1  0  0  0  0
  1 63  1  0  0  0  0
  1 64  1  0  0  0  0
  2  3  1  0  0  0  0
  2 61  1  0  0  0  0
  3  4  2  0  0  0  0
  3  5  1  0  0  0  0
  5  6  1  0  0  0  0
  5 59  1  0  0  0  0
  5 60  1  0  0  0  0
  6  7  1  0  0  0  0
  6 52  1  0  0  0  0
  7  8  1  0  0  0  0
  7 57  1  0  0  0  0
  7 58  1  0  0  0  0
  8  9  1  1  0  0  0
  8 29  1  0  0  0  0
  8 45  1  0  0  0  0
  9 10  2  0  0  0  0
  9 11  1  0  0  0  0
 11 12  1  0  0  0  0
 11 28  1  0  0  0  0
 12 13  2  0  0  0  0
 12 21  1  0  0  0  0
 13 14  1  0  0  0  0
 13 27  1  0  0  0  0
 14 15  2  0  0  0  0
 15 16  1  0  0  0  0
 15 26  1  0  0  0  0
 16 17  2  0  0  0  0
 16 21  1  0  0  0  0
 17 18  1  0  0  0  0
 17 25  1  0  0  0  0
 18 19  2  0  0  0  0
 18 24  1  0  0  0  0
 19 20  1  0  0  0  0
 19 23  1  0  0  0  0
 20 21  2  0  0  0  0
 20 22  1  0  0  0  0
 28 29  1  0  0  0  0
 28 43  1  0  0  0  0
 28 44  1  0  0  0  0
 29 30  1  0  0  0  0
 29 42  1  1  0  0  0
 30 31  1  0  0  0  0
 30 40  1  0  0  0  0
 30 41  1  0  0  0  0
 31 32  2  0  0  0  0
 31 33  2  0  0  0  0
 31 34  1  0  0  0  0
 34 35  1  0  0  0  0
 34 39  1  0  0  0  0
 35 36  1  0  0  0  0
 35 37  1  0  0  0  0
 35 38  1  0  0  0  0
 45 46  2  0  0  0  0
 45 51  1  0  0  0  0
 46 47  1  0  0  0  0
 46 56  1  0  0  0  0
 47 48  1  0  0  0  0
 47 49  2  0  0  0  0
 49 50  1  0  0  0  0
 49 55  1  0  0  0  0
 50 51  2  0  0  0  0
 50 54  1  0  0  0  0
 51 52  1  0  0  0  0
 52 53  2  0  0  0  0
M  END
>  <MODEL>
       1

$$$$
