tmp_first_model_8_1.pdb
 OpenBabel08272521063D

 68 73  0  0  1  0  0  0  0  0999 V2000
   -7.2830    3.4820  -21.9000 C   0  0  0  0  0  0  0  0  0  0  0  0
   -8.2610    2.9180  -22.8200 N   0  0  0  0  0  0  0  0  0  0  0  0
   -7.8380    2.2310  -23.9200 C   0  0  0  0  0  0  0  0  0  0  0  0
   -6.6530    2.0540  -24.1790 O   0  0  0  0  0  0  0  0  0  0  0  0
   -8.9680    1.7010  -24.8190 C   0  0  0  0  0  0  0  0  0  0  0  0
   -9.5870    0.5190  -24.2340 N   0  0  0  0  0  0  0  0  0  0  0  0
   -8.7680   -0.6690  -24.0550 C   0  0  0  0  0  0  0  0  0  0  0  0
   -9.1210   -1.4670  -22.7610 C   0  0  2  0  0  0  0  0  0  0  0  0
   -8.6200   -0.6690  -21.5370 C   0  0  0  0  0  0  0  0  0  0  0  0
   -9.1330    0.3160  -21.0510 O   0  0  0  0  0  0  0  0  0  0  0  0
   -7.4580   -1.2430  -21.0790 N   0  0  0  0  0  0  0  0  0  0  0  0
   -6.6610   -0.6870  -20.0670 C   0  0  0  0  0  0  0  0  0  0  0  0
   -6.9310   -0.9770  -18.7580 C   0  0  0  0  0  0  0  0  0  0  0  0
   -6.1820   -0.5400  -17.7220 N   0  0  0  0  0  0  0  0  0  0  0  0
   -5.1430    0.2130  -18.0000 C   0  0  0  0  0  0  0  0  0  0  0  0
   -4.7440    0.5710  -19.3210 C   0  0  0  0  0  0  0  0  0  0  0  0
   -3.6180    1.3980  -19.5860 C   0  0  0  0  0  0  0  0  0  0  0  0
   -3.2870    1.7310  -20.8740 C   0  0  0  0  0  0  0  0  0  0  0  0
   -4.0580    1.2530  -21.9600 C   0  0  0  0  0  0  0  0  0  0  0  0
   -5.1440    0.4450  -21.7300 C   0  0  0  0  0  0  0  0  0  0  0  0
   -5.5190    0.0950  -20.4010 C   0  0  0  0  0  0  0  0  0  0  0  0
   -5.7450    0.1030  -22.5680 H   0  0  0  0  0  0  0  0  0  0  0  0
   -3.7990    1.5290  -22.9800 H   0  0  0  0  0  0  0  0  0  0  0  0
   -2.4360    2.3750  -21.0730 H   0  0  0  0  0  0  0  0  0  0  0  0
   -3.0520    1.7820  -18.7420 H   0  0  0  0  0  0  0  0  0  0  0  0
   -4.5550    0.5820  -17.1580 H   0  0  0  0  0  0  0  0  0  0  0  0
   -7.7850   -1.6070  -18.5140 H   0  0  0  0  0  0  0  0  0  0  0  0
   -7.0040   -2.3770  -21.8300 C   0  0  0  0  0  0  0  0  0  0  0  0
   -8.2580   -2.7680  -22.6160 C   0  0  2  0  0  0  0  0  0  0  0  0
   -7.8830   -3.4840  -23.8950 C   0  0  0  0  0  0  0  0  0  0  0  0
   -9.0640   -4.0220  -24.5230 N   0  0  0  0  0  0  0  0  0  0  0  0
   -8.9260   -4.5270  -25.8090 C   0  0  0  0  0  0  0  0  0  0  0  0
   -7.7220   -4.7700  -26.5180 C   0  0  0  0  0  0  0  0  0  0  0  0
   -7.9590   -5.3100  -27.7090 N   0  0  0  0  0  0  0  0  0  0  0  0
   -9.2810   -5.4410  -27.7590 N   0  0  0  0  0  0  0  0  0  0  0  0
   -9.9450   -5.9690  -28.9130 C   0  0  0  0  0  0  0  0  0  0  0  0
  -10.6940   -5.2440  -29.2320 H   0  0  0  0  0  0  0  0  0  0  0  0
  -10.4360   -6.9190  -28.6790 H   0  0  0  0  0  0  0  0  0  0  0  0
   -9.1970   -6.1160  -29.6880 H   0  0  0  0  0  0  0  0  0  0  0  0
   -9.9160   -4.9830  -26.6550 C   0  0  0  0  0  0  0  0  0  0  0  0
  -10.9930   -5.0740  -26.5770 H   0  0  0  0  0  0  0  0  0  0  0  0
   -6.7030   -4.5980  -26.1860 H   0  0  0  0  0  0  0  0  0  0  0  0
   -9.9200   -3.4980  -24.3710 H   0  0  0  0  0  0  0  0  0  0  0  0
   -7.3140   -2.7950  -24.5500 H   0  0  0  0  0  0  0  0  0  0  0  0
   -7.1920   -4.3130  -23.6900 H   0  0  0  0  0  0  0  0  0  0  0  0
   -8.8260   -3.4710  -21.9990 H   0  0  0  0  0  0  0  0  0  0  0  0
   -6.1530   -2.1240  -22.4860 H   0  0  0  0  0  0  0  0  0  0  0  0
   -6.6610   -3.1730  -21.1580 H   0  0  0  0  0  0  0  0  0  0  0  0
  -10.6350   -1.6430  -22.6980 C   0  0  0  0  0  0  0  0  0  0  0  0
  -11.2350   -2.6220  -21.8890 C   0  0  0  0  0  0  0  0  0  0  0  0
  -12.6140   -2.6590  -21.7520 C   0  0  0  0  0  0  0  0  0  0  0  0
  -13.3510   -3.7670  -20.6370 Cl  0  0  0  0  0  0  0  0  0  0  0  0
  -13.4480   -1.7850  -22.4440 C   0  0  0  0  0  0  0  0  0  0  0  0
  -12.8670   -0.8160  -23.2320 C   0  0  0  0  0  0  0  0  0  0  0  0
  -11.4800   -0.7100  -23.3250 C   0  0  0  0  0  0  0  0  0  0  0  0
  -10.9390    0.4940  -24.0450 C   0  0  0  0  0  0  0  0  0  0  0  0
  -11.6710    1.4070  -24.4100 O   0  0  0  0  0  0  0  0  0  0  0  0
  -13.4700   -0.1020  -23.7780 H   0  0  0  0  0  0  0  0  0  0  0  0
  -14.5250   -1.8490  -22.3360 H   0  0  0  0  0  0  0  0  0  0  0  0
  -10.6490   -3.3450  -21.3300 H   0  0  0  0  0  0  0  0  0  0  0  0
   -7.7290   -0.3350  -24.0000 H   0  0  0  0  0  0  0  0  0  0  0  0
   -8.8710   -1.3080  -24.9420 H   0  0  0  0  0  0  0  0  0  0  0  0
   -9.7700    2.4400  -24.9400 H   0  0  0  0  0  0  0  0  0  0  0  0
   -8.5470    1.4910  -25.8130 H   0  0  0  0  0  0  0  0  0  0  0  0
   -9.2090    2.7880  -22.4870 H   0  0  0  0  0  0  0  0  0  0  0  0
   -6.6110    4.1460  -22.4500 H   0  0  0  0  0  0  0  0  0  0  0  0
   -7.8000    4.0480  -21.1190 H   0  0  0  0  0  0  0  0  0  0  0  0
   -6.6640    2.7080  -21.4270 H   0  0  0  0  0  0  0  0  0  0  0  0
  1  2  1  0  0  0  0
  1 66  1  0  0  0  0
  1 67  1  0  0  0  0
  1 68  1  0  0  0  0
  2  3  1  0  0  0  0
  2 65  1  0  0  0  0
  3  4  2  0  0  0  0
  3  5  1  0  0  0  0
  5  6  1  0  0  0  0
  5 63  1  0  0  0  0
  5 64  1  0  0  0  0
  6  7  1  0  0  0  0
  6 56  1  0  0  0  0
  7  8  1  0  0  0  0
  7 61  1  0  0  0  0
  7 62  1  0  0  0  0
  8  9  1  1  0  0  0
  8 29  1  0  0  0  0
  8 49  1  0  0  0  0
  9 10  2  0  0  0  0
  9 11  1  0  0  0  0
 11 12  1  0  0  0  0
 11 28  1  0  0  0  0
 12 13  2  0  0  0  0
 12 21  1  0  0  0  0
 13 14  1  0  0  0  0
 13 27  1  0  0  0  0
 14 15  2  0  0  0  0
 15 16  1  0  0  0  0
 15 26  1  0  0  0  0
 16 17  2  0  0  0  0
 16 21  1  0  0  0  0
 17 18  1  0  0  0  0
 17 25  1  0  0  0  0
 18 19  2  0  0  0  0
 18 24  1  0  0  0  0
 19 20  1  0  0  0  0
 19 23  1  0  0  0  0
 20 21  2  0  0  0  0
 20 22  1  0  0  0  0
 28 29  1  0  0  0  0
 28 47  1  0  0  0  0
 28 48  1  0  0  0  0
 29 30  1  0  0  0  0
 29 46  1  1  0  0  0
 30 31  1  0  0  0  0
 30 44  1  0  0  0  0
 30 45  1  0  0  0  0
 31 32  1  0  0  0  0
 31 43  1  0  0  0  0
 32 33  1  0  0  0  0
 32 40  2  0  0  0  0
 33 34  2  0  0  0  0
 33 42  1  0  0  0  0
 34 35  1  0  0  0  0
 35 36  1  0  0  0  0
 35 40  1  0  0  0  0
 36 37  1  0  0  0  0
 36 38  1  0  0  0  0
 36 39  1  0  0  0  0
 40 41  1  0  0  0  0
 49 50  2  0  0  0  0
 49 55  1  0  0  0  0
 50 51  1  0  0  0  0
 50 60  1  0  0  0  0
 51 52  1  0  0  0  0
 51 53  2  0  0  0  0
 53 54  1  0  0  0  0
 53 59  1  0  0  0  0
 54 55  2  0  0  0  0
 54 58  1  0  0  0  0
 55 56  1  0  0  0  0
 56 57  2  0  0  0  0
M  END
>  <MODEL>
       1

$$$$
