tmp_first_model_3_77.pdb
 OpenBabel08272518143D

 55 60  0  0  1  0  0  0  0  0999 V2000
   -9.9890   -0.9120  -23.5250 C   0  0  0  0  0  0  0  0  0  0  0  0
   -8.6130   -1.2400  -22.9480 C   0  0  1  0  0  0  0  0  0  0  0  0
   -8.1790   -0.3130  -21.7970 C   0  0  0  0  0  0  0  0  0  0  0  0
   -7.2250   -1.1250  -21.0520 N   0  0  0  0  0  0  0  0  0  0  0  0
   -6.4020   -0.6280  -20.0060 C   0  0  0  0  0  0  0  0  0  0  0  0
   -6.6760   -0.9070  -18.6910 C   0  0  0  0  0  0  0  0  0  0  0  0
   -6.0140   -0.3530  -17.6390 N   0  0  0  0  0  0  0  0  0  0  0  0
   -5.0190    0.4600  -17.9020 C   0  0  0  0  0  0  0  0  0  0  0  0
   -4.5710    0.7680  -19.2190 C   0  0  0  0  0  0  0  0  0  0  0  0
   -3.4380    1.5860  -19.4710 C   0  0  0  0  0  0  0  0  0  0  0  0
   -3.0240    1.8160  -20.7520 C   0  0  0  0  0  0  0  0  0  0  0  0
   -3.7220    1.2510  -21.8440 C   0  0  0  0  0  0  0  0  0  0  0  0
   -4.8290    0.4710  -21.6280 C   0  0  0  0  0  0  0  0  0  0  0  0
   -5.2810    0.2110  -20.3090 C   0  0  0  0  0  0  0  0  0  0  0  0
   -5.3630    0.0270  -22.4630 H   0  0  0  0  0  0  0  0  0  0  0  0
   -3.3850    1.4360  -22.8590 H   0  0  0  0  0  0  0  0  0  0  0  0
   -2.1570    2.4410  -20.9470 H   0  0  0  0  0  0  0  0  0  0  0  0
   -2.9150    2.0280  -18.6260 H   0  0  0  0  0  0  0  0  0  0  0  0
   -4.4950    0.9040  -17.0520 H   0  0  0  0  0  0  0  0  0  0  0  0
   -7.4770   -1.5950  -18.4290 H   0  0  0  0  0  0  0  0  0  0  0  0
   -7.3400   -2.4750  -21.3120 C   0  0  0  0  0  0  0  0  0  0  0  0
   -6.6810   -3.3400  -20.7790 O   0  0  0  0  0  0  0  0  0  0  0  0
   -8.4500   -2.6830  -22.3550 C   0  0  1  0  0  0  0  0  0  0  0  0
   -9.7070   -3.1750  -21.5900 C   0  0  0  0  0  0  0  0  0  0  0  0
  -10.7500   -3.6680  -22.4850 N   0  0  0  0  0  0  0  0  0  0  0  0
  -12.1570   -3.5170  -22.0880 C   0  0  0  0  0  0  0  0  0  0  0  0
  -12.9240   -2.4080  -22.7540 C   0  0  0  0  0  0  0  0  0  0  0  0
  -13.5130   -2.3090  -23.9690 C   0  0  0  0  0  0  0  0  0  0  0  0
  -14.1740   -1.1160  -24.0340 O   0  0  0  0  0  0  0  0  0  0  0  0
  -13.9610   -0.5550  -22.8320 C   0  0  0  0  0  0  0  0  0  0  0  0
  -13.2290   -1.2550  -22.0350 N   0  0  0  0  0  0  0  0  0  0  0  0
  -14.4560    0.3840  -22.6240 H   0  0  0  0  0  0  0  0  0  0  0  0
  -13.6280   -2.9370  -24.8370 H   0  0  0  0  0  0  0  0  0  0  0  0
  -12.1770   -3.2700  -21.0240 H   0  0  0  0  0  0  0  0  0  0  0  0
  -12.6460   -4.4850  -22.2450 H   0  0  0  0  0  0  0  0  0  0  0  0
  -10.4000   -4.6280  -23.4040 C   0  0  0  0  0  0  0  0  0  0  0  0
  -11.1740   -5.4340  -23.8790 O   0  0  0  0  0  0  0  0  0  0  0  0
   -8.9790   -4.6580  -23.8460 C   0  0  0  0  0  0  0  0  0  0  0  0
   -8.6350   -5.6300  -24.7880 C   0  0  0  0  0  0  0  0  0  0  0  0
   -7.3570   -5.6940  -25.3010 C   0  0  0  0  0  0  0  0  0  0  0  0
   -6.4280   -4.7830  -24.8090 C   0  0  0  0  0  0  0  0  0  0  0  0
   -5.1770   -4.8330  -25.2970 F   0  0  0  0  0  0  0  0  0  0  0  0
   -6.7350   -3.8420  -23.8420 C   0  0  0  0  0  0  0  0  0  0  0  0
   -8.0490   -3.7420  -23.3630 C   0  0  0  0  0  0  0  0  0  0  0  0
   -5.9330   -3.2340  -23.4380 H   0  0  0  0  0  0  0  0  0  0  0  0
   -7.0760   -6.4320  -26.0470 H   0  0  0  0  0  0  0  0  0  0  0  0
   -9.4030   -6.3310  -25.0980 H   0  0  0  0  0  0  0  0  0  0  0  0
  -10.1350   -2.3700  -20.9910 H   0  0  0  0  0  0  0  0  0  0  0  0
   -9.3920   -3.9560  -20.8830 H   0  0  0  0  0  0  0  0  0  0  0  0
   -9.0400   -0.0400  -21.1670 H   0  0  0  0  0  0  0  0  0  0  0  0
   -7.7290    0.6240  -22.1430 H   0  0  0  0  0  0  0  0  0  0  0  0
   -7.8690   -1.1630  -23.7530 H   0  0  0  0  0  0  0  0  0  0  0  0
   -9.9730    0.0390  -24.0670 H   0  0  0  0  0  0  0  0  0  0  0  0
  -10.2960   -1.6950  -24.2260 H   0  0  0  0  0  0  0  0  0  0  0  0
  -10.7550   -0.8390  -22.7440 H   0  0  0  0  0  0  0  0  0  0  0  0
  1  2  1  0  0  0  0
  1 53  1  0  0  0  0
  1 54  1  0  0  0  0
  1 55  1  0  0  0  0
  2  3  1  0  0  0  0
  2 23  1  0  0  0  0
  2 52  1  6  0  0  0
  3  4  1  0  0  0  0
  3 50  1  0  0  0  0
  3 51  1  0  0  0  0
  4  5  1  0  0  0  0
  4 21  1  0  0  0  0
  5  6  2  0  0  0  0
  5 14  1  0  0  0  0
  6  7  1  0  0  0  0
  6 20  1  0  0  0  0
  7  8  2  0  0  0  0
  8  9  1  0  0  0  0
  8 19  1  0  0  0  0
  9 10  2  0  0  0  0
  9 14  1  0  0  0  0
 10 11  1  0  0  0  0
 10 18  1  0  0  0  0
 11 12  2  0  0  0  0
 11 17  1  0  0  0  0
 12 13  1  0  0  0  0
 12 16  1  0  0  0  0
 13 14  2  0  0  0  0
 13 15  1  0  0  0  0
 21 22  2  0  0  0  0
 23 21  1  1  0  0  0
 23 24  1  0  0  0  0
 23 44  1  0  0  0  0
 24 25  1  0  0  0  0
 24 48  1  0  0  0  0
 24 49  1  0  0  0  0
 25 26  1  0  0  0  0
 25 36  1  0  0  0  0
 26 27  1  0  0  0  0
 26 34  1  0  0  0  0
 26 35  1  0  0  0  0
 27 28  2  0  0  0  0
 27 31  1  0  0  0  0
 28 29  1  0  0  0  0
 28 33  1  0  0  0  0
 29 30  1  0  0  0  0
 30 31  2  0  0  0  0
 30 32  1  0  0  0  0
 36 37  2  0  0  0  0
 36 38  1  0  0  0  0
 38 39  2  0  0  0  0
 38 44  1  0  0  0  0
 39 40  1  0  0  0  0
 39 47  1  0  0  0  0
 40 41  2  0  0  0  0
 40 46  1  0  0  0  0
 41 42  1  0  0  0  0
 41 43  1  0  0  0  0
 43 44  2  0  0  0  0
 43 45  1  0  0  0  0
M  END
>  <MODEL>
       1

$$$$
