tmp_first_model_18_35.pdb
 OpenBabel08282502533D

 40 42  0  0  0  0  0  0  0  0999 V2000
   -8.9610    0.3600  -21.0190 O   0  0  0  0  0  0  0  0  0  0  0  0
   -8.2760   -0.2700  -21.8010 C   0  0  0  0  0  0  0  0  0  0  0  0
   -7.4120   -1.4230  -21.2850 C   0  0  0  0  0  0  0  0  0  0  0  0
   -6.5510   -0.8580  -20.1770 C   0  0  0  0  0  0  0  0  0  0  0  0
   -6.8730   -1.0500  -18.8590 C   0  0  0  0  0  0  0  0  0  0  0  0
   -6.1950   -0.5360  -17.7980 N   0  0  0  0  0  0  0  0  0  0  0  0
   -5.1620    0.2230  -18.0660 C   0  0  0  0  0  0  0  0  0  0  0  0
   -4.7270    0.5350  -19.3830 C   0  0  0  0  0  0  0  0  0  0  0  0
   -3.6080    1.3670  -19.6250 C   0  0  0  0  0  0  0  0  0  0  0  0
   -3.2150    1.6620  -20.9000 C   0  0  0  0  0  0  0  0  0  0  0  0
   -3.9340    1.1280  -21.9980 C   0  0  0  0  0  0  0  0  0  0  0  0
   -5.0180    0.3160  -21.7880 C   0  0  0  0  0  0  0  0  0  0  0  0
   -5.4470   -0.0060  -20.4740 C   0  0  0  0  0  0  0  0  0  0  0  0
   -5.5480   -0.0960  -22.6420 H   0  0  0  0  0  0  0  0  0  0  0  0
   -3.6180    1.3590  -23.0100 H   0  0  0  0  0  0  0  0  0  0  0  0
   -2.3620    2.3090  -21.0790 H   0  0  0  0  0  0  0  0  0  0  0  0
   -3.0800    1.7730  -18.7650 H   0  0  0  0  0  0  0  0  0  0  0  0
   -4.6130    0.6280  -17.2140 H   0  0  0  0  0  0  0  0  0  0  0  0
   -7.7270   -1.6640  -18.5760 H   0  0  0  0  0  0  0  0  0  0  0  0
   -8.0730   -2.1870  -20.8570 H   0  0  0  0  0  0  0  0  0  0  0  0
   -6.8230   -1.8660  -22.1000 H   0  0  0  0  0  0  0  0  0  0  0  0
   -8.1630    0.0930  -23.1290 N   0  0  0  0  0  0  0  0  0  0  0  0
   -8.2620   -0.8220  -24.2570 C   0  0  0  0  0  0  0  0  0  0  0  0
   -7.2850   -0.4230  -25.3590 C   0  0  0  0  0  0  0  0  0  0  0  0
   -7.4970    1.0390  -25.7570 C   0  0  0  0  0  0  0  0  0  0  0  0
   -6.5030    1.4550  -26.8250 C   0  0  0  0  0  0  0  0  0  0  0  0
   -5.2280    1.3560  -26.3820 F   0  0  0  0  0  0  0  0  0  0  0  0
   -6.6090    0.6790  -27.9240 F   0  0  0  0  0  0  0  0  0  0  0  0
   -6.6980    2.7320  -27.2140 F   0  0  0  0  0  0  0  0  0  0  0  0
   -7.4050    1.9420  -24.5260 C   0  0  0  0  0  0  0  0  0  0  0  0
   -8.3920    1.4940  -23.4490 C   0  0  0  0  0  0  0  0  0  0  0  0
   -8.2630    2.0400  -22.5130 H   0  0  0  0  0  0  0  0  0  0  0  0
   -9.4260    1.6700  -23.7850 H   0  0  0  0  0  0  0  0  0  0  0  0
   -7.5950    2.9790  -24.8090 H   0  0  0  0  0  0  0  0  0  0  0  0
   -6.3850    1.9010  -24.1190 H   0  0  0  0  0  0  0  0  0  0  0  0
   -8.4840    1.1590  -26.2290 H   0  0  0  0  0  0  0  0  0  0  0  0
   -6.2580   -0.5490  -24.9950 H   0  0  0  0  0  0  0  0  0  0  0  0
   -7.4080   -1.0690  -26.2320 H   0  0  0  0  0  0  0  0  0  0  0  0
   -8.0740   -1.8290  -23.8850 H   0  0  0  0  0  0  0  0  0  0  0  0
   -9.2830   -0.8110  -24.6780 H   0  0  0  0  0  0  0  0  0  0  0  0
  1  2  2  0  0  0  0
  2  3  1  0  0  0  0
  2 22  1  0  0  0  0
  3  4  1  0  0  0  0
  3 20  1  0  0  0  0
  3 21  1  0  0  0  0
  4  5  2  0  0  0  0
  4 13  1  0  0  0  0
  5  6  1  0  0  0  0
  5 19  1  0  0  0  0
  6  7  2  0  0  0  0
  7  8  1  0  0  0  0
  7 18  1  0  0  0  0
  8  9  2  0  0  0  0
  8 13  1  0  0  0  0
  9 10  1  0  0  0  0
  9 17  1  0  0  0  0
 10 11  2  0  0  0  0
 10 16  1  0  0  0  0
 11 12  1  0  0  0  0
 11 15  1  0  0  0  0
 12 13  2  0  0  0  0
 12 14  1  0  0  0  0
 22 23  1  0  0  0  0
 22 31  1  0  0  0  0
 23 24  1  0  0  0  0
 23 39  1  0  0  0  0
 23 40  1  0  0  0  0
 24 25  1  0  0  0  0
 24 37  1  0  0  0  0
 24 38  1  0  0  0  0
 25 26  1  0  0  0  0
 25 30  1  0  0  0  0
 25 36  1  0  0  0  0
 26 27  1  0  0  0  0
 26 28  1  0  0  0  0
 26 29  1  0  0  0  0
 30 31  1  0  0  0  0
 30 34  1  0  0  0  0
 30 35  1  0  0  0  0
 31 32  1  0  0  0  0
 31 33  1  0  0  0  0
M  END
>  <MODEL>
       1

$$$$
