tmp_first_model_7_40.pdb
 OpenBabel08272520323D

 40 42  0  0  0  0  0  0  0  0999 V2000
   -9.3040   -6.6300  -25.1070 C   0  0  0  0  0  0  0  0  0  0  0  0
   -8.9930   -5.8100  -23.8570 C   0  0  0  0  0  0  0  0  0  0  0  0
   -7.5550   -5.9890  -23.3970 C   0  0  0  0  0  0  0  0  0  0  0  0
   -7.2610   -5.1690  -22.1510 C   0  0  0  0  0  0  0  0  0  0  0  0
   -7.6210   -3.7620  -22.3160 N   0  0  0  0  0  0  0  0  0  0  0  0
   -6.7880   -2.8010  -21.7710 C   0  0  0  0  0  0  0  0  0  0  0  0
   -5.5890   -2.9850  -21.6710 O   0  0  0  0  0  0  0  0  0  0  0  0
   -7.4220   -1.4840  -21.2560 C   0  0  0  0  0  0  0  0  0  0  0  0
   -6.5820   -0.8260  -20.1830 C   0  0  0  0  0  0  0  0  0  0  0  0
   -6.8730   -1.0420  -18.8620 C   0  0  0  0  0  0  0  0  0  0  0  0
   -6.1820   -0.5420  -17.8060 N   0  0  0  0  0  0  0  0  0  0  0  0
   -5.1540    0.2230  -18.0700 C   0  0  0  0  0  0  0  0  0  0  0  0
   -4.7180    0.5300  -19.3840 C   0  0  0  0  0  0  0  0  0  0  0  0
   -3.5880    1.3530  -19.6220 C   0  0  0  0  0  0  0  0  0  0  0  0
   -3.1870    1.6320  -20.9000 C   0  0  0  0  0  0  0  0  0  0  0  0
   -3.9030    1.0930  -21.9910 C   0  0  0  0  0  0  0  0  0  0  0  0
   -4.9970    0.2890  -21.7870 C   0  0  0  0  0  0  0  0  0  0  0  0
   -5.4440   -0.0120  -20.4750 C   0  0  0  0  0  0  0  0  0  0  0  0
   -5.5200   -0.1410  -22.6340 H   0  0  0  0  0  0  0  0  0  0  0  0
   -3.5790    1.3190  -23.0030 H   0  0  0  0  0  0  0  0  0  0  0  0
   -2.3280    2.2750  -21.0810 H   0  0  0  0  0  0  0  0  0  0  0  0
   -3.0600    1.7740  -18.7690 H   0  0  0  0  0  0  0  0  0  0  0  0
   -4.6040    0.6270  -17.2170 H   0  0  0  0  0  0  0  0  0  0  0  0
   -7.7180   -1.6680  -18.5810 H   0  0  0  0  0  0  0  0  0  0  0  0
   -7.5640   -0.7950  -22.1000 H   0  0  0  0  0  0  0  0  0  0  0  0
   -8.4240   -1.6910  -20.8500 H   0  0  0  0  0  0  0  0  0  0  0  0
   -8.9710   -3.5130  -22.7990 C   0  0  0  0  0  0  0  0  0  0  0  0
   -9.2760   -4.3290  -24.0530 C   0  0  0  0  0  0  0  0  0  0  0  0
  -10.3240   -4.1830  -24.3320 H   0  0  0  0  0  0  0  0  0  0  0  0
   -8.6790   -3.9610  -24.8930 H   0  0  0  0  0  0  0  0  0  0  0  0
   -9.0720   -2.4520  -23.0290 H   0  0  0  0  0  0  0  0  0  0  0  0
   -9.7180   -3.7530  -22.0250 H   0  0  0  0  0  0  0  0  0  0  0  0
   -7.8170   -5.6070  -21.3070 H   0  0  0  0  0  0  0  0  0  0  0  0
   -6.2040   -5.2150  -21.8950 H   0  0  0  0  0  0  0  0  0  0  0  0
   -6.8780   -5.6970  -24.2040 H   0  0  0  0  0  0  0  0  0  0  0  0
   -7.3600   -7.0490  -23.1960 H   0  0  0  0  0  0  0  0  0  0  0  0
   -9.6290   -6.1510  -23.0400 H   0  0  0  0  0  0  0  0  0  0  0  0
   -9.1200   -7.7000  -24.9480 H   0  0  0  0  0  0  0  0  0  0  0  0
  -10.3480   -6.5120  -25.4230 H   0  0  0  0  0  0  0  0  0  0  0  0
   -8.6690   -6.3080  -25.9410 H   0  0  0  0  0  0  0  0  0  0  0  0
  1  2  1  0  0  0  0
  1 38  1  0  0  0  0
  1 39  1  0  0  0  0
  1 40  1  0  0  0  0
  2  3  1  0  0  0  0
  2 28  1  0  0  0  0
  2 37  1  0  0  0  0
  3  4  1  0  0  0  0
  3 35  1  0  0  0  0
  3 36  1  0  0  0  0
  4  5  1  0  0  0  0
  4 33  1  0  0  0  0
  4 34  1  0  0  0  0
  5  6  1  0  0  0  0
  5 27  1  0  0  0  0
  6  7  2  0  0  0  0
  6  8  1  0  0  0  0
  8  9  1  0  0  0  0
  8 25  1  0  0  0  0
  8 26  1  0  0  0  0
  9 10  2  0  0  0  0
  9 18  1  0  0  0  0
 10 11  1  0  0  0  0
 10 24  1  0  0  0  0
 11 12  2  0  0  0  0
 12 13  1  0  0  0  0
 12 23  1  0  0  0  0
 13 14  2  0  0  0  0
 13 18  1  0  0  0  0
 14 15  1  0  0  0  0
 14 22  1  0  0  0  0
 15 16  2  0  0  0  0
 15 21  1  0  0  0  0
 16 17  1  0  0  0  0
 16 20  1  0  0  0  0
 17 18  2  0  0  0  0
 17 19  1  0  0  0  0
 27 28  1  0  0  0  0
 27 31  1  0  0  0  0
 27 32  1  0  0  0  0
 28 29  1  0  0  0  0
 28 30  1  0  0  0  0
M  END
>  <MODEL>
       1

$$$$
