tmp_first_model_1_74.pdb
 OpenBabel08272517043D

 43 47  0  0  1  0  0  0  0  0999 V2000
   -9.4060   -0.4890  -20.9660 O   0  0  0  0  0  0  0  0  0  0  0  0
   -8.7280   -1.3880  -21.3780 C   0  0  0  0  0  0  0  0  0  0  0  0
   -9.1300   -2.4650  -22.1160 N   0  0  0  0  0  0  0  0  0  0  0  0
   -8.0340   -3.1540  -22.7440 C   0  0  1  0  0  0  0  0  0  0  0  0
   -8.1030   -4.6950  -22.7180 C   0  0  0  0  0  0  0  0  0  0  0  0
   -8.2240   -4.7240  -24.2760 C   0  0  2  0  0  0  0  0  0  0  0  0
   -7.1750   -5.5220  -24.9850 C   0  0  0  0  0  0  0  0  0  0  0  0
   -5.8190   -5.2760  -24.7390 C   0  0  0  0  0  0  0  0  0  0  0  0
   -4.8280   -6.0090  -25.3820 C   0  0  0  0  0  0  0  0  0  0  0  0
   -5.1770   -7.0090  -26.2880 C   0  0  0  0  0  0  0  0  0  0  0  0
   -6.5170   -7.2660  -26.5470 C   0  0  0  0  0  0  0  0  0  0  0  0
   -7.4970   -6.5300  -25.8920 C   0  0  0  0  0  0  0  0  0  0  0  0
   -9.1650   -6.9150  -26.2500 Cl  0  0  0  0  0  0  0  0  0  0  0  0
   -6.8210   -8.0220  -27.2610 H   0  0  0  0  0  0  0  0  0  0  0  0
   -4.4100   -7.5850  -26.7970 H   0  0  0  0  0  0  0  0  0  0  0  0
   -3.7840   -5.7930  -25.1760 H   0  0  0  0  0  0  0  0  0  0  0  0
   -5.5500   -4.4940  -24.0280 H   0  0  0  0  0  0  0  0  0  0  0  0
   -8.0340   -3.1720  -24.3010 C   0  0  0  0  0  0  0  0  0  0  0  0
   -8.8560   -2.6030  -24.7510 H   0  0  0  0  0  0  0  0  0  0  0  0
   -7.0970   -2.8280  -24.7580 H   0  0  0  0  0  0  0  0  0  0  0  0
   -9.2250   -5.0210  -24.6040 H   0  0  0  0  0  0  0  0  0  0  0  0
   -8.9680   -5.0700  -22.1630 H   0  0  0  0  0  0  0  0  0  0  0  0
   -7.1920   -5.1540  -22.3160 H   0  0  0  0  0  0  0  0  0  0  0  0
   -6.8300   -2.5250  -22.0570 C   0  0  0  0  0  0  0  0  0  0  0  0
   -5.6700   -2.8180  -22.2290 O   0  0  0  0  0  0  0  0  0  0  0  0
   -7.3280   -1.5270  -21.2110 N   0  0  0  0  0  0  0  0  0  0  0  0
   -6.5810   -0.8620  -20.1920 C   0  0  0  0  0  0  0  0  0  0  0  0
   -6.9090   -1.0640  -18.8730 C   0  0  0  0  0  0  0  0  0  0  0  0
   -6.2110   -0.5560  -17.8300 N   0  0  0  0  0  0  0  0  0  0  0  0
   -5.1790    0.2030  -18.0990 C   0  0  0  0  0  0  0  0  0  0  0  0
   -4.7480    0.5250  -19.4120 C   0  0  0  0  0  0  0  0  0  0  0  0
   -3.6180    1.3580  -19.6370 C   0  0  0  0  0  0  0  0  0  0  0  0
   -3.2260    1.6590  -20.9110 C   0  0  0  0  0  0  0  0  0  0  0  0
   -3.9550    1.1440  -22.0070 C   0  0  0  0  0  0  0  0  0  0  0  0
   -5.0490    0.3370  -21.8150 C   0  0  0  0  0  0  0  0  0  0  0  0
   -5.4690   -0.0110  -20.5010 C   0  0  0  0  0  0  0  0  0  0  0  0
   -5.5970   -0.0500  -22.6680 H   0  0  0  0  0  0  0  0  0  0  0  0
   -3.6410    1.3920  -23.0150 H   0  0  0  0  0  0  0  0  0  0  0  0
   -2.3680    2.3030  -21.0910 H   0  0  0  0  0  0  0  0  0  0  0  0
   -3.0850    1.7540  -18.7780 H   0  0  0  0  0  0  0  0  0  0  0  0
   -4.6320    0.6060  -17.2480 H   0  0  0  0  0  0  0  0  0  0  0  0
   -7.7590   -1.6850  -18.6030 H   0  0  0  0  0  0  0  0  0  0  0  0
  -10.0960   -2.5980  -22.3730 H   0  0  0  0  0  0  0  0  0  0  0  0
  1  2  2  0  0  0  0
  2  3  1  0  0  0  0
  2 26  1  0  0  0  0
  3  4  1  0  0  0  0
  3 43  1  0  0  0  0
  4  5  1  0  0  0  0
  4 18  1  0  0  0  0
  4 24  1  1  0  0  0
  5  6  1  0  0  0  0
  5 22  1  0  0  0  0
  5 23  1  0  0  0  0
  6  7  1  0  0  0  0
  6 18  1  0  0  0  0
  6 21  1  6  0  0  0
  7  8  2  0  0  0  0
  7 12  1  0  0  0  0
  8  9  1  0  0  0  0
  8 17  1  0  0  0  0
  9 10  2  0  0  0  0
  9 16  1  0  0  0  0
 10 11  1  0  0  0  0
 10 15  1  0  0  0  0
 11 12  2  0  0  0  0
 11 14  1  0  0  0  0
 12 13  1  0  0  0  0
 18 19  1  0  0  0  0
 18 20  1  0  0  0  0
 24 25  2  0  0  0  0
 24 26  1  0  0  0  0
 26 27  1  0  0  0  0
 27 28  2  0  0  0  0
 27 36  1  0  0  0  0
 28 29  1  0  0  0  0
 28 42  1  0  0  0  0
 29 30  2  0  0  0  0
 30 31  1  0  0  0  0
 30 41  1  0  0  0  0
 31 32  2  0  0  0  0
 31 36  1  0  0  0  0
 32 33  1  0  0  0  0
 32 40  1  0  0  0  0
 33 34  2  0  0  0  0
 33 39  1  0  0  0  0
 34 35  1  0  0  0  0
 34 38  1  0  0  0  0
 35 36  2  0  0  0  0
 35 37  1  0  0  0  0
M  END
>  <MODEL>
       1

$$$$
