tmp_first_model_13_93.pdb
 OpenBabel08282500103D

 62 67  0  0  1  0  0  0  0  0999 V2000
  -11.3180    4.3030  -25.2300 C   0  0  0  0  0  0  0  0  0  0  0  0
   -9.8240    4.1720  -25.5270 C   0  0  0  0  0  0  0  0  0  0  0  0
   -9.0690    3.5910  -24.4240 N   0  0  0  0  0  0  0  0  0  0  0  0
   -8.4890    4.4140  -23.5370 N   0  0  0  0  0  0  0  0  0  0  0  0
   -7.9030    3.6200  -22.6500 C   0  0  0  0  0  0  0  0  0  0  0  0
   -8.1110    2.2650  -22.9710 C   0  0  0  0  0  0  0  0  0  0  0  0
   -8.8900    2.2770  -24.1050 C   0  0  0  0  0  0  0  0  0  0  0  0
   -9.3900    1.1050  -24.9080 C   0  0  0  0  0  0  0  0  0  0  0  0
   -9.8510    0.0030  -24.0840 N   0  0  0  0  0  0  0  0  0  0  0  0
   -9.0390   -1.1940  -23.9800 C   0  0  0  0  0  0  0  0  0  0  0  0
   -9.2250   -1.9120  -22.6160 C   0  0  2  0  0  0  0  0  0  0  0  0
   -8.6620   -1.0280  -21.4700 C   0  0  0  0  0  0  0  0  0  0  0  0
   -9.2270   -0.1060  -20.9100 O   0  0  0  0  0  0  0  0  0  0  0  0
   -7.3760   -1.4350  -21.1930 N   0  0  0  0  0  0  0  0  0  0  0  0
   -6.5990   -0.8250  -20.1690 C   0  0  0  0  0  0  0  0  0  0  0  0
   -6.9050   -1.0470  -18.8490 C   0  0  0  0  0  0  0  0  0  0  0  0
   -6.1940   -0.5450  -17.8120 N   0  0  0  0  0  0  0  0  0  0  0  0
   -5.1630    0.2090  -18.0840 C   0  0  0  0  0  0  0  0  0  0  0  0
   -4.7300    0.5290  -19.4000 C   0  0  0  0  0  0  0  0  0  0  0  0
   -3.6060    1.3640  -19.6430 C   0  0  0  0  0  0  0  0  0  0  0  0
   -3.2260    1.6630  -20.9200 C   0  0  0  0  0  0  0  0  0  0  0  0
   -3.9550    1.1370  -22.0120 C   0  0  0  0  0  0  0  0  0  0  0  0
   -5.0470    0.3260  -21.8010 C   0  0  0  0  0  0  0  0  0  0  0  0
   -5.4660   -0.0040  -20.4870 C   0  0  0  0  0  0  0  0  0  0  0  0
   -5.5980   -0.0640  -22.6530 H   0  0  0  0  0  0  0  0  0  0  0  0
   -3.6570    1.3820  -23.0260 H   0  0  0  0  0  0  0  0  0  0  0  0
   -2.3760    2.3160  -21.1040 H   0  0  0  0  0  0  0  0  0  0  0  0
   -3.0730    1.7690  -18.7850 H   0  0  0  0  0  0  0  0  0  0  0  0
   -4.6130    0.6160  -17.2320 H   0  0  0  0  0  0  0  0  0  0  0  0
   -7.7520   -1.6720  -18.5780 H   0  0  0  0  0  0  0  0  0  0  0  0
   -6.9630   -2.6130  -21.9360 C   0  0  0  0  0  0  0  0  0  0  0  0
   -8.2920   -3.1590  -22.5100 C   0  0  2  0  0  0  0  0  0  0  0  0
   -8.0940   -3.9860  -23.7850 C   0  0  0  0  0  0  0  0  0  0  0  0
   -7.5540   -3.4110  -24.5480 H   0  0  0  0  0  0  0  0  0  0  0  0
   -7.5060   -4.8890  -23.5820 H   0  0  0  0  0  0  0  0  0  0  0  0
   -9.0500   -4.2980  -24.2210 H   0  0  0  0  0  0  0  0  0  0  0  0
   -8.7280   -3.7970  -21.7360 H   0  0  0  0  0  0  0  0  0  0  0  0
   -6.4620   -3.3260  -21.2700 H   0  0  0  0  0  0  0  0  0  0  0  0
   -6.2530   -2.3610  -22.7390 H   0  0  0  0  0  0  0  0  0  0  0  0
  -10.7170   -2.1440  -22.4340 C   0  0  0  0  0  0  0  0  0  0  0  0
  -11.2330   -3.2190  -21.7000 C   0  0  0  0  0  0  0  0  0  0  0  0
  -12.5880   -3.2660  -21.4380 C   0  0  0  0  0  0  0  0  0  0  0  0
  -13.0870   -4.1970  -20.6100 F   0  0  0  0  0  0  0  0  0  0  0  0
  -13.4840   -2.3360  -21.9440 C   0  0  0  0  0  0  0  0  0  0  0  0
  -12.9870   -1.2690  -22.6590 C   0  0  0  0  0  0  0  0  0  0  0  0
  -11.6170   -1.1640  -22.8930 C   0  0  0  0  0  0  0  0  0  0  0  0
  -11.1430    0.0420  -23.6460 C   0  0  0  0  0  0  0  0  0  0  0  0
  -11.8780    0.9940  -23.8700 O   0  0  0  0  0  0  0  0  0  0  0  0
  -13.6340   -0.4800  -23.0250 H   0  0  0  0  0  0  0  0  0  0  0  0
  -14.5350   -2.4730  -21.7250 H   0  0  0  0  0  0  0  0  0  0  0  0
  -10.6020   -3.9850  -21.2620 H   0  0  0  0  0  0  0  0  0  0  0  0
   -9.2990   -1.9060  -24.7820 H   0  0  0  0  0  0  0  0  0  0  0  0
   -7.9930   -0.8940  -24.0910 H   0  0  0  0  0  0  0  0  0  0  0  0
  -10.2040    1.4070  -25.5760 H   0  0  0  0  0  0  0  0  0  0  0  0
   -8.5750    0.7050  -25.5180 H   0  0  0  0  0  0  0  0  0  0  0  0
   -7.7790    1.3720  -22.4640 H   0  0  0  0  0  0  0  0  0  0  0  0
   -7.3640    4.0660  -21.8200 H   0  0  0  0  0  0  0  0  0  0  0  0
   -9.3660    5.1520  -25.7080 H   0  0  0  0  0  0  0  0  0  0  0  0
   -9.6520    3.5480  -26.4130 H   0  0  0  0  0  0  0  0  0  0  0  0
  -11.7700    3.3210  -25.0410 H   0  0  0  0  0  0  0  0  0  0  0  0
  -11.4840    4.9450  -24.3580 H   0  0  0  0  0  0  0  0  0  0  0  0
  -11.8200    4.7600  -26.0900 H   0  0  0  0  0  0  0  0  0  0  0  0
  1  2  1  0  0  0  0
  1 60  1  0  0  0  0
  1 61  1  0  0  0  0
  1 62  1  0  0  0  0
  2  3  1  0  0  0  0
  2 58  1  0  0  0  0
  2 59  1  0  0  0  0
  3  4  1  0  0  0  0
  3  7  1  0  0  0  0
  4  5  2  0  0  0  0
  5  6  1  0  0  0  0
  5 57  1  0  0  0  0
  6  7  2  0  0  0  0
  6 56  1  0  0  0  0
  7  8  1  0  0  0  0
  8  9  1  0  0  0  0
  8 54  1  0  0  0  0
  8 55  1  0  0  0  0
  9 10  1  0  0  0  0
  9 47  1  0  0  0  0
 10 11  1  0  0  0  0
 10 52  1  0  0  0  0
 10 53  1  0  0  0  0
 11 12  1  1  0  0  0
 11 32  1  0  0  0  0
 11 40  1  0  0  0  0
 12 13  2  0  0  0  0
 12 14  1  0  0  0  0
 14 15  1  0  0  0  0
 14 31  1  0  0  0  0
 15 16  2  0  0  0  0
 15 24  1  0  0  0  0
 16 17  1  0  0  0  0
 16 30  1  0  0  0  0
 17 18  2  0  0  0  0
 18 19  1  0  0  0  0
 18 29  1  0  0  0  0
 19 20  2  0  0  0  0
 19 24  1  0  0  0  0
 20 21  1  0  0  0  0
 20 28  1  0  0  0  0
 21 22  2  0  0  0  0
 21 27  1  0  0  0  0
 22 23  1  0  0  0  0
 22 26  1  0  0  0  0
 23 24  2  0  0  0  0
 23 25  1  0  0  0  0
 31 32  1  0  0  0  0
 31 38  1  0  0  0  0
 31 39  1  0  0  0  0
 32 33  1  0  0  0  0
 32 37  1  1  0  0  0
 33 34  1  0  0  0  0
 33 35  1  0  0  0  0
 33 36  1  0  0  0  0
 40 41  2  0  0  0  0
 40 46  1  0  0  0  0
 41 42  1  0  0  0  0
 41 51  1  0  0  0  0
 42 43  1  0  0  0  0
 42 44  2  0  0  0  0
 44 45  1  0  0  0  0
 44 50  1  0  0  0  0
 45 46  2  0  0  0  0
 45 49  1  0  0  0  0
 46 47  1  0  0  0  0
 47 48  2  0  0  0  0
M  END
>  <MODEL>
       1

$$$$
