tmp_first_model_5_19.pdb
 OpenBabel08272519223D

 42 45  0  0  1  0  0  0  0  0999 V2000
   -9.0500   -0.0320  -20.7790 O   0  0  0  0  0  0  0  0  0  0  0  0
   -8.6080   -0.9060  -21.4980 C   0  0  0  0  0  0  0  0  0  0  0  0
   -9.3420   -1.5090  -22.6980 C   0  0  1  0  0  0  0  0  0  0  0  0
  -10.4060   -0.5630  -23.1990 C   0  0  0  0  0  0  0  0  0  0  0  0
  -10.0630    0.7540  -23.4960 C   0  0  0  0  0  0  0  0  0  0  0  0
  -11.0290    1.6650  -23.8880 C   0  0  0  0  0  0  0  0  0  0  0  0
  -12.3590    1.2710  -24.0080 C   0  0  0  0  0  0  0  0  0  0  0  0
  -13.5690    2.4760  -24.2920 Cl  0  0  0  0  0  0  0  0  0  0  0  0
  -12.6880   -0.0740  -23.8280 C   0  0  0  0  0  0  0  0  0  0  0  0
  -14.2990   -0.6370  -24.1120 Cl  0  0  0  0  0  0  0  0  0  0  0  0
  -11.7150   -0.9810  -23.4140 C   0  0  0  0  0  0  0  0  0  0  0  0
  -12.0130   -2.0150  -23.2550 H   0  0  0  0  0  0  0  0  0  0  0  0
  -10.7620    2.6980  -24.0850 H   0  0  0  0  0  0  0  0  0  0  0  0
   -9.0350    1.0880  -23.3750 H   0  0  0  0  0  0  0  0  0  0  0  0
   -8.3260   -1.8160  -23.8050 C   0  0  0  0  0  0  0  0  0  0  0  0
   -7.2380   -2.8030  -23.3810 C   0  0  2  0  0  0  0  0  0  0  0  0
   -7.5390   -4.1450  -23.7240 O   0  0  0  0  0  0  0  0  0  0  0  0
   -8.3760   -4.3690  -23.2940 H   0  0  0  0  0  0  0  0  0  0  0  0
   -6.9370   -2.7070  -21.8790 C   0  0  0  0  0  0  0  0  0  0  0  0
   -7.3520   -1.4370  -21.3050 N   0  0  0  0  0  0  0  0  0  0  0  0
   -6.5660   -0.9270  -20.2480 C   0  0  0  0  0  0  0  0  0  0  0  0
   -6.8820   -1.1340  -18.9320 C   0  0  0  0  0  0  0  0  0  0  0  0
   -6.0330   -0.8590  -17.9130 N   0  0  0  0  0  0  0  0  0  0  0  0
   -4.8600   -0.3520  -18.2170 C   0  0  0  0  0  0  0  0  0  0  0  0
   -4.4520   -0.0190  -19.5410 C   0  0  0  0  0  0  0  0  0  0  0  0
   -3.2780    0.7240  -19.8140 C   0  0  0  0  0  0  0  0  0  0  0  0
   -3.1580    1.3970  -20.9950 C   0  0  0  0  0  0  0  0  0  0  0  0
   -4.0590    1.1480  -22.0650 C   0  0  0  0  0  0  0  0  0  0  0  0
   -5.0910    0.2700  -21.8770 C   0  0  0  0  0  0  0  0  0  0  0  0
   -5.3640   -0.2440  -20.5810 C   0  0  0  0  0  0  0  0  0  0  0  0
   -5.7000   -0.0560  -22.7130 H   0  0  0  0  0  0  0  0  0  0  0  0
   -3.8820    1.5910  -23.0430 H   0  0  0  0  0  0  0  0  0  0  0  0
   -2.2990    2.0290  -21.1790 H   0  0  0  0  0  0  0  0  0  0  0  0
   -2.5790    0.8770  -18.9990 H   0  0  0  0  0  0  0  0  0  0  0  0
   -4.1950   -0.1180  -17.3900 H   0  0  0  0  0  0  0  0  0  0  0  0
   -7.8540   -1.5370  -18.6500 H   0  0  0  0  0  0  0  0  0  0  0  0
   -7.4200   -3.5590  -21.3630 H   0  0  0  0  0  0  0  0  0  0  0  0
   -5.8600   -2.8090  -21.7130 H   0  0  0  0  0  0  0  0  0  0  0  0
   -6.3330   -2.5720  -23.9550 H   0  0  0  0  0  0  0  0  0  0  0  0
   -7.8560   -0.8660  -24.0960 H   0  0  0  0  0  0  0  0  0  0  0  0
   -8.8340   -2.2010  -24.6950 H   0  0  0  0  0  0  0  0  0  0  0  0
   -9.8100   -2.4400  -22.3460 H   0  0  0  0  0  0  0  0  0  0  0  0
  1  2  2  0  0  0  0
  2  3  1  0  0  0  0
  2 20  1  0  0  0  0
  3  4  1  0  0  0  0
  3 15  1  0  0  0  0
  3 42  1  1  0  0  0
  4  5  2  0  0  0  0
  4 11  1  0  0  0  0
  5  6  1  0  0  0  0
  5 14  1  0  0  0  0
  6  7  2  0  0  0  0
  6 13  1  0  0  0  0
  7  8  1  0  0  0  0
  7  9  1  0  0  0  0
  9 10  1  0  0  0  0
  9 11  2  0  0  0  0
 11 12  1  0  0  0  0
 15 16  1  0  0  0  0
 15 40  1  0  0  0  0
 15 41  1  0  0  0  0
 16 17  1  0  0  0  0
 16 19  1  0  0  0  0
 16 39  1  6  0  0  0
 17 18  1  0  0  0  0
 19 20  1  0  0  0  0
 19 37  1  0  0  0  0
 19 38  1  0  0  0  0
 20 21  1  0  0  0  0
 21 22  2  0  0  0  0
 21 30  1  0  0  0  0
 22 23  1  0  0  0  0
 22 36  1  0  0  0  0
 23 24  2  0  0  0  0
 24 25  1  0  0  0  0
 24 35  1  0  0  0  0
 25 26  2  0  0  0  0
 25 30  1  0  0  0  0
 26 27  1  0  0  0  0
 26 34  1  0  0  0  0
 27 28  2  0  0  0  0
 27 33  1  0  0  0  0
 28 29  1  0  0  0  0
 28 32  1  0  0  0  0
 29 30  2  0  0  0  0
 29 31  1  0  0  0  0
M  END
>  <MODEL>
       1

$$$$
