tmp_first_model_1_15.pdb
 OpenBabel08272517043D

 63 68  0  0  1  0  0  0  0  0999 V2000
   -9.5480   -7.9010  -24.5860 C   0  0  0  0  0  0  0  0  0  0  0  0
   -8.3990   -7.5520  -23.7610 N   0  0  0  0  0  0  0  0  0  0  0  0
   -7.2140   -7.1840  -24.3600 C   0  0  0  0  0  0  0  0  0  0  0  0
   -6.8210   -7.6600  -25.4080 O   0  0  0  0  0  0  0  0  0  0  0  0
   -6.4200   -6.1040  -23.6020 C   0  0  0  0  0  0  0  0  0  0  0  0
   -6.7770   -4.7570  -24.0080 N   0  0  0  0  0  0  0  0  0  0  0  0
   -7.9860   -4.1710  -23.4580 C   0  0  0  0  0  0  0  0  0  0  0  0
   -7.8520   -2.6560  -23.1940 C   0  0  2  0  0  0  0  0  0  0  0  0
   -6.8320   -2.3970  -22.0640 C   0  0  0  0  0  0  0  0  0  0  0  0
   -5.7340   -2.8950  -21.9450 O   0  0  0  0  0  0  0  0  0  0  0  0
   -7.3560   -1.4610  -21.2040 N   0  0  0  0  0  0  0  0  0  0  0  0
   -6.5710   -0.8560  -20.1870 C   0  0  0  0  0  0  0  0  0  0  0  0
   -6.8980   -1.0560  -18.8710 C   0  0  0  0  0  0  0  0  0  0  0  0
   -6.2090   -0.5510  -17.8190 N   0  0  0  0  0  0  0  0  0  0  0  0
   -5.1730    0.2090  -18.0850 C   0  0  0  0  0  0  0  0  0  0  0  0
   -4.7350    0.5220  -19.4030 C   0  0  0  0  0  0  0  0  0  0  0  0
   -3.6110    1.3610  -19.6340 C   0  0  0  0  0  0  0  0  0  0  0  0
   -3.2260    1.6640  -20.9100 C   0  0  0  0  0  0  0  0  0  0  0  0
   -3.9510    1.1510  -22.0110 C   0  0  0  0  0  0  0  0  0  0  0  0
   -5.0410    0.3410  -21.8180 C   0  0  0  0  0  0  0  0  0  0  0  0
   -5.4540   -0.0130  -20.4980 C   0  0  0  0  0  0  0  0  0  0  0  0
   -5.5940   -0.0370  -22.6790 H   0  0  0  0  0  0  0  0  0  0  0  0
   -3.6370    1.4020  -23.0200 H   0  0  0  0  0  0  0  0  0  0  0  0
   -2.3690    2.3080  -21.0910 H   0  0  0  0  0  0  0  0  0  0  0  0
   -3.0780    1.7630  -18.7760 H   0  0  0  0  0  0  0  0  0  0  0  0
   -4.6240    0.6160  -17.2340 H   0  0  0  0  0  0  0  0  0  0  0  0
   -7.7530   -1.6810  -18.6160 H   0  0  0  0  0  0  0  0  0  0  0  0
   -8.6880   -1.0180  -21.5500 C   0  0  0  0  0  0  0  0  0  0  0  0
   -9.1530   -1.9790  -22.6590 C   0  0  2  0  0  0  0  0  0  0  0  0
  -10.2630   -2.9030  -22.1090 C   0  0  0  0  0  0  0  0  0  0  0  0
  -10.9470   -3.6660  -23.1350 N   0  0  0  0  0  0  0  0  0  0  0  0
  -11.6240   -3.1830  -24.2010 C   0  0  0  0  0  0  0  0  0  0  0  0
  -12.1570   -4.2770  -24.8550 C   0  0  0  0  0  0  0  0  0  0  0  0
  -11.7150   -5.3700  -24.1010 C   0  0  0  0  0  0  0  0  0  0  0  0
  -10.9840   -4.9980  -23.0630 N   0  0  0  0  0  0  0  0  0  0  0  0
  -11.8770   -6.4260  -24.2710 H   0  0  0  0  0  0  0  0  0  0  0  0
  -12.7380   -4.3280  -25.7610 H   0  0  0  0  0  0  0  0  0  0  0  0
  -11.6190   -2.1220  -24.4170 H   0  0  0  0  0  0  0  0  0  0  0  0
  -11.0090   -2.2860  -21.5880 H   0  0  0  0  0  0  0  0  0  0  0  0
   -9.8700   -3.6320  -21.3980 H   0  0  0  0  0  0  0  0  0  0  0  0
   -9.6310   -1.4250  -23.4750 H   0  0  0  0  0  0  0  0  0  0  0  0
   -9.3410   -1.0760  -20.6850 H   0  0  0  0  0  0  0  0  0  0  0  0
   -8.6840    0.0300  -21.8800 H   0  0  0  0  0  0  0  0  0  0  0  0
   -7.3270   -2.0120  -24.4760 C   0  0  0  0  0  0  0  0  0  0  0  0
   -7.5230   -0.6480  -24.7340 C   0  0  0  0  0  0  0  0  0  0  0  0
   -6.9850   -0.0720  -25.8730 C   0  0  0  0  0  0  0  0  0  0  0  0
   -7.2380    1.6260  -26.1780 Cl  0  0  0  0  0  0  0  0  0  0  0  0
   -6.2330   -0.8170  -26.7790 C   0  0  0  0  0  0  0  0  0  0  0  0
   -6.0050   -2.1540  -26.5090 C   0  0  0  0  0  0  0  0  0  0  0  0
   -6.5290   -2.7500  -25.3600 C   0  0  0  0  0  0  0  0  0  0  0  0
   -6.1560   -4.1840  -25.0820 C   0  0  0  0  0  0  0  0  0  0  0  0
   -5.3230   -4.7700  -25.7610 O   0  0  0  0  0  0  0  0  0  0  0  0
   -5.4000   -2.7660  -27.1690 H   0  0  0  0  0  0  0  0  0  0  0  0
   -5.8220   -0.3360  -27.6600 H   0  0  0  0  0  0  0  0  0  0  0  0
   -8.0780   -0.0070  -24.0540 H   0  0  0  0  0  0  0  0  0  0  0  0
   -8.8230   -4.3320  -24.1470 H   0  0  0  0  0  0  0  0  0  0  0  0
   -8.2010   -4.6730  -22.5150 H   0  0  0  0  0  0  0  0  0  0  0  0
   -5.3740   -6.2520  -23.8500 H   0  0  0  0  0  0  0  0  0  0  0  0
   -6.5540   -6.1740  -22.5130 H   0  0  0  0  0  0  0  0  0  0  0  0
   -8.6380   -7.1010  -22.8920 H   0  0  0  0  0  0  0  0  0  0  0  0
  -10.1180   -6.9940  -24.8060 H   0  0  0  0  0  0  0  0  0  0  0  0
   -9.1770   -8.3430  -25.5130 H   0  0  0  0  0  0  0  0  0  0  0  0
  -10.2430   -8.5900  -24.0930 H   0  0  0  0  0  0  0  0  0  0  0  0
  1  2  1  0  0  0  0
  1 61  1  0  0  0  0
  1 62  1  0  0  0  0
  1 63  1  0  0  0  0
  2  3  1  0  0  0  0
  2 60  1  0  0  0  0
  3  4  2  0  0  0  0
  3  5  1  0  0  0  0
  5  6  1  0  0  0  0
  5 58  1  0  0  0  0
  5 59  1  0  0  0  0
  6  7  1  0  0  0  0
  6 51  1  0  0  0  0
  7  8  1  0  0  0  0
  7 56  1  0  0  0  0
  7 57  1  0  0  0  0
  8  9  1  1  0  0  0
  8 29  1  0  0  0  0
  8 44  1  0  0  0  0
  9 10  2  0  0  0  0
  9 11  1  0  0  0  0
 11 12  1  0  0  0  0
 11 28  1  0  0  0  0
 12 13  2  0  0  0  0
 12 21  1  0  0  0  0
 13 14  1  0  0  0  0
 13 27  1  0  0  0  0
 14 15  2  0  0  0  0
 15 16  1  0  0  0  0
 15 26  1  0  0  0  0
 16 17  2  0  0  0  0
 16 21  1  0  0  0  0
 17 18  1  0  0  0  0
 17 25  1  0  0  0  0
 18 19  2  0  0  0  0
 18 24  1  0  0  0  0
 19 20  1  0  0  0  0
 19 23  1  0  0  0  0
 20 21  2  0  0  0  0
 20 22  1  0  0  0  0
 28 29  1  0  0  0  0
 28 42  1  0  0  0  0
 28 43  1  0  0  0  0
 29 30  1  0  0  0  0
 29 41  1  6  0  0  0
 30 31  1  0  0  0  0
 30 39  1  0  0  0  0
 30 40  1  0  0  0  0
 31 32  1  0  0  0  0
 31 35  1  0  0  0  0
 32 33  2  0  0  0  0
 32 38  1  0  0  0  0
 33 34  1  0  0  0  0
 33 37  1  0  0  0  0
 34 35  2  0  0  0  0
 34 36  1  0  0  0  0
 44 45  2  0  0  0  0
 44 50  1  0  0  0  0
 45 46  1  0  0  0  0
 45 55  1  0  0  0  0
 46 47  1  0  0  0  0
 46 48  2  0  0  0  0
 48 49  1  0  0  0  0
 48 54  1  0  0  0  0
 49 50  2  0  0  0  0
 49 53  1  0  0  0  0
 50 51  1  0  0  0  0
 51 52  2  0  0  0  0
M  END
>  <MODEL>
       1

$$$$
