tmp_first_model_14_11.pdb
 OpenBabel08282500413D

 48 52  0  0  0  0  0  0  0  0999 V2000
   -9.8150   -0.9920  -23.9200 C   0  0  0  0  0  0  0  0  0  0  0  0
   -8.7590   -1.4030  -23.0210 N   0  0  0  0  0  0  0  0  0  0  0  0
   -8.5000   -0.7640  -21.8360 C   0  0  0  0  0  0  0  0  0  0  0  0
   -9.1030    0.1630  -21.3450 O   0  0  0  0  0  0  0  0  0  0  0  0
   -7.3710   -1.3970  -21.2810 N   0  0  0  0  0  0  0  0  0  0  0  0
   -6.5900   -0.8240  -20.2270 C   0  0  0  0  0  0  0  0  0  0  0  0
   -6.9180   -1.0450  -18.9180 C   0  0  0  0  0  0  0  0  0  0  0  0
   -6.2340   -0.5260  -17.8660 N   0  0  0  0  0  0  0  0  0  0  0  0
   -5.1860    0.2140  -18.1110 C   0  0  0  0  0  0  0  0  0  0  0  0
   -4.7250    0.5250  -19.4170 C   0  0  0  0  0  0  0  0  0  0  0  0
   -3.5950    1.3560  -19.6410 C   0  0  0  0  0  0  0  0  0  0  0  0
   -3.2040    1.6540  -20.9160 C   0  0  0  0  0  0  0  0  0  0  0  0
   -3.9250    1.1350  -22.0140 C   0  0  0  0  0  0  0  0  0  0  0  0
   -5.0180    0.3330  -21.8190 C   0  0  0  0  0  0  0  0  0  0  0  0
   -5.4490   -0.0010  -20.5100 C   0  0  0  0  0  0  0  0  0  0  0  0
   -5.5800   -0.0500  -22.6640 H   0  0  0  0  0  0  0  0  0  0  0  0
   -3.6220    1.3790  -23.0250 H   0  0  0  0  0  0  0  0  0  0  0  0
   -2.3520    2.3040  -21.0940 H   0  0  0  0  0  0  0  0  0  0  0  0
   -3.0720    1.7620  -18.7790 H   0  0  0  0  0  0  0  0  0  0  0  0
   -4.6410    0.6040  -17.2500 H   0  0  0  0  0  0  0  0  0  0  0  0
   -7.7600   -1.6780  -18.6520 H   0  0  0  0  0  0  0  0  0  0  0  0
   -6.9150   -2.4300  -22.1000 C   0  0  0  0  0  0  0  0  0  0  0  0
   -5.9600   -3.1290  -21.8750 O   0  0  0  0  0  0  0  0  0  0  0  0
   -7.8290   -2.4570  -23.3180 C   0  0  0  0  0  0  0  0  0  0  0  0
   -8.3850   -3.8480  -23.7180 C   0  0  0  0  0  0  0  0  0  0  0  0
   -7.6380   -3.8070  -24.9970 N   0  0  0  0  0  0  0  0  0  0  0  0
   -8.5460   -3.8900  -26.4230 S   0  0  0  0  0  0  0  0  0  0  0  0
   -7.5940   -3.8510  -27.5140 O   0  0  0  0  0  0  0  0  0  0  0  0
   -9.6220   -2.9130  -26.3150 O   0  0  0  0  0  0  0  0  0  0  0  0
   -9.3170   -5.4850  -26.4160 C   0  0  0  0  0  0  0  0  0  0  0  0
   -8.6030   -6.5750  -26.8950 C   0  0  0  0  0  0  0  0  0  0  0  0
   -9.2530   -7.7970  -26.9710 C   0  0  0  0  0  0  0  0  0  0  0  0
  -10.5650   -7.9390  -26.5490 C   0  0  0  0  0  0  0  0  0  0  0  0
  -11.2740   -6.8370  -26.0790 C   0  0  0  0  0  0  0  0  0  0  0  0
  -10.6510   -5.5970  -26.0280 C   0  0  0  0  0  0  0  0  0  0  0  0
  -11.1970   -4.7140  -25.7100 H   0  0  0  0  0  0  0  0  0  0  0  0
  -12.3130   -6.9270  -25.7750 H   0  0  0  0  0  0  0  0  0  0  0  0
  -11.0070   -8.9280  -26.6280 H   0  0  0  0  0  0  0  0  0  0  0  0
   -8.7840   -8.6510  -27.4270 H   0  0  0  0  0  0  0  0  0  0  0  0
   -7.5760   -6.4560  -27.2300 H   0  0  0  0  0  0  0  0  0  0  0  0
   -7.0950   -2.4450  -24.6860 C   0  0  0  0  0  0  0  0  0  0  0  0
   -7.3840   -1.6470  -25.3810 H   0  0  0  0  0  0  0  0  0  0  0  0
   -6.0090   -2.4860  -24.6040 H   0  0  0  0  0  0  0  0  0  0  0  0
   -8.0160   -4.6640  -23.1000 H   0  0  0  0  0  0  0  0  0  0  0  0
   -9.4760   -3.9200  -23.8110 H   0  0  0  0  0  0  0  0  0  0  0  0
  -10.4610   -1.8430  -24.1590 H   0  0  0  0  0  0  0  0  0  0  0  0
   -9.3990   -0.5970  -24.8550 H   0  0  0  0  0  0  0  0  0  0  0  0
  -10.3750   -0.2120  -23.4030 H   0  0  0  0  0  0  0  0  0  0  0  0
  1  2  1  0  0  0  0
  1 46  1  0  0  0  0
  1 47  1  0  0  0  0
  1 48  1  0  0  0  0
  2  3  1  0  0  0  0
  2 24  1  0  0  0  0
  3  4  2  0  0  0  0
  3  5  1  0  0  0  0
  5  6  1  0  0  0  0
  5 22  1  0  0  0  0
  6  7  2  0  0  0  0
  6 15  1  0  0  0  0
  7  8  1  0  0  0  0
  7 21  1  0  0  0  0
  8  9  2  0  0  0  0
  9 10  1  0  0  0  0
  9 20  1  0  0  0  0
 10 11  2  0  0  0  0
 10 15  1  0  0  0  0
 11 12  1  0  0  0  0
 11 19  1  0  0  0  0
 12 13  2  0  0  0  0
 12 18  1  0  0  0  0
 13 14  1  0  0  0  0
 13 17  1  0  0  0  0
 14 15  2  0  0  0  0
 14 16  1  0  0  0  0
 22 23  2  0  0  0  0
 22 24  1  0  0  0  0
 24 25  1  0  0  0  0
 24 41  1  0  0  0  0
 25 26  1  0  0  0  0
 25 44  1  0  0  0  0
 25 45  1  0  0  0  0
 26 27  1  0  0  0  0
 26 41  1  0  0  0  0
 27 28  2  0  0  0  0
 27 29  2  0  0  0  0
 27 30  1  0  0  0  0
 30 31  2  0  0  0  0
 30 35  1  0  0  0  0
 31 32  1  0  0  0  0
 31 40  1  0  0  0  0
 32 33  2  0  0  0  0
 32 39  1  0  0  0  0
 33 34  1  0  0  0  0
 33 38  1  0  0  0  0
 34 35  2  0  0  0  0
 34 37  1  0  0  0  0
 35 36  1  0  0  0  0
 41 42  1  0  0  0  0
 41 43  1  0  0  0  0
M  END
>  <MODEL>
       1

$$$$
