tmp_first_model_20_28.pdb
 OpenBabel08282503553D

 64 68  0  0  1  0  0  0  0  0999 V2000
   -7.6810    3.0780  -22.4440 C   0  0  0  0  0  0  0  0  0  0  0  0
   -8.5920    2.5900  -23.4530 N   0  0  0  0  0  0  0  0  0  0  0  0
   -8.0610    1.9630  -24.5320 C   0  0  0  0  0  0  0  0  0  0  0  0
   -6.8620    1.9320  -24.7650 O   0  0  0  0  0  0  0  0  0  0  0  0
   -9.0740    1.2220  -25.4030 C   0  0  0  0  0  0  0  0  0  0  0  0
   -9.6970    0.1350  -24.6580 N   0  0  0  0  0  0  0  0  0  0  0  0
   -8.8130   -0.9450  -24.2560 C   0  0  0  0  0  0  0  0  0  0  0  0
   -9.1820   -1.6290  -22.8980 C   0  0  2  0  0  0  0  0  0  0  0  0
   -8.6750   -0.7650  -21.7100 C   0  0  0  0  0  0  0  0  0  0  0  0
   -9.2190    0.2180  -21.2480 O   0  0  0  0  0  0  0  0  0  0  0  0
   -7.4850   -1.2980  -21.2610 N   0  0  0  0  0  0  0  0  0  0  0  0
   -6.7160   -0.7340  -20.2100 C   0  0  0  0  0  0  0  0  0  0  0  0
   -7.0300   -0.9940  -18.9010 C   0  0  0  0  0  0  0  0  0  0  0  0
   -6.3100   -0.5530  -17.8380 N   0  0  0  0  0  0  0  0  0  0  0  0
   -5.2380    0.1600  -18.0870 C   0  0  0  0  0  0  0  0  0  0  0  0
   -4.7900    0.4990  -19.3970 C   0  0  0  0  0  0  0  0  0  0  0  0
   -3.6270    1.2830  -19.6250 C   0  0  0  0  0  0  0  0  0  0  0  0
   -3.2420    1.6010  -20.8980 C   0  0  0  0  0  0  0  0  0  0  0  0
   -4.0030    1.1630  -22.0040 C   0  0  0  0  0  0  0  0  0  0  0  0
   -5.1370    0.4100  -21.8090 C   0  0  0  0  0  0  0  0  0  0  0  0
   -5.5530    0.0480  -20.4980 C   0  0  0  0  0  0  0  0  0  0  0  0
   -5.7550    0.1390  -22.6610 H   0  0  0  0  0  0  0  0  0  0  0  0
   -3.7050    1.4330  -23.0130 H   0  0  0  0  0  0  0  0  0  0  0  0
   -2.3610    2.2140  -21.0690 H   0  0  0  0  0  0  0  0  0  0  0  0
   -3.0590    1.6320  -18.7680 H   0  0  0  0  0  0  0  0  0  0  0  0
   -4.6640    0.5140  -17.2280 H   0  0  0  0  0  0  0  0  0  0  0  0
   -7.9020   -1.6000  -18.6650 H   0  0  0  0  0  0  0  0  0  0  0  0
   -7.0500   -2.4770  -21.9770 C   0  0  0  0  0  0  0  0  0  0  0  0
   -8.3340   -2.9220  -22.7050 C   0  0  2  0  0  0  0  0  0  0  0  0
   -8.0760   -3.6980  -23.9930 C   0  0  0  0  0  0  0  0  0  0  0  0
   -7.2720   -5.2580  -23.7240 S   0  0  0  0  0  0  0  0  0  0  0  0
   -5.8880   -5.0190  -23.3370 O   0  0  0  0  0  0  0  0  0  0  0  0
   -8.1210   -6.1060  -22.8930 O   0  0  0  0  0  0  0  0  0  0  0  0
   -7.2200   -5.8100  -25.2840 N   0  0  0  0  0  0  0  0  0  0  0  0
   -8.4420   -6.3310  -25.8760 C   0  0  0  0  0  0  0  0  0  0  0  0
   -9.0460   -5.5010  -26.2610 H   0  0  0  0  0  0  0  0  0  0  0  0
   -9.0420   -6.8970  -25.1550 H   0  0  0  0  0  0  0  0  0  0  0  0
   -8.1800   -6.9720  -26.7170 H   0  0  0  0  0  0  0  0  0  0  0  0
   -6.3500   -6.3090  -25.4400 H   0  0  0  0  0  0  0  0  0  0  0  0
   -9.0200   -3.9050  -24.5080 H   0  0  0  0  0  0  0  0  0  0  0  0
   -7.4050   -3.1570  -24.6680 H   0  0  0  0  0  0  0  0  0  0  0  0
   -8.8820   -3.5780  -22.0240 H   0  0  0  0  0  0  0  0  0  0  0  0
   -6.2270   -2.2570  -22.6760 H   0  0  0  0  0  0  0  0  0  0  0  0
   -6.6860   -3.2380  -21.2820 H   0  0  0  0  0  0  0  0  0  0  0  0
  -10.6940   -1.7920  -22.8050 C   0  0  0  0  0  0  0  0  0  0  0  0
  -11.2920   -2.7470  -21.9670 C   0  0  0  0  0  0  0  0  0  0  0  0
  -12.6680   -2.7680  -21.7980 C   0  0  0  0  0  0  0  0  0  0  0  0
  -13.3900   -3.9470  -20.7380 Cl  0  0  0  0  0  0  0  0  0  0  0  0
  -13.5040   -1.8500  -22.4300 C   0  0  0  0  0  0  0  0  0  0  0  0
  -12.9240   -0.8870  -23.2300 C   0  0  0  0  0  0  0  0  0  0  0  0
  -11.5410   -0.8550  -23.4170 C   0  0  0  0  0  0  0  0  0  0  0  0
  -10.9890    0.2730  -24.2370 C   0  0  0  0  0  0  0  0  0  0  0  0
  -11.6560    1.2680  -24.4940 O   0  0  0  0  0  0  0  0  0  0  0  0
  -13.5240   -0.1210  -23.7080 H   0  0  0  0  0  0  0  0  0  0  0  0
  -14.5770   -1.8820  -22.2650 H   0  0  0  0  0  0  0  0  0  0  0  0
  -10.7060   -3.4640  -21.4020 H   0  0  0  0  0  0  0  0  0  0  0  0
   -7.8140   -0.5040  -24.1720 H   0  0  0  0  0  0  0  0  0  0  0  0
   -8.7790   -1.6780  -25.0690 H   0  0  0  0  0  0  0  0  0  0  0  0
   -9.8890    1.8760  -25.7090 H   0  0  0  0  0  0  0  0  0  0  0  0
   -8.5400    0.8560  -26.2870 H   0  0  0  0  0  0  0  0  0  0  0  0
   -9.5080    2.3040  -23.1380 H   0  0  0  0  0  0  0  0  0  0  0  0
   -7.0810    2.2520  -22.0530 H   0  0  0  0  0  0  0  0  0  0  0  0
   -6.9960    3.8170  -22.8670 H   0  0  0  0  0  0  0  0  0  0  0  0
   -8.2480    3.5260  -21.6330 H   0  0  0  0  0  0  0  0  0  0  0  0
  1  2  1  0  0  0  0
  1 62  1  0  0  0  0
  1 63  1  0  0  0  0
  1 64  1  0  0  0  0
  2  3  1  0  0  0  0
  2 61  1  0  0  0  0
  3  4  2  0  0  0  0
  3  5  1  0  0  0  0
  5  6  1  0  0  0  0
  5 59  1  0  0  0  0
  5 60  1  0  0  0  0
  6  7  1  0  0  0  0
  6 52  1  0  0  0  0
  7  8  1  0  0  0  0
  7 57  1  0  0  0  0
  7 58  1  0  0  0  0
  8  9  1  1  0  0  0
  8 29  1  0  0  0  0
  8 45  1  0  0  0  0
  9 10  2  0  0  0  0
  9 11  1  0  0  0  0
 11 12  1  0  0  0  0
 11 28  1  0  0  0  0
 12 13  2  0  0  0  0
 12 21  1  0  0  0  0
 13 14  1  0  0  0  0
 13 27  1  0  0  0  0
 14 15  2  0  0  0  0
 15 16  1  0  0  0  0
 15 26  1  0  0  0  0
 16 17  2  0  0  0  0
 16 21  1  0  0  0  0
 17 18  1  0  0  0  0
 17 25  1  0  0  0  0
 18 19  2  0  0  0  0
 18 24  1  0  0  0  0
 19 20  1  0  0  0  0
 19 23  1  0  0  0  0
 20 21  2  0  0  0  0
 20 22  1  0  0  0  0
 28 29  1  0  0  0  0
 28 43  1  0  0  0  0
 28 44  1  0  0  0  0
 29 30  1  0  0  0  0
 29 42  1  1  0  0  0
 30 31  1  0  0  0  0
 30 40  1  0  0  0  0
 30 41  1  0  0  0  0
 31 32  2  0  0  0  0
 31 33  2  0  0  0  0
 31 34  1  0  0  0  0
 34 35  1  0  0  0  0
 34 39  1  0  0  0  0
 35 36  1  0  0  0  0
 35 37  1  0  0  0  0
 35 38  1  0  0  0  0
 45 46  2  0  0  0  0
 45 51  1  0  0  0  0
 46 47  1  0  0  0  0
 46 56  1  0  0  0  0
 47 48  1  0  0  0  0
 47 49  2  0  0  0  0
 49 50  1  0  0  0  0
 49 55  1  0  0  0  0
 50 51  2  0  0  0  0
 50 54  1  0  0  0  0
 51 52  1  0  0  0  0
 52 53  2  0  0  0  0
M  END
>  <MODEL>
       1

$$$$
