tmp_first_model_6_4.pdb
 OpenBabel08272519583D

 59 64  0  0  1  0  0  0  0  0999 V2000
  -10.2810   -2.4640  -22.2590 C   0  0  0  0  0  0  0  0  0  0  0  0
   -9.0540   -1.7180  -22.8000 C   0  0  1  0  0  0  0  0  0  0  0  0
   -8.5250   -0.7150  -21.7560 C   0  0  0  0  0  0  0  0  0  0  0  0
   -7.4160   -1.4120  -21.1510 N   0  0  0  0  0  0  0  0  0  0  0  0
   -6.6210   -0.8320  -20.1370 C   0  0  0  0  0  0  0  0  0  0  0  0
   -6.9300   -1.0790  -18.8270 C   0  0  0  0  0  0  0  0  0  0  0  0
   -6.2490   -0.5720  -17.7720 N   0  0  0  0  0  0  0  0  0  0  0  0
   -5.2250    0.2040  -18.0330 C   0  0  0  0  0  0  0  0  0  0  0  0
   -4.8070    0.5520  -19.3520 C   0  0  0  0  0  0  0  0  0  0  0  0
   -3.6890    1.3970  -19.5750 C   0  0  0  0  0  0  0  0  0  0  0  0
   -3.3560    1.7760  -20.8460 C   0  0  0  0  0  0  0  0  0  0  0  0
   -4.1160    1.3180  -21.9490 C   0  0  0  0  0  0  0  0  0  0  0  0
   -5.1710    0.4570  -21.7670 C   0  0  0  0  0  0  0  0  0  0  0  0
   -5.5360    0.0470  -20.4480 C   0  0  0  0  0  0  0  0  0  0  0  0
   -5.7120    0.0710  -22.6310 H   0  0  0  0  0  0  0  0  0  0  0  0
   -3.8430    1.6310  -22.9530 H   0  0  0  0  0  0  0  0  0  0  0  0
   -2.5100    2.4360  -21.0180 H   0  0  0  0  0  0  0  0  0  0  0  0
   -3.1220    1.7380  -18.7120 H   0  0  0  0  0  0  0  0  0  0  0  0
   -4.6670    0.6110  -17.1880 H   0  0  0  0  0  0  0  0  0  0  0  0
   -7.7610   -1.7400  -18.5890 H   0  0  0  0  0  0  0  0  0  0  0  0
   -6.9830   -2.5110  -21.8510 C   0  0  0  0  0  0  0  0  0  0  0  0
   -6.1200   -3.2670  -21.4620 O   0  0  0  0  0  0  0  0  0  0  0  0
   -7.8280   -2.6320  -23.1370 C   0  0  1  0  0  0  0  0  0  0  0  0
   -8.2010   -4.1240  -23.2960 C   0  0  0  0  0  0  0  0  0  0  0  0
   -7.0490   -4.9120  -23.7000 N   0  0  0  0  0  0  0  0  0  0  0  0
   -6.8540   -6.2050  -23.0720 C   0  0  0  0  0  0  0  0  0  0  0  0
   -7.9860   -7.1390  -23.3810 C   0  0  0  0  0  0  0  0  0  0  0  0
   -8.7310   -7.6690  -22.4440 N   0  0  0  0  0  0  0  0  0  0  0  0
   -9.6350   -8.4570  -23.1080 C   0  0  0  0  0  0  0  0  0  0  0  0
   -9.4320   -8.3930  -24.4520 C   0  0  0  0  0  0  0  0  0  0  0  0
   -8.3720   -7.5290  -24.6400 N   0  0  0  0  0  0  0  0  0  0  0  0
   -7.8420   -7.1750  -25.9590 C   0  0  0  0  0  0  0  0  0  0  0  0
   -8.2620   -7.8820  -26.6820 H   0  0  0  0  0  0  0  0  0  0  0  0
   -8.1200   -6.1610  -26.2760 H   0  0  0  0  0  0  0  0  0  0  0  0
   -6.7530   -7.2500  -25.9850 H   0  0  0  0  0  0  0  0  0  0  0  0
   -9.9520   -8.8670  -25.2680 H   0  0  0  0  0  0  0  0  0  0  0  0
  -10.3380   -9.0700  -22.5670 H   0  0  0  0  0  0  0  0  0  0  0  0
   -5.8950   -6.6030  -23.4320 H   0  0  0  0  0  0  0  0  0  0  0  0
   -6.8010   -6.0810  -21.9780 H   0  0  0  0  0  0  0  0  0  0  0  0
   -6.2280   -4.5420  -24.7190 C   0  0  0  0  0  0  0  0  0  0  0  0
   -5.4270   -5.3150  -25.2330 O   0  0  0  0  0  0  0  0  0  0  0  0
   -6.3490   -3.1210  -25.1640 C   0  0  0  0  0  0  0  0  0  0  0  0
   -5.7100   -2.7690  -26.3520 C   0  0  0  0  0  0  0  0  0  0  0  0
   -5.7260   -1.4670  -26.7980 C   0  0  0  0  0  0  0  0  0  0  0  0
   -6.3880   -0.5330  -26.0140 C   0  0  0  0  0  0  0  0  0  0  0  0
   -6.4040    0.7450  -26.4290 F   0  0  0  0  0  0  0  0  0  0  0  0
   -7.0470   -0.8590  -24.8420 C   0  0  0  0  0  0  0  0  0  0  0  0
   -7.0690   -2.1910  -24.4000 C   0  0  0  0  0  0  0  0  0  0  0  0
   -7.5520   -0.0570  -24.3140 H   0  0  0  0  0  0  0  0  0  0  0  0
   -5.2380   -1.1720  -27.7200 H   0  0  0  0  0  0  0  0  0  0  0  0
   -5.2070   -3.5400  -26.9250 H   0  0  0  0  0  0  0  0  0  0  0  0
   -8.5510   -4.5280  -22.3440 H   0  0  0  0  0  0  0  0  0  0  0  0
   -9.0160   -4.2340  -24.0240 H   0  0  0  0  0  0  0  0  0  0  0  0
   -9.2690   -0.4610  -20.9950 H   0  0  0  0  0  0  0  0  0  0  0  0
   -8.1990    0.2330  -22.2070 H   0  0  0  0  0  0  0  0  0  0  0  0
   -9.3760   -1.1950  -23.7040 H   0  0  0  0  0  0  0  0  0  0  0  0
  -11.0910   -1.7670  -22.0230 H   0  0  0  0  0  0  0  0  0  0  0  0
  -10.0540   -3.0240  -21.3470 H   0  0  0  0  0  0  0  0  0  0  0  0
  -10.6700   -3.1740  -22.9930 H   0  0  0  0  0  0  0  0  0  0  0  0
  1  2  1  0  0  0  0
  1 57  1  0  0  0  0
  1 58  1  0  0  0  0
  1 59  1  0  0  0  0
  2  3  1  0  0  0  0
  2 23  1  0  0  0  0
  2 56  1  6  0  0  0
  3  4  1  0  0  0  0
  3 54  1  0  0  0  0
  3 55  1  0  0  0  0
  4  5  1  0  0  0  0
  4 21  1  0  0  0  0
  5  6  2  0  0  0  0
  5 14  1  0  0  0  0
  6  7  1  0  0  0  0
  6 20  1  0  0  0  0
  7  8  2  0  0  0  0
  8  9  1  0  0  0  0
  8 19  1  0  0  0  0
  9 10  2  0  0  0  0
  9 14  1  0  0  0  0
 10 11  1  0  0  0  0
 10 18  1  0  0  0  0
 11 12  2  0  0  0  0
 11 17  1  0  0  0  0
 12 13  1  0  0  0  0
 12 16  1  0  0  0  0
 13 14  2  0  0  0  0
 13 15  1  0  0  0  0
 21 22  2  0  0  0  0
 23 21  1  1  0  0  0
 23 24  1  0  0  0  0
 23 48  1  0  0  0  0
 24 25  1  0  0  0  0
 24 52  1  0  0  0  0
 24 53  1  0  0  0  0
 25 26  1  0  0  0  0
 25 40  1  0  0  0  0
 26 27  1  0  0  0  0
 26 38  1  0  0  0  0
 26 39  1  0  0  0  0
 27 28  2  0  0  0  0
 27 31  1  0  0  0  0
 28 29  1  0  0  0  0
 29 30  2  0  0  0  0
 29 37  1  0  0  0  0
 30 31  1  0  0  0  0
 30 36  1  0  0  0  0
 31 32  1  0  0  0  0
 32 33  1  0  0  0  0
 32 34  1  0  0  0  0
 32 35  1  0  0  0  0
 40 41  2  0  0  0  0
 40 42  1  0  0  0  0
 42 43  2  0  0  0  0
 42 48  1  0  0  0  0
 43 44  1  0  0  0  0
 43 51  1  0  0  0  0
 44 45  2  0  0  0  0
 44 50  1  0  0  0  0
 45 46  1  0  0  0  0
 45 47  1  0  0  0  0
 47 48  2  0  0  0  0
 47 49  1  0  0  0  0
M  END
>  <MODEL>
       1

$$$$
