tmp_first_model_20_69.pdb
 OpenBabel08282503553D

 63 67  0  0  0  0  0  0  0  0999 V2000
  -10.6830   -5.9140  -28.1870 C   0  0  0  0  0  0  0  0  0  0  0  0
  -10.2990   -5.5100  -26.9770 C   0  0  0  0  0  0  0  0  0  0  0  0
   -9.9310   -4.0630  -26.8490 C   0  0  0  0  0  0  0  0  0  0  0  0
   -9.8310   -3.3620  -27.8460 O   0  0  0  0  0  0  0  0  0  0  0  0
   -9.7540   -3.5430  -25.5740 N   0  0  0  0  0  0  0  0  0  0  0  0
  -10.3970   -4.1330  -24.4000 C   0  0  0  0  0  0  0  0  0  0  0  0
  -11.1400   -3.0530  -23.6320 C   0  0  0  0  0  0  0  0  0  0  0  0
  -10.1330   -2.0690  -23.0890 C   0  0  0  0  0  0  0  0  0  0  0  0
   -9.1410   -1.6400  -24.1670 C   0  0  0  0  0  0  0  0  0  0  0  0
   -8.9820   -2.3690  -25.3680 C   0  0  0  0  0  0  0  0  0  0  0  0
   -8.0360   -1.9560  -26.3250 C   0  0  0  0  0  0  0  0  0  0  0  0
   -7.2560   -0.8330  -26.1040 C   0  0  0  0  0  0  0  0  0  0  0  0
   -7.3950   -0.1010  -24.9310 C   0  0  0  0  0  0  0  0  0  0  0  0
   -8.3530   -0.5030  -24.0090 C   0  0  0  0  0  0  0  0  0  0  0  0
   -8.5110    0.4180  -22.7610 N   0  3  0  0  0  0  0  0  0  0  0  0
   -9.6730    1.4520  -22.8760 C   0  0  0  0  0  0  0  0  0  0  0  0
   -9.4140    2.3520  -24.0420 C   0  0  0  0  0  0  0  0  0  0  0  0
  -10.0840    2.1660  -25.2510 C   0  0  0  0  0  0  0  0  0  0  0  0
   -9.8290    2.9990  -26.3320 C   0  0  0  0  0  0  0  0  0  0  0  0
   -8.9050    4.0330  -26.2160 C   0  0  0  0  0  0  0  0  0  0  0  0
   -8.2380    4.2110  -25.0090 C   0  0  0  0  0  0  0  0  0  0  0  0
   -7.0770    5.5000  -24.8540 Cl  0  0  0  0  0  0  0  0  0  0  0  0
   -8.4730    3.3780  -23.9250 C   0  0  0  0  0  0  0  0  0  0  0  0
   -7.9290    3.5290  -22.9910 H   0  0  0  0  0  0  0  0  0  0  0  0
   -8.6970    4.6890  -27.0540 H   0  0  0  0  0  0  0  0  0  0  0  0
  -10.3480    2.8400  -27.2730 H   0  0  0  0  0  0  0  0  0  0  0  0
  -10.7920    1.3430  -25.3340 H   0  0  0  0  0  0  0  0  0  0  0  0
   -9.7100    2.0070  -21.9350 H   0  0  0  0  0  0  0  0  0  0  0  0
  -10.6080    0.9000  -23.0010 H   0  0  0  0  0  0  0  0  0  0  0  0
   -8.5370   -0.2620  -21.4890 C   0  0  0  0  0  0  0  0  0  0  0  0
   -9.4050   -0.0110  -20.6900 O   0  0  0  0  0  0  0  0  0  0  0  0
   -7.4570   -1.3100  -21.2450 C   0  0  0  0  0  0  0  0  0  0  0  0
   -6.5460   -0.8300  -20.1540 C   0  0  0  0  0  0  0  0  0  0  0  0
   -6.8710   -1.0420  -18.8420 C   0  0  0  0  0  0  0  0  0  0  0  0
   -6.1870   -0.5410  -17.7800 N   0  0  0  0  0  0  0  0  0  0  0  0
   -5.1470    0.2090  -18.0510 C   0  0  0  0  0  0  0  0  0  0  0  0
   -4.6950    0.5170  -19.3630 C   0  0  0  0  0  0  0  0  0  0  0  0
   -3.5790    1.3580  -19.6050 C   0  0  0  0  0  0  0  0  0  0  0  0
   -3.1980    1.6560  -20.8830 C   0  0  0  0  0  0  0  0  0  0  0  0
   -3.9070    1.1180  -21.9820 C   0  0  0  0  0  0  0  0  0  0  0  0
   -4.9820    0.2910  -21.7730 C   0  0  0  0  0  0  0  0  0  0  0  0
   -5.4140   -0.0220  -20.4570 C   0  0  0  0  0  0  0  0  0  0  0  0
   -5.5060   -0.1180  -22.6360 H   0  0  0  0  0  0  0  0  0  0  0  0
   -3.6020    1.3700  -22.9950 H   0  0  0  0  0  0  0  0  0  0  0  0
   -2.3570    2.3190  -21.0690 H   0  0  0  0  0  0  0  0  0  0  0  0
   -3.0420    1.7680  -18.7530 H   0  0  0  0  0  0  0  0  0  0  0  0
   -4.5980    0.6180  -17.2000 H   0  0  0  0  0  0  0  0  0  0  0  0
   -7.7510   -1.6360  -18.5930 H   0  0  0  0  0  0  0  0  0  0  0  0
   -6.9260   -1.5340  -22.1720 H   0  0  0  0  0  0  0  0  0  0  0  0
   -7.9800   -2.2220  -20.9320 H   0  0  0  0  0  0  0  0  0  0  0  0
   -7.6310    1.0010  -22.7990 H   0  0  0  0  0  0  0  0  0  0  0  0
   -6.8270    0.8150  -24.7690 H   0  0  0  0  0  0  0  0  0  0  0  0
   -6.5430   -0.5180  -26.8610 H   0  0  0  0  0  0  0  0  0  0  0  0
   -7.9270   -2.5080  -27.2480 H   0  0  0  0  0  0  0  0  0  0  0  0
  -10.6610   -1.1930  -22.6940 H   0  0  0  0  0  0  0  0  0  0  0  0
   -9.5990   -2.5180  -22.2390 H   0  0  0  0  0  0  0  0  0  0  0  0
  -11.8270   -2.4710  -24.2530 H   0  0  0  0  0  0  0  0  0  0  0  0
  -11.7340   -3.5180  -22.8410 H   0  0  0  0  0  0  0  0  0  0  0  0
  -11.0840   -4.9170  -24.7150 H   0  0  0  0  0  0  0  0  0  0  0  0
   -9.6350   -4.5880  -23.7490 H   0  0  0  0  0  0  0  0  0  0  0  0
  -10.1850   -6.1850  -26.1280 H   0  0  0  0  0  0  0  0  0  0  0  0
  -10.6980   -5.1650  -28.9760 H   0  0  0  0  0  0  0  0  0  0  0  0
  -10.9980   -6.9270  -28.4150 H   0  0  0  0  0  0  0  0  0  0  0  0
  1  2  2  0  0  0  0
  1 62  1  0  0  0  0
  1 63  1  0  0  0  0
  2  3  1  0  0  0  0
  2 61  1  0  0  0  0
  3  4  2  0  0  0  0
  3  5  1  0  0  0  0
  5  6  1  0  0  0  0
  5 10  1  0  0  0  0
  6  7  1  0  0  0  0
  6 59  1  0  0  0  0
  6 60  1  0  0  0  0
  7  8  1  0  0  0  0
  7 57  1  0  0  0  0
  7 58  1  0  0  0  0
  8  9  1  0  0  0  0
  8 55  1  0  0  0  0
  8 56  1  0  0  0  0
  9 10  2  0  0  0  0
  9 14  1  0  0  0  0
 10 11  1  0  0  0  0
 11 12  2  0  0  0  0
 11 54  1  0  0  0  0
 12 13  1  0  0  0  0
 12 53  1  0  0  0  0
 13 14  2  0  0  0  0
 13 52  1  0  0  0  0
 14 15  1  0  0  0  0
 15 16  1  0  0  0  0
 15 30  1  0  0  0  0
 15 51  1  0  0  0  0
 16 17  1  0  0  0  0
 16 28  1  0  0  0  0
 16 29  1  0  0  0  0
 17 18  2  0  0  0  0
 17 23  1  0  0  0  0
 18 19  1  0  0  0  0
 18 27  1  0  0  0  0
 19 20  2  0  0  0  0
 19 26  1  0  0  0  0
 20 21  1  0  0  0  0
 20 25  1  0  0  0  0
 21 22  1  0  0  0  0
 21 23  2  0  0  0  0
 23 24  1  0  0  0  0
 30 31  2  0  0  0  0
 30 32  1  0  0  0  0
 32 33  1  0  0  0  0
 32 49  1  0  0  0  0
 32 50  1  0  0  0  0
 33 34  2  0  0  0  0
 33 42  1  0  0  0  0
 34 35  1  0  0  0  0
 34 48  1  0  0  0  0
 35 36  2  0  0  0  0
 36 37  1  0  0  0  0
 36 47  1  0  0  0  0
 37 38  2  0  0  0  0
 37 42  1  0  0  0  0
 38 39  1  0  0  0  0
 38 46  1  0  0  0  0
 39 40  2  0  0  0  0
 39 45  1  0  0  0  0
 40 41  1  0  0  0  0
 40 44  1  0  0  0  0
 41 42  2  0  0  0  0
 41 43  1  0  0  0  0
M  CHG  1  15   1
M  END
>  <MODEL>
       1

$$$$
