tmp_first_model_18_40.pdb
 OpenBabel08282502533D

 40 42  0  0  0  0  0  0  0  0999 V2000
   -6.4970    1.4270  -26.8590 C   0  0  0  0  0  0  0  0  0  0  0  0
   -7.5020    1.0190  -25.7820 C   0  0  0  0  0  0  0  0  0  0  0  0
   -7.4160    1.9180  -24.5540 C   0  0  0  0  0  0  0  0  0  0  0  0
   -8.3900    1.4850  -23.4650 C   0  0  0  0  0  0  0  0  0  0  0  0
   -8.1730    0.0830  -23.1340 N   0  0  0  0  0  0  0  0  0  0  0  0
   -8.3120   -0.2960  -21.8040 C   0  0  0  0  0  0  0  0  0  0  0  0
   -9.0310    0.2970  -21.0300 O   0  0  0  0  0  0  0  0  0  0  0  0
   -7.4210   -1.4250  -21.2800 C   0  0  0  0  0  0  0  0  0  0  0  0
   -6.5620   -0.8450  -20.1750 C   0  0  0  0  0  0  0  0  0  0  0  0
   -6.8740   -1.0430  -18.8560 C   0  0  0  0  0  0  0  0  0  0  0  0
   -6.1920   -0.5360  -17.7940 N   0  0  0  0  0  0  0  0  0  0  0  0
   -5.1590    0.2230  -18.0650 C   0  0  0  0  0  0  0  0  0  0  0  0
   -4.7250    0.5360  -19.3800 C   0  0  0  0  0  0  0  0  0  0  0  0
   -3.6040    1.3680  -19.6230 C   0  0  0  0  0  0  0  0  0  0  0  0
   -3.2140    1.6620  -20.9000 C   0  0  0  0  0  0  0  0  0  0  0  0
   -3.9330    1.1290  -21.9930 C   0  0  0  0  0  0  0  0  0  0  0  0
   -5.0190    0.3170  -21.7850 C   0  0  0  0  0  0  0  0  0  0  0  0
   -5.4490   -0.0040  -20.4720 C   0  0  0  0  0  0  0  0  0  0  0  0
   -5.5490   -0.0920  -22.6390 H   0  0  0  0  0  0  0  0  0  0  0  0
   -3.6170    1.3620  -23.0070 H   0  0  0  0  0  0  0  0  0  0  0  0
   -2.3580    2.3110  -21.0840 H   0  0  0  0  0  0  0  0  0  0  0  0
   -3.0700    1.7770  -18.7680 H   0  0  0  0  0  0  0  0  0  0  0  0
   -4.6060    0.6280  -17.2140 H   0  0  0  0  0  0  0  0  0  0  0  0
   -7.7270   -1.6610  -18.5780 H   0  0  0  0  0  0  0  0  0  0  0  0
   -6.8210   -1.8640  -22.0870 H   0  0  0  0  0  0  0  0  0  0  0  0
   -8.0710   -2.1970  -20.8480 H   0  0  0  0  0  0  0  0  0  0  0  0
   -8.2760   -0.8310  -24.2620 C   0  0  0  0  0  0  0  0  0  0  0  0
   -7.3090   -0.4350  -25.3650 C   0  0  0  0  0  0  0  0  0  0  0  0
   -6.2830   -0.5740  -25.0060 H   0  0  0  0  0  0  0  0  0  0  0  0
   -7.4320   -1.0940  -26.2300 H   0  0  0  0  0  0  0  0  0  0  0  0
   -8.0800   -1.8390  -23.8990 H   0  0  0  0  0  0  0  0  0  0  0  0
   -9.2990   -0.8400  -24.6750 H   0  0  0  0  0  0  0  0  0  0  0  0
   -9.4240    1.6820  -23.7860 H   0  0  0  0  0  0  0  0  0  0  0  0
   -8.2390    2.0560  -22.5480 H   0  0  0  0  0  0  0  0  0  0  0  0
   -6.3950    1.8920  -24.1530 H   0  0  0  0  0  0  0  0  0  0  0  0
   -7.6030    2.9580  -24.8380 H   0  0  0  0  0  0  0  0  0  0  0  0
   -8.5140    1.1190  -26.1980 H   0  0  0  0  0  0  0  0  0  0  0  0
   -5.4700    1.3400  -26.4830 H   0  0  0  0  0  0  0  0  0  0  0  0
   -6.6400    2.4670  -27.1770 H   0  0  0  0  0  0  0  0  0  0  0  0
   -6.5730    0.7870  -27.7460 H   0  0  0  0  0  0  0  0  0  0  0  0
  1  2  1  0  0  0  0
  1 38  1  0  0  0  0
  1 39  1  0  0  0  0
  1 40  1  0  0  0  0
  2  3  1  0  0  0  0
  2 28  1  0  0  0  0
  2 37  1  0  0  0  0
  3  4  1  0  0  0  0
  3 35  1  0  0  0  0
  3 36  1  0  0  0  0
  4  5  1  0  0  0  0
  4 33  1  0  0  0  0
  4 34  1  0  0  0  0
  5  6  1  0  0  0  0
  5 27  1  0  0  0  0
  6  7  2  0  0  0  0
  6  8  1  0  0  0  0
  8  9  1  0  0  0  0
  8 25  1  0  0  0  0
  8 26  1  0  0  0  0
  9 10  2  0  0  0  0
  9 18  1  0  0  0  0
 10 11  1  0  0  0  0
 10 24  1  0  0  0  0
 11 12  2  0  0  0  0
 12 13  1  0  0  0  0
 12 23  1  0  0  0  0
 13 14  2  0  0  0  0
 13 18  1  0  0  0  0
 14 15  1  0  0  0  0
 14 22  1  0  0  0  0
 15 16  2  0  0  0  0
 15 21  1  0  0  0  0
 16 17  1  0  0  0  0
 16 20  1  0  0  0  0
 17 18  2  0  0  0  0
 17 19  1  0  0  0  0
 27 28  1  0  0  0  0
 27 31  1  0  0  0  0
 27 32  1  0  0  0  0
 28 29  1  0  0  0  0
 28 30  1  0  0  0  0
M  END
>  <MODEL>
       1

$$$$
