tmp_first_model_14_68.pdb
 OpenBabel08282500413D

 65 70  0  0  1  0  0  0  0  0999 V2000
   -9.2440    0.0730  -20.7620 O   0  0  0  0  0  0  0  0  0  0  0  0
   -8.4710   -0.2970  -21.6270 C   0  0  0  0  0  0  0  0  0  0  0  0
   -7.4550   -1.3830  -21.2820 C   0  0  0  0  0  0  0  0  0  0  0  0
   -6.5590   -0.8410  -20.1940 C   0  0  0  0  0  0  0  0  0  0  0  0
   -6.8980   -1.0150  -18.8790 C   0  0  0  0  0  0  0  0  0  0  0  0
   -6.2330   -0.4780  -17.8260 N   0  0  0  0  0  0  0  0  0  0  0  0
   -5.1810    0.2500  -18.0950 C   0  0  0  0  0  0  0  0  0  0  0  0
   -4.7210    0.5360  -19.4070 C   0  0  0  0  0  0  0  0  0  0  0  0
   -3.6000    1.3730  -19.6430 C   0  0  0  0  0  0  0  0  0  0  0  0
   -3.2090    1.6680  -20.9190 C   0  0  0  0  0  0  0  0  0  0  0  0
   -3.9220    1.1360  -22.0160 C   0  0  0  0  0  0  0  0  0  0  0  0
   -5.0090    0.3170  -21.8120 C   0  0  0  0  0  0  0  0  0  0  0  0
   -5.4390   -0.0130  -20.4990 C   0  0  0  0  0  0  0  0  0  0  0  0
   -5.5570   -0.0450  -22.6770 H   0  0  0  0  0  0  0  0  0  0  0  0
   -3.6130    1.3830  -23.0290 H   0  0  0  0  0  0  0  0  0  0  0  0
   -2.3600    2.3230  -21.0940 H   0  0  0  0  0  0  0  0  0  0  0  0
   -3.0790    1.7850  -18.7820 H   0  0  0  0  0  0  0  0  0  0  0  0
   -4.6280    0.6580  -17.2460 H   0  0  0  0  0  0  0  0  0  0  0  0
   -7.7700   -1.6200  -18.6280 H   0  0  0  0  0  0  0  0  0  0  0  0
   -6.8800   -1.7000  -22.1510 H   0  0  0  0  0  0  0  0  0  0  0  0
   -8.0290   -2.2380  -20.9080 H   0  0  0  0  0  0  0  0  0  0  0  0
   -8.4010    0.3090  -22.8700 N   0  0  0  0  0  0  0  0  0  0  0  0
   -8.1960   -0.4580  -24.1000 C   0  0  0  0  0  0  0  0  0  0  0  0
   -9.3710   -1.3790  -24.3450 C   0  0  0  0  0  0  0  0  0  0  0  0
  -10.5140   -0.9370  -25.0030 C   0  0  0  0  0  0  0  0  0  0  0  0
  -11.6650   -1.7090  -25.0170 C   0  0  0  0  0  0  0  0  0  0  0  0
  -11.7090   -2.9340  -24.3680 C   0  0  0  0  0  0  0  0  0  0  0  0
  -10.5220   -3.4240  -23.8470 C   0  0  0  0  0  0  0  0  0  0  0  0
  -10.4410   -5.0620  -23.3110 Cl  0  0  0  0  0  0  0  0  0  0  0  0
   -9.3590   -2.6650  -23.8070 C   0  0  0  0  0  0  0  0  0  0  0  0
   -8.4570   -3.0980  -23.3750 H   0  0  0  0  0  0  0  0  0  0  0  0
  -12.6400   -3.4970  -24.2940 H   0  0  0  0  0  0  0  0  0  0  0  0
  -12.5400   -1.3750  -25.5580 H   0  0  0  0  0  0  0  0  0  0  0  0
  -10.4880    0.0260  -25.5080 H   0  0  0  0  0  0  0  0  0  0  0  0
   -8.0620    0.2350  -24.9290 H   0  0  0  0  0  0  0  0  0  0  0  0
   -7.2610   -1.0250  -24.0400 H   0  0  0  0  0  0  0  0  0  0  0  0
   -8.8000    1.7120  -22.8890 C   0  0  2  0  0  0  0  0  0  0  0  0
  -10.2880    2.0440  -22.6150 C   0  0  0  0  0  0  0  0  0  0  0  0
  -10.4150    3.5110  -23.1150 C   0  0  0  0  0  0  0  0  0  0  0  0
   -8.9960    3.8410  -23.5830 C   0  0  2  0  0  0  0  0  0  0  0  0
   -8.5280    2.5110  -24.1660 C   0  0  0  0  0  0  0  0  0  0  0  0
   -9.1590    2.1920  -24.9990 H   0  0  0  0  0  0  0  0  0  0  0  0
   -7.4760    2.4970  -24.4640 H   0  0  0  0  0  0  0  0  0  0  0  0
   -8.1380    3.9590  -22.3090 N   0  3  2  0  0  0  0  0  0  0  0  0
   -6.8260    4.6520  -22.4760 C   0  0  0  0  0  0  0  0  0  0  0  0
   -6.9740    6.1500  -22.6830 C   0  0  0  0  0  0  0  0  0  0  0  0
   -5.6490    6.9330  -22.6800 C   0  0  0  0  0  0  0  0  0  0  0  0
   -5.8170    7.3400  -24.0460 O   0  0  0  0  0  0  0  0  0  0  0  0
   -7.0710    6.6530  -24.1350 C   0  0  0  0  0  0  0  0  0  0  0  0
   -7.0320    5.8660  -24.8990 H   0  0  0  0  0  0  0  0  0  0  0  0
   -7.8950    7.3440  -24.3550 H   0  0  0  0  0  0  0  0  0  0  0  0
   -5.5810    7.7950  -22.0050 H   0  0  0  0  0  0  0  0  0  0  0  0
   -4.7540    6.3110  -22.5550 H   0  0  0  0  0  0  0  0  0  0  0  0
   -7.7480    6.5260  -22.0070 H   0  0  0  0  0  0  0  0  0  0  0  0
   -6.2120    4.4690  -21.5870 H   0  0  0  0  0  0  0  0  0  0  0  0
   -6.2740    4.2040  -23.3180 H   0  0  0  0  0  0  0  0  0  0  0  0
   -7.9990    2.5270  -21.8540 C   0  0  0  0  0  0  0  0  0  0  0  0
   -6.9450    2.2410  -21.8300 H   0  0  0  0  0  0  0  0  0  0  0  0
   -8.4130    2.4110  -20.8550 H   0  0  0  0  0  0  0  0  0  0  0  0
   -8.6650    4.4660  -21.5710 H   0  0  0  0  0  0  0  0  0  0  0  0
   -8.8880    4.7390  -24.1840 H   0  0  0  0  0  0  0  0  0  0  0  0
  -10.7290    4.2210  -22.3410 H   0  0  0  0  0  0  0  0  0  0  0  0
  -11.1270    3.5850  -23.9410 H   0  0  0  0  0  0  0  0  0  0  0  0
  -10.9210    1.3550  -23.1810 H   0  0  0  0  0  0  0  0  0  0  0  0
  -10.5320    1.9300  -21.5610 H   0  0  0  0  0  0  0  0  0  0  0  0
  1  2  2  0  0  0  0
  2  3  1  0  0  0  0
  2 22  1  0  0  0  0
  3  4  1  0  0  0  0
  3 20  1  0  0  0  0
  3 21  1  0  0  0  0
  4  5  2  0  0  0  0
  4 13  1  0  0  0  0
  5  6  1  0  0  0  0
  5 19  1  0  0  0  0
  6  7  2  0  0  0  0
  7  8  1  0  0  0  0
  7 18  1  0  0  0  0
  8  9  2  0  0  0  0
  8 13  1  0  0  0  0
  9 10  1  0  0  0  0
  9 17  1  0  0  0  0
 10 11  2  0  0  0  0
 10 16  1  0  0  0  0
 11 12  1  0  0  0  0
 11 15  1  0  0  0  0
 12 13  2  0  0  0  0
 12 14  1  0  0  0  0
 22 23  1  0  0  0  0
 23 24  1  0  0  0  0
 23 35  1  0  0  0  0
 23 36  1  0  0  0  0
 24 25  2  0  0  0  0
 24 30  1  0  0  0  0
 25 26  1  0  0  0  0
 25 34  1  0  0  0  0
 26 27  2  0  0  0  0
 26 33  1  0  0  0  0
 27 28  1  0  0  0  0
 27 32  1  0  0  0  0
 28 29  1  0  0  0  0
 28 30  2  0  0  0  0
 30 31  1  0  0  0  0
 37 22  1  6  0  0  0
 37 38  1  0  0  0  0
 37 41  1  0  0  0  0
 37 57  1  0  0  0  0
 38 39  1  0  0  0  0
 38 64  1  0  0  0  0
 38 65  1  0  0  0  0
 39 40  1  0  0  0  0
 39 62  1  0  0  0  0
 39 63  1  0  0  0  0
 40 41  1  0  0  0  0
 40 44  1  0  0  0  0
 40 61  1  6  0  0  0
 41 42  1  0  0  0  0
 41 43  1  0  0  0  0
 44 45  1  0  0  0  0
 44 57  1  0  0  0  0
 44 60  1  1  0  0  0
 45 46  1  0  0  0  0
 45 55  1  0  0  0  0
 45 56  1  0  0  0  0
 46 47  1  0  0  0  0
 46 49  1  0  0  0  0
 46 54  1  0  0  0  0
 47 48  1  0  0  0  0
 47 52  1  0  0  0  0
 47 53  1  0  0  0  0
 48 49  1  0  0  0  0
 49 50  1  0  0  0  0
 49 51  1  0  0  0  0
 57 58  1  0  0  0  0
 57 59  1  0  0  0  0
M  CHG  1  44   1
M  END
>  <MODEL>
       1

$$$$
