tmp_first_model_19_88.pdb
 OpenBabel08282503233D

 40 42  0  0  0  0  0  0  0  0999 V2000
   -9.1770    0.2270  -21.0770 O   0  0  0  0  0  0  0  0  0  0  0  0
   -8.3770   -0.3110  -21.8090 C   0  0  0  0  0  0  0  0  0  0  0  0
   -7.4450   -1.4110  -21.2750 C   0  0  0  0  0  0  0  0  0  0  0  0
   -6.5710   -0.8340  -20.1790 C   0  0  0  0  0  0  0  0  0  0  0  0
   -6.8760   -1.0410  -18.8600 C   0  0  0  0  0  0  0  0  0  0  0  0
   -6.1870   -0.5430  -17.8000 N   0  0  0  0  0  0  0  0  0  0  0  0
   -5.1560    0.2220  -18.0670 C   0  0  0  0  0  0  0  0  0  0  0  0
   -4.7220    0.5330  -19.3830 C   0  0  0  0  0  0  0  0  0  0  0  0
   -3.5980    1.3620  -19.6270 C   0  0  0  0  0  0  0  0  0  0  0  0
   -3.2110    1.6600  -20.9040 C   0  0  0  0  0  0  0  0  0  0  0  0
   -3.9320    1.1290  -21.9970 C   0  0  0  0  0  0  0  0  0  0  0  0
   -5.0190    0.3170  -21.7880 C   0  0  0  0  0  0  0  0  0  0  0  0
   -5.4500   -0.0030  -20.4740 C   0  0  0  0  0  0  0  0  0  0  0  0
   -5.5540   -0.0880  -22.6400 H   0  0  0  0  0  0  0  0  0  0  0  0
   -3.6160    1.3680  -23.0090 H   0  0  0  0  0  0  0  0  0  0  0  0
   -2.3590    2.3110  -21.0840 H   0  0  0  0  0  0  0  0  0  0  0  0
   -3.0650    1.7770  -18.7740 H   0  0  0  0  0  0  0  0  0  0  0  0
   -4.6050    0.6280  -17.2160 H   0  0  0  0  0  0  0  0  0  0  0  0
   -7.7290   -1.6600  -18.5830 H   0  0  0  0  0  0  0  0  0  0  0  0
   -8.0690   -2.2020  -20.8450 H   0  0  0  0  0  0  0  0  0  0  0  0
   -6.8350   -1.8470  -22.0760 H   0  0  0  0  0  0  0  0  0  0  0  0
   -8.1720    0.0940  -23.1320 N   0  0  0  0  0  0  0  0  0  0  0  0
   -8.3880    1.4980  -23.4580 C   0  0  0  0  0  0  0  0  0  0  0  0
   -7.4020    1.9410  -24.5370 C   0  0  0  0  0  0  0  0  0  0  0  0
   -7.4900    1.0310  -25.7610 C   0  0  0  0  0  0  0  0  0  0  0  0
   -6.5070    1.4240  -26.8480 C   0  0  0  0  0  0  0  0  0  0  0  0
   -5.2280    1.3790  -26.3660 F   0  0  0  0  0  0  0  0  0  0  0  0
   -6.7330    2.7050  -27.2630 F   0  0  0  0  0  0  0  0  0  0  0  0
   -6.5520    0.7730  -27.7350 H   0  0  0  0  0  0  0  0  0  0  0  0
   -7.2930   -0.4270  -25.3570 C   0  0  0  0  0  0  0  0  0  0  0  0
   -8.2710   -0.8210  -24.2620 C   0  0  0  0  0  0  0  0  0  0  0  0
   -9.2900   -0.8310  -24.6860 H   0  0  0  0  0  0  0  0  0  0  0  0
   -8.0780   -1.8320  -23.9100 H   0  0  0  0  0  0  0  0  0  0  0  0
   -7.4170   -1.0800  -26.2280 H   0  0  0  0  0  0  0  0  0  0  0  0
   -6.2690   -0.5680  -24.9970 H   0  0  0  0  0  0  0  0  0  0  0  0
   -8.4820    1.1510  -26.2150 H   0  0  0  0  0  0  0  0  0  0  0  0
   -7.5900    2.9800  -24.8240 H   0  0  0  0  0  0  0  0  0  0  0  0
   -6.3850    1.9120  -24.1310 H   0  0  0  0  0  0  0  0  0  0  0  0
   -8.2400    2.0720  -22.5430 H   0  0  0  0  0  0  0  0  0  0  0  0
   -9.4190    1.6990  -23.7880 H   0  0  0  0  0  0  0  0  0  0  0  0
  1  2  2  0  0  0  0
  2  3  1  0  0  0  0
  2 22  1  0  0  0  0
  3  4  1  0  0  0  0
  3 20  1  0  0  0  0
  3 21  1  0  0  0  0
  4  5  2  0  0  0  0
  4 13  1  0  0  0  0
  5  6  1  0  0  0  0
  5 19  1  0  0  0  0
  6  7  2  0  0  0  0
  7  8  1  0  0  0  0
  7 18  1  0  0  0  0
  8  9  2  0  0  0  0
  8 13  1  0  0  0  0
  9 10  1  0  0  0  0
  9 17  1  0  0  0  0
 10 11  2  0  0  0  0
 10 16  1  0  0  0  0
 11 12  1  0  0  0  0
 11 15  1  0  0  0  0
 12 13  2  0  0  0  0
 12 14  1  0  0  0  0
 22 23  1  0  0  0  0
 22 31  1  0  0  0  0
 23 24  1  0  0  0  0
 23 39  1  0  0  0  0
 23 40  1  0  0  0  0
 24 25  1  0  0  0  0
 24 37  1  0  0  0  0
 24 38  1  0  0  0  0
 25 26  1  0  0  0  0
 25 30  1  0  0  0  0
 25 36  1  0  0  0  0
 26 27  1  0  0  0  0
 26 28  1  0  0  0  0
 26 29  1  0  0  0  0
 30 31  1  0  0  0  0
 30 34  1  0  0  0  0
 30 35  1  0  0  0  0
 31 32  1  0  0  0  0
 31 33  1  0  0  0  0
M  END
>  <MODEL>
       1

$$$$
