tmp_first_model_1_31.pdb
 OpenBabel08272517043D

 66 71  0  0  1  0  0  0  0  0999 V2000
   -6.6950    2.7670  -22.1300 C   0  0  0  0  0  0  0  0  0  0  0  0
   -7.2130    2.0140  -23.2580 N   0  0  0  0  0  0  0  0  0  0  0  0
   -6.3900    1.4360  -24.1590 C   0  0  0  0  0  0  0  0  0  0  0  0
   -5.1880    1.6590  -24.2310 O   0  0  0  0  0  0  0  0  0  0  0  0
   -7.0840    0.4280  -25.0850 C   0  0  0  0  0  0  0  0  0  0  0  0
   -7.9020   -0.5500  -24.3750 N   0  0  0  0  0  0  0  0  0  0  0  0
   -7.3930   -1.8490  -23.9790 C   0  0  0  0  0  0  0  0  0  0  0  0
   -7.9630   -2.3230  -22.6070 C   0  0  2  0  0  0  0  0  0  0  0  0
   -7.5350   -1.4080  -21.4310 C   0  0  0  0  0  0  0  0  0  0  0  0
   -8.1270   -0.4470  -20.9850 O   0  0  0  0  0  0  0  0  0  0  0  0
   -6.3530   -1.9160  -20.9250 N   0  0  0  0  0  0  0  0  0  0  0  0
   -5.6590   -1.2710  -19.8740 C   0  0  0  0  0  0  0  0  0  0  0  0
   -5.8870   -1.6720  -18.5820 C   0  0  0  0  0  0  0  0  0  0  0  0
   -5.3340   -1.0980  -17.4890 N   0  0  0  0  0  0  0  0  0  0  0  0
   -4.5470   -0.0690  -17.6920 C   0  0  0  0  0  0  0  0  0  0  0  0
   -4.2210    0.4540  -18.9740 C   0  0  0  0  0  0  0  0  0  0  0  0
   -3.3960    1.5980  -19.1300 C   0  0  0  0  0  0  0  0  0  0  0  0
   -3.0510    2.0490  -20.3740 C   0  0  0  0  0  0  0  0  0  0  0  0
   -3.5160    1.3730  -21.5200 C   0  0  0  0  0  0  0  0  0  0  0  0
   -4.3470    0.2850  -21.3960 C   0  0  0  0  0  0  0  0  0  0  0  0
   -4.7530   -0.1880  -20.1180 C   0  0  0  0  0  0  0  0  0  0  0  0
   -4.7150   -0.1980  -22.2940 H   0  0  0  0  0  0  0  0  0  0  0  0
   -3.2410    1.7240  -22.5080 H   0  0  0  0  0  0  0  0  0  0  0  0
   -2.4200    2.9270  -20.4820 H   0  0  0  0  0  0  0  0  0  0  0  0
   -3.0590    2.1100  -18.2370 H   0  0  0  0  0  0  0  0  0  0  0  0
   -4.1140    0.4000  -16.8140 H   0  0  0  0  0  0  0  0  0  0  0  0
   -6.5750   -2.4920  -18.3810 H   0  0  0  0  0  0  0  0  0  0  0  0
   -6.0000   -3.2200  -21.4500 C   0  0  0  0  0  0  0  0  0  0  0  0
   -7.2880   -3.6520  -22.1660 C   0  0  2  0  0  0  0  0  0  0  0  0
   -6.9870   -4.6840  -23.2560 C   0  0  0  0  0  0  0  0  0  0  0  0
   -6.3870   -5.8970  -22.7270 N   0  0  0  0  0  0  0  0  0  0  0  0
   -5.0690   -6.2030  -22.9000 C   0  0  0  0  0  0  0  0  0  0  0  0
   -4.5820   -7.5170  -22.7420 C   0  0  0  0  0  0  0  0  0  0  0  0
   -3.2330   -7.6980  -22.9440 C   0  0  0  0  0  0  0  0  0  0  0  0
   -2.3850   -6.6990  -23.2450 N   0  0  0  0  0  0  0  0  0  0  0  0
   -2.9530   -5.5120  -23.3620 C   0  0  0  0  0  0  0  0  0  0  0  0
   -4.2400   -5.2040  -23.2230 N   0  0  0  0  0  0  0  0  0  0  0  0
   -2.2900   -4.6780  -23.5890 H   0  0  0  0  0  0  0  0  0  0  0  0
   -2.7820   -8.6860  -22.8620 H   0  0  0  0  0  0  0  0  0  0  0  0
   -5.2470   -8.3400  -22.4790 H   0  0  0  0  0  0  0  0  0  0  0  0
   -7.0030   -6.6680  -22.5370 H   0  0  0  0  0  0  0  0  0  0  0  0
   -6.2620   -4.2580  -23.9560 H   0  0  0  0  0  0  0  0  0  0  0  0
   -7.9080   -4.9270  -23.7970 H   0  0  0  0  0  0  0  0  0  0  0  0
   -7.9510   -4.1020  -21.4190 H   0  0  0  0  0  0  0  0  0  0  0  0
   -5.1550   -3.1550  -22.1470 H   0  0  0  0  0  0  0  0  0  0  0  0
   -5.7100   -3.9360  -20.6740 H   0  0  0  0  0  0  0  0  0  0  0  0
   -9.4670   -2.3050  -22.7330 C   0  0  0  0  0  0  0  0  0  0  0  0
  -10.3070   -3.0060  -21.8590 C   0  0  0  0  0  0  0  0  0  0  0  0
  -11.6790   -2.8870  -22.0180 C   0  0  0  0  0  0  0  0  0  0  0  0
  -12.8190   -3.4330  -20.8280 Cl  0  0  0  0  0  0  0  0  0  0  0  0
  -12.2380   -2.1890  -23.0820 C   0  0  0  0  0  0  0  0  0  0  0  0
  -11.4140   -1.4110  -23.8640 C   0  0  0  0  0  0  0  0  0  0  0  0
  -10.0490   -1.3870  -23.6180 C   0  0  0  0  0  0  0  0  0  0  0  0
   -9.2260   -0.2870  -24.2140 C   0  0  0  0  0  0  0  0  0  0  0  0
   -9.6920    0.8150  -24.4930 O   0  0  0  0  0  0  0  0  0  0  0  0
  -11.8090   -0.7110  -24.5880 H   0  0  0  0  0  0  0  0  0  0  0  0
  -13.3160   -2.1890  -23.1940 H   0  0  0  0  0  0  0  0  0  0  0  0
   -9.9090   -3.5880  -21.0370 H   0  0  0  0  0  0  0  0  0  0  0  0
   -7.7150   -2.5840  -24.7310 H   0  0  0  0  0  0  0  0  0  0  0  0
   -6.2990   -1.8230  -23.9480 H   0  0  0  0  0  0  0  0  0  0  0  0
   -6.3270   -0.0520  -25.7070 H   0  0  0  0  0  0  0  0  0  0  0  0
   -7.7490    0.9910  -25.7430 H   0  0  0  0  0  0  0  0  0  0  0  0
   -8.2060    1.8360  -23.3540 H   0  0  0  0  0  0  0  0  0  0  0  0
   -7.4310    3.5140  -21.8230 H   0  0  0  0  0  0  0  0  0  0  0  0
   -5.7690    3.2760  -22.4230 H   0  0  0  0  0  0  0  0  0  0  0  0
   -6.4640    2.1100  -21.2760 H   0  0  0  0  0  0  0  0  0  0  0  0
  1  2  1  0  0  0  0
  1 64  1  0  0  0  0
  1 65  1  0  0  0  0
  1 66  1  0  0  0  0
  2  3  1  0  0  0  0
  2 63  1  0  0  0  0
  3  4  2  0  0  0  0
  3  5  1  0  0  0  0
  5  6  1  0  0  0  0
  5 61  1  0  0  0  0
  5 62  1  0  0  0  0
  6  7  1  0  0  0  0
  6 54  1  0  0  0  0
  7  8  1  0  0  0  0
  7 59  1  0  0  0  0
  7 60  1  0  0  0  0
  8  9  1  1  0  0  0
  8 29  1  0  0  0  0
  8 47  1  0  0  0  0
  9 10  2  0  0  0  0
  9 11  1  0  0  0  0
 11 12  1  0  0  0  0
 11 28  1  0  0  0  0
 12 13  2  0  0  0  0
 12 21  1  0  0  0  0
 13 14  1  0  0  0  0
 13 27  1  0  0  0  0
 14 15  2  0  0  0  0
 15 16  1  0  0  0  0
 15 26  1  0  0  0  0
 16 17  2  0  0  0  0
 16 21  1  0  0  0  0
 17 18  1  0  0  0  0
 17 25  1  0  0  0  0
 18 19  2  0  0  0  0
 18 24  1  0  0  0  0
 19 20  1  0  0  0  0
 19 23  1  0  0  0  0
 20 21  2  0  0  0  0
 20 22  1  0  0  0  0
 28 29  1  0  0  0  0
 28 45  1  0  0  0  0
 28 46  1  0  0  0  0
 29 30  1  0  0  0  0
 29 44  1  1  0  0  0
 30 31  1  0  0  0  0
 30 42  1  0  0  0  0
 30 43  1  0  0  0  0
 31 32  1  0  0  0  0
 31 41  1  0  0  0  0
 32 33  2  0  0  0  0
 32 37  1  0  0  0  0
 33 34  1  0  0  0  0
 33 40  1  0  0  0  0
 34 35  2  0  0  0  0
 34 39  1  0  0  0  0
 35 36  1  0  0  0  0
 36 37  2  0  0  0  0
 36 38  1  0  0  0  0
 47 48  2  0  0  0  0
 47 53  1  0  0  0  0
 48 49  1  0  0  0  0
 48 58  1  0  0  0  0
 49 50  1  0  0  0  0
 49 51  2  0  0  0  0
 51 52  1  0  0  0  0
 51 57  1  0  0  0  0
 52 53  2  0  0  0  0
 52 56  1  0  0  0  0
 53 54  1  0  0  0  0
 54 55  2  0  0  0  0
M  END
>  <MODEL>
       1

$$$$
