tmp_first_model_17_92.pdb
 OpenBabel08282502223D

 60 65  0  0  1  0  0  0  0  0999 V2000
   -6.7830   -3.4400  -26.0930 C   0  0  0  0  0  0  0  0  0  0  0  0
   -7.0050   -2.9020  -24.8140 O   0  0  0  0  0  0  0  0  0  0  0  0
   -7.9830   -3.6100  -24.0780 C   0  0  0  0  0  0  0  0  0  0  0  0
   -8.2910   -2.9050  -22.7560 C   0  0  1  0  0  0  0  0  0  0  0  0
   -7.0210   -2.5620  -21.9600 C   0  0  0  0  0  0  0  0  0  0  0  0
   -7.3820   -1.3630  -21.2290 N   0  0  0  0  0  0  0  0  0  0  0  0
   -6.6030   -0.8080  -20.1840 C   0  0  0  0  0  0  0  0  0  0  0  0
   -6.9320   -1.0350  -18.8710 C   0  0  0  0  0  0  0  0  0  0  0  0
   -6.2360   -0.5450  -17.8150 N   0  0  0  0  0  0  0  0  0  0  0  0
   -5.1940    0.2080  -18.0760 C   0  0  0  0  0  0  0  0  0  0  0  0
   -4.7510    0.5360  -19.3910 C   0  0  0  0  0  0  0  0  0  0  0  0
   -3.6340    1.3780  -19.6290 C   0  0  0  0  0  0  0  0  0  0  0  0
   -3.2490    1.6710  -20.9080 C   0  0  0  0  0  0  0  0  0  0  0  0
   -3.9440    1.1240  -22.0080 C   0  0  0  0  0  0  0  0  0  0  0  0
   -5.0090    0.2780  -21.8000 C   0  0  0  0  0  0  0  0  0  0  0  0
   -5.4570   -0.0110  -20.4850 C   0  0  0  0  0  0  0  0  0  0  0  0
   -5.5240   -0.1600  -22.6490 H   0  0  0  0  0  0  0  0  0  0  0  0
   -3.6100    1.3630  -23.0130 H   0  0  0  0  0  0  0  0  0  0  0  0
   -2.3900    2.3080  -21.0890 H   0  0  0  0  0  0  0  0  0  0  0  0
   -3.0960    1.7780  -18.7740 H   0  0  0  0  0  0  0  0  0  0  0  0
   -4.6350    0.6020  -17.2270 H   0  0  0  0  0  0  0  0  0  0  0  0
   -7.7980   -1.6480  -18.6310 H   0  0  0  0  0  0  0  0  0  0  0  0
   -8.5990   -0.8210  -21.5800 C   0  0  0  0  0  0  0  0  0  0  0  0
   -9.1360    0.0990  -21.0010 O   0  0  0  0  0  0  0  0  0  0  0  0
   -9.1320   -1.5920  -22.8140 C   0  0  1  0  0  0  0  0  0  0  0  0
   -8.8480   -0.8180  -24.1270 C   0  0  0  0  0  0  0  0  0  0  0  0
   -9.6710    0.3670  -24.2450 N   0  0  0  0  0  0  0  0  0  0  0  0
   -9.0810    1.6140  -24.7030 C   0  0  0  0  0  0  0  0  0  0  0  0
   -8.2900    2.3670  -23.6660 C   0  0  0  0  0  0  0  0  0  0  0  0
   -8.8370    3.2850  -22.7360 C   0  0  0  0  0  0  0  0  0  0  0  0
   -7.9190    3.7790  -21.9090 N   0  0  0  0  0  0  0  0  0  0  0  0
   -6.7810    3.2050  -22.3100 N   0  0  0  0  0  0  0  0  0  0  0  0
   -6.9450    2.3630  -23.3590 C   0  0  0  0  0  0  0  0  0  0  0  0
   -6.0750    1.8400  -23.7360 H   0  0  0  0  0  0  0  0  0  0  0  0
   -5.9050    3.3870  -21.8430 H   0  0  0  0  0  0  0  0  0  0  0  0
   -9.8750    3.6000  -22.6290 H   0  0  0  0  0  0  0  0  0  0  0  0
   -8.5010    1.4250  -25.6110 H   0  0  0  0  0  0  0  0  0  0  0  0
   -9.9300    2.2280  -24.9930 H   0  0  0  0  0  0  0  0  0  0  0  0
  -11.0270    0.3140  -24.0780 C   0  0  0  0  0  0  0  0  0  0  0  0
  -11.7770    1.1840  -24.5040 O   0  0  0  0  0  0  0  0  0  0  0  0
  -11.5280   -0.8420  -23.2790 C   0  0  0  0  0  0  0  0  0  0  0  0
  -12.9020   -0.8930  -23.0470 C   0  0  0  0  0  0  0  0  0  0  0  0
  -13.4190   -1.7990  -22.1500 C   0  0  0  0  0  0  0  0  0  0  0  0
  -12.5380   -2.6810  -21.5310 C   0  0  0  0  0  0  0  0  0  0  0  0
  -13.1620   -3.7640  -20.3360 Cl  0  0  0  0  0  0  0  0  0  0  0  0
  -11.1800   -2.6780  -21.7920 C   0  0  0  0  0  0  0  0  0  0  0  0
  -10.6390   -1.7450  -22.6790 C   0  0  0  0  0  0  0  0  0  0  0  0
  -10.5570   -3.3890  -21.2650 H   0  0  0  0  0  0  0  0  0  0  0  0
  -14.4690   -1.8240  -21.8740 H   0  0  0  0  0  0  0  0  0  0  0  0
  -13.5200   -0.1740  -23.5740 H   0  0  0  0  0  0  0  0  0  0  0  0
   -9.0360   -1.5040  -24.9640 H   0  0  0  0  0  0  0  0  0  0  0  0
   -7.7990   -0.5230  -24.1840 H   0  0  0  0  0  0  0  0  0  0  0  0
   -6.1670   -2.3910  -22.6260 H   0  0  0  0  0  0  0  0  0  0  0  0
   -6.7530   -3.3650  -21.2660 H   0  0  0  0  0  0  0  0  0  0  0  0
   -8.8750   -3.6200  -22.1700 H   0  0  0  0  0  0  0  0  0  0  0  0
   -7.6170   -4.6260  -23.8690 H   0  0  0  0  0  0  0  0  0  0  0  0
   -8.9090   -3.7080  -24.6680 H   0  0  0  0  0  0  0  0  0  0  0  0
   -6.0220   -2.8290  -26.5850 H   0  0  0  0  0  0  0  0  0  0  0  0
   -6.4180   -4.4760  -26.0360 H   0  0  0  0  0  0  0  0  0  0  0  0
   -7.6970   -3.4220  -26.7080 H   0  0  0  0  0  0  0  0  0  0  0  0
  1  2  1  0  0  0  0
  1 58  1  0  0  0  0
  1 59  1  0  0  0  0
  1 60  1  0  0  0  0
  2  3  1  0  0  0  0
  3  4  1  0  0  0  0
  3 56  1  0  0  0  0
  3 57  1  0  0  0  0
  4  5  1  0  0  0  0
  4 25  1  0  0  0  0
  4 55  1  1  0  0  0
  5  6  1  0  0  0  0
  5 53  1  0  0  0  0
  5 54  1  0  0  0  0
  6  7  1  0  0  0  0
  6 23  1  0  0  0  0
  7  8  2  0  0  0  0
  7 16  1  0  0  0  0
  8  9  1  0  0  0  0
  8 22  1  0  0  0  0
  9 10  2  0  0  0  0
 10 11  1  0  0  0  0
 10 21  1  0  0  0  0
 11 12  2  0  0  0  0
 11 16  1  0  0  0  0
 12 13  1  0  0  0  0
 12 20  1  0  0  0  0
 13 14  2  0  0  0  0
 13 19  1  0  0  0  0
 14 15  1  0  0  0  0
 14 18  1  0  0  0  0
 15 16  2  0  0  0  0
 15 17  1  0  0  0  0
 23 24  2  0  0  0  0
 25 23  1  1  0  0  0
 25 26  1  0  0  0  0
 25 47  1  0  0  0  0
 26 27  1  0  0  0  0
 26 51  1  0  0  0  0
 26 52  1  0  0  0  0
 27 28  1  0  0  0  0
 27 39  1  0  0  0  0
 28 29  1  0  0  0  0
 28 37  1  0  0  0  0
 28 38  1  0  0  0  0
 29 30  1  0  0  0  0
 29 33  2  0  0  0  0
 30 31  2  0  0  0  0
 30 36  1  0  0  0  0
 31 32  1  0  0  0  0
 32 33  1  0  0  0  0
 32 35  1  0  0  0  0
 33 34  1  0  0  0  0
 39 40  2  0  0  0  0
 39 41  1  0  0  0  0
 41 42  2  0  0  0  0
 41 47  1  0  0  0  0
 42 43  1  0  0  0  0
 42 50  1  0  0  0  0
 43 44  2  0  0  0  0
 43 49  1  0  0  0  0
 44 45  1  0  0  0  0
 44 46  1  0  0  0  0
 46 47  2  0  0  0  0
 46 48  1  0  0  0  0
M  END
>  <MODEL>
       1

$$$$
