tmp_first_model_7_80.pdb
 OpenBabel08272520323D

 60 65  0  0  1  0  0  0  0  0999 V2000
   -2.6820   -6.7630  -22.7460 C   0  0  0  0  0  0  0  0  0  0  0  0
   -3.9450   -6.1660  -22.3080 N   0  0  0  0  0  0  0  0  0  0  0  0
   -4.9800   -6.9840  -22.0300 C   0  0  0  0  0  0  0  0  0  0  0  0
   -4.9140   -8.1810  -22.0120 O   0  0  0  0  0  0  0  0  0  0  0  0
   -6.6650   -6.0250  -21.5010 C   0  0  0  0  0  0  0  0  0  0  0  0
   -7.5110   -5.5100  -22.5940 N   0  0  0  0  0  0  0  0  0  0  0  0
   -8.4640   -4.4200  -22.3500 C   0  0  0  0  0  0  0  0  0  0  0  0
   -7.9920   -3.0430  -22.8740 C   0  0  2  0  0  0  0  0  0  0  0  0
   -6.8390   -2.4850  -22.0080 C   0  0  0  0  0  0  0  0  0  0  0  0
   -5.6820   -2.8560  -22.0250 O   0  0  0  0  0  0  0  0  0  0  0  0
   -7.3230   -1.4640  -21.2140 N   0  0  0  0  0  0  0  0  0  0  0  0
   -6.5550   -0.8610  -20.1920 C   0  0  0  0  0  0  0  0  0  0  0  0
   -6.8920   -1.0540  -18.8750 C   0  0  0  0  0  0  0  0  0  0  0  0
   -6.2110   -0.5430  -17.8230 N   0  0  0  0  0  0  0  0  0  0  0  0
   -5.1700    0.2080  -18.0830 C   0  0  0  0  0  0  0  0  0  0  0  0
   -4.7220    0.5110  -19.4000 C   0  0  0  0  0  0  0  0  0  0  0  0
   -3.5960    1.3460  -19.6280 C   0  0  0  0  0  0  0  0  0  0  0  0
   -3.2180    1.6660  -20.9030 C   0  0  0  0  0  0  0  0  0  0  0  0
   -3.9410    1.1620  -22.0060 C   0  0  0  0  0  0  0  0  0  0  0  0
   -5.0200    0.3350  -21.8130 C   0  0  0  0  0  0  0  0  0  0  0  0
   -5.4350   -0.0200  -20.4990 C   0  0  0  0  0  0  0  0  0  0  0  0
   -5.5660   -0.0610  -22.6640 H   0  0  0  0  0  0  0  0  0  0  0  0
   -3.6420    1.4390  -23.0140 H   0  0  0  0  0  0  0  0  0  0  0  0
   -2.3710    2.3250  -21.0730 H   0  0  0  0  0  0  0  0  0  0  0  0
   -3.0650    1.7440  -18.7670 H   0  0  0  0  0  0  0  0  0  0  0  0
   -4.6260    0.6220  -17.2330 H   0  0  0  0  0  0  0  0  0  0  0  0
   -7.7430   -1.6860  -18.6270 H   0  0  0  0  0  0  0  0  0  0  0  0
   -8.7660   -1.3360  -21.2870 C   0  0  0  0  0  0  0  0  0  0  0  0
   -9.1100   -1.9760  -22.6410 C   0  0  2  0  0  0  0  0  0  0  0  0
  -10.5530   -2.4700  -22.6950 C   0  0  0  0  0  0  0  0  0  0  0  0
  -10.7750   -3.1500  -21.8630 H   0  0  0  0  0  0  0  0  0  0  0  0
  -11.2530   -1.6320  -22.6210 H   0  0  0  0  0  0  0  0  0  0  0  0
  -10.7590   -3.0050  -23.6280 H   0  0  0  0  0  0  0  0  0  0  0  0
   -8.9810   -1.2020  -23.3990 H   0  0  0  0  0  0  0  0  0  0  0  0
   -9.0640   -0.2840  -21.2310 H   0  0  0  0  0  0  0  0  0  0  0  0
   -9.2630   -1.8750  -20.4670 H   0  0  0  0  0  0  0  0  0  0  0  0
   -7.5030   -3.2490  -24.2990 C   0  0  0  0  0  0  0  0  0  0  0  0
   -7.3710   -2.1470  -25.1500 C   0  0  0  0  0  0  0  0  0  0  0  0
   -6.9280   -2.3130  -26.4480 C   0  0  0  0  0  0  0  0  0  0  0  0
   -6.8180   -0.9200  -27.4860 Cl  0  0  0  0  0  0  0  0  0  0  0  0
   -6.5690   -3.5650  -26.9410 C   0  0  0  0  0  0  0  0  0  0  0  0
   -6.6250   -4.6510  -26.0890 C   0  0  0  0  0  0  0  0  0  0  0  0
   -7.0610   -4.5040  -24.7630 C   0  0  0  0  0  0  0  0  0  0  0  0
   -6.9640   -5.6810  -23.8380 C   0  0  0  0  0  0  0  0  0  0  0  0
   -6.3880   -6.7180  -24.1420 O   0  0  0  0  0  0  0  0  0  0  0  0
   -6.3090   -5.6290  -26.4340 H   0  0  0  0  0  0  0  0  0  0  0  0
   -6.2330   -3.6700  -27.9660 H   0  0  0  0  0  0  0  0  0  0  0  0
   -7.5970   -1.1450  -24.8070 H   0  0  0  0  0  0  0  0  0  0  0  0
   -9.4190   -4.6920  -22.8170 H   0  0  0  0  0  0  0  0  0  0  0  0
   -8.6240   -4.3680  -21.2750 H   0  0  0  0  0  0  0  0  0  0  0  0
   -6.9440   -6.2910  -21.3410 C   0  0  0  0  0  0  0  0  0  0  0  0
   -5.9610   -5.3860  -20.4010 C   0  0  0  0  0  0  0  0  0  0  0  0
   -5.4740   -6.0800  -19.7750 H   0  0  0  0  0  0  0  0  0  0  0  0
   -6.5250   -4.5570  -20.0340 H   0  0  0  0  0  0  0  0  0  0  0  0
   -7.8620   -6.4740  -20.7660 H   0  0  0  0  0  0  0  0  0  0  0  0
   -7.2460   -7.3900  -21.5420 H   0  0  0  0  0  0  0  0  0  0  0  0
   -4.0350   -5.1520  -22.3430 H   0  0  0  0  0  0  0  0  0  0  0  0
   -2.3520   -7.5100  -22.0140 H   0  0  0  0  0  0  0  0  0  0  0  0
   -2.8020   -7.2850  -23.7020 H   0  0  0  0  0  0  0  0  0  0  0  0
   -1.9230   -5.9870  -22.8430 H   0  0  0  0  0  0  0  0  0  0  0  0
  1  2  1  0  0  0  0
  1 58  1  0  0  0  0
  1 59  1  0  0  0  0
  1 60  1  0  0  0  0
  2  3  1  0  0  0  0
  2 57  1  0  0  0  0
  3  4  2  0  0  0  0
  3  5  1  0  0  0  0
  5  6  1  0  0  0  0
  5 51  1  0  0  0  0
  5 52  1  0  0  0  0
  6  7  1  0  0  0  0
  6 44  1  0  0  0  0
  7  8  1  0  0  0  0
  7 49  1  0  0  0  0
  7 50  1  0  0  0  0
  8  9  1  1  0  0  0
  8 29  1  0  0  0  0
  8 37  1  0  0  0  0
  9 10  2  0  0  0  0
  9 11  1  0  0  0  0
 11 12  1  0  0  0  0
 11 28  1  0  0  0  0
 12 13  2  0  0  0  0
 12 21  1  0  0  0  0
 13 14  1  0  0  0  0
 13 27  1  0  0  0  0
 14 15  2  0  0  0  0
 15 16  1  0  0  0  0
 15 26  1  0  0  0  0
 16 17  2  0  0  0  0
 16 21  1  0  0  0  0
 17 18  1  0  0  0  0
 17 25  1  0  0  0  0
 18 19  2  0  0  0  0
 18 24  1  0  0  0  0
 19 20  1  0  0  0  0
 19 23  1  0  0  0  0
 20 21  2  0  0  0  0
 20 22  1  0  0  0  0
 28 29  1  0  0  0  0
 28 35  1  0  0  0  0
 28 36  1  0  0  0  0
 29 30  1  0  0  0  0
 29 34  1  6  0  0  0
 30 31  1  0  0  0  0
 30 32  1  0  0  0  0
 30 33  1  0  0  0  0
 37 38  2  0  0  0  0
 37 43  1  0  0  0  0
 38 39  1  0  0  0  0
 38 48  1  0  0  0  0
 39 40  1  0  0  0  0
 39 41  2  0  0  0  0
 41 42  1  0  0  0  0
 41 47  1  0  0  0  0
 42 43  2  0  0  0  0
 42 46  1  0  0  0  0
 43 44  1  0  0  0  0
 44 45  2  0  0  0  0
 51 52  1  0  0  0  0
 51 55  1  0  0  0  0
 51 56  1  0  0  0  0
 52 53  1  0  0  0  0
 52 54  1  0  0  0  0
M  END
>  <MODEL>
       1

$$$$
