tmp_first_model_9_6.pdb
 OpenBabel08272521403D

 43 45  0  0  0  0  0  0  0  0999 V2000
   -9.7240   -6.0270  -26.7140 C   0  0  0  0  0  0  0  0  0  0  0  0
   -9.4390   -6.4510  -25.2780 C   0  0  0  0  0  0  0  0  0  0  0  0
   -8.5440   -5.4660  -24.5160 C   0  0  0  0  0  0  0  0  0  0  0  0
   -8.0820   -6.0240  -23.1810 C   0  0  0  0  0  0  0  0  0  0  0  0
   -7.1010   -5.0850  -22.4890 C   0  0  0  0  0  0  0  0  0  0  0  0
   -7.5910   -3.7040  -22.4410 N   0  0  0  0  0  0  0  0  0  0  0  0
   -6.7900   -2.7850  -21.8060 C   0  0  0  0  0  0  0  0  0  0  0  0
   -5.6000   -3.0070  -21.6430 O   0  0  0  0  0  0  0  0  0  0  0  0
   -7.4230   -1.4810  -21.2590 C   0  0  0  0  0  0  0  0  0  0  0  0
   -6.5810   -0.8290  -20.1830 C   0  0  0  0  0  0  0  0  0  0  0  0
   -6.8720   -1.0430  -18.8630 C   0  0  0  0  0  0  0  0  0  0  0  0
   -6.1820   -0.5410  -17.8050 N   0  0  0  0  0  0  0  0  0  0  0  0
   -5.1560    0.2250  -18.0680 C   0  0  0  0  0  0  0  0  0  0  0  0
   -4.7190    0.5330  -19.3820 C   0  0  0  0  0  0  0  0  0  0  0  0
   -3.5910    1.3580  -19.6220 C   0  0  0  0  0  0  0  0  0  0  0  0
   -3.1890    1.6350  -20.8980 C   0  0  0  0  0  0  0  0  0  0  0  0
   -3.9040    1.0930  -21.9910 C   0  0  0  0  0  0  0  0  0  0  0  0
   -4.9980    0.2900  -21.7850 C   0  0  0  0  0  0  0  0  0  0  0  0
   -5.4450   -0.0120  -20.4750 C   0  0  0  0  0  0  0  0  0  0  0  0
   -5.5180   -0.1370  -22.6370 H   0  0  0  0  0  0  0  0  0  0  0  0
   -3.5740    1.3080  -23.0030 H   0  0  0  0  0  0  0  0  0  0  0  0
   -2.3270    2.2720  -21.0850 H   0  0  0  0  0  0  0  0  0  0  0  0
   -3.0580    1.7750  -18.7680 H   0  0  0  0  0  0  0  0  0  0  0  0
   -4.6020    0.6290  -17.2160 H   0  0  0  0  0  0  0  0  0  0  0  0
   -7.7190   -1.6680  -18.5830 H   0  0  0  0  0  0  0  0  0  0  0  0
   -8.4180   -1.7020  -20.8440 H   0  0  0  0  0  0  0  0  0  0  0  0
   -7.5830   -0.7770  -22.0870 H   0  0  0  0  0  0  0  0  0  0  0  0
   -8.9350   -3.4530  -22.9400 C   0  0  0  0  0  0  0  0  0  0  0  0
   -9.2010   -4.0910  -24.3120 C   0  0  0  0  0  0  0  0  0  0  0  0
   -8.8720   -3.4130  -25.1030 H   0  0  0  0  0  0  0  0  0  0  0  0
  -10.2870   -4.1690  -24.4300 H   0  0  0  0  0  0  0  0  0  0  0  0
   -9.0820   -2.3760  -23.0240 H   0  0  0  0  0  0  0  0  0  0  0  0
   -9.6840   -3.8150  -22.2230 H   0  0  0  0  0  0  0  0  0  0  0  0
   -6.9030   -5.4470  -21.4740 H   0  0  0  0  0  0  0  0  0  0  0  0
   -6.1390   -5.1100  -23.0090 H   0  0  0  0  0  0  0  0  0  0  0  0
   -7.6050   -6.9980  -23.3290 H   0  0  0  0  0  0  0  0  0  0  0  0
   -8.9470   -6.2210  -22.5460 H   0  0  0  0  0  0  0  0  0  0  0  0
   -7.6410   -5.3190  -25.1200 H   0  0  0  0  0  0  0  0  0  0  0  0
   -8.9670   -7.4410  -25.2870 H   0  0  0  0  0  0  0  0  0  0  0  0
  -10.3830   -6.5800  -24.7360 H   0  0  0  0  0  0  0  0  0  0  0  0
  -10.2610   -5.0750  -26.7570 H   0  0  0  0  0  0  0  0  0  0  0  0
   -8.7910   -5.8990  -27.2730 H   0  0  0  0  0  0  0  0  0  0  0  0
  -10.3270   -6.7720  -27.2420 H   0  0  0  0  0  0  0  0  0  0  0  0
  1  2  1  0  0  0  0
  1 41  1  0  0  0  0
  1 42  1  0  0  0  0
  1 43  1  0  0  0  0
  2  3  1  0  0  0  0
  2 39  1  0  0  0  0
  2 40  1  0  0  0  0
  3  4  1  0  0  0  0
  3 29  1  0  0  0  0
  3 38  1  0  0  0  0
  4  5  1  0  0  0  0
  4 36  1  0  0  0  0
  4 37  1  0  0  0  0
  5  6  1  0  0  0  0
  5 34  1  0  0  0  0
  5 35  1  0  0  0  0
  6  7  1  0  0  0  0
  6 28  1  0  0  0  0
  7  8  2  0  0  0  0
  7  9  1  0  0  0  0
  9 10  1  0  0  0  0
  9 26  1  0  0  0  0
  9 27  1  0  0  0  0
 10 11  2  0  0  0  0
 10 19  1  0  0  0  0
 11 12  1  0  0  0  0
 11 25  1  0  0  0  0
 12 13  2  0  0  0  0
 13 14  1  0  0  0  0
 13 24  1  0  0  0  0
 14 15  2  0  0  0  0
 14 19  1  0  0  0  0
 15 16  1  0  0  0  0
 15 23  1  0  0  0  0
 16 17  2  0  0  0  0
 16 22  1  0  0  0  0
 17 18  1  0  0  0  0
 17 21  1  0  0  0  0
 18 19  2  0  0  0  0
 18 20  1  0  0  0  0
 28 29  1  0  0  0  0
 28 32  1  0  0  0  0
 28 33  1  0  0  0  0
 29 30  1  0  0  0  0
 29 31  1  0  0  0  0
M  END
>  <MODEL>
       1

$$$$
