tmp_first_model_15_11.pdb
 OpenBabel08282501153D

 48 52  0  0  0  0  0  0  0  0999 V2000
  -10.0570   -0.7850  -23.6120 C   0  0  0  0  0  0  0  0  0  0  0  0
   -9.0540   -1.3040  -22.7080 N   0  0  0  0  0  0  0  0  0  0  0  0
   -8.3020   -0.4580  -21.9470 C   0  0  0  0  0  0  0  0  0  0  0  0
   -8.3530    0.7530  -21.9180 O   0  0  0  0  0  0  0  0  0  0  0  0
   -7.4360   -1.2650  -21.2010 N   0  0  0  0  0  0  0  0  0  0  0  0
   -6.6140   -0.7620  -20.1730 C   0  0  0  0  0  0  0  0  0  0  0  0
   -6.9360   -1.0290  -18.8720 C   0  0  0  0  0  0  0  0  0  0  0  0
   -6.2560   -0.5360  -17.8130 N   0  0  0  0  0  0  0  0  0  0  0  0
   -5.2210    0.2320  -18.0650 C   0  0  0  0  0  0  0  0  0  0  0  0
   -4.7620    0.5480  -19.3780 C   0  0  0  0  0  0  0  0  0  0  0  0
   -3.6220    1.3610  -19.6120 C   0  0  0  0  0  0  0  0  0  0  0  0
   -3.1980    1.6080  -20.8900 C   0  0  0  0  0  0  0  0  0  0  0  0
   -3.8940    1.0730  -21.9970 C   0  0  0  0  0  0  0  0  0  0  0  0
   -5.0120    0.3030  -21.7960 C   0  0  0  0  0  0  0  0  0  0  0  0
   -5.4740    0.0330  -20.4780 C   0  0  0  0  0  0  0  0  0  0  0  0
   -5.5560   -0.1000  -22.6430 H   0  0  0  0  0  0  0  0  0  0  0  0
   -3.5480    1.2760  -23.0080 H   0  0  0  0  0  0  0  0  0  0  0  0
   -2.3240    2.2290  -21.0690 H   0  0  0  0  0  0  0  0  0  0  0  0
   -3.1090    1.7910  -18.7560 H   0  0  0  0  0  0  0  0  0  0  0  0
   -4.6760    0.6260  -17.2060 H   0  0  0  0  0  0  0  0  0  0  0  0
   -7.7960   -1.6590  -18.6500 H   0  0  0  0  0  0  0  0  0  0  0  0
   -7.6520   -2.6150  -21.4210 C   0  0  0  0  0  0  0  0  0  0  0  0
   -6.9950   -3.5190  -20.9630 O   0  0  0  0  0  0  0  0  0  0  0  0
   -8.8200   -2.6920  -22.3900 C   0  0  0  0  0  0  0  0  0  0  0  0
  -10.0320   -3.5700  -21.9680 C   0  0  0  0  0  0  0  0  0  0  0  0
   -9.8360   -4.4380  -23.1680 N   0  0  0  0  0  0  0  0  0  0  0  0
  -11.0610   -4.3600  -24.3500 S   0  0  0  0  0  0  0  0  0  0  0  0
  -12.2760   -4.8720  -23.7490 O   0  0  0  0  0  0  0  0  0  0  0  0
  -11.1080   -3.0440  -24.9680 O   0  0  0  0  0  0  0  0  0  0  0  0
  -10.3780   -5.5060  -25.5330 C   0  0  0  0  0  0  0  0  0  0  0  0
  -10.8170   -5.4130  -26.8480 C   0  0  0  0  0  0  0  0  0  0  0  0
  -10.4460   -6.4030  -27.7500 C   0  0  0  0  0  0  0  0  0  0  0  0
   -9.5550   -7.4030  -27.3740 C   0  0  0  0  0  0  0  0  0  0  0  0
   -9.0270   -7.4060  -26.0900 C   0  0  0  0  0  0  0  0  0  0  0  0
   -9.4560   -6.4800  -25.1480 C   0  0  0  0  0  0  0  0  0  0  0  0
   -9.0690   -6.5020  -24.1300 H   0  0  0  0  0  0  0  0  0  0  0  0
   -8.2770   -8.1430  -25.8310 H   0  0  0  0  0  0  0  0  0  0  0  0
   -9.2640   -8.1840  -28.0730 H   0  0  0  0  0  0  0  0  0  0  0  0
  -10.8640   -6.4140  -28.7450 H   0  0  0  0  0  0  0  0  0  0  0  0
  -11.4370   -4.5730  -27.1530 H   0  0  0  0  0  0  0  0  0  0  0  0
   -8.5790   -3.7260  -23.5070 C   0  0  0  0  0  0  0  0  0  0  0  0
   -7.7390   -4.3670  -23.2350 H   0  0  0  0  0  0  0  0  0  0  0  0
   -8.4790   -3.3690  -24.5330 H   0  0  0  0  0  0  0  0  0  0  0  0
   -9.8400   -4.1430  -21.0610 H   0  0  0  0  0  0  0  0  0  0  0  0
  -11.0030   -3.0730  -21.9060 H   0  0  0  0  0  0  0  0  0  0  0  0
   -9.9240    0.2950  -23.6200 H   0  0  0  0  0  0  0  0  0  0  0  0
   -9.9210   -1.1930  -24.6120 H   0  0  0  0  0  0  0  0  0  0  0  0
  -11.0630   -1.0170  -23.2530 H   0  0  0  0  0  0  0  0  0  0  0  0
  1  2  1  0  0  0  0
  1 46  1  0  0  0  0
  1 47  1  0  0  0  0
  1 48  1  0  0  0  0
  2  3  1  0  0  0  0
  2 24  1  0  0  0  0
  3  4  2  0  0  0  0
  3  5  1  0  0  0  0
  5  6  1  0  0  0  0
  5 22  1  0  0  0  0
  6  7  2  0  0  0  0
  6 15  1  0  0  0  0
  7  8  1  0  0  0  0
  7 21  1  0  0  0  0
  8  9  2  0  0  0  0
  9 10  1  0  0  0  0
  9 20  1  0  0  0  0
 10 11  2  0  0  0  0
 10 15  1  0  0  0  0
 11 12  1  0  0  0  0
 11 19  1  0  0  0  0
 12 13  2  0  0  0  0
 12 18  1  0  0  0  0
 13 14  1  0  0  0  0
 13 17  1  0  0  0  0
 14 15  2  0  0  0  0
 14 16  1  0  0  0  0
 22 23  2  0  0  0  0
 22 24  1  0  0  0  0
 24 25  1  0  0  0  0
 24 41  1  0  0  0  0
 25 26  1  0  0  0  0
 25 44  1  0  0  0  0
 25 45  1  0  0  0  0
 26 27  1  0  0  0  0
 26 41  1  0  0  0  0
 27 28  2  0  0  0  0
 27 29  2  0  0  0  0
 27 30  1  0  0  0  0
 30 31  2  0  0  0  0
 30 35  1  0  0  0  0
 31 32  1  0  0  0  0
 31 40  1  0  0  0  0
 32 33  2  0  0  0  0
 32 39  1  0  0  0  0
 33 34  1  0  0  0  0
 33 38  1  0  0  0  0
 34 35  2  0  0  0  0
 34 37  1  0  0  0  0
 35 36  1  0  0  0  0
 41 42  1  0  0  0  0
 41 43  1  0  0  0  0
M  END
>  <MODEL>
       1

$$$$
