tmp_first_model_5_85.pdb
 OpenBabel08272519233D

 57 62  0  0  1  0  0  0  0  0999 V2000
   -9.2800   -8.5960  -23.3920 C   0  0  0  0  0  0  0  0  0  0  0  0
   -8.3730   -7.5710  -22.9230 N   0  0  0  0  0  0  0  0  0  0  0  0
   -7.4210   -7.1400  -23.7930 C   0  0  0  0  0  0  0  0  0  0  0  0
   -7.3740   -7.5120  -24.9530 O   0  0  0  0  0  0  0  0  0  0  0  0
   -6.4550   -6.0980  -23.2590 C   0  0  0  0  0  0  0  0  0  0  0  0
   -6.8140   -4.8210  -23.8290 N   0  0  0  0  0  0  0  0  0  0  0  0
   -8.0430   -4.2100  -23.3660 C   0  0  0  0  0  0  0  0  0  0  0  0
   -7.8630   -2.6900  -23.1960 C   0  0  2  0  0  0  0  0  0  0  0  0
   -6.8600   -2.4650  -22.0420 C   0  0  0  0  0  0  0  0  0  0  0  0
   -5.7990   -3.0140  -21.8500 O   0  0  0  0  0  0  0  0  0  0  0  0
   -7.3600   -1.4870  -21.2150 N   0  0  0  0  0  0  0  0  0  0  0  0
   -6.5450   -0.9660  -20.1970 C   0  0  0  0  0  0  0  0  0  0  0  0
   -6.8350   -1.1610  -18.8690 C   0  0  0  0  0  0  0  0  0  0  0  0
   -5.9620   -0.9040  -17.8680 N   0  0  0  0  0  0  0  0  0  0  0  0
   -4.7890   -0.4130  -18.2070 C   0  0  0  0  0  0  0  0  0  0  0  0
   -4.4400   -0.0180  -19.5330 C   0  0  0  0  0  0  0  0  0  0  0  0
   -3.2670    0.7370  -19.8190 C   0  0  0  0  0  0  0  0  0  0  0  0
   -3.1490    1.4100  -21.0010 C   0  0  0  0  0  0  0  0  0  0  0  0
   -4.0830    1.1860  -22.0480 C   0  0  0  0  0  0  0  0  0  0  0  0
   -5.1440    0.3350  -21.8580 C   0  0  0  0  0  0  0  0  0  0  0  0
   -5.3720   -0.2430  -20.5670 C   0  0  0  0  0  0  0  0  0  0  0  0
   -5.7870    0.0840  -22.7080 H   0  0  0  0  0  0  0  0  0  0  0  0
   -3.9330    1.6890  -23.0000 H   0  0  0  0  0  0  0  0  0  0  0  0
   -2.2680    2.0210  -21.1910 H   0  0  0  0  0  0  0  0  0  0  0  0
   -2.5200    0.8530  -19.0400 H   0  0  0  0  0  0  0  0  0  0  0  0
   -4.0700   -0.2640  -17.4020 H   0  0  0  0  0  0  0  0  0  0  0  0
   -7.7870   -1.5930  -18.5600 H   0  0  0  0  0  0  0  0  0  0  0  0
   -8.7150   -1.1010  -21.4940 C   0  0  0  0  0  0  0  0  0  0  0  0
   -9.1190   -1.9660  -22.6820 C   0  0  0  0  0  0  0  0  0  0  0  0
  -10.4700   -2.6330  -22.6070 C   0  0  0  0  0  0  0  0  0  0  0  0
  -10.2210   -1.5300  -23.6050 C   0  0  0  0  0  0  0  0  0  0  0  0
  -10.1290   -1.8180  -24.6490 H   0  0  0  0  0  0  0  0  0  0  0  0
  -10.6910   -0.5570  -23.4510 H   0  0  0  0  0  0  0  0  0  0  0  0
  -10.5610   -3.6550  -22.9640 H   0  0  0  0  0  0  0  0  0  0  0  0
  -11.0970   -2.4220  -21.7400 H   0  0  0  0  0  0  0  0  0  0  0  0
   -9.3470   -1.3270  -20.6440 H   0  0  0  0  0  0  0  0  0  0  0  0
   -8.7770   -0.0290  -21.7010 H   0  0  0  0  0  0  0  0  0  0  0  0
   -7.2870   -2.1420  -24.5050 C   0  0  0  0  0  0  0  0  0  0  0  0
   -7.4280   -0.7960  -24.8660 C   0  0  0  0  0  0  0  0  0  0  0  0
   -6.9040   -0.3410  -26.0670 C   0  0  0  0  0  0  0  0  0  0  0  0
   -7.0770    1.3400  -26.4950 Cl  0  0  0  0  0  0  0  0  0  0  0  0
   -6.2280   -1.1900  -26.9430 C   0  0  0  0  0  0  0  0  0  0  0  0
   -6.0260   -2.5000  -26.5610 C   0  0  0  0  0  0  0  0  0  0  0  0
   -6.5170   -2.9630  -25.3410 C   0  0  0  0  0  0  0  0  0  0  0  0
   -6.1170   -4.3390  -24.9020 C   0  0  0  0  0  0  0  0  0  0  0  0
   -5.2120   -4.9560  -25.4400 O   0  0  0  0  0  0  0  0  0  0  0  0
   -5.4680   -3.1840  -27.1930 H   0  0  0  0  0  0  0  0  0  0  0  0
   -5.8490   -0.8060  -27.8850 H   0  0  0  0  0  0  0  0  0  0  0  0
   -7.9620   -0.1000  -24.2270 H   0  0  0  0  0  0  0  0  0  0  0  0
   -8.2930   -4.6450  -22.3980 H   0  0  0  0  0  0  0  0  0  0  0  0
   -8.8690   -4.4240  -24.0560 H   0  0  0  0  0  0  0  0  0  0  0  0
   -5.4530   -6.3440  -23.6130 H   0  0  0  0  0  0  0  0  0  0  0  0
   -6.4620   -6.0450  -22.1590 H   0  0  0  0  0  0  0  0  0  0  0  0
   -8.4680   -7.1400  -22.0200 H   0  0  0  0  0  0  0  0  0  0  0  0
  -10.1680   -8.6930  -22.7760 H   0  0  0  0  0  0  0  0  0  0  0  0
   -9.5480   -8.3650  -24.4270 H   0  0  0  0  0  0  0  0  0  0  0  0
   -8.7880   -9.5650  -23.3490 H   0  0  0  0  0  0  0  0  0  0  0  0
  1  2  1  0  0  0  0
  1 55  1  0  0  0  0
  1 56  1  0  0  0  0
  1 57  1  0  0  0  0
  2  3  1  0  0  0  0
  2 54  1  0  0  0  0
  3  4  2  0  0  0  0
  3  5  1  0  0  0  0
  5  6  1  0  0  0  0
  5 52  1  0  0  0  0
  5 53  1  0  0  0  0
  6  7  1  0  0  0  0
  6 45  1  0  0  0  0
  7  8  1  0  0  0  0
  7 50  1  0  0  0  0
  7 51  1  0  0  0  0
  8  9  1  1  0  0  0
  8 29  1  0  0  0  0
  8 38  1  0  0  0  0
  9 10  2  0  0  0  0
  9 11  1  0  0  0  0
 11 12  1  0  0  0  0
 11 28  1  0  0  0  0
 12 13  2  0  0  0  0
 12 21  1  0  0  0  0
 13 14  1  0  0  0  0
 13 27  1  0  0  0  0
 14 15  2  0  0  0  0
 15 16  1  0  0  0  0
 15 26  1  0  0  0  0
 16 17  2  0  0  0  0
 16 21  1  0  0  0  0
 17 18  1  0  0  0  0
 17 25  1  0  0  0  0
 18 19  2  0  0  0  0
 18 24  1  0  0  0  0
 19 20  1  0  0  0  0
 19 23  1  0  0  0  0
 20 21  2  0  0  0  0
 20 22  1  0  0  0  0
 28 29  1  0  0  0  0
 28 36  1  0  0  0  0
 28 37  1  0  0  0  0
 29 30  1  0  0  0  0
 29 31  1  0  0  0  0
 30 31  1  0  0  0  0
 30 34  1  0  0  0  0
 30 35  1  0  0  0  0
 31 32  1  0  0  0  0
 31 33  1  0  0  0  0
 38 39  2  0  0  0  0
 38 44  1  0  0  0  0
 39 40  1  0  0  0  0
 39 49  1  0  0  0  0
 40 41  1  0  0  0  0
 40 42  2  0  0  0  0
 42 43  1  0  0  0  0
 42 48  1  0  0  0  0
 43 44  2  0  0  0  0
 43 47  1  0  0  0  0
 44 45  1  0  0  0  0
 45 46  2  0  0  0  0
M  END
>  <MODEL>
       1

$$$$
