tmp_first_model_13_28.pdb
 OpenBabel08282500103D

 64 68  0  0  1  0  0  0  0  0999 V2000
   -7.4290    3.2720  -21.7260 C   0  0  0  0  0  0  0  0  0  0  0  0
   -8.3520    2.8630  -22.7660 N   0  0  0  0  0  0  0  0  0  0  0  0
   -7.8300    2.1850  -23.8190 C   0  0  0  0  0  0  0  0  0  0  0  0
   -6.6200    2.0630  -23.9750 O   0  0  0  0  0  0  0  0  0  0  0  0
   -8.8150    1.5840  -24.8100 C   0  0  0  0  0  0  0  0  0  0  0  0
   -9.4890    0.4180  -24.2860 N   0  0  0  0  0  0  0  0  0  0  0  0
   -8.7370   -0.8180  -24.1550 C   0  0  0  0  0  0  0  0  0  0  0  0
   -9.0900   -1.5620  -22.8510 C   0  0  2  0  0  0  0  0  0  0  0  0
   -8.5520   -0.7820  -21.6300 C   0  0  0  0  0  0  0  0  0  0  0  0
   -9.0360    0.2050  -21.1130 O   0  0  0  0  0  0  0  0  0  0  0  0
   -7.3980   -1.3940  -21.2020 N   0  0  0  0  0  0  0  0  0  0  0  0
   -6.6000   -0.8190  -20.1790 C   0  0  0  0  0  0  0  0  0  0  0  0
   -6.9160   -1.0470  -18.8640 C   0  0  0  0  0  0  0  0  0  0  0  0
   -6.2130   -0.5480  -17.8200 N   0  0  0  0  0  0  0  0  0  0  0  0
   -5.1770    0.2070  -18.0870 C   0  0  0  0  0  0  0  0  0  0  0  0
   -4.7400    0.5270  -19.4020 C   0  0  0  0  0  0  0  0  0  0  0  0
   -3.6170    1.3610  -19.6450 C   0  0  0  0  0  0  0  0  0  0  0  0
   -3.2290    1.6570  -20.9230 C   0  0  0  0  0  0  0  0  0  0  0  0
   -3.9510    1.1340  -22.0220 C   0  0  0  0  0  0  0  0  0  0  0  0
   -5.0420    0.3230  -21.8130 C   0  0  0  0  0  0  0  0  0  0  0  0
   -5.4670   -0.0040  -20.4960 C   0  0  0  0  0  0  0  0  0  0  0  0
   -5.5980   -0.0480  -22.6700 H   0  0  0  0  0  0  0  0  0  0  0  0
   -3.6570    1.3790  -23.0380 H   0  0  0  0  0  0  0  0  0  0  0  0
   -2.3750    2.3070  -21.1010 H   0  0  0  0  0  0  0  0  0  0  0  0
   -3.0830    1.7620  -18.7880 H   0  0  0  0  0  0  0  0  0  0  0  0
   -4.6160    0.6040  -17.2390 H   0  0  0  0  0  0  0  0  0  0  0  0
   -7.7790   -1.6620  -18.6120 H   0  0  0  0  0  0  0  0  0  0  0  0
   -7.0420   -2.5890  -21.9340 C   0  0  0  0  0  0  0  0  0  0  0  0
   -8.3190   -2.9190  -22.7360 C   0  0  2  0  0  0  0  0  0  0  0  0
   -8.0430   -3.7010  -24.0360 C   0  0  0  0  0  0  0  0  0  0  0  0
   -7.4520   -5.3520  -23.6630 S   0  0  0  0  0  0  0  0  0  0  0  0
   -6.0970   -5.2720  -23.1380 O   0  0  0  0  0  0  0  0  0  0  0  0
   -8.4950   -6.0560  -22.9230 O   0  0  0  0  0  0  0  0  0  0  0  0
   -7.2680   -6.0150  -25.1820 N   0  0  0  0  0  0  0  0  0  0  0  0
   -8.4650   -6.3880  -25.9260 C   0  0  0  0  0  0  0  0  0  0  0  0
   -8.9950   -5.4760  -26.1900 H   0  0  0  0  0  0  0  0  0  0  0  0
   -9.1540   -7.0300  -25.3680 H   0  0  0  0  0  0  0  0  0  0  0  0
   -8.1610   -6.8910  -26.8510 H   0  0  0  0  0  0  0  0  0  0  0  0
   -6.5850   -6.7570  -25.0930 H   0  0  0  0  0  0  0  0  0  0  0  0
   -8.9590   -3.8060  -24.6330 H   0  0  0  0  0  0  0  0  0  0  0  0
   -7.2690   -3.2280  -24.6510 H   0  0  0  0  0  0  0  0  0  0  0  0
   -8.9350   -3.5770  -22.1230 H   0  0  0  0  0  0  0  0  0  0  0  0
   -6.1880   -2.4020  -22.6000 H   0  0  0  0  0  0  0  0  0  0  0  0
   -6.7600   -3.3940  -21.2490 H   0  0  0  0  0  0  0  0  0  0  0  0
  -10.6030   -1.6410  -22.7610 C   0  0  0  0  0  0  0  0  0  0  0  0
  -11.2120   -2.5630  -21.9060 C   0  0  0  0  0  0  0  0  0  0  0  0
  -12.5910   -2.5920  -21.7910 C   0  0  0  0  0  0  0  0  0  0  0  0
  -13.3210   -3.7340  -20.6950 Cl  0  0  0  0  0  0  0  0  0  0  0  0
  -13.4100   -1.7210  -22.5110 C   0  0  0  0  0  0  0  0  0  0  0  0
  -12.8170   -0.7720  -23.3190 C   0  0  0  0  0  0  0  0  0  0  0  0
  -11.4280   -0.7130  -23.4150 C   0  0  0  0  0  0  0  0  0  0  0  0
  -10.8510    0.4340  -24.1780 C   0  0  0  0  0  0  0  0  0  0  0  0
  -11.5490    1.3310  -24.6330 O   0  0  0  0  0  0  0  0  0  0  0  0
  -13.3950   -0.0400  -23.8760 H   0  0  0  0  0  0  0  0  0  0  0  0
  -14.4860   -1.7880  -22.4050 H   0  0  0  0  0  0  0  0  0  0  0  0
  -10.6160   -3.2520  -21.3160 H   0  0  0  0  0  0  0  0  0  0  0  0
   -7.6750   -0.5610  -24.1750 H   0  0  0  0  0  0  0  0  0  0  0  0
   -8.9620   -1.4750  -25.0040 H   0  0  0  0  0  0  0  0  0  0  0  0
   -9.6080    2.2900  -25.0680 H   0  0  0  0  0  0  0  0  0  0  0  0
   -8.2210    1.3230  -25.6900 H   0  0  0  0  0  0  0  0  0  0  0  0
   -9.3180    2.7370  -22.5080 H   0  0  0  0  0  0  0  0  0  0  0  0
   -6.7890    2.4360  -21.4320 H   0  0  0  0  0  0  0  0  0  0  0  0
   -6.7810    4.0720  -22.0850 H   0  0  0  0  0  0  0  0  0  0  0  0
   -7.9840    3.6100  -20.8580 H   0  0  0  0  0  0  0  0  0  0  0  0
  1  2  1  0  0  0  0
  1 62  1  0  0  0  0
  1 63  1  0  0  0  0
  1 64  1  0  0  0  0
  2  3  1  0  0  0  0
  2 61  1  0  0  0  0
  3  4  2  0  0  0  0
  3  5  1  0  0  0  0
  5  6  1  0  0  0  0
  5 59  1  0  0  0  0
  5 60  1  0  0  0  0
  6  7  1  0  0  0  0
  6 52  1  0  0  0  0
  7  8  1  0  0  0  0
  7 57  1  0  0  0  0
  7 58  1  0  0  0  0
  8  9  1  1  0  0  0
  8 29  1  0  0  0  0
  8 45  1  0  0  0  0
  9 10  2  0  0  0  0
  9 11  1  0  0  0  0
 11 12  1  0  0  0  0
 11 28  1  0  0  0  0
 12 13  2  0  0  0  0
 12 21  1  0  0  0  0
 13 14  1  0  0  0  0
 13 27  1  0  0  0  0
 14 15  2  0  0  0  0
 15 16  1  0  0  0  0
 15 26  1  0  0  0  0
 16 17  2  0  0  0  0
 16 21  1  0  0  0  0
 17 18  1  0  0  0  0
 17 25  1  0  0  0  0
 18 19  2  0  0  0  0
 18 24  1  0  0  0  0
 19 20  1  0  0  0  0
 19 23  1  0  0  0  0
 20 21  2  0  0  0  0
 20 22  1  0  0  0  0
 28 29  1  0  0  0  0
 28 43  1  0  0  0  0
 28 44  1  0  0  0  0
 29 30  1  0  0  0  0
 29 42  1  1  0  0  0
 30 31  1  0  0  0  0
 30 40  1  0  0  0  0
 30 41  1  0  0  0  0
 31 32  2  0  0  0  0
 31 33  2  0  0  0  0
 31 34  1  0  0  0  0
 34 35  1  0  0  0  0
 34 39  1  0  0  0  0
 35 36  1  0  0  0  0
 35 37  1  0  0  0  0
 35 38  1  0  0  0  0
 45 46  2  0  0  0  0
 45 51  1  0  0  0  0
 46 47  1  0  0  0  0
 46 56  1  0  0  0  0
 47 48  1  0  0  0  0
 47 49  2  0  0  0  0
 49 50  1  0  0  0  0
 49 55  1  0  0  0  0
 50 51  2  0  0  0  0
 50 54  1  0  0  0  0
 51 52  1  0  0  0  0
 52 53  2  0  0  0  0
M  END
>  <MODEL>
       1

$$$$
