tmp_first_model_8_36.pdb
 OpenBabel08272521063D

 47 50  0  0  1  0  0  0  0  0999 V2000
   -8.6860    0.6140  -21.3590 O   0  0  0  0  0  0  0  0  0  0  0  0
   -8.3370   -0.3830  -21.9600 C   0  0  0  0  0  0  0  0  0  0  0  0
   -7.4340   -1.4330  -21.2730 C   0  0  0  0  0  0  0  0  0  0  0  0
   -6.5780   -0.8330  -20.1810 C   0  0  0  0  0  0  0  0  0  0  0  0
   -6.8790   -1.0400  -18.8610 C   0  0  0  0  0  0  0  0  0  0  0  0
   -6.1910   -0.5410  -17.7990 N   0  0  0  0  0  0  0  0  0  0  0  0
   -5.1570    0.2200  -18.0650 C   0  0  0  0  0  0  0  0  0  0  0  0
   -4.7250    0.5340  -19.3800 C   0  0  0  0  0  0  0  0  0  0  0  0
   -3.6000    1.3650  -19.6190 C   0  0  0  0  0  0  0  0  0  0  0  0
   -3.2180    1.6670  -20.8970 C   0  0  0  0  0  0  0  0  0  0  0  0
   -3.9570    1.1560  -21.9870 C   0  0  0  0  0  0  0  0  0  0  0  0
   -5.0330    0.3300  -21.7850 C   0  0  0  0  0  0  0  0  0  0  0  0
   -5.4550   -0.0020  -20.4720 C   0  0  0  0  0  0  0  0  0  0  0  0
   -5.5660   -0.0720  -22.6430 H   0  0  0  0  0  0  0  0  0  0  0  0
   -3.6270    1.3750  -22.9980 H   0  0  0  0  0  0  0  0  0  0  0  0
   -2.3520    2.2970  -21.0880 H   0  0  0  0  0  0  0  0  0  0  0  0
   -3.0590    1.7730  -18.7690 H   0  0  0  0  0  0  0  0  0  0  0  0
   -4.6030    0.6260  -17.2150 H   0  0  0  0  0  0  0  0  0  0  0  0
   -7.7300   -1.6590  -18.5850 H   0  0  0  0  0  0  0  0  0  0  0  0
   -8.0870   -2.1980  -20.8320 H   0  0  0  0  0  0  0  0  0  0  0  0
   -6.8080   -1.9520  -22.0120 H   0  0  0  0  0  0  0  0  0  0  0  0
   -8.6800   -0.6040  -23.2870 N   0  0  0  0  0  0  0  0  0  0  0  0
   -9.1590    0.5340  -24.0700 C   0  0  0  0  0  0  0  0  0  0  0  0
  -10.6770    0.5440  -24.2220 C   0  0  0  0  0  0  0  0  0  0  0  0
  -11.1720   -0.7910  -24.7700 C   0  0  0  0  0  0  0  0  0  0  0  0
  -10.6200   -1.9440  -23.9340 C   0  0  0  0  0  0  0  0  0  0  0  0
   -9.0820   -1.9140  -23.8220 C   0  0  1  0  0  0  0  0  0  0  0  0
   -8.3310   -2.2540  -25.1130 C   0  0  0  0  0  0  0  0  0  0  0  0
   -6.9740   -1.9280  -25.2100 C   0  0  0  0  0  0  0  0  0  0  0  0
   -6.2250   -2.2420  -26.3370 C   0  0  0  0  0  0  0  0  0  0  0  0
   -6.8150   -2.9060  -27.4060 C   0  0  0  0  0  0  0  0  0  0  0  0
   -8.1560   -3.2580  -27.3190 C   0  0  0  0  0  0  0  0  0  0  0  0
   -8.9040   -2.9430  -26.1860 C   0  0  0  0  0  0  0  0  0  0  0  0
   -9.9460   -3.2490  -26.1600 H   0  0  0  0  0  0  0  0  0  0  0  0
   -8.6290   -3.7890  -28.1400 H   0  0  0  0  0  0  0  0  0  0  0  0
   -6.2350   -3.1500  -28.2930 H   0  0  0  0  0  0  0  0  0  0  0  0
   -5.1770   -1.9640  -26.3820 H   0  0  0  0  0  0  0  0  0  0  0  0
   -6.4810   -1.4140  -24.3900 H   0  0  0  0  0  0  0  0  0  0  0  0
   -8.7910   -2.6560  -23.0730 H   0  0  0  0  0  0  0  0  0  0  0  0
  -10.9590   -2.9120  -24.3150 H   0  0  0  0  0  0  0  0  0  0  0  0
  -11.0260   -1.8730  -22.9180 H   0  0  0  0  0  0  0  0  0  0  0  0
  -10.8530   -0.9100  -25.8140 H   0  0  0  0  0  0  0  0  0  0  0  0
  -12.2680   -0.8150  -24.7750 H   0  0  0  0  0  0  0  0  0  0  0  0
  -10.9880    1.3670  -24.8780 H   0  0  0  0  0  0  0  0  0  0  0  0
  -11.1160    0.7400  -23.2380 H   0  0  0  0  0  0  0  0  0  0  0  0
   -8.8060    1.4510  -23.5990 H   0  0  0  0  0  0  0  0  0  0  0  0
   -8.7010    0.4720  -25.0630 H   0  0  0  0  0  0  0  0  0  0  0  0
  1  2  2  0  0  0  0
  2  3  1  0  0  0  0
  2 22  1  0  0  0  0
  3  4  1  0  0  0  0
  3 20  1  0  0  0  0
  3 21  1  0  0  0  0
  4  5  2  0  0  0  0
  4 13  1  0  0  0  0
  5  6  1  0  0  0  0
  5 19  1  0  0  0  0
  6  7  2  0  0  0  0
  7  8  1  0  0  0  0
  7 18  1  0  0  0  0
  8  9  2  0  0  0  0
  8 13  1  0  0  0  0
  9 10  1  0  0  0  0
  9 17  1  0  0  0  0
 10 11  2  0  0  0  0
 10 16  1  0  0  0  0
 11 12  1  0  0  0  0
 11 15  1  0  0  0  0
 12 13  2  0  0  0  0
 12 14  1  0  0  0  0
 22 23  1  0  0  0  0
 22 27  1  0  0  0  0
 23 24  1  0  0  0  0
 23 46  1  0  0  0  0
 23 47  1  0  0  0  0
 24 25  1  0  0  0  0
 24 44  1  0  0  0  0
 24 45  1  0  0  0  0
 25 26  1  0  0  0  0
 25 42  1  0  0  0  0
 25 43  1  0  0  0  0
 26 27  1  0  0  0  0
 26 40  1  0  0  0  0
 26 41  1  0  0  0  0
 27 28  1  0  0  0  0
 27 39  1  1  0  0  0
 28 29  2  0  0  0  0
 28 33  1  0  0  0  0
 29 30  1  0  0  0  0
 29 38  1  0  0  0  0
 30 31  2  0  0  0  0
 30 37  1  0  0  0  0
 31 32  1  0  0  0  0
 31 36  1  0  0  0  0
 32 33  2  0  0  0  0
 32 35  1  0  0  0  0
 33 34  1  0  0  0  0
M  END
>  <MODEL>
       1

$$$$
