tmp_first_model_4_53.pdb
 OpenBabel08272518513D

 59 63  0  0  1  0  0  0  0  0999 V2000
   -7.5220   -6.1580  -28.9950 C   0  0  0  0  0  0  0  0  0  0  0  0
   -8.7690   -5.4930  -28.4150 C   0  0  0  0  0  0  0  0  0  0  0  0
   -8.5950   -4.0700  -28.1350 N   0  0  0  0  0  0  0  0  0  0  0  0
   -7.7510   -3.6800  -27.1320 C   0  0  0  0  0  0  0  0  0  0  0  0
   -7.0500   -4.4580  -26.5000 O   0  0  0  0  0  0  0  0  0  0  0  0
   -7.7350   -2.1690  -26.8660 C   0  0  0  0  0  0  0  0  0  0  0  0
   -8.5800   -1.8420  -25.7210 N   0  0  0  0  0  0  0  0  0  0  0  0
   -7.9980   -1.2930  -24.4990 C   0  0  0  0  0  0  0  0  0  0  0  0
   -8.8310   -1.5690  -23.2150 C   0  0  2  0  0  0  0  0  0  0  0  0
   -8.2460   -0.6300  -22.1240 C   0  0  0  0  0  0  0  0  0  0  0  0
   -8.3960    0.5720  -22.0470 O   0  0  0  0  0  0  0  0  0  0  0  0
   -7.4530   -1.3770  -21.2680 N   0  0  0  0  0  0  0  0  0  0  0  0
   -6.5440   -0.9160  -20.2740 C   0  0  0  0  0  0  0  0  0  0  0  0
   -6.7270   -1.3390  -18.9760 C   0  0  0  0  0  0  0  0  0  0  0  0
   -5.8440   -1.1630  -17.9660 N   0  0  0  0  0  0  0  0  0  0  0  0
   -4.7200   -0.5520  -18.2470 C   0  0  0  0  0  0  0  0  0  0  0  0
   -4.4040   -0.0320  -19.5320 C   0  0  0  0  0  0  0  0  0  0  0  0
   -3.1860    0.6640  -19.7670 C   0  0  0  0  0  0  0  0  0  0  0  0
   -2.8970    1.1660  -21.0050 C   0  0  0  0  0  0  0  0  0  0  0  0
   -3.7930    0.9500  -22.0760 C   0  0  0  0  0  0  0  0  0  0  0  0
   -4.9630    0.2520  -21.8830 C   0  0  0  0  0  0  0  0  0  0  0  0
   -5.3210   -0.2290  -20.5930 C   0  0  0  0  0  0  0  0  0  0  0  0
   -5.6130    0.0380  -22.7270 H   0  0  0  0  0  0  0  0  0  0  0  0
   -3.5720    1.3700  -23.0500 H   0  0  0  0  0  0  0  0  0  0  0  0
   -1.9850    1.7380  -21.1680 H   0  0  0  0  0  0  0  0  0  0  0  0
   -2.5180    0.8250  -18.9270 H   0  0  0  0  0  0  0  0  0  0  0  0
   -3.9990   -0.4300  -17.4400 H   0  0  0  0  0  0  0  0  0  0  0  0
   -7.6400   -1.8580  -18.6910 H   0  0  0  0  0  0  0  0  0  0  0  0
   -7.3940   -2.7730  -21.6290 C   0  0  0  0  0  0  0  0  0  0  0  0
   -8.5790   -2.9700  -22.5680 C   0  0  2  0  0  0  0  0  0  0  0  0
   -8.3530   -4.1370  -23.5160 C   0  0  0  0  0  0  0  0  0  0  0  0
   -8.2600   -5.0700  -22.9530 H   0  0  0  0  0  0  0  0  0  0  0  0
   -7.4330   -4.0140  -24.0970 H   0  0  0  0  0  0  0  0  0  0  0  0
   -9.1790   -4.2480  -24.2200 H   0  0  0  0  0  0  0  0  0  0  0  0
   -9.4670   -3.1650  -21.9490 H   0  0  0  0  0  0  0  0  0  0  0  0
   -6.4430   -3.0370  -22.1150 H   0  0  0  0  0  0  0  0  0  0  0  0
   -7.4550   -3.3850  -20.7330 H   0  0  0  0  0  0  0  0  0  0  0  0
  -10.3080   -1.3410  -23.5190 C   0  0  0  0  0  0  0  0  0  0  0  0
  -11.2460   -1.2150  -22.4750 C   0  0  0  0  0  0  0  0  0  0  0  0
  -12.5940   -1.0660  -22.7810 C   0  0  0  0  0  0  0  0  0  0  0  0
  -13.8160   -1.0130  -21.5390 Cl  0  0  0  0  0  0  0  0  0  0  0  0
  -13.0480   -0.9900  -24.0970 C   0  0  0  0  0  0  0  0  0  0  0  0
  -12.1340   -1.1230  -25.1240 C   0  0  0  0  0  0  0  0  0  0  0  0
  -10.7880   -1.3570  -24.8400 C   0  0  0  0  0  0  0  0  0  0  0  0
   -9.9100   -1.7250  -25.9890 C   0  0  0  0  0  0  0  0  0  0  0  0
  -10.3650   -1.9460  -27.1180 O   0  0  0  0  0  0  0  0  0  0  0  0
  -12.4460   -1.0810  -26.1640 H   0  0  0  0  0  0  0  0  0  0  0  0
  -14.1110   -0.8790  -24.2880 H   0  0  0  0  0  0  0  0  0  0  0  0
  -10.9280   -1.2480  -21.4360 H   0  0  0  0  0  0  0  0  0  0  0  0
   -6.9900   -1.7080  -24.3800 H   0  0  0  0  0  0  0  0  0  0  0  0
   -7.8820   -0.2040  -24.5860 H   0  0  0  0  0  0  0  0  0  0  0  0
   -8.1210   -1.6380  -27.7440 H   0  0  0  0  0  0  0  0  0  0  0  0
   -6.7080   -1.8490  -26.6670 H   0  0  0  0  0  0  0  0  0  0  0  0
   -9.4090   -3.4780  -28.2710 H   0  0  0  0  0  0  0  0  0  0  0  0
   -9.5970   -5.5850  -29.1270 H   0  0  0  0  0  0  0  0  0  0  0  0
   -9.0590   -6.0230  -27.4980 H   0  0  0  0  0  0  0  0  0  0  0  0
   -6.7020   -6.1580  -28.2750 H   0  0  0  0  0  0  0  0  0  0  0  0
   -7.1850   -5.6590  -29.9060 H   0  0  0  0  0  0  0  0  0  0  0  0
   -7.7410   -7.2020  -29.2420 H   0  0  0  0  0  0  0  0  0  0  0  0
  1  2  1  0  0  0  0
  1 57  1  0  0  0  0
  1 58  1  0  0  0  0
  1 59  1  0  0  0  0
  2  3  1  0  0  0  0
  2 55  1  0  0  0  0
  2 56  1  0  0  0  0
  3  4  1  0  0  0  0
  3 54  1  0  0  0  0
  4  5  2  0  0  0  0
  4  6  1  0  0  0  0
  6  7  1  0  0  0  0
  6 52  1  0  0  0  0
  6 53  1  0  0  0  0
  7  8  1  0  0  0  0
  7 45  1  0  0  0  0
  8  9  1  0  0  0  0
  8 50  1  0  0  0  0
  8 51  1  0  0  0  0
  9 10  1  1  0  0  0
  9 30  1  0  0  0  0
  9 38  1  0  0  0  0
 10 11  2  0  0  0  0
 10 12  1  0  0  0  0
 12 13  1  0  0  0  0
 12 29  1  0  0  0  0
 13 14  2  0  0  0  0
 13 22  1  0  0  0  0
 14 15  1  0  0  0  0
 14 28  1  0  0  0  0
 15 16  2  0  0  0  0
 16 17  1  0  0  0  0
 16 27  1  0  0  0  0
 17 18  2  0  0  0  0
 17 22  1  0  0  0  0
 18 19  1  0  0  0  0
 18 26  1  0  0  0  0
 19 20  2  0  0  0  0
 19 25  1  0  0  0  0
 20 21  1  0  0  0  0
 20 24  1  0  0  0  0
 21 22  2  0  0  0  0
 21 23  1  0  0  0  0
 29 30  1  0  0  0  0
 29 36  1  0  0  0  0
 29 37  1  0  0  0  0
 30 31  1  0  0  0  0
 30 35  1  1  0  0  0
 31 32  1  0  0  0  0
 31 33  1  0  0  0  0
 31 34  1  0  0  0  0
 38 39  2  0  0  0  0
 38 44  1  0  0  0  0
 39 40  1  0  0  0  0
 39 49  1  0  0  0  0
 40 41  1  0  0  0  0
 40 42  2  0  0  0  0
 42 43  1  0  0  0  0
 42 48  1  0  0  0  0
 43 44  2  0  0  0  0
 43 47  1  0  0  0  0
 44 45  1  0  0  0  0
 45 46  2  0  0  0  0
M  END
>  <MODEL>
       1

$$$$
