tmp_first_model_8_14.pdb
 OpenBabel08272521063D

 73 78  0  0  1  0  0  0  0  0999 V2000
   -7.9430   -3.7520  -24.0040 C   0  0  0  0  0  0  0  0  0  0  0  0
   -8.2950   -2.8770  -22.7970 C   0  0  1  0  0  0  0  0  0  0  0  0
   -7.0980   -2.6560  -21.8480 C   0  0  0  0  0  0  0  0  0  0  0  0
   -7.4060   -1.3960  -21.1980 N   0  0  0  0  0  0  0  0  0  0  0  0
   -6.6050   -0.8150  -20.1750 C   0  0  0  0  0  0  0  0  0  0  0  0
   -6.9020   -1.0540  -18.8600 C   0  0  0  0  0  0  0  0  0  0  0  0
   -6.1970   -0.5620  -17.8110 N   0  0  0  0  0  0  0  0  0  0  0  0
   -5.1690    0.2070  -18.0790 C   0  0  0  0  0  0  0  0  0  0  0  0
   -4.7430    0.5410  -19.3970 C   0  0  0  0  0  0  0  0  0  0  0  0
   -3.6180    1.3790  -19.6380 C   0  0  0  0  0  0  0  0  0  0  0  0
   -3.2380    1.6810  -20.9160 C   0  0  0  0  0  0  0  0  0  0  0  0
   -3.9690    1.1660  -22.0090 C   0  0  0  0  0  0  0  0  0  0  0  0
   -5.0490    0.3430  -21.8020 C   0  0  0  0  0  0  0  0  0  0  0  0
   -5.4790    0.0150  -20.4860 C   0  0  0  0  0  0  0  0  0  0  0  0
   -5.5670   -0.0810  -22.6560 H   0  0  0  0  0  0  0  0  0  0  0  0
   -3.6560    1.4030  -23.0230 H   0  0  0  0  0  0  0  0  0  0  0  0
   -2.3730    2.3120  -21.1000 H   0  0  0  0  0  0  0  0  0  0  0  0
   -3.0780    1.7780  -18.7830 H   0  0  0  0  0  0  0  0  0  0  0  0
   -4.6190    0.6140  -17.2300 H   0  0  0  0  0  0  0  0  0  0  0  0
   -7.7560   -1.6760  -18.6010 H   0  0  0  0  0  0  0  0  0  0  0  0
   -8.3890   -0.6670  -21.8300 C   0  0  0  0  0  0  0  0  0  0  0  0
   -8.8040    0.4010  -21.4290 O   0  0  0  0  0  0  0  0  0  0  0  0
   -8.8380   -1.4450  -23.0990 C   0  0  1  0  0  0  0  0  0  0  0  0
   -8.1510   -0.8430  -24.3580 C   0  0  0  0  0  0  0  0  0  0  0  0
   -8.6010    0.5050  -24.6270 N   0  0  0  0  0  0  0  0  0  0  0  0
   -7.6420    1.5700  -24.8900 C   0  0  0  0  0  0  0  0  0  0  0  0
   -7.5150    2.5180  -23.6940 C   0  0  0  0  0  0  0  0  0  0  0  0
   -6.4230    3.5550  -23.8570 N   0  3  0  0  0  0  0  0  0  0  0  0
   -6.7540    4.6770  -24.8360 C   0  0  0  0  0  0  0  0  0  0  0  0
   -7.7570    5.6770  -24.2560 C   0  0  0  0  0  0  0  0  0  0  0  0
   -7.3520    6.1570  -22.9360 N   0  0  0  0  0  0  0  0  0  0  0  0
   -6.5510    7.6020  -22.8290 S   0  0  0  0  0  0  0  0  0  0  0  0
   -6.0440    7.6940  -21.4750 O   0  0  0  0  0  0  0  0  0  0  0  0
   -7.4140    8.6180  -23.4030 O   0  0  0  0  0  0  0  0  0  0  0  0
   -5.1450    7.5230  -23.9300 C   0  0  0  0  0  0  0  0  0  0  0  0
   -5.5140    7.4980  -24.9610 H   0  0  0  0  0  0  0  0  0  0  0  0
   -4.5140    6.6650  -23.6870 H   0  0  0  0  0  0  0  0  0  0  0  0
   -4.6090    8.4620  -23.7560 H   0  0  0  0  0  0  0  0  0  0  0  0
   -7.0430    5.0970  -21.9730 C   0  0  0  0  0  0  0  0  0  0  0  0
   -5.9860    4.1520  -22.5310 C   0  0  0  0  0  0  0  0  0  0  0  0
   -5.0570    4.7010  -22.7070 H   0  0  0  0  0  0  0  0  0  0  0  0
   -5.7770    3.3330  -21.8380 H   0  0  0  0  0  0  0  0  0  0  0  0
   -7.9790    4.5580  -21.7910 H   0  0  0  0  0  0  0  0  0  0  0  0
   -6.7200    5.5620  -21.0440 H   0  0  0  0  0  0  0  0  0  0  0  0
   -8.7350    5.2030  -24.1250 H   0  0  0  0  0  0  0  0  0  0  0  0
   -7.8920    6.5380  -24.9140 H   0  0  0  0  0  0  0  0  0  0  0  0
   -7.1510    4.2440  -25.7530 H   0  0  0  0  0  0  0  0  0  0  0  0
   -5.8160    5.1820  -25.0780 H   0  0  0  0  0  0  0  0  0  0  0  0
   -5.5910    3.0530  -24.2190 H   0  0  0  0  0  0  0  0  0  0  0  0
   -7.2860    1.9440  -22.7920 H   0  0  0  0  0  0  0  0  0  0  0  0
   -8.4730    3.0190  -23.5400 H   0  0  0  0  0  0  0  0  0  0  0  0
   -6.6700    1.1080  -25.0960 H   0  0  0  0  0  0  0  0  0  0  0  0
   -7.9640    2.1120  -25.7830 H   0  0  0  0  0  0  0  0  0  0  0  0
   -9.9340    0.7920  -24.6600 C   0  0  0  0  0  0  0  0  0  0  0  0
  -10.3770    1.8270  -25.1460 O   0  0  0  0  0  0  0  0  0  0  0  0
  -10.8510   -0.2240  -24.0240 C   0  0  0  0  0  0  0  0  0  0  0  0
  -12.2280   -0.0180  -24.1070 C   0  0  0  0  0  0  0  0  0  0  0  0
  -13.1110   -0.9110  -23.5350 C   0  0  0  0  0  0  0  0  0  0  0  0
  -12.6070   -1.9530  -22.7590 C   0  0  0  0  0  0  0  0  0  0  0  0
  -13.7220   -2.9830  -21.9030 Cl  0  0  0  0  0  0  0  0  0  0  0  0
  -11.2440   -2.1390  -22.6050 C   0  0  0  0  0  0  0  0  0  0  0  0
  -10.3420   -1.3060  -23.2860 C   0  0  0  0  0  0  0  0  0  0  0  0
  -10.9030   -2.9090  -21.9180 H   0  0  0  0  0  0  0  0  0  0  0  0
  -14.1800   -0.7790  -23.6500 H   0  0  0  0  0  0  0  0  0  0  0  0
  -12.5890    0.8920  -24.5720 H   0  0  0  0  0  0  0  0  0  0  0  0
   -8.3770   -1.4950  -25.2160 H   0  0  0  0  0  0  0  0  0  0  0  0
   -7.0650   -0.8180  -24.2110 H   0  0  0  0  0  0  0  0  0  0  0  0
   -6.1520   -2.6030  -22.4100 H   0  0  0  0  0  0  0  0  0  0  0  0
   -6.9950   -3.4540  -21.1050 H   0  0  0  0  0  0  0  0  0  0  0  0
   -9.0730   -3.3800  -22.2170 H   0  0  0  0  0  0  0  0  0  0  0  0
   -7.0910   -3.3390  -24.5570 H   0  0  0  0  0  0  0  0  0  0  0  0
   -7.6640   -4.7620  -23.6860 H   0  0  0  0  0  0  0  0  0  0  0  0
   -8.7820   -3.8420  -24.7030 H   0  0  0  0  0  0  0  0  0  0  0  0
  1  2  1  0  0  0  0
  1 71  1  0  0  0  0
  1 72  1  0  0  0  0
  1 73  1  0  0  0  0
  2  3  1  0  0  0  0
  2 23  1  0  0  0  0
  2 70  1  1  0  0  0
  3  4  1  0  0  0  0
  3 68  1  0  0  0  0
  3 69  1  0  0  0  0
  4  5  1  0  0  0  0
  4 21  1  0  0  0  0
  5  6  2  0  0  0  0
  5 14  1  0  0  0  0
  6  7  1  0  0  0  0
  6 20  1  0  0  0  0
  7  8  2  0  0  0  0
  8  9  1  0  0  0  0
  8 19  1  0  0  0  0
  9 10  2  0  0  0  0
  9 14  1  0  0  0  0
 10 11  1  0  0  0  0
 10 18  1  0  0  0  0
 11 12  2  0  0  0  0
 11 17  1  0  0  0  0
 12 13  1  0  0  0  0
 12 16  1  0  0  0  0
 13 14  2  0  0  0  0
 13 15  1  0  0  0  0
 21 22  2  0  0  0  0
 23 21  1  1  0  0  0
 23 24  1  0  0  0  0
 23 62  1  0  0  0  0
 24 25  1  0  0  0  0
 24 66  1  0  0  0  0
 24 67  1  0  0  0  0
 25 26  1  0  0  0  0
 25 54  1  0  0  0  0
 26 27  1  0  0  0  0
 26 52  1  0  0  0  0
 26 53  1  0  0  0  0
 27 28  1  0  0  0  0
 27 50  1  0  0  0  0
 27 51  1  0  0  0  0
 28 29  1  0  0  0  0
 28 40  1  0  0  0  0
 28 49  1  0  0  0  0
 29 30  1  0  0  0  0
 29 47  1  0  0  0  0
 29 48  1  0  0  0  0
 30 31  1  0  0  0  0
 30 45  1  0  0  0  0
 30 46  1  0  0  0  0
 31 32  1  0  0  0  0
 31 39  1  0  0  0  0
 32 33  2  0  0  0  0
 32 34  2  0  0  0  0
 32 35  1  0  0  0  0
 35 36  1  0  0  0  0
 35 37  1  0  0  0  0
 35 38  1  0  0  0  0
 39 40  1  0  0  0  0
 39 43  1  0  0  0  0
 39 44  1  0  0  0  0
 40 41  1  0  0  0  0
 40 42  1  0  0  0  0
 54 55  2  0  0  0  0
 54 56  1  0  0  0  0
 56 57  2  0  0  0  0
 56 62  1  0  0  0  0
 57 58  1  0  0  0  0
 57 65  1  0  0  0  0
 58 59  2  0  0  0  0
 58 64  1  0  0  0  0
 59 60  1  0  0  0  0
 59 61  1  0  0  0  0
 61 62  2  0  0  0  0
 61 63  1  0  0  0  0
M  CHG  1  28   1
M  END
>  <MODEL>
       1

$$$$
