tmp_first_model_17_16.pdb
 OpenBabel08282502223D

 61 66  0  0  1  0  0  0  0  0999 V2000
  -14.4590   -0.3260  -23.0690 C   0  0  0  0  0  0  0  0  0  0  0  0
  -13.9540   -1.5840  -22.5440 N   0  0  0  0  0  0  0  0  0  0  0  0
  -13.1530   -2.4360  -23.2530 C   0  0  0  0  0  0  0  0  0  0  0  0
  -12.9770   -2.3100  -24.4560 O   0  0  0  0  0  0  0  0  0  0  0  0
  -12.5120   -3.5740  -22.4340 C   0  0  0  0  0  0  0  0  0  0  0  0
  -11.1160   -3.8830  -22.7100 N   0  0  0  0  0  0  0  0  0  0  0  0
  -10.0770   -3.5720  -21.7180 C   0  0  0  0  0  0  0  0  0  0  0  0
   -8.7550   -3.1040  -22.3860 C   0  0  2  0  0  0  0  0  0  0  0  0
   -7.6180   -2.9710  -21.3250 C   0  0  0  0  0  0  0  0  0  0  0  0
   -7.0540   -3.8710  -20.7380 O   0  0  0  0  0  0  0  0  0  0  0  0
   -7.3010   -1.6260  -21.1760 N   0  0  0  0  0  0  0  0  0  0  0  0
   -6.5300   -1.0800  -20.1130 C   0  0  0  0  0  0  0  0  0  0  0  0
   -6.8660   -1.2710  -18.7940 C   0  0  0  0  0  0  0  0  0  0  0  0
   -6.2590   -0.6500  -17.7470 N   0  0  0  0  0  0  0  0  0  0  0  0
   -5.2750    0.1750  -18.0120 C   0  0  0  0  0  0  0  0  0  0  0  0
   -4.8150    0.4650  -19.3260 C   0  0  0  0  0  0  0  0  0  0  0  0
   -3.7370    1.3620  -19.5590 C   0  0  0  0  0  0  0  0  0  0  0  0
   -3.3520    1.6550  -20.8400 C   0  0  0  0  0  0  0  0  0  0  0  0
   -4.0310    1.0760  -21.9340 C   0  0  0  0  0  0  0  0  0  0  0  0
   -5.0640    0.1940  -21.7280 C   0  0  0  0  0  0  0  0  0  0  0  0
   -5.4780   -0.1490  -20.4130 C   0  0  0  0  0  0  0  0  0  0  0  0
   -5.5790   -0.2490  -22.5730 H   0  0  0  0  0  0  0  0  0  0  0  0
   -3.7320    1.3340  -22.9470 H   0  0  0  0  0  0  0  0  0  0  0  0
   -2.5260    2.3380  -21.0240 H   0  0  0  0  0  0  0  0  0  0  0  0
   -3.2360    1.8130  -18.7060 H   0  0  0  0  0  0  0  0  0  0  0  0
   -4.7920    0.6720  -17.1680 H   0  0  0  0  0  0  0  0  0  0  0  0
   -7.6780   -1.9410  -18.5190 H   0  0  0  0  0  0  0  0  0  0  0  0
   -8.2500   -0.7640  -21.8520 C   0  0  0  0  0  0  0  0  0  0  0  0
   -8.8240   -1.6500  -22.9540 C   0  0  2  0  0  0  0  0  0  0  0  0
  -10.1870   -1.1050  -23.3840 C   0  0  0  0  0  0  0  0  0  0  0  0
  -10.0460    0.2490  -23.8890 N   0  0  0  0  0  0  0  0  0  0  0  0
  -10.6910    1.2920  -23.3970 N   0  0  0  0  0  0  0  0  0  0  0  0
  -10.2340    2.2640  -24.1680 C   0  0  0  0  0  0  0  0  0  0  0  0
   -9.3510    1.8260  -25.0910 N   0  0  0  0  0  0  0  0  0  0  0  0
   -9.2550    0.5370  -24.8970 N   0  0  0  0  0  0  0  0  0  0  0  0
  -10.5880    3.2820  -24.1050 H   0  0  0  0  0  0  0  0  0  0  0  0
  -10.8600   -1.0380  -22.5300 H   0  0  0  0  0  0  0  0  0  0  0  0
  -10.6510   -1.7080  -24.1670 H   0  0  0  0  0  0  0  0  0  0  0  0
   -8.1630   -1.6220  -23.8300 H   0  0  0  0  0  0  0  0  0  0  0  0
   -9.0320   -0.4360  -21.1480 H   0  0  0  0  0  0  0  0  0  0  0  0
   -7.7780    0.1390  -22.2450 H   0  0  0  0  0  0  0  0  0  0  0  0
   -8.4050   -4.1240  -23.4560 C   0  0  0  0  0  0  0  0  0  0  0  0
   -7.0870   -4.2260  -23.9210 C   0  0  0  0  0  0  0  0  0  0  0  0
   -6.7660   -5.1350  -24.9160 C   0  0  0  0  0  0  0  0  0  0  0  0
   -5.1290   -5.2130  -25.5040 Cl  0  0  0  0  0  0  0  0  0  0  0  0
   -7.7430   -5.9390  -25.5030 C   0  0  0  0  0  0  0  0  0  0  0  0
   -9.0470   -5.8330  -25.0560 C   0  0  0  0  0  0  0  0  0  0  0  0
   -9.3860   -4.9360  -24.0430 C   0  0  0  0  0  0  0  0  0  0  0  0
  -10.8430   -4.8010  -23.6960 C   0  0  0  0  0  0  0  0  0  0  0  0
  -11.7050   -5.4290  -24.2920 O   0  0  0  0  0  0  0  0  0  0  0  0
   -9.8400   -6.4370  -25.4880 H   0  0  0  0  0  0  0  0  0  0  0  0
   -7.4740   -6.6300  -26.2970 H   0  0  0  0  0  0  0  0  0  0  0  0
   -6.3110   -3.5980  -23.4980 H   0  0  0  0  0  0  0  0  0  0  0  0
  -10.4490   -2.7790  -21.0640 H   0  0  0  0  0  0  0  0  0  0  0  0
   -9.8550   -4.4620  -21.1110 H   0  0  0  0  0  0  0  0  0  0  0  0
  -13.0740   -4.4850  -22.6580 H   0  0  0  0  0  0  0  0  0  0  0  0
  -12.6150   -3.3650  -21.3730 H   0  0  0  0  0  0  0  0  0  0  0  0
  -14.1060   -1.7910  -21.5670 H   0  0  0  0  0  0  0  0  0  0  0  0
  -15.5500   -0.2640  -22.9760 H   0  0  0  0  0  0  0  0  0  0  0  0
  -14.0300    0.5320  -22.5300 H   0  0  0  0  0  0  0  0  0  0  0  0
  -14.1840   -0.2650  -24.1250 H   0  0  0  0  0  0  0  0  0  0  0  0
  1  2  1  0  0  0  0
  1 59  1  0  0  0  0
  1 60  1  0  0  0  0
  1 61  1  0  0  0  0
  2  3  1  0  0  0  0
  2 58  1  0  0  0  0
  3  4  2  0  0  0  0
  3  5  1  0  0  0  0
  5  6  1  0  0  0  0
  5 56  1  0  0  0  0
  5 57  1  0  0  0  0
  6  7  1  0  0  0  0
  6 49  1  0  0  0  0
  7  8  1  0  0  0  0
  7 54  1  0  0  0  0
  7 55  1  0  0  0  0
  8  9  1  1  0  0  0
  8 29  1  0  0  0  0
  8 42  1  0  0  0  0
  9 10  2  0  0  0  0
  9 11  1  0  0  0  0
 11 12  1  0  0  0  0
 11 28  1  0  0  0  0
 12 13  2  0  0  0  0
 12 21  1  0  0  0  0
 13 14  1  0  0  0  0
 13 27  1  0  0  0  0
 14 15  2  0  0  0  0
 15 16  1  0  0  0  0
 15 26  1  0  0  0  0
 16 17  2  0  0  0  0
 16 21  1  0  0  0  0
 17 18  1  0  0  0  0
 17 25  1  0  0  0  0
 18 19  2  0  0  0  0
 18 24  1  0  0  0  0
 19 20  1  0  0  0  0
 19 23  1  0  0  0  0
 20 21  2  0  0  0  0
 20 22  1  0  0  0  0
 28 29  1  0  0  0  0
 28 40  1  0  0  0  0
 28 41  1  0  0  0  0
 29 30  1  0  0  0  0
 29 39  1  6  0  0  0
 30 31  1  0  0  0  0
 30 37  1  0  0  0  0
 30 38  1  0  0  0  0
 31 32  1  0  0  0  0
 31 35  1  0  0  0  0
 32 33  2  0  0  0  0
 33 34  1  0  0  0  0
 33 36  1  0  0  0  0
 34 35  2  0  0  0  0
 42 43  2  0  0  0  0
 42 48  1  0  0  0  0
 43 44  1  0  0  0  0
 43 53  1  0  0  0  0
 44 45  1  0  0  0  0
 44 46  2  0  0  0  0
 46 47  1  0  0  0  0
 46 52  1  0  0  0  0
 47 48  2  0  0  0  0
 47 51  1  0  0  0  0
 48 49  1  0  0  0  0
 49 50  2  0  0  0  0
M  END
>  <MODEL>
       1

$$$$
