tmp_first_model_9_15.pdb
 OpenBabel08272521403D

 63 68  0  0  1  0  0  0  0  0999 V2000
   -7.4840    3.3280  -21.7190 C   0  0  0  0  0  0  0  0  0  0  0  0
   -8.4250    2.8920  -22.7280 N   0  0  0  0  0  0  0  0  0  0  0  0
   -7.8980    2.2140  -23.7730 C   0  0  0  0  0  0  0  0  0  0  0  0
   -6.6860    2.1130  -23.9200 O   0  0  0  0  0  0  0  0  0  0  0  0
   -8.8560    1.5920  -24.7810 C   0  0  0  0  0  0  0  0  0  0  0  0
   -9.5230    0.4030  -24.2890 N   0  0  0  0  0  0  0  0  0  0  0  0
   -8.7600   -0.8270  -24.1710 C   0  0  0  0  0  0  0  0  0  0  0  0
   -9.0890   -1.5800  -22.8570 C   0  0  2  0  0  0  0  0  0  0  0  0
   -8.5460   -0.7880  -21.6410 C   0  0  0  0  0  0  0  0  0  0  0  0
   -9.0390    0.2030  -21.1310 O   0  0  0  0  0  0  0  0  0  0  0  0
   -7.3870   -1.3880  -21.2070 N   0  0  0  0  0  0  0  0  0  0  0  0
   -6.5990   -0.8140  -20.1770 C   0  0  0  0  0  0  0  0  0  0  0  0
   -6.9070   -1.0470  -18.8600 C   0  0  0  0  0  0  0  0  0  0  0  0
   -6.2010   -0.5520  -17.8150 N   0  0  0  0  0  0  0  0  0  0  0  0
   -5.1680    0.2090  -18.0810 C   0  0  0  0  0  0  0  0  0  0  0  0
   -4.7310    0.5300  -19.3970 C   0  0  0  0  0  0  0  0  0  0  0  0
   -3.6090    1.3700  -19.6410 C   0  0  0  0  0  0  0  0  0  0  0  0
   -3.2270    1.6680  -20.9200 C   0  0  0  0  0  0  0  0  0  0  0  0
   -3.9530    1.1440  -22.0140 C   0  0  0  0  0  0  0  0  0  0  0  0
   -5.0420    0.3310  -21.8040 C   0  0  0  0  0  0  0  0  0  0  0  0
   -5.4650    0.0030  -20.4870 C   0  0  0  0  0  0  0  0  0  0  0  0
   -5.6010   -0.0460  -22.6560 H   0  0  0  0  0  0  0  0  0  0  0  0
   -3.6610    1.3860  -23.0310 H   0  0  0  0  0  0  0  0  0  0  0  0
   -2.3760    2.3190  -21.1000 H   0  0  0  0  0  0  0  0  0  0  0  0
   -3.0800    1.7770  -18.7830 H   0  0  0  0  0  0  0  0  0  0  0  0
   -4.6180    0.6130  -17.2310 H   0  0  0  0  0  0  0  0  0  0  0  0
   -7.7600   -1.6700  -18.6030 H   0  0  0  0  0  0  0  0  0  0  0  0
   -7.0240   -2.5850  -21.9360 C   0  0  0  0  0  0  0  0  0  0  0  0
   -8.2950   -2.9200  -22.7380 C   0  0  2  0  0  0  0  0  0  0  0  0
   -7.9730   -3.6700  -24.0490 C   0  0  0  0  0  0  0  0  0  0  0  0
   -7.3980   -4.9850  -23.8090 N   0  0  0  0  0  0  0  0  0  0  0  0
   -8.0750   -6.1190  -23.5140 C   0  0  0  0  0  0  0  0  0  0  0  0
   -7.1350   -7.1020  -23.2860 C   0  0  0  0  0  0  0  0  0  0  0  0
   -5.9000   -6.4400  -23.4770 C   0  0  0  0  0  0  0  0  0  0  0  0
   -6.0690   -5.1600  -23.7850 N   0  0  0  0  0  0  0  0  0  0  0  0
   -4.8880   -6.8260  -23.4050 H   0  0  0  0  0  0  0  0  0  0  0  0
   -7.3180   -8.1390  -23.0240 H   0  0  0  0  0  0  0  0  0  0  0  0
   -9.1610   -6.1240  -23.5040 H   0  0  0  0  0  0  0  0  0  0  0  0
   -7.2310   -3.1250  -24.6430 H   0  0  0  0  0  0  0  0  0  0  0  0
   -8.8840   -3.8150  -24.6430 H   0  0  0  0  0  0  0  0  0  0  0  0
   -8.9130   -3.5900  -22.1380 H   0  0  0  0  0  0  0  0  0  0  0  0
   -6.1670   -2.4030  -22.6040 H   0  0  0  0  0  0  0  0  0  0  0  0
   -6.7340   -3.3850  -21.2450 H   0  0  0  0  0  0  0  0  0  0  0  0
  -10.6030   -1.6840  -22.7520 C   0  0  0  0  0  0  0  0  0  0  0  0
  -11.1900   -2.6170  -21.8880 C   0  0  0  0  0  0  0  0  0  0  0  0
  -12.5660   -2.6760  -21.7610 C   0  0  0  0  0  0  0  0  0  0  0  0
  -13.2800   -3.8260  -20.6690 Cl  0  0  0  0  0  0  0  0  0  0  0  0
  -13.4010   -1.8150  -22.4720 C   0  0  0  0  0  0  0  0  0  0  0  0
  -12.8330   -0.8500  -23.2800 C   0  0  0  0  0  0  0  0  0  0  0  0
  -11.4450   -0.7640  -23.3960 C   0  0  0  0  0  0  0  0  0  0  0  0
  -10.8860    0.4000  -24.1560 C   0  0  0  0  0  0  0  0  0  0  0  0
  -11.6050    1.2900  -24.5940 O   0  0  0  0  0  0  0  0  0  0  0  0
  -13.4320   -0.1230  -23.8210 H   0  0  0  0  0  0  0  0  0  0  0  0
  -14.4760   -1.8950  -22.3610 H   0  0  0  0  0  0  0  0  0  0  0  0
  -10.5820   -3.2830  -21.2870 H   0  0  0  0  0  0  0  0  0  0  0  0
   -8.9740   -1.4900  -25.0240 H   0  0  0  0  0  0  0  0  0  0  0  0
   -7.7010   -0.5500  -24.1870 H   0  0  0  0  0  0  0  0  0  0  0  0
   -9.6560    2.2830  -25.0520 H   0  0  0  0  0  0  0  0  0  0  0  0
   -8.2410    1.3590  -25.6590 H   0  0  0  0  0  0  0  0  0  0  0  0
   -9.3980    2.7650  -22.4990 H   0  0  0  0  0  0  0  0  0  0  0  0
   -6.8350    2.4900  -21.4430 H   0  0  0  0  0  0  0  0  0  0  0  0
   -8.0190    3.7010  -20.8520 H   0  0  0  0  0  0  0  0  0  0  0  0
   -6.8460    4.1190  -22.1150 H   0  0  0  0  0  0  0  0  0  0  0  0
  1  2  1  0  0  0  0
  1 61  1  0  0  0  0
  1 62  1  0  0  0  0
  1 63  1  0  0  0  0
  2  3  1  0  0  0  0
  2 60  1  0  0  0  0
  3  4  2  0  0  0  0
  3  5  1  0  0  0  0
  5  6  1  0  0  0  0
  5 58  1  0  0  0  0
  5 59  1  0  0  0  0
  6  7  1  0  0  0  0
  6 51  1  0  0  0  0
  7  8  1  0  0  0  0
  7 56  1  0  0  0  0
  7 57  1  0  0  0  0
  8  9  1  1  0  0  0
  8 29  1  0  0  0  0
  8 44  1  0  0  0  0
  9 10  2  0  0  0  0
  9 11  1  0  0  0  0
 11 12  1  0  0  0  0
 11 28  1  0  0  0  0
 12 13  2  0  0  0  0
 12 21  1  0  0  0  0
 13 14  1  0  0  0  0
 13 27  1  0  0  0  0
 14 15  2  0  0  0  0
 15 16  1  0  0  0  0
 15 26  1  0  0  0  0
 16 17  2  0  0  0  0
 16 21  1  0  0  0  0
 17 18  1  0  0  0  0
 17 25  1  0  0  0  0
 18 19  2  0  0  0  0
 18 24  1  0  0  0  0
 19 20  1  0  0  0  0
 19 23  1  0  0  0  0
 20 21  2  0  0  0  0
 20 22  1  0  0  0  0
 28 29  1  0  0  0  0
 28 42  1  0  0  0  0
 28 43  1  0  0  0  0
 29 30  1  0  0  0  0
 29 41  1  1  0  0  0
 30 31  1  0  0  0  0
 30 39  1  0  0  0  0
 30 40  1  0  0  0  0
 31 32  1  0  0  0  0
 31 35  1  0  0  0  0
 32 33  2  0  0  0  0
 32 38  1  0  0  0  0
 33 34  1  0  0  0  0
 33 37  1  0  0  0  0
 34 35  2  0  0  0  0
 34 36  1  0  0  0  0
 44 45  2  0  0  0  0
 44 50  1  0  0  0  0
 45 46  1  0  0  0  0
 45 55  1  0  0  0  0
 46 47  1  0  0  0  0
 46 48  2  0  0  0  0
 48 49  1  0  0  0  0
 48 54  1  0  0  0  0
 49 50  2  0  0  0  0
 49 53  1  0  0  0  0
 50 51  1  0  0  0  0
 51 52  2  0  0  0  0
M  END
>  <MODEL>
       1

$$$$
