tmp_first_model_20_9.pdb
 OpenBabel08282503553D

 41 43  0  0  1  0  0  0  0  0999 V2000
  -13.1680   -2.9320  -22.7930 C   0  0  0  0  0  0  0  0  0  0  0  0
  -11.9720   -2.0510  -23.1920 C   0  0  1  0  0  0  0  0  0  0  0  0
  -12.1590   -0.6520  -22.6410 C   0  0  0  0  0  0  0  0  0  0  0  0
  -11.3110    0.3560  -22.8250 C   0  0  0  0  0  0  0  0  0  0  0  0
  -10.0070    0.2150  -23.5870 C   0  0  0  0  0  0  0  0  0  0  0  0
   -9.0770   -0.7830  -23.0500 N   0  0  0  0  0  0  0  0  0  0  0  0
   -8.3710   -0.3990  -21.9330 C   0  0  0  0  0  0  0  0  0  0  0  0
   -8.5040    0.7220  -21.4710 O   0  0  0  0  0  0  0  0  0  0  0  0
   -7.4280   -1.4280  -21.2790 C   0  0  0  0  0  0  0  0  0  0  0  0
   -6.5820   -0.8270  -20.1850 C   0  0  0  0  0  0  0  0  0  0  0  0
   -6.8860   -1.0370  -18.8680 C   0  0  0  0  0  0  0  0  0  0  0  0
   -6.2050   -0.5300  -17.8040 N   0  0  0  0  0  0  0  0  0  0  0  0
   -5.1640    0.2170  -18.0690 C   0  0  0  0  0  0  0  0  0  0  0  0
   -4.7260    0.5310  -19.3830 C   0  0  0  0  0  0  0  0  0  0  0  0
   -3.6010    1.3590  -19.6230 C   0  0  0  0  0  0  0  0  0  0  0  0
   -3.2110    1.6520  -20.8990 C   0  0  0  0  0  0  0  0  0  0  0  0
   -3.9350    1.1250  -21.9940 C   0  0  0  0  0  0  0  0  0  0  0  0
   -5.0280    0.3210  -21.7890 C   0  0  0  0  0  0  0  0  0  0  0  0
   -5.4550   -0.0000  -20.4750 C   0  0  0  0  0  0  0  0  0  0  0  0
   -5.5860   -0.0650  -22.6370 H   0  0  0  0  0  0  0  0  0  0  0  0
   -3.6270    1.3730  -23.0050 H   0  0  0  0  0  0  0  0  0  0  0  0
   -2.3590    2.3010  -21.0850 H   0  0  0  0  0  0  0  0  0  0  0  0
   -3.0640    1.7620  -18.7680 H   0  0  0  0  0  0  0  0  0  0  0  0
   -4.6100    0.6180  -17.2170 H   0  0  0  0  0  0  0  0  0  0  0  0
   -7.7340   -1.6600  -18.5840 H   0  0  0  0  0  0  0  0  0  0  0  0
   -6.8070   -1.9010  -22.0520 H   0  0  0  0  0  0  0  0  0  0  0  0
   -8.0470   -2.2350  -20.8560 H   0  0  0  0  0  0  0  0  0  0  0  0
   -9.3830   -2.1660  -23.3900 C   0  0  0  0  0  0  0  0  0  0  0  0
  -10.6580   -2.7220  -22.7420 C   0  0  0  0  0  0  0  0  0  0  0  0
  -10.5940   -2.6480  -21.6490 H   0  0  0  0  0  0  0  0  0  0  0  0
  -10.7290   -3.7920  -22.9790 H   0  0  0  0  0  0  0  0  0  0  0  0
   -8.5170   -2.7860  -23.1410 H   0  0  0  0  0  0  0  0  0  0  0  0
   -9.5030   -2.1980  -24.4810 H   0  0  0  0  0  0  0  0  0  0  0  0
  -10.2130   -0.1020  -24.6160 H   0  0  0  0  0  0  0  0  0  0  0  0
   -9.4870    1.1740  -23.6210 H   0  0  0  0  0  0  0  0  0  0  0  0
  -11.5340    1.3360  -22.3980 H   0  0  0  0  0  0  0  0  0  0  0  0
  -13.0430   -0.4940  -22.0180 H   0  0  0  0  0  0  0  0  0  0  0  0
  -11.9130   -1.9570  -24.2910 H   0  0  0  0  0  0  0  0  0  0  0  0
  -13.0380   -3.9800  -23.0930 H   0  0  0  0  0  0  0  0  0  0  0  0
  -13.2860   -2.9440  -21.6970 H   0  0  0  0  0  0  0  0  0  0  0  0
  -14.0910   -2.5340  -23.2370 H   0  0  0  0  0  0  0  0  0  0  0  0
  1  2  1  0  0  0  0
  1 39  1  0  0  0  0
  1 40  1  0  0  0  0
  1 41  1  0  0  0  0
  2  3  1  0  0  0  0
  2 29  1  0  0  0  0
  2 38  1  6  0  0  0
  3  4  2  0  0  0  0
  3 37  1  0  0  0  0
  4  5  1  0  0  0  0
  4 36  1  0  0  0  0
  5  6  1  0  0  0  0
  5 34  1  0  0  0  0
  5 35  1  0  0  0  0
  6  7  1  0  0  0  0
  6 28  1  0  0  0  0
  7  8  2  0  0  0  0
  7  9  1  0  0  0  0
  9 10  1  0  0  0  0
  9 26  1  0  0  0  0
  9 27  1  0  0  0  0
 10 11  2  0  0  0  0
 10 19  1  0  0  0  0
 11 12  1  0  0  0  0
 11 25  1  0  0  0  0
 12 13  2  0  0  0  0
 13 14  1  0  0  0  0
 13 24  1  0  0  0  0
 14 15  2  0  0  0  0
 14 19  1  0  0  0  0
 15 16  1  0  0  0  0
 15 23  1  0  0  0  0
 16 17  2  0  0  0  0
 16 22  1  0  0  0  0
 17 18  1  0  0  0  0
 17 21  1  0  0  0  0
 18 19  2  0  0  0  0
 18 20  1  0  0  0  0
 28 29  1  0  0  0  0
 28 32  1  0  0  0  0
 28 33  1  0  0  0  0
 29 30  1  0  0  0  0
 29 31  1  0  0  0  0
M  END
>  <MODEL>
       1

$$$$
