tmp_first_model_11_7.pdb
 OpenBabel08272522543D

 44 47  0  0  0  0  0  0  0  0999 V2000
   -9.6800   -6.0190  -25.9640 C   0  0  0  0  0  0  0  0  0  0  0  0
  -10.9930   -6.0610  -25.1950 C   0  0  0  0  0  0  0  0  0  0  0  0
  -11.2520   -4.5570  -24.2430 S   0  0  0  0  0  0  0  0  0  0  0  0
  -12.5140   -4.6820  -23.5380 O   0  0  0  0  0  0  0  0  0  0  0  0
  -11.0200   -3.4660  -25.1890 O   0  0  0  0  0  0  0  0  0  0  0  0
  -10.0490   -4.5490  -23.0340 N   0  0  0  0  0  0  0  0  0  0  0  0
   -8.7510   -3.9120  -23.3670 C   0  0  0  0  0  0  0  0  0  0  0  0
   -8.9620   -2.8240  -22.2870 C   0  0  0  0  0  0  0  0  0  0  0  0
  -10.2200   -3.6190  -21.8580 C   0  0  0  0  0  0  0  0  0  0  0  0
  -10.0420   -4.1640  -20.9290 H   0  0  0  0  0  0  0  0  0  0  0  0
  -11.1640   -3.0720  -21.8080 H   0  0  0  0  0  0  0  0  0  0  0  0
   -7.8760   -2.7040  -21.2380 C   0  0  0  0  0  0  0  0  0  0  0  0
   -7.4130   -3.5880  -20.5570 O   0  0  0  0  0  0  0  0  0  0  0  0
   -7.5000   -1.3660  -21.1960 N   0  0  0  0  0  0  0  0  0  0  0  0
   -6.6490   -0.8290  -20.2020 C   0  0  0  0  0  0  0  0  0  0  0  0
   -6.9420   -1.0900  -18.8870 C   0  0  0  0  0  0  0  0  0  0  0  0
   -6.2590   -0.5800  -17.8360 N   0  0  0  0  0  0  0  0  0  0  0  0
   -5.2320    0.1840  -18.1160 C   0  0  0  0  0  0  0  0  0  0  0  0
   -4.7970    0.4860  -19.4360 C   0  0  0  0  0  0  0  0  0  0  0  0
   -3.6600    1.3000  -19.6500 C   0  0  0  0  0  0  0  0  0  0  0  0
   -3.2330    1.5740  -20.9170 C   0  0  0  0  0  0  0  0  0  0  0  0
   -3.9190    1.0390  -22.0280 C   0  0  0  0  0  0  0  0  0  0  0  0
   -5.0290    0.2480  -21.8520 C   0  0  0  0  0  0  0  0  0  0  0  0
   -5.5090   -0.0340  -20.5370 C   0  0  0  0  0  0  0  0  0  0  0  0
   -5.5390   -0.1450  -22.7270 H   0  0  0  0  0  0  0  0  0  0  0  0
   -3.5630    1.2690  -23.0270 H   0  0  0  0  0  0  0  0  0  0  0  0
   -2.3730    2.2160  -21.0730 H   0  0  0  0  0  0  0  0  0  0  0  0
   -3.1610    1.7060  -18.7770 H   0  0  0  0  0  0  0  0  0  0  0  0
   -4.6700    0.6070  -17.2820 H   0  0  0  0  0  0  0  0  0  0  0  0
   -7.7820   -1.7340  -18.6390 H   0  0  0  0  0  0  0  0  0  0  0  0
   -8.2790   -0.5890  -22.0670 C   0  0  0  0  0  0  0  0  0  0  0  0
   -8.2240    0.6120  -22.2130 O   0  0  0  0  0  0  0  0  0  0  0  0
   -9.1150   -1.4550  -22.7140 N   0  0  0  0  0  0  0  0  0  0  0  0
  -10.0500   -0.9870  -23.7110 C   0  0  0  0  0  0  0  0  0  0  0  0
   -9.7920   -1.3740  -24.6990 H   0  0  0  0  0  0  0  0  0  0  0  0
  -11.0690   -1.2890  -23.4590 H   0  0  0  0  0  0  0  0  0  0  0  0
   -9.9890    0.1010  -23.7170 H   0  0  0  0  0  0  0  0  0  0  0  0
   -7.9210   -4.5820  -23.1230 H   0  0  0  0  0  0  0  0  0  0  0  0
   -8.6890   -3.5260  -24.3860 H   0  0  0  0  0  0  0  0  0  0  0  0
  -11.8750   -6.0770  -25.8500 H   0  0  0  0  0  0  0  0  0  0  0  0
  -11.0620   -6.9210  -24.5360 H   0  0  0  0  0  0  0  0  0  0  0  0
   -8.8270   -6.0190  -25.2670 H   0  0  0  0  0  0  0  0  0  0  0  0
   -9.6610   -5.1130  -26.5810 H   0  0  0  0  0  0  0  0  0  0  0  0
   -9.6090   -6.9070  -26.6050 H   0  0  0  0  0  0  0  0  0  0  0  0
  1  2  1  0  0  0  0
  1 42  1  0  0  0  0
  1 43  1  0  0  0  0
  1 44  1  0  0  0  0
  2  3  1  0  0  0  0
  2 40  1  0  0  0  0
  2 41  1  0  0  0  0
  3  4  2  0  0  0  0
  3  5  2  0  0  0  0
  3  6  1  0  0  0  0
  6  7  1  0  0  0  0
  6  9  1  0  0  0  0
  7  8  1  0  0  0  0
  7 38  1  0  0  0  0
  7 39  1  0  0  0  0
  8  9  1  0  0  0  0
  8 12  1  0  0  0  0
  8 33  1  0  0  0  0
  9 10  1  0  0  0  0
  9 11  1  0  0  0  0
 12 13  2  0  0  0  0
 12 14  1  0  0  0  0
 14 15  1  0  0  0  0
 14 31  1  0  0  0  0
 15 16  2  0  0  0  0
 15 24  1  0  0  0  0
 16 17  1  0  0  0  0
 16 30  1  0  0  0  0
 17 18  2  0  0  0  0
 18 19  1  0  0  0  0
 18 29  1  0  0  0  0
 19 20  2  0  0  0  0
 19 24  1  0  0  0  0
 20 21  1  0  0  0  0
 20 28  1  0  0  0  0
 21 22  2  0  0  0  0
 21 27  1  0  0  0  0
 22 23  1  0  0  0  0
 22 26  1  0  0  0  0
 23 24  2  0  0  0  0
 23 25  1  0  0  0  0
 31 32  2  0  0  0  0
 31 33  1  0  0  0  0
 33 34  1  0  0  0  0
 34 35  1  0  0  0  0
 34 36  1  0  0  0  0
 34 37  1  0  0  0  0
M  END
>  <MODEL>
       1

$$$$
