tmp_first_model_4_92.pdb
 OpenBabel08272518513D

 60 65  0  0  1  0  0  0  0  0999 V2000
   -8.2960   -6.0210  -23.7720 C   0  0  0  0  0  0  0  0  0  0  0  0
   -7.4200   -4.9250  -23.7710 O   0  0  0  0  0  0  0  0  0  0  0  0
   -8.0560   -3.6870  -24.0100 C   0  0  0  0  0  0  0  0  0  0  0  0
   -8.3390   -2.9570  -22.6980 C   0  0  1  0  0  0  0  0  0  0  0  0
   -7.0350   -2.5940  -21.9720 C   0  0  0  0  0  0  0  0  0  0  0  0
   -7.3830   -1.4080  -21.2290 N   0  0  0  0  0  0  0  0  0  0  0  0
   -6.5310   -0.9310  -20.2070 C   0  0  0  0  0  0  0  0  0  0  0  0
   -6.7850   -1.2240  -18.8940 C   0  0  0  0  0  0  0  0  0  0  0  0
   -5.9380   -0.9520  -17.8700 N   0  0  0  0  0  0  0  0  0  0  0  0
   -4.8120   -0.3480  -18.1590 C   0  0  0  0  0  0  0  0  0  0  0  0
   -4.4530    0.0650  -19.4730 C   0  0  0  0  0  0  0  0  0  0  0  0
   -3.2900    0.8330  -19.7240 C   0  0  0  0  0  0  0  0  0  0  0  0
   -3.0550    1.3420  -20.9730 C   0  0  0  0  0  0  0  0  0  0  0  0
   -3.9080    1.0060  -22.0500 C   0  0  0  0  0  0  0  0  0  0  0  0
   -5.0000    0.1980  -21.8470 C   0  0  0  0  0  0  0  0  0  0  0  0
   -5.3270   -0.2420  -20.5370 C   0  0  0  0  0  0  0  0  0  0  0  0
   -5.6300   -0.1130  -22.6770 H   0  0  0  0  0  0  0  0  0  0  0  0
   -3.7100    1.4250  -23.0340 H   0  0  0  0  0  0  0  0  0  0  0  0
   -2.2150    2.0090  -21.1480 H   0  0  0  0  0  0  0  0  0  0  0  0
   -2.6480    1.0670  -18.8790 H   0  0  0  0  0  0  0  0  0  0  0  0
   -4.1230   -0.1200  -17.3430 H   0  0  0  0  0  0  0  0  0  0  0  0
   -7.7070   -1.7410  -18.6400 H   0  0  0  0  0  0  0  0  0  0  0  0
   -8.5840   -0.8320  -21.5780 C   0  0  0  0  0  0  0  0  0  0  0  0
   -9.0770    0.1290  -21.0300 O   0  0  0  0  0  0  0  0  0  0  0  0
   -9.1530   -1.6330  -22.7840 C   0  0  1  0  0  0  0  0  0  0  0  0
   -8.8490   -0.9060  -24.1190 C   0  0  0  0  0  0  0  0  0  0  0  0
   -9.6450    0.2870  -24.3000 N   0  0  0  0  0  0  0  0  0  0  0  0
   -8.9980    1.4960  -24.7880 C   0  0  0  0  0  0  0  0  0  0  0  0
   -8.4020    2.3410  -23.6900 C   0  0  0  0  0  0  0  0  0  0  0  0
   -7.0520    2.5500  -23.3310 C   0  0  0  0  0  0  0  0  0  0  0  0
   -6.9140    3.3990  -22.3170 N   0  0  0  0  0  0  0  0  0  0  0  0
   -8.1740    3.7420  -22.0220 N   0  0  0  0  0  0  0  0  0  0  0  0
   -9.0980    3.1270  -22.7990 C   0  0  0  0  0  0  0  0  0  0  0  0
  -10.1610    3.2770  -22.6430 H   0  0  0  0  0  0  0  0  0  0  0  0
   -8.3570    4.3650  -21.2460 H   0  0  0  0  0  0  0  0  0  0  0  0
   -6.1630    2.0940  -23.7480 H   0  0  0  0  0  0  0  0  0  0  0  0
   -9.7490    2.0660  -25.3430 H   0  0  0  0  0  0  0  0  0  0  0  0
   -8.2320    1.2020  -25.5130 H   0  0  0  0  0  0  0  0  0  0  0  0
  -10.9940    0.2960  -24.0780 C   0  0  0  0  0  0  0  0  0  0  0  0
  -11.7180    1.1980  -24.4740 O   0  0  0  0  0  0  0  0  0  0  0  0
  -11.5240   -0.8650  -23.2900 C   0  0  0  0  0  0  0  0  0  0  0  0
  -12.9080   -0.9690  -23.1330 C   0  0  0  0  0  0  0  0  0  0  0  0
  -13.4600   -1.9310  -22.3140 C   0  0  0  0  0  0  0  0  0  0  0  0
  -12.5910   -2.7850  -21.6420 C   0  0  0  0  0  0  0  0  0  0  0  0
  -13.2480   -3.9290  -20.5180 Cl  0  0  0  0  0  0  0  0  0  0  0  0
  -11.2210   -2.7250  -21.8140 C   0  0  0  0  0  0  0  0  0  0  0  0
  -10.6570   -1.7720  -22.6660 C   0  0  0  0  0  0  0  0  0  0  0  0
  -10.6010   -3.4100  -21.2480 H   0  0  0  0  0  0  0  0  0  0  0  0
  -14.5330   -2.0140  -22.1600 H   0  0  0  0  0  0  0  0  0  0  0  0
  -13.5420   -0.2560  -23.6430 H   0  0  0  0  0  0  0  0  0  0  0  0
   -7.7890   -0.6360  -24.1670 H   0  0  0  0  0  0  0  0  0  0  0  0
   -9.0450   -1.6000  -24.9440 H   0  0  0  0  0  0  0  0  0  0  0  0
   -6.2000   -2.4160  -22.6700 H   0  0  0  0  0  0  0  0  0  0  0  0
   -6.7190   -3.3740  -21.2760 H   0  0  0  0  0  0  0  0  0  0  0  0
   -8.8810   -3.6490  -22.0480 H   0  0  0  0  0  0  0  0  0  0  0  0
   -8.9780   -3.8160  -24.6020 H   0  0  0  0  0  0  0  0  0  0  0  0
   -7.3550   -3.0890  -24.6080 H   0  0  0  0  0  0  0  0  0  0  0  0
   -7.7180   -6.9030  -23.4850 H   0  0  0  0  0  0  0  0  0  0  0  0
   -9.1240   -5.8950  -23.0560 H   0  0  0  0  0  0  0  0  0  0  0  0
   -8.7220   -6.1920  -24.7720 H   0  0  0  0  0  0  0  0  0  0  0  0
  1  2  1  0  0  0  0
  1 58  1  0  0  0  0
  1 59  1  0  0  0  0
  1 60  1  0  0  0  0
  2  3  1  0  0  0  0
  3  4  1  0  0  0  0
  3 56  1  0  0  0  0
  3 57  1  0  0  0  0
  4  5  1  0  0  0  0
  4 25  1  0  0  0  0
  4 55  1  1  0  0  0
  5  6  1  0  0  0  0
  5 53  1  0  0  0  0
  5 54  1  0  0  0  0
  6  7  1  0  0  0  0
  6 23  1  0  0  0  0
  7  8  2  0  0  0  0
  7 16  1  0  0  0  0
  8  9  1  0  0  0  0
  8 22  1  0  0  0  0
  9 10  2  0  0  0  0
 10 11  1  0  0  0  0
 10 21  1  0  0  0  0
 11 12  2  0  0  0  0
 11 16  1  0  0  0  0
 12 13  1  0  0  0  0
 12 20  1  0  0  0  0
 13 14  2  0  0  0  0
 13 19  1  0  0  0  0
 14 15  1  0  0  0  0
 14 18  1  0  0  0  0
 15 16  2  0  0  0  0
 15 17  1  0  0  0  0
 23 24  2  0  0  0  0
 25 23  1  1  0  0  0
 25 26  1  0  0  0  0
 25 47  1  0  0  0  0
 26 27  1  0  0  0  0
 26 51  1  0  0  0  0
 26 52  1  0  0  0  0
 27 28  1  0  0  0  0
 27 39  1  0  0  0  0
 28 29  1  0  0  0  0
 28 37  1  0  0  0  0
 28 38  1  0  0  0  0
 29 30  1  0  0  0  0
 29 33  2  0  0  0  0
 30 31  2  0  0  0  0
 30 36  1  0  0  0  0
 31 32  1  0  0  0  0
 32 33  1  0  0  0  0
 32 35  1  0  0  0  0
 33 34  1  0  0  0  0
 39 40  2  0  0  0  0
 39 41  1  0  0  0  0
 41 42  2  0  0  0  0
 41 47  1  0  0  0  0
 42 43  1  0  0  0  0
 42 50  1  0  0  0  0
 43 44  2  0  0  0  0
 43 49  1  0  0  0  0
 44 45  1  0  0  0  0
 44 46  1  0  0  0  0
 46 47  2  0  0  0  0
 46 48  1  0  0  0  0
M  END
>  <MODEL>
       1

$$$$
