tmp_first_model_11_61.pdb
 OpenBabel08272522543D

 44 47  0  0  0  0  0  0  0  0999 V2000
   -9.1600    0.2450  -21.0780 O   0  0  0  0  0  0  0  0  0  0  0  0
   -8.3720   -0.3140  -21.8120 C   0  0  0  0  0  0  0  0  0  0  0  0
   -7.4420   -1.4120  -21.2710 C   0  0  0  0  0  0  0  0  0  0  0  0
   -6.5710   -0.8350  -20.1740 C   0  0  0  0  0  0  0  0  0  0  0  0
   -6.8770   -1.0410  -18.8540 C   0  0  0  0  0  0  0  0  0  0  0  0
   -6.1930   -0.5330  -17.7930 N   0  0  0  0  0  0  0  0  0  0  0  0
   -5.1560    0.2220  -18.0650 C   0  0  0  0  0  0  0  0  0  0  0  0
   -4.7210    0.5320  -19.3810 C   0  0  0  0  0  0  0  0  0  0  0  0
   -3.5990    1.3650  -19.6240 C   0  0  0  0  0  0  0  0  0  0  0  0
   -3.2110    1.6610  -20.9020 C   0  0  0  0  0  0  0  0  0  0  0  0
   -3.9320    1.1280  -21.9950 C   0  0  0  0  0  0  0  0  0  0  0  0
   -5.0200    0.3160  -21.7860 C   0  0  0  0  0  0  0  0  0  0  0  0
   -5.4490   -0.0030  -20.4710 C   0  0  0  0  0  0  0  0  0  0  0  0
   -5.5540   -0.0870  -22.6380 H   0  0  0  0  0  0  0  0  0  0  0  0
   -3.6170    1.3680  -23.0060 H   0  0  0  0  0  0  0  0  0  0  0  0
   -2.3590    2.3110  -21.0840 H   0  0  0  0  0  0  0  0  0  0  0  0
   -3.0650    1.7810  -18.7730 H   0  0  0  0  0  0  0  0  0  0  0  0
   -4.6020    0.6280  -17.2160 H   0  0  0  0  0  0  0  0  0  0  0  0
   -7.7300   -1.6610  -18.5810 H   0  0  0  0  0  0  0  0  0  0  0  0
   -8.0720   -2.2020  -20.8450 H   0  0  0  0  0  0  0  0  0  0  0  0
   -6.8310   -1.8520  -22.0680 H   0  0  0  0  0  0  0  0  0  0  0  0
   -8.1960    0.0590  -23.1450 N   0  0  0  0  0  0  0  0  0  0  0  0
   -8.3980    1.4600  -23.5020 C   0  0  0  0  0  0  0  0  0  0  0  0
   -7.3920    1.8630  -24.5790 C   0  0  0  0  0  0  0  0  0  0  0  0
   -7.4470    0.9340  -25.7880 C   0  0  0  0  0  0  0  0  0  0  0  0
   -6.4900    1.3370  -26.9350 C   0  0  0  0  0  0  0  0  0  0  0  0
   -7.6900    1.5930  -27.8750 C   0  0  0  0  0  0  0  0  0  0  0  0
   -8.6530    1.1930  -26.7350 C   0  0  0  0  0  0  0  0  0  0  0  0
   -9.2660    0.3100  -26.9370 H   0  0  0  0  0  0  0  0  0  0  0  0
   -9.3270    1.9860  -26.3990 H   0  0  0  0  0  0  0  0  0  0  0  0
   -7.7900    2.6270  -28.2180 H   0  0  0  0  0  0  0  0  0  0  0  0
   -7.7290    0.9470  -28.7560 H   0  0  0  0  0  0  0  0  0  0  0  0
   -5.8740    2.2140  -26.7210 H   0  0  0  0  0  0  0  0  0  0  0  0
   -5.8140    0.5390  -27.2560 H   0  0  0  0  0  0  0  0  0  0  0  0
   -7.2940   -0.5170  -25.3460 C   0  0  0  0  0  0  0  0  0  0  0  0
   -8.2940   -0.8800  -24.2560 C   0  0  0  0  0  0  0  0  0  0  0  0
   -9.3120   -0.8850  -24.6870 H   0  0  0  0  0  0  0  0  0  0  0  0
   -8.1180   -1.8880  -23.8820 H   0  0  0  0  0  0  0  0  0  0  0  0
   -6.2750   -0.6830  -24.9740 H   0  0  0  0  0  0  0  0  0  0  0  0
   -7.4220   -1.1790  -26.2080 H   0  0  0  0  0  0  0  0  0  0  0  0
   -6.3770    1.8570  -24.1550 H   0  0  0  0  0  0  0  0  0  0  0  0
   -7.5780    2.8920  -24.9010 H   0  0  0  0  0  0  0  0  0  0  0  0
   -8.2530    2.0560  -22.6000 H   0  0  0  0  0  0  0  0  0  0  0  0
   -9.4250    1.6590  -23.8460 H   0  0  0  0  0  0  0  0  0  0  0  0
  1  2  2  0  0  0  0
  2  3  1  0  0  0  0
  2 22  1  0  0  0  0
  3  4  1  0  0  0  0
  3 20  1  0  0  0  0
  3 21  1  0  0  0  0
  4  5  2  0  0  0  0
  4 13  1  0  0  0  0
  5  6  1  0  0  0  0
  5 19  1  0  0  0  0
  6  7  2  0  0  0  0
  7  8  1  0  0  0  0
  7 18  1  0  0  0  0
  8  9  2  0  0  0  0
  8 13  1  0  0  0  0
  9 10  1  0  0  0  0
  9 17  1  0  0  0  0
 10 11  2  0  0  0  0
 10 16  1  0  0  0  0
 11 12  1  0  0  0  0
 11 15  1  0  0  0  0
 12 13  2  0  0  0  0
 12 14  1  0  0  0  0
 22 23  1  0  0  0  0
 22 36  1  0  0  0  0
 23 24  1  0  0  0  0
 23 43  1  0  0  0  0
 23 44  1  0  0  0  0
 24 25  1  0  0  0  0
 24 41  1  0  0  0  0
 24 42  1  0  0  0  0
 25 26  1  0  0  0  0
 25 28  1  0  0  0  0
 25 35  1  0  0  0  0
 26 27  1  0  0  0  0
 26 33  1  0  0  0  0
 26 34  1  0  0  0  0
 27 28  1  0  0  0  0
 27 31  1  0  0  0  0
 27 32  1  0  0  0  0
 28 29  1  0  0  0  0
 28 30  1  0  0  0  0
 35 36  1  0  0  0  0
 35 39  1  0  0  0  0
 35 40  1  0  0  0  0
 36 37  1  0  0  0  0
 36 38  1  0  0  0  0
M  END
>  <MODEL>
       1

$$$$
