tmp_first_model_9_10.pdb
 OpenBabel08272521403D

 57 62  0  0  1  0  0  0  0  0999 V2000
  -10.4510   -1.1660  -23.2740 C   0  0  0  0  0  0  0  0  0  0  0  0
   -9.0060   -1.4980  -22.9360 C   0  0  1  0  0  0  0  0  0  0  0  0
   -8.3890   -0.5370  -21.9090 C   0  0  0  0  0  0  0  0  0  0  0  0
   -7.3960   -1.3550  -21.2330 N   0  0  0  0  0  0  0  0  0  0  0  0
   -6.5810   -0.8480  -20.1910 C   0  0  0  0  0  0  0  0  0  0  0  0
   -6.8870   -1.0960  -18.8770 C   0  0  0  0  0  0  0  0  0  0  0  0
   -6.2120   -0.5680  -17.8260 N   0  0  0  0  0  0  0  0  0  0  0  0
   -5.1950    0.2130  -18.0880 C   0  0  0  0  0  0  0  0  0  0  0  0
   -4.7510    0.5250  -19.4040 C   0  0  0  0  0  0  0  0  0  0  0  0
   -3.6250    1.3540  -19.6390 C   0  0  0  0  0  0  0  0  0  0  0  0
   -3.2210    1.6220  -20.9170 C   0  0  0  0  0  0  0  0  0  0  0  0
   -3.9230    1.0800  -22.0160 C   0  0  0  0  0  0  0  0  0  0  0  0
   -5.0170    0.2740  -21.8160 C   0  0  0  0  0  0  0  0  0  0  0  0
   -5.4610   -0.0150  -20.4990 C   0  0  0  0  0  0  0  0  0  0  0  0
   -5.5380   -0.1560  -22.6660 H   0  0  0  0  0  0  0  0  0  0  0  0
   -3.5910    1.2970  -23.0260 H   0  0  0  0  0  0  0  0  0  0  0  0
   -2.3630    2.2610  -21.0970 H   0  0  0  0  0  0  0  0  0  0  0  0
   -3.1060    1.7720  -18.7810 H   0  0  0  0  0  0  0  0  0  0  0  0
   -4.6540    0.6380  -17.2400 H   0  0  0  0  0  0  0  0  0  0  0  0
   -7.7290   -1.7380  -18.6290 H   0  0  0  0  0  0  0  0  0  0  0  0
   -7.5570   -2.7090  -21.4430 C   0  0  0  0  0  0  0  0  0  0  0  0
   -6.8170   -3.5660  -21.0050 O   0  0  0  0  0  0  0  0  0  0  0  0
   -8.7870   -2.9330  -22.3400 C   0  0  1  0  0  0  0  0  0  0  0  0
   -9.9750   -3.4070  -21.4670 C   0  0  0  0  0  0  0  0  0  0  0  0
  -11.0990   -3.9220  -22.2440 N   0  0  0  0  0  0  0  0  0  0  0  0
  -12.4430   -3.9570  -21.6610 C   0  0  0  0  0  0  0  0  0  0  0  0
  -13.3380   -2.8180  -22.0680 C   0  0  0  0  0  0  0  0  0  0  0  0
  -13.9310   -1.7750  -21.4280 C   0  0  0  0  0  0  0  0  0  0  0  0
  -14.6450   -1.0680  -22.3820 N   0  3  0  0  0  0  0  0  0  0  0  0
  -14.5270   -1.7020  -23.5600 C   0  0  0  0  0  0  0  0  0  0  0  0
  -13.7570   -2.7780  -23.3910 N   0  0  0  0  0  0  0  0  0  0  0  0
  -13.4700   -3.4840  -24.0770 H   0  0  0  0  0  0  0  0  0  0  0  0
  -14.9900   -1.3880  -24.4760 H   0  0  0  0  0  0  0  0  0  0  0  0
  -15.1070   -0.1780  -22.2170 H   0  0  0  0  0  0  0  0  0  0  0  0
  -13.9530   -1.4620  -20.3870 H   0  0  0  0  0  0  0  0  0  0  0  0
  -12.9050   -4.8360  -22.1160 H   0  0  0  0  0  0  0  0  0  0  0  0
  -12.3950   -4.1170  -20.5770 H   0  0  0  0  0  0  0  0  0  0  0  0
  -10.9370   -4.5880  -23.4230 C   0  0  0  0  0  0  0  0  0  0  0  0
  -11.9040   -4.9650  -24.0900 O   0  0  0  0  0  0  0  0  0  0  0  0
   -9.5340   -4.7980  -23.8780 C   0  0  0  0  0  0  0  0  0  0  0  0
   -9.2700   -5.7670  -24.8460 C   0  0  0  0  0  0  0  0  0  0  0  0
   -8.0100   -5.8910  -25.4000 C   0  0  0  0  0  0  0  0  0  0  0  0
   -7.0180   -5.0280  -24.9470 C   0  0  0  0  0  0  0  0  0  0  0  0
   -5.8050   -5.0910  -25.5170 F   0  0  0  0  0  0  0  0  0  0  0  0
   -7.2350   -4.0980  -23.9500 C   0  0  0  0  0  0  0  0  0  0  0  0
   -8.5090   -3.9830  -23.3890 C   0  0  0  0  0  0  0  0  0  0  0  0
   -6.4170   -3.4700  -23.6150 H   0  0  0  0  0  0  0  0  0  0  0  0
   -7.7860   -6.6080  -26.1860 H   0  0  0  0  0  0  0  0  0  0  0  0
  -10.0750   -6.4230  -25.1590 H   0  0  0  0  0  0  0  0  0  0  0  0
   -9.6290   -4.1860  -20.7840 H   0  0  0  0  0  0  0  0  0  0  0  0
  -10.3250   -2.5540  -20.8780 H   0  0  0  0  0  0  0  0  0  0  0  0
   -7.9250    0.3360  -22.3850 H   0  0  0  0  0  0  0  0  0  0  0  0
   -9.1440   -0.1650  -21.1970 H   0  0  0  0  0  0  0  0  0  0  0  0
   -8.3970   -1.4550  -23.8520 H   0  0  0  0  0  0  0  0  0  0  0  0
  -11.0600   -1.1520  -22.3630 H   0  0  0  0  0  0  0  0  0  0  0  0
  -10.8590   -1.9320  -23.9390 H   0  0  0  0  0  0  0  0  0  0  0  0
  -10.5320   -0.1910  -23.7590 H   0  0  0  0  0  0  0  0  0  0  0  0
  1  2  1  0  0  0  0
  1 55  1  0  0  0  0
  1 56  1  0  0  0  0
  1 57  1  0  0  0  0
  2  3  1  0  0  0  0
  2 23  1  0  0  0  0
  2 54  1  6  0  0  0
  3  4  1  0  0  0  0
  3 52  1  0  0  0  0
  3 53  1  0  0  0  0
  4  5  1  0  0  0  0
  4 21  1  0  0  0  0
  5  6  2  0  0  0  0
  5 14  1  0  0  0  0
  6  7  1  0  0  0  0
  6 20  1  0  0  0  0
  7  8  2  0  0  0  0
  8  9  1  0  0  0  0
  8 19  1  0  0  0  0
  9 10  2  0  0  0  0
  9 14  1  0  0  0  0
 10 11  1  0  0  0  0
 10 18  1  0  0  0  0
 11 12  2  0  0  0  0
 11 17  1  0  0  0  0
 12 13  1  0  0  0  0
 12 16  1  0  0  0  0
 13 14  2  0  0  0  0
 13 15  1  0  0  0  0
 21 22  2  0  0  0  0
 23 21  1  1  0  0  0
 23 24  1  0  0  0  0
 23 46  1  0  0  0  0
 24 25  1  0  0  0  0
 24 50  1  0  0  0  0
 24 51  1  0  0  0  0
 25 26  1  0  0  0  0
 25 38  1  0  0  0  0
 26 27  1  0  0  0  0
 26 36  1  0  0  0  0
 26 37  1  0  0  0  0
 27 28  2  0  0  0  0
 27 31  1  0  0  0  0
 28 29  1  0  0  0  0
 28 35  1  0  0  0  0
 29 30  2  0  0  0  0
 29 34  1  0  0  0  0
 30 31  1  0  0  0  0
 30 33  1  0  0  0  0
 31 32  1  0  0  0  0
 38 39  2  0  0  0  0
 38 40  1  0  0  0  0
 40 41  2  0  0  0  0
 40 46  1  0  0  0  0
 41 42  1  0  0  0  0
 41 49  1  0  0  0  0
 42 43  2  0  0  0  0
 42 48  1  0  0  0  0
 43 44  1  0  0  0  0
 43 45  1  0  0  0  0
 45 46  2  0  0  0  0
 45 47  1  0  0  0  0
M  CHG  1  29   1
M  END
>  <MODEL>
       1

$$$$
