tmp_first_model_5_11.pdb
 OpenBabel08272519223D

 48 52  0  0  0  0  0  0  0  0999 V2000
  -10.1180   -0.8210  -23.6020 C   0  0  0  0  0  0  0  0  0  0  0  0
   -9.1160   -1.4170  -22.7370 N   0  0  0  0  0  0  0  0  0  0  0  0
   -8.4130   -0.6460  -21.8480 C   0  0  0  0  0  0  0  0  0  0  0  0
   -8.5460    0.5430  -21.6480 O   0  0  0  0  0  0  0  0  0  0  0  0
   -7.5170   -1.5030  -21.1880 N   0  0  0  0  0  0  0  0  0  0  0  0
   -6.5380   -1.1130  -20.2200 C   0  0  0  0  0  0  0  0  0  0  0  0
   -6.6530   -1.5680  -18.9270 C   0  0  0  0  0  0  0  0  0  0  0  0
   -5.6840   -1.4420  -17.9870 N   0  0  0  0  0  0  0  0  0  0  0  0
   -4.5820   -0.8160  -18.3310 C   0  0  0  0  0  0  0  0  0  0  0  0
   -4.3970   -0.1740  -19.5840 C   0  0  0  0  0  0  0  0  0  0  0  0
   -3.2680    0.6620  -19.8070 C   0  0  0  0  0  0  0  0  0  0  0  0
   -3.2100    1.4410  -20.9290 C   0  0  0  0  0  0  0  0  0  0  0  0
   -4.2150    1.3290  -21.9190 C   0  0  0  0  0  0  0  0  0  0  0  0
   -5.3050    0.5090  -21.7320 C   0  0  0  0  0  0  0  0  0  0  0  0
   -5.4220   -0.2690  -20.5480 C   0  0  0  0  0  0  0  0  0  0  0  0
   -6.1140    0.4790  -22.4510 H   0  0  0  0  0  0  0  0  0  0  0  0
   -4.1040    1.8710  -22.8510 H   0  0  0  0  0  0  0  0  0  0  0  0
   -2.3680    2.1120  -21.0840 H   0  0  0  0  0  0  0  0  0  0  0  0
   -2.5390    0.7330  -19.0060 H   0  0  0  0  0  0  0  0  0  0  0  0
   -3.7840   -0.7340  -17.5890 H   0  0  0  0  0  0  0  0  0  0  0  0
   -7.5780   -2.0400  -18.5920 H   0  0  0  0  0  0  0  0  0  0  0  0
   -7.7510   -2.8320  -21.5340 C   0  0  0  0  0  0  0  0  0  0  0  0
   -7.1280   -3.7850  -21.1290 O   0  0  0  0  0  0  0  0  0  0  0  0
   -8.9030   -2.8310  -22.5250 C   0  0  0  0  0  0  0  0  0  0  0  0
   -8.7190   -3.7580  -23.7450 C   0  0  0  0  0  0  0  0  0  0  0  0
   -9.9540   -4.4950  -23.3960 N   0  0  0  0  0  0  0  0  0  0  0  0
  -11.2080   -4.3940  -24.5270 S   0  0  0  0  0  0  0  0  0  0  0  0
  -11.2290   -3.0640  -25.1240 O   0  0  0  0  0  0  0  0  0  0  0  0
  -12.4020   -4.8940  -23.8840 O   0  0  0  0  0  0  0  0  0  0  0  0
  -10.6100   -5.5060  -25.7590 C   0  0  0  0  0  0  0  0  0  0  0  0
  -10.2550   -5.0130  -27.0110 C   0  0  0  0  0  0  0  0  0  0  0  0
   -9.6920   -5.8740  -27.9430 C   0  0  0  0  0  0  0  0  0  0  0  0
   -9.4600   -7.2070  -27.6060 C   0  0  0  0  0  0  0  0  0  0  0  0
   -9.8270   -7.6820  -26.3460 C   0  0  0  0  0  0  0  0  0  0  0  0
  -10.4070   -6.8330  -25.4110 C   0  0  0  0  0  0  0  0  0  0  0  0
  -10.6830   -7.1840  -24.4190 H   0  0  0  0  0  0  0  0  0  0  0  0
   -9.6520   -8.7220  -26.0890 H   0  0  0  0  0  0  0  0  0  0  0  0
   -8.9550   -7.8680  -28.3070 H   0  0  0  0  0  0  0  0  0  0  0  0
   -9.4220   -5.4850  -28.9220 H   0  0  0  0  0  0  0  0  0  0  0  0
  -10.3890   -3.9570  -27.2160 H   0  0  0  0  0  0  0  0  0  0  0  0
  -10.1320   -3.7010  -22.1480 C   0  0  0  0  0  0  0  0  0  0  0  0
   -9.9570   -4.3220  -21.2700 H   0  0  0  0  0  0  0  0  0  0  0  0
  -11.0910   -3.1800  -22.0680 H   0  0  0  0  0  0  0  0  0  0  0  0
   -7.8530   -4.4140  -23.6530 H   0  0  0  0  0  0  0  0  0  0  0  0
   -8.7200   -3.2630  -24.7180 H   0  0  0  0  0  0  0  0  0  0  0  0
   -9.9630    0.2580  -23.5570 H   0  0  0  0  0  0  0  0  0  0  0  0
  -11.1330   -1.0450  -23.2550 H   0  0  0  0  0  0  0  0  0  0  0  0
  -10.0150   -1.1780  -24.6290 H   0  0  0  0  0  0  0  0  0  0  0  0
  1  2  1  0  0  0  0
  1 46  1  0  0  0  0
  1 47  1  0  0  0  0
  1 48  1  0  0  0  0
  2  3  1  0  0  0  0
  2 24  1  0  0  0  0
  3  4  2  0  0  0  0
  3  5  1  0  0  0  0
  5  6  1  0  0  0  0
  5 22  1  0  0  0  0
  6  7  2  0  0  0  0
  6 15  1  0  0  0  0
  7  8  1  0  0  0  0
  7 21  1  0  0  0  0
  8  9  2  0  0  0  0
  9 10  1  0  0  0  0
  9 20  1  0  0  0  0
 10 11  2  0  0  0  0
 10 15  1  0  0  0  0
 11 12  1  0  0  0  0
 11 19  1  0  0  0  0
 12 13  2  0  0  0  0
 12 18  1  0  0  0  0
 13 14  1  0  0  0  0
 13 17  1  0  0  0  0
 14 15  2  0  0  0  0
 14 16  1  0  0  0  0
 22 23  2  0  0  0  0
 22 24  1  0  0  0  0
 24 25  1  0  0  0  0
 24 41  1  0  0  0  0
 25 26  1  0  0  0  0
 25 44  1  0  0  0  0
 25 45  1  0  0  0  0
 26 27  1  0  0  0  0
 26 41  1  0  0  0  0
 27 28  2  0  0  0  0
 27 29  2  0  0  0  0
 27 30  1  0  0  0  0
 30 31  2  0  0  0  0
 30 35  1  0  0  0  0
 31 32  1  0  0  0  0
 31 40  1  0  0  0  0
 32 33  2  0  0  0  0
 32 39  1  0  0  0  0
 33 34  1  0  0  0  0
 33 38  1  0  0  0  0
 34 35  2  0  0  0  0
 34 37  1  0  0  0  0
 35 36  1  0  0  0  0
 41 42  1  0  0  0  0
 41 43  1  0  0  0  0
M  END
>  <MODEL>
       1

$$$$
