tmp_first_model_1_79.pdb
 OpenBabel08272517043D

 45 49  0  0  0  0  0  0  0  0999 V2000
  -10.0580   -0.9930  -23.7360 C   0  0  0  0  0  0  0  0  0  0  0  0
   -9.1340   -1.4360  -22.7130 N   0  0  0  0  0  0  0  0  0  0  0  0
   -8.3130   -0.5590  -22.0610 C   0  0  0  0  0  0  0  0  0  0  0  0
   -8.2760    0.6450  -22.1950 O   0  0  0  0  0  0  0  0  0  0  0  0
   -7.5060   -1.3350  -21.2090 N   0  0  0  0  0  0  0  0  0  0  0  0
   -6.6500   -0.8020  -20.2080 C   0  0  0  0  0  0  0  0  0  0  0  0
   -6.9300   -1.0770  -18.8950 C   0  0  0  0  0  0  0  0  0  0  0  0
   -6.2330   -0.5890  -17.8410 N   0  0  0  0  0  0  0  0  0  0  0  0
   -5.2130    0.1890  -18.1080 C   0  0  0  0  0  0  0  0  0  0  0  0
   -4.7850    0.5120  -19.4260 C   0  0  0  0  0  0  0  0  0  0  0  0
   -3.6450    1.3270  -19.6430 C   0  0  0  0  0  0  0  0  0  0  0  0
   -3.2170    1.5900  -20.9130 C   0  0  0  0  0  0  0  0  0  0  0  0
   -3.9040    1.0500  -22.0210 C   0  0  0  0  0  0  0  0  0  0  0  0
   -5.0200    0.2680  -21.8410 C   0  0  0  0  0  0  0  0  0  0  0  0
   -5.5030   -0.0060  -20.5280 C   0  0  0  0  0  0  0  0  0  0  0  0
   -5.5320   -0.1380  -22.7080 H   0  0  0  0  0  0  0  0  0  0  0  0
   -3.5410    1.2600  -23.0230 H   0  0  0  0  0  0  0  0  0  0  0  0
   -2.3520    2.2240  -21.0780 H   0  0  0  0  0  0  0  0  0  0  0  0
   -3.1340    1.7280  -18.7740 H   0  0  0  0  0  0  0  0  0  0  0  0
   -4.6490    0.5950  -17.2670 H   0  0  0  0  0  0  0  0  0  0  0  0
   -7.7730   -1.7190  -18.6470 H   0  0  0  0  0  0  0  0  0  0  0  0
   -7.7340   -2.6990  -21.3910 C   0  0  0  0  0  0  0  0  0  0  0  0
   -7.0470   -3.5980  -20.9660 O   0  0  0  0  0  0  0  0  0  0  0  0
   -8.9300   -2.8090  -22.3170 C   0  0  0  0  0  0  0  0  0  0  0  0
   -8.7680   -3.8920  -23.4000 C   0  0  0  0  0  0  0  0  0  0  0  0
  -10.0200   -4.5490  -22.9840 N   0  0  0  0  0  0  0  0  0  0  0  0
  -11.2270   -4.6700  -24.1540 S   0  0  0  0  0  0  0  0  0  0  0  0
  -10.9960   -3.7000  -25.2160 O   0  0  0  0  0  0  0  0  0  0  0  0
  -12.4900   -4.6900  -23.4480 O   0  0  0  0  0  0  0  0  0  0  0  0
  -10.9150   -6.2620  -24.8730 C   0  0  0  0  0  0  0  0  0  0  0  0
   -9.5790   -6.5930  -25.4940 C   0  0  0  0  0  0  0  0  0  0  0  0
  -10.0410   -7.3170  -24.2810 C   0  0  0  0  0  0  0  0  0  0  0  0
   -9.5420   -7.1060  -23.3430 H   0  0  0  0  0  0  0  0  0  0  0  0
  -10.3980   -8.3290  -24.3930 H   0  0  0  0  0  0  0  0  0  0  0  0
   -9.6390   -7.0760  -26.4650 H   0  0  0  0  0  0  0  0  0  0  0  0
   -8.7580   -5.8870  -25.3700 H   0  0  0  0  0  0  0  0  0  0  0  0
  -11.7920   -6.6010  -25.4160 H   0  0  0  0  0  0  0  0  0  0  0  0
  -10.1900   -3.5930  -21.8420 C   0  0  0  0  0  0  0  0  0  0  0  0
  -11.1270   -3.0240  -21.8310 H   0  0  0  0  0  0  0  0  0  0  0  0
  -10.0550   -4.1080  -20.8900 H   0  0  0  0  0  0  0  0  0  0  0  0
   -8.7630   -3.5190  -24.4250 H   0  0  0  0  0  0  0  0  0  0  0  0
   -7.9200   -4.5490  -23.1990 H   0  0  0  0  0  0  0  0  0  0  0  0
  -11.0710   -1.3530  -23.5310 H   0  0  0  0  0  0  0  0  0  0  0  0
  -10.0470    0.0980  -23.7170 H   0  0  0  0  0  0  0  0  0  0  0  0
   -9.7430   -1.3430  -24.7250 H   0  0  0  0  0  0  0  0  0  0  0  0
  1  2  1  0  0  0  0
  1 43  1  0  0  0  0
  1 44  1  0  0  0  0
  1 45  1  0  0  0  0
  2  3  1  0  0  0  0
  2 24  1  0  0  0  0
  3  4  2  0  0  0  0
  3  5  1  0  0  0  0
  5  6  1  0  0  0  0
  5 22  1  0  0  0  0
  6  7  2  0  0  0  0
  6 15  1  0  0  0  0
  7  8  1  0  0  0  0
  7 21  1  0  0  0  0
  8  9  2  0  0  0  0
  9 10  1  0  0  0  0
  9 20  1  0  0  0  0
 10 11  2  0  0  0  0
 10 15  1  0  0  0  0
 11 12  1  0  0  0  0
 11 19  1  0  0  0  0
 12 13  2  0  0  0  0
 12 18  1  0  0  0  0
 13 14  1  0  0  0  0
 13 17  1  0  0  0  0
 14 15  2  0  0  0  0
 14 16  1  0  0  0  0
 22 23  2  0  0  0  0
 22 24  1  0  0  0  0
 24 25  1  0  0  0  0
 24 38  1  0  0  0  0
 25 26  1  0  0  0  0
 25 41  1  0  0  0  0
 25 42  1  0  0  0  0
 26 27  1  0  0  0  0
 26 38  1  0  0  0  0
 27 28  2  0  0  0  0
 27 29  2  0  0  0  0
 27 30  1  0  0  0  0
 30 31  1  0  0  0  0
 30 32  1  0  0  0  0
 30 37  1  0  0  0  0
 31 32  1  0  0  0  0
 31 35  1  0  0  0  0
 31 36  1  0  0  0  0
 32 33  1  0  0  0  0
 32 34  1  0  0  0  0
 38 39  1  0  0  0  0
 38 40  1  0  0  0  0
M  END
>  <MODEL>
       1

$$$$
