tmp_first_model_9_19.pdb
 OpenBabel08272521403D

 42 45  0  0  1  0  0  0  0  0999 V2000
   -9.1470   -0.0640  -20.7260 O   0  0  0  0  0  0  0  0  0  0  0  0
   -8.6550   -0.9070  -21.4510 C   0  0  0  0  0  0  0  0  0  0  0  0
   -9.3670   -1.5020  -22.6770 C   0  0  1  0  0  0  0  0  0  0  0  0
  -10.4390   -0.5580  -23.1880 C   0  0  0  0  0  0  0  0  0  0  0  0
  -10.1010    0.7540  -23.5120 C   0  0  0  0  0  0  0  0  0  0  0  0
  -11.0720    1.6270  -23.9690 C   0  0  0  0  0  0  0  0  0  0  0  0
  -12.4000    1.2400  -24.0830 C   0  0  0  0  0  0  0  0  0  0  0  0
  -13.5490    2.5030  -24.3750 Cl  0  0  0  0  0  0  0  0  0  0  0  0
  -12.7280   -0.0990  -23.8610 C   0  0  0  0  0  0  0  0  0  0  0  0
  -14.3310   -0.6920  -24.1130 Cl  0  0  0  0  0  0  0  0  0  0  0  0
  -11.7490   -0.9850  -23.4040 C   0  0  0  0  0  0  0  0  0  0  0  0
  -12.0450   -2.0120  -23.1880 H   0  0  0  0  0  0  0  0  0  0  0  0
  -10.8340    2.6530  -24.2070 H   0  0  0  0  0  0  0  0  0  0  0  0
   -9.0890    1.1210  -23.3400 H   0  0  0  0  0  0  0  0  0  0  0  0
   -8.3350   -1.7870  -23.7760 C   0  0  0  0  0  0  0  0  0  0  0  0
   -7.2410   -2.7560  -23.3380 C   0  0  2  0  0  0  0  0  0  0  0  0
   -7.5390   -4.1070  -23.6580 O   0  0  0  0  0  0  0  0  0  0  0  0
   -8.3960   -4.3210  -23.2670 H   0  0  0  0  0  0  0  0  0  0  0  0
   -6.9340   -2.6360  -21.8360 C   0  0  0  0  0  0  0  0  0  0  0  0
   -7.3750   -1.3760  -21.2550 N   0  0  0  0  0  0  0  0  0  0  0  0
   -6.6080   -0.8070  -20.1940 C   0  0  0  0  0  0  0  0  0  0  0  0
   -6.9070   -1.0520  -18.8790 C   0  0  0  0  0  0  0  0  0  0  0  0
   -6.1940   -0.5620  -17.8340 N   0  0  0  0  0  0  0  0  0  0  0  0
   -5.1640    0.2060  -18.0850 C   0  0  0  0  0  0  0  0  0  0  0  0
   -4.7250    0.5280  -19.3990 C   0  0  0  0  0  0  0  0  0  0  0  0
   -3.5970    1.3570  -19.6390 C   0  0  0  0  0  0  0  0  0  0  0  0
   -3.2120    1.6440  -20.9190 C   0  0  0  0  0  0  0  0  0  0  0  0
   -3.9350    1.1100  -22.0100 C   0  0  0  0  0  0  0  0  0  0  0  0
   -5.0250    0.3050  -21.8000 C   0  0  0  0  0  0  0  0  0  0  0  0
   -5.4560   -0.0020  -20.4860 C   0  0  0  0  0  0  0  0  0  0  0  0
   -5.5840   -0.0970  -22.6380 H   0  0  0  0  0  0  0  0  0  0  0  0
   -3.6290    1.3430  -23.0250 H   0  0  0  0  0  0  0  0  0  0  0  0
   -2.3590    2.2900  -21.1070 H   0  0  0  0  0  0  0  0  0  0  0  0
   -3.0690    1.7720  -18.7840 H   0  0  0  0  0  0  0  0  0  0  0  0
   -4.6220    0.6130  -17.2290 H   0  0  0  0  0  0  0  0  0  0  0  0
   -7.7550   -1.6700  -18.5940 H   0  0  0  0  0  0  0  0  0  0  0  0
   -7.3920   -3.5100  -21.3380 H   0  0  0  0  0  0  0  0  0  0  0  0
   -5.8590   -2.6950  -21.6670 H   0  0  0  0  0  0  0  0  0  0  0  0
   -6.3400   -2.5450  -23.9200 H   0  0  0  0  0  0  0  0  0  0  0  0
   -7.8960   -0.8290  -24.0870 H   0  0  0  0  0  0  0  0  0  0  0  0
   -8.8250   -2.2060  -24.6600 H   0  0  0  0  0  0  0  0  0  0  0  0
   -9.8470   -2.4450  -22.3770 H   0  0  0  0  0  0  0  0  0  0  0  0
  1  2  2  0  0  0  0
  2  3  1  0  0  0  0
  2 20  1  0  0  0  0
  3  4  1  0  0  0  0
  3 15  1  0  0  0  0
  3 42  1  1  0  0  0
  4  5  2  0  0  0  0
  4 11  1  0  0  0  0
  5  6  1  0  0  0  0
  5 14  1  0  0  0  0
  6  7  2  0  0  0  0
  6 13  1  0  0  0  0
  7  8  1  0  0  0  0
  7  9  1  0  0  0  0
  9 10  1  0  0  0  0
  9 11  2  0  0  0  0
 11 12  1  0  0  0  0
 15 16  1  0  0  0  0
 15 40  1  0  0  0  0
 15 41  1  0  0  0  0
 16 17  1  0  0  0  0
 16 19  1  0  0  0  0
 16 39  1  6  0  0  0
 17 18  1  0  0  0  0
 19 20  1  0  0  0  0
 19 37  1  0  0  0  0
 19 38  1  0  0  0  0
 20 21  1  0  0  0  0
 21 22  2  0  0  0  0
 21 30  1  0  0  0  0
 22 23  1  0  0  0  0
 22 36  1  0  0  0  0
 23 24  2  0  0  0  0
 24 25  1  0  0  0  0
 24 35  1  0  0  0  0
 25 26  2  0  0  0  0
 25 30  1  0  0  0  0
 26 27  1  0  0  0  0
 26 34  1  0  0  0  0
 27 28  2  0  0  0  0
 27 33  1  0  0  0  0
 28 29  1  0  0  0  0
 28 32  1  0  0  0  0
 29 30  2  0  0  0  0
 29 31  1  0  0  0  0
M  END
>  <MODEL>
       1

$$$$
