tmp_first_model_16_78.pdb
 OpenBabel08282501503D

 56 60  0  0  1  0  0  0  0  0999 V2000
  -14.5940   -1.3580  -24.0230 C   0  0  0  0  0  0  0  0  0  0  0  0
  -13.7380   -2.4460  -23.6000 N   0  0  0  0  0  0  0  0  0  0  0  0
  -13.4160   -2.5660  -22.2870 C   0  0  0  0  0  0  0  0  0  0  0  0
  -13.8040   -1.7870  -21.4330 O   0  0  0  0  0  0  0  0  0  0  0  0
  -12.5680   -3.7840  -21.9160 C   0  0  0  0  0  0  0  0  0  0  0  0
  -11.2190   -3.8060  -22.4680 N   0  0  0  0  0  0  0  0  0  0  0  0
  -10.1100   -3.2970  -21.6650 C   0  0  0  0  0  0  0  0  0  0  0  0
   -8.8800   -2.8390  -22.4900 C   0  0  2  0  0  0  0  0  0  0  0  0
   -7.7230   -2.7110  -21.4900 C   0  0  0  0  0  0  0  0  0  0  0  0
   -7.1520   -3.6240  -20.9280 O   0  0  0  0  0  0  0  0  0  0  0  0
   -7.4280   -1.3800  -21.2970 N   0  0  0  0  0  0  0  0  0  0  0  0
   -6.5740   -0.9890  -20.2410 C   0  0  0  0  0  0  0  0  0  0  0  0
   -6.8440   -1.3720  -18.9500 C   0  0  0  0  0  0  0  0  0  0  0  0
   -6.1010   -0.9950  -17.8810 N   0  0  0  0  0  0  0  0  0  0  0  0
   -5.0640   -0.2220  -18.0950 C   0  0  0  0  0  0  0  0  0  0  0  0
   -4.6780    0.2520  -19.3850 C   0  0  0  0  0  0  0  0  0  0  0  0
   -3.5800    1.1330  -19.5770 C   0  0  0  0  0  0  0  0  0  0  0  0
   -3.2380    1.5500  -20.8360 C   0  0  0  0  0  0  0  0  0  0  0  0
   -3.9550    1.0830  -21.9620 C   0  0  0  0  0  0  0  0  0  0  0  0
   -5.0250    0.2370  -21.8000 C   0  0  0  0  0  0  0  0  0  0  0  0
   -5.4340   -0.1660  -20.5000 C   0  0  0  0  0  0  0  0  0  0  0  0
   -5.5660   -0.1370  -22.6630 H   0  0  0  0  0  0  0  0  0  0  0  0
   -3.6550    1.4020  -22.9560 H   0  0  0  0  0  0  0  0  0  0  0  0
   -2.4100    2.2370  -20.9840 H   0  0  0  0  0  0  0  0  0  0  0  0
   -3.0340    1.4780  -18.7030 H   0  0  0  0  0  0  0  0  0  0  0  0
   -4.4600    0.0550  -17.2290 H   0  0  0  0  0  0  0  0  0  0  0  0
   -7.6950   -2.0160  -18.7370 H   0  0  0  0  0  0  0  0  0  0  0  0
   -8.3960   -0.4930  -21.9280 C   0  0  0  0  0  0  0  0  0  0  0  0
   -9.0080   -1.3740  -23.0330 C   0  0  2  0  0  0  0  0  0  0  0  0
  -10.4050   -0.9320  -23.4650 C   0  0  0  0  0  0  0  0  0  0  0  0
  -11.1110   -0.9230  -22.6260 H   0  0  0  0  0  0  0  0  0  0  0  0
  -10.3820    0.0810  -23.8740 H   0  0  0  0  0  0  0  0  0  0  0  0
  -10.8010   -1.6040  -24.2320 H   0  0  0  0  0  0  0  0  0  0  0  0
   -8.3360   -1.3250  -23.9000 H   0  0  0  0  0  0  0  0  0  0  0  0
   -7.9060    0.4030  -22.3240 H   0  0  0  0  0  0  0  0  0  0  0  0
   -9.1560   -0.1690  -21.1970 H   0  0  0  0  0  0  0  0  0  0  0  0
   -8.5800   -3.8850  -23.5440 C   0  0  0  0  0  0  0  0  0  0  0  0
   -7.2770   -4.0840  -24.0260 C   0  0  0  0  0  0  0  0  0  0  0  0
   -7.0350   -5.0770  -24.9610 C   0  0  0  0  0  0  0  0  0  0  0  0
   -5.4260   -5.2970  -25.5870 Cl  0  0  0  0  0  0  0  0  0  0  0  0
   -8.0540   -5.9160  -25.4160 C   0  0  0  0  0  0  0  0  0  0  0  0
   -9.3460   -5.6860  -24.9760 C   0  0  0  0  0  0  0  0  0  0  0  0
   -9.6140   -4.6640  -24.0710 C   0  0  0  0  0  0  0  0  0  0  0  0
  -11.0330   -4.4130  -23.6750 C   0  0  0  0  0  0  0  0  0  0  0  0
  -11.9850   -4.7170  -24.3990 O   0  0  0  0  0  0  0  0  0  0  0  0
  -10.1840   -6.2890  -25.3110 H   0  0  0  0  0  0  0  0  0  0  0  0
   -7.8260   -6.7420  -26.0810 H   0  0  0  0  0  0  0  0  0  0  0  0
   -6.4480   -3.5080  -23.6250 H   0  0  0  0  0  0  0  0  0  0  0  0
   -9.7470   -4.0540  -20.9620 H   0  0  0  0  0  0  0  0  0  0  0  0
  -10.4780   -2.4500  -21.0770 H   0  0  0  0  0  0  0  0  0  0  0  0
  -13.0860   -4.6640  -22.3080 H   0  0  0  0  0  0  0  0  0  0  0  0
  -12.5270   -3.8420  -20.8230 H   0  0  0  0  0  0  0  0  0  0  0  0
  -13.3480   -3.0930  -24.2700 H   0  0  0  0  0  0  0  0  0  0  0  0
  -14.0360   -0.4140  -24.0940 H   0  0  0  0  0  0  0  0  0  0  0  0
  -15.0270   -1.6100  -24.9960 H   0  0  0  0  0  0  0  0  0  0  0  0
  -15.3750   -1.2330  -23.2670 H   0  0  0  0  0  0  0  0  0  0  0  0
  1  2  1  0  0  0  0
  1 54  1  0  0  0  0
  1 55  1  0  0  0  0
  1 56  1  0  0  0  0
  2  3  1  0  0  0  0
  2 53  1  0  0  0  0
  3  4  2  0  0  0  0
  3  5  1  0  0  0  0
  5  6  1  0  0  0  0
  5 51  1  0  0  0  0
  5 52  1  0  0  0  0
  6  7  1  0  0  0  0
  6 44  1  0  0  0  0
  7  8  1  0  0  0  0
  7 49  1  0  0  0  0
  7 50  1  0  0  0  0
  8  9  1  1  0  0  0
  8 29  1  0  0  0  0
  8 37  1  0  0  0  0
  9 10  2  0  0  0  0
  9 11  1  0  0  0  0
 11 12  1  0  0  0  0
 11 28  1  0  0  0  0
 12 13  2  0  0  0  0
 12 21  1  0  0  0  0
 13 14  1  0  0  0  0
 13 27  1  0  0  0  0
 14 15  2  0  0  0  0
 15 16  1  0  0  0  0
 15 26  1  0  0  0  0
 16 17  2  0  0  0  0
 16 21  1  0  0  0  0
 17 18  1  0  0  0  0
 17 25  1  0  0  0  0
 18 19  2  0  0  0  0
 18 24  1  0  0  0  0
 19 20  1  0  0  0  0
 19 23  1  0  0  0  0
 20 21  2  0  0  0  0
 20 22  1  0  0  0  0
 28 29  1  0  0  0  0
 28 35  1  0  0  0  0
 28 36  1  0  0  0  0
 29 30  1  0  0  0  0
 29 34  1  6  0  0  0
 30 31  1  0  0  0  0
 30 32  1  0  0  0  0
 30 33  1  0  0  0  0
 37 38  2  0  0  0  0
 37 43  1  0  0  0  0
 38 39  1  0  0  0  0
 38 48  1  0  0  0  0
 39 40  1  0  0  0  0
 39 41  2  0  0  0  0
 41 42  1  0  0  0  0
 41 47  1  0  0  0  0
 42 43  2  0  0  0  0
 42 46  1  0  0  0  0
 43 44  1  0  0  0  0
 44 45  2  0  0  0  0
M  END
>  <MODEL>
       1

$$$$
