tmp_first_model_8_79.pdb
 OpenBabel08272521063D

 45 49  0  0  0  0  0  0  0  0999 V2000
  -10.5550   -2.7530  -22.4760 C   0  0  0  0  0  0  0  0  0  0  0  0
   -9.1620   -2.4790  -22.1630 N   0  0  0  0  0  0  0  0  0  0  0  0
   -8.7600   -1.4110  -21.3990 C   0  0  0  0  0  0  0  0  0  0  0  0
   -9.4470   -0.4990  -21.0020 O   0  0  0  0  0  0  0  0  0  0  0  0
   -7.3620   -1.5480  -21.2140 N   0  0  0  0  0  0  0  0  0  0  0  0
   -6.5980   -0.8720  -20.2010 C   0  0  0  0  0  0  0  0  0  0  0  0
   -6.9100   -1.0660  -18.8770 C   0  0  0  0  0  0  0  0  0  0  0  0
   -6.2130   -0.5530  -17.8310 N   0  0  0  0  0  0  0  0  0  0  0  0
   -5.1790    0.2040  -18.0960 C   0  0  0  0  0  0  0  0  0  0  0  0
   -4.7510    0.5230  -19.4120 C   0  0  0  0  0  0  0  0  0  0  0  0
   -3.6210    1.3630  -19.6340 C   0  0  0  0  0  0  0  0  0  0  0  0
   -3.2400    1.6770  -20.9070 C   0  0  0  0  0  0  0  0  0  0  0  0
   -3.9820    1.1760  -22.0000 C   0  0  0  0  0  0  0  0  0  0  0  0
   -5.0640    0.3530  -21.8100 C   0  0  0  0  0  0  0  0  0  0  0  0
   -5.4820   -0.0130  -20.5010 C   0  0  0  0  0  0  0  0  0  0  0  0
   -5.5980   -0.0440  -22.6650 H   0  0  0  0  0  0  0  0  0  0  0  0
   -3.6610    1.4130  -23.0090 H   0  0  0  0  0  0  0  0  0  0  0  0
   -2.3720    2.3070  -21.0920 H   0  0  0  0  0  0  0  0  0  0  0  0
   -3.0810    1.7550  -18.7760 H   0  0  0  0  0  0  0  0  0  0  0  0
   -4.6270    0.6090  -17.2450 H   0  0  0  0  0  0  0  0  0  0  0  0
   -7.7570   -1.6850  -18.6000 H   0  0  0  0  0  0  0  0  0  0  0  0
   -6.8570   -2.5350  -22.0600 C   0  0  0  0  0  0  0  0  0  0  0  0
   -5.6920   -2.8160  -22.2200 O   0  0  0  0  0  0  0  0  0  0  0  0
   -8.0530   -3.1760  -22.7550 C   0  0  0  0  0  0  0  0  0  0  0  0
   -8.0400   -4.7170  -22.7410 C   0  0  0  0  0  0  0  0  0  0  0  0
   -7.9240   -4.7430  -24.2410 N   0  0  0  0  0  0  0  0  0  0  0  0
   -9.1820   -5.5870  -25.0010 S   0  0  0  0  0  0  0  0  0  0  0  0
  -10.4360   -4.9270  -24.6460 O   0  0  0  0  0  0  0  0  0  0  0  0
   -8.9650   -6.9830  -24.6970 O   0  0  0  0  0  0  0  0  0  0  0  0
   -8.9810   -5.3250  -26.7490 C   0  0  0  0  0  0  0  0  0  0  0  0
  -10.2100   -5.6130  -27.5800 C   0  0  0  0  0  0  0  0  0  0  0  0
   -9.7510   -4.1980  -27.3910 C   0  0  0  0  0  0  0  0  0  0  0  0
   -9.2770   -3.6980  -28.2310 H   0  0  0  0  0  0  0  0  0  0  0  0
  -10.3330   -3.5500  -26.7360 H   0  0  0  0  0  0  0  0  0  0  0  0
  -10.0640   -6.0860  -28.5500 H   0  0  0  0  0  0  0  0  0  0  0  0
  -11.0940   -5.9550  -27.0440 H   0  0  0  0  0  0  0  0  0  0  0  0
   -7.9960   -5.6080  -27.1120 H   0  0  0  0  0  0  0  0  0  0  0  0
   -7.9800   -3.2600  -24.3030 C   0  0  0  0  0  0  0  0  0  0  0  0
   -8.8420   -2.8480  -24.8390 H   0  0  0  0  0  0  0  0  0  0  0  0
   -7.0570   -2.8650  -24.7240 H   0  0  0  0  0  0  0  0  0  0  0  0
   -7.1540   -5.1380  -22.2680 H   0  0  0  0  0  0  0  0  0  0  0  0
   -8.9460   -5.1740  -22.3330 H   0  0  0  0  0  0  0  0  0  0  0  0
  -10.7560   -2.5950  -23.5430 H   0  0  0  0  0  0  0  0  0  0  0  0
  -10.8220   -3.7880  -22.2220 H   0  0  0  0  0  0  0  0  0  0  0  0
  -11.1470   -2.0600  -21.8790 H   0  0  0  0  0  0  0  0  0  0  0  0
  1  2  1  0  0  0  0
  1 43  1  0  0  0  0
  1 44  1  0  0  0  0
  1 45  1  0  0  0  0
  2  3  1  0  0  0  0
  2 24  1  0  0  0  0
  3  4  2  0  0  0  0
  3  5  1  0  0  0  0
  5  6  1  0  0  0  0
  5 22  1  0  0  0  0
  6  7  2  0  0  0  0
  6 15  1  0  0  0  0
  7  8  1  0  0  0  0
  7 21  1  0  0  0  0
  8  9  2  0  0  0  0
  9 10  1  0  0  0  0
  9 20  1  0  0  0  0
 10 11  2  0  0  0  0
 10 15  1  0  0  0  0
 11 12  1  0  0  0  0
 11 19  1  0  0  0  0
 12 13  2  0  0  0  0
 12 18  1  0  0  0  0
 13 14  1  0  0  0  0
 13 17  1  0  0  0  0
 14 15  2  0  0  0  0
 14 16  1  0  0  0  0
 22 23  2  0  0  0  0
 22 24  1  0  0  0  0
 24 25  1  0  0  0  0
 24 38  1  0  0  0  0
 25 26  1  0  0  0  0
 25 41  1  0  0  0  0
 25 42  1  0  0  0  0
 26 27  1  0  0  0  0
 26 38  1  0  0  0  0
 27 28  2  0  0  0  0
 27 29  2  0  0  0  0
 27 30  1  0  0  0  0
 30 31  1  0  0  0  0
 30 32  1  0  0  0  0
 30 37  1  0  0  0  0
 31 32  1  0  0  0  0
 31 35  1  0  0  0  0
 31 36  1  0  0  0  0
 32 33  1  0  0  0  0
 32 34  1  0  0  0  0
 38 39  1  0  0  0  0
 38 40  1  0  0  0  0
M  END
>  <MODEL>
       1

$$$$
