tmp_first_model_5_1.pdb
 OpenBabel08272519223D

 68 73  0  0  1  0  0  0  0  0999 V2000
   -7.2960    3.2620  -21.6650 C   0  0  0  0  0  0  0  0  0  0  0  0
   -8.2930    2.8360  -22.6320 N   0  0  0  0  0  0  0  0  0  0  0  0
   -7.8910    2.2190  -23.7720 C   0  0  0  0  0  0  0  0  0  0  0  0
   -6.7100    2.0560  -24.0490 O   0  0  0  0  0  0  0  0  0  0  0  0
   -9.0080    1.7180  -24.6940 C   0  0  0  0  0  0  0  0  0  0  0  0
   -9.5820    0.4850  -24.1840 N   0  0  0  0  0  0  0  0  0  0  0  0
   -8.7180   -0.6780  -24.0480 C   0  0  0  0  0  0  0  0  0  0  0  0
   -9.0570   -1.5200  -22.7850 C   0  0  2  0  0  0  0  0  0  0  0  0
   -8.5570   -0.7760  -21.5190 C   0  0  0  0  0  0  0  0  0  0  0  0
   -9.0230    0.2150  -21.0040 O   0  0  0  0  0  0  0  0  0  0  0  0
   -7.4210   -1.4130  -21.0720 N   0  0  0  0  0  0  0  0  0  0  0  0
   -6.5590   -0.8870  -20.0910 C   0  0  0  0  0  0  0  0  0  0  0  0
   -6.7970   -1.1240  -18.7640 C   0  0  0  0  0  0  0  0  0  0  0  0
   -5.8660   -0.9470  -17.7990 N   0  0  0  0  0  0  0  0  0  0  0  0
   -4.7030   -0.4550  -18.1700 C   0  0  0  0  0  0  0  0  0  0  0  0
   -4.3930   -0.0160  -19.4960 C   0  0  0  0  0  0  0  0  0  0  0  0
   -3.2230    0.7390  -19.8170 C   0  0  0  0  0  0  0  0  0  0  0  0
   -3.1400    1.4150  -21.0050 C   0  0  0  0  0  0  0  0  0  0  0  0
   -4.1040    1.2000  -22.0220 C   0  0  0  0  0  0  0  0  0  0  0  0
   -5.1630    0.3580  -21.7880 C   0  0  0  0  0  0  0  0  0  0  0  0
   -5.3780   -0.1930  -20.4880 C   0  0  0  0  0  0  0  0  0  0  0  0
   -5.8610    0.1590  -22.5970 H   0  0  0  0  0  0  0  0  0  0  0  0
   -4.0160    1.7200  -22.9730 H   0  0  0  0  0  0  0  0  0  0  0  0
   -2.2550    2.0050  -21.2250 H   0  0  0  0  0  0  0  0  0  0  0  0
   -2.4520    0.8430  -19.0610 H   0  0  0  0  0  0  0  0  0  0  0  0
   -3.9460   -0.3650  -17.3920 H   0  0  0  0  0  0  0  0  0  0  0  0
   -7.7470   -1.5480  -18.4490 H   0  0  0  0  0  0  0  0  0  0  0  0
   -6.9670   -2.5030  -21.8970 C   0  0  0  0  0  0  0  0  0  0  0  0
   -8.2150   -2.8380  -22.6980 C   0  0  2  0  0  0  0  0  0  0  0  0
   -7.8700   -3.5160  -23.9990 C   0  0  0  0  0  0  0  0  0  0  0  0
   -9.0720   -3.9150  -24.6570 N   0  0  0  0  0  0  0  0  0  0  0  0
   -8.9720   -4.4820  -25.8970 C   0  0  0  0  0  0  0  0  0  0  0  0
   -7.7790   -4.7710  -26.6070 C   0  0  0  0  0  0  0  0  0  0  0  0
   -8.0460   -5.3400  -27.7770 N   0  0  0  0  0  0  0  0  0  0  0  0
   -9.3710   -5.4320  -27.8090 N   0  0  0  0  0  0  0  0  0  0  0  0
  -10.0490   -5.9450  -28.9540 C   0  0  0  0  0  0  0  0  0  0  0  0
  -10.8030   -5.2100  -29.2400 H   0  0  0  0  0  0  0  0  0  0  0  0
  -10.5330   -6.9020  -28.7310 H   0  0  0  0  0  0  0  0  0  0  0  0
   -9.3010   -6.0600  -29.7370 H   0  0  0  0  0  0  0  0  0  0  0  0
   -9.9870   -4.9290  -26.7140 C   0  0  0  0  0  0  0  0  0  0  0  0
  -11.0720   -4.9580  -26.6420 H   0  0  0  0  0  0  0  0  0  0  0  0
   -6.7480   -4.6200  -26.3060 H   0  0  0  0  0  0  0  0  0  0  0  0
   -9.9840   -3.6530  -24.3130 H   0  0  0  0  0  0  0  0  0  0  0  0
   -7.2650   -2.8430  -24.6320 H   0  0  0  0  0  0  0  0  0  0  0  0
   -7.2370   -4.4010  -23.8440 H   0  0  0  0  0  0  0  0  0  0  0  0
   -8.8070   -3.5490  -22.1150 H   0  0  0  0  0  0  0  0  0  0  0  0
   -6.1200   -2.2080  -22.5390 H   0  0  0  0  0  0  0  0  0  0  0  0
   -6.6270   -3.3460  -21.2830 H   0  0  0  0  0  0  0  0  0  0  0  0
  -10.5610   -1.7360  -22.7710 C   0  0  0  0  0  0  0  0  0  0  0  0
  -11.1450   -2.7130  -21.9520 C   0  0  0  0  0  0  0  0  0  0  0  0
  -12.5030   -2.9620  -22.0390 C   0  0  0  0  0  0  0  0  0  0  0  0
  -13.2600   -4.0620  -20.9350 Cl  0  0  0  0  0  0  0  0  0  0  0  0
  -13.3080   -2.3130  -22.9720 C   0  0  0  0  0  0  0  0  0  0  0  0
  -12.7590   -1.2870  -23.7160 C   0  0  0  0  0  0  0  0  0  0  0  0
  -11.4200   -0.9380  -23.5460 C   0  0  0  0  0  0  0  0  0  0  0  0
  -10.9410    0.3360  -24.1750 C   0  0  0  0  0  0  0  0  0  0  0  0
  -11.7140    1.1730  -24.6260 O   0  0  0  0  0  0  0  0  0  0  0  0
  -13.3580   -0.7270  -24.4270 H   0  0  0  0  0  0  0  0  0  0  0  0
  -14.3530   -2.5880  -23.0690 H   0  0  0  0  0  0  0  0  0  0  0  0
  -10.5610   -3.2750  -21.2330 H   0  0  0  0  0  0  0  0  0  0  0  0
   -7.6900   -0.3160  -23.9870 H   0  0  0  0  0  0  0  0  0  0  0  0
   -8.8130   -1.2980  -24.9500 H   0  0  0  0  0  0  0  0  0  0  0  0
   -9.8340    2.4320  -24.7640 H   0  0  0  0  0  0  0  0  0  0  0  0
   -8.5780    1.5880  -25.6970 H   0  0  0  0  0  0  0  0  0  0  0  0
   -9.2400    2.6980  -22.3060 H   0  0  0  0  0  0  0  0  0  0  0  0
   -6.6120    3.9800  -22.1220 H   0  0  0  0  0  0  0  0  0  0  0  0
   -7.7950    3.7370  -20.8190 H   0  0  0  0  0  0  0  0  0  0  0  0
   -6.7000    2.4140  -21.3040 H   0  0  0  0  0  0  0  0  0  0  0  0
  1  2  1  0  0  0  0
  1 66  1  0  0  0  0
  1 67  1  0  0  0  0
  1 68  1  0  0  0  0
  2  3  1  0  0  0  0
  2 65  1  0  0  0  0
  3  4  2  0  0  0  0
  3  5  1  0  0  0  0
  5  6  1  0  0  0  0
  5 63  1  0  0  0  0
  5 64  1  0  0  0  0
  6  7  1  0  0  0  0
  6 56  1  0  0  0  0
  7  8  1  0  0  0  0
  7 61  1  0  0  0  0
  7 62  1  0  0  0  0
  8  9  1  1  0  0  0
  8 29  1  0  0  0  0
  8 49  1  0  0  0  0
  9 10  2  0  0  0  0
  9 11  1  0  0  0  0
 11 12  1  0  0  0  0
 11 28  1  0  0  0  0
 12 13  2  0  0  0  0
 12 21  1  0  0  0  0
 13 14  1  0  0  0  0
 13 27  1  0  0  0  0
 14 15  2  0  0  0  0
 15 16  1  0  0  0  0
 15 26  1  0  0  0  0
 16 17  2  0  0  0  0
 16 21  1  0  0  0  0
 17 18  1  0  0  0  0
 17 25  1  0  0  0  0
 18 19  2  0  0  0  0
 18 24  1  0  0  0  0
 19 20  1  0  0  0  0
 19 23  1  0  0  0  0
 20 21  2  0  0  0  0
 20 22  1  0  0  0  0
 28 29  1  0  0  0  0
 28 47  1  0  0  0  0
 28 48  1  0  0  0  0
 29 30  1  0  0  0  0
 29 46  1  1  0  0  0
 30 31  1  0  0  0  0
 30 44  1  0  0  0  0
 30 45  1  0  0  0  0
 31 32  1  0  0  0  0
 31 43  1  0  0  0  0
 32 33  1  0  0  0  0
 32 40  2  0  0  0  0
 33 34  2  0  0  0  0
 33 42  1  0  0  0  0
 34 35  1  0  0  0  0
 35 36  1  0  0  0  0
 35 40  1  0  0  0  0
 36 37  1  0  0  0  0
 36 38  1  0  0  0  0
 36 39  1  0  0  0  0
 40 41  1  0  0  0  0
 49 50  2  0  0  0  0
 49 55  1  0  0  0  0
 50 51  1  0  0  0  0
 50 60  1  0  0  0  0
 51 52  1  0  0  0  0
 51 53  2  0  0  0  0
 53 54  1  0  0  0  0
 53 59  1  0  0  0  0
 54 55  2  0  0  0  0
 54 58  1  0  0  0  0
 55 56  1  0  0  0  0
 56 57  2  0  0  0  0
M  END
>  <MODEL>
       1

$$$$
