tmp_first_model_1_63.pdb
 OpenBabel08272517043D

 57 61  0  0  1  0  0  0  0  0999 V2000
   -4.9440   -1.6990  -28.9930 C   0  0  0  0  0  0  0  0  0  0  0  0
   -5.1530   -1.6180  -27.5580 N   0  0  0  0  0  0  0  0  0  0  0  0
   -4.7560   -0.5250  -26.8480 C   0  0  0  0  0  0  0  0  0  0  0  0
   -3.9630    0.3000  -27.2720 O   0  0  0  0  0  0  0  0  0  0  0  0
   -5.3350   -0.3150  -25.4440 C   0  0  0  0  0  0  0  0  0  0  0  0
   -6.5240   -1.0650  -25.0810 N   0  0  0  0  0  0  0  0  0  0  0  0
   -6.4430   -2.1430  -24.1130 C   0  0  0  0  0  0  0  0  0  0  0  0
   -7.6540   -2.1860  -23.1310 C   0  0  2  0  0  0  0  0  0  0  0  0
   -7.3950   -1.1570  -22.0190 C   0  0  0  0  0  0  0  0  0  0  0  0
   -7.7040    0.0140  -22.0000 O   0  0  0  0  0  0  0  0  0  0  0  0
   -6.6850   -1.7980  -21.0260 N   0  0  0  0  0  0  0  0  0  0  0  0
   -6.1390   -1.0550  -19.9670 C   0  0  0  0  0  0  0  0  0  0  0  0
   -6.5660   -1.2800  -18.6840 C   0  0  0  0  0  0  0  0  0  0  0  0
   -6.0760   -0.6350  -17.6010 N   0  0  0  0  0  0  0  0  0  0  0  0
   -5.1220    0.2410  -17.8070 C   0  0  0  0  0  0  0  0  0  0  0  0
   -4.5820    0.5570  -19.0870 C   0  0  0  0  0  0  0  0  0  0  0  0
   -3.4970    1.4590  -19.2500 C   0  0  0  0  0  0  0  0  0  0  0  0
   -3.0310    1.7650  -20.4990 C   0  0  0  0  0  0  0  0  0  0  0  0
   -3.6510    1.2140  -21.6450 C   0  0  0  0  0  0  0  0  0  0  0  0
   -4.6940    0.3380  -21.5150 C   0  0  0  0  0  0  0  0  0  0  0  0
   -5.1490   -0.0550  -20.2220 C   0  0  0  0  0  0  0  0  0  0  0  0
   -5.1950   -0.0290  -22.4060 H   0  0  0  0  0  0  0  0  0  0  0  0
   -3.3030    1.4940  -22.6360 H   0  0  0  0  0  0  0  0  0  0  0  0
   -2.1930    2.4420  -20.6230 H   0  0  0  0  0  0  0  0  0  0  0  0
   -3.0560    1.8930  -18.3580 H   0  0  0  0  0  0  0  0  0  0  0  0
   -4.7230    0.7480  -16.9310 H   0  0  0  0  0  0  0  0  0  0  0  0
   -7.3660   -2.0020  -18.5060 H   0  0  0  0  0  0  0  0  0  0  0  0
   -6.5240   -3.2320  -21.2520 C   0  0  0  0  0  0  0  0  0  0  0  0
   -7.6350   -3.4850  -22.2830 C   0  0  2  0  0  0  0  0  0  0  0  0
   -7.5680   -4.7820  -23.0750 C   0  0  0  0  0  0  0  0  0  0  0  0
   -8.0830   -5.8780  -22.3510 O   0  0  0  0  0  0  0  0  0  0  0  0
   -9.0280   -5.7010  -22.2330 H   0  0  0  0  0  0  0  0  0  0  0  0
   -8.0920   -4.6510  -24.0340 H   0  0  0  0  0  0  0  0  0  0  0  0
   -6.5290   -5.0250  -23.3230 H   0  0  0  0  0  0  0  0  0  0  0  0
   -8.5570   -3.5090  -21.6900 H   0  0  0  0  0  0  0  0  0  0  0  0
   -5.5320   -3.4680  -21.6680 H   0  0  0  0  0  0  0  0  0  0  0  0
   -6.6330   -3.7870  -20.3160 H   0  0  0  0  0  0  0  0  0  0  0  0
   -8.9490   -1.8640  -23.8220 C   0  0  0  0  0  0  0  0  0  0  0  0
  -10.1680   -2.1820  -23.2170 C   0  0  0  0  0  0  0  0  0  0  0  0
  -11.3510   -1.6910  -23.7280 C   0  0  0  0  0  0  0  0  0  0  0  0
  -12.8160   -2.1350  -22.9020 Cl  0  0  0  0  0  0  0  0  0  0  0  0
  -11.3580   -0.8250  -24.8270 C   0  0  0  0  0  0  0  0  0  0  0  0
  -10.1570   -0.5210  -25.4280 C   0  0  0  0  0  0  0  0  0  0  0  0
   -8.9630   -1.0580  -24.9620 C   0  0  0  0  0  0  0  0  0  0  0  0
   -7.6980   -0.6450  -25.6490 C   0  0  0  0  0  0  0  0  0  0  0  0
   -7.7010    0.0630  -26.6470 O   0  0  0  0  0  0  0  0  0  0  0  0
  -10.0980    0.1780  -26.2490 H   0  0  0  0  0  0  0  0  0  0  0  0
  -12.2650   -0.3590  -25.1890 H   0  0  0  0  0  0  0  0  0  0  0  0
  -10.1900   -2.7620  -22.3030 H   0  0  0  0  0  0  0  0  0  0  0  0
   -5.5310   -2.0050  -23.5200 H   0  0  0  0  0  0  0  0  0  0  0  0
   -6.3550   -3.1170  -24.6140 H   0  0  0  0  0  0  0  0  0  0  0  0
   -5.5680    0.7550  -25.4160 H   0  0  0  0  0  0  0  0  0  0  0  0
   -4.5450   -0.4990  -24.7020 H   0  0  0  0  0  0  0  0  0  0  0  0
   -5.8210   -2.2440  -27.1410 H   0  0  0  0  0  0  0  0  0  0  0  0
   -4.3040   -2.5470  -29.2700 H   0  0  0  0  0  0  0  0  0  0  0  0
   -4.4610   -0.7730  -29.3160 H   0  0  0  0  0  0  0  0  0  0  0  0
   -5.9070   -1.7940  -29.5150 H   0  0  0  0  0  0  0  0  0  0  0  0
  1  2  1  0  0  0  0
  1 55  1  0  0  0  0
  1 56  1  0  0  0  0
  1 57  1  0  0  0  0
  2  3  1  0  0  0  0
  2 54  1  0  0  0  0
  3  4  2  0  0  0  0
  3  5  1  0  0  0  0
  5  6  1  0  0  0  0
  5 52  1  0  0  0  0
  5 53  1  0  0  0  0
  6  7  1  0  0  0  0
  6 45  1  0  0  0  0
  7  8  1  0  0  0  0
  7 50  1  0  0  0  0
  7 51  1  0  0  0  0
  8  9  1  1  0  0  0
  8 29  1  0  0  0  0
  8 38  1  0  0  0  0
  9 10  2  0  0  0  0
  9 11  1  0  0  0  0
 11 12  1  0  0  0  0
 11 28  1  0  0  0  0
 12 13  2  0  0  0  0
 12 21  1  0  0  0  0
 13 14  1  0  0  0  0
 13 27  1  0  0  0  0
 14 15  2  0  0  0  0
 15 16  1  0  0  0  0
 15 26  1  0  0  0  0
 16 17  2  0  0  0  0
 16 21  1  0  0  0  0
 17 18  1  0  0  0  0
 17 25  1  0  0  0  0
 18 19  2  0  0  0  0
 18 24  1  0  0  0  0
 19 20  1  0  0  0  0
 19 23  1  0  0  0  0
 20 21  2  0  0  0  0
 20 22  1  0  0  0  0
 28 29  1  0  0  0  0
 28 36  1  0  0  0  0
 28 37  1  0  0  0  0
 29 30  1  0  0  0  0
 29 35  1  1  0  0  0
 30 31  1  0  0  0  0
 30 33  1  0  0  0  0
 30 34  1  0  0  0  0
 31 32  1  0  0  0  0
 38 39  2  0  0  0  0
 38 44  1  0  0  0  0
 39 40  1  0  0  0  0
 39 49  1  0  0  0  0
 40 41  1  0  0  0  0
 40 42  2  0  0  0  0
 42 43  1  0  0  0  0
 42 48  1  0  0  0  0
 43 44  2  0  0  0  0
 43 47  1  0  0  0  0
 44 45  1  0  0  0  0
 45 46  2  0  0  0  0
M  END
>  <MODEL>
       1

$$$$
