tmp_first_model_18_66.pdb
 OpenBabel08282502533D

 44 47  0  0  1  0  0  0  0  0999 V2000
   -7.8530   -0.5960  -24.9390 C   0  0  0  0  0  0  0  0  0  0  0  0
   -8.3640   -2.0210  -25.0890 C   0  0  0  0  0  0  0  0  0  0  0  0
   -8.3290   -2.8410  -23.7850 C   0  0  1  0  0  0  0  0  0  0  0  0
   -8.8920   -4.2150  -24.0590 C   0  0  0  0  0  0  0  0  0  0  0  0
  -10.2600   -4.4980  -24.3740 C   0  0  0  0  0  0  0  0  0  0  0  0
  -10.4570   -5.7880  -24.7680 C   0  0  0  0  0  0  0  0  0  0  0  0
   -8.9730   -6.6790  -24.7390 S   0  0  0  0  0  0  0  0  0  0  0  0
   -8.0840   -5.3040  -24.1710 C   0  0  0  0  0  0  0  0  0  0  0  0
   -6.6040   -5.3270  -23.8890 C   0  0  0  0  0  0  0  0  0  0  0  0
   -6.0930   -3.8850  -23.9430 C   0  0  0  0  0  0  0  0  0  0  0  0
   -6.9820   -2.9790  -23.2230 N   0  0  0  0  0  0  0  0  0  0  0  0
   -6.6390   -2.6730  -21.9240 C   0  0  0  0  0  0  0  0  0  0  0  0
   -5.7640   -3.2750  -21.3290 O   0  0  0  0  0  0  0  0  0  0  0  0
   -7.3810   -1.4990  -21.2750 C   0  0  0  0  0  0  0  0  0  0  0  0
   -6.5780   -0.8420  -20.1830 C   0  0  0  0  0  0  0  0  0  0  0  0
   -6.8790   -1.0610  -18.8660 C   0  0  0  0  0  0  0  0  0  0  0  0
   -6.2030   -0.5500  -17.8010 N   0  0  0  0  0  0  0  0  0  0  0  0
   -5.1730    0.2150  -18.0700 C   0  0  0  0  0  0  0  0  0  0  0  0
   -4.7310    0.5240  -19.3860 C   0  0  0  0  0  0  0  0  0  0  0  0
   -3.6030    1.3550  -19.6180 C   0  0  0  0  0  0  0  0  0  0  0  0
   -3.1990    1.6300  -20.8960 C   0  0  0  0  0  0  0  0  0  0  0  0
   -3.9060    1.0900  -21.9950 C   0  0  0  0  0  0  0  0  0  0  0  0
   -5.0020    0.2890  -21.7930 C   0  0  0  0  0  0  0  0  0  0  0  0
   -5.4480   -0.0180  -20.4780 C   0  0  0  0  0  0  0  0  0  0  0  0
   -5.5310   -0.1160  -22.6520 H   0  0  0  0  0  0  0  0  0  0  0  0
   -3.5830    1.3170  -23.0090 H   0  0  0  0  0  0  0  0  0  0  0  0
   -2.3400    2.2710  -21.0740 H   0  0  0  0  0  0  0  0  0  0  0  0
   -3.0810    1.7640  -18.7540 H   0  0  0  0  0  0  0  0  0  0  0  0
   -4.6270    0.6290  -17.2200 H   0  0  0  0  0  0  0  0  0  0  0  0
   -7.7310   -1.6890  -18.6020 H   0  0  0  0  0  0  0  0  0  0  0  0
   -7.6510   -0.7830  -22.0590 H   0  0  0  0  0  0  0  0  0  0  0  0
   -8.3240   -1.8800  -20.8590 H   0  0  0  0  0  0  0  0  0  0  0  0
   -6.0470   -3.5520  -24.9920 H   0  0  0  0  0  0  0  0  0  0  0  0
   -5.1060   -3.7940  -23.4810 H   0  0  0  0  0  0  0  0  0  0  0  0
   -6.3960   -5.7690  -22.8990 H   0  0  0  0  0  0  0  0  0  0  0  0
   -6.0870   -5.9380  -24.6410 H   0  0  0  0  0  0  0  0  0  0  0  0
  -11.3930   -6.2740  -25.0280 H   0  0  0  0  0  0  0  0  0  0  0  0
  -11.0560   -3.7700  -24.2860 H   0  0  0  0  0  0  0  0  0  0  0  0
   -8.9570   -2.3320  -23.0330 H   0  0  0  0  0  0  0  0  0  0  0  0
   -7.8080   -2.5660  -25.8670 H   0  0  0  0  0  0  0  0  0  0  0  0
   -9.4110   -2.0360  -25.4200 H   0  0  0  0  0  0  0  0  0  0  0  0
   -7.9150   -0.0480  -25.8820 H   0  0  0  0  0  0  0  0  0  0  0  0
   -6.8060   -0.5750  -24.6160 H   0  0  0  0  0  0  0  0  0  0  0  0
   -8.4450   -0.0410  -24.2030 H   0  0  0  0  0  0  0  0  0  0  0  0
  1  2  1  0  0  0  0
  1 42  1  0  0  0  0
  1 43  1  0  0  0  0
  1 44  1  0  0  0  0
  2  3  1  0  0  0  0
  2 40  1  0  0  0  0
  2 41  1  0  0  0  0
  3  4  1  0  0  0  0
  3 11  1  0  0  0  0
  3 39  1  1  0  0  0
  4  5  1  0  0  0  0
  4  8  2  0  0  0  0
  5  6  2  0  0  0  0
  5 38  1  0  0  0  0
  6  7  1  0  0  0  0
  6 37  1  0  0  0  0
  7  8  1  0  0  0  0
  8  9  1  0  0  0  0
  9 10  1  0  0  0  0
  9 35  1  0  0  0  0
  9 36  1  0  0  0  0
 10 11  1  0  0  0  0
 10 33  1  0  0  0  0
 10 34  1  0  0  0  0
 11 12  1  0  0  0  0
 12 13  2  0  0  0  0
 12 14  1  0  0  0  0
 14 15  1  0  0  0  0
 14 31  1  0  0  0  0
 14 32  1  0  0  0  0
 15 16  2  0  0  0  0
 15 24  1  0  0  0  0
 16 17  1  0  0  0  0
 16 30  1  0  0  0  0
 17 18  2  0  0  0  0
 18 19  1  0  0  0  0
 18 29  1  0  0  0  0
 19 20  2  0  0  0  0
 19 24  1  0  0  0  0
 20 21  1  0  0  0  0
 20 28  1  0  0  0  0
 21 22  2  0  0  0  0
 21 27  1  0  0  0  0
 22 23  1  0  0  0  0
 22 26  1  0  0  0  0
 23 24  2  0  0  0  0
 23 25  1  0  0  0  0
M  END
>  <MODEL>
       1

$$$$
