tmp_first_model_8_88.pdb
 OpenBabel08272521063D

 40 42  0  0  0  0  0  0  0  0999 V2000
   -6.0950   -2.0120  -23.4240 O   0  0  0  0  0  0  0  0  0  0  0  0
   -6.3170   -2.3290  -22.2630 C   0  0  0  0  0  0  0  0  0  0  0  0
   -7.2810   -1.5170  -21.3650 C   0  0  0  0  0  0  0  0  0  0  0  0
   -6.5770   -0.8490  -20.2020 C   0  0  0  0  0  0  0  0  0  0  0  0
   -6.9410   -1.0460  -18.8910 C   0  0  0  0  0  0  0  0  0  0  0  0
   -6.2780   -0.5530  -17.8150 N   0  0  0  0  0  0  0  0  0  0  0  0
   -5.2180    0.1840  -18.0500 C   0  0  0  0  0  0  0  0  0  0  0  0
   -4.7570    0.5200  -19.3520 C   0  0  0  0  0  0  0  0  0  0  0  0
   -3.6420    1.3690  -19.5800 C   0  0  0  0  0  0  0  0  0  0  0  0
   -3.2910    1.7250  -20.8520 C   0  0  0  0  0  0  0  0  0  0  0  0
   -4.0210    1.2360  -21.9560 C   0  0  0  0  0  0  0  0  0  0  0  0
   -5.0700    0.3770  -21.7700 C   0  0  0  0  0  0  0  0  0  0  0  0
   -5.4690    0.0050  -20.4580 C   0  0  0  0  0  0  0  0  0  0  0  0
   -5.5950   -0.0290  -22.6270 H   0  0  0  0  0  0  0  0  0  0  0  0
   -3.7330    1.5190  -22.9640 H   0  0  0  0  0  0  0  0  0  0  0  0
   -2.4570    2.3980  -21.0300 H   0  0  0  0  0  0  0  0  0  0  0  0
   -3.0950    1.7540  -18.7240 H   0  0  0  0  0  0  0  0  0  0  0  0
   -4.6860    0.5770  -17.1840 H   0  0  0  0  0  0  0  0  0  0  0  0
   -7.8100   -1.6590  -18.6400 H   0  0  0  0  0  0  0  0  0  0  0  0
   -7.7830   -0.7780  -22.0000 H   0  0  0  0  0  0  0  0  0  0  0  0
   -8.0800   -2.1760  -21.0070 H   0  0  0  0  0  0  0  0  0  0  0  0
   -5.7050   -3.4040  -21.6760 N   0  0  0  0  0  0  0  0  0  0  0  0
   -5.9690   -3.8410  -20.3230 C   0  0  0  0  0  0  0  0  0  0  0  0
   -6.2330   -5.3320  -20.3070 C   0  0  0  0  0  0  0  0  0  0  0  0
   -5.0110   -6.0700  -20.8020 C   0  0  0  0  0  0  0  0  0  0  0  0
   -5.2390   -7.5750  -20.7910 C   0  0  0  0  0  0  0  0  0  0  0  0
   -6.2040   -7.9130  -21.7000 F   0  0  0  0  0  0  0  0  0  0  0  0
   -5.6880   -7.9580  -19.5580 F   0  0  0  0  0  0  0  0  0  0  0  0
   -4.3380   -8.1680  -21.0040 H   0  0  0  0  0  0  0  0  0  0  0  0
   -4.5690   -5.5530  -22.1760 C   0  0  0  0  0  0  0  0  0  0  0  0
   -4.5270   -4.0250  -22.2720 C   0  0  0  0  0  0  0  0  0  0  0  0
   -4.4830   -3.7110  -23.3120 H   0  0  0  0  0  0  0  0  0  0  0  0
   -3.6180   -3.6440  -21.7860 H   0  0  0  0  0  0  0  0  0  0  0  0
   -5.2660   -5.9410  -22.9260 H   0  0  0  0  0  0  0  0  0  0  0  0
   -3.5800   -5.9570  -22.4330 H   0  0  0  0  0  0  0  0  0  0  0  0
   -4.2860   -5.8830  -20.0140 H   0  0  0  0  0  0  0  0  0  0  0  0
   -7.0980   -5.5790  -20.9290 H   0  0  0  0  0  0  0  0  0  0  0  0
   -6.4210   -5.6420  -19.2790 H   0  0  0  0  0  0  0  0  0  0  0  0
   -6.8300   -3.3160  -19.9210 H   0  0  0  0  0  0  0  0  0  0  0  0
   -5.0940   -3.6150  -19.6940 H   0  0  0  0  0  0  0  0  0  0  0  0
  1  2  2  0  0  0  0
  2  3  1  0  0  0  0
  2 22  1  0  0  0  0
  3  4  1  0  0  0  0
  3 20  1  0  0  0  0
  3 21  1  0  0  0  0
  4  5  2  0  0  0  0
  4 13  1  0  0  0  0
  5  6  1  0  0  0  0
  5 19  1  0  0  0  0
  6  7  2  0  0  0  0
  7  8  1  0  0  0  0
  7 18  1  0  0  0  0
  8  9  2  0  0  0  0
  8 13  1  0  0  0  0
  9 10  1  0  0  0  0
  9 17  1  0  0  0  0
 10 11  2  0  0  0  0
 10 16  1  0  0  0  0
 11 12  1  0  0  0  0
 11 15  1  0  0  0  0
 12 13  2  0  0  0  0
 12 14  1  0  0  0  0
 22 23  1  0  0  0  0
 22 31  1  0  0  0  0
 23 24  1  0  0  0  0
 23 39  1  0  0  0  0
 23 40  1  0  0  0  0
 24 25  1  0  0  0  0
 24 37  1  0  0  0  0
 24 38  1  0  0  0  0
 25 26  1  0  0  0  0
 25 30  1  0  0  0  0
 25 36  1  0  0  0  0
 26 27  1  0  0  0  0
 26 28  1  0  0  0  0
 26 29  1  0  0  0  0
 30 31  1  0  0  0  0
 30 34  1  0  0  0  0
 30 35  1  0  0  0  0
 31 32  1  0  0  0  0
 31 33  1  0  0  0  0
M  END
>  <MODEL>
       1

$$$$
