tmp_first_model_3_43.pdb
 OpenBabel08272518143D

 67 72  0  0  1  0  0  0  0  0999 V2000
  -14.4910   -0.3600  -22.8070 C   0  0  0  0  0  0  0  0  0  0  0  0
  -13.8330   -1.4680  -22.1250 N   0  0  0  0  0  0  0  0  0  0  0  0
  -12.9580   -2.2500  -22.8270 C   0  0  0  0  0  0  0  0  0  0  0  0
  -12.7290   -2.0720  -24.0130 O   0  0  0  0  0  0  0  0  0  0  0  0
  -12.2510   -3.3590  -22.0540 C   0  0  0  0  0  0  0  0  0  0  0  0
  -10.8530   -3.4980  -22.4410 N   0  0  0  0  0  0  0  0  0  0  0  0
   -9.8160   -2.9950  -21.5560 C   0  0  0  0  0  0  0  0  0  0  0  0
   -8.5400   -2.5590  -22.3310 C   0  0  2  0  0  0  0  0  0  0  0  0
   -7.4400   -2.3850  -21.2870 C   0  0  0  0  0  0  0  0  0  0  0  0
   -6.8350   -3.2740  -20.7140 O   0  0  0  0  0  0  0  0  0  0  0  0
   -7.2430   -1.0420  -21.0680 N   0  0  0  0  0  0  0  0  0  0  0  0
   -6.4120   -0.5900  -20.0190 C   0  0  0  0  0  0  0  0  0  0  0  0
   -6.6880   -0.8830  -18.7060 C   0  0  0  0  0  0  0  0  0  0  0  0
   -6.0140   -0.3550  -17.6510 N   0  0  0  0  0  0  0  0  0  0  0  0
   -5.0090    0.4470  -17.9150 C   0  0  0  0  0  0  0  0  0  0  0  0
   -4.5650    0.7570  -19.2300 C   0  0  0  0  0  0  0  0  0  0  0  0
   -3.4340    1.5800  -19.4640 C   0  0  0  0  0  0  0  0  0  0  0  0
   -3.0070    1.8190  -20.7410 C   0  0  0  0  0  0  0  0  0  0  0  0
   -3.6930    1.2540  -21.8400 C   0  0  0  0  0  0  0  0  0  0  0  0
   -4.8060    0.4750  -21.6360 C   0  0  0  0  0  0  0  0  0  0  0  0
   -5.2730    0.2170  -20.3220 C   0  0  0  0  0  0  0  0  0  0  0  0
   -5.3350    0.0430  -22.4770 H   0  0  0  0  0  0  0  0  0  0  0  0
   -3.3480    1.4470  -22.8510 H   0  0  0  0  0  0  0  0  0  0  0  0
   -2.1410    2.4480  -20.9210 H   0  0  0  0  0  0  0  0  0  0  0  0
   -2.9320    2.0180  -18.6060 H   0  0  0  0  0  0  0  0  0  0  0  0
   -4.4730    0.8780  -17.0680 H   0  0  0  0  0  0  0  0  0  0  0  0
   -7.5020   -1.5590  -18.4500 H   0  0  0  0  0  0  0  0  0  0  0  0
   -8.1370   -0.1870  -21.8360 C   0  0  0  0  0  0  0  0  0  0  0  0
   -8.6500   -1.1260  -22.9410 C   0  0  2  0  0  0  0  0  0  0  0  0
  -10.0380   -0.7350  -23.4560 C   0  0  0  0  0  0  0  0  0  0  0  0
   -9.9820    0.4840  -24.2170 N   0  0  0  0  0  0  0  0  0  0  0  0
  -10.5440    1.6600  -23.8030 C   0  0  0  0  0  0  0  0  0  0  0  0
  -11.2720    1.8900  -22.2420 S   0  0  0  0  0  0  0  0  0  0  0  0
  -11.6620    3.5160  -22.7280 C   0  0  0  0  0  0  0  0  0  0  0  0
  -11.2540    3.8570  -23.9050 N   0  0  0  0  0  0  0  0  0  0  0  0
  -10.5930    2.8150  -24.5200 C   0  0  0  0  0  0  0  0  0  0  0  0
   -9.9090    2.9650  -25.8430 C   0  0  0  0  0  0  0  0  0  0  0  0
  -10.2990    2.2600  -26.5880 H   0  0  0  0  0  0  0  0  0  0  0  0
   -8.8350    2.7570  -25.7320 H   0  0  0  0  0  0  0  0  0  0  0  0
  -10.0360    3.9780  -26.2260 H   0  0  0  0  0  0  0  0  0  0  0  0
  -12.2060    4.1650  -22.0510 H   0  0  0  0  0  0  0  0  0  0  0  0
   -9.8770    0.3850  -25.2160 H   0  0  0  0  0  0  0  0  0  0  0  0
  -10.7320   -0.5910  -22.6180 H   0  0  0  0  0  0  0  0  0  0  0  0
  -10.4380   -1.5170  -24.1050 H   0  0  0  0  0  0  0  0  0  0  0  0
   -7.9570   -1.0870  -23.7970 H   0  0  0  0  0  0  0  0  0  0  0  0
   -8.9580    0.1950  -21.2070 H   0  0  0  0  0  0  0  0  0  0  0  0
   -7.6050    0.6800  -22.2380 H   0  0  0  0  0  0  0  0  0  0  0  0
   -8.1600   -3.6170  -23.3430 C   0  0  0  0  0  0  0  0  0  0  0  0
   -6.8560   -3.7120  -23.8550 C   0  0  0  0  0  0  0  0  0  0  0  0
   -6.5240   -4.7030  -24.7650 C   0  0  0  0  0  0  0  0  0  0  0  0
   -4.9020   -4.8040  -25.3900 Cl  0  0  0  0  0  0  0  0  0  0  0  0
   -7.4680   -5.6270  -25.2090 C   0  0  0  0  0  0  0  0  0  0  0  0
   -8.7510   -5.5310  -24.7120 C   0  0  0  0  0  0  0  0  0  0  0  0
   -9.0960   -4.5420  -23.7890 C   0  0  0  0  0  0  0  0  0  0  0  0
  -10.5060   -4.5080  -23.3080 C   0  0  0  0  0  0  0  0  0  0  0  0
  -11.2860   -5.3460  -23.7060 O   0  0  0  0  0  0  0  0  0  0  0  0
   -9.5190   -6.2310  -25.0180 H   0  0  0  0  0  0  0  0  0  0  0  0
   -7.2010   -6.4060  -25.9190 H   0  0  0  0  0  0  0  0  0  0  0  0
   -6.0780   -3.0330  -23.5320 H   0  0  0  0  0  0  0  0  0  0  0  0
  -10.2170   -2.1430  -20.9970 H   0  0  0  0  0  0  0  0  0  0  0  0
   -9.5410   -3.7620  -20.8170 H   0  0  0  0  0  0  0  0  0  0  0  0
  -12.3340   -3.2060  -20.9730 H   0  0  0  0  0  0  0  0  0  0  0  0
  -12.7570   -4.2930  -22.3070 H   0  0  0  0  0  0  0  0  0  0  0  0
  -14.2260   -1.8360  -21.2660 H   0  0  0  0  0  0  0  0  0  0  0  0
  -15.5660   -0.5240  -22.9370 H   0  0  0  0  0  0  0  0  0  0  0  0
  -14.3370    0.5950  -22.2950 H   0  0  0  0  0  0  0  0  0  0  0  0
  -14.0280   -0.2970  -23.7950 H   0  0  0  0  0  0  0  0  0  0  0  0
  1  2  1  0  0  0  0
  1 65  1  0  0  0  0
  1 66  1  0  0  0  0
  1 67  1  0  0  0  0
  2  3  1  0  0  0  0
  2 64  1  0  0  0  0
  3  4  2  0  0  0  0
  3  5  1  0  0  0  0
  5  6  1  0  0  0  0
  5 62  1  0  0  0  0
  5 63  1  0  0  0  0
  6  7  1  0  0  0  0
  6 55  1  0  0  0  0
  7  8  1  0  0  0  0
  7 60  1  0  0  0  0
  7 61  1  0  0  0  0
  8  9  1  1  0  0  0
  8 29  1  0  0  0  0
  8 48  1  0  0  0  0
  9 10  2  0  0  0  0
  9 11  1  0  0  0  0
 11 12  1  0  0  0  0
 11 28  1  0  0  0  0
 12 13  2  0  0  0  0
 12 21  1  0  0  0  0
 13 14  1  0  0  0  0
 13 27  1  0  0  0  0
 14 15  2  0  0  0  0
 15 16  1  0  0  0  0
 15 26  1  0  0  0  0
 16 17  2  0  0  0  0
 16 21  1  0  0  0  0
 17 18  1  0  0  0  0
 17 25  1  0  0  0  0
 18 19  2  0  0  0  0
 18 24  1  0  0  0  0
 19 20  1  0  0  0  0
 19 23  1  0  0  0  0
 20 21  2  0  0  0  0
 20 22  1  0  0  0  0
 28 29  1  0  0  0  0
 28 46  1  0  0  0  0
 28 47  1  0  0  0  0
 29 30  1  0  0  0  0
 29 45  1  6  0  0  0
 30 31  1  0  0  0  0
 30 43  1  0  0  0  0
 30 44  1  0  0  0  0
 31 32  1  0  0  0  0
 31 42  1  0  0  0  0
 32 33  1  0  0  0  0
 32 36  2  0  0  0  0
 33 34  1  0  0  0  0
 34 35  2  0  0  0  0
 34 41  1  0  0  0  0
 35 36  1  0  0  0  0
 36 37  1  0  0  0  0
 37 38  1  0  0  0  0
 37 39  1  0  0  0  0
 37 40  1  0  0  0  0
 48 49  2  0  0  0  0
 48 54  1  0  0  0  0
 49 50  1  0  0  0  0
 49 59  1  0  0  0  0
 50 51  1  0  0  0  0
 50 52  2  0  0  0  0
 52 53  1  0  0  0  0
 52 58  1  0  0  0  0
 53 54  2  0  0  0  0
 53 57  1  0  0  0  0
 54 55  1  0  0  0  0
 55 56  2  0  0  0  0
M  END
>  <MODEL>
       1

$$$$
