tmp_first_model_17_17.pdb
 OpenBabel08282502223D

 38 41  0  0  1  0  0  0  0  0999 V2000
   -9.3480   -4.9450  -25.6900 C   0  0  0  0  0  0  0  0  0  0  0  0
   -9.3460   -4.1960  -24.3570 C   0  0  2  0  0  0  0  0  0  0  0  0
  -10.3470   -3.0410  -24.3790 C   0  0  0  0  0  0  0  0  0  0  0  0
  -10.4220   -2.3510  -23.0150 C   0  0  0  0  0  0  0  0  0  0  0  0
   -9.0830   -2.1130  -22.4690 C   0  0  0  0  0  0  0  0  0  0  0  0
   -8.7200   -1.1920  -21.4390 C   0  0  0  0  0  0  0  0  0  0  0  0
   -9.3820   -0.3260  -20.9150 O   0  5  0  0  0  0  0  0  0  0  0  0
   -7.3430   -1.4720  -21.1980 N   0  0  0  0  0  0  0  0  0  0  0  0
   -6.5720   -0.8450  -20.1810 C   0  0  0  0  0  0  0  0  0  0  0  0
   -6.8900   -1.0520  -18.8620 C   0  0  0  0  0  0  0  0  0  0  0  0
   -6.1960   -0.5420  -17.8120 N   0  0  0  0  0  0  0  0  0  0  0  0
   -5.1590    0.2140  -18.0750 C   0  0  0  0  0  0  0  0  0  0  0  0
   -4.7280    0.5330  -19.3900 C   0  0  0  0  0  0  0  0  0  0  0  0
   -3.6030    1.3690  -19.6270 C   0  0  0  0  0  0  0  0  0  0  0  0
   -3.2290    1.6760  -20.9050 C   0  0  0  0  0  0  0  0  0  0  0  0
   -3.9610    1.1640  -22.0000 C   0  0  0  0  0  0  0  0  0  0  0  0
   -5.0500    0.3550  -21.7980 C   0  0  0  0  0  0  0  0  0  0  0  0
   -5.4570    0.0040  -20.4830 C   0  0  0  0  0  0  0  0  0  0  0  0
   -5.6090   -0.0320  -22.6430 H   0  0  0  0  0  0  0  0  0  0  0  0
   -3.6530    1.4090  -23.0120 H   0  0  0  0  0  0  0  0  0  0  0  0
   -2.3680    2.3130  -21.0950 H   0  0  0  0  0  0  0  0  0  0  0  0
   -3.0570    1.7700  -18.7760 H   0  0  0  0  0  0  0  0  0  0  0  0
   -4.6090    0.6200  -17.2220 H   0  0  0  0  0  0  0  0  0  0  0  0
   -7.7400   -1.6730  -18.5940 H   0  0  0  0  0  0  0  0  0  0  0  0
   -6.8620   -2.4210  -22.1180 C   0  0  0  0  0  0  0  0  0  0  0  0
   -5.7270   -2.8180  -22.2460 O   0  0  0  0  0  0  0  0  0  0  0  0
   -7.9750   -2.7830  -22.8660 N   0  0  0  0  0  0  0  0  0  0  0  0
   -7.9460   -3.6820  -24.0080 C   0  0  0  0  0  0  0  0  0  0  0  0
   -7.2770   -4.4990  -23.7570 H   0  0  0  0  0  0  0  0  0  0  0  0
   -7.5090   -3.1780  -24.8750 H   0  0  0  0  0  0  0  0  0  0  0  0
  -10.9660   -1.4020  -23.0750 H   0  0  0  0  0  0  0  0  0  0  0  0
  -11.0040   -2.9650  -22.3100 H   0  0  0  0  0  0  0  0  0  0  0  0
  -10.0330   -2.3170  -25.1390 H   0  0  0  0  0  0  0  0  0  0  0  0
  -11.3400   -3.4070  -24.6710 H   0  0  0  0  0  0  0  0  0  0  0  0
   -9.6530   -4.9010  -23.5740 H   0  0  0  0  0  0  0  0  0  0  0  0
  -10.3420   -5.3460  -25.9220 H   0  0  0  0  0  0  0  0  0  0  0  0
   -8.6480   -5.7880  -25.6930 H   0  0  0  0  0  0  0  0  0  0  0  0
   -9.0710   -4.2820  -26.5190 H   0  0  0  0  0  0  0  0  0  0  0  0
  1  2  1  0  0  0  0
  1 36  1  0  0  0  0
  1 37  1  0  0  0  0
  1 38  1  0  0  0  0
  2  3  1  0  0  0  0
  2 28  1  0  0  0  0
  2 35  1  1  0  0  0
  3  4  1  0  0  0  0
  3 33  1  0  0  0  0
  3 34  1  0  0  0  0
  4  5  1  0  0  0  0
  4 31  1  0  0  0  0
  4 32  1  0  0  0  0
  5  6  2  0  0  0  0
  5 27  1  0  0  0  0
  6  7  1  0  0  0  0
  6  8  1  0  0  0  0
  8  9  1  0  0  0  0
  8 25  1  0  0  0  0
  9 10  2  0  0  0  0
  9 18  1  0  0  0  0
 10 11  1  0  0  0  0
 10 24  1  0  0  0  0
 11 12  2  0  0  0  0
 12 13  1  0  0  0  0
 12 23  1  0  0  0  0
 13 14  2  0  0  0  0
 13 18  1  0  0  0  0
 14 15  1  0  0  0  0
 14 22  1  0  0  0  0
 15 16  2  0  0  0  0
 15 21  1  0  0  0  0
 16 17  1  0  0  0  0
 16 20  1  0  0  0  0
 17 18  2  0  0  0  0
 17 19  1  0  0  0  0
 25 26  2  0  0  0  0
 25 27  1  0  0  0  0
 27 28  1  0  0  0  0
 28 29  1  0  0  0  0
 28 30  1  0  0  0  0
M  CHG  1   7  -1
M  END
>  <MODEL>
       1

$$$$
