tmp_first_model_9_86.pdb
 OpenBabel08272521403D

 43 45  0  0  1  0  0  0  0  0999 V2000
   -8.5470   -5.5640  -25.7830 C   0  0  0  0  0  0  0  0  0  0  0  0
   -9.0640   -5.4500  -24.3460 C   0  0  1  0  0  0  0  0  0  0  0  0
   -8.0260   -5.8760  -23.3100 C   0  0  0  0  0  0  0  0  0  0  0  0
   -6.9370   -4.8320  -23.0950 C   0  0  0  0  0  0  0  0  0  0  0  0
   -7.5140   -3.5410  -22.7120 N   0  0  0  0  0  0  0  0  0  0  0  0
   -6.7550   -2.7460  -21.8640 C   0  0  0  0  0  0  0  0  0  0  0  0
   -5.6210   -3.0600  -21.5490 O   0  0  0  0  0  0  0  0  0  0  0  0
   -7.4120   -1.4750  -21.2700 C   0  0  0  0  0  0  0  0  0  0  0  0
   -6.5790   -0.8300  -20.1850 C   0  0  0  0  0  0  0  0  0  0  0  0
   -6.8720   -1.0460  -18.8650 C   0  0  0  0  0  0  0  0  0  0  0  0
   -6.1840   -0.5430  -17.8070 N   0  0  0  0  0  0  0  0  0  0  0  0
   -5.1560    0.2240  -18.0690 C   0  0  0  0  0  0  0  0  0  0  0  0
   -4.7200    0.5310  -19.3840 C   0  0  0  0  0  0  0  0  0  0  0  0
   -3.5910    1.3570  -19.6230 C   0  0  0  0  0  0  0  0  0  0  0  0
   -3.1900    1.6350  -20.9010 C   0  0  0  0  0  0  0  0  0  0  0  0
   -3.9050    1.0940  -21.9920 C   0  0  0  0  0  0  0  0  0  0  0  0
   -4.9990    0.2900  -21.7860 C   0  0  0  0  0  0  0  0  0  0  0  0
   -5.4440   -0.0130  -20.4750 C   0  0  0  0  0  0  0  0  0  0  0  0
   -5.5240   -0.1300  -22.6360 H   0  0  0  0  0  0  0  0  0  0  0  0
   -3.5790    1.3100  -23.0050 H   0  0  0  0  0  0  0  0  0  0  0  0
   -2.3290    2.2720  -21.0860 H   0  0  0  0  0  0  0  0  0  0  0  0
   -3.0610    1.7740  -18.7700 H   0  0  0  0  0  0  0  0  0  0  0  0
   -4.6050    0.6280  -17.2170 H   0  0  0  0  0  0  0  0  0  0  0  0
   -7.7190   -1.6690  -18.5840 H   0  0  0  0  0  0  0  0  0  0  0  0
   -7.6210   -0.7480  -22.0680 H   0  0  0  0  0  0  0  0  0  0  0  0
   -8.3920   -1.7510  -20.8540 H   0  0  0  0  0  0  0  0  0  0  0  0
   -8.5400   -2.9960  -23.6140 C   0  0  1  0  0  0  0  0  0  0  0  0
   -7.9410   -2.2910  -24.8410 C   0  0  0  0  0  0  0  0  0  0  0  0
   -8.7280   -1.9760  -25.5350 H   0  0  0  0  0  0  0  0  0  0  0  0
   -7.2480   -2.9310  -25.3930 H   0  0  0  0  0  0  0  0  0  0  0  0
   -7.3900   -1.3890  -24.5490 H   0  0  0  0  0  0  0  0  0  0  0  0
   -9.5910   -4.0640  -23.9670 C   0  0  0  0  0  0  0  0  0  0  0  0
  -10.2130   -3.6830  -24.7840 H   0  0  0  0  0  0  0  0  0  0  0  0
  -10.2620   -4.1720  -23.1090 H   0  0  0  0  0  0  0  0  0  0  0  0
   -9.0800   -2.2360  -23.0440 H   0  0  0  0  0  0  0  0  0  0  0  0
   -6.3000   -4.7540  -23.9890 H   0  0  0  0  0  0  0  0  0  0  0  0
   -6.2740   -5.1450  -22.2910 H   0  0  0  0  0  0  0  0  0  0  0  0
   -7.5750   -6.8280  -23.6120 H   0  0  0  0  0  0  0  0  0  0  0  0
   -8.5190   -6.0580  -22.3520 H   0  0  0  0  0  0  0  0  0  0  0  0
   -9.9150   -6.1420  -24.2750 H   0  0  0  0  0  0  0  0  0  0  0  0
   -7.6010   -5.0390  -25.9390 H   0  0  0  0  0  0  0  0  0  0  0  0
   -8.3810   -6.6140  -26.0500 H   0  0  0  0  0  0  0  0  0  0  0  0
   -9.2680   -5.1520  -26.4970 H   0  0  0  0  0  0  0  0  0  0  0  0
  1  2  1  0  0  0  0
  1 41  1  0  0  0  0
  1 42  1  0  0  0  0
  1 43  1  0  0  0  0
  2  3  1  0  0  0  0
  2 32  1  0  0  0  0
  2 40  1  1  0  0  0
  3  4  1  0  0  0  0
  3 38  1  0  0  0  0
  3 39  1  0  0  0  0
  4  5  1  0  0  0  0
  4 36  1  0  0  0  0
  4 37  1  0  0  0  0
  5  6  1  0  0  0  0
  5 27  1  0  0  0  0
  6  7  2  0  0  0  0
  6  8  1  0  0  0  0
  8  9  1  0  0  0  0
  8 25  1  0  0  0  0
  8 26  1  0  0  0  0
  9 10  2  0  0  0  0
  9 18  1  0  0  0  0
 10 11  1  0  0  0  0
 10 24  1  0  0  0  0
 11 12  2  0  0  0  0
 12 13  1  0  0  0  0
 12 23  1  0  0  0  0
 13 14  2  0  0  0  0
 13 18  1  0  0  0  0
 14 15  1  0  0  0  0
 14 22  1  0  0  0  0
 15 16  2  0  0  0  0
 15 21  1  0  0  0  0
 16 17  1  0  0  0  0
 16 20  1  0  0  0  0
 17 18  2  0  0  0  0
 17 19  1  0  0  0  0
 27 28  1  0  0  0  0
 27 32  1  0  0  0  0
 27 35  1  1  0  0  0
 28 29  1  0  0  0  0
 28 30  1  0  0  0  0
 28 31  1  0  0  0  0
 32 33  1  0  0  0  0
 32 34  1  0  0  0  0
M  END
>  <MODEL>
       1

$$$$
