tmp_first_model_18_84.pdb
 OpenBabel08282502533D

 63 68  0  0  1  0  0  0  0  0999 V2000
   -8.0160   -4.1060  -23.8010 C   0  0  0  0  0  0  0  0  0  0  0  0
   -8.1760   -3.2350  -22.5580 C   0  0  1  0  0  0  0  0  0  0  0  0
   -6.8540   -2.6340  -22.0480 C   0  0  0  0  0  0  0  0  0  0  0  0
   -7.3230   -1.5510  -21.2080 N   0  0  0  0  0  0  0  0  0  0  0  0
   -6.5990   -0.9100  -20.1710 C   0  0  0  0  0  0  0  0  0  0  0  0
   -6.9730   -1.0660  -18.8590 C   0  0  0  0  0  0  0  0  0  0  0  0
   -6.3080   -0.5300  -17.8070 N   0  0  0  0  0  0  0  0  0  0  0  0
   -5.2610    0.2170  -18.0720 C   0  0  0  0  0  0  0  0  0  0  0  0
   -4.7910    0.5020  -19.3860 C   0  0  0  0  0  0  0  0  0  0  0  0
   -3.6730    1.3490  -19.6320 C   0  0  0  0  0  0  0  0  0  0  0  0
   -3.2850    1.6310  -20.9140 C   0  0  0  0  0  0  0  0  0  0  0  0
   -3.9980    1.0950  -22.0090 C   0  0  0  0  0  0  0  0  0  0  0  0
   -5.0700    0.2580  -21.7950 C   0  0  0  0  0  0  0  0  0  0  0  0
   -5.4840   -0.0730  -20.4770 C   0  0  0  0  0  0  0  0  0  0  0  0
   -5.6520   -0.0870  -22.6440 H   0  0  0  0  0  0  0  0  0  0  0  0
   -3.7150    1.3560  -23.0260 H   0  0  0  0  0  0  0  0  0  0  0  0
   -2.4450    2.2970  -21.0970 H   0  0  0  0  0  0  0  0  0  0  0  0
   -3.1540    1.7810  -18.7790 H   0  0  0  0  0  0  0  0  0  0  0  0
   -4.7260    0.6410  -17.2220 H   0  0  0  0  0  0  0  0  0  0  0  0
   -7.8450   -1.6650  -18.6120 H   0  0  0  0  0  0  0  0  0  0  0  0
   -8.5850   -1.1130  -21.5350 C   0  0  0  0  0  0  0  0  0  0  0  0
   -9.0990   -0.1530  -20.9970 O   0  0  0  0  0  0  0  0  0  0  0  0
   -9.1530   -2.0200  -22.6670 C   0  0  1  0  0  0  0  0  0  0  0  0
   -8.9550   -1.3150  -24.0350 C   0  0  0  0  0  0  0  0  0  0  0  0
   -9.9170   -0.2550  -24.2860 N   0  0  0  0  0  0  0  0  0  0  0  0
   -9.4410    0.9150  -25.0240 C   0  0  0  0  0  0  0  0  0  0  0  0
   -8.3570    1.5860  -24.1780 C   0  0  0  0  0  0  0  0  0  0  0  0
   -7.1660    1.5300  -24.4580 O   0  0  0  0  0  0  0  0  0  0  0  0
   -8.8170    2.1670  -23.0410 N   0  0  0  0  0  0  0  0  0  0  0  0
   -7.9260    2.5310  -21.9660 C   0  0  0  0  0  0  0  0  0  0  0  0
   -7.4180    3.9460  -22.0230 C   0  0  0  0  0  0  0  0  0  0  0  0
   -8.4210    4.8790  -22.1040 F   0  0  0  0  0  0  0  0  0  0  0  0
   -6.1450    4.3310  -22.6980 C   0  0  0  0  0  0  0  0  0  0  0  0
   -6.2460    4.3090  -21.1880 C   0  0  0  0  0  0  0  0  0  0  0  0
   -5.7600    3.4920  -20.6630 H   0  0  0  0  0  0  0  0  0  0  0  0
   -6.3030    5.2540  -20.6680 H   0  0  0  0  0  0  0  0  0  0  0  0
   -5.5760    3.5550  -23.2060 H   0  0  0  0  0  0  0  0  0  0  0  0
   -6.1380    5.3040  -23.1740 H   0  0  0  0  0  0  0  0  0  0  0  0
   -8.4450    2.3540  -21.0220 H   0  0  0  0  0  0  0  0  0  0  0  0
   -7.0680    1.8570  -21.9860 H   0  0  0  0  0  0  0  0  0  0  0  0
   -9.7950    2.0840  -22.8140 H   0  0  0  0  0  0  0  0  0  0  0  0
   -9.0070    0.6560  -26.0000 H   0  0  0  0  0  0  0  0  0  0  0  0
  -10.2900    1.5840  -25.1950 H   0  0  0  0  0  0  0  0  0  0  0  0
  -11.2540   -0.5390  -24.2050 C   0  0  0  0  0  0  0  0  0  0  0  0
  -12.1040    0.0270  -24.8800 O   0  0  0  0  0  0  0  0  0  0  0  0
  -11.6210   -1.5620  -23.1720 C   0  0  0  0  0  0  0  0  0  0  0  0
  -12.9830   -1.6770  -22.8720 C   0  0  0  0  0  0  0  0  0  0  0  0
  -13.4340   -2.5830  -21.9370 C   0  0  0  0  0  0  0  0  0  0  0  0
  -12.4860   -3.3940  -21.3300 C   0  0  0  0  0  0  0  0  0  0  0  0
  -12.9200   -4.2610  -20.3950 F   0  0  0  0  0  0  0  0  0  0  0  0
  -11.1310   -3.3230  -21.6210 C   0  0  0  0  0  0  0  0  0  0  0  0
  -10.6480   -2.3360  -22.5060 C   0  0  0  0  0  0  0  0  0  0  0  0
  -10.4960   -4.0290  -21.0920 H   0  0  0  0  0  0  0  0  0  0  0  0
  -14.4850   -2.6790  -21.6750 H   0  0  0  0  0  0  0  0  0  0  0  0
  -13.6860   -1.0280  -23.3850 H   0  0  0  0  0  0  0  0  0  0  0  0
   -9.0490   -2.0610  -24.8320 H   0  0  0  0  0  0  0  0  0  0  0  0
   -7.9600   -0.8690  -24.1050 H   0  0  0  0  0  0  0  0  0  0  0  0
   -6.2220   -2.2670  -22.8750 H   0  0  0  0  0  0  0  0  0  0  0  0
   -6.2570   -3.3500  -21.4760 H   0  0  0  0  0  0  0  0  0  0  0  0
   -8.5530   -3.8560  -21.7390 H   0  0  0  0  0  0  0  0  0  0  0  0
   -7.4730   -3.5840  -24.5980 H   0  0  0  0  0  0  0  0  0  0  0  0
   -7.4580   -5.0180  -23.5720 H   0  0  0  0  0  0  0  0  0  0  0  0
   -8.9880   -4.4070  -24.2060 H   0  0  0  0  0  0  0  0  0  0  0  0
  1  2  1  0  0  0  0
  1 61  1  0  0  0  0
  1 62  1  0  0  0  0
  1 63  1  0  0  0  0
  2  3  1  0  0  0  0
  2 23  1  0  0  0  0
  2 60  1  1  0  0  0
  3  4  1  0  0  0  0
  3 58  1  0  0  0  0
  3 59  1  0  0  0  0
  4  5  1  0  0  0  0
  4 21  1  0  0  0  0
  5  6  2  0  0  0  0
  5 14  1  0  0  0  0
  6  7  1  0  0  0  0
  6 20  1  0  0  0  0
  7  8  2  0  0  0  0
  8  9  1  0  0  0  0
  8 19  1  0  0  0  0
  9 10  2  0  0  0  0
  9 14  1  0  0  0  0
 10 11  1  0  0  0  0
 10 18  1  0  0  0  0
 11 12  2  0  0  0  0
 11 17  1  0  0  0  0
 12 13  1  0  0  0  0
 12 16  1  0  0  0  0
 13 14  2  0  0  0  0
 13 15  1  0  0  0  0
 21 22  2  0  0  0  0
 23 21  1  1  0  0  0
 23 24  1  0  0  0  0
 23 52  1  0  0  0  0
 24 25  1  0  0  0  0
 24 56  1  0  0  0  0
 24 57  1  0  0  0  0
 25 26  1  0  0  0  0
 25 44  1  0  0  0  0
 26 27  1  0  0  0  0
 26 42  1  0  0  0  0
 26 43  1  0  0  0  0
 27 28  2  0  0  0  0
 27 29  1  0  0  0  0
 29 30  1  0  0  0  0
 29 41  1  0  0  0  0
 30 31  1  0  0  0  0
 30 39  1  0  0  0  0
 30 40  1  0  0  0  0
 31 32  1  0  0  0  0
 31 33  1  0  0  0  0
 31 34  1  0  0  0  0
 33 34  1  0  0  0  0
 33 37  1  0  0  0  0
 33 38  1  0  0  0  0
 34 35  1  0  0  0  0
 34 36  1  0  0  0  0
 44 45  2  0  0  0  0
 44 46  1  0  0  0  0
 46 47  2  0  0  0  0
 46 52  1  0  0  0  0
 47 48  1  0  0  0  0
 47 55  1  0  0  0  0
 48 49  2  0  0  0  0
 48 54  1  0  0  0  0
 49 50  1  0  0  0  0
 49 51  1  0  0  0  0
 51 52  2  0  0  0  0
 51 53  1  0  0  0  0
M  END
>  <MODEL>
       1

$$$$
