tmp_first_model_8_60.pdb
 OpenBabel08272521063D

 62 67  0  0  1  0  0  0  0  0999 V2000
  -11.6800    4.5910  -22.6340 C   0  0  0  0  0  0  0  0  0  0  0  0
  -11.5340    2.4330  -21.6730 C   0  0  0  0  0  0  0  0  0  0  0  0
  -11.0910    3.3180  -22.7670 N   0  0  0  0  0  0  0  0  0  0  0  0
  -12.7950    4.9430  -23.1520 N   0  0  0  0  0  0  0  0  0  0  0  0
  -13.4490    3.9810  -23.9160 C   0  0  0  0  0  0  0  0  0  0  0  0
  -12.8520    2.8590  -24.3500 C   0  0  0  0  0  0  0  0  0  0  0  0
  -11.3840    2.8130  -24.1240 C   0  0  0  0  0  0  0  0  0  0  0  0
  -10.5700    1.5900  -24.5860 C   0  0  0  0  0  0  0  0  0  0  0  0
  -10.7290    0.2480  -24.0330 N   0  0  0  0  0  0  0  0  0  0  0  0
   -9.6130   -0.6390  -24.3650 C   0  0  0  0  0  0  0  0  0  0  0  0
   -9.4160   -1.7200  -23.2710 C   0  0  2  0  0  0  0  0  0  0  0  0
   -8.9860   -0.9690  -21.9880 C   0  0  0  0  0  0  0  0  0  0  0  0
   -9.7180   -0.4070  -21.1980 O   0  0  0  0  0  0  0  0  0  0  0  0
   -7.6130   -1.0030  -21.8920 N   0  0  0  0  0  0  0  0  0  0  0  0
   -6.9620   -0.6190  -20.7020 C   0  0  0  0  0  0  0  0  0  0  0  0
   -7.4180   -1.0650  -19.4820 C   0  0  0  0  0  0  0  0  0  0  0  0
   -6.8380   -0.7690  -18.2940 N   0  0  0  0  0  0  0  0  0  0  0  0
   -5.7770    0.0020  -18.3160 C   0  0  0  0  0  0  0  0  0  0  0  0
   -5.1910    0.5170  -19.5050 C   0  0  0  0  0  0  0  0  0  0  0  0
   -4.0130    1.3100  -19.4740 C   0  0  0  0  0  0  0  0  0  0  0  0
   -3.4550    1.7620  -20.6370 C   0  0  0  0  0  0  0  0  0  0  0  0
   -4.0700    1.4820  -21.8770 C   0  0  0  0  0  0  0  0  0  0  0  0
   -5.2260    0.7450  -21.9300 C   0  0  0  0  0  0  0  0  0  0  0  0
   -5.7970    0.2130  -20.7430 C   0  0  0  0  0  0  0  0  0  0  0  0
   -5.7120    0.5790  -22.8850 H   0  0  0  0  0  0  0  0  0  0  0  0
   -3.6200    1.8460  -22.7940 H   0  0  0  0  0  0  0  0  0  0  0  0
   -2.5370    2.3440  -20.6170 H   0  0  0  0  0  0  0  0  0  0  0  0
   -3.5750    1.5460  -18.5090 H   0  0  0  0  0  0  0  0  0  0  0  0
   -5.3200    0.2450  -17.3570 H   0  0  0  0  0  0  0  0  0  0  0  0
   -8.2910   -1.7120  -19.4290 H   0  0  0  0  0  0  0  0  0  0  0  0
   -6.9990   -1.7410  -22.9950 C   0  0  0  0  0  0  0  0  0  0  0  0
   -8.1630   -2.6060  -23.5190 C   0  0  2  0  0  0  0  0  0  0  0  0
   -7.9680   -3.1240  -24.9380 C   0  0  0  0  0  0  0  0  0  0  0  0
   -7.7870   -2.2960  -25.6330 H   0  0  0  0  0  0  0  0  0  0  0  0
   -7.1200   -3.8100  -24.9970 H   0  0  0  0  0  0  0  0  0  0  0  0
   -8.8570   -3.6570  -25.2920 H   0  0  0  0  0  0  0  0  0  0  0  0
   -8.1930   -3.4510  -22.8220 H   0  0  0  0  0  0  0  0  0  0  0  0
   -6.6460   -1.0650  -23.7850 H   0  0  0  0  0  0  0  0  0  0  0  0
   -6.1480   -2.3270  -22.6380 H   0  0  0  0  0  0  0  0  0  0  0  0
  -10.7460   -2.4440  -23.0080 C   0  0  0  0  0  0  0  0  0  0  0  0
  -10.6510   -3.6680  -22.4570 C   0  0  0  0  0  0  0  0  0  0  0  0
  -13.0900   -3.5780  -22.6750 C   0  0  0  0  0  0  0  0  0  0  0  0
  -11.0900   -3.9790  -21.2290 F   0  0  0  0  0  0  0  0  0  0  0  0
  -13.2840   -3.7140  -22.6880 C   0  0  0  0  0  0  0  0  0  0  0  0
  -13.1340   -2.2440  -22.8600 C   0  0  0  0  0  0  0  0  0  0  0  0
  -11.8760   -1.6610  -23.1120 C   0  0  0  0  0  0  0  0  0  0  0  0
  -11.9270   -0.3020  -23.6290 C   0  0  0  0  0  0  0  0  0  0  0  0
  -13.0070    0.2780  -23.6760 O   0  0  0  0  0  0  0  0  0  0  0  0
  -13.8960   -1.6450  -22.4890 H   0  0  0  0  0  0  0  0  0  0  0  0
  -14.1950   -3.6190  -22.0500 H   0  0  0  0  0  0  0  0  0  0  0  0
  -10.2690   -4.5710  -22.8960 H   0  0  0  0  0  0  0  0  0  0  0  0
   -8.7060   -0.0280  -24.4200 H   0  0  0  0  0  0  0  0  0  0  0  0
   -9.7560   -1.1050  -25.3530 H   0  0  0  0  0  0  0  0  0  0  0  0
  -10.6660    1.5460  -25.6800 H   0  0  0  0  0  0  0  0  0  0  0  0
   -9.5290    1.8690  -24.3880 H   0  0  0  0  0  0  0  0  0  0  0  0
  -13.3730    2.0570  -24.8360 H   0  0  0  0  0  0  0  0  0  0  0  0
  -14.4630    4.2310  -24.2140 H   0  0  0  0  0  0  0  0  0  0  0  0
  -10.7010    1.8140  -21.3280 H   0  0  0  0  0  0  0  0  0  0  0  0
  -11.9060    3.0400  -20.8420 H   0  0  0  0  0  0  0  0  0  0  0  0
  -11.1490    5.2750  -21.9740 H   0  0  0  0  0  0  0  0  0  0  0  0
  -10.9640    3.5920  -24.7830 H   0  0  0  0  0  0  0  0  0  0  0  0
  -12.3450    1.7770  -22.0110 H   0  0  0  0  0  0  0  0  0  0  0  0
  1  2  1  0  0  0  0
  1 60  1  0  0  0  0
  1 61  1  0  0  0  0
  1 62  1  0  0  0  0
  2  3  1  0  0  0  0
  2 58  1  0  0  0  0
  2 59  1  0  0  0  0
  3  4  1  0  0  0  0
  3  7  1  0  0  0  0
  4  5  2  0  0  0  0
  5  6  1  0  0  0  0
  5 57  1  0  0  0  0
  6  7  2  0  0  0  0
  6 56  1  0  0  0  0
  7  8  1  0  0  0  0
  8  9  1  0  0  0  0
  8 54  1  0  0  0  0
  8 55  1  0  0  0  0
  9 10  1  0  0  0  0
  9 47  1  0  0  0  0
 10 11  1  0  0  0  0
 10 52  1  0  0  0  0
 10 53  1  0  0  0  0
 11 12  1  1  0  0  0
 11 32  1  0  0  0  0
 11 40  1  0  0  0  0
 12 13  2  0  0  0  0
 12 14  1  0  0  0  0
 14 15  1  0  0  0  0
 14 31  1  0  0  0  0
 15 16  2  0  0  0  0
 15 24  1  0  0  0  0
 16 17  1  0  0  0  0
 16 30  1  0  0  0  0
 17 18  2  0  0  0  0
 18 19  1  0  0  0  0
 18 29  1  0  0  0  0
 19 20  2  0  0  0  0
 19 24  1  0  0  0  0
 20 21  1  0  0  0  0
 20 28  1  0  0  0  0
 21 22  2  0  0  0  0
 21 27  1  0  0  0  0
 22 23  1  0  0  0  0
 22 26  1  0  0  0  0
 23 24  2  0  0  0  0
 23 25  1  0  0  0  0
 31 32  1  0  0  0  0
 31 38  1  0  0  0  0
 31 39  1  0  0  0  0
 32 33  1  0  0  0  0
 32 37  1  1  0  0  0
 33 34  1  0  0  0  0
 33 35  1  0  0  0  0
 33 36  1  0  0  0  0
 40 41  2  0  0  0  0
 40 46  1  0  0  0  0
 41 42  1  0  0  0  0
 41 51  1  0  0  0  0
 42 43  1  0  0  0  0
 42 44  2  0  0  0  0
 44 45  1  0  0  0  0
 44 50  1  0  0  0  0
 45 46  2  0  0  0  0
 45 49  1  0  0  0  0
 46 47  1  0  0  0  0
 47 48  2  0  0  0  0
M  END
>  <MODEL>
       1

$$$$
