tmp_first_model_14_63.pdb
 OpenBabel08282500413D

 57 61  0  0  1  0  0  0  0  0999 V2000
   -8.1470   -5.6890  -27.6060 C   0  0  0  0  0  0  0  0  0  0  0  0
   -8.3750   -4.2650  -27.4430 N   0  0  0  0  0  0  0  0  0  0  0  0
   -7.3700   -3.4680  -27.0340 C   0  0  0  0  0  0  0  0  0  0  0  0
   -6.2630   -3.9080  -26.7140 O   0  0  0  0  0  0  0  0  0  0  0  0
   -7.7120   -1.9820  -26.9000 C   0  0  0  0  0  0  0  0  0  0  0  0
   -8.5770   -1.7370  -25.7500 N   0  0  0  0  0  0  0  0  0  0  0  0
   -8.0140   -1.2440  -24.4970 C   0  0  0  0  0  0  0  0  0  0  0  0
   -8.8500   -1.5710  -23.2200 C   0  0  2  0  0  0  0  0  0  0  0  0
   -8.3510   -0.5720  -22.1520 C   0  0  0  0  0  0  0  0  0  0  0  0
   -8.6100    0.6100  -22.0660 O   0  0  0  0  0  0  0  0  0  0  0  0
   -7.4730   -1.2420  -21.3150 N   0  0  0  0  0  0  0  0  0  0  0  0
   -6.6800   -0.6520  -20.2990 C   0  0  0  0  0  0  0  0  0  0  0  0
   -6.9840   -0.9310  -18.9910 C   0  0  0  0  0  0  0  0  0  0  0  0
   -6.3080   -0.4520  -17.9230 N   0  0  0  0  0  0  0  0  0  0  0  0
   -5.2530    0.2840  -18.1660 C   0  0  0  0  0  0  0  0  0  0  0  0
   -4.7740    0.5900  -19.4690 C   0  0  0  0  0  0  0  0  0  0  0  0
   -3.6030    1.3680  -19.6620 C   0  0  0  0  0  0  0  0  0  0  0  0
   -3.1470    1.6260  -20.9240 C   0  0  0  0  0  0  0  0  0  0  0  0
   -3.8250    1.1000  -22.0460 C   0  0  0  0  0  0  0  0  0  0  0  0
   -4.9610    0.3470  -21.8820 C   0  0  0  0  0  0  0  0  0  0  0  0
   -5.4860    0.0930  -20.5850 C   0  0  0  0  0  0  0  0  0  0  0  0
   -5.4610   -0.0650  -22.7520 H   0  0  0  0  0  0  0  0  0  0  0  0
   -3.4460    1.3040  -23.0420 H   0  0  0  0  0  0  0  0  0  0  0  0
   -2.2660    2.2410  -21.0710 H   0  0  0  0  0  0  0  0  0  0  0  0
   -3.0960    1.7620  -18.7860 H   0  0  0  0  0  0  0  0  0  0  0  0
   -4.7150    0.6640  -17.3020 H   0  0  0  0  0  0  0  0  0  0  0  0
   -7.8410   -1.5660  -18.7700 H   0  0  0  0  0  0  0  0  0  0  0  0
   -7.3550   -2.6600  -21.5760 C   0  0  0  0  0  0  0  0  0  0  0  0
   -8.5140   -2.9380  -22.5290 C   0  0  2  0  0  0  0  0  0  0  0  0
   -8.2620   -4.1140  -23.4640 C   0  0  0  0  0  0  0  0  0  0  0  0
   -6.9140   -4.0860  -23.8830 O   0  0  0  0  0  0  0  0  0  0  0  0
   -6.8190   -4.2560  -24.8310 H   0  0  0  0  0  0  0  0  0  0  0  0
   -8.4580   -5.0560  -22.9300 H   0  0  0  0  0  0  0  0  0  0  0  0
   -8.9610   -4.0490  -24.3080 H   0  0  0  0  0  0  0  0  0  0  0  0
   -9.3980   -3.1790  -21.9230 H   0  0  0  0  0  0  0  0  0  0  0  0
   -6.3920   -2.9040  -22.0410 H   0  0  0  0  0  0  0  0  0  0  0  0
   -7.4320   -3.2230  -20.6400 H   0  0  0  0  0  0  0  0  0  0  0  0
  -10.3350   -1.4870  -23.5180 C   0  0  0  0  0  0  0  0  0  0  0  0
  -11.2870   -1.4750  -22.4840 C   0  0  0  0  0  0  0  0  0  0  0  0
  -12.6410   -1.4740  -22.7870 C   0  0  0  0  0  0  0  0  0  0  0  0
  -13.8440   -1.5930  -21.5420 Cl  0  0  0  0  0  0  0  0  0  0  0  0
  -13.0990   -1.5160  -24.1020 C   0  0  0  0  0  0  0  0  0  0  0  0
  -12.1630   -1.5780  -25.1050 C   0  0  0  0  0  0  0  0  0  0  0  0
  -10.8080   -1.5880  -24.8250 C   0  0  0  0  0  0  0  0  0  0  0  0
   -9.9070   -1.8660  -25.9680 C   0  0  0  0  0  0  0  0  0  0  0  0
  -10.3450   -2.2630  -27.0520 O   0  0  0  0  0  0  0  0  0  0  0  0
  -12.4460   -1.6840  -26.1400 H   0  0  0  0  0  0  0  0  0  0  0  0
  -14.1560   -1.5750  -24.3150 H   0  0  0  0  0  0  0  0  0  0  0  0
  -10.9720   -1.5300  -21.4480 H   0  0  0  0  0  0  0  0  0  0  0  0
   -7.0150   -1.6840  -24.3870 H   0  0  0  0  0  0  0  0  0  0  0  0
   -7.9260   -0.1500  -24.5410 H   0  0  0  0  0  0  0  0  0  0  0  0
   -6.7910   -1.4030  -26.8230 H   0  0  0  0  0  0  0  0  0  0  0  0
   -8.2600   -1.6510  -27.7860 H   0  0  0  0  0  0  0  0  0  0  0  0
   -9.2990   -3.8610  -27.5670 H   0  0  0  0  0  0  0  0  0  0  0  0
   -7.7330   -6.1270  -26.6890 H   0  0  0  0  0  0  0  0  0  0  0  0
   -9.0920   -6.1800  -27.8410 H   0  0  0  0  0  0  0  0  0  0  0  0
   -7.4350   -5.8770  -28.4160 H   0  0  0  0  0  0  0  0  0  0  0  0
  1  2  1  0  0  0  0
  1 55  1  0  0  0  0
  1 56  1  0  0  0  0
  1 57  1  0  0  0  0
  2  3  1  0  0  0  0
  2 54  1  0  0  0  0
  3  4  2  0  0  0  0
  3  5  1  0  0  0  0
  5  6  1  0  0  0  0
  5 52  1  0  0  0  0
  5 53  1  0  0  0  0
  6  7  1  0  0  0  0
  6 45  1  0  0  0  0
  7  8  1  0  0  0  0
  7 50  1  0  0  0  0
  7 51  1  0  0  0  0
  8  9  1  1  0  0  0
  8 29  1  0  0  0  0
  8 38  1  0  0  0  0
  9 10  2  0  0  0  0
  9 11  1  0  0  0  0
 11 12  1  0  0  0  0
 11 28  1  0  0  0  0
 12 13  2  0  0  0  0
 12 21  1  0  0  0  0
 13 14  1  0  0  0  0
 13 27  1  0  0  0  0
 14 15  2  0  0  0  0
 15 16  1  0  0  0  0
 15 26  1  0  0  0  0
 16 17  2  0  0  0  0
 16 21  1  0  0  0  0
 17 18  1  0  0  0  0
 17 25  1  0  0  0  0
 18 19  2  0  0  0  0
 18 24  1  0  0  0  0
 19 20  1  0  0  0  0
 19 23  1  0  0  0  0
 20 21  2  0  0  0  0
 20 22  1  0  0  0  0
 28 29  1  0  0  0  0
 28 36  1  0  0  0  0
 28 37  1  0  0  0  0
 29 30  1  0  0  0  0
 29 35  1  1  0  0  0
 30 31  1  0  0  0  0
 30 33  1  0  0  0  0
 30 34  1  0  0  0  0
 31 32  1  0  0  0  0
 38 39  2  0  0  0  0
 38 44  1  0  0  0  0
 39 40  1  0  0  0  0
 39 49  1  0  0  0  0
 40 41  1  0  0  0  0
 40 42  2  0  0  0  0
 42 43  1  0  0  0  0
 42 48  1  0  0  0  0
 43 44  2  0  0  0  0
 43 47  1  0  0  0  0
 44 45  1  0  0  0  0
 45 46  2  0  0  0  0
M  END
>  <MODEL>
       1

$$$$
