tmp_first_model_9_12.pdb
 OpenBabel08272521403D

 76 82  0  0  1  0  0  0  0  0999 V2000
  -11.0050    1.6500  -24.9150 O   0  0  0  0  0  0  0  0  0  0  0  0
  -10.4540    0.6580  -24.4490 C   0  0  0  0  0  0  0  0  0  0  0  0
  -11.1330   -0.2290  -23.4490 C   0  0  0  0  0  0  0  0  0  0  0  0
  -12.4950   -0.0250  -23.2200 C   0  0  0  0  0  0  0  0  0  0  0  0
  -13.2320   -0.9130  -22.4600 C   0  0  0  0  0  0  0  0  0  0  0  0
  -12.5520   -1.9850  -21.8830 C   0  0  0  0  0  0  0  0  0  0  0  0
  -13.4320   -3.1890  -20.9890 Cl  0  0  0  0  0  0  0  0  0  0  0  0
  -11.1810   -2.1340  -22.0010 C   0  0  0  0  0  0  0  0  0  0  0  0
  -10.4430   -1.2730  -22.8180 C   0  0  0  0  0  0  0  0  0  0  0  0
   -8.9420   -1.4340  -23.0360 C   0  0  1  0  0  0  0  0  0  0  0  0
   -8.6670   -1.0210  -24.5070 C   0  0  0  0  0  0  0  0  0  0  0  0
   -9.2000    0.2860  -24.8230 N   0  0  0  0  0  0  0  0  0  0  0  0
   -8.4600    1.2140  -25.6540 C   0  0  0  0  0  0  0  0  0  0  0  0
   -7.8290    2.3210  -24.8110 C   0  0  0  0  0  0  0  0  0  0  0  0
   -7.1750    3.3960  -25.6150 N   0  3  0  0  0  0  0  0  0  0  0  0
   -8.1450    4.2910  -26.3440 C   0  0  0  0  0  0  0  0  0  0  0  0
   -7.3830    5.4160  -27.0290 C   0  0  0  0  0  0  0  0  0  0  0  0
   -6.3930    4.9270  -27.9130 O   0  0  0  0  0  0  0  0  0  0  0  0
   -5.4460    4.1340  -27.2200 C   0  0  0  0  0  0  0  0  0  0  0  0
   -6.0880    2.9250  -26.5520 C   0  0  0  0  0  0  0  0  0  0  0  0
   -5.3490    2.3520  -25.9830 H   0  0  0  0  0  0  0  0  0  0  0  0
   -6.5250    2.2800  -27.3150 H   0  0  0  0  0  0  0  0  0  0  0  0
   -4.9530    4.7390  -26.4410 H   0  0  0  0  0  0  0  0  0  0  0  0
   -4.6970    3.8170  -27.9510 H   0  0  0  0  0  0  0  0  0  0  0  0
   -6.9150    6.0430  -26.2510 H   0  0  0  0  0  0  0  0  0  0  0  0
   -8.0660    6.0340  -27.6190 H   0  0  0  0  0  0  0  0  0  0  0  0
   -8.6810    3.7050  -27.0930 H   0  0  0  0  0  0  0  0  0  0  0  0
   -8.8670    4.6920  -25.6260 H   0  0  0  0  0  0  0  0  0  0  0  0
   -6.7000    4.0030  -24.9180 H   0  0  0  0  0  0  0  0  0  0  0  0
   -7.0800    1.8970  -24.1350 H   0  0  0  0  0  0  0  0  0  0  0  0
   -8.6010    2.7940  -24.1980 H   0  0  0  0  0  0  0  0  0  0  0  0
   -9.1580    1.6400  -26.3800 H   0  0  0  0  0  0  0  0  0  0  0  0
   -7.6890    0.6650  -26.2020 H   0  0  0  0  0  0  0  0  0  0  0  0
   -9.1150   -1.7750  -25.1720 H   0  0  0  0  0  0  0  0  0  0  0  0
   -7.5960   -0.9970  -24.7020 H   0  0  0  0  0  0  0  0  0  0  0  0
   -8.1520   -0.5180  -22.0720 C   0  0  0  0  0  0  0  0  0  0  0  0
   -8.1620    0.6960  -22.0440 O   0  0  0  0  0  0  0  0  0  0  0  0
   -7.4020   -1.3130  -21.2360 N   0  0  0  0  0  0  0  0  0  0  0  0
   -6.5960   -0.7890  -20.2070 C   0  0  0  0  0  0  0  0  0  0  0  0
   -6.8860   -1.0700  -18.8960 C   0  0  0  0  0  0  0  0  0  0  0  0
   -6.2010   -0.5780  -17.8400 N   0  0  0  0  0  0  0  0  0  0  0  0
   -5.1820    0.2050  -18.0940 C   0  0  0  0  0  0  0  0  0  0  0  0
   -4.7420    0.5300  -19.4060 C   0  0  0  0  0  0  0  0  0  0  0  0
   -3.6160    1.3640  -19.6240 C   0  0  0  0  0  0  0  0  0  0  0  0
   -3.1920    1.6390  -20.8940 C   0  0  0  0  0  0  0  0  0  0  0  0
   -3.8690    1.0880  -22.0040 C   0  0  0  0  0  0  0  0  0  0  0  0
   -4.9610    0.2800  -21.8190 C   0  0  0  0  0  0  0  0  0  0  0  0
   -5.4470    0.0050  -20.5090 C   0  0  0  0  0  0  0  0  0  0  0  0
   -5.4710   -0.1440  -22.6790 H   0  0  0  0  0  0  0  0  0  0  0  0
   -3.5180    1.3000  -23.0100 H   0  0  0  0  0  0  0  0  0  0  0  0
   -2.3340    2.2820  -21.0590 H   0  0  0  0  0  0  0  0  0  0  0  0
   -3.1120    1.7810  -18.7570 H   0  0  0  0  0  0  0  0  0  0  0  0
   -4.6410    0.6130  -17.2410 H   0  0  0  0  0  0  0  0  0  0  0  0
   -7.7360   -1.7030  -18.6510 H   0  0  0  0  0  0  0  0  0  0  0  0
   -7.7210   -2.7200  -21.3260 C   0  0  0  0  0  0  0  0  0  0  0  0
   -8.4230   -2.8610  -22.6870 C   0  0  2  0  0  0  0  0  0  0  0  0
   -7.5300   -3.5300  -23.7500 C   0  0  0  0  0  0  0  0  0  0  0  0
   -7.1600   -4.8820  -23.3990 N   0  0  0  0  0  0  0  0  0  0  0  0
   -7.9660   -5.9530  -23.6070 C   0  0  0  0  0  0  0  0  0  0  0  0
   -7.4940   -7.1410  -23.1640 N   0  0  0  0  0  0  0  0  0  0  0  0
   -8.2900   -8.1820  -23.3530 C   0  0  0  0  0  0  0  0  0  0  0  0
   -9.5280   -8.0910  -23.9810 C   0  0  0  0  0  0  0  0  0  0  0  0
   -9.8910   -6.8300  -24.4210 C   0  0  0  0  0  0  0  0  0  0  0  0
   -9.1360   -5.7470  -24.2330 N   0  0  0  0  0  0  0  0  0  0  0  0
  -10.8400   -6.6760  -24.9320 H   0  0  0  0  0  0  0  0  0  0  0  0
  -10.2160   -8.9200  -24.0720 H   0  0  0  0  0  0  0  0  0  0  0  0
   -7.9240   -9.1310  -22.9640 H   0  0  0  0  0  0  0  0  0  0  0  0
   -6.2750   -5.0730  -22.9630 H   0  0  0  0  0  0  0  0  0  0  0  0
   -6.6210   -2.9440  -23.9200 H   0  0  0  0  0  0  0  0  0  0  0  0
   -8.0880   -3.6100  -24.6860 H   0  0  0  0  0  0  0  0  0  0  0  0
   -9.2700   -3.5440  -22.6110 H   0  0  0  0  0  0  0  0  0  0  0  0
   -6.8060   -3.3120  -21.2370 H   0  0  0  0  0  0  0  0  0  0  0  0
   -8.3920   -3.0170  -20.5100 H   0  0  0  0  0  0  0  0  0  0  0  0
  -10.7170   -2.9380  -21.4380 H   0  0  0  0  0  0  0  0  0  0  0  0
  -14.3050   -0.7860  -22.3200 H   0  0  0  0  0  0  0  0  0  0  0  0
  -12.9570    0.8370  -23.6880 H   0  0  0  0  0  0  0  0  0  0  0  0
  1  2  2  0  0  0  0
  2  3  1  0  0  0  0
  2 12  1  0  0  0  0
  3  4  2  0  0  0  0
  3  9  1  0  0  0  0
  4  5  1  0  0  0  0
  4 76  1  0  0  0  0
  5  6  2  0  0  0  0
  5 75  1  0  0  0  0
  6  7  1  0  0  0  0
  6  8  1  0  0  0  0
  8  9  2  0  0  0  0
  8 74  1  0  0  0  0
 10  9  1  1  0  0  0
 10 11  1  0  0  0  0
 10 36  1  0  0  0  0
 10 56  1  0  0  0  0
 11 12  1  0  0  0  0
 11 34  1  0  0  0  0
 11 35  1  0  0  0  0
 12 13  1  0  0  0  0
 13 14  1  0  0  0  0
 13 32  1  0  0  0  0
 13 33  1  0  0  0  0
 14 15  1  0  0  0  0
 14 30  1  0  0  0  0
 14 31  1  0  0  0  0
 15 16  1  0  0  0  0
 15 20  1  0  0  0  0
 15 29  1  0  0  0  0
 16 17  1  0  0  0  0
 16 27  1  0  0  0  0
 16 28  1  0  0  0  0
 17 18  1  0  0  0  0
 17 25  1  0  0  0  0
 17 26  1  0  0  0  0
 18 19  1  0  0  0  0
 19 20  1  0  0  0  0
 19 23  1  0  0  0  0
 19 24  1  0  0  0  0
 20 21  1  0  0  0  0
 20 22  1  0  0  0  0
 36 37  2  0  0  0  0
 36 38  1  0  0  0  0
 38 39  1  0  0  0  0
 38 55  1  0  0  0  0
 39 40  2  0  0  0  0
 39 48  1  0  0  0  0
 40 41  1  0  0  0  0
 40 54  1  0  0  0  0
 41 42  2  0  0  0  0
 42 43  1  0  0  0  0
 42 53  1  0  0  0  0
 43 44  2  0  0  0  0
 43 48  1  0  0  0  0
 44 45  1  0  0  0  0
 44 52  1  0  0  0  0
 45 46  2  0  0  0  0
 45 51  1  0  0  0  0
 46 47  1  0  0  0  0
 46 50  1  0  0  0  0
 47 48  2  0  0  0  0
 47 49  1  0  0  0  0
 55 56  1  0  0  0  0
 55 72  1  0  0  0  0
 55 73  1  0  0  0  0
 56 57  1  0  0  0  0
 56 71  1  1  0  0  0
 57 58  1  0  0  0  0
 57 69  1  0  0  0  0
 57 70  1  0  0  0  0
 58 59  1  0  0  0  0
 58 68  1  0  0  0  0
 59 60  2  0  0  0  0
 59 64  1  0  0  0  0
 60 61  1  0  0  0  0
 61 62  2  0  0  0  0
 61 67  1  0  0  0  0
 62 63  1  0  0  0  0
 62 66  1  0  0  0  0
 63 64  2  0  0  0  0
 63 65  1  0  0  0  0
M  CHG  1  15   1
M  END
>  <MODEL>
       1

$$$$
