tmp_first_model_3_21.pdb
 OpenBabel08272518143D

 63 68  0  0  1  0  0  0  0  0999 V2000
   -8.3270   -4.1420  -23.4780 C   0  0  0  0  0  0  0  0  0  0  0  0
   -8.5480   -2.9850  -22.5180 C   0  0  1  0  0  0  0  0  0  0  0  0
   -7.4120   -2.8080  -21.4990 C   0  0  0  0  0  0  0  0  0  0  0  0
   -7.4320   -1.3900  -21.2120 N   0  0  0  0  0  0  0  0  0  0  0  0
   -6.6220   -0.8120  -20.2040 C   0  0  0  0  0  0  0  0  0  0  0  0
   -6.9160   -1.0650  -18.8860 C   0  0  0  0  0  0  0  0  0  0  0  0
   -6.2370   -0.5580  -17.8290 N   0  0  0  0  0  0  0  0  0  0  0  0
   -5.2050    0.2070  -18.0960 C   0  0  0  0  0  0  0  0  0  0  0  0
   -4.7630    0.5140  -19.4140 C   0  0  0  0  0  0  0  0  0  0  0  0
   -3.6250    1.3350  -19.6310 C   0  0  0  0  0  0  0  0  0  0  0  0
   -3.1950    1.6060  -20.9000 C   0  0  0  0  0  0  0  0  0  0  0  0
   -3.8800    1.0650  -22.0100 C   0  0  0  0  0  0  0  0  0  0  0  0
   -4.9870    0.2730  -21.8270 C   0  0  0  0  0  0  0  0  0  0  0  0
   -5.4730   -0.0110  -20.5150 C   0  0  0  0  0  0  0  0  0  0  0  0
   -5.5020   -0.1240  -22.6950 H   0  0  0  0  0  0  0  0  0  0  0  0
   -3.5300    1.2850  -23.0150 H   0  0  0  0  0  0  0  0  0  0  0  0
   -2.3300    2.2440  -21.0610 H   0  0  0  0  0  0  0  0  0  0  0  0
   -3.1190    1.7480  -18.7630 H   0  0  0  0  0  0  0  0  0  0  0  0
   -4.6450    0.6140  -17.2530 H   0  0  0  0  0  0  0  0  0  0  0  0
   -7.7690   -1.6970  -18.6410 H   0  0  0  0  0  0  0  0  0  0  0  0
   -8.1450   -0.6420  -22.1220 C   0  0  0  0  0  0  0  0  0  0  0  0
   -8.2280    0.5690  -22.0790 O   0  0  0  0  0  0  0  0  0  0  0  0
   -8.7550   -1.5810  -23.1870 C   0  0  1  0  0  0  0  0  0  0  0  0
   -7.9960   -1.3250  -24.5050 C   0  0  0  0  0  0  0  0  0  0  0  0
   -8.6440   -1.8780  -25.6870 N   0  0  0  0  0  0  0  0  0  0  0  0
   -7.8370   -2.2340  -26.8390 C   0  0  0  0  0  0  0  0  0  0  0  0
   -7.7920   -3.7520  -27.0240 C   0  0  0  0  0  0  0  0  0  0  0  0
   -6.9530   -4.4480  -26.4640 O   0  0  0  0  0  0  0  0  0  0  0  0
   -8.7420   -4.2480  -27.8720 N   0  0  0  0  0  0  0  0  0  0  0  0
   -8.9060   -5.6890  -28.0240 C   0  0  0  0  0  0  0  0  0  0  0  0
   -9.5040   -6.3520  -26.7970 C   0  0  0  0  0  0  0  0  0  0  0  0
   -9.5390   -7.8440  -26.6410 C   0  0  0  0  0  0  0  0  0  0  0  0
   -8.6350   -7.0140  -25.7670 C   0  0  0  0  0  0  0  0  0  0  0  0
   -8.8860   -6.8780  -24.7130 H   0  0  0  0  0  0  0  0  0  0  0  0
   -7.5680   -7.0540  -25.9890 H   0  0  0  0  0  0  0  0  0  0  0  0
   -9.0790   -8.4700  -27.4070 H   0  0  0  0  0  0  0  0  0  0  0  0
  -10.4390   -8.2680  -26.1930 H   0  0  0  0  0  0  0  0  0  0  0  0
  -10.3940   -5.8660  -26.4080 H   0  0  0  0  0  0  0  0  0  0  0  0
   -9.5400   -5.8670  -28.9030 H   0  0  0  0  0  0  0  0  0  0  0  0
   -7.9250   -6.1240  -28.2450 H   0  0  0  0  0  0  0  0  0  0  0  0
   -9.5330   -3.6550  -28.0870 H   0  0  0  0  0  0  0  0  0  0  0  0
   -6.8250   -1.8560  -26.6820 H   0  0  0  0  0  0  0  0  0  0  0  0
   -8.2800   -1.7580  -27.7190 H   0  0  0  0  0  0  0  0  0  0  0  0
   -9.9830   -1.7930  -25.9030 C   0  0  0  0  0  0  0  0  0  0  0  0
  -10.4890   -2.0630  -26.9950 O   0  0  0  0  0  0  0  0  0  0  0  0
  -10.7870   -1.3850  -24.7340 C   0  0  0  0  0  0  0  0  0  0  0  0
  -12.1450   -1.1670  -24.9500 C   0  0  0  0  0  0  0  0  0  0  0  0
  -12.9720   -0.8530  -23.8970 C   0  0  0  0  0  0  0  0  0  0  0  0
  -12.3870   -0.7520  -22.6410 C   0  0  0  0  0  0  0  0  0  0  0  0
  -13.1950   -0.4350  -21.6290 F   0  0  0  0  0  0  0  0  0  0  0  0
  -11.0450   -0.9700  -22.3930 C   0  0  0  0  0  0  0  0  0  0  0  0
  -10.2120   -1.2840  -23.4620 C   0  0  0  0  0  0  0  0  0  0  0  0
  -10.6300   -0.9180  -21.3930 H   0  0  0  0  0  0  0  0  0  0  0  0
  -14.0440   -0.7040  -23.9970 H   0  0  0  0  0  0  0  0  0  0  0  0
  -12.5180   -1.2910  -25.9600 H   0  0  0  0  0  0  0  0  0  0  0  0
   -7.8920   -0.2360  -24.6000 H   0  0  0  0  0  0  0  0  0  0  0  0
   -6.9950   -1.7570  -24.4520 H   0  0  0  0  0  0  0  0  0  0  0  0
   -7.5780   -3.3820  -20.5810 H   0  0  0  0  0  0  0  0  0  0  0  0
   -6.4330   -3.1090  -21.9030 H   0  0  0  0  0  0  0  0  0  0  0  0
   -9.4680   -3.1720  -21.9430 H   0  0  0  0  0  0  0  0  0  0  0  0
   -9.1460   -4.1990  -24.2020 H   0  0  0  0  0  0  0  0  0  0  0  0
   -8.2830   -5.0960  -22.9410 H   0  0  0  0  0  0  0  0  0  0  0  0
   -7.3950   -4.0260  -24.0390 H   0  0  0  0  0  0  0  0  0  0  0  0
  1  2  1  0  0  0  0
  1 61  1  0  0  0  0
  1 62  1  0  0  0  0
  1 63  1  0  0  0  0
  2  3  1  0  0  0  0
  2 23  1  0  0  0  0
  2 60  1  1  0  0  0
  3  4  1  0  0  0  0
  3 58  1  0  0  0  0
  3 59  1  0  0  0  0
  4  5  1  0  0  0  0
  4 21  1  0  0  0  0
  5  6  2  0  0  0  0
  5 14  1  0  0  0  0
  6  7  1  0  0  0  0
  6 20  1  0  0  0  0
  7  8  2  0  0  0  0
  8  9  1  0  0  0  0
  8 19  1  0  0  0  0
  9 10  2  0  0  0  0
  9 14  1  0  0  0  0
 10 11  1  0  0  0  0
 10 18  1  0  0  0  0
 11 12  2  0  0  0  0
 11 17  1  0  0  0  0
 12 13  1  0  0  0  0
 12 16  1  0  0  0  0
 13 14  2  0  0  0  0
 13 15  1  0  0  0  0
 21 22  2  0  0  0  0
 23 21  1  1  0  0  0
 23 24  1  0  0  0  0
 23 52  1  0  0  0  0
 24 25  1  0  0  0  0
 24 56  1  0  0  0  0
 24 57  1  0  0  0  0
 25 26  1  0  0  0  0
 25 44  1  0  0  0  0
 26 27  1  0  0  0  0
 26 42  1  0  0  0  0
 26 43  1  0  0  0  0
 27 28  2  0  0  0  0
 27 29  1  0  0  0  0
 29 30  1  0  0  0  0
 29 41  1  0  0  0  0
 30 31  1  0  0  0  0
 30 39  1  0  0  0  0
 30 40  1  0  0  0  0
 31 32  1  0  0  0  0
 31 33  1  0  0  0  0
 31 38  1  0  0  0  0
 32 33  1  0  0  0  0
 32 36  1  0  0  0  0
 32 37  1  0  0  0  0
 33 34  1  0  0  0  0
 33 35  1  0  0  0  0
 44 45  2  0  0  0  0
 44 46  1  0  0  0  0
 46 47  2  0  0  0  0
 46 52  1  0  0  0  0
 47 48  1  0  0  0  0
 47 55  1  0  0  0  0
 48 49  2  0  0  0  0
 48 54  1  0  0  0  0
 49 50  1  0  0  0  0
 49 51  1  0  0  0  0
 51 52  2  0  0  0  0
 51 53  1  0  0  0  0
M  END
>  <MODEL>
       1

$$$$
