tmp_first_model_4_95.pdb
 OpenBabel08272518513D

 66 71  0  0  1  0  0  0  0  0999 V2000
   -7.2820    3.3810  -21.9080 C   0  0  0  0  0  0  0  0  0  0  0  0
   -8.1760    2.9270  -22.9570 N   0  0  0  0  0  0  0  0  0  0  0  0
   -7.6390    2.2220  -23.9880 C   0  0  0  0  0  0  0  0  0  0  0  0
   -6.4360    2.0400  -24.0890 O   0  0  0  0  0  0  0  0  0  0  0  0
   -8.6250    1.6400  -25.0030 C   0  0  0  0  0  0  0  0  0  0  0  0
   -9.3230    0.5060  -24.4240 N   0  0  0  0  0  0  0  0  0  0  0  0
   -8.5820   -0.7360  -24.2400 C   0  0  0  0  0  0  0  0  0  0  0  0
   -9.0160   -1.4880  -22.9540 C   0  0  2  0  0  0  0  0  0  0  0  0
   -8.4780   -0.7460  -21.7000 C   0  0  0  0  0  0  0  0  0  0  0  0
   -8.9000    0.2810  -21.2090 O   0  0  0  0  0  0  0  0  0  0  0  0
   -7.3990   -1.4500  -21.2220 N   0  0  0  0  0  0  0  0  0  0  0  0
   -6.5350   -0.9710  -20.2110 C   0  0  0  0  0  0  0  0  0  0  0  0
   -6.7670   -1.2930  -18.9020 C   0  0  0  0  0  0  0  0  0  0  0  0
   -5.8790   -1.0750  -17.9010 N   0  0  0  0  0  0  0  0  0  0  0  0
   -4.7510   -0.4860  -18.2020 C   0  0  0  0  0  0  0  0  0  0  0  0
   -4.4190   -0.0340  -19.5090 C   0  0  0  0  0  0  0  0  0  0  0  0
   -3.2370    0.7080  -19.7680 C   0  0  0  0  0  0  0  0  0  0  0  0
   -3.0170    1.2520  -21.0030 C   0  0  0  0  0  0  0  0  0  0  0  0
   -3.9420    1.0310  -22.0540 C   0  0  0  0  0  0  0  0  0  0  0  0
   -5.0510    0.2470  -21.8460 C   0  0  0  0  0  0  0  0  0  0  0  0
   -5.3480   -0.2560  -20.5500 C   0  0  0  0  0  0  0  0  0  0  0  0
   -5.7240    0.0300  -22.6690 H   0  0  0  0  0  0  0  0  0  0  0  0
   -3.7770    1.4750  -23.0310 H   0  0  0  0  0  0  0  0  0  0  0  0
   -2.1550    1.8860  -21.1750 H   0  0  0  0  0  0  0  0  0  0  0  0
   -2.5740    0.9030  -18.9310 H   0  0  0  0  0  0  0  0  0  0  0  0
   -4.0320   -0.3230  -17.3960 H   0  0  0  0  0  0  0  0  0  0  0  0
   -7.6960   -1.7910  -18.6370 H   0  0  0  0  0  0  0  0  0  0  0  0
   -7.0610   -2.6300  -21.9780 C   0  0  0  0  0  0  0  0  0  0  0  0
   -8.3070   -2.8740  -22.8290 C   0  0  2  0  0  0  0  0  0  0  0  0
   -7.9390   -3.6220  -24.1050 C   0  0  0  0  0  0  0  0  0  0  0  0
   -9.1060   -3.9840  -24.8740 N   0  0  0  0  0  0  0  0  0  0  0  0
   -8.9990   -4.5990  -26.0800 C   0  0  0  0  0  0  0  0  0  0  0  0
  -10.1430   -4.9230  -26.8400 C   0  0  0  0  0  0  0  0  0  0  0  0
   -9.9220   -5.5350  -28.0500 C   0  0  0  0  0  0  0  0  0  0  0  0
   -8.6980   -5.8270  -28.5180 N   0  0  0  0  0  0  0  0  0  0  0  0
   -7.7010   -5.4880  -27.7140 C   0  0  0  0  0  0  0  0  0  0  0  0
   -7.7670   -4.8900  -26.5230 N   0  0  0  0  0  0  0  0  0  0  0  0
   -6.7000   -5.7260  -28.0760 H   0  0  0  0  0  0  0  0  0  0  0  0
  -10.7630   -5.8080  -28.6890 H   0  0  0  0  0  0  0  0  0  0  0  0
  -11.1480   -4.7110  -26.4870 H   0  0  0  0  0  0  0  0  0  0  0  0
  -10.0180   -3.7080  -24.5430 H   0  0  0  0  0  0  0  0  0  0  0  0
   -7.3860   -4.5350  -23.8490 H   0  0  0  0  0  0  0  0  0  0  0  0
   -7.2680   -3.0210  -24.7350 H   0  0  0  0  0  0  0  0  0  0  0  0
   -8.9710   -3.5290  -22.2570 H   0  0  0  0  0  0  0  0  0  0  0  0
   -6.8410   -3.4700  -21.3100 H   0  0  0  0  0  0  0  0  0  0  0  0
   -6.1680   -2.4780  -22.6060 H   0  0  0  0  0  0  0  0  0  0  0  0
  -10.5340   -1.5310  -22.9060 C   0  0  0  0  0  0  0  0  0  0  0  0
  -11.1910   -2.4130  -22.0370 C   0  0  0  0  0  0  0  0  0  0  0  0
  -12.5720   -2.4160  -21.9500 C   0  0  0  0  0  0  0  0  0  0  0  0
  -13.3490   -3.5100  -20.8390 Cl  0  0  0  0  0  0  0  0  0  0  0  0
  -13.3510   -1.5420  -22.7070 C   0  0  0  0  0  0  0  0  0  0  0  0
  -12.7090   -0.6310  -23.5230 C   0  0  0  0  0  0  0  0  0  0  0  0
  -11.3160   -0.5960  -23.6000 C   0  0  0  0  0  0  0  0  0  0  0  0
  -10.6920    0.5280  -24.3740 C   0  0  0  0  0  0  0  0  0  0  0  0
  -11.3630    1.4100  -24.8890 O   0  0  0  0  0  0  0  0  0  0  0  0
  -13.2710    0.0980  -24.0960 H   0  0  0  0  0  0  0  0  0  0  0  0
  -14.4330   -1.5560  -22.6210 H   0  0  0  0  0  0  0  0  0  0  0  0
  -10.6400   -3.0770  -21.3820 H   0  0  0  0  0  0  0  0  0  0  0  0
   -8.7330   -1.3880  -25.1130 H   0  0  0  0  0  0  0  0  0  0  0  0
   -7.5140   -0.5030  -24.1850 H   0  0  0  0  0  0  0  0  0  0  0  0
   -8.0680    1.3340  -25.8960 H   0  0  0  0  0  0  0  0  0  0  0  0
   -9.3790    2.3710  -25.3100 H   0  0  0  0  0  0  0  0  0  0  0  0
   -9.1340    2.7440  -22.7000 H   0  0  0  0  0  0  0  0  0  0  0  0
   -7.8640    3.8530  -21.1170 H   0  0  0  0  0  0  0  0  0  0  0  0
   -6.5880    4.1250  -22.3010 H   0  0  0  0  0  0  0  0  0  0  0  0
   -6.7000    2.5380  -21.5110 H   0  0  0  0  0  0  0  0  0  0  0  0
  1  2  1  0  0  0  0
  1 64  1  0  0  0  0
  1 65  1  0  0  0  0
  1 66  1  0  0  0  0
  2  3  1  0  0  0  0
  2 63  1  0  0  0  0
  3  4  2  0  0  0  0
  3  5  1  0  0  0  0
  5  6  1  0  0  0  0
  5 61  1  0  0  0  0
  5 62  1  0  0  0  0
  6  7  1  0  0  0  0
  6 54  1  0  0  0  0
  7  8  1  0  0  0  0
  7 59  1  0  0  0  0
  7 60  1  0  0  0  0
  8  9  1  1  0  0  0
  8 29  1  0  0  0  0
  8 47  1  0  0  0  0
  9 10  2  0  0  0  0
  9 11  1  0  0  0  0
 11 12  1  0  0  0  0
 11 28  1  0  0  0  0
 12 13  2  0  0  0  0
 12 21  1  0  0  0  0
 13 14  1  0  0  0  0
 13 27  1  0  0  0  0
 14 15  2  0  0  0  0
 15 16  1  0  0  0  0
 15 26  1  0  0  0  0
 16 17  2  0  0  0  0
 16 21  1  0  0  0  0
 17 18  1  0  0  0  0
 17 25  1  0  0  0  0
 18 19  2  0  0  0  0
 18 24  1  0  0  0  0
 19 20  1  0  0  0  0
 19 23  1  0  0  0  0
 20 21  2  0  0  0  0
 20 22  1  0  0  0  0
 28 29  1  0  0  0  0
 28 45  1  0  0  0  0
 28 46  1  0  0  0  0
 29 30  1  0  0  0  0
 29 44  1  1  0  0  0
 30 31  1  0  0  0  0
 30 42  1  0  0  0  0
 30 43  1  0  0  0  0
 31 32  1  0  0  0  0
 31 41  1  0  0  0  0
 32 33  2  0  0  0  0
 32 37  1  0  0  0  0
 33 34  1  0  0  0  0
 33 40  1  0  0  0  0
 34 35  2  0  0  0  0
 34 39  1  0  0  0  0
 35 36  1  0  0  0  0
 36 37  2  0  0  0  0
 36 38  1  0  0  0  0
 47 48  2  0  0  0  0
 47 53  1  0  0  0  0
 48 49  1  0  0  0  0
 48 58  1  0  0  0  0
 49 50  1  0  0  0  0
 49 51  2  0  0  0  0
 51 52  1  0  0  0  0
 51 57  1  0  0  0  0
 52 53  2  0  0  0  0
 52 56  1  0  0  0  0
 53 54  1  0  0  0  0
 54 55  2  0  0  0  0
M  END
>  <MODEL>
       1

$$$$
