tmp_first_model_12_10.pdb
 OpenBabel08272523333D

 57 62  0  0  1  0  0  0  0  0999 V2000
  -10.1910   -2.9590  -22.0680 C   0  0  0  0  0  0  0  0  0  0  0  0
   -9.1450   -1.9780  -22.6240 C   0  0  1  0  0  0  0  0  0  0  0  0
   -8.7080   -0.9720  -21.5450 C   0  0  0  0  0  0  0  0  0  0  0  0
   -7.3810   -1.3920  -21.1750 N   0  0  0  0  0  0  0  0  0  0  0  0
   -6.6190   -0.7800  -20.1640 C   0  0  0  0  0  0  0  0  0  0  0  0
   -6.9250   -1.0380  -18.8560 C   0  0  0  0  0  0  0  0  0  0  0  0
   -6.2360   -0.5470  -17.8000 N   0  0  0  0  0  0  0  0  0  0  0  0
   -5.2040    0.2160  -18.0720 C   0  0  0  0  0  0  0  0  0  0  0  0
   -4.7880    0.5620  -19.3900 C   0  0  0  0  0  0  0  0  0  0  0  0
   -3.6570    1.3860  -19.6110 C   0  0  0  0  0  0  0  0  0  0  0  0
   -3.3180    1.7710  -20.8770 C   0  0  0  0  0  0  0  0  0  0  0  0
   -4.1050    1.3670  -21.9800 C   0  0  0  0  0  0  0  0  0  0  0  0
   -5.1870    0.5370  -21.8040 C   0  0  0  0  0  0  0  0  0  0  0  0
   -5.5370    0.0930  -20.4900 C   0  0  0  0  0  0  0  0  0  0  0  0
   -5.7570    0.2030  -22.6740 H   0  0  0  0  0  0  0  0  0  0  0  0
   -3.8310    1.7050  -22.9760 H   0  0  0  0  0  0  0  0  0  0  0  0
   -2.4560    2.4130  -21.0390 H   0  0  0  0  0  0  0  0  0  0  0  0
   -3.0970    1.7260  -18.7440 H   0  0  0  0  0  0  0  0  0  0  0  0
   -4.6380    0.6060  -17.2260 H   0  0  0  0  0  0  0  0  0  0  0  0
   -7.7630   -1.6970  -18.6310 H   0  0  0  0  0  0  0  0  0  0  0  0
   -6.8210   -2.3470  -21.9830 C   0  0  0  0  0  0  0  0  0  0  0  0
   -5.7350   -2.8470  -21.7830 O   0  0  0  0  0  0  0  0  0  0  0  0
   -7.8150   -2.6190  -23.1310 C   0  0  1  0  0  0  0  0  0  0  0  0
   -7.9120   -4.1290  -23.3310 C   0  0  0  0  0  0  0  0  0  0  0  0
   -6.6460   -4.6380  -23.8370 N   0  0  0  0  0  0  0  0  0  0  0  0
   -6.2700   -5.9900  -23.4330 C   0  0  0  0  0  0  0  0  0  0  0  0
   -7.1460   -7.0110  -24.1090 C   0  0  0  0  0  0  0  0  0  0  0  0
   -7.0870   -7.4160  -25.4020 C   0  0  0  0  0  0  0  0  0  0  0  0
   -8.2870   -8.0290  -25.6970 N   0  3  0  0  0  0  0  0  0  0  0  0
   -9.0760   -7.9740  -24.6180 C   0  0  0  0  0  0  0  0  0  0  0  0
   -8.4000   -7.3840  -23.6150 N   0  0  0  0  0  0  0  0  0  0  0  0
   -8.7690   -7.1560  -22.6900 H   0  0  0  0  0  0  0  0  0  0  0  0
  -10.1010   -8.2960  -24.6160 H   0  0  0  0  0  0  0  0  0  0  0  0
   -8.5020   -8.4950  -26.5750 H   0  0  0  0  0  0  0  0  0  0  0  0
   -6.3130   -7.2680  -26.1500 H   0  0  0  0  0  0  0  0  0  0  0  0
   -5.2230   -6.1280  -23.7130 H   0  0  0  0  0  0  0  0  0  0  0  0
   -6.3340   -6.0330  -22.3360 H   0  0  0  0  0  0  0  0  0  0  0  0
   -6.1700   -4.1730  -25.0380 C   0  0  0  0  0  0  0  0  0  0  0  0
   -5.4420   -4.8360  -25.7660 O   0  0  0  0  0  0  0  0  0  0  0  0
   -6.5790   -2.7720  -25.3570 C   0  0  0  0  0  0  0  0  0  0  0  0
   -6.1680   -2.2390  -26.5760 C   0  0  0  0  0  0  0  0  0  0  0  0
   -6.4010   -0.9170  -26.8830 C   0  0  0  0  0  0  0  0  0  0  0  0
   -7.0720   -0.1470  -25.9420 C   0  0  0  0  0  0  0  0  0  0  0  0
   -7.2820    1.1500  -26.2230 F   0  0  0  0  0  0  0  0  0  0  0  0
   -7.5350   -0.6620  -24.7450 C   0  0  0  0  0  0  0  0  0  0  0  0
   -7.3120   -2.0090  -24.4380 C   0  0  0  0  0  0  0  0  0  0  0  0
   -8.0830   -0.0040  -24.0810 H   0  0  0  0  0  0  0  0  0  0  0  0
   -6.0590   -0.4800  -27.8120 H   0  0  0  0  0  0  0  0  0  0  0  0
   -5.6510   -2.9000  -27.2600 H   0  0  0  0  0  0  0  0  0  0  0  0
   -8.1200   -4.6130  -22.3760 H   0  0  0  0  0  0  0  0  0  0  0  0
   -8.7390   -4.3450  -24.0270 H   0  0  0  0  0  0  0  0  0  0  0  0
   -8.7190    0.0660  -21.9020 H   0  0  0  0  0  0  0  0  0  0  0  0
   -9.3670   -1.0100  -20.6850 H   0  0  0  0  0  0  0  0  0  0  0  0
   -9.6320   -1.4580  -23.4550 H   0  0  0  0  0  0  0  0  0  0  0  0
  -11.0630   -2.4060  -21.7050 H   0  0  0  0  0  0  0  0  0  0  0  0
  -10.5430   -3.6480  -22.8430 H   0  0  0  0  0  0  0  0  0  0  0  0
   -9.8030   -3.5540  -21.2330 H   0  0  0  0  0  0  0  0  0  0  0  0
  1  2  1  0  0  0  0
  1 55  1  0  0  0  0
  1 56  1  0  0  0  0
  1 57  1  0  0  0  0
  2  3  1  0  0  0  0
  2 23  1  0  0  0  0
  2 54  1  6  0  0  0
  3  4  1  0  0  0  0
  3 52  1  0  0  0  0
  3 53  1  0  0  0  0
  4  5  1  0  0  0  0
  4 21  1  0  0  0  0
  5  6  2  0  0  0  0
  5 14  1  0  0  0  0
  6  7  1  0  0  0  0
  6 20  1  0  0  0  0
  7  8  2  0  0  0  0
  8  9  1  0  0  0  0
  8 19  1  0  0  0  0
  9 10  2  0  0  0  0
  9 14  1  0  0  0  0
 10 11  1  0  0  0  0
 10 18  1  0  0  0  0
 11 12  2  0  0  0  0
 11 17  1  0  0  0  0
 12 13  1  0  0  0  0
 12 16  1  0  0  0  0
 13 14  2  0  0  0  0
 13 15  1  0  0  0  0
 21 22  2  0  0  0  0
 23 21  1  1  0  0  0
 23 24  1  0  0  0  0
 23 46  1  0  0  0  0
 24 25  1  0  0  0  0
 24 50  1  0  0  0  0
 24 51  1  0  0  0  0
 25 26  1  0  0  0  0
 25 38  1  0  0  0  0
 26 27  1  0  0  0  0
 26 36  1  0  0  0  0
 26 37  1  0  0  0  0
 27 28  2  0  0  0  0
 27 31  1  0  0  0  0
 28 29  1  0  0  0  0
 28 35  1  0  0  0  0
 29 30  2  0  0  0  0
 29 34  1  0  0  0  0
 30 31  1  0  0  0  0
 30 33  1  0  0  0  0
 31 32  1  0  0  0  0
 38 39  2  0  0  0  0
 38 40  1  0  0  0  0
 40 41  2  0  0  0  0
 40 46  1  0  0  0  0
 41 42  1  0  0  0  0
 41 49  1  0  0  0  0
 42 43  2  0  0  0  0
 42 48  1  0  0  0  0
 43 44  1  0  0  0  0
 43 45  1  0  0  0  0
 45 46  2  0  0  0  0
 45 47  1  0  0  0  0
M  CHG  1  29   1
M  END
>  <MODEL>
       1

$$$$
