tmp_first_model_14_17.pdb
 OpenBabel08282500413D

 38 41  0  0  1  0  0  0  0  0999 V2000
   -9.3480   -4.9450  -25.6900 C   0  0  0  0  0  0  0  0  0  0  0  0
   -9.3470   -4.1960  -24.3570 C   0  0  2  0  0  0  0  0  0  0  0  0
  -10.3480   -3.0410  -24.3800 C   0  0  0  0  0  0  0  0  0  0  0  0
  -10.4240   -2.3520  -23.0160 C   0  0  0  0  0  0  0  0  0  0  0  0
   -9.0850   -2.1170  -22.4680 C   0  0  0  0  0  0  0  0  0  0  0  0
   -8.7210   -1.1940  -21.4400 C   0  0  0  0  0  0  0  0  0  0  0  0
   -9.3850   -0.3300  -20.9120 O   0  5  0  0  0  0  0  0  0  0  0  0
   -7.3450   -1.4710  -21.2010 N   0  0  0  0  0  0  0  0  0  0  0  0
   -6.5710   -0.8440  -20.1890 C   0  0  0  0  0  0  0  0  0  0  0  0
   -6.8910   -1.0440  -18.8720 C   0  0  0  0  0  0  0  0  0  0  0  0
   -6.2030   -0.5160  -17.8310 N   0  0  0  0  0  0  0  0  0  0  0  0
   -5.1570    0.2250  -18.0850 C   0  0  0  0  0  0  0  0  0  0  0  0
   -4.7200    0.5340  -19.3980 C   0  0  0  0  0  0  0  0  0  0  0  0
   -3.5940    1.3660  -19.6320 C   0  0  0  0  0  0  0  0  0  0  0  0
   -3.2180    1.6690  -20.9100 C   0  0  0  0  0  0  0  0  0  0  0  0
   -3.9530    1.1570  -22.0030 C   0  0  0  0  0  0  0  0  0  0  0  0
   -5.0470    0.3540  -21.8010 C   0  0  0  0  0  0  0  0  0  0  0  0
   -5.4540    0.0040  -20.4880 C   0  0  0  0  0  0  0  0  0  0  0  0
   -5.6090   -0.0300  -22.6440 H   0  0  0  0  0  0  0  0  0  0  0  0
   -3.6550    1.4100  -23.0160 H   0  0  0  0  0  0  0  0  0  0  0  0
   -2.3660    2.3190  -21.0960 H   0  0  0  0  0  0  0  0  0  0  0  0
   -3.0580    1.7720  -18.7770 H   0  0  0  0  0  0  0  0  0  0  0  0
   -4.6090    0.6220  -17.2260 H   0  0  0  0  0  0  0  0  0  0  0  0
   -7.7350   -1.6700  -18.5950 H   0  0  0  0  0  0  0  0  0  0  0  0
   -6.8630   -2.4210  -22.1200 C   0  0  0  0  0  0  0  0  0  0  0  0
   -5.7280   -2.8160  -22.2440 O   0  0  0  0  0  0  0  0  0  0  0  0
   -7.9770   -2.7850  -22.8660 N   0  0  0  0  0  0  0  0  0  0  0  0
   -7.9460   -3.6820  -24.0090 C   0  0  0  0  0  0  0  0  0  0  0  0
   -7.2770   -4.5000  -23.7570 H   0  0  0  0  0  0  0  0  0  0  0  0
   -7.5090   -3.1770  -24.8740 H   0  0  0  0  0  0  0  0  0  0  0  0
  -10.9660   -1.4010  -23.0760 H   0  0  0  0  0  0  0  0  0  0  0  0
  -11.0050   -2.9650  -22.3110 H   0  0  0  0  0  0  0  0  0  0  0  0
  -10.0340   -2.3170  -25.1410 H   0  0  0  0  0  0  0  0  0  0  0  0
  -11.3400   -3.4060  -24.6760 H   0  0  0  0  0  0  0  0  0  0  0  0
   -9.6530   -4.9010  -23.5740 H   0  0  0  0  0  0  0  0  0  0  0  0
  -10.3430   -5.3460  -25.9210 H   0  0  0  0  0  0  0  0  0  0  0  0
   -8.6480   -5.7870  -25.6930 H   0  0  0  0  0  0  0  0  0  0  0  0
   -9.0730   -4.2810  -26.5200 H   0  0  0  0  0  0  0  0  0  0  0  0
  1  2  1  0  0  0  0
  1 36  1  0  0  0  0
  1 37  1  0  0  0  0
  1 38  1  0  0  0  0
  2  3  1  0  0  0  0
  2 28  1  0  0  0  0
  2 35  1  1  0  0  0
  3  4  1  0  0  0  0
  3 33  1  0  0  0  0
  3 34  1  0  0  0  0
  4  5  1  0  0  0  0
  4 31  1  0  0  0  0
  4 32  1  0  0  0  0
  5  6  2  0  0  0  0
  5 27  1  0  0  0  0
  6  7  1  0  0  0  0
  6  8  1  0  0  0  0
  8  9  1  0  0  0  0
  8 25  1  0  0  0  0
  9 10  2  0  0  0  0
  9 18  1  0  0  0  0
 10 11  1  0  0  0  0
 10 24  1  0  0  0  0
 11 12  2  0  0  0  0
 12 13  1  0  0  0  0
 12 23  1  0  0  0  0
 13 14  2  0  0  0  0
 13 18  1  0  0  0  0
 14 15  1  0  0  0  0
 14 22  1  0  0  0  0
 15 16  2  0  0  0  0
 15 21  1  0  0  0  0
 16 17  1  0  0  0  0
 16 20  1  0  0  0  0
 17 18  2  0  0  0  0
 17 19  1  0  0  0  0
 25 26  2  0  0  0  0
 25 27  1  0  0  0  0
 27 28  1  0  0  0  0
 28 29  1  0  0  0  0
 28 30  1  0  0  0  0
M  CHG  1   7  -1
M  END
>  <MODEL>
       1

$$$$
