tmp_first_model_20_90.pdb
 OpenBabel08282503553D

 64 68  0  0  1  0  0  0  0  0999 V2000
   -7.7910    2.9140  -22.2250 C   0  0  0  0  0  0  0  0  0  0  0  0
   -8.7250    2.4110  -23.2040 N   0  0  0  0  0  0  0  0  0  0  0  0
   -8.2750    1.8600  -24.3530 C   0  0  0  0  0  0  0  0  0  0  0  0
   -7.0940    1.8230  -24.6610 O   0  0  0  0  0  0  0  0  0  0  0  0
   -9.3670    1.1900  -25.1880 C   0  0  0  0  0  0  0  0  0  0  0  0
   -9.9120    0.0570  -24.4600 N   0  0  0  0  0  0  0  0  0  0  0  0
   -8.9880   -1.0150  -24.1480 C   0  0  0  0  0  0  0  0  0  0  0  0
   -9.2510   -1.7160  -22.7830 C   0  0  2  0  0  0  0  0  0  0  0  0
   -8.7120   -0.8310  -21.6270 C   0  0  0  0  0  0  0  0  0  0  0  0
   -9.2620    0.1320  -21.1340 O   0  0  0  0  0  0  0  0  0  0  0  0
   -7.4820   -1.3220  -21.2400 N   0  0  0  0  0  0  0  0  0  0  0  0
   -6.7090   -0.7540  -20.1930 C   0  0  0  0  0  0  0  0  0  0  0  0
   -7.0190   -1.0030  -18.8800 C   0  0  0  0  0  0  0  0  0  0  0  0
   -6.2980   -0.5550  -17.8210 N   0  0  0  0  0  0  0  0  0  0  0  0
   -5.2290    0.1590  -18.0790 C   0  0  0  0  0  0  0  0  0  0  0  0
   -4.7860    0.4950  -19.3910 C   0  0  0  0  0  0  0  0  0  0  0  0
   -3.6260    1.2850  -19.6260 C   0  0  0  0  0  0  0  0  0  0  0  0
   -3.2460    1.5990  -20.9020 C   0  0  0  0  0  0  0  0  0  0  0  0
   -4.0030    1.1440  -22.0040 C   0  0  0  0  0  0  0  0  0  0  0  0
   -5.1280    0.3810  -21.8010 C   0  0  0  0  0  0  0  0  0  0  0  0
   -5.5470    0.0280  -20.4890 C   0  0  0  0  0  0  0  0  0  0  0  0
   -5.7460    0.1120  -22.6520 H   0  0  0  0  0  0  0  0  0  0  0  0
   -3.7150    1.4230  -23.0130 H   0  0  0  0  0  0  0  0  0  0  0  0
   -2.3720    2.2180  -21.0800 H   0  0  0  0  0  0  0  0  0  0  0  0
   -3.0590    1.6440  -18.7710 H   0  0  0  0  0  0  0  0  0  0  0  0
   -4.6530    0.5180  -17.2240 H   0  0  0  0  0  0  0  0  0  0  0  0
   -7.8870   -1.6130  -18.6440 H   0  0  0  0  0  0  0  0  0  0  0  0
   -7.0380   -2.4730  -21.9920 C   0  0  0  0  0  0  0  0  0  0  0  0
   -8.3470   -2.9710  -22.6310 C   0  0  2  0  0  0  0  0  0  0  0  0
   -8.1470   -3.7630  -23.9130 C   0  0  0  0  0  0  0  0  0  0  0  0
   -7.2860   -5.2980  -23.6700 S   0  0  0  0  0  0  0  0  0  0  0  0
   -5.8890   -5.0230  -23.3530 O   0  0  0  0  0  0  0  0  0  0  0  0
   -8.0780   -6.1550  -22.7990 O   0  0  0  0  0  0  0  0  0  0  0  0
   -7.2940   -5.8680  -25.2250 N   0  0  0  0  0  0  0  0  0  0  0  0
   -8.5150   -6.4290  -25.7790 C   0  0  0  0  0  0  0  0  0  0  0  0
   -9.1680   -5.6240  -26.1320 H   0  0  0  0  0  0  0  0  0  0  0  0
   -8.2650   -7.0600  -26.6350 H   0  0  0  0  0  0  0  0  0  0  0  0
   -9.0580   -7.0200  -25.0370 H   0  0  0  0  0  0  0  0  0  0  0  0
   -6.4180   -6.3340  -25.4280 H   0  0  0  0  0  0  0  0  0  0  0  0
   -7.5430   -3.2160  -24.6400 H   0  0  0  0  0  0  0  0  0  0  0  0
   -9.1100   -4.0000  -24.3730 H   0  0  0  0  0  0  0  0  0  0  0  0
   -8.8170   -3.6340  -21.9020 H   0  0  0  0  0  0  0  0  0  0  0  0
   -6.5870   -3.2120  -21.3260 H   0  0  0  0  0  0  0  0  0  0  0  0
   -6.2770   -2.2110  -22.7450 H   0  0  0  0  0  0  0  0  0  0  0  0
  -10.7470   -1.9510  -22.6360 C   0  0  0  0  0  0  0  0  0  0  0  0
  -11.2900   -2.9880  -21.8650 C   0  0  0  0  0  0  0  0  0  0  0  0
  -12.6540   -3.0400  -21.6490 C   0  0  0  0  0  0  0  0  0  0  0  0
  -13.1470   -4.0310  -20.8900 F   0  0  0  0  0  0  0  0  0  0  0  0
  -13.5480   -2.1090  -22.1600 C   0  0  0  0  0  0  0  0  0  0  0  0
  -13.0230   -1.0960  -22.9270 C   0  0  0  0  0  0  0  0  0  0  0  0
  -11.6530   -1.0220  -23.1720 C   0  0  0  0  0  0  0  0  0  0  0  0
  -11.1860    0.1330  -23.9940 C   0  0  0  0  0  0  0  0  0  0  0  0
  -11.9030    1.1020  -24.2240 O   0  0  0  0  0  0  0  0  0  0  0  0
  -13.6550   -0.3200  -23.3400 H   0  0  0  0  0  0  0  0  0  0  0  0
  -14.6070   -2.1970  -21.9390 H   0  0  0  0  0  0  0  0  0  0  0  0
  -10.6830   -3.7550  -21.3970 H   0  0  0  0  0  0  0  0  0  0  0  0
   -7.9870   -0.5750  -24.1550 H   0  0  0  0  0  0  0  0  0  0  0  0
   -9.0220   -1.7430  -24.9620 H   0  0  0  0  0  0  0  0  0  0  0  0
  -10.2010    1.8720  -25.3660 H   0  0  0  0  0  0  0  0  0  0  0  0
   -8.9060    0.8980  -26.1360 H   0  0  0  0  0  0  0  0  0  0  0  0
   -9.6670    2.2130  -22.9120 H   0  0  0  0  0  0  0  0  0  0  0  0
   -7.4880    3.9490  -22.4390 H   0  0  0  0  0  0  0  0  0  0  0  0
   -6.9070    2.2700  -22.2240 H   0  0  0  0  0  0  0  0  0  0  0  0
   -8.2440    2.8600  -21.2340 H   0  0  0  0  0  0  0  0  0  0  0  0
  1  2  1  0  0  0  0
  1 62  1  0  0  0  0
  1 63  1  0  0  0  0
  1 64  1  0  0  0  0
  2  3  1  0  0  0  0
  2 61  1  0  0  0  0
  3  4  2  0  0  0  0
  3  5  1  0  0  0  0
  5  6  1  0  0  0  0
  5 59  1  0  0  0  0
  5 60  1  0  0  0  0
  6  7  1  0  0  0  0
  6 52  1  0  0  0  0
  7  8  1  0  0  0  0
  7 57  1  0  0  0  0
  7 58  1  0  0  0  0
  8  9  1  1  0  0  0
  8 29  1  0  0  0  0
  8 45  1  0  0  0  0
  9 10  2  0  0  0  0
  9 11  1  0  0  0  0
 11 12  1  0  0  0  0
 11 28  1  0  0  0  0
 12 13  2  0  0  0  0
 12 21  1  0  0  0  0
 13 14  1  0  0  0  0
 13 27  1  0  0  0  0
 14 15  2  0  0  0  0
 15 16  1  0  0  0  0
 15 26  1  0  0  0  0
 16 17  2  0  0  0  0
 16 21  1  0  0  0  0
 17 18  1  0  0  0  0
 17 25  1  0  0  0  0
 18 19  2  0  0  0  0
 18 24  1  0  0  0  0
 19 20  1  0  0  0  0
 19 23  1  0  0  0  0
 20 21  2  0  0  0  0
 20 22  1  0  0  0  0
 28 29  1  0  0  0  0
 28 43  1  0  0  0  0
 28 44  1  0  0  0  0
 29 30  1  0  0  0  0
 29 42  1  1  0  0  0
 30 31  1  0  0  0  0
 30 40  1  0  0  0  0
 30 41  1  0  0  0  0
 31 32  2  0  0  0  0
 31 33  2  0  0  0  0
 31 34  1  0  0  0  0
 34 35  1  0  0  0  0
 34 39  1  0  0  0  0
 35 36  1  0  0  0  0
 35 37  1  0  0  0  0
 35 38  1  0  0  0  0
 45 46  2  0  0  0  0
 45 51  1  0  0  0  0
 46 47  1  0  0  0  0
 46 56  1  0  0  0  0
 47 48  1  0  0  0  0
 47 49  2  0  0  0  0
 49 50  1  0  0  0  0
 49 55  1  0  0  0  0
 50 51  2  0  0  0  0
 50 54  1  0  0  0  0
 51 52  1  0  0  0  0
 52 53  2  0  0  0  0
M  END
>  <MODEL>
       1

$$$$
