tmp_first_model_7_86.pdb
 OpenBabel08272520323D

 43 45  0  0  1  0  0  0  0  0999 V2000
   -8.5470   -5.5630  -25.7830 C   0  0  0  0  0  0  0  0  0  0  0  0
   -9.0630   -5.4480  -24.3460 C   0  0  1  0  0  0  0  0  0  0  0  0
   -8.0270   -5.8770  -23.3090 C   0  0  0  0  0  0  0  0  0  0  0  0
   -6.9370   -4.8320  -23.0940 C   0  0  0  0  0  0  0  0  0  0  0  0
   -7.5150   -3.5420  -22.7120 N   0  0  0  0  0  0  0  0  0  0  0  0
   -6.7560   -2.7460  -21.8640 C   0  0  0  0  0  0  0  0  0  0  0  0
   -5.6210   -3.0570  -21.5490 O   0  0  0  0  0  0  0  0  0  0  0  0
   -7.4130   -1.4740  -21.2700 C   0  0  0  0  0  0  0  0  0  0  0  0
   -6.5800   -0.8300  -20.1850 C   0  0  0  0  0  0  0  0  0  0  0  0
   -6.8730   -1.0460  -18.8650 C   0  0  0  0  0  0  0  0  0  0  0  0
   -6.1840   -0.5430  -17.8060 N   0  0  0  0  0  0  0  0  0  0  0  0
   -5.1550    0.2230  -18.0700 C   0  0  0  0  0  0  0  0  0  0  0  0
   -4.7180    0.5290  -19.3840 C   0  0  0  0  0  0  0  0  0  0  0  0
   -3.5890    1.3520  -19.6240 C   0  0  0  0  0  0  0  0  0  0  0  0
   -3.1880    1.6320  -20.9020 C   0  0  0  0  0  0  0  0  0  0  0  0
   -3.9040    1.0940  -21.9930 C   0  0  0  0  0  0  0  0  0  0  0  0
   -4.9980    0.2890  -21.7870 C   0  0  0  0  0  0  0  0  0  0  0  0
   -5.4440   -0.0140  -20.4750 C   0  0  0  0  0  0  0  0  0  0  0  0
   -5.5280   -0.1300  -22.6350 H   0  0  0  0  0  0  0  0  0  0  0  0
   -3.5820    1.3200  -23.0050 H   0  0  0  0  0  0  0  0  0  0  0  0
   -2.3300    2.2740  -21.0840 H   0  0  0  0  0  0  0  0  0  0  0  0
   -3.0600    1.7730  -18.7720 H   0  0  0  0  0  0  0  0  0  0  0  0
   -4.6040    0.6270  -17.2180 H   0  0  0  0  0  0  0  0  0  0  0  0
   -7.7200   -1.6690  -18.5840 H   0  0  0  0  0  0  0  0  0  0  0  0
   -7.6220   -0.7470  -22.0680 H   0  0  0  0  0  0  0  0  0  0  0  0
   -8.3920   -1.7510  -20.8540 H   0  0  0  0  0  0  0  0  0  0  0  0
   -8.5400   -2.9960  -23.6130 C   0  0  1  0  0  0  0  0  0  0  0  0
   -7.9410   -2.2910  -24.8400 C   0  0  0  0  0  0  0  0  0  0  0  0
   -8.7290   -1.9760  -25.5350 H   0  0  0  0  0  0  0  0  0  0  0  0
   -7.2480   -2.9310  -25.3930 H   0  0  0  0  0  0  0  0  0  0  0  0
   -7.3910   -1.3890  -24.5500 H   0  0  0  0  0  0  0  0  0  0  0  0
   -9.5910   -4.0640  -23.9670 C   0  0  0  0  0  0  0  0  0  0  0  0
  -10.2110   -3.6810  -24.7840 H   0  0  0  0  0  0  0  0  0  0  0  0
  -10.2630   -4.1720  -23.1090 H   0  0  0  0  0  0  0  0  0  0  0  0
   -9.0800   -2.2360  -23.0440 H   0  0  0  0  0  0  0  0  0  0  0  0
   -6.2990   -4.7540  -23.9890 H   0  0  0  0  0  0  0  0  0  0  0  0
   -6.2730   -5.1440  -22.2910 H   0  0  0  0  0  0  0  0  0  0  0  0
   -7.5750   -6.8270  -23.6120 H   0  0  0  0  0  0  0  0  0  0  0  0
   -8.5210   -6.0610  -22.3510 H   0  0  0  0  0  0  0  0  0  0  0  0
   -9.9150   -6.1380  -24.2800 H   0  0  0  0  0  0  0  0  0  0  0  0
   -7.6000   -5.0390  -25.9400 H   0  0  0  0  0  0  0  0  0  0  0  0
   -8.3800   -6.6140  -26.0500 H   0  0  0  0  0  0  0  0  0  0  0  0
   -9.2680   -5.1520  -26.4970 H   0  0  0  0  0  0  0  0  0  0  0  0
  1  2  1  0  0  0  0
  1 41  1  0  0  0  0
  1 42  1  0  0  0  0
  1 43  1  0  0  0  0
  2  3  1  0  0  0  0
  2 32  1  0  0  0  0
  2 40  1  1  0  0  0
  3  4  1  0  0  0  0
  3 38  1  0  0  0  0
  3 39  1  0  0  0  0
  4  5  1  0  0  0  0
  4 36  1  0  0  0  0
  4 37  1  0  0  0  0
  5  6  1  0  0  0  0
  5 27  1  0  0  0  0
  6  7  2  0  0  0  0
  6  8  1  0  0  0  0
  8  9  1  0  0  0  0
  8 25  1  0  0  0  0
  8 26  1  0  0  0  0
  9 10  2  0  0  0  0
  9 18  1  0  0  0  0
 10 11  1  0  0  0  0
 10 24  1  0  0  0  0
 11 12  2  0  0  0  0
 12 13  1  0  0  0  0
 12 23  1  0  0  0  0
 13 14  2  0  0  0  0
 13 18  1  0  0  0  0
 14 15  1  0  0  0  0
 14 22  1  0  0  0  0
 15 16  2  0  0  0  0
 15 21  1  0  0  0  0
 16 17  1  0  0  0  0
 16 20  1  0  0  0  0
 17 18  2  0  0  0  0
 17 19  1  0  0  0  0
 27 28  1  0  0  0  0
 27 32  1  0  0  0  0
 27 35  1  1  0  0  0
 28 29  1  0  0  0  0
 28 30  1  0  0  0  0
 28 31  1  0  0  0  0
 32 33  1  0  0  0  0
 32 34  1  0  0  0  0
M  END
>  <MODEL>
       1

$$$$
