tmp_first_model_3_27.pdb
 OpenBabel08272518143D

 58 62  0  0  1  0  0  0  0  0999 V2000
   -7.0490    3.5750  -22.0980 C   0  0  0  0  0  0  0  0  0  0  0  0
   -7.2900    2.5330  -23.1000 N   0  3  0  0  0  0  0  0  0  0  0  0
   -8.4480    2.8270  -23.9980 C   0  0  0  0  0  0  0  0  0  0  0  0
   -8.7230    1.6700  -24.9560 C   0  0  0  0  0  0  0  0  0  0  0  0
   -9.3770    0.5340  -24.3250 N   0  0  0  0  0  0  0  0  0  0  0  0
   -8.6600   -0.7220  -24.2010 C   0  0  0  0  0  0  0  0  0  0  0  0
   -9.0420   -1.4770  -22.9120 C   0  0  2  0  0  0  0  0  0  0  0  0
   -8.5180   -0.7230  -21.6620 C   0  0  0  0  0  0  0  0  0  0  0  0
   -8.9570    0.2980  -21.1770 O   0  0  0  0  0  0  0  0  0  0  0  0
   -7.4100   -1.3880  -21.1860 N   0  0  0  0  0  0  0  0  0  0  0  0
   -6.6030   -0.8090  -20.1700 C   0  0  0  0  0  0  0  0  0  0  0  0
   -6.9110   -1.0390  -18.8550 C   0  0  0  0  0  0  0  0  0  0  0  0
   -6.2060   -0.5460  -17.8070 N   0  0  0  0  0  0  0  0  0  0  0  0
   -5.1710    0.2100  -18.0830 C   0  0  0  0  0  0  0  0  0  0  0  0
   -4.7380    0.5350  -19.4010 C   0  0  0  0  0  0  0  0  0  0  0  0
   -3.6120    1.3680  -19.6430 C   0  0  0  0  0  0  0  0  0  0  0  0
   -3.2270    1.6670  -20.9220 C   0  0  0  0  0  0  0  0  0  0  0  0
   -3.9460    1.1400  -22.0160 C   0  0  0  0  0  0  0  0  0  0  0  0
   -5.0380    0.3280  -21.8090 C   0  0  0  0  0  0  0  0  0  0  0  0
   -5.4730    0.0080  -20.4910 C   0  0  0  0  0  0  0  0  0  0  0  0
   -5.5700   -0.0810  -22.6630 H   0  0  0  0  0  0  0  0  0  0  0  0
   -3.6430    1.3860  -23.0300 H   0  0  0  0  0  0  0  0  0  0  0  0
   -2.3740    2.3170  -21.0980 H   0  0  0  0  0  0  0  0  0  0  0  0
   -3.0850    1.7760  -18.7840 H   0  0  0  0  0  0  0  0  0  0  0  0
   -4.6200    0.6140  -17.2330 H   0  0  0  0  0  0  0  0  0  0  0  0
   -7.7620   -1.6660  -18.6010 H   0  0  0  0  0  0  0  0  0  0  0  0
   -7.0500   -2.5690  -21.9480 C   0  0  0  0  0  0  0  0  0  0  0  0
   -8.3020   -2.8500  -22.8060 C   0  0  2  0  0  0  0  0  0  0  0  0
   -7.9680   -3.5640  -24.1220 C   0  0  0  0  0  0  0  0  0  0  0  0
   -7.5150   -4.5460  -23.9350 H   0  0  0  0  0  0  0  0  0  0  0  0
   -8.8570   -3.7220  -24.7450 H   0  0  0  0  0  0  0  0  0  0  0  0
   -7.2490   -2.9820  -24.7120 H   0  0  0  0  0  0  0  0  0  0  0  0
   -8.9530   -3.5050  -22.2220 H   0  0  0  0  0  0  0  0  0  0  0  0
   -6.8030   -3.3980  -21.2730 H   0  0  0  0  0  0  0  0  0  0  0  0
   -6.1700   -2.3890  -22.5850 H   0  0  0  0  0  0  0  0  0  0  0  0
  -10.5520   -1.5440  -22.8580 C   0  0  0  0  0  0  0  0  0  0  0  0
  -11.1640   -2.4890  -22.0420 C   0  0  0  0  0  0  0  0  0  0  0  0
  -12.5270   -2.5040  -21.8980 C   0  0  0  0  0  0  0  0  0  0  0  0
  -13.0140   -3.4010  -21.0260 F   0  0  0  0  0  0  0  0  0  0  0  0
  -13.3560   -1.6210  -22.5840 C   0  0  0  0  0  0  0  0  0  0  0  0
  -12.7500   -0.6410  -23.3500 C   0  0  0  0  0  0  0  0  0  0  0  0
  -11.3600   -0.5680  -23.4620 C   0  0  0  0  0  0  0  0  0  0  0  0
  -10.7370    0.6040  -24.1630 C   0  0  0  0  0  0  0  0  0  0  0  0
  -11.3880    1.5650  -24.5480 O   0  0  0  0  0  0  0  0  0  0  0  0
  -13.3240    0.1280  -23.8570 H   0  0  0  0  0  0  0  0  0  0  0  0
  -14.4320   -1.6880  -22.4970 H   0  0  0  0  0  0  0  0  0  0  0  0
  -10.6250   -3.2170  -21.4520 H   0  0  0  0  0  0  0  0  0  0  0  0
   -8.8740   -1.3820  -25.0570 H   0  0  0  0  0  0  0  0  0  0  0  0
   -7.5850   -0.5030  -24.1700 H   0  0  0  0  0  0  0  0  0  0  0  0
   -7.7800    1.3120  -25.3880 H   0  0  0  0  0  0  0  0  0  0  0  0
   -9.3750    2.0170  -25.7600 H   0  0  0  0  0  0  0  0  0  0  0  0
   -9.3320    3.0120  -23.3800 H   0  0  0  0  0  0  0  0  0  0  0  0
   -8.2410    3.7370  -24.5710 H   0  0  0  0  0  0  0  0  0  0  0  0
   -6.4250    2.4050  -23.6790 H   0  0  0  0  0  0  0  0  0  0  0  0
   -7.5050    1.6400  -22.6020 H   0  0  0  0  0  0  0  0  0  0  0  0
   -6.1800    3.3000  -21.4990 H   0  0  0  0  0  0  0  0  0  0  0  0
   -7.9250    3.6780  -21.4540 H   0  0  0  0  0  0  0  0  0  0  0  0
   -6.8750    4.5480  -22.5700 H   0  0  0  0  0  0  0  0  0  0  0  0
  1  2  1  0  0  0  0
  1 56  1  0  0  0  0
  1 57  1  0  0  0  0
  1 58  1  0  0  0  0
  2  3  1  0  0  0  0
  2 54  1  0  0  0  0
  2 55  1  0  0  0  0
  3  4  1  0  0  0  0
  3 52  1  0  0  0  0
  3 53  1  0  0  0  0
  4  5  1  0  0  0  0
  4 50  1  0  0  0  0
  4 51  1  0  0  0  0
  5  6  1  0  0  0  0
  5 43  1  0  0  0  0
  6  7  1  0  0  0  0
  6 48  1  0  0  0  0
  6 49  1  0  0  0  0
  7  8  1  1  0  0  0
  7 28  1  0  0  0  0
  7 36  1  0  0  0  0
  8  9  2  0  0  0  0
  8 10  1  0  0  0  0
 10 11  1  0  0  0  0
 10 27  1  0  0  0  0
 11 12  2  0  0  0  0
 11 20  1  0  0  0  0
 12 13  1  0  0  0  0
 12 26  1  0  0  0  0
 13 14  2  0  0  0  0
 14 15  1  0  0  0  0
 14 25  1  0  0  0  0
 15 16  2  0  0  0  0
 15 20  1  0  0  0  0
 16 17  1  0  0  0  0
 16 24  1  0  0  0  0
 17 18  2  0  0  0  0
 17 23  1  0  0  0  0
 18 19  1  0  0  0  0
 18 22  1  0  0  0  0
 19 20  2  0  0  0  0
 19 21  1  0  0  0  0
 27 28  1  0  0  0  0
 27 34  1  0  0  0  0
 27 35  1  0  0  0  0
 28 29  1  0  0  0  0
 28 33  1  1  0  0  0
 29 30  1  0  0  0  0
 29 31  1  0  0  0  0
 29 32  1  0  0  0  0
 36 37  2  0  0  0  0
 36 42  1  0  0  0  0
 37 38  1  0  0  0  0
 37 47  1  0  0  0  0
 38 39  1  0  0  0  0
 38 40  2  0  0  0  0
 40 41  1  0  0  0  0
 40 46  1  0  0  0  0
 41 42  2  0  0  0  0
 41 45  1  0  0  0  0
 42 43  1  0  0  0  0
 43 44  2  0  0  0  0
M  CHG  1   2   1
M  END
>  <MODEL>
       1

$$$$
