tmp_first_model_7_27.pdb
 OpenBabel08272520323D

 58 62  0  0  1  0  0  0  0  0999 V2000
   -8.4930    4.4300  -24.6600 C   0  0  0  0  0  0  0  0  0  0  0  0
   -8.2140    3.3080  -23.7360 N   0  3  0  0  0  0  0  0  0  0  0  0
   -7.2450    2.3160  -24.2870 C   0  0  0  0  0  0  0  0  0  0  0  0
   -7.9080    1.2730  -25.2050 C   0  0  0  0  0  0  0  0  0  0  0  0
   -8.7870    0.3440  -24.5020 N   0  0  0  0  0  0  0  0  0  0  0  0
   -8.3470   -1.0230  -24.2730 C   0  0  0  0  0  0  0  0  0  0  0  0
   -8.7980   -1.5530  -22.8830 C   0  0  2  0  0  0  0  0  0  0  0  0
   -8.1230   -0.7010  -21.7870 C   0  0  0  0  0  0  0  0  0  0  0  0
   -8.3120    0.4850  -21.5700 O   0  0  0  0  0  0  0  0  0  0  0  0
   -7.2610   -1.4850  -21.0620 N   0  0  0  0  0  0  0  0  0  0  0  0
   -6.4640   -0.8940  -20.0460 C   0  0  0  0  0  0  0  0  0  0  0  0
   -6.7570   -1.0910  -18.7210 C   0  0  0  0  0  0  0  0  0  0  0  0
   -6.0660   -0.5350  -17.6970 N   0  0  0  0  0  0  0  0  0  0  0  0
   -5.0550    0.2460  -17.9900 C   0  0  0  0  0  0  0  0  0  0  0  0
   -4.6420    0.5360  -19.3210 C   0  0  0  0  0  0  0  0  0  0  0  0
   -3.5480    1.3990  -19.6030 C   0  0  0  0  0  0  0  0  0  0  0  0
   -3.2040    1.6900  -20.8970 C   0  0  0  0  0  0  0  0  0  0  0  0
   -3.9380    1.1310  -21.9660 C   0  0  0  0  0  0  0  0  0  0  0  0
   -4.9820    0.2770  -21.7190 C   0  0  0  0  0  0  0  0  0  0  0  0
   -5.3710   -0.0380  -20.3850 C   0  0  0  0  0  0  0  0  0  0  0  0
   -5.5440   -0.1570  -22.5420 H   0  0  0  0  0  0  0  0  0  0  0  0
   -3.6830    1.3940  -22.9890 H   0  0  0  0  0  0  0  0  0  0  0  0
   -2.3820    2.3690  -21.1070 H   0  0  0  0  0  0  0  0  0  0  0  0
   -3.0060    1.8430  -18.7730 H   0  0  0  0  0  0  0  0  0  0  0  0
   -4.5220    0.7000  -17.1530 H   0  0  0  0  0  0  0  0  0  0  0  0
   -7.6010   -1.7150  -18.4310 H   0  0  0  0  0  0  0  0  0  0  0  0
   -7.0450   -2.8020  -21.6310 C   0  0  0  0  0  0  0  0  0  0  0  0
   -8.2610   -2.9820  -22.5730 C   0  0  2  0  0  0  0  0  0  0  0  0
   -8.0030   -3.8870  -23.7850 C   0  0  0  0  0  0  0  0  0  0  0  0
   -7.7420   -4.9120  -23.4860 H   0  0  0  0  0  0  0  0  0  0  0  0
   -7.1810   -3.4970  -24.4000 H   0  0  0  0  0  0  0  0  0  0  0  0
   -8.8940   -3.9410  -24.4250 H   0  0  0  0  0  0  0  0  0  0  0  0
   -9.0250   -3.4490  -21.9510 H   0  0  0  0  0  0  0  0  0  0  0  0
   -7.0170   -3.5520  -20.8330 H   0  0  0  0  0  0  0  0  0  0  0  0
   -6.0830   -2.8630  -22.1630 H   0  0  0  0  0  0  0  0  0  0  0  0
  -10.3100   -1.3650  -22.7700 C   0  0  0  0  0  0  0  0  0  0  0  0
  -11.1780   -2.1890  -22.0360 C   0  0  0  0  0  0  0  0  0  0  0  0
  -12.5180   -1.8660  -21.9370 C   0  0  0  0  0  0  0  0  0  0  0  0
  -13.3410   -2.7170  -21.2940 F   0  0  0  0  0  0  0  0  0  0  0  0
  -13.0650   -0.7170  -22.4950 C   0  0  0  0  0  0  0  0  0  0  0  0
  -12.2130    0.1150  -23.1900 C   0  0  0  0  0  0  0  0  0  0  0  0
  -10.8620   -0.2110  -23.3410 C   0  0  0  0  0  0  0  0  0  0  0  0
  -10.0050    0.7540  -24.0840 C   0  0  0  0  0  0  0  0  0  0  0  0
  -10.4040    1.9180  -24.2480 O   0  0  0  0  0  0  0  0  0  0  0  0
  -12.5950    1.0280  -23.6330 H   0  0  0  0  0  0  0  0  0  0  0  0
  -14.1140   -0.4880  -22.3390 H   0  0  0  0  0  0  0  0  0  0  0  0
  -10.8640   -3.0790  -21.5020 H   0  0  0  0  0  0  0  0  0  0  0  0
   -8.7370   -1.6610  -25.0760 H   0  0  0  0  0  0  0  0  0  0  0  0
   -7.2540   -1.0330  -24.3050 H   0  0  0  0  0  0  0  0  0  0  0  0
   -8.4780    1.7480  -26.0140 H   0  0  0  0  0  0  0  0  0  0  0  0
   -7.1220    0.6830  -25.6840 H   0  0  0  0  0  0  0  0  0  0  0  0
   -6.4640    2.8580  -24.8380 H   0  0  0  0  0  0  0  0  0  0  0  0
   -6.7730    1.8050  -23.4410 H   0  0  0  0  0  0  0  0  0  0  0  0
   -9.1200    2.8410  -23.5580 H   0  0  0  0  0  0  0  0  0  0  0  0
   -7.8650    3.6560  -22.8250 H   0  0  0  0  0  0  0  0  0  0  0  0
   -7.5620    4.9000  -24.9840 H   0  0  0  0  0  0  0  0  0  0  0  0
   -9.1230    5.1820  -24.1810 H   0  0  0  0  0  0  0  0  0  0  0  0
   -9.0150    4.0680  -25.5500 H   0  0  0  0  0  0  0  0  0  0  0  0
  1  2  1  0  0  0  0
  1 56  1  0  0  0  0
  1 57  1  0  0  0  0
  1 58  1  0  0  0  0
  2  3  1  0  0  0  0
  2 54  1  0  0  0  0
  2 55  1  0  0  0  0
  3  4  1  0  0  0  0
  3 52  1  0  0  0  0
  3 53  1  0  0  0  0
  4  5  1  0  0  0  0
  4 50  1  0  0  0  0
  4 51  1  0  0  0  0
  5  6  1  0  0  0  0
  5 43  1  0  0  0  0
  6  7  1  0  0  0  0
  6 48  1  0  0  0  0
  6 49  1  0  0  0  0
  7  8  1  1  0  0  0
  7 28  1  0  0  0  0
  7 36  1  0  0  0  0
  8  9  2  0  0  0  0
  8 10  1  0  0  0  0
 10 11  1  0  0  0  0
 10 27  1  0  0  0  0
 11 12  2  0  0  0  0
 11 20  1  0  0  0  0
 12 13  1  0  0  0  0
 12 26  1  0  0  0  0
 13 14  2  0  0  0  0
 14 15  1  0  0  0  0
 14 25  1  0  0  0  0
 15 16  2  0  0  0  0
 15 20  1  0  0  0  0
 16 17  1  0  0  0  0
 16 24  1  0  0  0  0
 17 18  2  0  0  0  0
 17 23  1  0  0  0  0
 18 19  1  0  0  0  0
 18 22  1  0  0  0  0
 19 20  2  0  0  0  0
 19 21  1  0  0  0  0
 27 28  1  0  0  0  0
 27 34  1  0  0  0  0
 27 35  1  0  0  0  0
 28 29  1  0  0  0  0
 28 33  1  1  0  0  0
 29 30  1  0  0  0  0
 29 31  1  0  0  0  0
 29 32  1  0  0  0  0
 36 37  2  0  0  0  0
 36 42  1  0  0  0  0
 37 38  1  0  0  0  0
 37 47  1  0  0  0  0
 38 39  1  0  0  0  0
 38 40  2  0  0  0  0
 40 41  1  0  0  0  0
 40 46  1  0  0  0  0
 41 42  2  0  0  0  0
 41 45  1  0  0  0  0
 42 43  1  0  0  0  0
 43 44  2  0  0  0  0
M  CHG  1   2   1
M  END
>  <MODEL>
       1

$$$$
