tmp_first_model_19_55.pdb
 OpenBabel08282503233D

 61 66  0  0  1  0  0  0  0  0999 V2000
   -7.0110   -5.4610  -25.0450 C   0  0  0  0  0  0  0  0  0  0  0  0
   -7.3430   -4.8000  -23.8500 O   0  0  0  0  0  0  0  0  0  0  0  0
   -7.9910   -3.5750  -24.0840 C   0  0  0  0  0  0  0  0  0  0  0  0
   -8.2880   -2.9180  -22.7400 C   0  0  1  0  0  0  0  0  0  0  0  0
   -7.0090   -2.5530  -21.9660 C   0  0  0  0  0  0  0  0  0  0  0  0
   -7.3880   -1.3720  -21.2170 N   0  0  0  0  0  0  0  0  0  0  0  0
   -6.5990   -0.8110  -20.1880 C   0  0  0  0  0  0  0  0  0  0  0  0
   -6.9170   -1.0480  -18.8750 C   0  0  0  0  0  0  0  0  0  0  0  0
   -6.2170   -0.5620  -17.8220 N   0  0  0  0  0  0  0  0  0  0  0  0
   -5.1840    0.2040  -18.0850 C   0  0  0  0  0  0  0  0  0  0  0  0
   -4.7460    0.5270  -19.4030 C   0  0  0  0  0  0  0  0  0  0  0  0
   -3.6230    1.3620  -19.6420 C   0  0  0  0  0  0  0  0  0  0  0  0
   -3.2410    1.6620  -20.9210 C   0  0  0  0  0  0  0  0  0  0  0  0
   -3.9470    1.1310  -22.0220 C   0  0  0  0  0  0  0  0  0  0  0  0
   -5.0250    0.3010  -21.8150 C   0  0  0  0  0  0  0  0  0  0  0  0
   -5.4590   -0.0100  -20.4970 C   0  0  0  0  0  0  0  0  0  0  0  0
   -5.5840   -0.0720  -22.6670 H   0  0  0  0  0  0  0  0  0  0  0  0
   -3.6290    1.3880  -23.0290 H   0  0  0  0  0  0  0  0  0  0  0  0
   -2.3870    2.3060  -21.0970 H   0  0  0  0  0  0  0  0  0  0  0  0
   -3.0830    1.7580  -18.7870 H   0  0  0  0  0  0  0  0  0  0  0  0
   -4.6200    0.6040  -17.2410 H   0  0  0  0  0  0  0  0  0  0  0  0
   -7.7820   -1.6630  -18.6400 H   0  0  0  0  0  0  0  0  0  0  0  0
   -8.5920   -0.8180  -21.5890 C   0  0  0  0  0  0  0  0  0  0  0  0
   -9.1110    0.1450  -21.0610 O   0  0  0  0  0  0  0  0  0  0  0  0
   -9.1350   -1.6170  -22.7910 C   0  0  1  0  0  0  0  0  0  0  0  0
   -8.8600   -0.8370  -24.1010 C   0  0  0  0  0  0  0  0  0  0  0  0
   -9.6780    0.3550  -24.2020 N   0  0  0  0  0  0  0  0  0  0  0  0
   -9.0460    1.5780  -24.6670 C   0  0  0  0  0  0  0  0  0  0  0  0
   -8.2470    2.2630  -23.6040 C   0  0  0  0  0  0  0  0  0  0  0  0
   -6.9110    2.3600  -23.4140 C   0  0  0  0  0  0  0  0  0  0  0  0
   -6.7050    3.1560  -22.3140 N   0  3  0  0  0  0  0  0  0  0  0  0
   -7.8830    3.5540  -21.8340 C   0  0  0  0  0  0  0  0  0  0  0  0
   -8.8420    3.0080  -22.6010 N   0  0  0  0  0  0  0  0  0  0  0  0
   -9.8200    2.9530  -22.3230 H   0  0  0  0  0  0  0  0  0  0  0  0
   -8.0420    4.2710  -21.0440 H   0  0  0  0  0  0  0  0  0  0  0  0
   -5.8030    3.1920  -21.8500 H   0  0  0  0  0  0  0  0  0  0  0  0
   -6.0730    1.9220  -23.9320 H   0  0  0  0  0  0  0  0  0  0  0  0
   -9.8400    2.2380  -25.0290 H   0  0  0  0  0  0  0  0  0  0  0  0
   -8.4090    1.3310  -25.5230 H   0  0  0  0  0  0  0  0  0  0  0  0
  -11.0240    0.3240  -23.9700 C   0  0  0  0  0  0  0  0  0  0  0  0
  -11.7740    1.2300  -24.3130 O   0  0  0  0  0  0  0  0  0  0  0  0
  -11.5270   -0.8870  -23.2430 C   0  0  0  0  0  0  0  0  0  0  0  0
  -12.9070   -1.0490  -23.1150 C   0  0  0  0  0  0  0  0  0  0  0  0
  -13.4220   -2.0720  -22.3430 C   0  0  0  0  0  0  0  0  0  0  0  0
  -12.5310   -2.9100  -21.6750 C   0  0  0  0  0  0  0  0  0  0  0  0
  -13.1470   -4.1310  -20.6010 Cl  0  0  0  0  0  0  0  0  0  0  0  0
  -11.1630   -2.7830  -21.8230 C   0  0  0  0  0  0  0  0  0  0  0  0
  -10.6340   -1.7920  -22.6540 C   0  0  0  0  0  0  0  0  0  0  0  0
  -10.5170   -3.4520  -21.2650 H   0  0  0  0  0  0  0  0  0  0  0  0
  -14.4900   -2.2150  -22.2310 H   0  0  0  0  0  0  0  0  0  0  0  0
  -13.5570   -0.3390  -23.6150 H   0  0  0  0  0  0  0  0  0  0  0  0
   -9.0740   -1.4970  -24.9490 H   0  0  0  0  0  0  0  0  0  0  0  0
   -7.8030   -0.5490  -24.1580 H   0  0  0  0  0  0  0  0  0  0  0  0
   -6.1700   -2.3480  -22.6460 H   0  0  0  0  0  0  0  0  0  0  0  0
   -6.7050   -3.3540  -21.2860 H   0  0  0  0  0  0  0  0  0  0  0  0
   -8.8260   -3.6610  -22.1530 H   0  0  0  0  0  0  0  0  0  0  0  0
   -8.9280   -3.7370  -24.6450 H   0  0  0  0  0  0  0  0  0  0  0  0
   -7.3460   -2.9140  -24.6920 H   0  0  0  0  0  0  0  0  0  0  0  0
   -6.5430   -6.4120  -24.7810 H   0  0  0  0  0  0  0  0  0  0  0  0
   -7.9010   -5.6700  -25.6600 H   0  0  0  0  0  0  0  0  0  0  0  0
   -6.2960   -4.8780  -25.6490 H   0  0  0  0  0  0  0  0  0  0  0  0
  1  2  1  0  0  0  0
  1 59  1  0  0  0  0
  1 60  1  0  0  0  0
  1 61  1  0  0  0  0
  2  3  1  0  0  0  0
  3  4  1  0  0  0  0
  3 57  1  0  0  0  0
  3 58  1  0  0  0  0
  4  5  1  0  0  0  0
  4 25  1  0  0  0  0
  4 56  1  1  0  0  0
  5  6  1  0  0  0  0
  5 54  1  0  0  0  0
  5 55  1  0  0  0  0
  6  7  1  0  0  0  0
  6 23  1  0  0  0  0
  7  8  2  0  0  0  0
  7 16  1  0  0  0  0
  8  9  1  0  0  0  0
  8 22  1  0  0  0  0
  9 10  2  0  0  0  0
 10 11  1  0  0  0  0
 10 21  1  0  0  0  0
 11 12  2  0  0  0  0
 11 16  1  0  0  0  0
 12 13  1  0  0  0  0
 12 20  1  0  0  0  0
 13 14  2  0  0  0  0
 13 19  1  0  0  0  0
 14 15  1  0  0  0  0
 14 18  1  0  0  0  0
 15 16  2  0  0  0  0
 15 17  1  0  0  0  0
 23 24  2  0  0  0  0
 25 23  1  1  0  0  0
 25 26  1  0  0  0  0
 25 48  1  0  0  0  0
 26 27  1  0  0  0  0
 26 52  1  0  0  0  0
 26 53  1  0  0  0  0
 27 28  1  0  0  0  0
 27 40  1  0  0  0  0
 28 29  1  0  0  0  0
 28 38  1  0  0  0  0
 28 39  1  0  0  0  0
 29 30  2  0  0  0  0
 29 33  1  0  0  0  0
 30 31  1  0  0  0  0
 30 37  1  0  0  0  0
 31 32  2  0  0  0  0
 31 36  1  0  0  0  0
 32 33  1  0  0  0  0
 32 35  1  0  0  0  0
 33 34  1  0  0  0  0
 40 41  2  0  0  0  0
 40 42  1  0  0  0  0
 42 43  2  0  0  0  0
 42 48  1  0  0  0  0
 43 44  1  0  0  0  0
 43 51  1  0  0  0  0
 44 45  2  0  0  0  0
 44 50  1  0  0  0  0
 45 46  1  0  0  0  0
 45 47  1  0  0  0  0
 47 48  2  0  0  0  0
 47 49  1  0  0  0  0
M  CHG  1  31   1
M  END
>  <MODEL>
       1

$$$$
