tmp_first_model_20_57.pdb
 OpenBabel08282503553D

 59 63  0  0  1  0  0  0  0  0999 V2000
  -14.4960   -1.2810  -23.4950 C   0  0  0  0  0  0  0  0  0  0  0  0
  -13.8000   -2.4860  -23.1030 N   0  0  0  0  0  0  0  0  0  0  0  0
  -13.4620   -2.6220  -21.7970 C   0  0  0  0  0  0  0  0  0  0  0  0
  -13.8950   -1.8980  -20.9140 O   0  0  0  0  0  0  0  0  0  0  0  0
  -12.5360   -3.7950  -21.5370 C   0  0  0  0  0  0  0  0  0  0  0  0
  -11.2070   -3.7780  -22.1570 N   0  0  0  0  0  0  0  0  0  0  0  0
  -10.0450   -3.3130  -21.4060 C   0  0  0  0  0  0  0  0  0  0  0  0
   -8.8210   -2.9510  -22.2880 C   0  0  2  0  0  0  0  0  0  0  0  0
   -7.5820   -2.7140  -21.4030 C   0  0  0  0  0  0  0  0  0  0  0  0
   -6.8230   -3.5590  -20.9730 O   0  0  0  0  0  0  0  0  0  0  0  0
   -7.4010   -1.3600  -21.2280 N   0  0  0  0  0  0  0  0  0  0  0  0
   -6.5920   -0.8400  -20.1840 C   0  0  0  0  0  0  0  0  0  0  0  0
   -6.9070   -1.0750  -18.8670 C   0  0  0  0  0  0  0  0  0  0  0  0
   -6.2290   -0.5520  -17.8120 N   0  0  0  0  0  0  0  0  0  0  0  0
   -5.1910    0.2040  -18.0770 C   0  0  0  0  0  0  0  0  0  0  0  0
   -4.7440    0.5120  -19.3950 C   0  0  0  0  0  0  0  0  0  0  0  0
   -3.6110    1.3330  -19.6330 C   0  0  0  0  0  0  0  0  0  0  0  0
   -3.2100    1.6090  -20.9120 C   0  0  0  0  0  0  0  0  0  0  0  0
   -3.9160    1.0710  -22.0120 C   0  0  0  0  0  0  0  0  0  0  0  0
   -5.0170    0.2750  -21.8090 C   0  0  0  0  0  0  0  0  0  0  0  0
   -5.4620   -0.0180  -20.4910 C   0  0  0  0  0  0  0  0  0  0  0  0
   -5.5570   -0.1320  -22.6590 H   0  0  0  0  0  0  0  0  0  0  0  0
   -3.5930    1.3040  -23.0230 H   0  0  0  0  0  0  0  0  0  0  0  0
   -2.3540    2.2520  -21.0940 H   0  0  0  0  0  0  0  0  0  0  0  0
   -3.0800    1.7430  -18.7790 H   0  0  0  0  0  0  0  0  0  0  0  0
   -4.6430    0.6220  -17.2310 H   0  0  0  0  0  0  0  0  0  0  0  0
   -7.7500   -1.7160  -18.6180 H   0  0  0  0  0  0  0  0  0  0  0  0
   -8.4020   -0.5680  -21.9180 C   0  0  0  0  0  0  0  0  0  0  0  0
   -9.0080   -1.5290  -22.9680 C   0  0  0  0  0  0  0  0  0  0  0  0
  -10.4640   -1.1500  -23.2510 C   0  0  0  0  0  0  0  0  0  0  0  0
  -11.0610   -1.1010  -22.3360 H   0  0  0  0  0  0  0  0  0  0  0  0
  -10.9280   -1.8820  -23.9180 H   0  0  0  0  0  0  0  0  0  0  0  0
  -10.5130   -0.1670  -23.7250 H   0  0  0  0  0  0  0  0  0  0  0  0
   -8.2340   -1.4570  -24.2900 C   0  0  0  0  0  0  0  0  0  0  0  0
   -8.6490   -2.1790  -24.9990 H   0  0  0  0  0  0  0  0  0  0  0  0
   -8.3210   -0.4610  -24.7300 H   0  0  0  0  0  0  0  0  0  0  0  0
   -7.1700   -1.6890  -24.1630 H   0  0  0  0  0  0  0  0  0  0  0  0
   -7.9570    0.3200  -22.3760 H   0  0  0  0  0  0  0  0  0  0  0  0
   -9.1690   -0.2180  -21.2130 H   0  0  0  0  0  0  0  0  0  0  0  0
   -8.5770   -4.1100  -23.2290 C   0  0  0  0  0  0  0  0  0  0  0  0
   -7.2950   -4.4580  -23.6700 C   0  0  0  0  0  0  0  0  0  0  0  0
   -7.1320   -5.4520  -24.6180 C   0  0  0  0  0  0  0  0  0  0  0  0
   -5.5350   -5.7970  -25.2220 Cl  0  0  0  0  0  0  0  0  0  0  0  0
   -8.2190   -6.1530  -25.1370 C   0  0  0  0  0  0  0  0  0  0  0  0
   -9.4870   -5.8110  -24.7080 C   0  0  0  0  0  0  0  0  0  0  0  0
   -9.6620   -4.8050  -23.7580 C   0  0  0  0  0  0  0  0  0  0  0  0
  -11.0510   -4.5130  -23.2990 C   0  0  0  0  0  0  0  0  0  0  0  0
  -12.0140   -4.9350  -23.9290 O   0  0  0  0  0  0  0  0  0  0  0  0
  -10.3690   -6.3170  -25.0870 H   0  0  0  0  0  0  0  0  0  0  0  0
   -8.0650   -6.9290  -25.8790 H   0  0  0  0  0  0  0  0  0  0  0  0
   -6.4270   -3.9400  -23.2860 H   0  0  0  0  0  0  0  0  0  0  0  0
  -10.3240   -2.4340  -20.8220 H   0  0  0  0  0  0  0  0  0  0  0  0
   -9.7360   -4.0900  -20.7130 H   0  0  0  0  0  0  0  0  0  0  0  0
  -12.4930   -3.9100  -20.4600 H   0  0  0  0  0  0  0  0  0  0  0  0
  -13.0570   -4.6470  -21.9700 H   0  0  0  0  0  0  0  0  0  0  0  0
  -13.6500   -3.2730  -23.7190 H   0  0  0  0  0  0  0  0  0  0  0  0
  -13.8130   -0.4210  -23.4680 H   0  0  0  0  0  0  0  0  0  0  0  0
  -14.8900   -1.3660  -24.5090 H   0  0  0  0  0  0  0  0  0  0  0  0
  -15.3180   -1.0840  -22.7990 H   0  0  0  0  0  0  0  0  0  0  0  0
  1  2  1  0  0  0  0
  1 57  1  0  0  0  0
  1 58  1  0  0  0  0
  1 59  1  0  0  0  0
  2  3  1  0  0  0  0
  2 56  1  0  0  0  0
  3  4  2  0  0  0  0
  3  5  1  0  0  0  0
  5  6  1  0  0  0  0
  5 54  1  0  0  0  0
  5 55  1  0  0  0  0
  6  7  1  0  0  0  0
  6 47  1  0  0  0  0
  7  8  1  0  0  0  0
  7 52  1  0  0  0  0
  7 53  1  0  0  0  0
  8  9  1  1  0  0  0
  8 29  1  0  0  0  0
  8 40  1  0  0  0  0
  9 10  2  0  0  0  0
  9 11  1  0  0  0  0
 11 12  1  0  0  0  0
 11 28  1  0  0  0  0
 12 13  2  0  0  0  0
 12 21  1  0  0  0  0
 13 14  1  0  0  0  0
 13 27  1  0  0  0  0
 14 15  2  0  0  0  0
 15 16  1  0  0  0  0
 15 26  1  0  0  0  0
 16 17  2  0  0  0  0
 16 21  1  0  0  0  0
 17 18  1  0  0  0  0
 17 25  1  0  0  0  0
 18 19  2  0  0  0  0
 18 24  1  0  0  0  0
 19 20  1  0  0  0  0
 19 23  1  0  0  0  0
 20 21  2  0  0  0  0
 20 22  1  0  0  0  0
 28 29  1  0  0  0  0
 28 38  1  0  0  0  0
 28 39  1  0  0  0  0
 29 30  1  0  0  0  0
 29 34  1  0  0  0  0
 30 31  1  0  0  0  0
 30 32  1  0  0  0  0
 30 33  1  0  0  0  0
 34 35  1  0  0  0  0
 34 36  1  0  0  0  0
 34 37  1  0  0  0  0
 40 41  2  0  0  0  0
 40 46  1  0  0  0  0
 41 42  1  0  0  0  0
 41 51  1  0  0  0  0
 42 43  1  0  0  0  0
 42 44  2  0  0  0  0
 44 45  1  0  0  0  0
 44 50  1  0  0  0  0
 45 46  2  0  0  0  0
 45 49  1  0  0  0  0
 46 47  1  0  0  0  0
 47 48  2  0  0  0  0
M  END
>  <MODEL>
       1

$$$$
