tmp_first_model_9_85.pdb
 OpenBabel08272521403D

 57 62  0  0  1  0  0  0  0  0999 V2000
   -9.2720    1.0540  -29.3090 C   0  0  0  0  0  0  0  0  0  0  0  0
   -9.1680    1.3750  -27.9020 N   0  0  0  0  0  0  0  0  0  0  0  0
   -8.2880    0.6880  -27.1300 C   0  0  0  0  0  0  0  0  0  0  0  0
   -7.5450   -0.1780  -27.5630 O   0  0  0  0  0  0  0  0  0  0  0  0
   -8.3050    1.0820  -25.6530 C   0  0  0  0  0  0  0  0  0  0  0  0
   -9.1500    0.2030  -24.8740 N   0  0  0  0  0  0  0  0  0  0  0  0
   -8.6580   -1.1150  -24.5190 C   0  0  0  0  0  0  0  0  0  0  0  0
   -8.9690   -1.4760  -23.0460 C   0  0  2  0  0  0  0  0  0  0  0  0
   -8.1600   -0.5650  -22.0950 C   0  0  0  0  0  0  0  0  0  0  0  0
   -8.1730    0.6450  -22.0710 O   0  0  0  0  0  0  0  0  0  0  0  0
   -7.3900   -1.3440  -21.2530 N   0  0  0  0  0  0  0  0  0  0  0  0
   -6.5940   -0.8080  -20.2120 C   0  0  0  0  0  0  0  0  0  0  0  0
   -6.8940   -1.0670  -18.8970 C   0  0  0  0  0  0  0  0  0  0  0  0
   -6.2090   -0.5660  -17.8410 N   0  0  0  0  0  0  0  0  0  0  0  0
   -5.1830    0.2070  -18.0940 C   0  0  0  0  0  0  0  0  0  0  0  0
   -4.7360    0.5230  -19.4070 C   0  0  0  0  0  0  0  0  0  0  0  0
   -3.6050    1.3530  -19.6270 C   0  0  0  0  0  0  0  0  0  0  0  0
   -3.1840    1.6270  -20.8990 C   0  0  0  0  0  0  0  0  0  0  0  0
   -3.8670    1.0800  -22.0060 C   0  0  0  0  0  0  0  0  0  0  0  0
   -4.9580    0.2690  -21.8180 C   0  0  0  0  0  0  0  0  0  0  0  0
   -5.4410   -0.0090  -20.5080 C   0  0  0  0  0  0  0  0  0  0  0  0
   -5.4670   -0.1560  -22.6770 H   0  0  0  0  0  0  0  0  0  0  0  0
   -3.5240    1.2940  -23.0140 H   0  0  0  0  0  0  0  0  0  0  0  0
   -2.3250    2.2700  -21.0680 H   0  0  0  0  0  0  0  0  0  0  0  0
   -3.0970    1.7690  -18.7620 H   0  0  0  0  0  0  0  0  0  0  0  0
   -4.6370    0.6130  -17.2410 H   0  0  0  0  0  0  0  0  0  0  0  0
   -7.7550   -1.6850  -18.6440 H   0  0  0  0  0  0  0  0  0  0  0  0
   -7.6390   -2.7560  -21.3820 C   0  0  0  0  0  0  0  0  0  0  0  0
   -8.4780   -2.8790  -22.6460 C   0  0  0  0  0  0  0  0  0  0  0  0
   -9.3420   -4.0920  -22.8220 C   0  0  0  0  0  0  0  0  0  0  0  0
   -8.0960   -3.9440  -23.6430 C   0  0  0  0  0  0  0  0  0  0  0  0
   -7.2410   -4.5760  -23.4080 H   0  0  0  0  0  0  0  0  0  0  0  0
   -8.1970   -3.7140  -24.7000 H   0  0  0  0  0  0  0  0  0  0  0  0
   -9.3670   -4.8370  -22.0270 H   0  0  0  0  0  0  0  0  0  0  0  0
  -10.2950   -3.9510  -23.3220 H   0  0  0  0  0  0  0  0  0  0  0  0
   -6.6950   -3.3080  -21.4470 H   0  0  0  0  0  0  0  0  0  0  0  0
   -8.1940   -3.1220  -20.5160 H   0  0  0  0  0  0  0  0  0  0  0  0
  -10.4670   -1.2310  -22.8720 C   0  0  0  0  0  0  0  0  0  0  0  0
  -11.2020   -1.9680  -21.9440 C   0  0  0  0  0  0  0  0  0  0  0  0
  -12.5750   -1.8120  -21.8820 C   0  0  0  0  0  0  0  0  0  0  0  0
  -13.4830   -2.9580  -20.9420 Cl  0  0  0  0  0  0  0  0  0  0  0  0
  -13.2250   -0.7560  -22.5180 C   0  0  0  0  0  0  0  0  0  0  0  0
  -12.4830    0.0400  -23.3700 C   0  0  0  0  0  0  0  0  0  0  0  0
  -11.1450   -0.2480  -23.6120 C   0  0  0  0  0  0  0  0  0  0  0  0
  -10.4430    0.5680  -24.6470 C   0  0  0  0  0  0  0  0  0  0  0  0
  -10.9690    1.5110  -25.2320 O   0  0  0  0  0  0  0  0  0  0  0  0
  -12.9080    0.8930  -23.8830 H   0  0  0  0  0  0  0  0  0  0  0  0
  -14.2840   -0.5930  -22.3490 H   0  0  0  0  0  0  0  0  0  0  0  0
  -10.7160   -2.7070  -21.3130 H   0  0  0  0  0  0  0  0  0  0  0  0
   -7.5820   -1.1400  -24.7100 H   0  0  0  0  0  0  0  0  0  0  0  0
   -9.1380   -1.8660  -25.1600 H   0  0  0  0  0  0  0  0  0  0  0  0
   -8.6850    2.0990  -25.5240 H   0  0  0  0  0  0  0  0  0  0  0  0
   -7.2820    1.0050  -25.2620 H   0  0  0  0  0  0  0  0  0  0  0  0
   -9.9120    1.8940  -27.4530 H   0  0  0  0  0  0  0  0  0  0  0  0
   -9.5210   -0.0020  -29.4530 H   0  0  0  0  0  0  0  0  0  0  0  0
  -10.0400    1.6740  -29.7760 H   0  0  0  0  0  0  0  0  0  0  0  0
   -8.3180    1.2400  -29.8100 H   0  0  0  0  0  0  0  0  0  0  0  0
  1  2  1  0  0  0  0
  1 55  1  0  0  0  0
  1 56  1  0  0  0  0
  1 57  1  0  0  0  0
  2  3  1  0  0  0  0
  2 54  1  0  0  0  0
  3  4  2  0  0  0  0
  3  5  1  0  0  0  0
  5  6  1  0  0  0  0
  5 52  1  0  0  0  0
  5 53  1  0  0  0  0
  6  7  1  0  0  0  0
  6 45  1  0  0  0  0
  7  8  1  0  0  0  0
  7 50  1  0  0  0  0
  7 51  1  0  0  0  0
  8  9  1  1  0  0  0
  8 29  1  0  0  0  0
  8 38  1  0  0  0  0
  9 10  2  0  0  0  0
  9 11  1  0  0  0  0
 11 12  1  0  0  0  0
 11 28  1  0  0  0  0
 12 13  2  0  0  0  0
 12 21  1  0  0  0  0
 13 14  1  0  0  0  0
 13 27  1  0  0  0  0
 14 15  2  0  0  0  0
 15 16  1  0  0  0  0
 15 26  1  0  0  0  0
 16 17  2  0  0  0  0
 16 21  1  0  0  0  0
 17 18  1  0  0  0  0
 17 25  1  0  0  0  0
 18 19  2  0  0  0  0
 18 24  1  0  0  0  0
 19 20  1  0  0  0  0
 19 23  1  0  0  0  0
 20 21  2  0  0  0  0
 20 22  1  0  0  0  0
 28 29  1  0  0  0  0
 28 36  1  0  0  0  0
 28 37  1  0  0  0  0
 29 30  1  0  0  0  0
 29 31  1  0  0  0  0
 30 31  1  0  0  0  0
 30 34  1  0  0  0  0
 30 35  1  0  0  0  0
 31 32  1  0  0  0  0
 31 33  1  0  0  0  0
 38 39  2  0  0  0  0
 38 44  1  0  0  0  0
 39 40  1  0  0  0  0
 39 49  1  0  0  0  0
 40 41  1  0  0  0  0
 40 42  2  0  0  0  0
 42 43  1  0  0  0  0
 42 48  1  0  0  0  0
 43 44  2  0  0  0  0
 43 47  1  0  0  0  0
 44 45  1  0  0  0  0
 45 46  2  0  0  0  0
M  END
>  <MODEL>
       1

$$$$
