tmp_first_model_3_3.pdb
 OpenBabel08272518143D

 66 70  0  0  1  0  0  0  0  0999 V2000
   -7.4570    3.3140  -21.9080 C   0  0  0  0  0  0  0  0  0  0  0  0
   -8.4730    2.8180  -22.8260 N   0  0  0  0  0  0  0  0  0  0  0  0
   -8.0150    2.0930  -23.8880 C   0  0  0  0  0  0  0  0  0  0  0  0
   -6.8240    1.8960  -24.0750 O   0  0  0  0  0  0  0  0  0  0  0  0
   -9.0430    1.5020  -24.8410 C   0  0  0  0  0  0  0  0  0  0  0  0
   -9.5920    0.2900  -24.2670 N   0  0  0  0  0  0  0  0  0  0  0  0
   -8.7600   -0.9000  -24.1310 C   0  0  0  0  0  0  0  0  0  0  0  0
   -9.0630   -1.6770  -22.8180 C   0  0  2  0  0  0  0  0  0  0  0  0
   -8.5550   -0.8840  -21.5930 C   0  0  0  0  0  0  0  0  0  0  0  0
   -9.0860    0.0720  -21.0600 O   0  0  0  0  0  0  0  0  0  0  0  0
   -7.3600   -1.4360  -21.1880 N   0  0  0  0  0  0  0  0  0  0  0  0
   -6.5910   -0.8340  -20.1640 C   0  0  0  0  0  0  0  0  0  0  0  0
   -6.9280   -1.0360  -18.8500 C   0  0  0  0  0  0  0  0  0  0  0  0
   -6.2380   -0.5350  -17.7970 N   0  0  0  0  0  0  0  0  0  0  0  0
   -5.1900    0.2070  -18.0720 C   0  0  0  0  0  0  0  0  0  0  0  0
   -4.7460    0.5170  -19.3890 C   0  0  0  0  0  0  0  0  0  0  0  0
   -3.6230    1.3520  -19.6300 C   0  0  0  0  0  0  0  0  0  0  0  0
   -3.2410    1.6490  -20.9090 C   0  0  0  0  0  0  0  0  0  0  0  0
   -3.9670    1.1380  -22.0070 C   0  0  0  0  0  0  0  0  0  0  0  0
   -5.0610    0.3320  -21.8040 C   0  0  0  0  0  0  0  0  0  0  0  0
   -5.4690   -0.0100  -20.4840 C   0  0  0  0  0  0  0  0  0  0  0  0
   -5.6370   -0.0090  -22.6590 H   0  0  0  0  0  0  0  0  0  0  0  0
   -3.6610    1.3910  -23.0170 H   0  0  0  0  0  0  0  0  0  0  0  0
   -2.3840    2.2920  -21.0850 H   0  0  0  0  0  0  0  0  0  0  0  0
   -3.0940    1.7580  -18.7720 H   0  0  0  0  0  0  0  0  0  0  0  0
   -4.6350    0.6130  -17.2260 H   0  0  0  0  0  0  0  0  0  0  0  0
   -7.7950   -1.6480  -18.6150 H   0  0  0  0  0  0  0  0  0  0  0  0
   -6.9350   -2.5930  -21.9520 C   0  0  0  0  0  0  0  0  0  0  0  0
   -8.2150   -2.9830  -22.7160 C   0  0  2  0  0  0  0  0  0  0  0  0
   -7.9300   -3.6800  -24.0410 C   0  0  0  0  0  0  0  0  0  0  0  0
   -7.2180   -4.8750  -23.8040 O   0  0  0  0  0  0  0  0  0  0  0  0
   -7.0450   -5.6940  -24.9560 C   0  0  0  0  0  0  0  0  0  0  0  0
   -5.6710   -6.3480  -24.8670 C   0  0  0  0  0  0  0  0  0  0  0  0
   -5.4910   -6.9640  -25.7590 H   0  0  0  0  0  0  0  0  0  0  0  0
   -4.8850   -5.5870  -24.8010 H   0  0  0  0  0  0  0  0  0  0  0  0
   -5.6200   -6.9870  -23.9780 H   0  0  0  0  0  0  0  0  0  0  0  0
   -8.1510   -6.7450  -25.0380 C   0  0  0  0  0  0  0  0  0  0  0  0
   -8.1240   -7.3870  -24.1500 H   0  0  0  0  0  0  0  0  0  0  0  0
   -9.1450   -6.2850  -25.1010 H   0  0  0  0  0  0  0  0  0  0  0  0
   -8.0060   -7.3700  -25.9280 H   0  0  0  0  0  0  0  0  0  0  0  0
   -7.0810   -5.0670  -25.8620 H   0  0  0  0  0  0  0  0  0  0  0  0
   -8.8810   -3.8850  -24.5580 H   0  0  0  0  0  0  0  0  0  0  0  0
   -7.3250   -3.0290  -24.6940 H   0  0  0  0  0  0  0  0  0  0  0  0
   -8.7560   -3.6990  -22.0920 H   0  0  0  0  0  0  0  0  0  0  0  0
   -6.1060   -2.3480  -22.6340 H   0  0  0  0  0  0  0  0  0  0  0  0
   -6.5920   -3.3920  -21.2870 H   0  0  0  0  0  0  0  0  0  0  0  0
  -10.5630   -1.8570  -22.7260 C   0  0  0  0  0  0  0  0  0  0  0  0
  -11.1120   -2.8090  -21.8630 C   0  0  0  0  0  0  0  0  0  0  0  0
  -12.4760   -2.8340  -21.6390 C   0  0  0  0  0  0  0  0  0  0  0  0
  -13.0850   -3.9260  -20.4330 Cl  0  0  0  0  0  0  0  0  0  0  0  0
  -13.3460   -1.9790  -22.3190 C   0  0  0  0  0  0  0  0  0  0  0  0
  -12.8170   -1.0710  -23.2050 C   0  0  0  0  0  0  0  0  0  0  0  0
  -11.4390   -0.9680  -23.3620 C   0  0  0  0  0  0  0  0  0  0  0  0
  -10.9470    0.2110  -24.1320 C   0  0  0  0  0  0  0  0  0  0  0  0
  -11.7110    1.0640  -24.5680 O   0  0  0  0  0  0  0  0  0  0  0  0
  -13.4470   -0.3830  -23.7580 H   0  0  0  0  0  0  0  0  0  0  0  0
  -14.4140   -1.9750  -22.1360 H   0  0  0  0  0  0  0  0  0  0  0  0
  -10.4930   -3.5200  -21.3270 H   0  0  0  0  0  0  0  0  0  0  0  0
   -8.9430   -1.5760  -24.9800 H   0  0  0  0  0  0  0  0  0  0  0  0
   -7.7070   -0.5990  -24.1620 H   0  0  0  0  0  0  0  0  0  0  0  0
   -8.5670    1.2780  -25.8020 H   0  0  0  0  0  0  0  0  0  0  0  0
   -9.8880    2.1660  -25.0320 H   0  0  0  0  0  0  0  0  0  0  0  0
   -9.3980    2.6280  -22.4490 H   0  0  0  0  0  0  0  0  0  0  0  0
   -6.7200    3.8870  -22.4800 H   0  0  0  0  0  0  0  0  0  0  0  0
   -7.9000    3.9960  -21.1730 H   0  0  0  0  0  0  0  0  0  0  0  0
   -6.9450    2.4600  -21.4290 H   0  0  0  0  0  0  0  0  0  0  0  0
  1  2  1  0  0  0  0
  1 64  1  0  0  0  0
  1 65  1  0  0  0  0
  1 66  1  0  0  0  0
  2  3  1  0  0  0  0
  2 63  1  0  0  0  0
  3  4  2  0  0  0  0
  3  5  1  0  0  0  0
  5  6  1  0  0  0  0
  5 61  1  0  0  0  0
  5 62  1  0  0  0  0
  6  7  1  0  0  0  0
  6 54  1  0  0  0  0
  7  8  1  0  0  0  0
  7 59  1  0  0  0  0
  7 60  1  0  0  0  0
  8  9  1  1  0  0  0
  8 29  1  0  0  0  0
  8 47  1  0  0  0  0
  9 10  2  0  0  0  0
  9 11  1  0  0  0  0
 11 12  1  0  0  0  0
 11 28  1  0  0  0  0
 12 13  2  0  0  0  0
 12 21  1  0  0  0  0
 13 14  1  0  0  0  0
 13 27  1  0  0  0  0
 14 15  2  0  0  0  0
 15 16  1  0  0  0  0
 15 26  1  0  0  0  0
 16 17  2  0  0  0  0
 16 21  1  0  0  0  0
 17 18  1  0  0  0  0
 17 25  1  0  0  0  0
 18 19  2  0  0  0  0
 18 24  1  0  0  0  0
 19 20  1  0  0  0  0
 19 23  1  0  0  0  0
 20 21  2  0  0  0  0
 20 22  1  0  0  0  0
 28 29  1  0  0  0  0
 28 45  1  0  0  0  0
 28 46  1  0  0  0  0
 29 30  1  0  0  0  0
 29 44  1  1  0  0  0
 30 31  1  0  0  0  0
 30 42  1  0  0  0  0
 30 43  1  0  0  0  0
 31 32  1  0  0  0  0
 32 33  1  0  0  0  0
 32 37  1  0  0  0  0
 32 41  1  0  0  0  0
 33 34  1  0  0  0  0
 33 35  1  0  0  0  0
 33 36  1  0  0  0  0
 37 38  1  0  0  0  0
 37 39  1  0  0  0  0
 37 40  1  0  0  0  0
 47 48  2  0  0  0  0
 47 53  1  0  0  0  0
 48 49  1  0  0  0  0
 48 58  1  0  0  0  0
 49 50  1  0  0  0  0
 49 51  2  0  0  0  0
 51 52  1  0  0  0  0
 51 57  1  0  0  0  0
 52 53  2  0  0  0  0
 52 56  1  0  0  0  0
 53 54  1  0  0  0  0
 54 55  2  0  0  0  0
M  END
>  <MODEL>
       1

$$$$
