tmp_first_model_12_27.pdb
 OpenBabel08272523333D

 58 62  0  0  1  0  0  0  0  0999 V2000
   -7.0820    3.4790  -22.0410 C   0  0  0  0  0  0  0  0  0  0  0  0
   -7.4670    2.4210  -22.9780 N   0  3  0  0  0  0  0  0  0  0  0  0
   -8.4880    2.8130  -23.9730 C   0  0  0  0  0  0  0  0  0  0  0  0
   -8.7450    1.6810  -24.9660 C   0  0  0  0  0  0  0  0  0  0  0  0
   -9.3690    0.5360  -24.3190 N   0  0  0  0  0  0  0  0  0  0  0  0
   -8.6540   -0.7200  -24.1750 C   0  0  0  0  0  0  0  0  0  0  0  0
   -9.0370   -1.4500  -22.8640 C   0  0  2  0  0  0  0  0  0  0  0  0
   -8.4150   -0.6370  -21.7130 C   0  0  0  0  0  0  0  0  0  0  0  0
   -8.6420    0.5300  -21.4160 O   0  0  0  0  0  0  0  0  0  0  0  0
   -7.4150   -1.3690  -21.1480 N   0  0  0  0  0  0  0  0  0  0  0  0
   -6.6210   -0.7670  -20.1450 C   0  0  0  0  0  0  0  0  0  0  0  0
   -6.9210   -1.0320  -18.8350 C   0  0  0  0  0  0  0  0  0  0  0  0
   -6.2250   -0.5460  -17.7870 N   0  0  0  0  0  0  0  0  0  0  0  0
   -5.1950    0.2180  -18.0630 C   0  0  0  0  0  0  0  0  0  0  0  0
   -4.8060    0.5980  -19.3800 C   0  0  0  0  0  0  0  0  0  0  0  0
   -3.6950    1.4480  -19.6090 C   0  0  0  0  0  0  0  0  0  0  0  0
   -3.3720    1.8490  -20.8760 C   0  0  0  0  0  0  0  0  0  0  0  0
   -4.1700    1.4530  -21.9710 C   0  0  0  0  0  0  0  0  0  0  0  0
   -5.2330    0.5950  -21.7750 C   0  0  0  0  0  0  0  0  0  0  0  0
   -5.5730    0.1370  -20.4700 C   0  0  0  0  0  0  0  0  0  0  0  0
   -5.7980    0.2330  -22.6300 H   0  0  0  0  0  0  0  0  0  0  0  0
   -3.9190    1.8140  -22.9660 H   0  0  0  0  0  0  0  0  0  0  0  0
   -2.5030    2.4810  -21.0430 H   0  0  0  0  0  0  0  0  0  0  0  0
   -3.1190    1.7700  -18.7470 H   0  0  0  0  0  0  0  0  0  0  0  0
   -4.6220    0.5980  -17.2210 H   0  0  0  0  0  0  0  0  0  0  0  0
   -7.7720   -1.6710  -18.6110 H   0  0  0  0  0  0  0  0  0  0  0  0
   -7.0240   -2.5220  -21.9360 C   0  0  0  0  0  0  0  0  0  0  0  0
   -8.2940   -2.8160  -22.7410 C   0  0  2  0  0  0  0  0  0  0  0  0
   -8.0170   -3.5420  -24.0510 C   0  0  0  0  0  0  0  0  0  0  0  0
   -7.5580   -4.5180  -23.8650 H   0  0  0  0  0  0  0  0  0  0  0  0
   -8.9390   -3.6960  -24.6230 H   0  0  0  0  0  0  0  0  0  0  0  0
   -7.3260   -2.9680  -24.6810 H   0  0  0  0  0  0  0  0  0  0  0  0
   -8.9000   -3.4690  -22.1120 H   0  0  0  0  0  0  0  0  0  0  0  0
   -6.7300   -3.3580  -21.2960 H   0  0  0  0  0  0  0  0  0  0  0  0
   -6.1750   -2.3030  -22.6000 H   0  0  0  0  0  0  0  0  0  0  0  0
  -10.5490   -1.5270  -22.7710 C   0  0  0  0  0  0  0  0  0  0  0  0
  -11.2000   -2.5210  -22.0260 C   0  0  0  0  0  0  0  0  0  0  0  0
  -12.5760   -2.5220  -21.9320 C   0  0  0  0  0  0  0  0  0  0  0  0
  -13.1630   -3.4670  -21.1700 F   0  0  0  0  0  0  0  0  0  0  0  0
  -13.3650   -1.5720  -22.5760 C   0  0  0  0  0  0  0  0  0  0  0  0
  -12.7300   -0.5860  -23.3090 C   0  0  0  0  0  0  0  0  0  0  0  0
  -11.3370   -0.5420  -23.3890 C   0  0  0  0  0  0  0  0  0  0  0  0
  -10.7200    0.5960  -24.1430 C   0  0  0  0  0  0  0  0  0  0  0  0
  -11.3980    1.5240  -24.5770 O   0  0  0  0  0  0  0  0  0  0  0  0
  -13.3000    0.1740  -23.8340 H   0  0  0  0  0  0  0  0  0  0  0  0
  -14.4450   -1.6380  -22.5000 H   0  0  0  0  0  0  0  0  0  0  0  0
  -10.6630   -3.3010  -21.5000 H   0  0  0  0  0  0  0  0  0  0  0  0
   -8.8750   -1.3710  -25.0290 H   0  0  0  0  0  0  0  0  0  0  0  0
   -7.5790   -0.5100  -24.1520 H   0  0  0  0  0  0  0  0  0  0  0  0
   -7.8090    1.3470  -25.4270 H   0  0  0  0  0  0  0  0  0  0  0  0
   -9.4220    2.0130  -25.7580 H   0  0  0  0  0  0  0  0  0  0  0  0
   -9.4270    3.0420  -23.4630 H   0  0  0  0  0  0  0  0  0  0  0  0
   -8.1720    3.7130  -24.5120 H   0  0  0  0  0  0  0  0  0  0  0  0
   -6.6090    2.1400  -23.4840 H   0  0  0  0  0  0  0  0  0  0  0  0
   -7.8300    1.6160  -22.4310 H   0  0  0  0  0  0  0  0  0  0  0  0
   -6.2030    3.1720  -21.4700 H   0  0  0  0  0  0  0  0  0  0  0  0
   -7.8960    3.6910  -21.3440 H   0  0  0  0  0  0  0  0  0  0  0  0
   -6.8400    4.4080  -22.5650 H   0  0  0  0  0  0  0  0  0  0  0  0
  1  2  1  0  0  0  0
  1 56  1  0  0  0  0
  1 57  1  0  0  0  0
  1 58  1  0  0  0  0
  2  3  1  0  0  0  0
  2 54  1  0  0  0  0
  2 55  1  0  0  0  0
  3  4  1  0  0  0  0
  3 52  1  0  0  0  0
  3 53  1  0  0  0  0
  4  5  1  0  0  0  0
  4 50  1  0  0  0  0
  4 51  1  0  0  0  0
  5  6  1  0  0  0  0
  5 43  1  0  0  0  0
  6  7  1  0  0  0  0
  6 48  1  0  0  0  0
  6 49  1  0  0  0  0
  7  8  1  1  0  0  0
  7 28  1  0  0  0  0
  7 36  1  0  0  0  0
  8  9  2  0  0  0  0
  8 10  1  0  0  0  0
 10 11  1  0  0  0  0
 10 27  1  0  0  0  0
 11 12  2  0  0  0  0
 11 20  1  0  0  0  0
 12 13  1  0  0  0  0
 12 26  1  0  0  0  0
 13 14  2  0  0  0  0
 14 15  1  0  0  0  0
 14 25  1  0  0  0  0
 15 16  2  0  0  0  0
 15 20  1  0  0  0  0
 16 17  1  0  0  0  0
 16 24  1  0  0  0  0
 17 18  2  0  0  0  0
 17 23  1  0  0  0  0
 18 19  1  0  0  0  0
 18 22  1  0  0  0  0
 19 20  2  0  0  0  0
 19 21  1  0  0  0  0
 27 28  1  0  0  0  0
 27 34  1  0  0  0  0
 27 35  1  0  0  0  0
 28 29  1  0  0  0  0
 28 33  1  1  0  0  0
 29 30  1  0  0  0  0
 29 31  1  0  0  0  0
 29 32  1  0  0  0  0
 36 37  2  0  0  0  0
 36 42  1  0  0  0  0
 37 38  1  0  0  0  0
 37 47  1  0  0  0  0
 38 39  1  0  0  0  0
 38 40  2  0  0  0  0
 40 41  1  0  0  0  0
 40 46  1  0  0  0  0
 41 42  2  0  0  0  0
 41 45  1  0  0  0  0
 42 43  1  0  0  0  0
 43 44  2  0  0  0  0
M  CHG  1   2   1
M  END
>  <MODEL>
       1

$$$$
