tmp_first_model_17_39.pdb
 OpenBabel08282502223D

 40 44  0  0  1  0  0  0  0  0999 V2000
   -7.2310    0.9540  -25.6020 C   0  0  0  0  0  0  0  0  0  0  0  0
   -6.4990   -0.3690  -25.4060 C   0  0  0  0  0  0  0  0  0  0  0  0
   -5.2960   -0.4690  -25.5820 O   0  0  0  0  0  0  0  0  0  0  0  0
   -7.2540   -1.4520  -25.0460 N   0  0  0  0  0  0  0  0  0  0  0  0
   -6.6460   -2.7650  -24.7210 C   0  0  0  0  0  0  0  0  0  0  0  0
   -7.8230   -3.4990  -24.0350 C   0  0  2  0  0  0  0  0  0  0  0  0
   -8.9950   -2.9680  -24.8670 C   0  0  0  0  0  0  0  0  0  0  0  0
   -8.6580   -1.5010  -24.5580 C   0  0  1  0  0  0  0  0  0  0  0  0
   -8.5940   -1.5840  -23.0840 C   0  0  0  0  0  0  0  0  0  0  0  0
   -8.1600   -0.6180  -22.1220 C   0  0  0  0  0  0  0  0  0  0  0  0
   -8.3090    0.5830  -22.0800 O   0  5  0  0  0  0  0  0  0  0  0  0
   -7.4060   -1.3990  -21.1890 N   0  0  0  0  0  0  0  0  0  0  0  0
   -6.5880   -0.8220  -20.1740 C   0  0  0  0  0  0  0  0  0  0  0  0
   -6.8840   -1.0540  -18.8560 C   0  0  0  0  0  0  0  0  0  0  0  0
   -6.1930   -0.5390  -17.8060 N   0  0  0  0  0  0  0  0  0  0  0  0
   -5.1610    0.2220  -18.0690 C   0  0  0  0  0  0  0  0  0  0  0  0
   -4.7230    0.5330  -19.3880 C   0  0  0  0  0  0  0  0  0  0  0  0
   -3.5920    1.3620  -19.6280 C   0  0  0  0  0  0  0  0  0  0  0  0
   -3.1980    1.6340  -20.9080 C   0  0  0  0  0  0  0  0  0  0  0  0
   -3.9030    1.0850  -22.0030 C   0  0  0  0  0  0  0  0  0  0  0  0
   -4.9890    0.2740  -21.7950 C   0  0  0  0  0  0  0  0  0  0  0  0
   -5.4450   -0.0080  -20.4790 C   0  0  0  0  0  0  0  0  0  0  0  0
   -5.5110   -0.1560  -22.6450 H   0  0  0  0  0  0  0  0  0  0  0  0
   -3.5710    1.2870  -23.0170 H   0  0  0  0  0  0  0  0  0  0  0  0
   -2.3300    2.2590  -21.1010 H   0  0  0  0  0  0  0  0  0  0  0  0
   -3.0510    1.7750  -18.7800 H   0  0  0  0  0  0  0  0  0  0  0  0
   -4.6060    0.6250  -17.2180 H   0  0  0  0  0  0  0  0  0  0  0  0
   -7.7370   -1.6750  -18.5980 H   0  0  0  0  0  0  0  0  0  0  0  0
   -7.2480   -2.7320  -21.6310 C   0  0  0  0  0  0  0  0  0  0  0  0
   -6.5180   -3.5750  -21.1650 O   0  0  0  0  0  0  0  0  0  0  0  0
   -8.0960   -2.8200  -22.7430 N   0  0  0  0  0  0  0  0  0  0  0  0
   -9.2970   -0.7210  -24.9730 H   0  0  0  0  0  0  0  0  0  0  0  0
   -9.9610   -3.2810  -24.4790 H   0  0  0  0  0  0  0  0  0  0  0  0
   -8.9170   -3.2080  -25.9300 H   0  0  0  0  0  0  0  0  0  0  0  0
   -7.7310   -4.5730  -23.9220 H   0  0  0  0  0  0  0  0  0  0  0  0
   -5.7870   -2.6790  -24.0510 H   0  0  0  0  0  0  0  0  0  0  0  0
   -6.3240   -3.2740  -25.6340 H   0  0  0  0  0  0  0  0  0  0  0  0
   -6.4990    1.6970  -25.9130 H   0  0  0  0  0  0  0  0  0  0  0  0
   -7.7130    1.2970  -24.6820 H   0  0  0  0  0  0  0  0  0  0  0  0
   -7.9970    0.8930  -26.3810 H   0  0  0  0  0  0  0  0  0  0  0  0
  1  2  1  0  0  0  0
  1 38  1  0  0  0  0
  1 39  1  0  0  0  0
  1 40  1  0  0  0  0
  2  3  2  0  0  0  0
  2  4  1  0  0  0  0
  4  5  1  0  0  0  0
  4  8  1  0  0  0  0
  5  6  1  0  0  0  0
  5 36  1  0  0  0  0
  5 37  1  0  0  0  0
  6  7  1  0  0  0  0
  6 31  1  0  0  0  0
  6 35  1  1  0  0  0
  7  8  1  0  0  0  0
  7 33  1  0  0  0  0
  7 34  1  0  0  0  0
  8  9  1  0  0  0  0
  8 32  1  6  0  0  0
  9 10  2  0  0  0  0
  9 31  1  0  0  0  0
 10 11  1  0  0  0  0
 10 12  1  0  0  0  0
 12 13  1  0  0  0  0
 12 29  1  0  0  0  0
 13 14  2  0  0  0  0
 13 22  1  0  0  0  0
 14 15  1  0  0  0  0
 14 28  1  0  0  0  0
 15 16  2  0  0  0  0
 16 17  1  0  0  0  0
 16 27  1  0  0  0  0
 17 18  2  0  0  0  0
 17 22  1  0  0  0  0
 18 19  1  0  0  0  0
 18 26  1  0  0  0  0
 19 20  2  0  0  0  0
 19 25  1  0  0  0  0
 20 21  1  0  0  0  0
 20 24  1  0  0  0  0
 21 22  2  0  0  0  0
 21 23  1  0  0  0  0
 29 30  2  0  0  0  0
 29 31  1  0  0  0  0
M  CHG  1  11  -1
M  END
>  <MODEL>
       1

$$$$
