tmp_first_model_17_32.pdb
 OpenBabel08282502223D

 57 62  0  0  1  0  0  0  0  0999 V2000
  -10.2320   -2.9750  -22.0720 C   0  0  0  0  0  0  0  0  0  0  0  0
   -9.1630   -2.0210  -22.6330 C   0  0  1  0  0  0  0  0  0  0  0  0
   -8.6870   -1.0450  -21.5350 C   0  0  0  0  0  0  0  0  0  0  0  0
   -7.3410   -1.4650  -21.2100 N   0  0  0  0  0  0  0  0  0  0  0  0
   -6.5660   -0.8640  -20.1850 C   0  0  0  0  0  0  0  0  0  0  0  0
   -6.9020   -1.0560  -18.8670 C   0  0  0  0  0  0  0  0  0  0  0  0
   -6.2220   -0.5370  -17.8160 N   0  0  0  0  0  0  0  0  0  0  0  0
   -5.1790    0.2110  -18.0850 C   0  0  0  0  0  0  0  0  0  0  0  0
   -4.7360    0.5200  -19.4040 C   0  0  0  0  0  0  0  0  0  0  0  0
   -3.6160    1.3620  -19.6340 C   0  0  0  0  0  0  0  0  0  0  0  0
   -3.2370    1.6730  -20.9100 C   0  0  0  0  0  0  0  0  0  0  0  0
   -3.9630    1.1630  -22.0120 C   0  0  0  0  0  0  0  0  0  0  0  0
   -5.0470    0.3420  -21.8170 C   0  0  0  0  0  0  0  0  0  0  0  0
   -5.4530   -0.0160  -20.4990 C   0  0  0  0  0  0  0  0  0  0  0  0
   -5.5960   -0.0430  -22.6760 H   0  0  0  0  0  0  0  0  0  0  0  0
   -3.6440    1.4130  -23.0180 H   0  0  0  0  0  0  0  0  0  0  0  0
   -2.3730    2.3080  -21.0890 H   0  0  0  0  0  0  0  0  0  0  0  0
   -3.0770    1.7550  -18.7750 H   0  0  0  0  0  0  0  0  0  0  0  0
   -4.6250    0.6140  -17.2360 H   0  0  0  0  0  0  0  0  0  0  0  0
   -7.7570   -1.6800  -18.6110 H   0  0  0  0  0  0  0  0  0  0  0  0
   -6.8180   -2.4060  -22.0660 C   0  0  0  0  0  0  0  0  0  0  0  0
   -5.7130   -2.8960  -21.9620 O   0  0  0  0  0  0  0  0  0  0  0  0
   -7.8560   -2.6910  -23.1740 C   0  0  1  0  0  0  0  0  0  0  0  0
   -7.9920   -4.2190  -23.3900 C   0  0  0  0  0  0  0  0  0  0  0  0
   -6.8010   -4.7990  -23.9890 N   0  0  0  0  0  0  0  0  0  0  0  0
   -6.1890   -5.9570  -23.3390 C   0  0  0  0  0  0  0  0  0  0  0  0
   -7.1000   -7.1390  -23.3710 C   0  0  0  0  0  0  0  0  0  0  0  0
   -7.5830   -7.8590  -22.3830 N   0  0  0  0  0  0  0  0  0  0  0  0
   -8.5320   -8.6500  -22.9400 N   0  0  0  0  0  0  0  0  0  0  0  0
   -8.6280   -8.4440  -24.1980 N   0  0  0  0  0  0  0  0  0  0  0  0
   -7.6930   -7.5320  -24.5100 N   0  0  0  0  0  0  0  0  0  0  0  0
   -7.2020   -7.3870  -25.8580 C   0  0  0  0  0  0  0  0  0  0  0  0
   -7.4440   -6.4160  -26.2850 H   0  0  0  0  0  0  0  0  0  0  0  0
   -6.1200   -7.5180  -25.8820 H   0  0  0  0  0  0  0  0  0  0  0  0
   -7.6710   -8.1860  -26.4180 H   0  0  0  0  0  0  0  0  0  0  0  0
   -5.9390   -5.7130  -22.2980 H   0  0  0  0  0  0  0  0  0  0  0  0
   -5.2850   -6.1640  -23.9170 H   0  0  0  0  0  0  0  0  0  0  0  0
   -6.2200   -4.2380  -25.0910 C   0  0  0  0  0  0  0  0  0  0  0  0
   -5.4040   -4.8250  -25.7930 O   0  0  0  0  0  0  0  0  0  0  0  0
   -6.6120   -2.8220  -25.3910 C   0  0  0  0  0  0  0  0  0  0  0  0
   -6.1300   -2.2530  -26.5720 C   0  0  0  0  0  0  0  0  0  0  0  0
   -6.3620   -0.9190  -26.8470 C   0  0  0  0  0  0  0  0  0  0  0  0
   -7.0680   -0.1650  -25.9170 C   0  0  0  0  0  0  0  0  0  0  0  0
   -7.2730    1.1400  -26.1700 F   0  0  0  0  0  0  0  0  0  0  0  0
   -7.5620   -0.7060  -24.7460 C   0  0  0  0  0  0  0  0  0  0  0  0
   -7.3630   -2.0680  -24.4790 C   0  0  0  0  0  0  0  0  0  0  0  0
   -8.0910   -0.0470  -24.0630 H   0  0  0  0  0  0  0  0  0  0  0  0
   -5.9950   -0.4400  -27.7460 H   0  0  0  0  0  0  0  0  0  0  0  0
   -5.5560   -2.8920  -27.2370 H   0  0  0  0  0  0  0  0  0  0  0  0
   -8.8640   -4.4020  -24.0390 H   0  0  0  0  0  0  0  0  0  0  0  0
   -8.1380   -4.7140  -22.4300 H   0  0  0  0  0  0  0  0  0  0  0  0
   -8.7030    0.0050  -21.8590 H   0  0  0  0  0  0  0  0  0  0  0  0
   -9.3320   -1.1240  -20.6640 H   0  0  0  0  0  0  0  0  0  0  0  0
   -9.6420   -1.4740  -23.4540 H   0  0  0  0  0  0  0  0  0  0  0  0
  -10.6180   -3.6520  -22.8390 H   0  0  0  0  0  0  0  0  0  0  0  0
  -11.0860   -2.4010  -21.6940 H   0  0  0  0  0  0  0  0  0  0  0  0
   -9.8480   -3.5790  -21.2430 H   0  0  0  0  0  0  0  0  0  0  0  0
  1  2  1  0  0  0  0
  1 55  1  0  0  0  0
  1 56  1  0  0  0  0
  1 57  1  0  0  0  0
  2  3  1  0  0  0  0
  2 23  1  0  0  0  0
  2 54  1  6  0  0  0
  3  4  1  0  0  0  0
  3 52  1  0  0  0  0
  3 53  1  0  0  0  0
  4  5  1  0  0  0  0
  4 21  1  0  0  0  0
  5  6  2  0  0  0  0
  5 14  1  0  0  0  0
  6  7  1  0  0  0  0
  6 20  1  0  0  0  0
  7  8  2  0  0  0  0
  8  9  1  0  0  0  0
  8 19  1  0  0  0  0
  9 10  2  0  0  0  0
  9 14  1  0  0  0  0
 10 11  1  0  0  0  0
 10 18  1  0  0  0  0
 11 12  2  0  0  0  0
 11 17  1  0  0  0  0
 12 13  1  0  0  0  0
 12 16  1  0  0  0  0
 13 14  2  0  0  0  0
 13 15  1  0  0  0  0
 21 22  2  0  0  0  0
 23 21  1  1  0  0  0
 23 24  1  0  0  0  0
 23 46  1  0  0  0  0
 24 25  1  0  0  0  0
 24 50  1  0  0  0  0
 24 51  1  0  0  0  0
 25 26  1  0  0  0  0
 25 38  1  0  0  0  0
 26 27  1  0  0  0  0
 26 36  1  0  0  0  0
 26 37  1  0  0  0  0
 27 28  2  0  0  0  0
 27 31  1  0  0  0  0
 28 29  1  0  0  0  0
 29 30  2  0  0  0  0
 30 31  1  0  0  0  0
 31 32  1  0  0  0  0
 32 33  1  0  0  0  0
 32 34  1  0  0  0  0
 32 35  1  0  0  0  0
 38 39  2  0  0  0  0
 38 40  1  0  0  0  0
 40 41  2  0  0  0  0
 40 46  1  0  0  0  0
 41 42  1  0  0  0  0
 41 49  1  0  0  0  0
 42 43  2  0  0  0  0
 42 48  1  0  0  0  0
 43 44  1  0  0  0  0
 43 45  1  0  0  0  0
 45 46  2  0  0  0  0
 45 47  1  0  0  0  0
M  END
>  <MODEL>
       1

$$$$
