tmp_first_model_13_47.pdb
 OpenBabel08282500103D

 58 63  0  0  1  0  0  0  0  0999 V2000
   -9.0660    0.2940  -20.9330 O   0  0  0  0  0  0  0  0  0  0  0  0
   -8.5080   -0.4100  -21.7470 C   0  0  0  0  0  0  0  0  0  0  0  0
   -7.4370   -1.4240  -21.2730 C   0  0  0  0  0  0  0  0  0  0  0  0
   -6.5730   -0.8320  -20.1760 C   0  0  0  0  0  0  0  0  0  0  0  0
   -6.8740   -1.0410  -18.8570 C   0  0  0  0  0  0  0  0  0  0  0  0
   -6.1850   -0.5320  -17.7990 N   0  0  0  0  0  0  0  0  0  0  0  0
   -5.1530    0.2230  -18.0660 C   0  0  0  0  0  0  0  0  0  0  0  0
   -4.7170    0.5350  -19.3810 C   0  0  0  0  0  0  0  0  0  0  0  0
   -3.5870    1.3590  -19.6210 C   0  0  0  0  0  0  0  0  0  0  0  0
   -3.1860    1.6320  -20.8970 C   0  0  0  0  0  0  0  0  0  0  0  0
   -3.9000    1.0910  -21.9900 C   0  0  0  0  0  0  0  0  0  0  0  0
   -5.0130    0.3160  -21.7860 C   0  0  0  0  0  0  0  0  0  0  0  0
   -5.4490    0.0010  -20.4730 C   0  0  0  0  0  0  0  0  0  0  0  0
   -5.5640   -0.0630  -22.6410 H   0  0  0  0  0  0  0  0  0  0  0  0
   -3.5780    1.3180  -23.0060 H   0  0  0  0  0  0  0  0  0  0  0  0
   -2.3220    2.2680  -21.0800 H   0  0  0  0  0  0  0  0  0  0  0  0
   -3.0510    1.7690  -18.7680 H   0  0  0  0  0  0  0  0  0  0  0  0
   -4.5990    0.6280  -17.2160 H   0  0  0  0  0  0  0  0  0  0  0  0
   -7.7300   -1.6590  -18.5810 H   0  0  0  0  0  0  0  0  0  0  0  0
   -6.8120   -1.7800  -22.0980 H   0  0  0  0  0  0  0  0  0  0  0  0
   -7.9730   -2.2920  -20.8620 H   0  0  0  0  0  0  0  0  0  0  0  0
   -8.8000   -0.2910  -23.1070 N   0  0  0  0  0  0  0  0  0  0  0  0
   -9.1080    1.0650  -23.5840 C   0  0  0  0  0  0  0  0  0  0  0  0
   -7.8650    1.9360  -23.6160 C   0  0  0  0  0  0  0  0  0  0  0  0
   -7.5980    2.8240  -22.5770 C   0  0  0  0  0  0  0  0  0  0  0  0
   -6.4540    3.6110  -22.6000 C   0  0  0  0  0  0  0  0  0  0  0  0
   -5.5550    3.5250  -23.6570 C   0  0  0  0  0  0  0  0  0  0  0  0
   -5.8120    2.6130  -24.6720 C   0  0  0  0  0  0  0  0  0  0  0  0
   -4.6640    2.4520  -25.9720 Cl  0  0  0  0  0  0  0  0  0  0  0  0
   -6.9500    1.8180  -24.6640 C   0  0  0  0  0  0  0  0  0  0  0  0
   -7.1070    1.1250  -25.4870 H   0  0  0  0  0  0  0  0  0  0  0  0
   -4.6480    4.1230  -23.6730 H   0  0  0  0  0  0  0  0  0  0  0  0
   -6.2500    4.2980  -21.7830 H   0  0  0  0  0  0  0  0  0  0  0  0
   -8.2910    2.8990  -21.7430 H   0  0  0  0  0  0  0  0  0  0  0  0
   -9.8640    1.5090  -22.9280 H   0  0  0  0  0  0  0  0  0  0  0  0
   -9.5320    0.9890  -24.5880 H   0  0  0  0  0  0  0  0  0  0  0  0
   -9.0230   -1.4370  -23.9350 C   0  0  2  0  0  0  0  0  0  0  0  0
  -10.0740   -2.4690  -23.4650 C   0  0  0  0  0  0  0  0  0  0  0  0
   -9.9590   -3.4610  -24.5950 N   0  3  1  0  0  0  0  0  0  0  0  0
  -11.2070   -3.7990  -25.2830 C   0  0  0  0  0  0  0  0  0  0  0  0
  -12.0060   -4.9610  -24.7950 C   0  0  0  0  0  0  0  0  0  0  0  0
  -11.2450   -5.0670  -26.0810 C   0  0  0  0  0  0  0  0  0  0  0  0
  -10.3300   -5.6500  -26.0980 H   0  0  0  0  0  0  0  0  0  0  0  0
  -11.8040   -5.1080  -27.0060 H   0  0  0  0  0  0  0  0  0  0  0  0
  -11.6010   -5.4840  -23.9370 H   0  0  0  0  0  0  0  0  0  0  0  0
  -13.0880   -4.8940  -24.8540 H   0  0  0  0  0  0  0  0  0  0  0  0
  -11.7490   -2.9460  -25.6680 H   0  0  0  0  0  0  0  0  0  0  0  0
   -8.9240   -2.7730  -25.4530 C   0  0  2  0  0  0  0  0  0  0  0  0
   -7.8920   -2.3770  -24.3900 C   0  0  0  0  0  0  0  0  0  0  0  0
   -7.6110   -3.1770  -23.6920 H   0  0  0  0  0  0  0  0  0  0  0  0
   -7.0270   -1.8490  -24.7940 H   0  0  0  0  0  0  0  0  0  0  0  0
   -9.4070   -1.3190  -25.4270 C   0  0  0  0  0  0  0  0  0  0  0  0
  -10.4650   -1.1400  -25.6460 H   0  0  0  0  0  0  0  0  0  0  0  0
   -8.7650   -0.6630  -26.0080 H   0  0  0  0  0  0  0  0  0  0  0  0
   -8.6690   -3.3050  -26.3620 H   0  0  0  0  0  0  0  0  0  0  0  0
   -9.5710   -4.3490  -24.2460 H   0  0  0  0  0  0  0  0  0  0  0  0
   -9.8280   -2.9390  -22.5120 H   0  0  0  0  0  0  0  0  0  0  0  0
  -11.0880   -2.0780  -23.4380 H   0  0  0  0  0  0  0  0  0  0  0  0
  1  2  2  0  0  0  0
  2  3  1  0  0  0  0
  2 22  1  0  0  0  0
  3  4  1  0  0  0  0
  3 20  1  0  0  0  0
  3 21  1  0  0  0  0
  4  5  2  0  0  0  0
  4 13  1  0  0  0  0
  5  6  1  0  0  0  0
  5 19  1  0  0  0  0
  6  7  2  0  0  0  0
  7  8  1  0  0  0  0
  7 18  1  0  0  0  0
  8  9  2  0  0  0  0
  8 13  1  0  0  0  0
  9 10  1  0  0  0  0
  9 17  1  0  0  0  0
 10 11  2  0  0  0  0
 10 16  1  0  0  0  0
 11 12  1  0  0  0  0
 11 15  1  0  0  0  0
 12 13  2  0  0  0  0
 12 14  1  0  0  0  0
 22 23  1  0  0  0  0
 23 24  1  0  0  0  0
 23 35  1  0  0  0  0
 23 36  1  0  0  0  0
 24 25  2  0  0  0  0
 24 30  1  0  0  0  0
 25 26  1  0  0  0  0
 25 34  1  0  0  0  0
 26 27  2  0  0  0  0
 26 33  1  0  0  0  0
 27 28  1  0  0  0  0
 27 32  1  0  0  0  0
 28 29  1  0  0  0  0
 28 30  2  0  0  0  0
 30 31  1  0  0  0  0
 37 22  1  1  0  0  0
 37 38  1  0  0  0  0
 37 49  1  0  0  0  0
 37 52  1  0  0  0  0
 38 39  1  0  0  0  0
 38 57  1  0  0  0  0
 38 58  1  0  0  0  0
 39 40  1  0  0  0  0
 39 48  1  0  0  0  0
 39 56  1  1  0  0  0
 40 41  1  0  0  0  0
 40 42  1  0  0  0  0
 40 47  1  0  0  0  0
 41 42  1  0  0  0  0
 41 45  1  0  0  0  0
 41 46  1  0  0  0  0
 42 43  1  0  0  0  0
 42 44  1  0  0  0  0
 48 49  1  0  0  0  0
 48 52  1  0  0  0  0
 48 55  1  6  0  0  0
 49 50  1  0  0  0  0
 49 51  1  0  0  0  0
 52 53  1  0  0  0  0
 52 54  1  0  0  0  0
M  CHG  1  39   1
M  END
>  <MODEL>
       1

$$$$
