tmp_first_model_11_26.pdb
 OpenBabel08272522543D

 55 60  0  0  1  0  0  0  0  0999 V2000
  -10.4420   -1.1600  -23.2480 C   0  0  0  0  0  0  0  0  0  0  0  0
   -8.9950   -1.5030  -22.9220 C   0  0  1  0  0  0  0  0  0  0  0  0
   -8.3670   -0.5360  -21.9060 C   0  0  0  0  0  0  0  0  0  0  0  0
   -7.3630   -1.3550  -21.2480 N   0  0  0  0  0  0  0  0  0  0  0  0
   -6.5730   -0.8530  -20.1890 C   0  0  0  0  0  0  0  0  0  0  0  0
   -6.8940   -1.1030  -18.8800 C   0  0  0  0  0  0  0  0  0  0  0  0
   -6.2340   -0.5690  -17.8200 N   0  0  0  0  0  0  0  0  0  0  0  0
   -5.2100    0.2080  -18.0810 C   0  0  0  0  0  0  0  0  0  0  0  0
   -4.7500    0.5130  -19.3940 C   0  0  0  0  0  0  0  0  0  0  0  0
   -3.6210    1.3380  -19.6330 C   0  0  0  0  0  0  0  0  0  0  0  0
   -3.2200    1.6060  -20.9120 C   0  0  0  0  0  0  0  0  0  0  0  0
   -3.9200    1.0660  -22.0150 C   0  0  0  0  0  0  0  0  0  0  0  0
   -5.0150    0.2630  -21.8130 C   0  0  0  0  0  0  0  0  0  0  0  0
   -5.4540   -0.0230  -20.4930 C   0  0  0  0  0  0  0  0  0  0  0  0
   -5.5500   -0.1650  -22.6550 H   0  0  0  0  0  0  0  0  0  0  0  0
   -3.5950    1.2970  -23.0260 H   0  0  0  0  0  0  0  0  0  0  0  0
   -2.3640    2.2500  -21.0910 H   0  0  0  0  0  0  0  0  0  0  0  0
   -3.1030    1.7610  -18.7760 H   0  0  0  0  0  0  0  0  0  0  0  0
   -4.6810    0.6370  -17.2290 H   0  0  0  0  0  0  0  0  0  0  0  0
   -7.7260   -1.7600  -18.6370 H   0  0  0  0  0  0  0  0  0  0  0  0
   -7.6220   -2.7040  -21.3410 C   0  0  0  0  0  0  0  0  0  0  0  0
   -7.0100   -3.5530  -20.7230 O   0  0  0  0  0  0  0  0  0  0  0  0
   -8.7830   -2.9340  -22.3070 C   0  0  1  0  0  0  0  0  0  0  0  0
   -9.9850   -3.4090  -21.4530 C   0  0  0  0  0  0  0  0  0  0  0  0
  -11.0860   -3.9440  -22.2380 N   0  0  0  0  0  0  0  0  0  0  0  0
  -12.4540   -3.7980  -21.7720 C   0  0  0  0  0  0  0  0  0  0  0  0
  -13.2800   -2.6960  -22.3470 C   0  0  0  0  0  0  0  0  0  0  0  0
  -13.9940   -2.7330  -23.5560 C   0  0  0  0  0  0  0  0  0  0  0  0
  -14.7910   -1.6730  -23.6190 N   0  0  0  0  0  0  0  0  0  0  0  0
  -14.5480   -1.0530  -22.4820 N   0  0  0  0  0  0  0  0  0  0  0  0
  -13.6570   -1.6120  -21.6780 N   0  0  0  0  0  0  0  0  0  0  0  0
  -15.0900   -0.2610  -22.1740 H   0  0  0  0  0  0  0  0  0  0  0  0
  -13.9150   -3.4540  -24.3540 H   0  0  0  0  0  0  0  0  0  0  0  0
  -12.4960   -3.7650  -20.6820 H   0  0  0  0  0  0  0  0  0  0  0  0
  -12.9730   -4.6800  -22.1320 H   0  0  0  0  0  0  0  0  0  0  0  0
  -10.9230   -4.5820  -23.4350 C   0  0  0  0  0  0  0  0  0  0  0  0
  -11.8790   -4.9200  -24.1290 O   0  0  0  0  0  0  0  0  0  0  0  0
   -9.5080   -4.7910  -23.8520 C   0  0  0  0  0  0  0  0  0  0  0  0
   -9.2520   -5.7660  -24.8100 C   0  0  0  0  0  0  0  0  0  0  0  0
   -7.9920   -5.8950  -25.3580 C   0  0  0  0  0  0  0  0  0  0  0  0
   -6.9920   -5.0350  -24.9180 C   0  0  0  0  0  0  0  0  0  0  0  0
   -5.7860   -5.1080  -25.5060 F   0  0  0  0  0  0  0  0  0  0  0  0
   -7.1990   -4.1090  -23.9120 C   0  0  0  0  0  0  0  0  0  0  0  0
   -8.4770   -3.9880  -23.3490 C   0  0  0  0  0  0  0  0  0  0  0  0
   -6.3630   -3.5020  -23.5780 H   0  0  0  0  0  0  0  0  0  0  0  0
   -7.7810   -6.6200  -26.1350 H   0  0  0  0  0  0  0  0  0  0  0  0
  -10.0790   -6.4020  -25.1130 H   0  0  0  0  0  0  0  0  0  0  0  0
  -10.3670   -2.5310  -20.9220 H   0  0  0  0  0  0  0  0  0  0  0  0
   -9.6350   -4.1500  -20.7180 H   0  0  0  0  0  0  0  0  0  0  0  0
   -9.1110   -0.1720  -21.1790 H   0  0  0  0  0  0  0  0  0  0  0  0
   -7.9120    0.3460  -22.3700 H   0  0  0  0  0  0  0  0  0  0  0  0
   -8.3890   -1.4660  -23.8400 H   0  0  0  0  0  0  0  0  0  0  0  0
  -10.5190   -0.1970  -23.7570 H   0  0  0  0  0  0  0  0  0  0  0  0
  -10.8920   -1.9350  -23.8760 H   0  0  0  0  0  0  0  0  0  0  0  0
  -11.0350   -1.1010  -22.3290 H   0  0  0  0  0  0  0  0  0  0  0  0
  1  2  1  0  0  0  0
  1 53  1  0  0  0  0
  1 54  1  0  0  0  0
  1 55  1  0  0  0  0
  2  3  1  0  0  0  0
  2 23  1  0  0  0  0
  2 52  1  6  0  0  0
  3  4  1  0  0  0  0
  3 50  1  0  0  0  0
  3 51  1  0  0  0  0
  4  5  1  0  0  0  0
  4 21  1  0  0  0  0
  5  6  2  0  0  0  0
  5 14  1  0  0  0  0
  6  7  1  0  0  0  0
  6 20  1  0  0  0  0
  7  8  2  0  0  0  0
  8  9  1  0  0  0  0
  8 19  1  0  0  0  0
  9 10  2  0  0  0  0
  9 14  1  0  0  0  0
 10 11  1  0  0  0  0
 10 18  1  0  0  0  0
 11 12  2  0  0  0  0
 11 17  1  0  0  0  0
 12 13  1  0  0  0  0
 12 16  1  0  0  0  0
 13 14  2  0  0  0  0
 13 15  1  0  0  0  0
 21 22  2  0  0  0  0
 23 21  1  1  0  0  0
 23 24  1  0  0  0  0
 23 44  1  0  0  0  0
 24 25  1  0  0  0  0
 24 48  1  0  0  0  0
 24 49  1  0  0  0  0
 25 26  1  0  0  0  0
 25 36  1  0  0  0  0
 26 27  1  0  0  0  0
 26 34  1  0  0  0  0
 26 35  1  0  0  0  0
 27 28  1  0  0  0  0
 27 31  2  0  0  0  0
 28 29  2  0  0  0  0
 28 33  1  0  0  0  0
 29 30  1  0  0  0  0
 30 31  1  0  0  0  0
 30 32  1  0  0  0  0
 36 37  2  0  0  0  0
 36 38  1  0  0  0  0
 38 39  2  0  0  0  0
 38 44  1  0  0  0  0
 39 40  1  0  0  0  0
 39 47  1  0  0  0  0
 40 41  2  0  0  0  0
 40 46  1  0  0  0  0
 41 42  1  0  0  0  0
 41 43  1  0  0  0  0
 43 44  2  0  0  0  0
 43 45  1  0  0  0  0
M  END
>  <MODEL>
       1

$$$$
