tmp_first_model_4_66.pdb
 OpenBabel08272518513D

 44 47  0  0  1  0  0  0  0  0999 V2000
   -9.8300    1.4090  -24.4210 C   0  0  0  0  0  0  0  0  0  0  0  0
  -10.9720    0.5060  -23.9950 C   0  0  0  0  0  0  0  0  0  0  0  0
  -10.7900   -0.1280  -22.6090 C   0  0  1  0  0  0  0  0  0  0  0  0
  -12.0190   -0.9250  -22.2800 C   0  0  0  0  0  0  0  0  0  0  0  0
  -13.3320   -0.3790  -22.1110 C   0  0  0  0  0  0  0  0  0  0  0  0
  -14.2160   -1.2940  -21.6310 C   0  0  0  0  0  0  0  0  0  0  0  0
  -13.4880   -2.8540  -21.4820 S   0  0  0  0  0  0  0  0  0  0  0  0
  -11.9630   -2.2620  -22.0390 C   0  0  0  0  0  0  0  0  0  0  0  0
  -10.7500   -3.1270  -22.2410 C   0  0  0  0  0  0  0  0  0  0  0  0
   -9.7050   -2.3080  -23.0000 C   0  0  0  0  0  0  0  0  0  0  0  0
   -9.5920   -0.9590  -22.4470 N   0  0  0  0  0  0  0  0  0  0  0  0
   -8.5170   -0.4310  -21.7660 C   0  0  0  0  0  0  0  0  0  0  0  0
   -8.4240    0.7600  -21.5340 O   0  0  0  0  0  0  0  0  0  0  0  0
   -7.4660   -1.4510  -21.2940 C   0  0  0  0  0  0  0  0  0  0  0  0
   -6.5030   -0.9970  -20.2260 C   0  0  0  0  0  0  0  0  0  0  0  0
   -6.7530   -1.2610  -18.9060 C   0  0  0  0  0  0  0  0  0  0  0  0
   -5.9290   -0.9650  -17.8670 N   0  0  0  0  0  0  0  0  0  0  0  0
   -4.8140   -0.3430  -18.1520 C   0  0  0  0  0  0  0  0  0  0  0  0
   -4.4530    0.0610  -19.4650 C   0  0  0  0  0  0  0  0  0  0  0  0
   -3.2920    0.8340  -19.7140 C   0  0  0  0  0  0  0  0  0  0  0  0
   -3.0630    1.3560  -20.9610 C   0  0  0  0  0  0  0  0  0  0  0  0
   -3.9270    1.0290  -22.0310 C   0  0  0  0  0  0  0  0  0  0  0  0
   -5.0180    0.2200  -21.8320 C   0  0  0  0  0  0  0  0  0  0  0  0
   -5.3220   -0.2650  -20.5340 C   0  0  0  0  0  0  0  0  0  0  0  0
   -5.7090    0.0220  -22.6490 H   0  0  0  0  0  0  0  0  0  0  0  0
   -3.7420    1.4490  -23.0150 H   0  0  0  0  0  0  0  0  0  0  0  0
   -2.2410    2.0440  -21.1280 H   0  0  0  0  0  0  0  0  0  0  0  0
   -2.6310    1.0600  -18.8820 H   0  0  0  0  0  0  0  0  0  0  0  0
   -4.1390   -0.1020  -17.3260 H   0  0  0  0  0  0  0  0  0  0  0  0
   -7.6940   -1.7300  -18.6200 H   0  0  0  0  0  0  0  0  0  0  0  0
   -8.0340   -2.3060  -20.9040 H   0  0  0  0  0  0  0  0  0  0  0  0
   -6.9180   -1.8000  -22.1810 H   0  0  0  0  0  0  0  0  0  0  0  0
   -8.7290   -2.8020  -23.0260 H   0  0  0  0  0  0  0  0  0  0  0  0
  -10.0400   -2.2170  -24.0400 H   0  0  0  0  0  0  0  0  0  0  0  0
  -10.3540   -3.4610  -21.2740 H   0  0  0  0  0  0  0  0  0  0  0  0
  -10.9970   -4.0430  -22.7940 H   0  0  0  0  0  0  0  0  0  0  0  0
  -15.2210   -1.1130  -21.2710 H   0  0  0  0  0  0  0  0  0  0  0  0
  -13.5940    0.6560  -22.3170 H   0  0  0  0  0  0  0  0  0  0  0  0
  -10.6670    0.7010  -21.8980 H   0  0  0  0  0  0  0  0  0  0  0  0
  -11.9040    1.0810  -23.9280 H   0  0  0  0  0  0  0  0  0  0  0  0
  -11.1700   -0.2770  -24.7380 H   0  0  0  0  0  0  0  0  0  0  0  0
   -8.8960    0.8500  -24.5330 H   0  0  0  0  0  0  0  0  0  0  0  0
  -10.0590    1.8910  -25.3760 H   0  0  0  0  0  0  0  0  0  0  0  0
   -9.6690    2.1890  -23.6710 H   0  0  0  0  0  0  0  0  0  0  0  0
  1  2  1  0  0  0  0
  1 42  1  0  0  0  0
  1 43  1  0  0  0  0
  1 44  1  0  0  0  0
  2  3  1  0  0  0  0
  2 40  1  0  0  0  0
  2 41  1  0  0  0  0
  3  4  1  0  0  0  0
  3 11  1  0  0  0  0
  3 39  1  1  0  0  0
  4  5  1  0  0  0  0
  4  8  2  0  0  0  0
  5  6  2  0  0  0  0
  5 38  1  0  0  0  0
  6  7  1  0  0  0  0
  6 37  1  0  0  0  0
  7  8  1  0  0  0  0
  8  9  1  0  0  0  0
  9 10  1  0  0  0  0
  9 35  1  0  0  0  0
  9 36  1  0  0  0  0
 10 11  1  0  0  0  0
 10 33  1  0  0  0  0
 10 34  1  0  0  0  0
 11 12  1  0  0  0  0
 12 13  2  0  0  0  0
 12 14  1  0  0  0  0
 14 15  1  0  0  0  0
 14 31  1  0  0  0  0
 14 32  1  0  0  0  0
 15 16  2  0  0  0  0
 15 24  1  0  0  0  0
 16 17  1  0  0  0  0
 16 30  1  0  0  0  0
 17 18  2  0  0  0  0
 18 19  1  0  0  0  0
 18 29  1  0  0  0  0
 19 20  2  0  0  0  0
 19 24  1  0  0  0  0
 20 21  1  0  0  0  0
 20 28  1  0  0  0  0
 21 22  2  0  0  0  0
 21 27  1  0  0  0  0
 22 23  1  0  0  0  0
 22 26  1  0  0  0  0
 23 24  2  0  0  0  0
 23 25  1  0  0  0  0
M  END
>  <MODEL>
       1

$$$$
