tmp_first_model_1_24.pdb
 OpenBabel08272517043D

 65 70  0  0  1  0  0  0  0  0999 V2000
   -4.9610   -7.3250  -23.7360 O   0  0  0  0  0  0  0  0  0  0  0  0
   -6.0500   -7.3140  -24.2900 C   0  0  0  0  0  0  0  0  0  0  0  0
   -7.2460   -6.6140  -23.6550 C   0  0  0  0  0  0  0  0  0  0  0  0
   -7.1140   -5.1240  -23.8240 N   0  3  1  0  0  0  0  0  0  0  0  0
   -7.2940   -4.7340  -25.3110 C   0  0  0  0  0  0  0  0  0  0  0  0
   -7.2330   -3.2490  -25.5220 C   0  0  0  0  0  0  0  0  0  0  0  0
   -6.8730   -2.7580  -26.7740 C   0  0  0  0  0  0  0  0  0  0  0  0
   -6.8100   -1.3990  -27.0380 C   0  0  0  0  0  0  0  0  0  0  0  0
   -7.1170   -0.5140  -26.0100 C   0  0  0  0  0  0  0  0  0  0  0  0
   -7.0310    1.2000  -26.3060 Cl  0  0  0  0  0  0  0  0  0  0  0  0
   -7.4880   -0.9750  -24.7570 C   0  0  0  0  0  0  0  0  0  0  0  0
   -7.5590   -2.3510  -24.5060 C   0  0  0  0  0  0  0  0  0  0  0  0
   -7.9430   -2.8210  -23.1150 C   0  0  2  0  0  0  0  0  0  0  0  0
   -9.1910   -2.1110  -22.5610 C   0  0  0  0  0  0  0  0  0  0  0  0
   -8.7280   -1.1560  -21.4530 C   0  0  0  0  0  0  0  0  0  0  0  0
   -7.3240   -1.4870  -21.2430 N   0  0  0  0  0  0  0  0  0  0  0  0
   -6.5550   -0.8860  -20.2030 C   0  0  0  0  0  0  0  0  0  0  0  0
   -6.8940   -1.0660  -18.8840 C   0  0  0  0  0  0  0  0  0  0  0  0
   -6.2110   -0.5510  -17.8310 N   0  0  0  0  0  0  0  0  0  0  0  0
   -5.1750    0.2080  -18.0910 C   0  0  0  0  0  0  0  0  0  0  0  0
   -4.7340    0.5210  -19.4050 C   0  0  0  0  0  0  0  0  0  0  0  0
   -3.6120    1.3630  -19.6350 C   0  0  0  0  0  0  0  0  0  0  0  0
   -3.2240    1.6660  -20.9090 C   0  0  0  0  0  0  0  0  0  0  0  0
   -3.9480    1.1530  -22.0100 C   0  0  0  0  0  0  0  0  0  0  0  0
   -5.0340    0.3370  -21.8170 C   0  0  0  0  0  0  0  0  0  0  0  0
   -5.4470   -0.0230  -20.5040 C   0  0  0  0  0  0  0  0  0  0  0  0
   -5.5850   -0.0410  -22.6770 H   0  0  0  0  0  0  0  0  0  0  0  0
   -3.6360    1.4040  -23.0180 H   0  0  0  0  0  0  0  0  0  0  0  0
   -2.3690    2.3120  -21.0890 H   0  0  0  0  0  0  0  0  0  0  0  0
   -3.0810    1.7630  -18.7730 H   0  0  0  0  0  0  0  0  0  0  0  0
   -4.6310    0.6130  -17.2360 H   0  0  0  0  0  0  0  0  0  0  0  0
   -7.7500   -1.6790  -18.6050 H   0  0  0  0  0  0  0  0  0  0  0  0
   -6.8380   -2.4350  -22.1220 C   0  0  0  0  0  0  0  0  0  0  0  0
   -5.7340   -2.9450  -22.1320 O   0  0  0  0  0  0  0  0  0  0  0  0
   -8.8710   -0.0920  -21.7010 H   0  0  0  0  0  0  0  0  0  0  0  0
   -9.2950   -1.3640  -20.5520 H   0  0  0  0  0  0  0  0  0  0  0  0
   -9.7630   -1.6010  -23.3410 H   0  0  0  0  0  0  0  0  0  0  0  0
   -9.8590   -2.8590  -22.1240 H   0  0  0  0  0  0  0  0  0  0  0  0
   -8.1440   -4.3460  -23.0310 C   0  0  0  0  0  0  0  0  0  0  0  0
   -9.1360   -4.5940  -23.4220 H   0  0  0  0  0  0  0  0  0  0  0  0
   -8.1040   -4.6370  -21.9800 H   0  0  0  0  0  0  0  0  0  0  0  0
   -7.7210   -0.2480  -23.9790 H   0  0  0  0  0  0  0  0  0  0  0  0
   -6.5240   -1.0190  -28.0140 H   0  0  0  0  0  0  0  0  0  0  0  0
   -6.6300   -3.4590  -27.5680 H   0  0  0  0  0  0  0  0  0  0  0  0
   -8.2570   -5.1380  -25.6420 H   0  0  0  0  0  0  0  0  0  0  0  0
   -6.5230   -5.2210  -25.9030 H   0  0  0  0  0  0  0  0  0  0  0  0
   -6.1670   -4.8090  -23.4990 H   0  0  0  0  0  0  0  0  0  0  0  0
   -7.2400   -6.8640  -22.5950 H   0  0  0  0  0  0  0  0  0  0  0  0
   -8.2000   -6.9490  -24.0900 H   0  0  0  0  0  0  0  0  0  0  0  0
   -6.2570   -7.8720  -25.5120 N   0  0  0  0  0  0  0  0  0  0  0  0
   -5.1390   -8.4430  -26.2440 C   0  0  0  0  0  0  0  0  0  0  0  0
   -4.1970   -7.3780  -26.7930 C   0  0  1  0  0  0  0  0  0  0  0  0
   -3.1050   -7.8990  -27.7720 C   0  0  0  0  0  0  0  0  0  0  0  0
   -3.7230   -7.0560  -28.9100 C   0  0  1  0  0  0  0  0  0  0  0  0
   -4.2340   -7.8220  -29.9500 F   0  0  0  0  0  0  0  0  0  0  0  0
   -4.8000   -6.5200  -27.9450 C   0  0  0  0  0  0  0  0  0  0  0  0
   -5.8160   -6.8050  -28.2520 H   0  0  0  0  0  0  0  0  0  0  0  0
   -4.8080   -5.4360  -27.7730 H   0  0  0  0  0  0  0  0  0  0  0  0
   -3.0730   -6.3090  -29.3790 H   0  0  0  0  0  0  0  0  0  0  0  0
   -2.0780   -7.6390  -27.4940 H   0  0  0  0  0  0  0  0  0  0  0  0
   -3.1190   -8.9780  -27.9710 H   0  0  0  0  0  0  0  0  0  0  0  0
   -3.8040   -6.8060  -25.9420 H   0  0  0  0  0  0  0  0  0  0  0  0
   -5.5440   -9.0180  -27.0850 H   0  0  0  0  0  0  0  0  0  0  0  0
   -4.5780   -9.1080  -25.5720 H   0  0  0  0  0  0  0  0  0  0  0  0
   -7.1920   -7.9100  -25.8930 H   0  0  0  0  0  0  0  0  0  0  0  0
  1  2  2  0  0  0  0
  2  3  1  0  0  0  0
  2 50  1  0  0  0  0
  3  4  1  0  0  0  0
  3 48  1  0  0  0  0
  3 49  1  0  0  0  0
  4  5  1  0  0  0  0
  4 39  1  0  0  0  0
  4 47  1  1  0  0  0
  5  6  1  0  0  0  0
  5 45  1  0  0  0  0
  5 46  1  0  0  0  0
  6  7  2  0  0  0  0
  6 12  1  0  0  0  0
  7  8  1  0  0  0  0
  7 44  1  0  0  0  0
  8  9  2  0  0  0  0
  8 43  1  0  0  0  0
  9 10  1  0  0  0  0
  9 11  1  0  0  0  0
 11 12  2  0  0  0  0
 11 42  1  0  0  0  0
 13 12  1  6  0  0  0
 13 14  1  0  0  0  0
 13 33  1  0  0  0  0
 13 39  1  0  0  0  0
 14 15  1  0  0  0  0
 14 37  1  0  0  0  0
 14 38  1  0  0  0  0
 15 16  1  0  0  0  0
 15 35  1  0  0  0  0
 15 36  1  0  0  0  0
 16 17  1  0  0  0  0
 16 33  1  0  0  0  0
 17 18  2  0  0  0  0
 17 26  1  0  0  0  0
 18 19  1  0  0  0  0
 18 32  1  0  0  0  0
 19 20  2  0  0  0  0
 20 21  1  0  0  0  0
 20 31  1  0  0  0  0
 21 22  2  0  0  0  0
 21 26  1  0  0  0  0
 22 23  1  0  0  0  0
 22 30  1  0  0  0  0
 23 24  2  0  0  0  0
 23 29  1  0  0  0  0
 24 25  1  0  0  0  0
 24 28  1  0  0  0  0
 25 26  2  0  0  0  0
 25 27  1  0  0  0  0
 33 34  2  0  0  0  0
 39 40  1  0  0  0  0
 39 41  1  0  0  0  0
 50 51  1  0  0  0  0
 50 65  1  0  0  0  0
 51 52  1  0  0  0  0
 51 63  1  0  0  0  0
 51 64  1  0  0  0  0
 52 53  1  0  0  0  0
 52 56  1  0  0  0  0
 52 62  1  1  0  0  0
 53 54  1  0  0  0  0
 53 60  1  0  0  0  0
 53 61  1  0  0  0  0
 54 55  1  0  0  0  0
 54 56  1  0  0  0  0
 54 59  1  6  0  0  0
 56 57  1  0  0  0  0
 56 58  1  0  0  0  0
M  CHG  1   4   1
M  END
>  <MODEL>
       1

$$$$
