tmp_first_model_11_85.pdb
 OpenBabel08272522543D

 57 62  0  0  1  0  0  0  0  0999 V2000
   -6.5860    3.4560  -23.1010 C   0  0  0  0  0  0  0  0  0  0  0  0
   -6.9720    2.4680  -24.0970 N   0  0  0  0  0  0  0  0  0  0  0  0
   -8.2490    2.5170  -24.5810 C   0  0  0  0  0  0  0  0  0  0  0  0
   -8.9850    3.4690  -24.3850 O   0  0  0  0  0  0  0  0  0  0  0  0
   -8.6710    1.3180  -25.4380 C   0  0  0  0  0  0  0  0  0  0  0  0
   -9.3300    0.2720  -24.6790 N   0  0  0  0  0  0  0  0  0  0  0  0
   -8.7060   -1.0250  -24.4490 C   0  0  0  0  0  0  0  0  0  0  0  0
   -8.9350   -1.5250  -22.9990 C   0  0  2  0  0  0  0  0  0  0  0  0
   -8.1890   -0.6160  -22.0060 C   0  0  0  0  0  0  0  0  0  0  0  0
   -8.2850    0.5910  -21.9110 O   0  0  0  0  0  0  0  0  0  0  0  0
   -7.3740   -1.3910  -21.2120 N   0  0  0  0  0  0  0  0  0  0  0  0
   -6.5820   -0.8280  -20.1890 C   0  0  0  0  0  0  0  0  0  0  0  0
   -6.8940   -1.0700  -18.8760 C   0  0  0  0  0  0  0  0  0  0  0  0
   -6.2190   -0.5580  -17.8200 N   0  0  0  0  0  0  0  0  0  0  0  0
   -5.1890    0.2100  -18.0910 C   0  0  0  0  0  0  0  0  0  0  0  0
   -4.7470    0.5260  -19.4080 C   0  0  0  0  0  0  0  0  0  0  0  0
   -3.6150    1.3500  -19.6390 C   0  0  0  0  0  0  0  0  0  0  0  0
   -3.1980    1.6190  -20.9130 C   0  0  0  0  0  0  0  0  0  0  0  0
   -3.8840    1.0700  -22.0180 C   0  0  0  0  0  0  0  0  0  0  0  0
   -4.9820    0.2700  -21.8240 C   0  0  0  0  0  0  0  0  0  0  0  0
   -5.4540   -0.0100  -20.5070 C   0  0  0  0  0  0  0  0  0  0  0  0
   -5.4860   -0.1640  -22.6800 H   0  0  0  0  0  0  0  0  0  0  0  0
   -3.5400    1.2980  -23.0250 H   0  0  0  0  0  0  0  0  0  0  0  0
   -2.3340    2.2530  -21.0830 H   0  0  0  0  0  0  0  0  0  0  0  0
   -3.0980    1.7640  -18.7780 H   0  0  0  0  0  0  0  0  0  0  0  0
   -4.6360    0.6180  -17.2440 H   0  0  0  0  0  0  0  0  0  0  0  0
   -7.7540   -1.6930  -18.6360 H   0  0  0  0  0  0  0  0  0  0  0  0
   -7.4610   -2.8120  -21.4500 C   0  0  0  0  0  0  0  0  0  0  0  0
   -8.3170   -2.9070  -22.7060 C   0  0  0  0  0  0  0  0  0  0  0  0
   -7.8810   -3.8390  -23.8020 C   0  0  0  0  0  0  0  0  0  0  0  0
   -9.0920   -4.1630  -22.9710 C   0  0  0  0  0  0  0  0  0  0  0  0
  -10.0620   -4.0310  -23.4450 H   0  0  0  0  0  0  0  0  0  0  0  0
   -9.0460   -4.9700  -22.2390 H   0  0  0  0  0  0  0  0  0  0  0  0
   -8.0420   -3.5200  -24.8280 H   0  0  0  0  0  0  0  0  0  0  0  0
   -6.9760   -4.4280  -23.6560 H   0  0  0  0  0  0  0  0  0  0  0  0
   -6.4600   -3.2390  -21.5890 H   0  0  0  0  0  0  0  0  0  0  0  0
   -7.9270   -3.3320  -20.6030 H   0  0  0  0  0  0  0  0  0  0  0  0
  -10.4390   -1.4440  -22.7550 C   0  0  0  0  0  0  0  0  0  0  0  0
  -11.0590   -2.2400  -21.7940 C   0  0  0  0  0  0  0  0  0  0  0  0
  -12.4370   -2.2470  -21.6620 C   0  0  0  0  0  0  0  0  0  0  0  0
  -13.1690   -3.4100  -20.6070 Cl  0  0  0  0  0  0  0  0  0  0  0  0
  -13.2460   -1.4020  -22.4120 C   0  0  0  0  0  0  0  0  0  0  0  0
  -12.6270   -0.5550  -23.3100 C   0  0  0  0  0  0  0  0  0  0  0  0
  -11.2480   -0.5590  -23.4710 C   0  0  0  0  0  0  0  0  0  0  0  0
  -10.6660    0.4360  -24.4190 C   0  0  0  0  0  0  0  0  0  0  0  0
  -11.3390    1.3310  -24.9060 O   0  0  0  0  0  0  0  0  0  0  0  0
  -13.1910    0.1590  -23.8960 H   0  0  0  0  0  0  0  0  0  0  0  0
  -14.3240   -1.3780  -22.2660 H   0  0  0  0  0  0  0  0  0  0  0  0
  -10.4740   -2.9170  -21.1920 H   0  0  0  0  0  0  0  0  0  0  0  0
   -7.6350   -0.9770  -24.6590 H   0  0  0  0  0  0  0  0  0  0  0  0
   -9.1460   -1.7670  -25.1280 H   0  0  0  0  0  0  0  0  0  0  0  0
   -7.7980    0.9000  -25.9540 H   0  0  0  0  0  0  0  0  0  0  0  0
   -9.3970    1.6840  -26.1670 H   0  0  0  0  0  0  0  0  0  0  0  0
   -6.5010    1.5730  -24.0520 H   0  0  0  0  0  0  0  0  0  0  0  0
   -5.5750    3.2380  -22.7440 H   0  0  0  0  0  0  0  0  0  0  0  0
   -7.2800    3.4370  -22.2520 H   0  0  0  0  0  0  0  0  0  0  0  0
   -6.6080    4.4580  -23.5420 H   0  0  0  0  0  0  0  0  0  0  0  0
  1  2  1  0  0  0  0
  1 55  1  0  0  0  0
  1 56  1  0  0  0  0
  1 57  1  0  0  0  0
  2  3  1  0  0  0  0
  2 54  1  0  0  0  0
  3  4  2  0  0  0  0
  3  5  1  0  0  0  0
  5  6  1  0  0  0  0
  5 52  1  0  0  0  0
  5 53  1  0  0  0  0
  6  7  1  0  0  0  0
  6 45  1  0  0  0  0
  7  8  1  0  0  0  0
  7 50  1  0  0  0  0
  7 51  1  0  0  0  0
  8  9  1  1  0  0  0
  8 29  1  0  0  0  0
  8 38  1  0  0  0  0
  9 10  2  0  0  0  0
  9 11  1  0  0  0  0
 11 12  1  0  0  0  0
 11 28  1  0  0  0  0
 12 13  2  0  0  0  0
 12 21  1  0  0  0  0
 13 14  1  0  0  0  0
 13 27  1  0  0  0  0
 14 15  2  0  0  0  0
 15 16  1  0  0  0  0
 15 26  1  0  0  0  0
 16 17  2  0  0  0  0
 16 21  1  0  0  0  0
 17 18  1  0  0  0  0
 17 25  1  0  0  0  0
 18 19  2  0  0  0  0
 18 24  1  0  0  0  0
 19 20  1  0  0  0  0
 19 23  1  0  0  0  0
 20 21  2  0  0  0  0
 20 22  1  0  0  0  0
 28 29  1  0  0  0  0
 28 36  1  0  0  0  0
 28 37  1  0  0  0  0
 29 30  1  0  0  0  0
 29 31  1  0  0  0  0
 30 31  1  0  0  0  0
 30 34  1  0  0  0  0
 30 35  1  0  0  0  0
 31 32  1  0  0  0  0
 31 33  1  0  0  0  0
 38 39  2  0  0  0  0
 38 44  1  0  0  0  0
 39 40  1  0  0  0  0
 39 49  1  0  0  0  0
 40 41  1  0  0  0  0
 40 42  2  0  0  0  0
 42 43  1  0  0  0  0
 42 48  1  0  0  0  0
 43 44  2  0  0  0  0
 43 47  1  0  0  0  0
 44 45  1  0  0  0  0
 45 46  2  0  0  0  0
M  END
>  <MODEL>
       1

$$$$
