tmp_first_model_16_54.pdb
 OpenBabel08282501503D

 40 43  0  0  0  0  0  0  0  0999 V2000
  -10.3060   -2.6100  -22.7980 C   0  0  0  0  0  0  0  0  0  0  0  0
   -8.9620   -2.1720  -22.4850 N   0  0  0  0  0  0  0  0  0  0  0  0
   -7.7710   -2.7010  -22.8950 C   0  0  0  0  0  0  0  0  0  0  0  0
   -7.6270   -3.6060  -24.0560 C   0  0  0  0  0  0  0  0  0  0  0  0
   -7.7680   -5.0650  -23.6720 C   0  0  0  0  0  0  0  0  0  0  0  0
   -8.8220   -5.8440  -24.1440 C   0  0  0  0  0  0  0  0  0  0  0  0
   -8.8560   -7.2130  -23.8940 C   0  0  0  0  0  0  0  0  0  0  0  0
   -7.8380   -7.8060  -23.1400 C   0  0  0  0  0  0  0  0  0  0  0  0
   -6.8540   -7.0090  -22.5560 C   0  0  0  0  0  0  0  0  0  0  0  0
   -6.8220   -5.6420  -22.8200 C   0  0  0  0  0  0  0  0  0  0  0  0
   -6.0380   -5.0140  -22.4000 H   0  0  0  0  0  0  0  0  0  0  0  0
   -6.1110   -7.4600  -21.8980 H   0  0  0  0  0  0  0  0  0  0  0  0
   -7.8340   -8.8790  -22.9740 H   0  0  0  0  0  0  0  0  0  0  0  0
   -9.6690   -7.8130  -24.3030 H   0  0  0  0  0  0  0  0  0  0  0  0
   -9.6420   -5.3780  -24.7000 H   0  0  0  0  0  0  0  0  0  0  0  0
   -8.3530   -3.3280  -24.8270 H   0  0  0  0  0  0  0  0  0  0  0  0
   -6.6390   -3.4000  -24.4800 H   0  0  0  0  0  0  0  0  0  0  0  0
   -6.7730   -2.2850  -22.1710 N   0  0  0  0  0  0  0  0  0  0  0  0
   -7.3320   -1.3770  -21.3180 N   0  0  0  0  0  0  0  0  0  0  0  0
   -6.5950   -0.8500  -20.2480 C   0  0  0  0  0  0  0  0  0  0  0  0
   -6.9350   -1.1370  -18.9500 C   0  0  0  0  0  0  0  0  0  0  0  0
   -6.1770   -0.7880  -17.8870 N   0  0  0  0  0  0  0  0  0  0  0  0
   -5.1070   -0.0680  -18.1290 C   0  0  0  0  0  0  0  0  0  0  0  0
   -4.7150    0.3780  -19.4200 C   0  0  0  0  0  0  0  0  0  0  0  0
   -3.6190    1.2510  -19.6120 C   0  0  0  0  0  0  0  0  0  0  0  0
   -3.2550    1.6200  -20.8750 C   0  0  0  0  0  0  0  0  0  0  0  0
   -3.9640    1.1450  -22.0020 C   0  0  0  0  0  0  0  0  0  0  0  0
   -5.0490    0.3250  -21.8440 C   0  0  0  0  0  0  0  0  0  0  0  0
   -5.4540   -0.0620  -20.5370 C   0  0  0  0  0  0  0  0  0  0  0  0
   -5.5990   -0.0500  -22.7010 H   0  0  0  0  0  0  0  0  0  0  0  0
   -3.6540    1.4410  -22.9980 H   0  0  0  0  0  0  0  0  0  0  0  0
   -2.4200    2.2950  -21.0210 H   0  0  0  0  0  0  0  0  0  0  0  0
   -3.1080    1.6260  -18.7290 H   0  0  0  0  0  0  0  0  0  0  0  0
   -4.4930    0.2080  -17.2730 H   0  0  0  0  0  0  0  0  0  0  0  0
   -7.8510   -1.6800  -18.7300 H   0  0  0  0  0  0  0  0  0  0  0  0
   -8.6870   -1.2160  -21.5180 C   0  0  0  0  0  0  0  0  0  0  0  0
   -9.4290   -0.4040  -21.0090 O   0  0  0  0  0  0  0  0  0  0  0  0
  -10.5080   -3.6020  -22.3770 H   0  0  0  0  0  0  0  0  0  0  0  0
  -10.9970   -1.8890  -22.3580 H   0  0  0  0  0  0  0  0  0  0  0  0
  -10.4410   -2.6250  -23.8820 H   0  0  0  0  0  0  0  0  0  0  0  0
  1  2  1  0  0  0  0
  1 38  1  0  0  0  0
  1 39  1  0  0  0  0
  1 40  1  0  0  0  0
  2  3  1  0  0  0  0
  2 36  1  0  0  0  0
  3  4  1  0  0  0  0
  3 18  2  0  0  0  0
  4  5  1  0  0  0  0
  4 16  1  0  0  0  0
  4 17  1  0  0  0  0
  5  6  2  0  0  0  0
  5 10  1  0  0  0  0
  6  7  1  0  0  0  0
  6 15  1  0  0  0  0
  7  8  2  0  0  0  0
  7 14  1  0  0  0  0
  8  9  1  0  0  0  0
  8 13  1  0  0  0  0
  9 10  2  0  0  0  0
  9 12  1  0  0  0  0
 10 11  1  0  0  0  0
 18 19  1  0  0  0  0
 19 20  1  0  0  0  0
 19 36  1  0  0  0  0
 20 21  2  0  0  0  0
 20 29  1  0  0  0  0
 21 22  1  0  0  0  0
 21 35  1  0  0  0  0
 22 23  2  0  0  0  0
 23 24  1  0  0  0  0
 23 34  1  0  0  0  0
 24 25  2  0  0  0  0
 24 29  1  0  0  0  0
 25 26  1  0  0  0  0
 25 33  1  0  0  0  0
 26 27  2  0  0  0  0
 26 32  1  0  0  0  0
 27 28  1  0  0  0  0
 27 31  1  0  0  0  0
 28 29  2  0  0  0  0
 28 30  1  0  0  0  0
 36 37  2  0  0  0  0
M  END
>  <MODEL>
       1

$$$$
