tmp_first_model_10_84.pdb
 OpenBabel08272522163D

 63 68  0  0  1  0  0  0  0  0999 V2000
   -8.2930   -4.1780  -23.4900 C   0  0  0  0  0  0  0  0  0  0  0  0
   -8.5330   -3.0050  -22.5490 C   0  0  1  0  0  0  0  0  0  0  0  0
   -7.3840   -2.7800  -21.5570 C   0  0  0  0  0  0  0  0  0  0  0  0
   -7.4710   -1.3660  -21.2410 N   0  0  0  0  0  0  0  0  0  0  0  0
   -6.7010   -0.7620  -20.2140 C   0  0  0  0  0  0  0  0  0  0  0  0
   -6.9310   -1.1230  -18.9090 C   0  0  0  0  0  0  0  0  0  0  0  0
   -6.2300   -0.6730  -17.8410 N   0  0  0  0  0  0  0  0  0  0  0  0
   -5.2430    0.1580  -18.0790 C   0  0  0  0  0  0  0  0  0  0  0  0
   -4.8840    0.6100  -19.3810 C   0  0  0  0  0  0  0  0  0  0  0  0
   -3.8000    1.5080  -19.5750 C   0  0  0  0  0  0  0  0  0  0  0  0
   -3.4920    1.9660  -20.8260 C   0  0  0  0  0  0  0  0  0  0  0  0
   -4.2560    1.5440  -21.9400 C   0  0  0  0  0  0  0  0  0  0  0  0
   -5.2870    0.6520  -21.7820 C   0  0  0  0  0  0  0  0  0  0  0  0
   -5.6380    0.1620  -20.4910 C   0  0  0  0  0  0  0  0  0  0  0  0
   -5.8520    0.3280  -22.6500 H   0  0  0  0  0  0  0  0  0  0  0  0
   -4.0050    1.9060  -22.9310 H   0  0  0  0  0  0  0  0  0  0  0  0
   -2.6680    2.6590  -20.9740 H   0  0  0  0  0  0  0  0  0  0  0  0
   -3.2350    1.8310  -18.7040 H   0  0  0  0  0  0  0  0  0  0  0  0
   -4.6690    0.5130  -17.2210 H   0  0  0  0  0  0  0  0  0  0  0  0
   -7.7430   -1.8100  -18.6760 H   0  0  0  0  0  0  0  0  0  0  0  0
   -8.2590   -0.6550  -22.1200 C   0  0  0  0  0  0  0  0  0  0  0  0
   -8.4480    0.5430  -22.0480 O   0  0  0  0  0  0  0  0  0  0  0  0
   -8.7950   -1.6080  -23.2110 C   0  0  1  0  0  0  0  0  0  0  0  0
   -7.9760   -1.3140  -24.4940 C   0  0  0  0  0  0  0  0  0  0  0  0
   -8.5850   -1.8090  -25.7240 N   0  0  0  0  0  0  0  0  0  0  0  0
   -7.7390   -2.1620  -26.8530 C   0  0  0  0  0  0  0  0  0  0  0  0
   -7.6870   -3.6790  -27.0570 C   0  0  0  0  0  0  0  0  0  0  0  0
   -6.9000   -4.3770  -26.4340 O   0  0  0  0  0  0  0  0  0  0  0  0
   -8.5800   -4.1630  -27.9600 N   0  0  0  0  0  0  0  0  0  0  0  0
   -8.5420   -5.5560  -28.3670 C   0  0  0  0  0  0  0  0  0  0  0  0
   -7.4910   -5.8450  -29.3450 C   0  0  0  0  0  0  0  0  0  0  0  0
   -6.3090   -5.1650  -29.2810 F   0  0  0  0  0  0  0  0  0  0  0  0
   -7.5970   -6.9180  -30.3400 C   0  0  0  0  0  0  0  0  0  0  0  0
   -7.4130   -6.7630  -30.3350 C   0  0  0  0  0  0  0  0  0  0  0  0
   -6.5850   -7.7030  -30.0480 H   0  0  0  0  0  0  0  0  0  0  0  0
   -8.9210   -7.8000  -29.9130 H   0  0  0  0  0  0  0  0  0  0  0  0
   -6.6500   -6.2170  -31.1550 H   0  0  0  0  0  0  0  0  0  0  0  0
   -7.7920   -6.5610  -31.6010 H   0  0  0  0  0  0  0  0  0  0  0  0
   -8.3370   -6.1150  -27.4450 H   0  0  0  0  0  0  0  0  0  0  0  0
   -9.5460   -5.8570  -28.7330 H   0  0  0  0  0  0  0  0  0  0  0  0
   -9.3030   -3.5470  -28.3000 H   0  0  0  0  0  0  0  0  0  0  0  0
   -8.1200   -1.6790  -27.7550 H   0  0  0  0  0  0  0  0  0  0  0  0
   -6.7280   -1.8030  -26.6550 H   0  0  0  0  0  0  0  0  0  0  0  0
   -9.9260   -1.7850  -25.9600 C   0  0  0  0  0  0  0  0  0  0  0  0
  -10.3910   -2.0420  -27.0720 O   0  0  0  0  0  0  0  0  0  0  0  0
  -10.7910   -1.4650  -24.7950 C   0  0  0  0  0  0  0  0  0  0  0  0
  -12.1570   -1.3140  -25.0300 C   0  0  0  0  0  0  0  0  0  0  0  0
  -13.0200   -1.0520  -23.9860 C   0  0  0  0  0  0  0  0  0  0  0  0
  -12.4900   -0.9770  -22.7050 C   0  0  0  0  0  0  0  0  0  0  0  0
  -13.3410   -0.7560  -21.6950 F   0  0  0  0  0  0  0  0  0  0  0  0
  -11.1430   -1.1360  -22.4430 C   0  0  0  0  0  0  0  0  0  0  0  0
  -10.2620   -1.3700  -23.5030 C   0  0  0  0  0  0  0  0  0  0  0  0
  -10.7710   -1.0750  -21.4280 H   0  0  0  0  0  0  0  0  0  0  0  0
  -14.0870   -0.9200  -24.1240 H   0  0  0  0  0  0  0  0  0  0  0  0
  -12.5110   -1.4170  -26.0490 H   0  0  0  0  0  0  0  0  0  0  0  0
   -6.9860   -1.7800  -24.4110 H   0  0  0  0  0  0  0  0  0  0  0  0
   -7.8450   -0.2220  -24.5490 H   0  0  0  0  0  0  0  0  0  0  0  0
   -6.4080   -3.0250  -22.0010 H   0  0  0  0  0  0  0  0  0  0  0  0
   -7.4910   -3.3870  -20.6520 H   0  0  0  0  0  0  0  0  0  0  0  0
   -9.4360   -3.2150  -21.9570 H   0  0  0  0  0  0  0  0  0  0  0  0
   -9.1180   -4.2950  -24.1970 H   0  0  0  0  0  0  0  0  0  0  0  0
   -7.3800   -4.0530  -24.0790 H   0  0  0  0  0  0  0  0  0  0  0  0
   -8.2030   -5.1110  -22.9230 H   0  0  0  0  0  0  0  0  0  0  0  0
  1  2  1  0  0  0  0
  1 61  1  0  0  0  0
  1 62  1  0  0  0  0
  1 63  1  0  0  0  0
  2  3  1  0  0  0  0
  2 23  1  0  0  0  0
  2 60  1  1  0  0  0
  3  4  1  0  0  0  0
  3 58  1  0  0  0  0
  3 59  1  0  0  0  0
  4  5  1  0  0  0  0
  4 21  1  0  0  0  0
  5  6  2  0  0  0  0
  5 14  1  0  0  0  0
  6  7  1  0  0  0  0
  6 20  1  0  0  0  0
  7  8  2  0  0  0  0
  8  9  1  0  0  0  0
  8 19  1  0  0  0  0
  9 10  2  0  0  0  0
  9 14  1  0  0  0  0
 10 11  1  0  0  0  0
 10 18  1  0  0  0  0
 11 12  2  0  0  0  0
 11 17  1  0  0  0  0
 12 13  1  0  0  0  0
 12 16  1  0  0  0  0
 13 14  2  0  0  0  0
 13 15  1  0  0  0  0
 21 22  2  0  0  0  0
 23 21  1  1  0  0  0
 23 24  1  0  0  0  0
 23 52  1  0  0  0  0
 24 25  1  0  0  0  0
 24 56  1  0  0  0  0
 24 57  1  0  0  0  0
 25 26  1  0  0  0  0
 25 44  1  0  0  0  0
 26 27  1  0  0  0  0
 26 42  1  0  0  0  0
 26 43  1  0  0  0  0
 27 28  2  0  0  0  0
 27 29  1  0  0  0  0
 29 30  1  0  0  0  0
 29 41  1  0  0  0  0
 30 31  1  0  0  0  0
 30 39  1  0  0  0  0
 30 40  1  0  0  0  0
 31 32  1  0  0  0  0
 31 33  1  0  0  0  0
 31 34  1  0  0  0  0
 33 34  1  0  0  0  0
 33 37  1  0  0  0  0
 33 38  1  0  0  0  0
 34 35  1  0  0  0  0
 34 36  1  0  0  0  0
 44 45  2  0  0  0  0
 44 46  1  0  0  0  0
 46 47  2  0  0  0  0
 46 52  1  0  0  0  0
 47 48  1  0  0  0  0
 47 55  1  0  0  0  0
 48 49  2  0  0  0  0
 48 54  1  0  0  0  0
 49 50  1  0  0  0  0
 49 51  1  0  0  0  0
 51 52  2  0  0  0  0
 51 53  1  0  0  0  0
M  END
>  <MODEL>
       1

$$$$
