tmp_first_model_15_19.pdb
 OpenBabel08282501153D

 42 45  0  0  1  0  0  0  0  0999 V2000
   -8.3940    0.6060  -21.5710 O   0  0  0  0  0  0  0  0  0  0  0  0
   -8.2900   -0.5580  -21.8970 C   0  0  0  0  0  0  0  0  0  0  0  0
   -9.1780   -1.1570  -23.0050 C   0  0  1  0  0  0  0  0  0  0  0  0
   -9.3660   -0.1840  -24.1570 C   0  0  0  0  0  0  0  0  0  0  0  0
  -10.6380    0.1630  -24.6130 C   0  0  0  0  0  0  0  0  0  0  0  0
  -10.8060    1.0220  -25.6920 C   0  0  0  0  0  0  0  0  0  0  0  0
   -9.6990    1.5510  -26.3450 C   0  0  0  0  0  0  0  0  0  0  0  0
   -9.9410    2.6290  -27.6790 Cl  0  0  0  0  0  0  0  0  0  0  0  0
   -8.4210    1.2020  -25.9090 C   0  0  0  0  0  0  0  0  0  0  0  0
   -7.0110    1.8330  -26.6890 Cl  0  0  0  0  0  0  0  0  0  0  0  0
   -8.2660    0.3360  -24.8320 C   0  0  0  0  0  0  0  0  0  0  0  0
   -7.2580    0.0800  -24.5170 H   0  0  0  0  0  0  0  0  0  0  0  0
  -11.7970    1.2980  -26.0320 H   0  0  0  0  0  0  0  0  0  0  0  0
  -11.5220   -0.2400  -24.1300 H   0  0  0  0  0  0  0  0  0  0  0  0
   -8.6980   -2.5160  -23.5100 C   0  0  0  0  0  0  0  0  0  0  0  0
   -8.2380   -3.4190  -22.3730 C   0  0  2  0  0  0  0  0  0  0  0  0
   -9.2950   -3.7710  -21.5030 O   0  0  0  0  0  0  0  0  0  0  0  0
   -9.4990   -2.9970  -20.9590 H   0  0  0  0  0  0  0  0  0  0  0  0
   -7.0830   -2.7580  -21.6410 C   0  0  0  0  0  0  0  0  0  0  0  0
   -7.4210   -1.4030  -21.2120 N   0  0  0  0  0  0  0  0  0  0  0  0
   -6.6060   -0.8120  -20.1870 C   0  0  0  0  0  0  0  0  0  0  0  0
   -6.8900   -1.0490  -18.8660 C   0  0  0  0  0  0  0  0  0  0  0  0
   -6.1950   -0.5480  -17.8120 N   0  0  0  0  0  0  0  0  0  0  0  0
   -5.1620    0.2190  -18.0700 C   0  0  0  0  0  0  0  0  0  0  0  0
   -4.7270    0.5320  -19.3900 C   0  0  0  0  0  0  0  0  0  0  0  0
   -3.5960    1.3610  -19.6330 C   0  0  0  0  0  0  0  0  0  0  0  0
   -3.2030    1.6370  -20.9150 C   0  0  0  0  0  0  0  0  0  0  0  0
   -3.9150    1.0930  -22.0080 C   0  0  0  0  0  0  0  0  0  0  0  0
   -5.0080    0.2900  -21.7950 C   0  0  0  0  0  0  0  0  0  0  0  0
   -5.4580   -0.0020  -20.4800 C   0  0  0  0  0  0  0  0  0  0  0  0
   -5.5550   -0.1300  -22.6340 H   0  0  0  0  0  0  0  0  0  0  0  0
   -3.5980    1.3180  -23.0210 H   0  0  0  0  0  0  0  0  0  0  0  0
   -2.3450    2.2760  -21.1060 H   0  0  0  0  0  0  0  0  0  0  0  0
   -3.0560    1.7790  -18.7850 H   0  0  0  0  0  0  0  0  0  0  0  0
   -4.6070    0.6250  -17.2200 H   0  0  0  0  0  0  0  0  0  0  0  0
   -7.7380   -1.6760  -18.5990 H   0  0  0  0  0  0  0  0  0  0  0  0
   -6.1840   -2.7690  -22.2760 H   0  0  0  0  0  0  0  0  0  0  0  0
   -6.8400   -3.3340  -20.7460 H   0  0  0  0  0  0  0  0  0  0  0  0
   -7.8900   -4.3650  -22.7980 H   0  0  0  0  0  0  0  0  0  0  0  0
   -9.5100   -3.0100  -24.0520 H   0  0  0  0  0  0  0  0  0  0  0  0
   -7.8750   -2.3730  -24.2210 H   0  0  0  0  0  0  0  0  0  0  0  0
  -10.1540   -1.2970  -22.5220 H   0  0  0  0  0  0  0  0  0  0  0  0
  1  2  2  0  0  0  0
  2  3  1  0  0  0  0
  2 20  1  0  0  0  0
  3  4  1  0  0  0  0
  3 15  1  0  0  0  0
  3 42  1  1  0  0  0
  4  5  2  0  0  0  0
  4 11  1  0  0  0  0
  5  6  1  0  0  0  0
  5 14  1  0  0  0  0
  6  7  2  0  0  0  0
  6 13  1  0  0  0  0
  7  8  1  0  0  0  0
  7  9  1  0  0  0  0
  9 10  1  0  0  0  0
  9 11  2  0  0  0  0
 11 12  1  0  0  0  0
 15 16  1  0  0  0  0
 15 40  1  0  0  0  0
 15 41  1  0  0  0  0
 16 17  1  0  0  0  0
 16 19  1  0  0  0  0
 16 39  1  6  0  0  0
 17 18  1  0  0  0  0
 19 20  1  0  0  0  0
 19 37  1  0  0  0  0
 19 38  1  0  0  0  0
 20 21  1  0  0  0  0
 21 22  2  0  0  0  0
 21 30  1  0  0  0  0
 22 23  1  0  0  0  0
 22 36  1  0  0  0  0
 23 24  2  0  0  0  0
 24 25  1  0  0  0  0
 24 35  1  0  0  0  0
 25 26  2  0  0  0  0
 25 30  1  0  0  0  0
 26 27  1  0  0  0  0
 26 34  1  0  0  0  0
 27 28  2  0  0  0  0
 27 33  1  0  0  0  0
 28 29  1  0  0  0  0
 28 32  1  0  0  0  0
 29 30  2  0  0  0  0
 29 31  1  0  0  0  0
M  END
>  <MODEL>
       1

$$$$
