tmp_first_model_6_81.pdb
 OpenBabel08272519583D

 36 38  0  0  0  0  0  0  0  0999 V2000
   -8.5080    0.7110  -21.4640 O   0  0  0  0  0  0  0  0  0  0  0  0
   -8.3850   -0.4010  -21.9340 C   0  0  0  0  0  0  0  0  0  0  0  0
   -7.4380   -1.4330  -21.2760 C   0  0  0  0  0  0  0  0  0  0  0  0
   -6.5820   -0.8280  -20.1850 C   0  0  0  0  0  0  0  0  0  0  0  0
   -6.8790   -1.0410  -18.8630 C   0  0  0  0  0  0  0  0  0  0  0  0
   -6.1920   -0.5410  -17.8010 N   0  0  0  0  0  0  0  0  0  0  0  0
   -5.1580    0.2200  -18.0640 C   0  0  0  0  0  0  0  0  0  0  0  0
   -4.7260    0.5370  -19.3800 C   0  0  0  0  0  0  0  0  0  0  0  0
   -3.6000    1.3670  -19.6180 C   0  0  0  0  0  0  0  0  0  0  0  0
   -3.2170    1.6730  -20.8970 C   0  0  0  0  0  0  0  0  0  0  0  0
   -3.9610    1.1710  -21.9870 C   0  0  0  0  0  0  0  0  0  0  0  0
   -5.0470    0.3520  -21.7820 C   0  0  0  0  0  0  0  0  0  0  0  0
   -5.4600    0.0080  -20.4700 C   0  0  0  0  0  0  0  0  0  0  0  0
   -5.5740   -0.0630  -22.6340 H   0  0  0  0  0  0  0  0  0  0  0  0
   -3.6300    1.3780  -22.9990 H   0  0  0  0  0  0  0  0  0  0  0  0
   -2.3510    2.3020  -21.0860 H   0  0  0  0  0  0  0  0  0  0  0  0
   -3.0560    1.7720  -18.7680 H   0  0  0  0  0  0  0  0  0  0  0  0
   -4.6030    0.6260  -17.2150 H   0  0  0  0  0  0  0  0  0  0  0  0
   -7.7290   -1.6600  -18.5850 H   0  0  0  0  0  0  0  0  0  0  0  0
   -8.0410   -2.2450  -20.8450 H   0  0  0  0  0  0  0  0  0  0  0  0
   -6.8020   -1.8990  -22.0410 H   0  0  0  0  0  0  0  0  0  0  0  0
   -9.0620   -0.7720  -23.0900 N   0  0  0  0  0  0  0  0  0  0  0  0
   -9.3680   -2.1600  -23.4040 C   0  0  0  0  0  0  0  0  0  0  0  0
  -10.4480   -2.7810  -22.5520 C   0  0  0  0  0  0  0  0  0  0  0  0
  -11.5710   -2.1760  -22.1570 C   0  0  0  0  0  0  0  0  0  0  0  0
  -12.0220   -0.7920  -22.4180 C   0  0  0  0  0  0  0  0  0  0  0  0
  -11.3810    0.2150  -23.0220 C   0  0  0  0  0  0  0  0  0  0  0  0
  -10.0070    0.1960  -23.6430 C   0  0  0  0  0  0  0  0  0  0  0  0
   -9.5580    1.1910  -23.5950 H   0  0  0  0  0  0  0  0  0  0  0  0
  -10.1120   -0.0400  -24.7080 H   0  0  0  0  0  0  0  0  0  0  0  0
  -11.8920    1.1790  -23.0820 H   0  0  0  0  0  0  0  0  0  0  0  0
  -13.0200   -0.5790  -22.0380 H   0  0  0  0  0  0  0  0  0  0  0  0
  -12.2760   -2.7630  -21.5730 H   0  0  0  0  0  0  0  0  0  0  0  0
  -10.2820   -3.8150  -22.2470 H   0  0  0  0  0  0  0  0  0  0  0  0
   -9.6830   -2.1750  -24.4540 H   0  0  0  0  0  0  0  0  0  0  0  0
   -8.4500   -2.7530  -23.3590 H   0  0  0  0  0  0  0  0  0  0  0  0
  1  2  2  0  0  0  0
  2  3  1  0  0  0  0
  2 22  1  0  0  0  0
  3  4  1  0  0  0  0
  3 20  1  0  0  0  0
  3 21  1  0  0  0  0
  4  5  2  0  0  0  0
  4 13  1  0  0  0  0
  5  6  1  0  0  0  0
  5 19  1  0  0  0  0
  6  7  2  0  0  0  0
  7  8  1  0  0  0  0
  7 18  1  0  0  0  0
  8  9  2  0  0  0  0
  8 13  1  0  0  0  0
  9 10  1  0  0  0  0
  9 17  1  0  0  0  0
 10 11  2  0  0  0  0
 10 16  1  0  0  0  0
 11 12  1  0  0  0  0
 11 15  1  0  0  0  0
 12 13  2  0  0  0  0
 12 14  1  0  0  0  0
 22 23  1  0  0  0  0
 22 28  1  0  0  0  0
 23 24  1  0  0  0  0
 23 35  1  0  0  0  0
 23 36  1  0  0  0  0
 24 25  2  0  0  0  0
 24 34  1  0  0  0  0
 25 26  1  0  0  0  0
 25 33  1  0  0  0  0
 26 27  2  0  0  0  0
 26 32  1  0  0  0  0
 27 28  1  0  0  0  0
 27 31  1  0  0  0  0
 28 29  1  0  0  0  0
 28 30  1  0  0  0  0
M  END
>  <MODEL>
       1

$$$$
