tmp_first_model_3_18.pdb
 OpenBabel08272518143D

 56 61  0  0  1  0  0  0  0  0999 V2000
  -10.1770   -2.8750  -22.0140 C   0  0  0  0  0  0  0  0  0  0  0  0
   -9.1830   -1.9220  -22.6960 C   0  0  1  0  0  0  0  0  0  0  0  0
   -8.6890   -0.8550  -21.6940 C   0  0  0  0  0  0  0  0  0  0  0  0
   -7.4700   -1.4340  -21.1680 N   0  0  0  0  0  0  0  0  0  0  0  0
   -6.6850   -0.8310  -20.1520 C   0  0  0  0  0  0  0  0  0  0  0  0
   -7.0340   -1.0110  -18.8390 C   0  0  0  0  0  0  0  0  0  0  0  0
   -6.3540   -0.4940  -17.7870 N   0  0  0  0  0  0  0  0  0  0  0  0
   -5.2960    0.2330  -18.0570 C   0  0  0  0  0  0  0  0  0  0  0  0
   -4.8290    0.5070  -19.3750 C   0  0  0  0  0  0  0  0  0  0  0  0
   -3.6930    1.3280  -19.6040 C   0  0  0  0  0  0  0  0  0  0  0  0
   -3.2800    1.5990  -20.8790 C   0  0  0  0  0  0  0  0  0  0  0  0
   -3.9750    1.0520  -21.9810 C   0  0  0  0  0  0  0  0  0  0  0  0
   -5.0710    0.2480  -21.7890 C   0  0  0  0  0  0  0  0  0  0  0  0
   -5.5320   -0.0420  -20.4680 C   0  0  0  0  0  0  0  0  0  0  0  0
   -5.5910   -0.1720  -22.6500 H   0  0  0  0  0  0  0  0  0  0  0  0
   -3.6410    1.2820  -22.9890 H   0  0  0  0  0  0  0  0  0  0  0  0
   -2.4240    2.2470  -21.0520 H   0  0  0  0  0  0  0  0  0  0  0  0
   -3.1810    1.7520  -18.7440 H   0  0  0  0  0  0  0  0  0  0  0  0
   -4.7490    0.6510  -17.2110 H   0  0  0  0  0  0  0  0  0  0  0  0
   -7.9000   -1.6240  -18.5960 H   0  0  0  0  0  0  0  0  0  0  0  0
   -6.9440   -2.4220  -21.9740 C   0  0  0  0  0  0  0  0  0  0  0  0
   -5.9210   -3.0190  -21.7410 O   0  0  0  0  0  0  0  0  0  0  0  0
   -7.8730   -2.6140  -23.1920 C   0  0  1  0  0  0  0  0  0  0  0  0
   -8.0420   -4.1200  -23.5140 C   0  0  0  0  0  0  0  0  0  0  0  0
   -6.7700   -4.7110  -23.8970 N   0  0  0  0  0  0  0  0  0  0  0  0
   -6.3060   -5.9840  -23.4120 C   0  0  0  0  0  0  0  0  0  0  0  0
   -4.9860   -5.9240  -22.7320 C   0  0  0  0  0  0  0  0  0  0  0  0
   -4.0020   -6.8220  -23.0700 C   0  0  0  0  0  0  0  0  0  0  0  0
   -3.7260   -6.6680  -23.1630 C   0  0  0  0  0  0  0  0  0  0  0  0
   -4.6620   -6.1110  -20.5890 N   0  0  0  0  0  0  0  0  0  0  0  0
   -5.0220   -5.2640  -21.4220 N   0  0  0  0  0  0  0  0  0  0  0  0
   -4.7820   -5.6970  -19.6470 H   0  0  0  0  0  0  0  0  0  0  0  0
   -2.6470   -6.2320  -22.9980 H   0  0  0  0  0  0  0  0  0  0  0  0
   -3.6120   -7.7370  -23.7180 H   0  0  0  0  0  0  0  0  0  0  0  0
   -7.0020   -6.3600  -22.6610 H   0  0  0  0  0  0  0  0  0  0  0  0
   -6.1900   -6.7130  -24.2050 H   0  0  0  0  0  0  0  0  0  0  0  0
   -5.9480   -4.1130  -24.8050 C   0  0  0  0  0  0  0  0  0  0  0  0
   -4.9350   -4.6800  -25.2040 O   0  0  0  0  0  0  0  0  0  0  0  0
   -6.3570   -2.7390  -25.2300 C   0  0  0  0  0  0  0  0  0  0  0  0
   -5.8340   -2.2310  -26.4200 C   0  0  0  0  0  0  0  0  0  0  0  0
   -6.1940   -0.9740  -26.8690 C   0  0  0  0  0  0  0  0  0  0  0  0
   -7.0480   -0.2250  -26.0710 C   0  0  0  0  0  0  0  0  0  0  0  0
   -7.3940    1.0060  -26.4890 F   0  0  0  0  0  0  0  0  0  0  0  0
   -7.5670   -0.6900  -24.8760 C   0  0  0  0  0  0  0  0  0  0  0  0
   -7.2600   -1.9890  -24.4530 C   0  0  0  0  0  0  0  0  0  0  0  0
   -8.2280   -0.0340  -24.3220 H   0  0  0  0  0  0  0  0  0  0  0  0
   -5.8380   -0.5650  -27.8100 H   0  0  0  0  0  0  0  0  0  0  0  0
   -5.1530   -2.8540  -26.9910 H   0  0  0  0  0  0  0  0  0  0  0  0
   -8.7580   -4.2090  -24.3420 H   0  0  0  0  0  0  0  0  0  0  0  0
   -8.4370   -4.6640  -22.6560 H   0  0  0  0  0  0  0  0  0  0  0  0
   -9.4080   -0.6750  -20.8920 H   0  0  0  0  0  0  0  0  0  0  0  0
   -8.4940    0.1100  -22.1820 H   0  0  0  0  0  0  0  0  0  0  0  0
   -9.7090   -1.4630  -23.5400 H   0  0  0  0  0  0  0  0  0  0  0  0
  -11.0430   -2.3230  -21.6350 H   0  0  0  0  0  0  0  0  0  0  0  0
   -9.7200   -3.3980  -21.1660 H   0  0  0  0  0  0  0  0  0  0  0  0
  -10.5520   -3.6270  -22.7150 H   0  0  0  0  0  0  0  0  0  0  0  0
  1  2  1  0  0  0  0
  1 54  1  0  0  0  0
  1 55  1  0  0  0  0
  1 56  1  0  0  0  0
  2  3  1  0  0  0  0
  2 23  1  0  0  0  0
  2 53  1  6  0  0  0
  3  4  1  0  0  0  0
  3 51  1  0  0  0  0
  3 52  1  0  0  0  0
  4  5  1  0  0  0  0
  4 21  1  0  0  0  0
  5  6  2  0  0  0  0
  5 14  1  0  0  0  0
  6  7  1  0  0  0  0
  6 20  1  0  0  0  0
  7  8  2  0  0  0  0
  8  9  1  0  0  0  0
  8 19  1  0  0  0  0
  9 10  2  0  0  0  0
  9 14  1  0  0  0  0
 10 11  1  0  0  0  0
 10 18  1  0  0  0  0
 11 12  2  0  0  0  0
 11 17  1  0  0  0  0
 12 13  1  0  0  0  0
 12 16  1  0  0  0  0
 13 14  2  0  0  0  0
 13 15  1  0  0  0  0
 21 22  2  0  0  0  0
 23 21  1  1  0  0  0
 23 24  1  0  0  0  0
 23 45  1  0  0  0  0
 24 25  1  0  0  0  0
 24 49  1  0  0  0  0
 24 50  1  0  0  0  0
 25 26  1  0  0  0  0
 25 37  1  0  0  0  0
 26 27  1  0  0  0  0
 26 35  1  0  0  0  0
 26 36  1  0  0  0  0
 27 28  1  0  0  0  0
 27 31  2  0  0  0  0
 28 29  2  0  0  0  0
 28 34  1  0  0  0  0
 29 30  1  0  0  0  0
 29 33  1  0  0  0  0
 30 31  1  0  0  0  0
 30 32  1  0  0  0  0
 37 38  2  0  0  0  0
 37 39  1  0  0  0  0
 39 40  2  0  0  0  0
 39 45  1  0  0  0  0
 40 41  1  0  0  0  0
 40 48  1  0  0  0  0
 41 42  2  0  0  0  0
 41 47  1  0  0  0  0
 42 43  1  0  0  0  0
 42 44  1  0  0  0  0
 44 45  2  0  0  0  0
 44 46  1  0  0  0  0
M  END
>  <MODEL>
       1

$$$$
