tmp_first_model_6_92.pdb
 OpenBabel08272519583D

 60 65  0  0  1  0  0  0  0  0999 V2000
   -6.7840   -3.4360  -26.0930 C   0  0  0  0  0  0  0  0  0  0  0  0
   -7.0250   -2.8860  -24.8210 O   0  0  0  0  0  0  0  0  0  0  0  0
   -8.0010   -3.5930  -24.0840 C   0  0  0  0  0  0  0  0  0  0  0  0
   -8.3150   -2.8740  -22.7700 C   0  0  1  0  0  0  0  0  0  0  0  0
   -7.0420   -2.5360  -21.9750 C   0  0  0  0  0  0  0  0  0  0  0  0
   -7.3970   -1.3340  -21.2450 N   0  0  0  0  0  0  0  0  0  0  0  0
   -6.6170   -0.7890  -20.1910 C   0  0  0  0  0  0  0  0  0  0  0  0
   -6.9290   -1.0510  -18.8810 C   0  0  0  0  0  0  0  0  0  0  0  0
   -6.2300   -0.5750  -17.8210 N   0  0  0  0  0  0  0  0  0  0  0  0
   -5.2030    0.2010  -18.0720 C   0  0  0  0  0  0  0  0  0  0  0  0
   -4.7750    0.5630  -19.3820 C   0  0  0  0  0  0  0  0  0  0  0  0
   -3.6530    1.4030  -19.6120 C   0  0  0  0  0  0  0  0  0  0  0  0
   -3.2800    1.7280  -20.8880 C   0  0  0  0  0  0  0  0  0  0  0  0
   -4.0000    1.2270  -21.9920 C   0  0  0  0  0  0  0  0  0  0  0  0
   -5.0590    0.3690  -21.7920 C   0  0  0  0  0  0  0  0  0  0  0  0
   -5.4890    0.0370  -20.4820 C   0  0  0  0  0  0  0  0  0  0  0  0
   -5.5630   -0.0710  -22.6480 H   0  0  0  0  0  0  0  0  0  0  0  0
   -3.6820    1.4900  -22.9980 H   0  0  0  0  0  0  0  0  0  0  0  0
   -2.4100    2.3530  -21.0620 H   0  0  0  0  0  0  0  0  0  0  0  0
   -3.0960    1.7660  -18.7540 H   0  0  0  0  0  0  0  0  0  0  0  0
   -4.6370    0.5810  -17.2200 H   0  0  0  0  0  0  0  0  0  0  0  0
   -7.7900   -1.6720  -18.6470 H   0  0  0  0  0  0  0  0  0  0  0  0
   -8.6190   -0.7990  -21.5870 C   0  0  0  0  0  0  0  0  0  0  0  0
   -9.1790    0.0870  -20.9780 O   0  0  0  0  0  0  0  0  0  0  0  0
   -9.1540   -1.5550  -22.8290 C   0  0  1  0  0  0  0  0  0  0  0  0
   -8.8770   -0.7790  -24.1410 C   0  0  0  0  0  0  0  0  0  0  0  0
   -9.7200    0.3950  -24.2830 N   0  0  0  0  0  0  0  0  0  0  0  0
   -9.1280    1.6280  -24.7770 C   0  0  0  0  0  0  0  0  0  0  0  0
   -8.3420    2.3930  -23.7330 C   0  0  0  0  0  0  0  0  0  0  0  0
   -8.8650    3.3110  -22.7880 C   0  0  0  0  0  0  0  0  0  0  0  0
   -7.9280    3.7960  -21.9700 N   0  0  0  0  0  0  0  0  0  0  0  0
   -6.8080    3.2030  -22.3930 N   0  0  0  0  0  0  0  0  0  0  0  0
   -6.9980    2.3630  -23.4350 C   0  0  0  0  0  0  0  0  0  0  0  0
   -6.1500    1.7980  -23.8030 H   0  0  0  0  0  0  0  0  0  0  0  0
   -5.9200    3.3270  -21.9260 H   0  0  0  0  0  0  0  0  0  0  0  0
   -9.8910    3.6470  -22.6900 H   0  0  0  0  0  0  0  0  0  0  0  0
   -8.5290    1.3730  -25.6600 H   0  0  0  0  0  0  0  0  0  0  0  0
   -9.9680    2.2340  -25.1240 H   0  0  0  0  0  0  0  0  0  0  0  0
  -11.0750    0.3380  -24.1150 C   0  0  0  0  0  0  0  0  0  0  0  0
  -11.8430    1.1920  -24.5400 O   0  0  0  0  0  0  0  0  0  0  0  0
  -11.5560   -0.8370  -23.3360 C   0  0  0  0  0  0  0  0  0  0  0  0
  -12.9360   -0.9380  -23.1740 C   0  0  0  0  0  0  0  0  0  0  0  0
  -13.4560   -1.8290  -22.2660 C   0  0  0  0  0  0  0  0  0  0  0  0
  -12.5680   -2.6140  -21.5380 C   0  0  0  0  0  0  0  0  0  0  0  0
  -13.2210   -3.4570  -20.1800 Cl  0  0  0  0  0  0  0  0  0  0  0  0
  -11.2010   -2.5930  -21.7570 C   0  0  0  0  0  0  0  0  0  0  0  0
  -10.6630   -1.7060  -22.6930 C   0  0  0  0  0  0  0  0  0  0  0  0
  -10.5530   -3.2450  -21.1830 H   0  0  0  0  0  0  0  0  0  0  0  0
  -14.5190   -1.9000  -22.0630 H   0  0  0  0  0  0  0  0  0  0  0  0
  -13.5670   -0.2560  -23.7330 H   0  0  0  0  0  0  0  0  0  0  0  0
   -9.0490   -1.4780  -24.9690 H   0  0  0  0  0  0  0  0  0  0  0  0
   -7.8330   -0.4570  -24.1880 H   0  0  0  0  0  0  0  0  0  0  0  0
   -6.1920   -2.3640  -22.6450 H   0  0  0  0  0  0  0  0  0  0  0  0
   -6.7740   -3.3450  -21.2850 H   0  0  0  0  0  0  0  0  0  0  0  0
   -8.9000   -3.5880  -22.1850 H   0  0  0  0  0  0  0  0  0  0  0  0
   -7.6240   -4.6020  -23.8550 H   0  0  0  0  0  0  0  0  0  0  0  0
   -8.9220   -3.7090  -24.6800 H   0  0  0  0  0  0  0  0  0  0  0  0
   -6.0200   -2.8250  -26.5810 H   0  0  0  0  0  0  0  0  0  0  0  0
   -6.4120   -4.4700  -26.0250 H   0  0  0  0  0  0  0  0  0  0  0  0
   -7.6910   -3.4220  -26.7160 H   0  0  0  0  0  0  0  0  0  0  0  0
  1  2  1  0  0  0  0
  1 58  1  0  0  0  0
  1 59  1  0  0  0  0
  1 60  1  0  0  0  0
  2  3  1  0  0  0  0
  3  4  1  0  0  0  0
  3 56  1  0  0  0  0
  3 57  1  0  0  0  0
  4  5  1  0  0  0  0
  4 25  1  0  0  0  0
  4 55  1  1  0  0  0
  5  6  1  0  0  0  0
  5 53  1  0  0  0  0
  5 54  1  0  0  0  0
  6  7  1  0  0  0  0
  6 23  1  0  0  0  0
  7  8  2  0  0  0  0
  7 16  1  0  0  0  0
  8  9  1  0  0  0  0
  8 22  1  0  0  0  0
  9 10  2  0  0  0  0
 10 11  1  0  0  0  0
 10 21  1  0  0  0  0
 11 12  2  0  0  0  0
 11 16  1  0  0  0  0
 12 13  1  0  0  0  0
 12 20  1  0  0  0  0
 13 14  2  0  0  0  0
 13 19  1  0  0  0  0
 14 15  1  0  0  0  0
 14 18  1  0  0  0  0
 15 16  2  0  0  0  0
 15 17  1  0  0  0  0
 23 24  2  0  0  0  0
 25 23  1  1  0  0  0
 25 26  1  0  0  0  0
 25 47  1  0  0  0  0
 26 27  1  0  0  0  0
 26 51  1  0  0  0  0
 26 52  1  0  0  0  0
 27 28  1  0  0  0  0
 27 39  1  0  0  0  0
 28 29  1  0  0  0  0
 28 37  1  0  0  0  0
 28 38  1  0  0  0  0
 29 30  1  0  0  0  0
 29 33  2  0  0  0  0
 30 31  2  0  0  0  0
 30 36  1  0  0  0  0
 31 32  1  0  0  0  0
 32 33  1  0  0  0  0
 32 35  1  0  0  0  0
 33 34  1  0  0  0  0
 39 40  2  0  0  0  0
 39 41  1  0  0  0  0
 41 42  2  0  0  0  0
 41 47  1  0  0  0  0
 42 43  1  0  0  0  0
 42 50  1  0  0  0  0
 43 44  2  0  0  0  0
 43 49  1  0  0  0  0
 44 45  1  0  0  0  0
 44 46  1  0  0  0  0
 46 47  2  0  0  0  0
 46 48  1  0  0  0  0
M  END
>  <MODEL>
       1

$$$$
