tmp_first_model_9_39.pdb
 OpenBabel08272521403D

 40 44  0  0  1  0  0  0  0  0999 V2000
   -5.1680   -0.4460  -25.7330 C   0  0  0  0  0  0  0  0  0  0  0  0
   -6.6430   -0.3500  -25.3750 C   0  0  0  0  0  0  0  0  0  0  0  0
   -7.2430    0.7170  -25.3710 O   0  0  0  0  0  0  0  0  0  0  0  0
   -7.2810   -1.5220  -25.0860 N   0  0  0  0  0  0  0  0  0  0  0  0
   -6.6520   -2.8110  -24.7280 C   0  0  0  0  0  0  0  0  0  0  0  0
   -7.8290   -3.5190  -24.0270 C   0  0  2  0  0  0  0  0  0  0  0  0
   -9.0230   -2.9960  -24.8400 C   0  0  0  0  0  0  0  0  0  0  0  0
   -8.6700   -1.5260  -24.5540 C   0  0  1  0  0  0  0  0  0  0  0  0
   -8.5540   -1.5730  -23.0870 C   0  0  0  0  0  0  0  0  0  0  0  0
   -8.1580   -0.6220  -22.0900 C   0  0  0  0  0  0  0  0  0  0  0  0
   -8.3510    0.5660  -21.9950 O   0  5  0  0  0  0  0  0  0  0  0  0
   -7.3920   -1.3990  -21.1850 N   0  0  0  0  0  0  0  0  0  0  0  0
   -6.5770   -0.8290  -20.1720 C   0  0  0  0  0  0  0  0  0  0  0  0
   -6.8870   -1.0590  -18.8580 C   0  0  0  0  0  0  0  0  0  0  0  0
   -6.1910   -0.5450  -17.8170 N   0  0  0  0  0  0  0  0  0  0  0  0
   -5.1630    0.2170  -18.0850 C   0  0  0  0  0  0  0  0  0  0  0  0
   -4.7220    0.5290  -19.4000 C   0  0  0  0  0  0  0  0  0  0  0  0
   -3.5880    1.3540  -19.6330 C   0  0  0  0  0  0  0  0  0  0  0  0
   -3.1780    1.6270  -20.9080 C   0  0  0  0  0  0  0  0  0  0  0  0
   -3.8860    1.0770  -22.0020 C   0  0  0  0  0  0  0  0  0  0  0  0
   -4.9780    0.2720  -21.8040 C   0  0  0  0  0  0  0  0  0  0  0  0
   -5.4430   -0.0130  -20.4890 C   0  0  0  0  0  0  0  0  0  0  0  0
   -5.4960   -0.1450  -22.6650 H   0  0  0  0  0  0  0  0  0  0  0  0
   -3.5610    1.2940  -23.0150 H   0  0  0  0  0  0  0  0  0  0  0  0
   -2.3190    2.2680  -21.0910 H   0  0  0  0  0  0  0  0  0  0  0  0
   -3.0720    1.7690  -18.7710 H   0  0  0  0  0  0  0  0  0  0  0  0
   -4.6220    0.6230  -17.2290 H   0  0  0  0  0  0  0  0  0  0  0  0
   -7.7370   -1.6810  -18.5960 H   0  0  0  0  0  0  0  0  0  0  0  0
   -7.2470   -2.7210  -21.6270 C   0  0  0  0  0  0  0  0  0  0  0  0
   -6.5210   -3.5640  -21.1620 O   0  0  0  0  0  0  0  0  0  0  0  0
   -8.0670   -2.8080  -22.7490 N   0  0  0  0  0  0  0  0  0  0  0  0
   -9.2560   -0.7110  -24.9820 H   0  0  0  0  0  0  0  0  0  0  0  0
   -8.9630   -3.2420  -25.9050 H   0  0  0  0  0  0  0  0  0  0  0  0
   -9.9840   -3.3020  -24.4280 H   0  0  0  0  0  0  0  0  0  0  0  0
   -7.7200   -4.5860  -23.8790 H   0  0  0  0  0  0  0  0  0  0  0  0
   -5.8050   -2.7080  -24.0360 H   0  0  0  0  0  0  0  0  0  0  0  0
   -6.3310   -3.3510  -25.6220 H   0  0  0  0  0  0  0  0  0  0  0  0
   -4.9790   -1.1840  -26.5230 H   0  0  0  0  0  0  0  0  0  0  0  0
   -4.8800    0.5470  -26.0770 H   0  0  0  0  0  0  0  0  0  0  0  0
   -4.5360   -0.7250  -24.8790 H   0  0  0  0  0  0  0  0  0  0  0  0
  1  2  1  0  0  0  0
  1 38  1  0  0  0  0
  1 39  1  0  0  0  0
  1 40  1  0  0  0  0
  2  3  2  0  0  0  0
  2  4  1  0  0  0  0
  4  5  1  0  0  0  0
  4  8  1  0  0  0  0
  5  6  1  0  0  0  0
  5 36  1  0  0  0  0
  5 37  1  0  0  0  0
  6  7  1  0  0  0  0
  6 31  1  0  0  0  0
  6 35  1  1  0  0  0
  7  8  1  0  0  0  0
  7 33  1  0  0  0  0
  7 34  1  0  0  0  0
  8  9  1  0  0  0  0
  8 32  1  6  0  0  0
  9 10  2  0  0  0  0
  9 31  1  0  0  0  0
 10 11  1  0  0  0  0
 10 12  1  0  0  0  0
 12 13  1  0  0  0  0
 12 29  1  0  0  0  0
 13 14  2  0  0  0  0
 13 22  1  0  0  0  0
 14 15  1  0  0  0  0
 14 28  1  0  0  0  0
 15 16  2  0  0  0  0
 16 17  1  0  0  0  0
 16 27  1  0  0  0  0
 17 18  2  0  0  0  0
 17 22  1  0  0  0  0
 18 19  1  0  0  0  0
 18 26  1  0  0  0  0
 19 20  2  0  0  0  0
 19 25  1  0  0  0  0
 20 21  1  0  0  0  0
 20 24  1  0  0  0  0
 21 22  2  0  0  0  0
 21 23  1  0  0  0  0
 29 30  2  0  0  0  0
 29 31  1  0  0  0  0
M  CHG  1  11  -1
M  END
>  <MODEL>
       1

$$$$
