tmp_first_model_13_55.pdb
 OpenBabel08282500103D

 61 66  0  0  1  0  0  0  0  0999 V2000
   -7.0110   -5.4570  -25.0430 C   0  0  0  0  0  0  0  0  0  0  0  0
   -7.3440   -4.7940  -23.8490 O   0  0  0  0  0  0  0  0  0  0  0  0
   -7.9930   -3.5690  -24.0820 C   0  0  0  0  0  0  0  0  0  0  0  0
   -8.2920   -2.9110  -22.7390 C   0  0  1  0  0  0  0  0  0  0  0  0
   -7.0110   -2.5480  -21.9650 C   0  0  0  0  0  0  0  0  0  0  0  0
   -7.3900   -1.3680  -21.2120 N   0  0  0  0  0  0  0  0  0  0  0  0
   -6.5980   -0.8050  -20.1830 C   0  0  0  0  0  0  0  0  0  0  0  0
   -6.9130   -1.0390  -18.8690 C   0  0  0  0  0  0  0  0  0  0  0  0
   -6.2100   -0.5440  -17.8220 N   0  0  0  0  0  0  0  0  0  0  0  0
   -5.1770    0.2150  -18.0890 C   0  0  0  0  0  0  0  0  0  0  0  0
   -4.7440    0.5390  -19.4060 C   0  0  0  0  0  0  0  0  0  0  0  0
   -3.6250    1.3770  -19.6460 C   0  0  0  0  0  0  0  0  0  0  0  0
   -3.2380    1.6690  -20.9250 C   0  0  0  0  0  0  0  0  0  0  0  0
   -3.9360    1.1230  -22.0230 C   0  0  0  0  0  0  0  0  0  0  0  0
   -5.0130    0.2920  -21.8160 C   0  0  0  0  0  0  0  0  0  0  0  0
   -5.4580   -0.0050  -20.4980 C   0  0  0  0  0  0  0  0  0  0  0  0
   -5.5670   -0.0810  -22.6710 H   0  0  0  0  0  0  0  0  0  0  0  0
   -3.6240    1.3770  -23.0340 H   0  0  0  0  0  0  0  0  0  0  0  0
   -2.3870    2.3180  -21.1030 H   0  0  0  0  0  0  0  0  0  0  0  0
   -3.0850    1.7690  -18.7900 H   0  0  0  0  0  0  0  0  0  0  0  0
   -4.6080    0.6110  -17.2450 H   0  0  0  0  0  0  0  0  0  0  0  0
   -7.7770   -1.6540  -18.6250 H   0  0  0  0  0  0  0  0  0  0  0  0
   -8.5950   -0.8160  -21.5790 C   0  0  0  0  0  0  0  0  0  0  0  0
   -9.1160    0.1370  -21.0340 O   0  0  0  0  0  0  0  0  0  0  0  0
   -9.1380   -1.6090  -22.7870 C   0  0  1  0  0  0  0  0  0  0  0  0
   -8.8610   -0.8340  -24.0970 C   0  0  0  0  0  0  0  0  0  0  0  0
   -9.6820    0.3520  -24.2170 N   0  0  0  0  0  0  0  0  0  0  0  0
   -9.0460    1.5580  -24.7200 C   0  0  0  0  0  0  0  0  0  0  0  0
   -8.2080    2.2280  -23.6750 C   0  0  0  0  0  0  0  0  0  0  0  0
   -6.8690    2.3420  -23.5000 C   0  0  0  0  0  0  0  0  0  0  0  0
   -6.6580    3.0480  -22.3380 N   0  3  0  0  0  0  0  0  0  0  0  0
   -7.8400    3.3540  -21.8060 C   0  0  0  0  0  0  0  0  0  0  0  0
   -8.7970    2.8660  -22.5990 N   0  0  0  0  0  0  0  0  0  0  0  0
   -9.7720    2.8360  -22.3300 H   0  0  0  0  0  0  0  0  0  0  0  0
   -8.0490    3.9370  -20.9320 H   0  0  0  0  0  0  0  0  0  0  0  0
   -5.7400    3.1190  -21.9170 H   0  0  0  0  0  0  0  0  0  0  0  0
   -6.0270    1.9550  -24.0520 H   0  0  0  0  0  0  0  0  0  0  0  0
   -9.8510    2.2180  -25.0600 H   0  0  0  0  0  0  0  0  0  0  0  0
   -8.4420    1.2950  -25.5960 H   0  0  0  0  0  0  0  0  0  0  0  0
  -11.0330    0.3120  -24.0240 C   0  0  0  0  0  0  0  0  0  0  0  0
  -11.7870    1.1920  -24.4130 O   0  0  0  0  0  0  0  0  0  0  0  0
  -11.5290   -0.8830  -23.2670 C   0  0  0  0  0  0  0  0  0  0  0  0
  -12.9080   -1.0200  -23.1240 C   0  0  0  0  0  0  0  0  0  0  0  0
  -13.4290   -2.0010  -22.3080 C   0  0  0  0  0  0  0  0  0  0  0  0
  -12.5420   -2.8340  -21.6270 C   0  0  0  0  0  0  0  0  0  0  0  0
  -13.1830   -3.9640  -20.4740 Cl  0  0  0  0  0  0  0  0  0  0  0  0
  -11.1730   -2.7540  -21.8120 C   0  0  0  0  0  0  0  0  0  0  0  0
  -10.6380   -1.7820  -22.6610 C   0  0  0  0  0  0  0  0  0  0  0  0
  -10.5300   -3.4430  -21.2750 H   0  0  0  0  0  0  0  0  0  0  0  0
  -14.4970   -2.1170  -22.1610 H   0  0  0  0  0  0  0  0  0  0  0  0
  -13.5460   -0.3140  -23.6420 H   0  0  0  0  0  0  0  0  0  0  0  0
   -9.0700   -1.5010  -24.9410 H   0  0  0  0  0  0  0  0  0  0  0  0
   -7.8080   -0.5360  -24.1510 H   0  0  0  0  0  0  0  0  0  0  0  0
   -6.1740   -2.3390  -22.6460 H   0  0  0  0  0  0  0  0  0  0  0  0
   -6.7020   -3.3490  -21.2890 H   0  0  0  0  0  0  0  0  0  0  0  0
   -8.8330   -3.6530  -22.1520 H   0  0  0  0  0  0  0  0  0  0  0  0
   -8.9280   -3.7320  -24.6470 H   0  0  0  0  0  0  0  0  0  0  0  0
   -7.3480   -2.9070  -24.6890 H   0  0  0  0  0  0  0  0  0  0  0  0
   -6.5450   -6.4080  -24.7750 H   0  0  0  0  0  0  0  0  0  0  0  0
   -7.9000   -5.6690  -25.6600 H   0  0  0  0  0  0  0  0  0  0  0  0
   -6.2950   -4.8780  -25.6490 H   0  0  0  0  0  0  0  0  0  0  0  0
  1  2  1  0  0  0  0
  1 59  1  0  0  0  0
  1 60  1  0  0  0  0
  1 61  1  0  0  0  0
  2  3  1  0  0  0  0
  3  4  1  0  0  0  0
  3 57  1  0  0  0  0
  3 58  1  0  0  0  0
  4  5  1  0  0  0  0
  4 25  1  0  0  0  0
  4 56  1  1  0  0  0
  5  6  1  0  0  0  0
  5 54  1  0  0  0  0
  5 55  1  0  0  0  0
  6  7  1  0  0  0  0
  6 23  1  0  0  0  0
  7  8  2  0  0  0  0
  7 16  1  0  0  0  0
  8  9  1  0  0  0  0
  8 22  1  0  0  0  0
  9 10  2  0  0  0  0
 10 11  1  0  0  0  0
 10 21  1  0  0  0  0
 11 12  2  0  0  0  0
 11 16  1  0  0  0  0
 12 13  1  0  0  0  0
 12 20  1  0  0  0  0
 13 14  2  0  0  0  0
 13 19  1  0  0  0  0
 14 15  1  0  0  0  0
 14 18  1  0  0  0  0
 15 16  2  0  0  0  0
 15 17  1  0  0  0  0
 23 24  2  0  0  0  0
 25 23  1  1  0  0  0
 25 26  1  0  0  0  0
 25 48  1  0  0  0  0
 26 27  1  0  0  0  0
 26 52  1  0  0  0  0
 26 53  1  0  0  0  0
 27 28  1  0  0  0  0
 27 40  1  0  0  0  0
 28 29  1  0  0  0  0
 28 38  1  0  0  0  0
 28 39  1  0  0  0  0
 29 30  2  0  0  0  0
 29 33  1  0  0  0  0
 30 31  1  0  0  0  0
 30 37  1  0  0  0  0
 31 32  2  0  0  0  0
 31 36  1  0  0  0  0
 32 33  1  0  0  0  0
 32 35  1  0  0  0  0
 33 34  1  0  0  0  0
 40 41  2  0  0  0  0
 40 42  1  0  0  0  0
 42 43  2  0  0  0  0
 42 48  1  0  0  0  0
 43 44  1  0  0  0  0
 43 51  1  0  0  0  0
 44 45  2  0  0  0  0
 44 50  1  0  0  0  0
 45 46  1  0  0  0  0
 45 47  1  0  0  0  0
 47 48  2  0  0  0  0
 47 49  1  0  0  0  0
M  CHG  1  31   1
M  END
>  <MODEL>
       1

$$$$
