tmp_first_model_20_51.pdb
 OpenBabel08282503553D

 50 52  0  0  0  0  0  0  0  0999 V2000
   -9.5160   -1.1210  -26.3370 C   0  0  0  0  0  0  0  0  0  0  0  0
   -9.0780   -0.3270  -25.3650 C   0  0  0  0  0  0  0  0  0  0  0  0
   -9.6340   -0.4150  -23.9580 C   0  0  0  0  0  0  0  0  0  0  0  0
   -8.7600   -1.2120  -23.0920 N   0  0  0  0  0  0  0  0  0  0  0  0
   -8.0360   -0.5180  -22.1370 C   0  0  0  0  0  0  0  0  0  0  0  0
   -8.0200    0.6990  -22.0570 O   0  0  0  0  0  0  0  0  0  0  0  0
   -7.3380   -1.3260  -21.2740 N   0  0  0  0  0  0  0  0  0  0  0  0
   -6.5850   -0.7850  -20.2200 C   0  0  0  0  0  0  0  0  0  0  0  0
   -6.9240   -1.0390  -18.9180 C   0  0  0  0  0  0  0  0  0  0  0  0
   -6.2570   -0.5470  -17.8470 N   0  0  0  0  0  0  0  0  0  0  0  0
   -5.2080    0.2050  -18.0910 C   0  0  0  0  0  0  0  0  0  0  0  0
   -4.7460    0.5320  -19.3970 C   0  0  0  0  0  0  0  0  0  0  0  0
   -3.5960    1.3370  -19.6230 C   0  0  0  0  0  0  0  0  0  0  0  0
   -3.1740    1.6020  -20.9000 C   0  0  0  0  0  0  0  0  0  0  0  0
   -3.8720    1.0780  -22.0080 C   0  0  0  0  0  0  0  0  0  0  0  0
   -4.9870    0.3070  -21.8170 C   0  0  0  0  0  0  0  0  0  0  0  0
   -5.4540    0.0250  -20.5020 C   0  0  0  0  0  0  0  0  0  0  0  0
   -5.5400   -0.0760  -22.6660 H   0  0  0  0  0  0  0  0  0  0  0  0
   -3.5380    1.3110  -23.0180 H   0  0  0  0  0  0  0  0  0  0  0  0
   -2.2970    2.2220  -21.0640 H   0  0  0  0  0  0  0  0  0  0  0  0
   -3.0650    1.7340  -18.7650 H   0  0  0  0  0  0  0  0  0  0  0  0
   -4.6770    0.5970  -17.2240 H   0  0  0  0  0  0  0  0  0  0  0  0
   -7.7880   -1.6640  -18.6940 H   0  0  0  0  0  0  0  0  0  0  0  0
   -7.6440   -2.2820  -21.1820 H   0  0  0  0  0  0  0  0  0  0  0  0
   -8.4120   -2.5230  -23.5510 C   0  0  0  0  0  0  0  0  0  0  0  0
   -7.0840   -2.8890  -23.8020 C   0  0  0  0  0  0  0  0  0  0  0  0
   -6.8040   -4.1710  -24.2590 C   0  0  0  0  0  0  0  0  0  0  0  0
   -7.8300   -5.0540  -24.5710 C   0  0  0  0  0  0  0  0  0  0  0  0
   -9.1440   -4.6380  -24.4020 C   0  0  0  0  0  0  0  0  0  0  0  0
  -10.4500   -5.6460  -24.9570 Cl  0  0  0  0  0  0  0  0  0  0  0  0
   -9.4510   -3.3950  -23.8690 C   0  0  0  0  0  0  0  0  0  0  0  0
  -10.4890   -3.1070  -23.7090 H   0  0  0  0  0  0  0  0  0  0  0  0
   -7.6330   -6.0510  -24.9440 H   0  0  0  0  0  0  0  0  0  0  0  0
   -5.7710   -4.4860  -24.3780 H   0  0  0  0  0  0  0  0  0  0  0  0
   -6.2810   -2.1740  -23.6350 H   0  0  0  0  0  0  0  0  0  0  0  0
  -10.6090   -0.9160  -23.9970 H   0  0  0  0  0  0  0  0  0  0  0  0
   -9.7650    0.5620  -23.4810 H   0  0  0  0  0  0  0  0  0  0  0  0
   -7.8530    0.4850  -25.6820 C   0  0  0  0  0  0  0  0  0  0  0  0
   -7.1880    0.2470  -26.6840 O   0  0  0  0  0  0  0  0  0  0  0  0
   -7.5210    1.4900  -24.8290 N   0  0  0  0  0  0  0  0  0  0  0  0
   -6.2080    2.0940  -24.9760 C   0  0  0  0  0  0  0  0  0  0  0  0
   -6.0530    3.1750  -23.9220 C   0  0  0  0  0  0  0  0  0  0  0  0
   -6.7550    3.9980  -24.1030 H   0  0  0  0  0  0  0  0  0  0  0  0
   -5.0400    3.5880  -23.9250 H   0  0  0  0  0  0  0  0  0  0  0  0
   -6.2440    2.7430  -22.9290 H   0  0  0  0  0  0  0  0  0  0  0  0
   -6.1090    2.4800  -25.9950 H   0  0  0  0  0  0  0  0  0  0  0  0
   -5.4280    1.3240  -24.8640 H   0  0  0  0  0  0  0  0  0  0  0  0
   -7.9370    1.5470  -23.9050 H   0  0  0  0  0  0  0  0  0  0  0  0
   -9.0400   -1.1240  -27.3150 H   0  0  0  0  0  0  0  0  0  0  0  0
  -10.3400   -1.8110  -26.1590 H   0  0  0  0  0  0  0  0  0  0  0  0
  1  2  2  0  0  0  0
  1 49  1  0  0  0  0
  1 50  1  0  0  0  0
  2  3  1  0  0  0  0
  2 38  1  0  0  0  0
  3  4  1  0  0  0  0
  3 36  1  0  0  0  0
  3 37  1  0  0  0  0
  4  5  1  0  0  0  0
  4 25  1  0  0  0  0
  5  6  2  0  0  0  0
  5  7  1  0  0  0  0
  7  8  1  0  0  0  0
  7 24  1  0  0  0  0
  8  9  2  0  0  0  0
  8 17  1  0  0  0  0
  9 10  1  0  0  0  0
  9 23  1  0  0  0  0
 10 11  2  0  0  0  0
 11 12  1  0  0  0  0
 11 22  1  0  0  0  0
 12 13  2  0  0  0  0
 12 17  1  0  0  0  0
 13 14  1  0  0  0  0
 13 21  1  0  0  0  0
 14 15  2  0  0  0  0
 14 20  1  0  0  0  0
 15 16  1  0  0  0  0
 15 19  1  0  0  0  0
 16 17  2  0  0  0  0
 16 18  1  0  0  0  0
 25 26  2  0  0  0  0
 25 31  1  0  0  0  0
 26 27  1  0  0  0  0
 26 35  1  0  0  0  0
 27 28  2  0  0  0  0
 27 34  1  0  0  0  0
 28 29  1  0  0  0  0
 28 33  1  0  0  0  0
 29 30  1  0  0  0  0
 29 31  2  0  0  0  0
 31 32  1  0  0  0  0
 38 39  2  0  0  0  0
 38 40  1  0  0  0  0
 40 41  1  0  0  0  0
 40 48  1  0  0  0  0
 41 42  1  0  0  0  0
 41 46  1  0  0  0  0
 41 47  1  0  0  0  0
 42 43  1  0  0  0  0
 42 44  1  0  0  0  0
 42 45  1  0  0  0  0
M  END
>  <MODEL>
       1

$$$$
