tmp_first_model_7_72.pdb
 OpenBabel08272520323D

 41 44  0  0  0  0  0  0  0  0999 V2000
   -8.9720    0.4110  -21.1320 O   0  0  0  0  0  0  0  0  0  0  0  0
   -8.3960   -0.3560  -21.8820 C   0  0  0  0  0  0  0  0  0  0  0  0
   -7.4310   -1.4120  -21.2850 C   0  0  0  0  0  0  0  0  0  0  0  0
   -6.5750   -0.8310  -20.1780 C   0  0  0  0  0  0  0  0  0  0  0  0
   -6.8770   -1.0390  -18.8550 C   0  0  0  0  0  0  0  0  0  0  0  0
   -6.1850   -0.5360  -17.7980 N   0  0  0  0  0  0  0  0  0  0  0  0
   -5.1530    0.2240  -18.0650 C   0  0  0  0  0  0  0  0  0  0  0  0
   -4.7180    0.5340  -19.3840 C   0  0  0  0  0  0  0  0  0  0  0  0
   -3.5920    1.3640  -19.6240 C   0  0  0  0  0  0  0  0  0  0  0  0
   -3.2070    1.6560  -20.9040 C   0  0  0  0  0  0  0  0  0  0  0  0
   -3.9340    1.1250  -21.9950 C   0  0  0  0  0  0  0  0  0  0  0  0
   -5.0250    0.3140  -21.7920 C   0  0  0  0  0  0  0  0  0  0  0  0
   -5.4480   -0.0030  -20.4730 C   0  0  0  0  0  0  0  0  0  0  0  0
   -5.5600   -0.0830  -22.6540 H   0  0  0  0  0  0  0  0  0  0  0  0
   -3.6230    1.3640  -23.0070 H   0  0  0  0  0  0  0  0  0  0  0  0
   -2.3530    2.3020  -21.0890 H   0  0  0  0  0  0  0  0  0  0  0  0
   -3.0560    1.7810  -18.7750 H   0  0  0  0  0  0  0  0  0  0  0  0
   -4.5990    0.6290  -17.2160 H   0  0  0  0  0  0  0  0  0  0  0  0
   -7.7290   -1.6610  -18.5840 H   0  0  0  0  0  0  0  0  0  0  0  0
   -8.0550   -2.2040  -20.8520 H   0  0  0  0  0  0  0  0  0  0  0  0
   -6.7990   -1.8810  -22.0500 H   0  0  0  0  0  0  0  0  0  0  0  0
   -8.5770   -0.2980  -23.2470 N   0  0  0  0  0  0  0  0  0  0  0  0
   -9.0740    0.9410  -23.8450 C   0  0  0  0  0  0  0  0  0  0  0  0
   -8.4360    1.2800  -25.1950 C   0  0  0  0  0  0  0  0  0  0  0  0
   -6.9100    1.1640  -25.2150 C   0  0  0  0  0  0  0  0  0  0  0  0
   -6.4020   -0.2570  -25.2610 C   0  0  0  0  0  0  0  0  0  0  0  0
   -4.8550   -0.6210  -25.9580 S   0  0  0  0  0  0  0  0  0  0  0  0
   -5.0230   -2.2980  -25.6020 C   0  0  0  0  0  0  0  0  0  0  0  0
   -6.2130   -2.5670  -24.9950 C   0  0  0  0  0  0  0  0  0  0  0  0
   -7.0070   -1.3970  -24.8030 C   0  0  0  0  0  0  0  0  0  0  0  0
   -8.3560   -1.4140  -24.1400 C   0  0  0  0  0  0  0  0  0  0  0  0
   -9.1430   -1.4240  -24.9010 H   0  0  0  0  0  0  0  0  0  0  0  0
   -8.4820   -2.3500  -23.5930 H   0  0  0  0  0  0  0  0  0  0  0  0
   -6.5260   -3.5580  -24.6720 H   0  0  0  0  0  0  0  0  0  0  0  0
   -4.2410   -3.0060  -25.8400 H   0  0  0  0  0  0  0  0  0  0  0  0
   -6.4980    1.7360  -26.0530 H   0  0  0  0  0  0  0  0  0  0  0  0
   -6.5020    1.6380  -24.3100 H   0  0  0  0  0  0  0  0  0  0  0  0
   -8.7210    2.3050  -25.4620 H   0  0  0  0  0  0  0  0  0  0  0  0
   -8.8580    0.6630  -25.9940 H   0  0  0  0  0  0  0  0  0  0  0  0
  -10.1640    0.8940  -23.9560 H   0  0  0  0  0  0  0  0  0  0  0  0
   -8.8630    1.7510  -23.1450 H   0  0  0  0  0  0  0  0  0  0  0  0
  1  2  2  0  0  0  0
  2  3  1  0  0  0  0
  2 22  1  0  0  0  0
  3  4  1  0  0  0  0
  3 20  1  0  0  0  0
  3 21  1  0  0  0  0
  4  5  2  0  0  0  0
  4 13  1  0  0  0  0
  5  6  1  0  0  0  0
  5 19  1  0  0  0  0
  6  7  2  0  0  0  0
  7  8  1  0  0  0  0
  7 18  1  0  0  0  0
  8  9  2  0  0  0  0
  8 13  1  0  0  0  0
  9 10  1  0  0  0  0
  9 17  1  0  0  0  0
 10 11  2  0  0  0  0
 10 16  1  0  0  0  0
 11 12  1  0  0  0  0
 11 15  1  0  0  0  0
 12 13  2  0  0  0  0
 12 14  1  0  0  0  0
 22 23  1  0  0  0  0
 22 31  1  0  0  0  0
 23 24  1  0  0  0  0
 23 40  1  0  0  0  0
 23 41  1  0  0  0  0
 24 25  1  0  0  0  0
 24 38  1  0  0  0  0
 24 39  1  0  0  0  0
 25 26  1  0  0  0  0
 25 36  1  0  0  0  0
 25 37  1  0  0  0  0
 26 27  1  0  0  0  0
 26 30  2  0  0  0  0
 27 28  1  0  0  0  0
 28 29  2  0  0  0  0
 28 35  1  0  0  0  0
 29 30  1  0  0  0  0
 29 34  1  0  0  0  0
 30 31  1  0  0  0  0
 31 32  1  0  0  0  0
 31 33  1  0  0  0  0
M  END
>  <MODEL>
       1

$$$$
