tmp_first_model_6_27.pdb
 OpenBabel08272519583D

 58 62  0  0  1  0  0  0  0  0999 V2000
   -7.0430    3.5760  -22.0940 C   0  0  0  0  0  0  0  0  0  0  0  0
   -7.2840    2.5330  -23.0940 N   0  3  0  0  0  0  0  0  0  0  0  0
   -8.4380    2.8270  -23.9880 C   0  0  0  0  0  0  0  0  0  0  0  0
   -8.7140    1.6730  -24.9440 C   0  0  0  0  0  0  0  0  0  0  0  0
   -9.3760    0.5320  -24.3240 N   0  0  0  0  0  0  0  0  0  0  0  0
   -8.6720   -0.7300  -24.1920 C   0  0  0  0  0  0  0  0  0  0  0  0
   -9.0670   -1.4880  -22.9010 C   0  0  2  0  0  0  0  0  0  0  0  0
   -8.5300   -0.7300  -21.6570 C   0  0  0  0  0  0  0  0  0  0  0  0
   -8.9690    0.2940  -21.1750 O   0  0  0  0  0  0  0  0  0  0  0  0
   -7.4170   -1.3870  -21.1880 N   0  0  0  0  0  0  0  0  0  0  0  0
   -6.6090   -0.8050  -20.1700 C   0  0  0  0  0  0  0  0  0  0  0  0
   -6.9090   -1.0450  -18.8570 C   0  0  0  0  0  0  0  0  0  0  0  0
   -6.1990   -0.5610  -17.8090 N   0  0  0  0  0  0  0  0  0  0  0  0
   -5.1690    0.2040  -18.0800 C   0  0  0  0  0  0  0  0  0  0  0  0
   -4.7450    0.5450  -19.3960 C   0  0  0  0  0  0  0  0  0  0  0  0
   -3.6180    1.3810  -19.6350 C   0  0  0  0  0  0  0  0  0  0  0  0
   -3.2450    1.7000  -20.9120 C   0  0  0  0  0  0  0  0  0  0  0  0
   -3.9840    1.1990  -22.0030 C   0  0  0  0  0  0  0  0  0  0  0  0
   -5.0720    0.3800  -21.8000 C   0  0  0  0  0  0  0  0  0  0  0  0
   -5.4910    0.0310  -20.4860 C   0  0  0  0  0  0  0  0  0  0  0  0
   -5.5700   -0.0630  -22.6580 H   0  0  0  0  0  0  0  0  0  0  0  0
   -3.6650    1.4120  -23.0210 H   0  0  0  0  0  0  0  0  0  0  0  0
   -2.3730    2.3230  -21.0940 H   0  0  0  0  0  0  0  0  0  0  0  0
   -3.0750    1.7660  -18.7760 H   0  0  0  0  0  0  0  0  0  0  0  0
   -4.6220    0.6090  -17.2280 H   0  0  0  0  0  0  0  0  0  0  0  0
   -7.7610   -1.6700  -18.6000 H   0  0  0  0  0  0  0  0  0  0  0  0
   -7.0540   -2.5670  -21.9500 C   0  0  0  0  0  0  0  0  0  0  0  0
   -8.3110   -2.8540  -22.8020 C   0  0  2  0  0  0  0  0  0  0  0  0
   -7.9700   -3.5640  -24.1210 C   0  0  0  0  0  0  0  0  0  0  0  0
   -7.5150   -4.5450  -23.9350 H   0  0  0  0  0  0  0  0  0  0  0  0
   -8.8570   -3.7220  -24.7480 H   0  0  0  0  0  0  0  0  0  0  0  0
   -7.2500   -2.9800  -24.7100 H   0  0  0  0  0  0  0  0  0  0  0  0
   -8.9580   -3.5110  -22.2150 H   0  0  0  0  0  0  0  0  0  0  0  0
   -6.8000   -3.3940  -21.2750 H   0  0  0  0  0  0  0  0  0  0  0  0
   -6.1710   -2.3850  -22.5850 H   0  0  0  0  0  0  0  0  0  0  0  0
  -10.5840   -1.5560  -22.8460 C   0  0  0  0  0  0  0  0  0  0  0  0
  -11.2340   -2.4950  -22.0340 C   0  0  0  0  0  0  0  0  0  0  0  0
  -12.6080   -2.4550  -21.9320 C   0  0  0  0  0  0  0  0  0  0  0  0
  -13.2340   -3.2790  -21.0810 F   0  0  0  0  0  0  0  0  0  0  0  0
  -13.3870   -1.5570  -22.6480 C   0  0  0  0  0  0  0  0  0  0  0  0
  -12.7550   -0.5900  -23.4000 C   0  0  0  0  0  0  0  0  0  0  0  0
  -11.3620   -0.5650  -23.4690 C   0  0  0  0  0  0  0  0  0  0  0  0
  -10.7280    0.6030  -24.1640 C   0  0  0  0  0  0  0  0  0  0  0  0
  -11.3910    1.5610  -24.5460 O   0  0  0  0  0  0  0  0  0  0  0  0
  -13.3070    0.1960  -23.9070 H   0  0  0  0  0  0  0  0  0  0  0  0
  -14.4620   -1.6210  -22.5470 H   0  0  0  0  0  0  0  0  0  0  0  0
  -10.6960   -3.2250  -21.4410 H   0  0  0  0  0  0  0  0  0  0  0  0
   -8.8760   -1.3830  -25.0560 H   0  0  0  0  0  0  0  0  0  0  0  0
   -7.6010   -0.5070  -24.1580 H   0  0  0  0  0  0  0  0  0  0  0  0
   -7.7780    1.3120  -25.3850 H   0  0  0  0  0  0  0  0  0  0  0  0
   -9.3640    2.0520  -25.7300 H   0  0  0  0  0  0  0  0  0  0  0  0
   -9.3270    3.0120  -23.3760 H   0  0  0  0  0  0  0  0  0  0  0  0
   -8.2350    3.7330  -24.5680 H   0  0  0  0  0  0  0  0  0  0  0  0
   -6.4210    2.4040  -23.6750 H   0  0  0  0  0  0  0  0  0  0  0  0
   -7.4990    1.6390  -22.5990 H   0  0  0  0  0  0  0  0  0  0  0  0
   -6.1750    3.2990  -21.4960 H   0  0  0  0  0  0  0  0  0  0  0  0
   -7.9230    3.6790  -21.4510 H   0  0  0  0  0  0  0  0  0  0  0  0
   -6.8730    4.5490  -22.5680 H   0  0  0  0  0  0  0  0  0  0  0  0
  1  2  1  0  0  0  0
  1 56  1  0  0  0  0
  1 57  1  0  0  0  0
  1 58  1  0  0  0  0
  2  3  1  0  0  0  0
  2 54  1  0  0  0  0
  2 55  1  0  0  0  0
  3  4  1  0  0  0  0
  3 52  1  0  0  0  0
  3 53  1  0  0  0  0
  4  5  1  0  0  0  0
  4 50  1  0  0  0  0
  4 51  1  0  0  0  0
  5  6  1  0  0  0  0
  5 43  1  0  0  0  0
  6  7  1  0  0  0  0
  6 48  1  0  0  0  0
  6 49  1  0  0  0  0
  7  8  1  1  0  0  0
  7 28  1  0  0  0  0
  7 36  1  0  0  0  0
  8  9  2  0  0  0  0
  8 10  1  0  0  0  0
 10 11  1  0  0  0  0
 10 27  1  0  0  0  0
 11 12  2  0  0  0  0
 11 20  1  0  0  0  0
 12 13  1  0  0  0  0
 12 26  1  0  0  0  0
 13 14  2  0  0  0  0
 14 15  1  0  0  0  0
 14 25  1  0  0  0  0
 15 16  2  0  0  0  0
 15 20  1  0  0  0  0
 16 17  1  0  0  0  0
 16 24  1  0  0  0  0
 17 18  2  0  0  0  0
 17 23  1  0  0  0  0
 18 19  1  0  0  0  0
 18 22  1  0  0  0  0
 19 20  2  0  0  0  0
 19 21  1  0  0  0  0
 27 28  1  0  0  0  0
 27 34  1  0  0  0  0
 27 35  1  0  0  0  0
 28 29  1  0  0  0  0
 28 33  1  1  0  0  0
 29 30  1  0  0  0  0
 29 31  1  0  0  0  0
 29 32  1  0  0  0  0
 36 37  2  0  0  0  0
 36 42  1  0  0  0  0
 37 38  1  0  0  0  0
 37 47  1  0  0  0  0
 38 39  1  0  0  0  0
 38 40  2  0  0  0  0
 40 41  1  0  0  0  0
 40 46  1  0  0  0  0
 41 42  2  0  0  0  0
 41 45  1  0  0  0  0
 42 43  1  0  0  0  0
 43 44  2  0  0  0  0
M  CHG  1   2   1
M  END
>  <MODEL>
       1

$$$$
