tmp_first_model_18_17.pdb
 OpenBabel08282502533D

 38 41  0  0  1  0  0  0  0  0999 V2000
   -9.3470   -4.9460  -25.6920 C   0  0  0  0  0  0  0  0  0  0  0  0
   -9.3480   -4.2000  -24.3560 C   0  0  2  0  0  0  0  0  0  0  0  0
  -10.3450   -3.0370  -24.3740 C   0  0  0  0  0  0  0  0  0  0  0  0
  -10.4130   -2.3420  -22.9980 C   0  0  0  0  0  0  0  0  0  0  0  0
   -9.0660   -2.0930  -22.4470 C   0  0  0  0  0  0  0  0  0  0  0  0
   -8.6360   -1.1880  -21.4140 C   0  0  0  0  0  0  0  0  0  0  0  0
   -9.1820   -0.2880  -20.8200 O   0  5  0  0  0  0  0  0  0  0  0  0
   -7.2800   -1.5120  -21.2020 N   0  0  0  0  0  0  0  0  0  0  0  0
   -6.5360   -0.8700  -20.1850 C   0  0  0  0  0  0  0  0  0  0  0  0
   -6.8850   -1.0590  -18.8700 C   0  0  0  0  0  0  0  0  0  0  0  0
   -6.1990   -0.5480  -17.8210 N   0  0  0  0  0  0  0  0  0  0  0  0
   -5.1630    0.2120  -18.0770 C   0  0  0  0  0  0  0  0  0  0  0  0
   -4.7270    0.5350  -19.3930 C   0  0  0  0  0  0  0  0  0  0  0  0
   -3.6010    1.3690  -19.6270 C   0  0  0  0  0  0  0  0  0  0  0  0
   -3.2220    1.6710  -20.9060 C   0  0  0  0  0  0  0  0  0  0  0  0
   -3.9530    1.1610  -22.0020 C   0  0  0  0  0  0  0  0  0  0  0  0
   -5.0450    0.3550  -21.8010 C   0  0  0  0  0  0  0  0  0  0  0  0
   -5.4450    0.0030  -20.4850 C   0  0  0  0  0  0  0  0  0  0  0  0
   -5.6000   -0.0330  -22.6480 H   0  0  0  0  0  0  0  0  0  0  0  0
   -3.6510    1.4070  -23.0160 H   0  0  0  0  0  0  0  0  0  0  0  0
   -2.3660    2.3160  -21.0910 H   0  0  0  0  0  0  0  0  0  0  0  0
   -3.0650    1.7680  -18.7710 H   0  0  0  0  0  0  0  0  0  0  0  0
   -4.6170    0.6170  -17.2250 H   0  0  0  0  0  0  0  0  0  0  0  0
   -7.7410   -1.6710  -18.5970 H   0  0  0  0  0  0  0  0  0  0  0  0
   -6.8350   -2.4550  -22.1310 C   0  0  0  0  0  0  0  0  0  0  0  0
   -5.7100   -2.8760  -22.2640 O   0  0  0  0  0  0  0  0  0  0  0  0
   -7.9720   -2.7850  -22.8630 N   0  0  0  0  0  0  0  0  0  0  0  0
   -7.9460   -3.6850  -24.0120 C   0  0  0  0  0  0  0  0  0  0  0  0
   -7.2730   -4.4990  -23.7500 H   0  0  0  0  0  0  0  0  0  0  0  0
   -7.5110   -3.1700  -24.8790 H   0  0  0  0  0  0  0  0  0  0  0  0
  -10.9670   -1.4010  -23.0750 H   0  0  0  0  0  0  0  0  0  0  0  0
  -11.0060   -2.9650  -22.3090 H   0  0  0  0  0  0  0  0  0  0  0  0
  -10.0280   -2.3160  -25.1420 H   0  0  0  0  0  0  0  0  0  0  0  0
  -11.3380   -3.4080  -24.6780 H   0  0  0  0  0  0  0  0  0  0  0  0
   -9.6540   -4.9020  -23.5660 H   0  0  0  0  0  0  0  0  0  0  0  0
  -10.3430   -5.3460  -25.9200 H   0  0  0  0  0  0  0  0  0  0  0  0
   -8.6450   -5.7890  -25.6910 H   0  0  0  0  0  0  0  0  0  0  0  0
   -9.0700   -4.2790  -26.5190 H   0  0  0  0  0  0  0  0  0  0  0  0
  1  2  1  0  0  0  0
  1 36  1  0  0  0  0
  1 37  1  0  0  0  0
  1 38  1  0  0  0  0
  2  3  1  0  0  0  0
  2 28  1  0  0  0  0
  2 35  1  1  0  0  0
  3  4  1  0  0  0  0
  3 33  1  0  0  0  0
  3 34  1  0  0  0  0
  4  5  1  0  0  0  0
  4 31  1  0  0  0  0
  4 32  1  0  0  0  0
  5  6  2  0  0  0  0
  5 27  1  0  0  0  0
  6  7  1  0  0  0  0
  6  8  1  0  0  0  0
  8  9  1  0  0  0  0
  8 25  1  0  0  0  0
  9 10  2  0  0  0  0
  9 18  1  0  0  0  0
 10 11  1  0  0  0  0
 10 24  1  0  0  0  0
 11 12  2  0  0  0  0
 12 13  1  0  0  0  0
 12 23  1  0  0  0  0
 13 14  2  0  0  0  0
 13 18  1  0  0  0  0
 14 15  1  0  0  0  0
 14 22  1  0  0  0  0
 15 16  2  0  0  0  0
 15 21  1  0  0  0  0
 16 17  1  0  0  0  0
 16 20  1  0  0  0  0
 17 18  2  0  0  0  0
 17 19  1  0  0  0  0
 25 26  2  0  0  0  0
 25 27  1  0  0  0  0
 27 28  1  0  0  0  0
 28 29  1  0  0  0  0
 28 30  1  0  0  0  0
M  CHG  1   7  -1
M  END
>  <MODEL>
       1

$$$$
