tmp_first_model_20_41.pdb
 OpenBabel08282503553D

 67 71  0  0  1  0  0  0  0  0999 V2000
   -7.7710    2.9200  -22.0650 C   0  0  0  0  0  0  0  0  0  0  0  0
   -8.8770    2.3500  -22.7930 N   0  0  0  0  0  0  0  0  0  0  0  0
   -8.5860    1.6090  -23.8950 C   0  0  0  0  0  0  0  0  0  0  0  0
   -7.4360    1.3540  -24.2380 O   0  0  0  0  0  0  0  0  0  0  0  0
   -9.7790    1.0660  -24.6720 C   0  0  0  0  0  0  0  0  0  0  0  0
  -10.2200   -0.1700  -24.0470 N   0  0  0  0  0  0  0  0  0  0  0  0
   -9.2710   -1.2700  -23.9280 C   0  0  0  0  0  0  0  0  0  0  0  0
   -9.3340   -1.9790  -22.5380 C   0  0  2  0  0  0  0  0  0  0  0  0
   -8.7380   -1.0330  -21.4600 C   0  0  0  0  0  0  0  0  0  0  0  0
   -9.2880   -0.0790  -20.9440 O   0  0  0  0  0  0  0  0  0  0  0  0
   -7.4400   -1.4280  -21.1890 N   0  0  0  0  0  0  0  0  0  0  0  0
   -6.6660   -0.8260  -20.1640 C   0  0  0  0  0  0  0  0  0  0  0  0
   -6.9820   -1.0370  -18.8430 C   0  0  0  0  0  0  0  0  0  0  0  0
   -6.2670   -0.5500  -17.7970 N   0  0  0  0  0  0  0  0  0  0  0  0
   -5.2080    0.1720  -18.0750 C   0  0  0  0  0  0  0  0  0  0  0  0
   -4.7700    0.4790  -19.3950 C   0  0  0  0  0  0  0  0  0  0  0  0
   -3.6350    1.2980  -19.6400 C   0  0  0  0  0  0  0  0  0  0  0  0
   -3.2690    1.6100  -20.9210 C   0  0  0  0  0  0  0  0  0  0  0  0
   -4.0200    1.1250  -22.0140 C   0  0  0  0  0  0  0  0  0  0  0  0
   -5.1290    0.3360  -21.8030 C   0  0  0  0  0  0  0  0  0  0  0  0
   -5.5230   -0.0230  -20.4840 C   0  0  0  0  0  0  0  0  0  0  0  0
   -5.7520    0.0540  -22.6480 H   0  0  0  0  0  0  0  0  0  0  0  0
   -3.7410    1.4020  -23.0260 H   0  0  0  0  0  0  0  0  0  0  0  0
   -2.4150    2.2560  -21.1060 H   0  0  0  0  0  0  0  0  0  0  0  0
   -3.0850    1.6840  -18.7860 H   0  0  0  0  0  0  0  0  0  0  0  0
   -4.6370    0.5690  -17.2330 H   0  0  0  0  0  0  0  0  0  0  0  0
   -7.8490   -1.6400  -18.5820 H   0  0  0  0  0  0  0  0  0  0  0  0
   -6.9950   -2.5580  -21.9800 C   0  0  0  0  0  0  0  0  0  0  0  0
   -8.3290   -3.1630  -22.4530 C   0  0  2  0  0  0  0  0  0  0  0  0
   -8.2430   -3.9740  -23.7400 C   0  0  0  0  0  0  0  0  0  0  0  0
   -7.2740   -5.4600  -23.5420 S   0  0  0  0  0  0  0  0  0  0  0  0
   -5.8780   -5.0690  -23.4090 O   0  0  0  0  0  0  0  0  0  0  0  0
   -7.9240   -6.2870  -22.5360 O   0  0  0  0  0  0  0  0  0  0  0  0
   -7.4370   -6.2260  -25.0010 N   0  0  0  0  0  0  0  0  0  0  0  0
   -8.6710   -6.9520  -25.2490 C   0  0  0  0  0  0  0  0  0  0  0  0
   -9.5180   -6.3100  -25.5330 H   0  0  0  0  0  0  0  0  0  0  0  0
   -8.4900   -7.6770  -26.0450 H   0  0  0  0  0  0  0  0  0  0  0  0
   -8.9360   -7.4940  -24.3420 H   0  0  0  0  0  0  0  0  0  0  0  0
   -6.7420   -5.6550  -26.1420 C   0  0  0  0  0  0  0  0  0  0  0  0
   -7.2600   -4.7970  -26.5950 H   0  0  0  0  0  0  0  0  0  0  0  0
   -6.6200   -6.4340  -26.8970 H   0  0  0  0  0  0  0  0  0  0  0  0
   -5.7510   -5.3320  -25.8220 H   0  0  0  0  0  0  0  0  0  0  0  0
   -9.2490   -4.2770  -24.0540 H   0  0  0  0  0  0  0  0  0  0  0  0
   -7.7610   -3.3860  -24.5310 H   0  0  0  0  0  0  0  0  0  0  0  0
   -8.6550   -3.8170  -21.6410 H   0  0  0  0  0  0  0  0  0  0  0  0
   -6.3670   -2.2340  -22.8220 H   0  0  0  0  0  0  0  0  0  0  0  0
   -6.4040   -3.2660  -21.3910 H   0  0  0  0  0  0  0  0  0  0  0  0
  -10.8040   -2.3230  -22.2880 C   0  0  0  0  0  0  0  0  0  0  0  0
  -11.2370   -3.4600  -21.5900 C   0  0  0  0  0  0  0  0  0  0  0  0
  -12.5640   -3.5590  -21.2030 C   0  0  0  0  0  0  0  0  0  0  0  0
  -12.9430   -4.5140  -20.3360 F   0  0  0  0  0  0  0  0  0  0  0  0
  -13.5400   -2.6610  -21.6100 C   0  0  0  0  0  0  0  0  0  0  0  0
  -13.1450   -1.5980  -22.3880 C   0  0  0  0  0  0  0  0  0  0  0  0
  -11.7980   -1.4190  -22.7000 C   0  0  0  0  0  0  0  0  0  0  0  0
  -11.4620   -0.2000  -23.4920 C   0  0  0  0  0  0  0  0  0  0  0  0
  -12.2700    0.7160  -23.6290 O   0  0  0  0  0  0  0  0  0  0  0  0
  -13.8540   -0.8640  -22.7590 H   0  0  0  0  0  0  0  0  0  0  0  0
  -14.5690   -2.8040  -21.3060 H   0  0  0  0  0  0  0  0  0  0  0  0
  -10.5510   -4.2390  -21.2870 H   0  0  0  0  0  0  0  0  0  0  0  0
   -9.4800   -1.9970  -24.7220 H   0  0  0  0  0  0  0  0  0  0  0  0
   -8.2740   -0.8530  -24.1000 H   0  0  0  0  0  0  0  0  0  0  0  0
   -9.5110    0.9150  -25.7300 H   0  0  0  0  0  0  0  0  0  0  0  0
  -10.6280    1.7480  -24.6180 H   0  0  0  0  0  0  0  0  0  0  0  0
   -9.7080    2.1290  -22.2630 H   0  0  0  0  0  0  0  0  0  0  0  0
   -8.0980    3.3010  -21.0960 H   0  0  0  0  0  0  0  0  0  0  0  0
   -6.9960    2.1730  -21.8780 H   0  0  0  0  0  0  0  0  0  0  0  0
   -7.3020    3.7210  -22.6470 H   0  0  0  0  0  0  0  0  0  0  0  0
  1  2  1  0  0  0  0
  1 65  1  0  0  0  0
  1 66  1  0  0  0  0
  1 67  1  0  0  0  0
  2  3  1  0  0  0  0
  2 64  1  0  0  0  0
  3  4  2  0  0  0  0
  3  5  1  0  0  0  0
  5  6  1  0  0  0  0
  5 62  1  0  0  0  0
  5 63  1  0  0  0  0
  6  7  1  0  0  0  0
  6 55  1  0  0  0  0
  7  8  1  0  0  0  0
  7 60  1  0  0  0  0
  7 61  1  0  0  0  0
  8  9  1  1  0  0  0
  8 29  1  0  0  0  0
  8 48  1  0  0  0  0
  9 10  2  0  0  0  0
  9 11  1  0  0  0  0
 11 12  1  0  0  0  0
 11 28  1  0  0  0  0
 12 13  2  0  0  0  0
 12 21  1  0  0  0  0
 13 14  1  0  0  0  0
 13 27  1  0  0  0  0
 14 15  2  0  0  0  0
 15 16  1  0  0  0  0
 15 26  1  0  0  0  0
 16 17  2  0  0  0  0
 16 21  1  0  0  0  0
 17 18  1  0  0  0  0
 17 25  1  0  0  0  0
 18 19  2  0  0  0  0
 18 24  1  0  0  0  0
 19 20  1  0  0  0  0
 19 23  1  0  0  0  0
 20 21  2  0  0  0  0
 20 22  1  0  0  0  0
 28 29  1  0  0  0  0
 28 46  1  0  0  0  0
 28 47  1  0  0  0  0
 29 30  1  0  0  0  0
 29 45  1  1  0  0  0
 30 31  1  0  0  0  0
 30 43  1  0  0  0  0
 30 44  1  0  0  0  0
 31 32  2  0  0  0  0
 31 33  2  0  0  0  0
 31 34  1  0  0  0  0
 34 35  1  0  0  0  0
 34 39  1  0  0  0  0
 35 36  1  0  0  0  0
 35 37  1  0  0  0  0
 35 38  1  0  0  0  0
 39 40  1  0  0  0  0
 39 41  1  0  0  0  0
 39 42  1  0  0  0  0
 48 49  2  0  0  0  0
 48 54  1  0  0  0  0
 49 50  1  0  0  0  0
 49 59  1  0  0  0  0
 50 51  1  0  0  0  0
 50 52  2  0  0  0  0
 52 53  1  0  0  0  0
 52 58  1  0  0  0  0
 53 54  2  0  0  0  0
 53 57  1  0  0  0  0
 54 55  1  0  0  0  0
 55 56  2  0  0  0  0
M  END
>  <MODEL>
       1

$$$$
