tmp_first_model_12_36.pdb
 OpenBabel08272523333D

 47 50  0  0  1  0  0  0  0  0999 V2000
   -5.7720   -3.2730  -21.1960 O   0  0  0  0  0  0  0  0  0  0  0  0
   -6.4930   -2.5690  -21.8830 C   0  0  0  0  0  0  0  0  0  0  0  0
   -7.3740   -1.4830  -21.2620 C   0  0  0  0  0  0  0  0  0  0  0  0
   -6.6330   -0.7680  -20.1650 C   0  0  0  0  0  0  0  0  0  0  0  0
   -6.9000   -1.0530  -18.8530 C   0  0  0  0  0  0  0  0  0  0  0  0
   -6.2100   -0.5800  -17.7830 N   0  0  0  0  0  0  0  0  0  0  0  0
   -5.2090    0.2300  -18.0400 C   0  0  0  0  0  0  0  0  0  0  0  0
   -4.8150    0.6160  -19.3500 C   0  0  0  0  0  0  0  0  0  0  0  0
   -3.6610    1.4050  -19.5780 C   0  0  0  0  0  0  0  0  0  0  0  0
   -3.3050    1.7750  -20.8480 C   0  0  0  0  0  0  0  0  0  0  0  0
   -4.1040    1.3790  -21.9440 C   0  0  0  0  0  0  0  0  0  0  0  0
   -5.1940    0.5630  -21.7600 C   0  0  0  0  0  0  0  0  0  0  0  0
   -5.5590    0.1260  -20.4560 C   0  0  0  0  0  0  0  0  0  0  0  0
   -5.7810    0.2550  -22.6250 H   0  0  0  0  0  0  0  0  0  0  0  0
   -3.8490    1.7350  -22.9420 H   0  0  0  0  0  0  0  0  0  0  0  0
   -2.4210    2.3870  -21.0170 H   0  0  0  0  0  0  0  0  0  0  0  0
   -3.0680    1.7100  -18.7180 H   0  0  0  0  0  0  0  0  0  0  0  0
   -4.6260    0.5920  -17.1900 H   0  0  0  0  0  0  0  0  0  0  0  0
   -7.7220   -1.7260  -18.6110 H   0  0  0  0  0  0  0  0  0  0  0  0
   -8.2710   -1.9780  -20.8610 H   0  0  0  0  0  0  0  0  0  0  0  0
   -7.6900   -0.7810  -22.0410 H   0  0  0  0  0  0  0  0  0  0  0  0
   -6.5190   -2.6820  -23.2590 N   0  0  0  0  0  0  0  0  0  0  0  0
   -5.3620   -3.2960  -23.8840 C   0  0  0  0  0  0  0  0  0  0  0  0
   -4.8320   -2.3610  -24.9580 C   0  0  0  0  0  0  0  0  0  0  0  0
   -5.9310   -2.0720  -25.9780 C   0  0  0  0  0  0  0  0  0  0  0  0
   -7.2070   -1.5660  -25.2920 C   0  0  0  0  0  0  0  0  0  0  0  0
   -7.6650   -2.4870  -24.1530 C   0  0  1  0  0  0  0  0  0  0  0  0
   -8.2660   -3.8160  -24.6460 C   0  0  0  0  0  0  0  0  0  0  0  0
   -8.5250   -4.8340  -23.7220 C   0  0  0  0  0  0  0  0  0  0  0  0
   -9.0900   -6.0410  -24.1200 C   0  0  0  0  0  0  0  0  0  0  0  0
   -9.4340   -6.2570  -25.4500 C   0  0  0  0  0  0  0  0  0  0  0  0
   -9.1870   -5.2560  -26.3790 C   0  0  0  0  0  0  0  0  0  0  0  0
   -8.6070   -4.0540  -25.9830 C   0  0  0  0  0  0  0  0  0  0  0  0
   -8.4160   -3.3150  -26.7550 H   0  0  0  0  0  0  0  0  0  0  0  0
   -9.4560   -5.4010  -27.4220 H   0  0  0  0  0  0  0  0  0  0  0  0
   -9.8950   -7.1900  -25.7610 H   0  0  0  0  0  0  0  0  0  0  0  0
   -9.2750   -6.8140  -23.3820 H   0  0  0  0  0  0  0  0  0  0  0  0
   -8.2870   -4.6980  -22.6710 H   0  0  0  0  0  0  0  0  0  0  0  0
   -8.4510   -1.9900  -23.5690 H   0  0  0  0  0  0  0  0  0  0  0  0
   -8.0230   -1.4090  -26.0050 H   0  0  0  0  0  0  0  0  0  0  0  0
   -7.0070   -0.5750  -24.8690 H   0  0  0  0  0  0  0  0  0  0  0  0
   -6.1380   -2.9930  -26.5360 H   0  0  0  0  0  0  0  0  0  0  0  0
   -5.5890   -1.3380  -26.7170 H   0  0  0  0  0  0  0  0  0  0  0  0
   -4.5220   -1.4250  -24.4820 H   0  0  0  0  0  0  0  0  0  0  0  0
   -3.9320   -2.7750  -25.4250 H   0  0  0  0  0  0  0  0  0  0  0  0
   -5.6560   -4.2640  -24.3080 H   0  0  0  0  0  0  0  0  0  0  0  0
   -4.6390   -3.4900  -23.0920 H   0  0  0  0  0  0  0  0  0  0  0  0
  1  2  2  0  0  0  0
  2  3  1  0  0  0  0
  2 22  1  0  0  0  0
  3  4  1  0  0  0  0
  3 20  1  0  0  0  0
  3 21  1  0  0  0  0
  4  5  2  0  0  0  0
  4 13  1  0  0  0  0
  5  6  1  0  0  0  0
  5 19  1  0  0  0  0
  6  7  2  0  0  0  0
  7  8  1  0  0  0  0
  7 18  1  0  0  0  0
  8  9  2  0  0  0  0
  8 13  1  0  0  0  0
  9 10  1  0  0  0  0
  9 17  1  0  0  0  0
 10 11  2  0  0  0  0
 10 16  1  0  0  0  0
 11 12  1  0  0  0  0
 11 15  1  0  0  0  0
 12 13  2  0  0  0  0
 12 14  1  0  0  0  0
 22 23  1  0  0  0  0
 22 27  1  0  0  0  0
 23 24  1  0  0  0  0
 23 46  1  0  0  0  0
 23 47  1  0  0  0  0
 24 25  1  0  0  0  0
 24 44  1  0  0  0  0
 24 45  1  0  0  0  0
 25 26  1  0  0  0  0
 25 42  1  0  0  0  0
 25 43  1  0  0  0  0
 26 27  1  0  0  0  0
 26 40  1  0  0  0  0
 26 41  1  0  0  0  0
 27 28  1  0  0  0  0
 27 39  1  1  0  0  0
 28 29  2  0  0  0  0
 28 33  1  0  0  0  0
 29 30  1  0  0  0  0
 29 38  1  0  0  0  0
 30 31  2  0  0  0  0
 30 37  1  0  0  0  0
 31 32  1  0  0  0  0
 31 36  1  0  0  0  0
 32 33  2  0  0  0  0
 32 35  1  0  0  0  0
 33 34  1  0  0  0  0
M  END
>  <MODEL>
       1

$$$$
