tmp_first_model_13_84.pdb
 OpenBabel08282500103D

 63 68  0  0  1  0  0  0  0  0999 V2000
   -7.4540   -3.5270  -23.6080 C   0  0  0  0  0  0  0  0  0  0  0  0
   -8.4540   -2.9480  -22.5990 C   0  0  1  0  0  0  0  0  0  0  0  0
   -7.7990   -2.7580  -21.2180 C   0  0  0  0  0  0  0  0  0  0  0  0
   -7.3750   -1.3700  -21.2320 N   0  0  0  0  0  0  0  0  0  0  0  0
   -6.5660   -0.8100  -20.2110 C   0  0  0  0  0  0  0  0  0  0  0  0
   -6.8670   -1.0550  -18.8940 C   0  0  0  0  0  0  0  0  0  0  0  0
   -6.1940   -0.5420  -17.8380 N   0  0  0  0  0  0  0  0  0  0  0  0
   -5.1700    0.2310  -18.0910 C   0  0  0  0  0  0  0  0  0  0  0  0
   -4.7170    0.5390  -19.4040 C   0  0  0  0  0  0  0  0  0  0  0  0
   -3.5870    1.3730  -19.6060 C   0  0  0  0  0  0  0  0  0  0  0  0
   -3.1370    1.6330  -20.8710 C   0  0  0  0  0  0  0  0  0  0  0  0
   -3.7980    1.0670  -21.9830 C   0  0  0  0  0  0  0  0  0  0  0  0
   -4.9030    0.2680  -21.8120 C   0  0  0  0  0  0  0  0  0  0  0  0
   -5.4100   -0.0060  -20.5090 C   0  0  0  0  0  0  0  0  0  0  0  0
   -5.3930   -0.1580  -22.6820 H   0  0  0  0  0  0  0  0  0  0  0  0
   -3.4300    1.2690  -22.9850 H   0  0  0  0  0  0  0  0  0  0  0  0
   -2.2750    2.2770  -21.0270 H   0  0  0  0  0  0  0  0  0  0  0  0
   -3.0980    1.7980  -18.7340 H   0  0  0  0  0  0  0  0  0  0  0  0
   -4.6350    0.6490  -17.2380 H   0  0  0  0  0  0  0  0  0  0  0  0
   -7.7200   -1.6820  -18.6400 H   0  0  0  0  0  0  0  0  0  0  0  0
   -8.2390   -0.5990  -21.9940 C   0  0  0  0  0  0  0  0  0  0  0  0
   -8.3200    0.6070  -21.9320 O   0  0  0  0  0  0  0  0  0  0  0  0
   -9.0370   -1.5400  -22.9420 C   0  0  1  0  0  0  0  0  0  0  0  0
   -8.7500   -1.1040  -24.3990 C   0  0  0  0  0  0  0  0  0  0  0  0
   -9.3320    0.1870  -24.7190 N   0  0  0  0  0  0  0  0  0  0  0  0
   -8.6470    1.0400  -25.6690 C   0  0  0  0  0  0  0  0  0  0  0  0
   -8.8110    0.5400  -27.1170 C   0  0  0  0  0  0  0  0  0  0  0  0
   -9.8620    0.7140  -27.7130 O   0  0  0  0  0  0  0  0  0  0  0  0
   -7.7240   -0.0960  -27.6370 N   0  0  0  0  0  0  0  0  0  0  0  0
   -7.7990   -0.6090  -29.0500 C   0  0  0  0  0  0  0  0  0  0  0  0
   -7.4570   -2.0610  -29.2490 C   0  0  0  0  0  0  0  0  0  0  0  0
   -5.5410   -0.8330  -28.5830 F   0  0  0  0  0  0  0  0  0  0  0  0
   -7.1940   -2.9070  -28.2750 C   0  0  0  0  0  0  0  0  0  0  0  0
   -7.8210   -2.2040  -29.4410 C   0  0  0  0  0  0  0  0  0  0  0  0
   -8.8980   -2.5450  -29.6920 H   0  0  0  0  0  0  0  0  0  0  0  0
   -7.0700   -2.4310  -30.8380 H   0  0  0  0  0  0  0  0  0  0  0  0
   -8.0320   -3.1850  -27.6500 H   0  0  0  0  0  0  0  0  0  0  0  0
   -6.1360   -2.8880  -27.9490 H   0  0  0  0  0  0  0  0  0  0  0  0
   -8.8260   -0.2490  -29.3120 H   0  0  0  0  0  0  0  0  0  0  0  0
   -7.0350    0.0050  -29.5390 H   0  0  0  0  0  0  0  0  0  0  0  0
   -6.8180    0.1460  -27.2320 H   0  0  0  0  0  0  0  0  0  0  0  0
   -7.5880    1.1130  -25.3850 H   0  0  0  0  0  0  0  0  0  0  0  0
   -9.1150    2.0250  -25.5940 H   0  0  0  0  0  0  0  0  0  0  0  0
  -10.5870    0.5440  -24.3170 C   0  0  0  0  0  0  0  0  0  0  0  0
  -11.1330    1.5760  -24.6880 O   0  0  0  0  0  0  0  0  0  0  0  0
  -11.2640   -0.4120  -23.3880 C   0  0  0  0  0  0  0  0  0  0  0  0
  -12.6340   -0.2420  -23.1930 C   0  0  0  0  0  0  0  0  0  0  0  0
  -13.3410   -1.0980  -22.3740 C   0  0  0  0  0  0  0  0  0  0  0  0
  -12.6360   -2.1260  -21.7600 C   0  0  0  0  0  0  0  0  0  0  0  0
  -13.3130   -2.9750  -20.9640 F   0  0  0  0  0  0  0  0  0  0  0  0
  -11.2750   -2.3050  -21.9170 C   0  0  0  0  0  0  0  0  0  0  0  0
  -10.5490   -1.4330  -22.7430 C   0  0  0  0  0  0  0  0  0  0  0  0
  -10.8130   -3.1300  -21.3880 H   0  0  0  0  0  0  0  0  0  0  0  0
  -14.4050   -0.9870  -22.1940 H   0  0  0  0  0  0  0  0  0  0  0  0
  -13.1250    0.5760  -23.7070 H   0  0  0  0  0  0  0  0  0  0  0  0
   -9.1390   -1.8740  -25.0760 H   0  0  0  0  0  0  0  0  0  0  0  0
   -7.6720   -1.0160  -24.5280 H   0  0  0  0  0  0  0  0  0  0  0  0
   -6.9400   -3.4150  -21.0550 H   0  0  0  0  0  0  0  0  0  0  0  0
   -8.5370   -2.9350  -20.4200 H   0  0  0  0  0  0  0  0  0  0  0  0
   -9.2650   -3.6750  -22.5390 H   0  0  0  0  0  0  0  0  0  0  0  0
   -6.5980   -2.8640  -23.7720 H   0  0  0  0  0  0  0  0  0  0  0  0
   -7.9340   -3.7150  -24.5740 H   0  0  0  0  0  0  0  0  0  0  0  0
   -7.0650   -4.4860  -23.2490 H   0  0  0  0  0  0  0  0  0  0  0  0
  1  2  1  0  0  0  0
  1 61  1  0  0  0  0
  1 62  1  0  0  0  0
  1 63  1  0  0  0  0
  2  3  1  0  0  0  0
  2 23  1  0  0  0  0
  2 60  1  1  0  0  0
  3  4  1  0  0  0  0
  3 58  1  0  0  0  0
  3 59  1  0  0  0  0
  4  5  1  0  0  0  0
  4 21  1  0  0  0  0
  5  6  2  0  0  0  0
  5 14  1  0  0  0  0
  6  7  1  0  0  0  0
  6 20  1  0  0  0  0
  7  8  2  0  0  0  0
  8  9  1  0  0  0  0
  8 19  1  0  0  0  0
  9 10  2  0  0  0  0
  9 14  1  0  0  0  0
 10 11  1  0  0  0  0
 10 18  1  0  0  0  0
 11 12  2  0  0  0  0
 11 17  1  0  0  0  0
 12 13  1  0  0  0  0
 12 16  1  0  0  0  0
 13 14  2  0  0  0  0
 13 15  1  0  0  0  0
 21 22  2  0  0  0  0
 23 21  1  1  0  0  0
 23 24  1  0  0  0  0
 23 52  1  0  0  0  0
 24 25  1  0  0  0  0
 24 56  1  0  0  0  0
 24 57  1  0  0  0  0
 25 26  1  0  0  0  0
 25 44  1  0  0  0  0
 26 27  1  0  0  0  0
 26 42  1  0  0  0  0
 26 43  1  0  0  0  0
 27 28  2  0  0  0  0
 27 29  1  0  0  0  0
 29 30  1  0  0  0  0
 29 41  1  0  0  0  0
 30 31  1  0  0  0  0
 30 39  1  0  0  0  0
 30 40  1  0  0  0  0
 31 32  1  0  0  0  0
 31 33  1  0  0  0  0
 31 34  1  0  0  0  0
 33 34  1  0  0  0  0
 33 37  1  0  0  0  0
 33 38  1  0  0  0  0
 34 35  1  0  0  0  0
 34 36  1  0  0  0  0
 44 45  2  0  0  0  0
 44 46  1  0  0  0  0
 46 47  2  0  0  0  0
 46 52  1  0  0  0  0
 47 48  1  0  0  0  0
 47 55  1  0  0  0  0
 48 49  2  0  0  0  0
 48 54  1  0  0  0  0
 49 50  1  0  0  0  0
 49 51  1  0  0  0  0
 51 52  2  0  0  0  0
 51 53  1  0  0  0  0
M  END
>  <MODEL>
       1

$$$$
