tmp_first_model_11_97.pdb
 OpenBabel08272522543D

 40 43  0  0  1  0  0  0  0  0999 V2000
  -10.3210   -3.4520  -25.1990 C   0  0  0  0  0  0  0  0  0  0  0  0
   -8.8620   -3.9300  -25.1060 C   0  0  2  0  0  0  0  0  0  0  0  0
   -8.7790   -5.3500  -24.5380 C   0  0  0  0  0  0  0  0  0  0  0  0
   -9.0520   -5.3700  -23.1520 O   0  0  0  0  0  0  0  0  0  0  0  0
   -8.0530   -4.6870  -22.4270 C   0  0  0  0  0  0  0  0  0  0  0  0
   -8.0170   -3.1880  -22.7570 C   0  0  1  0  0  0  0  0  0  0  0  0
   -7.9380   -2.9990  -24.2900 C   0  0  0  0  0  0  0  0  0  0  0  0
   -8.1860   -1.9530  -24.5060 H   0  0  0  0  0  0  0  0  0  0  0  0
   -6.8940   -3.1660  -24.5920 H   0  0  0  0  0  0  0  0  0  0  0  0
   -9.1240   -2.4610  -22.1560 N   0  0  0  0  0  0  0  0  0  0  0  0
   -8.7450   -1.3900  -21.3930 C   0  0  0  0  0  0  0  0  0  0  0  0
   -9.4280   -0.4850  -20.9910 O   0  0  0  0  0  0  0  0  0  0  0  0
   -7.3400   -1.5300  -21.2100 N   0  0  0  0  0  0  0  0  0  0  0  0
   -6.5850   -0.8640  -20.1920 C   0  0  0  0  0  0  0  0  0  0  0  0
   -6.9100   -1.0610  -18.8710 C   0  0  0  0  0  0  0  0  0  0  0  0
   -6.2180   -0.5430  -17.8270 N   0  0  0  0  0  0  0  0  0  0  0  0
   -5.1790    0.2070  -18.0980 C   0  0  0  0  0  0  0  0  0  0  0  0
   -4.7450    0.5200  -19.4130 C   0  0  0  0  0  0  0  0  0  0  0  0
   -3.6150    1.3520  -19.6400 C   0  0  0  0  0  0  0  0  0  0  0  0
   -3.2250    1.6560  -20.9130 C   0  0  0  0  0  0  0  0  0  0  0  0
   -3.9550    1.1420  -22.0090 C   0  0  0  0  0  0  0  0  0  0  0  0
   -5.0490    0.3340  -21.8140 C   0  0  0  0  0  0  0  0  0  0  0  0
   -5.4700   -0.0160  -20.5010 C   0  0  0  0  0  0  0  0  0  0  0  0
   -5.5960   -0.0550  -22.6670 H   0  0  0  0  0  0  0  0  0  0  0  0
   -3.6460    1.3940  -23.0170 H   0  0  0  0  0  0  0  0  0  0  0  0
   -2.3690    2.3040  -21.0900 H   0  0  0  0  0  0  0  0  0  0  0  0
   -3.0840    1.7560  -18.7820 H   0  0  0  0  0  0  0  0  0  0  0  0
   -4.6280    0.6090  -17.2480 H   0  0  0  0  0  0  0  0  0  0  0  0
   -7.7560   -1.6850  -18.5970 H   0  0  0  0  0  0  0  0  0  0  0  0
   -6.8280   -2.5280  -22.0440 C   0  0  0  0  0  0  0  0  0  0  0  0
   -5.6620   -2.8050  -22.2000 O   0  0  0  0  0  0  0  0  0  0  0  0
  -10.0890   -2.7300  -22.2720 H   0  0  0  0  0  0  0  0  0  0  0  0
   -7.0530   -5.1160  -22.6220 H   0  0  0  0  0  0  0  0  0  0  0  0
   -8.3160   -4.7790  -21.3720 H   0  0  0  0  0  0  0  0  0  0  0  0
   -9.5250   -6.0050  -25.0030 H   0  0  0  0  0  0  0  0  0  0  0  0
   -7.7700   -5.7630  -24.7180 H   0  0  0  0  0  0  0  0  0  0  0  0
   -8.4660   -3.9640  -26.1330 H   0  0  0  0  0  0  0  0  0  0  0  0
  -10.8550   -3.5830  -24.2500 H   0  0  0  0  0  0  0  0  0  0  0  0
  -10.3770   -2.3930  -25.4820 H   0  0  0  0  0  0  0  0  0  0  0  0
  -10.8600   -4.0320  -25.9610 H   0  0  0  0  0  0  0  0  0  0  0  0
  1  2  1  0  0  0  0
  1 38  1  0  0  0  0
  1 39  1  0  0  0  0
  1 40  1  0  0  0  0
  2  3  1  0  0  0  0
  2  7  1  0  0  0  0
  2 37  1  6  0  0  0
  3  4  1  0  0  0  0
  3 35  1  0  0  0  0
  3 36  1  0  0  0  0
  4  5  1  0  0  0  0
  5  6  1  0  0  0  0
  5 33  1  0  0  0  0
  5 34  1  0  0  0  0
  6  7  1  0  0  0  0
  6 10  1  0  0  0  0
  6 30  1  1  0  0  0
  7  8  1  0  0  0  0
  7  9  1  0  0  0  0
 10 11  1  0  0  0  0
 10 32  1  0  0  0  0
 11 12  2  0  0  0  0
 11 13  1  0  0  0  0
 13 14  1  0  0  0  0
 13 30  1  0  0  0  0
 14 15  2  0  0  0  0
 14 23  1  0  0  0  0
 15 16  1  0  0  0  0
 15 29  1  0  0  0  0
 16 17  2  0  0  0  0
 17 18  1  0  0  0  0
 17 28  1  0  0  0  0
 18 19  2  0  0  0  0
 18 23  1  0  0  0  0
 19 20  1  0  0  0  0
 19 27  1  0  0  0  0
 20 21  2  0  0  0  0
 20 26  1  0  0  0  0
 21 22  1  0  0  0  0
 21 25  1  0  0  0  0
 22 23  2  0  0  0  0
 22 24  1  0  0  0  0
 30 31  2  0  0  0  0
M  END
>  <MODEL>
       1

$$$$
