tmp_first_model_9_47.pdb
 OpenBabel08272521403D

 58 63  0  0  1  0  0  0  0  0999 V2000
   -8.5050    0.7140  -21.4030 O   0  0  0  0  0  0  0  0  0  0  0  0
   -8.4550   -0.4140  -21.8510 C   0  0  0  0  0  0  0  0  0  0  0  0
   -7.4450   -1.4290  -21.2630 C   0  0  0  0  0  0  0  0  0  0  0  0
   -6.5780   -0.8300  -20.1810 C   0  0  0  0  0  0  0  0  0  0  0  0
   -6.8760   -1.0390  -18.8610 C   0  0  0  0  0  0  0  0  0  0  0  0
   -6.1870   -0.5360  -17.8020 N   0  0  0  0  0  0  0  0  0  0  0  0
   -5.1550    0.2230  -18.0660 C   0  0  0  0  0  0  0  0  0  0  0  0
   -4.7230    0.5370  -19.3820 C   0  0  0  0  0  0  0  0  0  0  0  0
   -3.5980    1.3690  -19.6230 C   0  0  0  0  0  0  0  0  0  0  0  0
   -3.2130    1.6630  -20.9010 C   0  0  0  0  0  0  0  0  0  0  0  0
   -3.9380    1.1380  -21.9920 C   0  0  0  0  0  0  0  0  0  0  0  0
   -5.0270    0.3280  -21.7870 C   0  0  0  0  0  0  0  0  0  0  0  0
   -5.4540    0.0020  -20.4720 C   0  0  0  0  0  0  0  0  0  0  0  0
   -5.5740   -0.0610  -22.6410 H   0  0  0  0  0  0  0  0  0  0  0  0
   -3.6240    1.3750  -23.0050 H   0  0  0  0  0  0  0  0  0  0  0  0
   -2.3570    2.3080  -21.0860 H   0  0  0  0  0  0  0  0  0  0  0  0
   -3.0600    1.7790  -18.7710 H   0  0  0  0  0  0  0  0  0  0  0  0
   -4.6000    0.6290  -17.2160 H   0  0  0  0  0  0  0  0  0  0  0  0
   -7.7300   -1.6590  -18.5860 H   0  0  0  0  0  0  0  0  0  0  0  0
   -6.8290   -1.8590  -22.0640 H   0  0  0  0  0  0  0  0  0  0  0  0
   -8.0180   -2.2620  -20.8340 H   0  0  0  0  0  0  0  0  0  0  0  0
   -9.3040   -0.8270  -22.8740 N   0  0  0  0  0  0  0  0  0  0  0  0
   -9.2700   -2.1310  -23.5270 C   0  0  0  0  0  0  0  0  0  0  0  0
   -8.5440   -2.1610  -24.8620 C   0  0  0  0  0  0  0  0  0  0  0  0
   -7.4420   -1.3430  -25.1030 C   0  0  0  0  0  0  0  0  0  0  0  0
   -6.7670   -1.4070  -26.3160 C   0  0  0  0  0  0  0  0  0  0  0  0
   -7.1750   -2.2830  -27.3140 C   0  0  0  0  0  0  0  0  0  0  0  0
   -8.2700   -3.1000  -27.0660 C   0  0  0  0  0  0  0  0  0  0  0  0
   -8.7980   -4.2180  -28.2940 Cl  0  0  0  0  0  0  0  0  0  0  0  0
   -8.9540   -3.0510  -25.8560 C   0  0  0  0  0  0  0  0  0  0  0  0
   -9.8020   -3.7170  -25.7000 H   0  0  0  0  0  0  0  0  0  0  0  0
   -6.6510   -2.3320  -28.2640 H   0  0  0  0  0  0  0  0  0  0  0  0
   -5.9100   -0.7620  -26.4840 H   0  0  0  0  0  0  0  0  0  0  0  0
   -7.0940   -0.6510  -24.3390 H   0  0  0  0  0  0  0  0  0  0  0  0
  -10.3030   -2.4530  -23.6860 H   0  0  0  0  0  0  0  0  0  0  0  0
   -8.8310   -2.8620  -22.8430 H   0  0  0  0  0  0  0  0  0  0  0  0
  -10.2370    0.1520  -23.4010 C   0  0  2  0  0  0  0  0  0  0  0  0
  -11.3910    0.6150  -22.4930 C   0  0  0  0  0  0  0  0  0  0  0  0
  -12.0740    1.5930  -23.4160 N   0  3  1  0  0  0  0  0  0  0  0  0
  -12.2530    2.9510  -22.8890 C   0  0  0  0  0  0  0  0  0  0  0  0
  -13.5240    3.2820  -22.1810 C   0  0  0  0  0  0  0  0  0  0  0  0
  -13.2590    3.8350  -23.5520 C   0  0  0  0  0  0  0  0  0  0  0  0
  -13.0470    4.8950  -23.6420 H   0  0  0  0  0  0  0  0  0  0  0  0
  -13.8110    3.3980  -24.3780 H   0  0  0  0  0  0  0  0  0  0  0  0
  -13.4770    3.9700  -21.3500 H   0  0  0  0  0  0  0  0  0  0  0  0
  -14.2430    2.4740  -22.0860 H   0  0  0  0  0  0  0  0  0  0  0  0
  -11.3460    3.4130  -22.5210 H   0  0  0  0  0  0  0  0  0  0  0  0
  -11.1670    1.4900  -24.6140 C   0  0  2  0  0  0  0  0  0  0  0  0
  -11.0160   -0.0320  -24.7280 C   0  0  0  0  0  0  0  0  0  0  0  0
  -10.4040   -0.3300  -25.5730 H   0  0  0  0  0  0  0  0  0  0  0  0
  -11.9470   -0.6100  -24.6700 H   0  0  0  0  0  0  0  0  0  0  0  0
   -9.7720    1.5170  -23.9720 C   0  0  0  0  0  0  0  0  0  0  0  0
   -8.9690    1.4220  -24.6990 H   0  0  0  0  0  0  0  0  0  0  0  0
   -9.5640    2.2920  -23.2290 H   0  0  0  0  0  0  0  0  0  0  0  0
  -11.4560    2.1240  -25.4450 H   0  0  0  0  0  0  0  0  0  0  0  0
  -13.0180    1.2490  -23.6610 H   0  0  0  0  0  0  0  0  0  0  0  0
  -11.0340    1.1620  -21.6270 H   0  0  0  0  0  0  0  0  0  0  0  0
  -12.0810   -0.1790  -22.2020 H   0  0  0  0  0  0  0  0  0  0  0  0
  1  2  2  0  0  0  0
  2  3  1  0  0  0  0
  2 22  1  0  0  0  0
  3  4  1  0  0  0  0
  3 20  1  0  0  0  0
  3 21  1  0  0  0  0
  4  5  2  0  0  0  0
  4 13  1  0  0  0  0
  5  6  1  0  0  0  0
  5 19  1  0  0  0  0
  6  7  2  0  0  0  0
  7  8  1  0  0  0  0
  7 18  1  0  0  0  0
  8  9  2  0  0  0  0
  8 13  1  0  0  0  0
  9 10  1  0  0  0  0
  9 17  1  0  0  0  0
 10 11  2  0  0  0  0
 10 16  1  0  0  0  0
 11 12  1  0  0  0  0
 11 15  1  0  0  0  0
 12 13  2  0  0  0  0
 12 14  1  0  0  0  0
 22 23  1  0  0  0  0
 23 24  1  0  0  0  0
 23 35  1  0  0  0  0
 23 36  1  0  0  0  0
 24 25  2  0  0  0  0
 24 30  1  0  0  0  0
 25 26  1  0  0  0  0
 25 34  1  0  0  0  0
 26 27  2  0  0  0  0
 26 33  1  0  0  0  0
 27 28  1  0  0  0  0
 27 32  1  0  0  0  0
 28 29  1  0  0  0  0
 28 30  2  0  0  0  0
 30 31  1  0  0  0  0
 37 22  1  1  0  0  0
 37 38  1  0  0  0  0
 37 49  1  0  0  0  0
 37 52  1  0  0  0  0
 38 39  1  0  0  0  0
 38 57  1  0  0  0  0
 38 58  1  0  0  0  0
 39 40  1  0  0  0  0
 39 48  1  0  0  0  0
 39 56  1  6  0  0  0
 40 41  1  0  0  0  0
 40 42  1  0  0  0  0
 40 47  1  0  0  0  0
 41 42  1  0  0  0  0
 41 45  1  0  0  0  0
 41 46  1  0  0  0  0
 42 43  1  0  0  0  0
 42 44  1  0  0  0  0
 48 49  1  0  0  0  0
 48 52  1  0  0  0  0
 48 55  1  6  0  0  0
 49 50  1  0  0  0  0
 49 51  1  0  0  0  0
 52 53  1  0  0  0  0
 52 54  1  0  0  0  0
M  CHG  1  39   1
M  END
>  <MODEL>
       1

$$$$
