tmp_first_model_20_1.pdb
 OpenBabel08282503553D

 68 73  0  0  1  0  0  0  0  0999 V2000
   -7.7860    2.9420  -22.1950 C   0  0  0  0  0  0  0  0  0  0  0  0
   -8.6940    2.4530  -23.1960 N   0  0  0  0  0  0  0  0  0  0  0  0
   -8.2200    1.9330  -24.3440 C   0  0  0  0  0  0  0  0  0  0  0  0
   -7.0370    1.9300  -24.6440 O   0  0  0  0  0  0  0  0  0  0  0  0
   -9.2950    1.2610  -25.1990 C   0  0  0  0  0  0  0  0  0  0  0  0
   -9.8700    0.1400  -24.4810 N   0  0  0  0  0  0  0  0  0  0  0  0
   -8.9540   -0.9350  -24.1640 C   0  0  0  0  0  0  0  0  0  0  0  0
   -9.2500   -1.6590  -22.8160 C   0  0  2  0  0  0  0  0  0  0  0  0
   -8.7080   -0.8020  -21.6380 C   0  0  0  0  0  0  0  0  0  0  0  0
   -9.2560    0.1560  -21.1320 O   0  0  0  0  0  0  0  0  0  0  0  0
   -7.4920   -1.3140  -21.2420 N   0  0  0  0  0  0  0  0  0  0  0  0
   -6.7110   -0.7470  -20.1940 C   0  0  0  0  0  0  0  0  0  0  0  0
   -7.0190   -0.9910  -18.8780 C   0  0  0  0  0  0  0  0  0  0  0  0
   -6.2920   -0.5460  -17.8200 N   0  0  0  0  0  0  0  0  0  0  0  0
   -5.2220    0.1650  -18.0780 C   0  0  0  0  0  0  0  0  0  0  0  0
   -4.7810    0.5020  -19.3910 C   0  0  0  0  0  0  0  0  0  0  0  0
   -3.6220    1.2930  -19.6250 C   0  0  0  0  0  0  0  0  0  0  0  0
   -3.2410    1.6080  -20.9000 C   0  0  0  0  0  0  0  0  0  0  0  0
   -3.9990    1.1510  -22.0010 C   0  0  0  0  0  0  0  0  0  0  0  0
   -5.1250    0.3870  -21.7980 C   0  0  0  0  0  0  0  0  0  0  0  0
   -5.5460    0.0350  -20.4870 C   0  0  0  0  0  0  0  0  0  0  0  0
   -5.7420    0.1160  -22.6500 H   0  0  0  0  0  0  0  0  0  0  0  0
   -3.7120    1.4280  -23.0110 H   0  0  0  0  0  0  0  0  0  0  0  0
   -2.3660    2.2270  -21.0790 H   0  0  0  0  0  0  0  0  0  0  0  0
   -3.0530    1.6520  -18.7700 H   0  0  0  0  0  0  0  0  0  0  0  0
   -4.6440    0.5200  -17.2240 H   0  0  0  0  0  0  0  0  0  0  0  0
   -7.8880   -1.5970  -18.6330 H   0  0  0  0  0  0  0  0  0  0  0  0
   -7.0700   -2.4710  -22.0050 C   0  0  0  0  0  0  0  0  0  0  0  0
   -8.3710   -2.9340  -22.6930 C   0  0  2  0  0  0  0  0  0  0  0  0
   -8.1420   -3.6920  -24.0000 C   0  0  0  0  0  0  0  0  0  0  0  0
   -7.6580   -5.0360  -23.7760 N   0  0  0  0  0  0  0  0  0  0  0  0
   -7.1880   -5.7090  -24.9120 C   0  0  0  0  0  0  0  0  0  0  0  0
   -6.4180   -6.8960  -24.8830 C   0  0  0  0  0  0  0  0  0  0  0  0
   -6.1730   -7.3460  -26.1040 N   0  0  0  0  0  0  0  0  0  0  0  0
   -6.7700   -6.4830  -26.9250 N   0  0  0  0  0  0  0  0  0  0  0  0
   -6.7380   -6.7180  -28.3490 C   0  0  0  0  0  0  0  0  0  0  0  0
   -5.8740   -6.2340  -28.8180 H   0  0  0  0  0  0  0  0  0  0  0  0
   -6.6740   -7.7970  -28.5030 H   0  0  0  0  0  0  0  0  0  0  0  0
   -7.6570   -6.3380  -28.8020 H   0  0  0  0  0  0  0  0  0  0  0  0
   -7.3820   -5.4650  -26.2590 C   0  0  0  0  0  0  0  0  0  0  0  0
   -7.8600   -4.6650  -26.8140 H   0  0  0  0  0  0  0  0  0  0  0  0
   -6.0390   -7.4380  -24.0240 H   0  0  0  0  0  0  0  0  0  0  0  0
   -6.9690   -5.0900  -23.0290 H   0  0  0  0  0  0  0  0  0  0  0  0
   -9.0850   -3.7620  -24.5570 H   0  0  0  0  0  0  0  0  0  0  0  0
   -7.4270   -3.1320  -24.6290 H   0  0  0  0  0  0  0  0  0  0  0  0
   -8.8710   -3.6120  -21.9980 H   0  0  0  0  0  0  0  0  0  0  0  0
   -6.2850   -2.2060  -22.7330 H   0  0  0  0  0  0  0  0  0  0  0  0
   -6.6420   -3.2240  -21.3360 H   0  0  0  0  0  0  0  0  0  0  0  0
  -10.7530   -1.8660  -22.6770 C   0  0  0  0  0  0  0  0  0  0  0  0
  -11.3110   -2.8730  -21.8720 C   0  0  0  0  0  0  0  0  0  0  0  0
  -12.6800   -2.9290  -21.6640 C   0  0  0  0  0  0  0  0  0  0  0  0
  -13.3530   -4.1430  -20.6090 Cl  0  0  0  0  0  0  0  0  0  0  0  0
  -13.5530   -2.0150  -22.2490 C   0  0  0  0  0  0  0  0  0  0  0  0
  -13.0190   -1.0170  -23.0350 C   0  0  0  0  0  0  0  0  0  0  0  0
  -11.6430   -0.9410  -23.2430 C   0  0  0  0  0  0  0  0  0  0  0  0
  -11.1560    0.2230  -24.0420 C   0  0  0  0  0  0  0  0  0  0  0  0
  -11.8670    1.1900  -24.2770 O   0  0  0  0  0  0  0  0  0  0  0  0
  -13.6540   -0.2590  -23.4800 H   0  0  0  0  0  0  0  0  0  0  0  0
  -14.6190   -2.1000  -22.0640 H   0  0  0  0  0  0  0  0  0  0  0  0
  -10.6890   -3.6090  -21.3750 H   0  0  0  0  0  0  0  0  0  0  0  0
   -8.9570   -1.6450  -24.9950 H   0  0  0  0  0  0  0  0  0  0  0  0
   -7.9540   -0.4900  -24.1260 H   0  0  0  0  0  0  0  0  0  0  0  0
   -8.8170    0.9600  -26.1350 H   0  0  0  0  0  0  0  0  0  0  0  0
  -10.1150    1.9490  -25.4030 H   0  0  0  0  0  0  0  0  0  0  0  0
   -9.6530    2.2810  -22.9440 H   0  0  0  0  0  0  0  0  0  0  0  0
   -8.2520    2.9400  -21.2110 H   0  0  0  0  0  0  0  0  0  0  0  0
   -6.9270    2.2680  -22.1570 H   0  0  0  0  0  0  0  0  0  0  0  0
   -7.4460    3.9560  -22.4320 H   0  0  0  0  0  0  0  0  0  0  0  0
  1  2  1  0  0  0  0
  1 66  1  0  0  0  0
  1 67  1  0  0  0  0
  1 68  1  0  0  0  0
  2  3  1  0  0  0  0
  2 65  1  0  0  0  0
  3  4  2  0  0  0  0
  3  5  1  0  0  0  0
  5  6  1  0  0  0  0
  5 63  1  0  0  0  0
  5 64  1  0  0  0  0
  6  7  1  0  0  0  0
  6 56  1  0  0  0  0
  7  8  1  0  0  0  0
  7 61  1  0  0  0  0
  7 62  1  0  0  0  0
  8  9  1  1  0  0  0
  8 29  1  0  0  0  0
  8 49  1  0  0  0  0
  9 10  2  0  0  0  0
  9 11  1  0  0  0  0
 11 12  1  0  0  0  0
 11 28  1  0  0  0  0
 12 13  2  0  0  0  0
 12 21  1  0  0  0  0
 13 14  1  0  0  0  0
 13 27  1  0  0  0  0
 14 15  2  0  0  0  0
 15 16  1  0  0  0  0
 15 26  1  0  0  0  0
 16 17  2  0  0  0  0
 16 21  1  0  0  0  0
 17 18  1  0  0  0  0
 17 25  1  0  0  0  0
 18 19  2  0  0  0  0
 18 24  1  0  0  0  0
 19 20  1  0  0  0  0
 19 23  1  0  0  0  0
 20 21  2  0  0  0  0
 20 22  1  0  0  0  0
 28 29  1  0  0  0  0
 28 47  1  0  0  0  0
 28 48  1  0  0  0  0
 29 30  1  0  0  0  0
 29 46  1  1  0  0  0
 30 31  1  0  0  0  0
 30 44  1  0  0  0  0
 30 45  1  0  0  0  0
 31 32  1  0  0  0  0
 31 43  1  0  0  0  0
 32 33  1  0  0  0  0
 32 40  2  0  0  0  0
 33 34  2  0  0  0  0
 33 42  1  0  0  0  0
 34 35  1  0  0  0  0
 35 36  1  0  0  0  0
 35 40  1  0  0  0  0
 36 37  1  0  0  0  0
 36 38  1  0  0  0  0
 36 39  1  0  0  0  0
 40 41  1  0  0  0  0
 49 50  2  0  0  0  0
 49 55  1  0  0  0  0
 50 51  1  0  0  0  0
 50 60  1  0  0  0  0
 51 52  1  0  0  0  0
 51 53  2  0  0  0  0
 53 54  1  0  0  0  0
 53 59  1  0  0  0  0
 54 55  2  0  0  0  0
 54 58  1  0  0  0  0
 55 56  1  0  0  0  0
 56 57  2  0  0  0  0
M  END
>  <MODEL>
       1

$$$$
