tmp_first_model_10_68.pdb
 OpenBabel08272522163D

 65 70  0  0  1  0  0  0  0  0999 V2000
   -9.3100   -0.0060  -20.8930 O   0  0  0  0  0  0  0  0  0  0  0  0
   -8.4440   -0.3390  -21.6820 C   0  0  0  0  0  0  0  0  0  0  0  0
   -7.4470   -1.4160  -21.2710 C   0  0  0  0  0  0  0  0  0  0  0  0
   -6.5840   -0.8420  -20.1660 C   0  0  0  0  0  0  0  0  0  0  0  0
   -6.8960   -1.0620  -18.8480 C   0  0  0  0  0  0  0  0  0  0  0  0
   -6.2110   -0.5710  -17.7840 N   0  0  0  0  0  0  0  0  0  0  0  0
   -5.1980    0.2220  -18.0490 C   0  0  0  0  0  0  0  0  0  0  0  0
   -4.7850    0.5810  -19.3640 C   0  0  0  0  0  0  0  0  0  0  0  0
   -3.6700    1.4270  -19.6030 C   0  0  0  0  0  0  0  0  0  0  0  0
   -3.3710    1.8480  -20.8740 C   0  0  0  0  0  0  0  0  0  0  0  0
   -4.1660    1.4150  -21.9570 C   0  0  0  0  0  0  0  0  0  0  0  0
   -5.1360    0.4540  -21.7680 C   0  0  0  0  0  0  0  0  0  0  0  0
   -5.5030    0.0390  -20.4590 C   0  0  0  0  0  0  0  0  0  0  0  0
   -5.6440    0.0430  -22.6320 H   0  0  0  0  0  0  0  0  0  0  0  0
   -3.9630    1.7870  -22.9620 H   0  0  0  0  0  0  0  0  0  0  0  0
   -2.5200    2.5020  -21.0500 H   0  0  0  0  0  0  0  0  0  0  0  0
   -3.0870    1.7580  -18.7480 H   0  0  0  0  0  0  0  0  0  0  0  0
   -4.6360    0.6110  -17.1980 H   0  0  0  0  0  0  0  0  0  0  0  0
   -7.7560   -1.6810  -18.5960 H   0  0  0  0  0  0  0  0  0  0  0  0
   -8.0250   -2.2590  -20.8810 H   0  0  0  0  0  0  0  0  0  0  0  0
   -6.8460   -1.7690  -22.1130 H   0  0  0  0  0  0  0  0  0  0  0  0
   -8.2340    0.3170  -22.8970 N   0  0  0  0  0  0  0  0  0  0  0  0
   -8.0610   -0.3910  -24.1660 C   0  0  0  0  0  0  0  0  0  0  0  0
   -9.3290   -1.0510  -24.6880 C   0  0  0  0  0  0  0  0  0  0  0  0
  -10.1200   -0.4640  -25.6780 C   0  0  0  0  0  0  0  0  0  0  0  0
  -11.2930   -1.0800  -26.1100 C   0  0  0  0  0  0  0  0  0  0  0  0
  -11.7030   -2.2870  -25.5580 C   0  0  0  0  0  0  0  0  0  0  0  0
  -10.9250   -2.8530  -24.5590 C   0  0  0  0  0  0  0  0  0  0  0  0
  -11.4810   -4.3010  -23.7790 Cl  0  0  0  0  0  0  0  0  0  0  0  0
   -9.7410   -2.2650  -24.1370 C   0  0  0  0  0  0  0  0  0  0  0  0
   -9.1450   -2.7660  -23.3750 H   0  0  0  0  0  0  0  0  0  0  0  0
  -12.6170   -2.7800  -25.8750 H   0  0  0  0  0  0  0  0  0  0  0  0
  -11.8990   -0.6020  -26.8710 H   0  0  0  0  0  0  0  0  0  0  0  0
   -9.8290    0.4870  -26.1200 H   0  0  0  0  0  0  0  0  0  0  0  0
   -7.2930   -1.1550  -24.0210 H   0  0  0  0  0  0  0  0  0  0  0  0
   -7.6560    0.3150  -24.8940 H   0  0  0  0  0  0  0  0  0  0  0  0
   -8.5720    1.7340  -22.9100 C   0  0  2  0  0  0  0  0  0  0  0  0
  -10.0630    2.1200  -23.0180 C   0  0  0  0  0  0  0  0  0  0  0  0
  -10.0010    3.6230  -23.4190 C   0  0  0  0  0  0  0  0  0  0  0  0
   -8.4980    3.9080  -23.4800 C   0  0  2  0  0  0  0  0  0  0  0  0
   -7.9370    2.5930  -24.0100 C   0  0  0  0  0  0  0  0  0  0  0  0
   -8.3240    2.3610  -25.0040 H   0  0  0  0  0  0  0  0  0  0  0  0
   -6.8430    2.5410  -24.0110 H   0  0  0  0  0  0  0  0  0  0  0  0
   -8.0130    3.9100  -22.0230 N   0  3  2  0  0  0  0  0  0  0  0  0
   -6.6900    4.5460  -21.7630 C   0  0  0  0  0  0  0  0  0  0  0  0
   -6.6890    6.0490  -21.9950 C   0  0  0  0  0  0  0  0  0  0  0  0
   -6.2570    6.5320  -23.3920 C   0  0  0  0  0  0  0  0  0  0  0  0
   -5.0660    7.1410  -22.8800 O   0  0  0  0  0  0  0  0  0  0  0  0
   -5.4050    6.7650  -21.5360 C   0  0  0  0  0  0  0  0  0  0  0  0
   -4.6420    6.1060  -21.1010 H   0  0  0  0  0  0  0  0  0  0  0  0
   -5.5180    7.6400  -20.8830 H   0  0  0  0  0  0  0  0  0  0  0  0
   -6.0150    5.7290  -24.1020 H   0  0  0  0  0  0  0  0  0  0  0  0
   -6.9100    7.2650  -23.8840 H   0  0  0  0  0  0  0  0  0  0  0  0
   -7.6320    6.4620  -21.6260 H   0  0  0  0  0  0  0  0  0  0  0  0
   -6.3950    4.3380  -20.7270 H   0  0  0  0  0  0  0  0  0  0  0  0
   -5.9230    4.0720  -22.3930 H   0  0  0  0  0  0  0  0  0  0  0  0
   -8.0440    2.4480  -21.6560 C   0  0  0  0  0  0  0  0  0  0  0  0
   -7.0400    2.1210  -21.3880 H   0  0  0  0  0  0  0  0  0  0  0  0
   -8.6930    2.2820  -20.8010 H   0  0  0  0  0  0  0  0  0  0  0  0
   -8.7150    4.3820  -21.4200 H   0  0  0  0  0  0  0  0  0  0  0  0
   -8.2000    4.8330  -23.9660 H   0  0  0  0  0  0  0  0  0  0  0  0
  -10.4670    3.7920  -24.3940 H   0  0  0  0  0  0  0  0  0  0  0  0
  -10.4800    4.2920  -22.6940 H   0  0  0  0  0  0  0  0  0  0  0  0
  -10.5450    1.5160  -23.7910 H   0  0  0  0  0  0  0  0  0  0  0  0
  -10.5880    1.9410  -22.0780 H   0  0  0  0  0  0  0  0  0  0  0  0
  1  2  2  0  0  0  0
  2  3  1  0  0  0  0
  2 22  1  0  0  0  0
  3  4  1  0  0  0  0
  3 20  1  0  0  0  0
  3 21  1  0  0  0  0
  4  5  2  0  0  0  0
  4 13  1  0  0  0  0
  5  6  1  0  0  0  0
  5 19  1  0  0  0  0
  6  7  2  0  0  0  0
  7  8  1  0  0  0  0
  7 18  1  0  0  0  0
  8  9  2  0  0  0  0
  8 13  1  0  0  0  0
  9 10  1  0  0  0  0
  9 17  1  0  0  0  0
 10 11  2  0  0  0  0
 10 16  1  0  0  0  0
 11 12  1  0  0  0  0
 11 15  1  0  0  0  0
 12 13  2  0  0  0  0
 12 14  1  0  0  0  0
 22 23  1  0  0  0  0
 23 24  1  0  0  0  0
 23 35  1  0  0  0  0
 23 36  1  0  0  0  0
 24 25  2  0  0  0  0
 24 30  1  0  0  0  0
 25 26  1  0  0  0  0
 25 34  1  0  0  0  0
 26 27  2  0  0  0  0
 26 33  1  0  0  0  0
 27 28  1  0  0  0  0
 27 32  1  0  0  0  0
 28 29  1  0  0  0  0
 28 30  2  0  0  0  0
 30 31  1  0  0  0  0
 37 22  1  6  0  0  0
 37 38  1  0  0  0  0
 37 41  1  0  0  0  0
 37 57  1  0  0  0  0
 38 39  1  0  0  0  0
 38 64  1  0  0  0  0
 38 65  1  0  0  0  0
 39 40  1  0  0  0  0
 39 62  1  0  0  0  0
 39 63  1  0  0  0  0
 40 41  1  0  0  0  0
 40 44  1  0  0  0  0
 40 61  1  6  0  0  0
 41 42  1  0  0  0  0
 41 43  1  0  0  0  0
 44 45  1  0  0  0  0
 44 57  1  0  0  0  0
 44 60  1  1  0  0  0
 45 46  1  0  0  0  0
 45 55  1  0  0  0  0
 45 56  1  0  0  0  0
 46 47  1  0  0  0  0
 46 49  1  0  0  0  0
 46 54  1  0  0  0  0
 47 48  1  0  0  0  0
 47 52  1  0  0  0  0
 47 53  1  0  0  0  0
 48 49  1  0  0  0  0
 49 50  1  0  0  0  0
 49 51  1  0  0  0  0
 57 58  1  0  0  0  0
 57 59  1  0  0  0  0
M  CHG  1  44   1
M  END
>  <MODEL>
       1

$$$$
