tmp_first_model_4_48.pdb
 OpenBabel08272518513D

 46 48  0  0  0  0  0  0  0  0999 V2000
   -8.4920   -6.7350  -25.9280 C   0  0  0  0  0  0  0  0  0  0  0  0
   -9.5820   -6.6940  -24.8570 C   0  0  0  0  0  0  0  0  0  0  0  0
  -10.9570   -6.5350  -25.5110 C   0  0  0  0  0  0  0  0  0  0  0  0
  -11.7660   -6.5220  -24.7740 H   0  0  0  0  0  0  0  0  0  0  0  0
  -11.1580   -7.3540  -26.2110 H   0  0  0  0  0  0  0  0  0  0  0  0
  -11.0160   -5.6030  -26.0830 H   0  0  0  0  0  0  0  0  0  0  0  0
   -9.3470   -5.6360  -23.7490 C   0  0  0  0  0  0  0  0  0  0  0  0
   -9.2540   -4.1940  -24.2660 C   0  0  0  0  0  0  0  0  0  0  0  0
   -8.8490   -3.2330  -23.1540 C   0  0  0  0  0  0  0  0  0  0  0  0
   -7.5740   -3.6330  -22.5690 N   0  0  0  0  0  0  0  0  0  0  0  0
   -6.7760   -2.8070  -21.8410 C   0  0  0  0  0  0  0  0  0  0  0  0
   -5.6140   -3.0950  -21.5860 O   0  0  0  0  0  0  0  0  0  0  0  0
   -7.3970   -1.5190  -21.2950 C   0  0  0  0  0  0  0  0  0  0  0  0
   -6.4960   -0.9980  -20.2180 C   0  0  0  0  0  0  0  0  0  0  0  0
   -6.7520   -1.2770  -18.9030 C   0  0  0  0  0  0  0  0  0  0  0  0
   -5.9260   -0.9980  -17.8640 N   0  0  0  0  0  0  0  0  0  0  0  0
   -4.8140   -0.3630  -18.1460 C   0  0  0  0  0  0  0  0  0  0  0  0
   -4.4340    0.0290  -19.4590 C   0  0  0  0  0  0  0  0  0  0  0  0
   -3.2840    0.8230  -19.7090 C   0  0  0  0  0  0  0  0  0  0  0  0
   -3.0490    1.3340  -20.9580 C   0  0  0  0  0  0  0  0  0  0  0  0
   -3.8890    0.9750  -22.0370 C   0  0  0  0  0  0  0  0  0  0  0  0
   -4.9640    0.1470  -21.8400 C   0  0  0  0  0  0  0  0  0  0  0  0
   -5.2990   -0.2990  -20.5320 C   0  0  0  0  0  0  0  0  0  0  0  0
   -5.6290   -0.0820  -22.6670 H   0  0  0  0  0  0  0  0  0  0  0  0
   -3.7000    1.3840  -23.0270 H   0  0  0  0  0  0  0  0  0  0  0  0
   -2.2650    2.0690  -21.1140 H   0  0  0  0  0  0  0  0  0  0  0  0
   -2.6440    1.0820  -18.8700 H   0  0  0  0  0  0  0  0  0  0  0  0
   -4.1800   -0.0980  -17.3000 H   0  0  0  0  0  0  0  0  0  0  0  0
   -7.7090   -1.7170  -18.6260 H   0  0  0  0  0  0  0  0  0  0  0  0
   -8.3860   -1.7480  -20.8820 H   0  0  0  0  0  0  0  0  0  0  0  0
   -7.5640   -0.7950  -22.1050 H   0  0  0  0  0  0  0  0  0  0  0  0
   -7.0350   -4.9420  -22.8980 C   0  0  0  0  0  0  0  0  0  0  0  0
   -8.1410   -5.9870  -22.8420 C   0  0  0  0  0  0  0  0  0  0  0  0
   -7.7240   -6.9660  -23.1080 H   0  0  0  0  0  0  0  0  0  0  0  0
   -8.4790   -6.0640  -21.8010 H   0  0  0  0  0  0  0  0  0  0  0  0
   -6.2420   -5.1460  -22.1750 H   0  0  0  0  0  0  0  0  0  0  0  0
   -6.5640   -4.9040  -23.8900 H   0  0  0  0  0  0  0  0  0  0  0  0
   -8.7610   -2.2170  -23.5620 H   0  0  0  0  0  0  0  0  0  0  0  0
   -9.6340   -3.2080  -22.3820 H   0  0  0  0  0  0  0  0  0  0  0  0
  -10.2280   -3.8760  -24.6520 H   0  0  0  0  0  0  0  0  0  0  0  0
   -8.5290   -4.1190  -25.0850 H   0  0  0  0  0  0  0  0  0  0  0  0
  -10.2400   -5.6290  -23.1120 H   0  0  0  0  0  0  0  0  0  0  0  0
   -9.5430   -7.6740  -24.3640 H   0  0  0  0  0  0  0  0  0  0  0  0
   -7.4900   -6.8280  -25.4960 H   0  0  0  0  0  0  0  0  0  0  0  0
   -8.5070   -5.8440  -26.5630 H   0  0  0  0  0  0  0  0  0  0  0  0
   -8.6460   -7.6010  -26.5820 H   0  0  0  0  0  0  0  0  0  0  0  0
  1  2  1  0  0  0  0
  1 44  1  0  0  0  0
  1 45  1  0  0  0  0
  1 46  1  0  0  0  0
  2  3  1  0  0  0  0
  2  7  1  0  0  0  0
  2 43  1  0  0  0  0
  3  4  1  0  0  0  0
  3  5  1  0  0  0  0
  3  6  1  0  0  0  0
  7  8  1  0  0  0  0
  7 33  1  0  0  0  0
  7 42  1  0  0  0  0
  8  9  1  0  0  0  0
  8 40  1  0  0  0  0
  8 41  1  0  0  0  0
  9 10  1  0  0  0  0
  9 38  1  0  0  0  0
  9 39  1  0  0  0  0
 10 11  1  0  0  0  0
 10 32  1  0  0  0  0
 11 12  2  0  0  0  0
 11 13  1  0  0  0  0
 13 14  1  0  0  0  0
 13 30  1  0  0  0  0
 13 31  1  0  0  0  0
 14 15  2  0  0  0  0
 14 23  1  0  0  0  0
 15 16  1  0  0  0  0
 15 29  1  0  0  0  0
 16 17  2  0  0  0  0
 17 18  1  0  0  0  0
 17 28  1  0  0  0  0
 18 19  2  0  0  0  0
 18 23  1  0  0  0  0
 19 20  1  0  0  0  0
 19 27  1  0  0  0  0
 20 21  2  0  0  0  0
 20 26  1  0  0  0  0
 21 22  1  0  0  0  0
 21 25  1  0  0  0  0
 22 23  2  0  0  0  0
 22 24  1  0  0  0  0
 32 33  1  0  0  0  0
 32 36  1  0  0  0  0
 32 37  1  0  0  0  0
 33 34  1  0  0  0  0
 33 35  1  0  0  0  0
M  END
>  <MODEL>
       1

$$$$
