tmp_first_model_4_24.pdb
 OpenBabel08272518513D

 65 70  0  0  1  0  0  0  0  0999 V2000
  -12.8310   -2.1510  -22.2140 O   0  0  0  0  0  0  0  0  0  0  0  0
  -12.6800   -3.3300  -22.4960 C   0  0  0  0  0  0  0  0  0  0  0  0
  -11.5670   -3.8520  -23.4100 C   0  0  0  0  0  0  0  0  0  0  0  0
  -10.6060   -4.7070  -22.6080 N   0  3  1  0  0  0  0  0  0  0  0  0
   -9.7400   -5.6090  -23.4590 C   0  0  0  0  0  0  0  0  0  0  0  0
   -8.6520   -4.8670  -24.2040 C   0  0  0  0  0  0  0  0  0  0  0  0
   -8.0760   -5.4460  -25.3340 C   0  0  0  0  0  0  0  0  0  0  0  0
   -7.0600   -4.8110  -26.0360 C   0  0  0  0  0  0  0  0  0  0  0  0
   -6.6230   -3.5680  -25.5960 C   0  0  0  0  0  0  0  0  0  0  0  0
   -5.3400   -2.7610  -26.4520 Cl  0  0  0  0  0  0  0  0  0  0  0  0
   -7.1780   -2.9780  -24.4730 C   0  0  0  0  0  0  0  0  0  0  0  0
   -8.1920   -3.6280  -23.7560 C   0  0  0  0  0  0  0  0  0  0  0  0
   -8.6870   -2.9760  -22.4750 C   0  0  2  0  0  0  0  0  0  0  0  0
   -9.2450   -1.5400  -22.6750 C   0  0  0  0  0  0  0  0  0  0  0  0
   -8.3880   -0.5750  -21.8250 C   0  0  0  0  0  0  0  0  0  0  0  0
   -7.4100   -1.4420  -21.1860 N   0  0  0  0  0  0  0  0  0  0  0  0
   -6.4710   -1.0460  -20.1970 C   0  0  0  0  0  0  0  0  0  0  0  0
   -6.6430   -1.4410  -18.8940 C   0  0  0  0  0  0  0  0  0  0  0  0
   -5.7920   -1.1360  -17.8860 N   0  0  0  0  0  0  0  0  0  0  0  0
   -4.7260   -0.4360  -18.1810 C   0  0  0  0  0  0  0  0  0  0  0  0
   -4.4060    0.0060  -19.4950 C   0  0  0  0  0  0  0  0  0  0  0  0
   -3.2080    0.7140  -19.7720 C   0  0  0  0  0  0  0  0  0  0  0  0
   -2.9300    1.1330  -21.0430 C   0  0  0  0  0  0  0  0  0  0  0  0
   -3.8410    0.8710  -22.0910 C   0  0  0  0  0  0  0  0  0  0  0  0
   -5.0050    0.1850  -21.8500 C   0  0  0  0  0  0  0  0  0  0  0  0
   -5.3150   -0.2730  -20.5400 C   0  0  0  0  0  0  0  0  0  0  0  0
   -5.6970   -0.0120  -22.6650 H   0  0  0  0  0  0  0  0  0  0  0  0
   -3.6170    1.2160  -23.0960 H   0  0  0  0  0  0  0  0  0  0  0  0
   -2.0120    1.6730  -21.2550 H   0  0  0  0  0  0  0  0  0  0  0  0
   -2.5470    0.9430  -18.9420 H   0  0  0  0  0  0  0  0  0  0  0  0
   -4.0470   -0.1910  -17.3630 H   0  0  0  0  0  0  0  0  0  0  0  0
   -7.5110   -2.0340  -18.6120 H   0  0  0  0  0  0  0  0  0  0  0  0
   -7.4840   -2.7610  -21.5520 C   0  0  0  0  0  0  0  0  0  0  0  0
   -6.6980   -3.6190  -21.2060 O   0  0  0  0  0  0  0  0  0  0  0  0
   -7.9010    0.1860  -22.4470 H   0  0  0  0  0  0  0  0  0  0  0  0
   -8.9790   -0.0460  -21.0690 H   0  0  0  0  0  0  0  0  0  0  0  0
  -10.2970   -1.4920  -22.3660 H   0  0  0  0  0  0  0  0  0  0  0  0
   -9.2080   -1.2620  -23.7330 H   0  0  0  0  0  0  0  0  0  0  0  0
   -9.6730   -3.8780  -21.7030 C   0  0  0  0  0  0  0  0  0  0  0  0
  -10.2950   -3.2780  -21.0380 H   0  0  0  0  0  0  0  0  0  0  0  0
   -9.1080   -4.5920  -21.1060 H   0  0  0  0  0  0  0  0  0  0  0  0
   -6.8070   -2.0140  -24.1360 H   0  0  0  0  0  0  0  0  0  0  0  0
   -6.6100   -5.2720  -26.9100 H   0  0  0  0  0  0  0  0  0  0  0  0
   -8.4260   -6.4190  -25.6710 H   0  0  0  0  0  0  0  0  0  0  0  0
  -10.3730   -6.1460  -24.1700 H   0  0  0  0  0  0  0  0  0  0  0  0
   -9.3000   -6.3590  -22.7970 H   0  0  0  0  0  0  0  0  0  0  0  0
  -11.1830   -5.3030  -21.9770 H   0  0  0  0  0  0  0  0  0  0  0  0
  -11.0380   -3.0310  -23.8800 H   0  0  0  0  0  0  0  0  0  0  0  0
  -11.9810   -4.4850  -24.2000 H   0  0  0  0  0  0  0  0  0  0  0  0
  -13.4690   -4.3190  -21.9960 N   0  0  0  0  0  0  0  0  0  0  0  0
  -14.5870   -4.0210  -21.1080 C   0  0  0  0  0  0  0  0  0  0  0  0
  -15.1070   -5.3250  -20.5160 C   0  0  1  0  0  0  0  0  0  0  0  0
  -14.3750   -6.1840  -19.5600 C   0  0  0  0  0  0  0  0  0  0  0  0
  -16.3000   -5.8520  -19.7180 C   0  0  1  0  0  0  0  0  0  0  0  0
  -15.7410   -3.7140  -18.0190 F   0  0  0  0  0  0  0  0  0  0  0  0
  -16.3230   -5.7590  -19.5580 C   0  0  0  0  0  0  0  0  0  0  0  0
  -16.1690   -4.4420  -18.4540 H   0  0  0  0  0  0  0  0  0  0  0  0
  -17.5150   -5.8000  -19.8760 H   0  0  0  0  0  0  0  0  0  0  0  0
  -16.3900   -6.9900  -19.2330 H   0  0  0  0  0  0  0  0  0  0  0  0
  -13.5870   -5.8170  -18.8700 H   0  0  0  0  0  0  0  0  0  0  0  0
  -14.1600   -7.1950  -19.9330 H   0  0  0  0  0  0  0  0  0  0  0  0
  -15.4660   -6.0270  -21.2790 H   0  0  0  0  0  0  0  0  0  0  0  0
  -15.3030   -3.4330  -21.7010 H   0  0  0  0  0  0  0  0  0  0  0  0
  -14.2020   -3.3040  -20.3610 H   0  0  0  0  0  0  0  0  0  0  0  0
  -13.2680   -5.2680  -22.2720 H   0  0  0  0  0  0  0  0  0  0  0  0
  1  2  2  0  0  0  0
  2  3  1  0  0  0  0
  2 50  1  0  0  0  0
  3  4  1  0  0  0  0
  3 48  1  0  0  0  0
  3 49  1  0  0  0  0
  4  5  1  0  0  0  0
  4 39  1  0  0  0  0
  4 47  1  1  0  0  0
  5  6  1  0  0  0  0
  5 45  1  0  0  0  0
  5 46  1  0  0  0  0
  6  7  2  0  0  0  0
  6 12  1  0  0  0  0
  7  8  1  0  0  0  0
  7 44  1  0  0  0  0
  8  9  2  0  0  0  0
  8 43  1  0  0  0  0
  9 10  1  0  0  0  0
  9 11  1  0  0  0  0
 11 12  2  0  0  0  0
 11 42  1  0  0  0  0
 13 12  1  6  0  0  0
 13 14  1  0  0  0  0
 13 33  1  0  0  0  0
 13 39  1  0  0  0  0
 14 15  1  0  0  0  0
 14 37  1  0  0  0  0
 14 38  1  0  0  0  0
 15 16  1  0  0  0  0
 15 35  1  0  0  0  0
 15 36  1  0  0  0  0
 16 17  1  0  0  0  0
 16 33  1  0  0  0  0
 17 18  2  0  0  0  0
 17 26  1  0  0  0  0
 18 19  1  0  0  0  0
 18 32  1  0  0  0  0
 19 20  2  0  0  0  0
 20 21  1  0  0  0  0
 20 31  1  0  0  0  0
 21 22  2  0  0  0  0
 21 26  1  0  0  0  0
 22 23  1  0  0  0  0
 22 30  1  0  0  0  0
 23 24  2  0  0  0  0
 23 29  1  0  0  0  0
 24 25  1  0  0  0  0
 24 28  1  0  0  0  0
 25 26  2  0  0  0  0
 25 27  1  0  0  0  0
 33 34  2  0  0  0  0
 39 40  1  0  0  0  0
 39 41  1  0  0  0  0
 50 51  1  0  0  0  0
 50 65  1  0  0  0  0
 51 52  1  0  0  0  0
 51 63  1  0  0  0  0
 51 64  1  0  0  0  0
 52 53  1  0  0  0  0
 52 56  1  0  0  0  0
 52 62  1  6  0  0  0
 53 54  1  0  0  0  0
 53 60  1  0  0  0  0
 53 61  1  0  0  0  0
 54 55  1  0  0  0  0
 54 56  1  0  0  0  0
 54 59  1  1  0  0  0
 56 57  1  0  0  0  0
 56 58  1  0  0  0  0
M  CHG  1   4   1
M  END
>  <MODEL>
       1

$$$$
