tmp_first_model_13_27.pdb
 OpenBabel08282500103D

 58 62  0  0  1  0  0  0  0  0999 V2000
  -14.9130   -3.2710  -23.3790 C   0  0  0  0  0  0  0  0  0  0  0  0
  -13.6560   -2.5380  -23.1510 N   0  3  0  0  0  0  0  0  0  0  0  0
  -13.2180   -2.5720  -21.7320 C   0  0  0  0  0  0  0  0  0  0  0  0
  -12.3860   -3.8320  -21.5320 C   0  0  0  0  0  0  0  0  0  0  0  0
  -11.1040   -3.7620  -22.2220 N   0  0  0  0  0  0  0  0  0  0  0  0
   -9.9470   -3.2250  -21.5210 C   0  0  0  0  0  0  0  0  0  0  0  0
   -8.7660   -2.8070  -22.4400 C   0  0  2  0  0  0  0  0  0  0  0  0
   -7.5440   -2.6360  -21.5190 C   0  0  0  0  0  0  0  0  0  0  0  0
   -6.8360   -3.5060  -21.0540 O   0  0  0  0  0  0  0  0  0  0  0  0
   -7.3840   -1.2940  -21.2560 N   0  0  0  0  0  0  0  0  0  0  0  0
   -6.5670   -0.8310  -20.1990 C   0  0  0  0  0  0  0  0  0  0  0  0
   -6.8680   -1.1150  -18.8930 C   0  0  0  0  0  0  0  0  0  0  0  0
   -6.1990   -0.5850  -17.8400 N   0  0  0  0  0  0  0  0  0  0  0  0
   -5.1940    0.2150  -18.0930 C   0  0  0  0  0  0  0  0  0  0  0  0
   -4.7410    0.5430  -19.4040 C   0  0  0  0  0  0  0  0  0  0  0  0
   -3.6220    1.3790  -19.6480 C   0  0  0  0  0  0  0  0  0  0  0  0
   -3.2190    1.6360  -20.9300 C   0  0  0  0  0  0  0  0  0  0  0  0
   -3.9090    1.0740  -22.0270 C   0  0  0  0  0  0  0  0  0  0  0  0
   -4.9970    0.2680  -21.8180 C   0  0  0  0  0  0  0  0  0  0  0  0
   -5.4430   -0.0030  -20.4980 C   0  0  0  0  0  0  0  0  0  0  0  0
   -5.5190   -0.1850  -22.6550 H   0  0  0  0  0  0  0  0  0  0  0  0
   -3.5780    1.2780  -23.0410 H   0  0  0  0  0  0  0  0  0  0  0  0
   -2.3620    2.2760  -21.1140 H   0  0  0  0  0  0  0  0  0  0  0  0
   -3.0970    1.7970  -18.7950 H   0  0  0  0  0  0  0  0  0  0  0  0
   -4.6760    0.6410  -17.2350 H   0  0  0  0  0  0  0  0  0  0  0  0
   -7.6950   -1.7810  -18.6510 H   0  0  0  0  0  0  0  0  0  0  0  0
   -8.3670   -0.4470  -21.9070 C   0  0  0  0  0  0  0  0  0  0  0  0
   -8.9170   -1.3550  -23.0190 C   0  0  2  0  0  0  0  0  0  0  0  0
  -10.3100   -0.9540  -23.4880 C   0  0  0  0  0  0  0  0  0  0  0  0
  -11.0150   -0.9340  -22.6490 H   0  0  0  0  0  0  0  0  0  0  0  0
  -10.6900   -1.6530  -24.2430 H   0  0  0  0  0  0  0  0  0  0  0  0
  -10.3030    0.0500  -23.9220 H   0  0  0  0  0  0  0  0  0  0  0  0
   -8.2240   -1.3010  -23.8720 H   0  0  0  0  0  0  0  0  0  0  0  0
   -7.9050    0.4730  -22.2860 H   0  0  0  0  0  0  0  0  0  0  0  0
   -9.1610   -0.1490  -21.1990 H   0  0  0  0  0  0  0  0  0  0  0  0
   -8.5530   -3.8760  -23.4810 C   0  0  0  0  0  0  0  0  0  0  0  0
   -7.2890   -4.1500  -24.0160 C   0  0  0  0  0  0  0  0  0  0  0  0
   -7.1620   -5.1600  -24.9490 C   0  0  0  0  0  0  0  0  0  0  0  0
   -5.9500   -5.4000  -25.4780 F   0  0  0  0  0  0  0  0  0  0  0  0
   -8.2330   -5.9460  -25.3620 C   0  0  0  0  0  0  0  0  0  0  0  0
   -9.4840   -5.6440  -24.8560 C   0  0  0  0  0  0  0  0  0  0  0  0
   -9.6540   -4.5960  -23.9530 C   0  0  0  0  0  0  0  0  0  0  0  0
  -11.0210   -4.2350  -23.4900 C   0  0  0  0  0  0  0  0  0  0  0  0
  -12.0210   -4.3640  -24.2120 O   0  0  0  0  0  0  0  0  0  0  0  0
  -10.3470   -6.2330  -25.1430 H   0  0  0  0  0  0  0  0  0  0  0  0
   -8.0650   -6.7680  -26.0550 H   0  0  0  0  0  0  0  0  0  0  0  0
   -6.4060   -3.6150  -23.6800 H   0  0  0  0  0  0  0  0  0  0  0  0
  -10.2360   -2.3560  -20.9200 H   0  0  0  0  0  0  0  0  0  0  0  0
   -9.5620   -3.9630  -20.8170 H   0  0  0  0  0  0  0  0  0  0  0  0
  -12.9500   -4.6440  -21.9890 H   0  0  0  0  0  0  0  0  0  0  0  0
  -12.2230   -4.0750  -20.4860 H   0  0  0  0  0  0  0  0  0  0  0  0
  -12.6160   -1.6870  -21.5220 H   0  0  0  0  0  0  0  0  0  0  0  0
  -14.0820   -2.5620  -21.0590 H   0  0  0  0  0  0  0  0  0  0  0  0
  -13.7190   -1.5670  -23.4860 H   0  0  0  0  0  0  0  0  0  0  0  0
  -12.9520   -3.0150  -23.7400 H   0  0  0  0  0  0  0  0  0  0  0  0
  -15.2990   -3.0960  -24.3850 H   0  0  0  0  0  0  0  0  0  0  0  0
  -15.6580   -2.9400  -22.6610 H   0  0  0  0  0  0  0  0  0  0  0  0
  -14.7590   -4.3490  -23.2370 H   0  0  0  0  0  0  0  0  0  0  0  0
  1  2  1  0  0  0  0
  1 56  1  0  0  0  0
  1 57  1  0  0  0  0
  1 58  1  0  0  0  0
  2  3  1  0  0  0  0
  2 54  1  0  0  0  0
  2 55  1  0  0  0  0
  3  4  1  0  0  0  0
  3 52  1  0  0  0  0
  3 53  1  0  0  0  0
  4  5  1  0  0  0  0
  4 50  1  0  0  0  0
  4 51  1  0  0  0  0
  5  6  1  0  0  0  0
  5 43  1  0  0  0  0
  6  7  1  0  0  0  0
  6 48  1  0  0  0  0
  6 49  1  0  0  0  0
  7  8  1  1  0  0  0
  7 28  1  0  0  0  0
  7 36  1  0  0  0  0
  8  9  2  0  0  0  0
  8 10  1  0  0  0  0
 10 11  1  0  0  0  0
 10 27  1  0  0  0  0
 11 12  2  0  0  0  0
 11 20  1  0  0  0  0
 12 13  1  0  0  0  0
 12 26  1  0  0  0  0
 13 14  2  0  0  0  0
 14 15  1  0  0  0  0
 14 25  1  0  0  0  0
 15 16  2  0  0  0  0
 15 20  1  0  0  0  0
 16 17  1  0  0  0  0
 16 24  1  0  0  0  0
 17 18  2  0  0  0  0
 17 23  1  0  0  0  0
 18 19  1  0  0  0  0
 18 22  1  0  0  0  0
 19 20  2  0  0  0  0
 19 21  1  0  0  0  0
 27 28  1  0  0  0  0
 27 34  1  0  0  0  0
 27 35  1  0  0  0  0
 28 29  1  0  0  0  0
 28 33  1  6  0  0  0
 29 30  1  0  0  0  0
 29 31  1  0  0  0  0
 29 32  1  0  0  0  0
 36 37  2  0  0  0  0
 36 42  1  0  0  0  0
 37 38  1  0  0  0  0
 37 47  1  0  0  0  0
 38 39  1  0  0  0  0
 38 40  2  0  0  0  0
 40 41  1  0  0  0  0
 40 46  1  0  0  0  0
 41 42  2  0  0  0  0
 41 45  1  0  0  0  0
 42 43  1  0  0  0  0
 43 44  2  0  0  0  0
M  CHG  1   2   1
M  END
>  <MODEL>
       1

$$$$
