tmp_first_model_1_55.pdb
 OpenBabel08272517043D

 61 66  0  0  1  0  0  0  0  0999 V2000
  -11.6720   -4.3810  -23.0540 C   0  0  0  0  0  0  0  0  0  0  0  0
  -10.9180   -3.2350  -23.3450 O   0  0  0  0  0  0  0  0  0  0  0  0
  -10.2480   -2.7270  -22.2170 C   0  0  0  0  0  0  0  0  0  0  0  0
   -9.0960   -1.8460  -22.6810 C   0  0  1  0  0  0  0  0  0  0  0  0
   -8.6390   -0.9190  -21.5460 C   0  0  0  0  0  0  0  0  0  0  0  0
   -7.3360   -1.4110  -21.1880 N   0  0  0  0  0  0  0  0  0  0  0  0
   -6.5600   -0.8310  -20.1730 C   0  0  0  0  0  0  0  0  0  0  0  0
   -6.9010   -1.0450  -18.8660 C   0  0  0  0  0  0  0  0  0  0  0  0
   -6.2160   -0.5500  -17.8100 N   0  0  0  0  0  0  0  0  0  0  0  0
   -5.1800    0.2060  -18.0830 C   0  0  0  0  0  0  0  0  0  0  0  0
   -4.7350    0.5170  -19.4010 C   0  0  0  0  0  0  0  0  0  0  0  0
   -3.6140    1.3530  -19.6280 C   0  0  0  0  0  0  0  0  0  0  0  0
   -3.2250    1.6540  -20.9020 C   0  0  0  0  0  0  0  0  0  0  0  0
   -3.9400    1.1440  -22.0100 C   0  0  0  0  0  0  0  0  0  0  0  0
   -5.0320    0.3350  -21.8260 C   0  0  0  0  0  0  0  0  0  0  0  0
   -5.4440   -0.0080  -20.5010 C   0  0  0  0  0  0  0  0  0  0  0  0
   -5.5840   -0.0360  -22.6940 H   0  0  0  0  0  0  0  0  0  0  0  0
   -3.6190    1.4070  -23.0140 H   0  0  0  0  0  0  0  0  0  0  0  0
   -2.3750    2.3070  -21.0730 H   0  0  0  0  0  0  0  0  0  0  0  0
   -3.0930    1.7570  -18.7650 H   0  0  0  0  0  0  0  0  0  0  0  0
   -4.6320    0.6190  -17.2370 H   0  0  0  0  0  0  0  0  0  0  0  0
   -7.7600   -1.6750  -18.6410 H   0  0  0  0  0  0  0  0  0  0  0  0
   -6.8240   -2.3940  -21.9960 C   0  0  0  0  0  0  0  0  0  0  0  0
   -5.7830   -2.9810  -21.7760 O   0  0  0  0  0  0  0  0  0  0  0  0
   -7.8130   -2.6070  -23.1590 C   0  0  1  0  0  0  0  0  0  0  0  0
   -7.9700   -4.1260  -23.3540 C   0  0  0  0  0  0  0  0  0  0  0  0
   -6.7270   -4.6850  -23.8720 N   0  0  0  0  0  0  0  0  0  0  0  0
   -6.3540   -6.0300  -23.4490 C   0  0  0  0  0  0  0  0  0  0  0  0
   -7.2250   -7.0760  -24.0790 C   0  0  0  0  0  0  0  0  0  0  0  0
   -7.1550   -7.6040  -25.3210 C   0  0  0  0  0  0  0  0  0  0  0  0
   -8.3260   -8.2960  -25.5490 N   0  3  0  0  0  0  0  0  0  0  0  0
   -9.0930   -8.2070  -24.4510 C   0  0  0  0  0  0  0  0  0  0  0  0
   -8.4450   -7.4640  -23.5430 N   0  0  0  0  0  0  0  0  0  0  0  0
   -8.7950   -7.1790  -22.6320 H   0  0  0  0  0  0  0  0  0  0  0  0
  -10.0880   -8.5920  -24.3260 H   0  0  0  0  0  0  0  0  0  0  0  0
   -8.5030   -8.8260  -26.4000 H   0  0  0  0  0  0  0  0  0  0  0  0
   -6.4050   -7.4730  -26.0910 H   0  0  0  0  0  0  0  0  0  0  0  0
   -5.3130   -6.1880  -23.7390 H   0  0  0  0  0  0  0  0  0  0  0  0
   -6.4080   -6.0640  -22.3520 H   0  0  0  0  0  0  0  0  0  0  0  0
   -6.1960   -4.2160  -25.0470 C   0  0  0  0  0  0  0  0  0  0  0  0
   -5.4720   -4.8980  -25.7620 O   0  0  0  0  0  0  0  0  0  0  0  0
   -6.5360   -2.7950  -25.3610 C   0  0  0  0  0  0  0  0  0  0  0  0
   -6.0750   -2.2540  -26.5610 C   0  0  0  0  0  0  0  0  0  0  0  0
   -6.2800   -0.9240  -26.8670 C   0  0  0  0  0  0  0  0  0  0  0  0
   -6.9600   -0.1380  -25.9410 C   0  0  0  0  0  0  0  0  0  0  0  0
   -7.2270    1.5480  -26.2760 Cl  0  0  0  0  0  0  0  0  0  0  0  0
   -7.4480   -0.6670  -24.7590 C   0  0  0  0  0  0  0  0  0  0  0  0
   -7.2640   -2.0200  -24.4550 C   0  0  0  0  0  0  0  0  0  0  0  0
   -7.9890   -0.0070  -24.0890 H   0  0  0  0  0  0  0  0  0  0  0  0
   -5.9120   -0.4960  -27.7940 H   0  0  0  0  0  0  0  0  0  0  0  0
   -5.5420   -2.9080  -27.2390 H   0  0  0  0  0  0  0  0  0  0  0  0
   -8.1710   -4.5960  -22.3930 H   0  0  0  0  0  0  0  0  0  0  0  0
   -8.8250   -4.3340  -24.0140 H   0  0  0  0  0  0  0  0  0  0  0  0
   -8.6070    0.1430  -21.8320 H   0  0  0  0  0  0  0  0  0  0  0  0
   -9.3020   -0.9770  -20.6860 H   0  0  0  0  0  0  0  0  0  0  0  0
   -9.4950   -1.2630  -23.5120 H   0  0  0  0  0  0  0  0  0  0  0  0
   -9.8680   -3.5320  -21.5690 H   0  0  0  0  0  0  0  0  0  0  0  0
  -10.9520   -2.1390  -21.6130 H   0  0  0  0  0  0  0  0  0  0  0  0
  -11.0210   -5.2240  -22.7540 H   0  0  0  0  0  0  0  0  0  0  0  0
  -12.2250   -4.6650  -23.9550 H   0  0  0  0  0  0  0  0  0  0  0  0
  -12.4030   -4.1930  -22.2500 H   0  0  0  0  0  0  0  0  0  0  0  0
  1  2  1  0  0  0  0
  1 59  1  0  0  0  0
  1 60  1  0  0  0  0
  1 61  1  0  0  0  0
  2  3  1  0  0  0  0
  3  4  1  0  0  0  0
  3 57  1  0  0  0  0
  3 58  1  0  0  0  0
  4  5  1  0  0  0  0
  4 25  1  0  0  0  0
  4 56  1  6  0  0  0
  5  6  1  0  0  0  0
  5 54  1  0  0  0  0
  5 55  1  0  0  0  0
  6  7  1  0  0  0  0
  6 23  1  0  0  0  0
  7  8  2  0  0  0  0
  7 16  1  0  0  0  0
  8  9  1  0  0  0  0
  8 22  1  0  0  0  0
  9 10  2  0  0  0  0
 10 11  1  0  0  0  0
 10 21  1  0  0  0  0
 11 12  2  0  0  0  0
 11 16  1  0  0  0  0
 12 13  1  0  0  0  0
 12 20  1  0  0  0  0
 13 14  2  0  0  0  0
 13 19  1  0  0  0  0
 14 15  1  0  0  0  0
 14 18  1  0  0  0  0
 15 16  2  0  0  0  0
 15 17  1  0  0  0  0
 23 24  2  0  0  0  0
 25 23  1  1  0  0  0
 25 26  1  0  0  0  0
 25 48  1  0  0  0  0
 26 27  1  0  0  0  0
 26 52  1  0  0  0  0
 26 53  1  0  0  0  0
 27 28  1  0  0  0  0
 27 40  1  0  0  0  0
 28 29  1  0  0  0  0
 28 38  1  0  0  0  0
 28 39  1  0  0  0  0
 29 30  2  0  0  0  0
 29 33  1  0  0  0  0
 30 31  1  0  0  0  0
 30 37  1  0  0  0  0
 31 32  2  0  0  0  0
 31 36  1  0  0  0  0
 32 33  1  0  0  0  0
 32 35  1  0  0  0  0
 33 34  1  0  0  0  0
 40 41  2  0  0  0  0
 40 42  1  0  0  0  0
 42 43  2  0  0  0  0
 42 48  1  0  0  0  0
 43 44  1  0  0  0  0
 43 51  1  0  0  0  0
 44 45  2  0  0  0  0
 44 50  1  0  0  0  0
 45 46  1  0  0  0  0
 45 47  1  0  0  0  0
 47 48  2  0  0  0  0
 47 49  1  0  0  0  0
M  CHG  1  31   1
M  END
>  <MODEL>
       1

$$$$
