tmp_first_model_11_88.pdb
 OpenBabel08272522543D

 40 42  0  0  0  0  0  0  0  0999 V2000
   -8.4920    0.7290  -21.5130 O   0  0  0  0  0  0  0  0  0  0  0  0
   -8.5460   -0.4630  -21.7630 C   0  0  0  0  0  0  0  0  0  0  0  0
   -7.4680   -1.4260  -21.2630 C   0  0  0  0  0  0  0  0  0  0  0  0
   -6.6080   -0.8320  -20.1840 C   0  0  0  0  0  0  0  0  0  0  0  0
   -6.9160   -1.0470  -18.8640 C   0  0  0  0  0  0  0  0  0  0  0  0
   -6.2350   -0.5430  -17.8020 N   0  0  0  0  0  0  0  0  0  0  0  0
   -5.1930    0.2090  -18.0730 C   0  0  0  0  0  0  0  0  0  0  0  0
   -4.7520    0.5120  -19.3890 C   0  0  0  0  0  0  0  0  0  0  0  0
   -3.6240    1.3360  -19.6220 C   0  0  0  0  0  0  0  0  0  0  0  0
   -3.2310    1.6320  -20.9000 C   0  0  0  0  0  0  0  0  0  0  0  0
   -3.9550    1.1160  -22.0010 C   0  0  0  0  0  0  0  0  0  0  0  0
   -5.0580    0.3220  -21.7990 C   0  0  0  0  0  0  0  0  0  0  0  0
   -5.4820   -0.0080  -20.4820 C   0  0  0  0  0  0  0  0  0  0  0  0
   -5.6270   -0.0380  -22.6510 H   0  0  0  0  0  0  0  0  0  0  0  0
   -3.6370    1.3630  -23.0110 H   0  0  0  0  0  0  0  0  0  0  0  0
   -2.3760    2.2780  -21.0720 H   0  0  0  0  0  0  0  0  0  0  0  0
   -3.1010    1.7420  -18.7590 H   0  0  0  0  0  0  0  0  0  0  0  0
   -4.6340    0.6250  -17.2330 H   0  0  0  0  0  0  0  0  0  0  0  0
   -7.7630   -1.6830  -18.5970 H   0  0  0  0  0  0  0  0  0  0  0  0
   -6.8740   -1.7660  -22.1240 H   0  0  0  0  0  0  0  0  0  0  0  0
   -7.9890   -2.3050  -20.8680 H   0  0  0  0  0  0  0  0  0  0  0  0
   -9.5730   -1.0160  -22.4850 N   0  0  0  0  0  0  0  0  0  0  0  0
  -10.6460   -0.1190  -22.8850 C   0  0  0  0  0  0  0  0  0  0  0  0
  -11.9990   -0.8040  -22.8550 C   0  0  0  0  0  0  0  0  0  0  0  0
  -12.0430   -1.9920  -23.8370 C   0  0  0  0  0  0  0  0  0  0  0  0
  -13.0720   -3.0050  -23.3650 C   0  0  0  0  0  0  0  0  0  0  0  0
  -12.6800   -3.6220  -22.2100 F   0  0  0  0  0  0  0  0  0  0  0  0
  -14.2480   -2.3590  -23.0980 F   0  0  0  0  0  0  0  0  0  0  0  0
  -13.2830   -3.7980  -24.0890 H   0  0  0  0  0  0  0  0  0  0  0  0
  -10.6270   -2.5760  -24.0560 C   0  0  0  0  0  0  0  0  0  0  0  0
   -9.7380   -2.4350  -22.8110 C   0  0  0  0  0  0  0  0  0  0  0  0
   -8.7550   -2.8810  -23.0030 H   0  0  0  0  0  0  0  0  0  0  0  0
  -10.1790   -2.9820  -21.9670 H   0  0  0  0  0  0  0  0  0  0  0  0
  -10.6640   -3.6290  -24.3740 H   0  0  0  0  0  0  0  0  0  0  0  0
  -10.1440   -2.0050  -24.8640 H   0  0  0  0  0  0  0  0  0  0  0  0
  -12.4240   -1.6400  -24.8070 H   0  0  0  0  0  0  0  0  0  0  0  0
  -12.2280   -1.1390  -21.8360 H   0  0  0  0  0  0  0  0  0  0  0  0
  -12.7450   -0.0720  -23.1800 H   0  0  0  0  0  0  0  0  0  0  0  0
  -10.6140    0.7270  -22.2010 H   0  0  0  0  0  0  0  0  0  0  0  0
  -10.4520    0.2460  -23.9030 H   0  0  0  0  0  0  0  0  0  0  0  0
  1  2  2  0  0  0  0
  2  3  1  0  0  0  0
  2 22  1  0  0  0  0
  3  4  1  0  0  0  0
  3 20  1  0  0  0  0
  3 21  1  0  0  0  0
  4  5  2  0  0  0  0
  4 13  1  0  0  0  0
  5  6  1  0  0  0  0
  5 19  1  0  0  0  0
  6  7  2  0  0  0  0
  7  8  1  0  0  0  0
  7 18  1  0  0  0  0
  8  9  2  0  0  0  0
  8 13  1  0  0  0  0
  9 10  1  0  0  0  0
  9 17  1  0  0  0  0
 10 11  2  0  0  0  0
 10 16  1  0  0  0  0
 11 12  1  0  0  0  0
 11 15  1  0  0  0  0
 12 13  2  0  0  0  0
 12 14  1  0  0  0  0
 22 23  1  0  0  0  0
 22 31  1  0  0  0  0
 23 24  1  0  0  0  0
 23 39  1  0  0  0  0
 23 40  1  0  0  0  0
 24 25  1  0  0  0  0
 24 37  1  0  0  0  0
 24 38  1  0  0  0  0
 25 26  1  0  0  0  0
 25 30  1  0  0  0  0
 25 36  1  0  0  0  0
 26 27  1  0  0  0  0
 26 28  1  0  0  0  0
 26 29  1  0  0  0  0
 30 31  1  0  0  0  0
 30 34  1  0  0  0  0
 30 35  1  0  0  0  0
 31 32  1  0  0  0  0
 31 33  1  0  0  0  0
M  END
>  <MODEL>
       1

$$$$
