tmp_first_model_12_71.pdb
 OpenBabel08272523333D

 50 54  0  0  1  0  0  0  0  0999 V2000
  -10.3680   -1.0840  -23.3670 C   0  0  0  0  0  0  0  0  0  0  0  0
   -8.9340   -1.4260  -22.9900 C   0  0  1  0  0  0  0  0  0  0  0  0
   -8.3990   -0.4700  -21.9150 C   0  0  0  0  0  0  0  0  0  0  0  0
   -7.3790   -1.2520  -21.2480 N   0  0  0  0  0  0  0  0  0  0  0  0
   -6.6110   -0.7450  -20.1770 C   0  0  0  0  0  0  0  0  0  0  0  0
   -6.8910   -1.0820  -18.8760 C   0  0  0  0  0  0  0  0  0  0  0  0
   -6.2070   -0.5960  -17.8080 N   0  0  0  0  0  0  0  0  0  0  0  0
   -5.2050    0.2170  -18.0480 C   0  0  0  0  0  0  0  0  0  0  0  0
   -4.7920    0.6170  -19.3520 C   0  0  0  0  0  0  0  0  0  0  0  0
   -3.6690    1.4530  -19.5770 C   0  0  0  0  0  0  0  0  0  0  0  0
   -3.3360    1.8370  -20.8480 C   0  0  0  0  0  0  0  0  0  0  0  0
   -4.1220    1.4280  -21.9500 C   0  0  0  0  0  0  0  0  0  0  0  0
   -5.2040    0.6070  -21.7600 C   0  0  0  0  0  0  0  0  0  0  0  0
   -5.5430    0.1610  -20.4550 C   0  0  0  0  0  0  0  0  0  0  0  0
   -5.7950    0.2670  -22.6070 H   0  0  0  0  0  0  0  0  0  0  0  0
   -3.8490    1.7410  -22.9550 H   0  0  0  0  0  0  0  0  0  0  0  0
   -2.4590    2.4530  -21.0240 H   0  0  0  0  0  0  0  0  0  0  0  0
   -3.0870    1.7710  -18.7170 H   0  0  0  0  0  0  0  0  0  0  0  0
   -4.6590    0.6050  -17.1880 H   0  0  0  0  0  0  0  0  0  0  0  0
   -7.7010   -1.7720  -18.6410 H   0  0  0  0  0  0  0  0  0  0  0  0
   -7.4790   -2.6060  -21.4870 C   0  0  0  0  0  0  0  0  0  0  0  0
   -6.6760   -3.4110  -21.0510 O   0  0  0  0  0  0  0  0  0  0  0  0
   -8.7180   -2.8590  -22.3750 C   0  0  1  0  0  0  0  0  0  0  0  0
   -9.9100   -3.2870  -21.4730 C   0  0  0  0  0  0  0  0  0  0  0  0
  -11.0800   -3.7280  -22.2370 N   0  0  0  0  0  0  0  0  0  0  0  0
  -12.4470   -3.5000  -21.7870 C   0  0  0  0  0  0  0  0  0  0  0  0
  -13.0490   -2.2420  -22.2710 C   0  0  0  0  0  0  0  0  0  0  0  0
  -13.5770   -1.2960  -22.6850 N   0  0  0  0  0  0  0  0  0  0  0  0
  -12.5030   -3.5300  -20.7000 H   0  0  0  0  0  0  0  0  0  0  0  0
  -13.0650   -4.3020  -22.1960 H   0  0  0  0  0  0  0  0  0  0  0  0
  -10.9320   -4.5720  -23.3070 C   0  0  0  0  0  0  0  0  0  0  0  0
  -11.8830   -5.1170  -23.8450 O   0  0  0  0  0  0  0  0  0  0  0  0
   -9.5370   -4.7610  -23.8070 C   0  0  0  0  0  0  0  0  0  0  0  0
   -9.3320   -5.7560  -24.7610 C   0  0  0  0  0  0  0  0  0  0  0  0
   -8.0910   -5.9350  -25.3400 C   0  0  0  0  0  0  0  0  0  0  0  0
   -7.0580   -5.0900  -24.9450 C   0  0  0  0  0  0  0  0  0  0  0  0
   -5.8500   -5.2380  -25.5150 F   0  0  0  0  0  0  0  0  0  0  0  0
   -7.2210   -4.1070  -23.9880 C   0  0  0  0  0  0  0  0  0  0  0  0
   -8.4810   -3.9410  -23.3980 C   0  0  0  0  0  0  0  0  0  0  0  0
   -6.3630   -3.5140  -23.6780 H   0  0  0  0  0  0  0  0  0  0  0  0
   -7.9040   -6.7060  -26.0820 H   0  0  0  0  0  0  0  0  0  0  0  0
  -10.1810   -6.3740  -25.0330 H   0  0  0  0  0  0  0  0  0  0  0  0
   -9.5610   -4.0810  -20.8020 H   0  0  0  0  0  0  0  0  0  0  0  0
  -10.1870   -2.4320  -20.8570 H   0  0  0  0  0  0  0  0  0  0  0  0
   -9.1970   -0.1920  -21.2100 H   0  0  0  0  0  0  0  0  0  0  0  0
   -8.0030    0.4700  -22.3140 H   0  0  0  0  0  0  0  0  0  0  0  0
   -8.2810   -1.3760  -23.8740 H   0  0  0  0  0  0  0  0  0  0  0  0
  -10.4510   -0.1340  -23.9000 H   0  0  0  0  0  0  0  0  0  0  0  0
  -10.9740   -0.9910  -22.4620 H   0  0  0  0  0  0  0  0  0  0  0  0
  -10.8160   -1.8680  -23.9830 H   0  0  0  0  0  0  0  0  0  0  0  0
  1  2  1  0  0  0  0
  1 48  1  0  0  0  0
  1 49  1  0  0  0  0
  1 50  1  0  0  0  0
  2  3  1  0  0  0  0
  2 23  1  0  0  0  0
  2 47  1  6  0  0  0
  3  4  1  0  0  0  0
  3 45  1  0  0  0  0
  3 46  1  0  0  0  0
  4  5  1  0  0  0  0
  4 21  1  0  0  0  0
  5  6  2  0  0  0  0
  5 14  1  0  0  0  0
  6  7  1  0  0  0  0
  6 20  1  0  0  0  0
  7  8  2  0  0  0  0
  8  9  1  0  0  0  0
  8 19  1  0  0  0  0
  9 10  2  0  0  0  0
  9 14  1  0  0  0  0
 10 11  1  0  0  0  0
 10 18  1  0  0  0  0
 11 12  2  0  0  0  0
 11 17  1  0  0  0  0
 12 13  1  0  0  0  0
 12 16  1  0  0  0  0
 13 14  2  0  0  0  0
 13 15  1  0  0  0  0
 21 22  2  0  0  0  0
 23 21  1  1  0  0  0
 23 24  1  0  0  0  0
 23 39  1  0  0  0  0
 24 25  1  0  0  0  0
 24 43  1  0  0  0  0
 24 44  1  0  0  0  0
 25 26  1  0  0  0  0
 25 31  1  0  0  0  0
 26 27  1  0  0  0  0
 26 29  1  0  0  0  0
 26 30  1  0  0  0  0
 27 28  3  0  0  0  0
 31 32  2  0  0  0  0
 31 33  1  0  0  0  0
 33 34  2  0  0  0  0
 33 39  1  0  0  0  0
 34 35  1  0  0  0  0
 34 42  1  0  0  0  0
 35 36  2  0  0  0  0
 35 41  1  0  0  0  0
 36 37  1  0  0  0  0
 36 38  1  0  0  0  0
 38 39  2  0  0  0  0
 38 40  1  0  0  0  0
M  END
>  <MODEL>
       1

$$$$
