tmp_first_model_10_67.pdb
 OpenBabel08272522163D

 58 63  0  0  1  0  0  0  0  0999 V2000
   -8.2760   -7.2400  -27.5040 C   0  0  0  0  0  0  0  0  0  0  0  0
   -7.7940   -5.8490  -27.2190 C   0  0  0  0  0  0  0  0  0  0  0  0
   -8.5170   -4.6280  -27.3600 C   0  0  0  0  0  0  0  0  0  0  0  0
   -7.6280   -3.6810  -26.9560 C   0  0  0  0  0  0  0  0  0  0  0  0
   -7.6980   -2.1910  -26.8120 C   0  0  0  0  0  0  0  0  0  0  0  0
   -8.5200   -1.7850  -25.6790 N   0  0  0  0  0  0  0  0  0  0  0  0
   -7.9070   -1.2720  -24.4560 C   0  0  0  0  0  0  0  0  0  0  0  0
   -8.7370   -1.5730  -23.1760 C   0  0  2  0  0  0  0  0  0  0  0  0
   -8.1840   -0.6380  -22.0890 C   0  0  0  0  0  0  0  0  0  0  0  0
   -8.3190    0.5710  -22.0400 O   0  0  0  0  0  0  0  0  0  0  0  0
   -7.4530   -1.3770  -21.1860 N   0  0  0  0  0  0  0  0  0  0  0  0
   -6.6650   -0.7820  -20.1760 C   0  0  0  0  0  0  0  0  0  0  0  0
   -6.9170   -1.0980  -18.8630 C   0  0  0  0  0  0  0  0  0  0  0  0
   -6.2260   -0.6120  -17.8070 N   0  0  0  0  0  0  0  0  0  0  0  0
   -5.2090    0.1720  -18.0730 C   0  0  0  0  0  0  0  0  0  0  0  0
   -4.8310    0.5720  -19.3870 C   0  0  0  0  0  0  0  0  0  0  0  0
   -3.7300    1.4460  -19.5980 C   0  0  0  0  0  0  0  0  0  0  0  0
   -3.4600    1.9200  -20.8500 C   0  0  0  0  0  0  0  0  0  0  0  0
   -4.2390    1.5040  -21.9530 C   0  0  0  0  0  0  0  0  0  0  0  0
   -5.2490    0.5910  -21.7880 C   0  0  0  0  0  0  0  0  0  0  0  0
   -5.5920    0.1180  -20.4830 C   0  0  0  0  0  0  0  0  0  0  0  0
   -5.8040    0.2590  -22.6560 H   0  0  0  0  0  0  0  0  0  0  0  0
   -4.0370    1.9200  -22.9360 H   0  0  0  0  0  0  0  0  0  0  0  0
   -2.6700    2.6470  -21.0010 H   0  0  0  0  0  0  0  0  0  0  0  0
   -3.1280    1.7310  -18.7380 H   0  0  0  0  0  0  0  0  0  0  0  0
   -4.6470    0.5580  -17.2240 H   0  0  0  0  0  0  0  0  0  0  0  0
   -7.7390   -1.7710  -18.6300 H   0  0  0  0  0  0  0  0  0  0  0  0
   -7.3880   -2.7940  -21.5000 C   0  0  0  0  0  0  0  0  0  0  0  0
   -8.5210   -2.9830  -22.5150 C   0  0  2  0  0  0  0  0  0  0  0  0
   -8.2620   -4.1330  -23.4710 C   0  0  0  0  0  0  0  0  0  0  0  0
   -7.2930   -3.9930  -23.9620 H   0  0  0  0  0  0  0  0  0  0  0  0
   -9.0360   -4.1740  -24.2440 H   0  0  0  0  0  0  0  0  0  0  0  0
   -8.2430   -5.0820  -22.9260 H   0  0  0  0  0  0  0  0  0  0  0  0
   -9.4390   -3.1840  -21.9400 H   0  0  0  0  0  0  0  0  0  0  0  0
   -7.5300   -3.3980  -20.5980 H   0  0  0  0  0  0  0  0  0  0  0  0
   -6.4090   -3.0660  -21.9260 H   0  0  0  0  0  0  0  0  0  0  0  0
  -10.1990   -1.3010  -23.4730 C   0  0  0  0  0  0  0  0  0  0  0  0
  -11.0840   -1.0290  -22.4250 C   0  0  0  0  0  0  0  0  0  0  0  0
  -12.4310   -0.8640  -22.6890 C   0  0  0  0  0  0  0  0  0  0  0  0
  -13.2770   -0.6270  -21.6790 F   0  0  0  0  0  0  0  0  0  0  0  0
  -12.9590   -0.9600  -23.9700 C   0  0  0  0  0  0  0  0  0  0  0  0
  -12.0910   -1.2530  -25.0020 C   0  0  0  0  0  0  0  0  0  0  0  0
  -10.7280   -1.4130  -24.7590 C   0  0  0  0  0  0  0  0  0  0  0  0
   -9.8680   -1.7600  -25.9160 C   0  0  0  0  0  0  0  0  0  0  0  0
  -10.3490   -2.0180  -27.0140 O   0  0  0  0  0  0  0  0  0  0  0  0
  -12.4410   -1.3790  -26.0200 H   0  0  0  0  0  0  0  0  0  0  0  0
  -14.0200   -0.8190  -24.1390 H   0  0  0  0  0  0  0  0  0  0  0  0
  -10.7090   -0.9510  -21.4140 H   0  0  0  0  0  0  0  0  0  0  0  0
   -6.8990   -1.7010  -24.3530 H   0  0  0  0  0  0  0  0  0  0  0  0
   -7.8000   -0.1770  -24.5250 H   0  0  0  0  0  0  0  0  0  0  0  0
   -8.1670   -1.7720  -27.7080 H   0  0  0  0  0  0  0  0  0  0  0  0
   -6.6970   -1.7700  -26.7100 H   0  0  0  0  0  0  0  0  0  0  0  0
   -6.4780   -4.2680  -26.6000 O   0  0  0  0  0  0  0  0  0  0  0  0
   -6.5810   -5.6370  -26.7720 N   0  0  0  0  0  0  0  0  0  0  0  0
   -9.5260   -4.5020  -27.7160 H   0  0  0  0  0  0  0  0  0  0  0  0
   -9.3350   -7.3400  -27.2440 H   0  0  0  0  0  0  0  0  0  0  0  0
   -7.6890   -7.9600  -26.9250 H   0  0  0  0  0  0  0  0  0  0  0  0
   -8.1770   -7.4790  -28.5700 H   0  0  0  0  0  0  0  0  0  0  0  0
  1  2  1  0  0  0  0
  1 56  1  0  0  0  0
  1 57  1  0  0  0  0
  1 58  1  0  0  0  0
  2  3  1  0  0  0  0
  2 54  2  0  0  0  0
  3  4  2  0  0  0  0
  3 55  1  0  0  0  0
  4  5  1  0  0  0  0
  4 53  1  0  0  0  0
  5  6  1  0  0  0  0
  5 51  1  0  0  0  0
  5 52  1  0  0  0  0
  6  7  1  0  0  0  0
  6 44  1  0  0  0  0
  7  8  1  0  0  0  0
  7 49  1  0  0  0  0
  7 50  1  0  0  0  0
  8  9  1  1  0  0  0
  8 29  1  0  0  0  0
  8 37  1  0  0  0  0
  9 10  2  0  0  0  0
  9 11  1  0  0  0  0
 11 12  1  0  0  0  0
 11 28  1  0  0  0  0
 12 13  2  0  0  0  0
 12 21  1  0  0  0  0
 13 14  1  0  0  0  0
 13 27  1  0  0  0  0
 14 15  2  0  0  0  0
 15 16  1  0  0  0  0
 15 26  1  0  0  0  0
 16 17  2  0  0  0  0
 16 21  1  0  0  0  0
 17 18  1  0  0  0  0
 17 25  1  0  0  0  0
 18 19  2  0  0  0  0
 18 24  1  0  0  0  0
 19 20  1  0  0  0  0
 19 23  1  0  0  0  0
 20 21  2  0  0  0  0
 20 22  1  0  0  0  0
 28 29  1  0  0  0  0
 28 35  1  0  0  0  0
 28 36  1  0  0  0  0
 29 30  1  0  0  0  0
 29 34  1  1  0  0  0
 30 31  1  0  0  0  0
 30 32  1  0  0  0  0
 30 33  1  0  0  0  0
 37 38  2  0  0  0  0
 37 43  1  0  0  0  0
 38 39  1  0  0  0  0
 38 48  1  0  0  0  0
 39 40  1  0  0  0  0
 39 41  2  0  0  0  0
 41 42  1  0  0  0  0
 41 47  1  0  0  0  0
 42 43  2  0  0  0  0
 42 46  1  0  0  0  0
 43 44  1  0  0  0  0
 44 45  2  0  0  0  0
 53 54  1  0  0  0  0
M  END
>  <MODEL>
       1

$$$$
