tmp_first_model_8_92.pdb
 OpenBabel08272521063D

 60 65  0  0  1  0  0  0  0  0999 V2000
   -6.7830   -3.4360  -26.0880 C   0  0  0  0  0  0  0  0  0  0  0  0
   -7.0150   -2.8960  -24.8120 O   0  0  0  0  0  0  0  0  0  0  0  0
   -7.9980   -3.5970  -24.0790 C   0  0  0  0  0  0  0  0  0  0  0  0
   -8.3060   -2.8830  -22.7630 C   0  0  1  0  0  0  0  0  0  0  0  0
   -7.0320   -2.5410  -21.9740 C   0  0  0  0  0  0  0  0  0  0  0  0
   -7.3930   -1.3430  -21.2420 N   0  0  0  0  0  0  0  0  0  0  0  0
   -6.6140   -0.8000  -20.1910 C   0  0  0  0  0  0  0  0  0  0  0  0
   -6.9350   -1.0470  -18.8820 C   0  0  0  0  0  0  0  0  0  0  0  0
   -6.2310   -0.5750  -17.8230 N   0  0  0  0  0  0  0  0  0  0  0  0
   -5.1970    0.1910  -18.0800 C   0  0  0  0  0  0  0  0  0  0  0  0
   -4.7650    0.5410  -19.3910 C   0  0  0  0  0  0  0  0  0  0  0  0
   -3.6520    1.3930  -19.6240 C   0  0  0  0  0  0  0  0  0  0  0  0
   -3.2830    1.7110  -20.9020 C   0  0  0  0  0  0  0  0  0  0  0  0
   -3.9930    1.1870  -22.0020 C   0  0  0  0  0  0  0  0  0  0  0  0
   -5.0390    0.3180  -21.8020 C   0  0  0  0  0  0  0  0  0  0  0  0
   -5.4760    0.0070  -20.4880 C   0  0  0  0  0  0  0  0  0  0  0  0
   -5.5440   -0.1280  -22.6530 H   0  0  0  0  0  0  0  0  0  0  0  0
   -3.6740    1.4510  -23.0080 H   0  0  0  0  0  0  0  0  0  0  0  0
   -2.4230    2.3500  -21.0790 H   0  0  0  0  0  0  0  0  0  0  0  0
   -3.1110    1.7810  -18.7660 H   0  0  0  0  0  0  0  0  0  0  0  0
   -4.6410    0.5800  -17.2260 H   0  0  0  0  0  0  0  0  0  0  0  0
   -7.7990   -1.6640  -18.6450 H   0  0  0  0  0  0  0  0  0  0  0  0
   -8.6170   -0.8090  -21.5770 C   0  0  0  0  0  0  0  0  0  0  0  0
   -9.1700    0.0850  -20.9700 O   0  0  0  0  0  0  0  0  0  0  0  0
   -9.1540   -1.5720  -22.8140 C   0  0  1  0  0  0  0  0  0  0  0  0
   -8.8880   -0.7870  -24.1260 C   0  0  0  0  0  0  0  0  0  0  0  0
   -9.7240    0.3950  -24.2450 N   0  0  0  0  0  0  0  0  0  0  0  0
   -9.1360    1.6250  -24.7640 C   0  0  0  0  0  0  0  0  0  0  0  0
   -8.3290    2.3900  -23.7450 C   0  0  0  0  0  0  0  0  0  0  0  0
   -8.8500    3.3070  -22.7970 C   0  0  0  0  0  0  0  0  0  0  0  0
   -7.9080    3.7730  -21.9740 N   0  0  0  0  0  0  0  0  0  0  0  0
   -6.7910    3.1730  -22.3890 N   0  0  0  0  0  0  0  0  0  0  0  0
   -6.9820    2.3390  -23.4430 C   0  0  0  0  0  0  0  0  0  0  0  0
   -6.1330    1.7940  -23.8350 H   0  0  0  0  0  0  0  0  0  0  0  0
   -5.8980    3.3410  -21.9430 H   0  0  0  0  0  0  0  0  0  0  0  0
   -9.8680    3.6600  -22.6800 H   0  0  0  0  0  0  0  0  0  0  0  0
   -8.5340    1.3670  -25.6410 H   0  0  0  0  0  0  0  0  0  0  0  0
   -9.9750    2.2340  -25.1150 H   0  0  0  0  0  0  0  0  0  0  0  0
  -11.0680    0.3650  -23.9920 C   0  0  0  0  0  0  0  0  0  0  0  0
  -11.8210    1.2680  -24.3270 O   0  0  0  0  0  0  0  0  0  0  0  0
  -11.5550   -0.8360  -23.2470 C   0  0  0  0  0  0  0  0  0  0  0  0
  -12.9320   -0.9580  -23.0670 C   0  0  0  0  0  0  0  0  0  0  0  0
  -13.4420   -1.9250  -22.2300 C   0  0  0  0  0  0  0  0  0  0  0  0
  -12.5480   -2.7600  -21.5670 C   0  0  0  0  0  0  0  0  0  0  0  0
  -13.1880   -3.8540  -20.3900 Cl  0  0  0  0  0  0  0  0  0  0  0  0
  -11.1830   -2.6930  -21.7830 C   0  0  0  0  0  0  0  0  0  0  0  0
  -10.6570   -1.7400  -22.6630 C   0  0  0  0  0  0  0  0  0  0  0  0
  -10.5370   -3.3650  -21.2320 H   0  0  0  0  0  0  0  0  0  0  0  0
  -14.5070   -2.0160  -22.0480 H   0  0  0  0  0  0  0  0  0  0  0  0
  -13.5740   -0.2480  -23.5760 H   0  0  0  0  0  0  0  0  0  0  0  0
   -9.0710   -1.4710  -24.9650 H   0  0  0  0  0  0  0  0  0  0  0  0
   -7.8420   -0.4730  -24.1690 H   0  0  0  0  0  0  0  0  0  0  0  0
   -6.1840   -2.3650  -22.6460 H   0  0  0  0  0  0  0  0  0  0  0  0
   -6.7610   -3.3490  -21.2850 H   0  0  0  0  0  0  0  0  0  0  0  0
   -8.8840   -3.6000  -22.1740 H   0  0  0  0  0  0  0  0  0  0  0  0
   -7.6340   -4.6110  -23.8580 H   0  0  0  0  0  0  0  0  0  0  0  0
   -8.9190   -3.6980  -24.6770 H   0  0  0  0  0  0  0  0  0  0  0  0
   -6.0190   -2.8230  -26.5750 H   0  0  0  0  0  0  0  0  0  0  0  0
   -6.4180   -4.4710  -26.0270 H   0  0  0  0  0  0  0  0  0  0  0  0
   -7.6940   -3.4190  -26.7050 H   0  0  0  0  0  0  0  0  0  0  0  0
  1  2  1  0  0  0  0
  1 58  1  0  0  0  0
  1 59  1  0  0  0  0
  1 60  1  0  0  0  0
  2  3  1  0  0  0  0
  3  4  1  0  0  0  0
  3 56  1  0  0  0  0
  3 57  1  0  0  0  0
  4  5  1  0  0  0  0
  4 25  1  0  0  0  0
  4 55  1  1  0  0  0
  5  6  1  0  0  0  0
  5 53  1  0  0  0  0
  5 54  1  0  0  0  0
  6  7  1  0  0  0  0
  6 23  1  0  0  0  0
  7  8  2  0  0  0  0
  7 16  1  0  0  0  0
  8  9  1  0  0  0  0
  8 22  1  0  0  0  0
  9 10  2  0  0  0  0
 10 11  1  0  0  0  0
 10 21  1  0  0  0  0
 11 12  2  0  0  0  0
 11 16  1  0  0  0  0
 12 13  1  0  0  0  0
 12 20  1  0  0  0  0
 13 14  2  0  0  0  0
 13 19  1  0  0  0  0
 14 15  1  0  0  0  0
 14 18  1  0  0  0  0
 15 16  2  0  0  0  0
 15 17  1  0  0  0  0
 23 24  2  0  0  0  0
 25 23  1  1  0  0  0
 25 26  1  0  0  0  0
 25 47  1  0  0  0  0
 26 27  1  0  0  0  0
 26 51  1  0  0  0  0
 26 52  1  0  0  0  0
 27 28  1  0  0  0  0
 27 39  1  0  0  0  0
 28 29  1  0  0  0  0
 28 37  1  0  0  0  0
 28 38  1  0  0  0  0
 29 30  1  0  0  0  0
 29 33  2  0  0  0  0
 30 31  2  0  0  0  0
 30 36  1  0  0  0  0
 31 32  1  0  0  0  0
 32 33  1  0  0  0  0
 32 35  1  0  0  0  0
 33 34  1  0  0  0  0
 39 40  2  0  0  0  0
 39 41  1  0  0  0  0
 41 42  2  0  0  0  0
 41 47  1  0  0  0  0
 42 43  1  0  0  0  0
 42 50  1  0  0  0  0
 43 44  2  0  0  0  0
 43 49  1  0  0  0  0
 44 45  1  0  0  0  0
 44 46  1  0  0  0  0
 46 47  2  0  0  0  0
 46 48  1  0  0  0  0
M  END
>  <MODEL>
       1

$$$$
