tmp_first_model_20_13.pdb
 OpenBabel08282503553D

 69 74  0  0  1  0  0  0  0  0999 V2000
   -7.7480    3.0200  -22.2820 C   0  0  0  0  0  0  0  0  0  0  0  0
   -8.7310    2.5560  -23.2350 N   0  0  0  0  0  0  0  0  0  0  0  0
   -8.2920    1.9550  -24.3700 C   0  0  0  0  0  0  0  0  0  0  0  0
   -7.1080    1.8820  -24.6780 O   0  0  0  0  0  0  0  0  0  0  0  0
   -9.3950    1.2840  -25.1970 C   0  0  0  0  0  0  0  0  0  0  0  0
   -9.9620    0.1510  -24.4790 N   0  0  0  0  0  0  0  0  0  0  0  0
   -9.0300   -0.9210  -24.1800 C   0  0  0  0  0  0  0  0  0  0  0  0
   -9.3020   -1.6680  -22.8380 C   0  0  2  0  0  0  0  0  0  0  0  0
   -8.7500   -0.7980  -21.6690 C   0  0  0  0  0  0  0  0  0  0  0  0
   -9.2890    0.1800  -21.1910 O   0  0  0  0  0  0  0  0  0  0  0  0
   -7.5290   -1.3040  -21.2760 N   0  0  0  0  0  0  0  0  0  0  0  0
   -6.7480   -0.7500  -20.2240 C   0  0  0  0  0  0  0  0  0  0  0  0
   -7.0530   -1.0160  -18.9120 C   0  0  0  0  0  0  0  0  0  0  0  0
   -6.3260   -0.5800  -17.8500 N   0  0  0  0  0  0  0  0  0  0  0  0
   -5.2570    0.1360  -18.1030 C   0  0  0  0  0  0  0  0  0  0  0  0
   -4.8130    0.4800  -19.4120 C   0  0  0  0  0  0  0  0  0  0  0  0
   -3.6520    1.2690  -19.6410 C   0  0  0  0  0  0  0  0  0  0  0  0
   -3.2690    1.5900  -20.9140 C   0  0  0  0  0  0  0  0  0  0  0  0
   -4.0300    1.1490  -22.0200 C   0  0  0  0  0  0  0  0  0  0  0  0
   -5.1590    0.3880  -21.8230 C   0  0  0  0  0  0  0  0  0  0  0  0
   -5.5790    0.0260  -20.5130 C   0  0  0  0  0  0  0  0  0  0  0  0
   -5.7770    0.1250  -22.6770 H   0  0  0  0  0  0  0  0  0  0  0  0
   -3.7410    1.4300  -23.0280 H   0  0  0  0  0  0  0  0  0  0  0  0
   -2.3900    2.2060  -21.0870 H   0  0  0  0  0  0  0  0  0  0  0  0
   -3.0850    1.6220  -18.7820 H   0  0  0  0  0  0  0  0  0  0  0  0
   -4.6750    0.4860  -17.2480 H   0  0  0  0  0  0  0  0  0  0  0  0
   -7.9230   -1.6240  -18.6740 H   0  0  0  0  0  0  0  0  0  0  0  0
   -7.0970   -2.4550  -22.0420 C   0  0  0  0  0  0  0  0  0  0  0  0
   -8.3960   -2.9330  -22.7090 C   0  0  2  0  0  0  0  0  0  0  0  0
   -8.1360   -3.7380  -23.9790 C   0  0  0  0  0  0  0  0  0  0  0  0
   -9.3760   -4.2330  -24.5200 N   0  0  0  0  0  0  0  0  0  0  0  0
   -9.4170   -4.8240  -25.7380 C   0  0  0  0  0  0  0  0  0  0  0  0
  -10.6250   -5.3050  -26.2700 C   0  0  0  0  0  0  0  0  0  0  0  0
  -10.5640   -5.8460  -27.5320 C   0  0  0  0  0  0  0  0  0  0  0  0
   -9.4260   -5.9590  -28.2300 N   0  0  0  0  0  0  0  0  0  0  0  0
   -8.3280   -5.5290  -27.6090 C   0  0  0  0  0  0  0  0  0  0  0  0
   -7.0170   -5.7420  -28.3110 C   0  0  0  0  0  0  0  0  0  0  0  0
   -7.1610   -5.6890  -29.3930 H   0  0  0  0  0  0  0  0  0  0  0  0
   -6.6270   -6.7400  -28.0710 H   0  0  0  0  0  0  0  0  0  0  0  0
   -6.2830   -5.0000  -27.9870 H   0  0  0  0  0  0  0  0  0  0  0  0
   -8.2640   -4.9450  -26.4060 N   0  0  0  0  0  0  0  0  0  0  0  0
  -11.4660   -6.2180  -28.0180 H   0  0  0  0  0  0  0  0  0  0  0  0
  -11.5440   -5.2790  -25.6950 H   0  0  0  0  0  0  0  0  0  0  0  0
  -10.2490   -3.9740  -24.0790 H   0  0  0  0  0  0  0  0  0  0  0  0
   -7.4690   -4.5880  -23.7940 H   0  0  0  0  0  0  0  0  0  0  0  0
   -7.6140   -3.1330  -24.7340 H   0  0  0  0  0  0  0  0  0  0  0  0
   -8.8890   -3.5910  -21.9880 H   0  0  0  0  0  0  0  0  0  0  0  0
   -6.3230   -2.1850  -22.7790 H   0  0  0  0  0  0  0  0  0  0  0  0
   -6.6620   -3.2120  -21.3810 H   0  0  0  0  0  0  0  0  0  0  0  0
  -10.8100   -1.8820  -22.6700 C   0  0  0  0  0  0  0  0  0  0  0  0
  -11.3700   -2.9250  -21.9130 C   0  0  0  0  0  0  0  0  0  0  0  0
  -12.7350   -2.9450  -21.6470 C   0  0  0  0  0  0  0  0  0  0  0  0
  -13.4440   -4.1940  -20.6640 Cl  0  0  0  0  0  0  0  0  0  0  0  0
  -13.5970   -1.9630  -22.1260 C   0  0  0  0  0  0  0  0  0  0  0  0
  -13.0630   -0.9340  -22.8660 C   0  0  0  0  0  0  0  0  0  0  0  0
  -11.6970   -0.8980  -23.1440 C   0  0  0  0  0  0  0  0  0  0  0  0
  -11.2130    0.2650  -23.9510 C   0  0  0  0  0  0  0  0  0  0  0  0
  -11.8960    1.2690  -24.1200 O   0  0  0  0  0  0  0  0  0  0  0  0
  -13.6880   -0.1240  -23.2270 H   0  0  0  0  0  0  0  0  0  0  0  0
  -14.6570   -2.0200  -21.9040 H   0  0  0  0  0  0  0  0  0  0  0  0
  -10.7620   -3.7170  -21.4900 H   0  0  0  0  0  0  0  0  0  0  0  0
   -8.0390   -0.4590  -24.1410 H   0  0  0  0  0  0  0  0  0  0  0  0
   -9.0210   -1.6080  -25.0330 H   0  0  0  0  0  0  0  0  0  0  0  0
   -8.9340    0.9790  -26.1410 H   0  0  0  0  0  0  0  0  0  0  0  0
  -10.2210    1.9730  -25.3800 H   0  0  0  0  0  0  0  0  0  0  0  0
   -9.6750    2.3880  -22.9130 H   0  0  0  0  0  0  0  0  0  0  0  0
   -7.0310    2.2200  -22.0750 H   0  0  0  0  0  0  0  0  0  0  0  0
   -7.1870    3.8780  -22.6730 H   0  0  0  0  0  0  0  0  0  0  0  0
   -8.2130    3.2860  -21.3300 H   0  0  0  0  0  0  0  0  0  0  0  0
  1  2  1  0  0  0  0
  1 67  1  0  0  0  0
  1 68  1  0  0  0  0
  1 69  1  0  0  0  0
  2  3  1  0  0  0  0
  2 66  1  0  0  0  0
  3  4  2  0  0  0  0
  3  5  1  0  0  0  0
  5  6  1  0  0  0  0
  5 64  1  0  0  0  0
  5 65  1  0  0  0  0
  6  7  1  0  0  0  0
  6 57  1  0  0  0  0
  7  8  1  0  0  0  0
  7 62  1  0  0  0  0
  7 63  1  0  0  0  0
  8  9  1  1  0  0  0
  8 29  1  0  0  0  0
  8 50  1  0  0  0  0
  9 10  2  0  0  0  0
  9 11  1  0  0  0  0
 11 12  1  0  0  0  0
 11 28  1  0  0  0  0
 12 13  2  0  0  0  0
 12 21  1  0  0  0  0
 13 14  1  0  0  0  0
 13 27  1  0  0  0  0
 14 15  2  0  0  0  0
 15 16  1  0  0  0  0
 15 26  1  0  0  0  0
 16 17  2  0  0  0  0
 16 21  1  0  0  0  0
 17 18  1  0  0  0  0
 17 25  1  0  0  0  0
 18 19  2  0  0  0  0
 18 24  1  0  0  0  0
 19 20  1  0  0  0  0
 19 23  1  0  0  0  0
 20 21  2  0  0  0  0
 20 22  1  0  0  0  0
 28 29  1  0  0  0  0
 28 48  1  0  0  0  0
 28 49  1  0  0  0  0
 29 30  1  0  0  0  0
 29 47  1  1  0  0  0
 30 31  1  0  0  0  0
 30 45  1  0  0  0  0
 30 46  1  0  0  0  0
 31 32  1  0  0  0  0
 31 44  1  0  0  0  0
 32 33  2  0  0  0  0
 32 41  1  0  0  0  0
 33 34  1  0  0  0  0
 33 43  1  0  0  0  0
 34 35  2  0  0  0  0
 34 42  1  0  0  0  0
 35 36  1  0  0  0  0
 36 37  1  0  0  0  0
 36 41  2  0  0  0  0
 37 38  1  0  0  0  0
 37 39  1  0  0  0  0
 37 40  1  0  0  0  0
 50 51  2  0  0  0  0
 50 56  1  0  0  0  0
 51 52  1  0  0  0  0
 51 61  1  0  0  0  0
 52 53  1  0  0  0  0
 52 54  2  0  0  0  0
 54 55  1  0  0  0  0
 54 60  1  0  0  0  0
 55 56  2  0  0  0  0
 55 59  1  0  0  0  0
 56 57  1  0  0  0  0
 57 58  2  0  0  0  0
M  END
>  <MODEL>
       1

$$$$
