tmp_first_model_19_48.pdb
 OpenBabel08282503233D

 46 48  0  0  0  0  0  0  0  0999 V2000
  -10.5020   -6.2330  -26.2180 C   0  0  0  0  0  0  0  0  0  0  0  0
   -9.2390   -6.4010  -25.3730 C   0  0  0  0  0  0  0  0  0  0  0  0
   -8.0530   -6.5400  -26.3270 C   0  0  0  0  0  0  0  0  0  0  0  0
   -7.9420   -5.6290  -26.9300 H   0  0  0  0  0  0  0  0  0  0  0  0
   -8.2510   -7.3670  -27.0260 H   0  0  0  0  0  0  0  0  0  0  0  0
   -7.1110   -6.7560  -25.8080 H   0  0  0  0  0  0  0  0  0  0  0  0
   -9.0790   -5.3520  -24.2430 C   0  0  0  0  0  0  0  0  0  0  0  0
   -7.9980   -5.7660  -23.2190 C   0  0  0  0  0  0  0  0  0  0  0  0
   -6.8370   -4.7890  -23.1210 C   0  0  0  0  0  0  0  0  0  0  0  0
   -7.3630   -3.4830  -22.7380 N   0  0  0  0  0  0  0  0  0  0  0  0
   -6.6780   -2.7550  -21.8160 C   0  0  0  0  0  0  0  0  0  0  0  0
   -5.5700   -3.0860  -21.4150 O   0  0  0  0  0  0  0  0  0  0  0  0
   -7.3770   -1.4960  -21.2870 C   0  0  0  0  0  0  0  0  0  0  0  0
   -6.5930   -0.8490  -20.1960 C   0  0  0  0  0  0  0  0  0  0  0  0
   -6.9070   -1.0790  -18.8850 C   0  0  0  0  0  0  0  0  0  0  0  0
   -6.2300   -0.5820  -17.8190 N   0  0  0  0  0  0  0  0  0  0  0  0
   -5.1940    0.1800  -18.0820 C   0  0  0  0  0  0  0  0  0  0  0  0
   -4.7370    0.4820  -19.3940 C   0  0  0  0  0  0  0  0  0  0  0  0
   -3.6080    1.3070  -19.6290 C   0  0  0  0  0  0  0  0  0  0  0  0
   -3.2100    1.5920  -20.9060 C   0  0  0  0  0  0  0  0  0  0  0  0
   -3.9130    1.0540  -22.0050 C   0  0  0  0  0  0  0  0  0  0  0  0
   -5.0050    0.2470  -21.8070 C   0  0  0  0  0  0  0  0  0  0  0  0
   -5.4530   -0.0500  -20.4890 C   0  0  0  0  0  0  0  0  0  0  0  0
   -5.5260   -0.1710  -22.6630 H   0  0  0  0  0  0  0  0  0  0  0  0
   -3.5930    1.2970  -23.0160 H   0  0  0  0  0  0  0  0  0  0  0  0
   -2.3570    2.2430  -21.0810 H   0  0  0  0  0  0  0  0  0  0  0  0
   -3.0850    1.7250  -18.7710 H   0  0  0  0  0  0  0  0  0  0  0  0
   -4.6550    0.5930  -17.2280 H   0  0  0  0  0  0  0  0  0  0  0  0
   -7.7600   -1.7090  -18.6350 H   0  0  0  0  0  0  0  0  0  0  0  0
   -7.5320   -0.7840  -22.1050 H   0  0  0  0  0  0  0  0  0  0  0  0
   -8.3700   -1.7820  -20.9150 H   0  0  0  0  0  0  0  0  0  0  0  0
   -8.6590   -3.0960  -23.2990 C   0  0  0  0  0  0  0  0  0  0  0  0
   -8.9160   -3.8680  -24.5980 C   0  0  0  0  0  0  0  0  0  0  0  0
   -8.0810   -3.7220  -25.2910 H   0  0  0  0  0  0  0  0  0  0  0  0
   -9.8170   -3.4670  -25.0870 H   0  0  0  0  0  0  0  0  0  0  0  0
   -8.6730   -2.0220  -23.5000 H   0  0  0  0  0  0  0  0  0  0  0  0
   -9.4730   -3.2890  -22.5760 H   0  0  0  0  0  0  0  0  0  0  0  0
   -6.1500   -5.1190  -22.3430 H   0  0  0  0  0  0  0  0  0  0  0  0
   -6.2620   -4.7170  -24.0550 H   0  0  0  0  0  0  0  0  0  0  0  0
   -8.4550   -5.7790  -22.2250 H   0  0  0  0  0  0  0  0  0  0  0  0
   -7.6300   -6.7790  -23.4250 H   0  0  0  0  0  0  0  0  0  0  0  0
  -10.0310   -5.3630  -23.7040 H   0  0  0  0  0  0  0  0  0  0  0  0
   -9.3530   -7.3670  -24.8530 H   0  0  0  0  0  0  0  0  0  0  0  0
  -11.4170   -6.1250  -25.6310 H   0  0  0  0  0  0  0  0  0  0  0  0
  -10.4190   -5.3670  -26.8880 H   0  0  0  0  0  0  0  0  0  0  0  0
  -10.6200   -7.1430  -26.8240 H   0  0  0  0  0  0  0  0  0  0  0  0
  1  2  1  0  0  0  0
  1 44  1  0  0  0  0
  1 45  1  0  0  0  0
  1 46  1  0  0  0  0
  2  3  1  0  0  0  0
  2  7  1  0  0  0  0
  2 43  1  0  0  0  0
  3  4  1  0  0  0  0
  3  5  1  0  0  0  0
  3  6  1  0  0  0  0
  7  8  1  0  0  0  0
  7 33  1  0  0  0  0
  7 42  1  0  0  0  0
  8  9  1  0  0  0  0
  8 40  1  0  0  0  0
  8 41  1  0  0  0  0
  9 10  1  0  0  0  0
  9 38  1  0  0  0  0
  9 39  1  0  0  0  0
 10 11  1  0  0  0  0
 10 32  1  0  0  0  0
 11 12  2  0  0  0  0
 11 13  1  0  0  0  0
 13 14  1  0  0  0  0
 13 30  1  0  0  0  0
 13 31  1  0  0  0  0
 14 15  2  0  0  0  0
 14 23  1  0  0  0  0
 15 16  1  0  0  0  0
 15 29  1  0  0  0  0
 16 17  2  0  0  0  0
 17 18  1  0  0  0  0
 17 28  1  0  0  0  0
 18 19  2  0  0  0  0
 18 23  1  0  0  0  0
 19 20  1  0  0  0  0
 19 27  1  0  0  0  0
 20 21  2  0  0  0  0
 20 26  1  0  0  0  0
 21 22  1  0  0  0  0
 21 25  1  0  0  0  0
 22 23  2  0  0  0  0
 22 24  1  0  0  0  0
 32 33  1  0  0  0  0
 32 36  1  0  0  0  0
 32 37  1  0  0  0  0
 33 34  1  0  0  0  0
 33 35  1  0  0  0  0
M  END
>  <MODEL>
       1

$$$$
