tmp_first_model_3_61.pdb
 OpenBabel08272518143D

 44 47  0  0  0  0  0  0  0  0999 V2000
   -9.0470    0.3370  -21.1190 O   0  0  0  0  0  0  0  0  0  0  0  0
   -8.3560   -0.3300  -21.8660 C   0  0  0  0  0  0  0  0  0  0  0  0
   -7.4320   -1.4150  -21.2750 C   0  0  0  0  0  0  0  0  0  0  0  0
   -6.5700   -0.8340  -20.1730 C   0  0  0  0  0  0  0  0  0  0  0  0
   -6.8770   -1.0400  -18.8540 C   0  0  0  0  0  0  0  0  0  0  0  0
   -6.1940   -0.5320  -17.7910 N   0  0  0  0  0  0  0  0  0  0  0  0
   -5.1570    0.2230  -18.0630 C   0  0  0  0  0  0  0  0  0  0  0  0
   -4.7200    0.5330  -19.3790 C   0  0  0  0  0  0  0  0  0  0  0  0
   -3.5970    1.3650  -19.6220 C   0  0  0  0  0  0  0  0  0  0  0  0
   -3.2080    1.6580  -20.9010 C   0  0  0  0  0  0  0  0  0  0  0  0
   -3.9290    1.1250  -21.9940 C   0  0  0  0  0  0  0  0  0  0  0  0
   -5.0180    0.3160  -21.7870 C   0  0  0  0  0  0  0  0  0  0  0  0
   -5.4460   -0.0050  -20.4710 C   0  0  0  0  0  0  0  0  0  0  0  0
   -5.5600   -0.0800  -22.6430 H   0  0  0  0  0  0  0  0  0  0  0  0
   -3.6150    1.3670  -23.0060 H   0  0  0  0  0  0  0  0  0  0  0  0
   -2.3530    2.3050  -21.0850 H   0  0  0  0  0  0  0  0  0  0  0  0
   -3.0620    1.7800  -18.7710 H   0  0  0  0  0  0  0  0  0  0  0  0
   -4.6010    0.6290  -17.2150 H   0  0  0  0  0  0  0  0  0  0  0  0
   -7.7300   -1.6610  -18.5830 H   0  0  0  0  0  0  0  0  0  0  0  0
   -6.8110   -1.8930  -22.0430 H   0  0  0  0  0  0  0  0  0  0  0  0
   -8.0810   -2.1890  -20.8450 H   0  0  0  0  0  0  0  0  0  0  0  0
   -8.3420   -0.1180  -23.2380 N   0  0  0  0  0  0  0  0  0  0  0  0
   -8.0790   -1.1560  -24.2220 C   0  0  0  0  0  0  0  0  0  0  0  0
   -8.9620   -0.9720  -25.4570 C   0  0  0  0  0  0  0  0  0  0  0  0
   -8.8510    0.4290  -26.0370 C   0  0  0  0  0  0  0  0  0  0  0  0
   -9.6540    0.6340  -27.3410 C   0  0  0  0  0  0  0  0  0  0  0  0
   -8.3540    0.9020  -28.1290 C   0  0  0  0  0  0  0  0  0  0  0  0
   -7.5440    0.6980  -26.8310 C   0  0  0  0  0  0  0  0  0  0  0  0
   -6.9860    1.5760  -26.4960 H   0  0  0  0  0  0  0  0  0  0  0  0
   -6.8530   -0.1480  -26.8510 H   0  0  0  0  0  0  0  0  0  0  0  0
   -8.1450    0.1770  -28.9190 H   0  0  0  0  0  0  0  0  0  0  0  0
   -8.2800    1.9040  -28.5600 H   0  0  0  0  0  0  0  0  0  0  0  0
  -10.2260   -0.2390  -27.6660 H   0  0  0  0  0  0  0  0  0  0  0  0
  -10.3360    1.4830  -27.3020 H   0  0  0  0  0  0  0  0  0  0  0  0
   -9.1570    1.4560  -24.9540 C   0  0  0  0  0  0  0  0  0  0  0  0
   -8.2790    1.2580  -23.7280 C   0  0  0  0  0  0  0  0  0  0  0  0
   -7.2370    1.5320  -23.9720 H   0  0  0  0  0  0  0  0  0  0  0  0
   -8.5980    1.9130  -22.9150 H   0  0  0  0  0  0  0  0  0  0  0  0
   -9.0120    2.4660  -25.3540 H   0  0  0  0  0  0  0  0  0  0  0  0
  -10.2150    1.3940  -24.6700 H   0  0  0  0  0  0  0  0  0  0  0  0
   -8.6830   -1.7060  -26.2180 H   0  0  0  0  0  0  0  0  0  0  0  0
  -10.0090   -1.1840  -25.2070 H   0  0  0  0  0  0  0  0  0  0  0  0
   -7.0190   -1.1720  -24.5300 H   0  0  0  0  0  0  0  0  0  0  0  0
   -8.2970   -2.1250  -23.7700 H   0  0  0  0  0  0  0  0  0  0  0  0
  1  2  2  0  0  0  0
  2  3  1  0  0  0  0
  2 22  1  0  0  0  0
  3  4  1  0  0  0  0
  3 20  1  0  0  0  0
  3 21  1  0  0  0  0
  4  5  2  0  0  0  0
  4 13  1  0  0  0  0
  5  6  1  0  0  0  0
  5 19  1  0  0  0  0
  6  7  2  0  0  0  0
  7  8  1  0  0  0  0
  7 18  1  0  0  0  0
  8  9  2  0  0  0  0
  8 13  1  0  0  0  0
  9 10  1  0  0  0  0
  9 17  1  0  0  0  0
 10 11  2  0  0  0  0
 10 16  1  0  0  0  0
 11 12  1  0  0  0  0
 11 15  1  0  0  0  0
 12 13  2  0  0  0  0
 12 14  1  0  0  0  0
 22 23  1  0  0  0  0
 22 36  1  0  0  0  0
 23 24  1  0  0  0  0
 23 43  1  0  0  0  0
 23 44  1  0  0  0  0
 24 25  1  0  0  0  0
 24 41  1  0  0  0  0
 24 42  1  0  0  0  0
 25 26  1  0  0  0  0
 25 28  1  0  0  0  0
 25 35  1  0  0  0  0
 26 27  1  0  0  0  0
 26 33  1  0  0  0  0
 26 34  1  0  0  0  0
 27 28  1  0  0  0  0
 27 31  1  0  0  0  0
 27 32  1  0  0  0  0
 28 29  1  0  0  0  0
 28 30  1  0  0  0  0
 35 36  1  0  0  0  0
 35 39  1  0  0  0  0
 35 40  1  0  0  0  0
 36 37  1  0  0  0  0
 36 38  1  0  0  0  0
M  END
>  <MODEL>
       1

$$$$
