tmp_first_model_4_79.pdb
 OpenBabel08272518513D

 45 49  0  0  0  0  0  0  0  0999 V2000
  -10.5350   -2.6730  -22.4630 C   0  0  0  0  0  0  0  0  0  0  0  0
   -9.1400   -2.4200  -22.1810 N   0  0  0  0  0  0  0  0  0  0  0  0
   -8.7000   -1.3350  -21.4610 C   0  0  0  0  0  0  0  0  0  0  0  0
   -9.3480   -0.4030  -21.0450 O   0  0  0  0  0  0  0  0  0  0  0  0
   -7.3120   -1.5290  -21.3120 N   0  0  0  0  0  0  0  0  0  0  0  0
   -6.5200   -1.0040  -20.2610 C   0  0  0  0  0  0  0  0  0  0  0  0
   -6.8100   -1.2700  -18.9460 C   0  0  0  0  0  0  0  0  0  0  0  0
   -5.9840   -0.9700  -17.9120 N   0  0  0  0  0  0  0  0  0  0  0  0
   -4.8560   -0.3640  -18.1980 C   0  0  0  0  0  0  0  0  0  0  0  0
   -4.4870    0.0320  -19.5130 C   0  0  0  0  0  0  0  0  0  0  0  0
   -3.3270    0.8090  -19.7380 C   0  0  0  0  0  0  0  0  0  0  0  0
   -3.0830    1.3340  -20.9780 C   0  0  0  0  0  0  0  0  0  0  0  0
   -3.9460    1.0380  -22.0570 C   0  0  0  0  0  0  0  0  0  0  0  0
   -5.0440    0.2400  -21.8770 C   0  0  0  0  0  0  0  0  0  0  0  0
   -5.3420   -0.2760  -20.5850 C   0  0  0  0  0  0  0  0  0  0  0  0
   -5.7010    0.0080  -22.7120 H   0  0  0  0  0  0  0  0  0  0  0  0
   -3.7610    1.4780  -23.0340 H   0  0  0  0  0  0  0  0  0  0  0  0
   -2.2550    2.0180  -21.1300 H   0  0  0  0  0  0  0  0  0  0  0  0
   -2.6930    1.0170  -18.8820 H   0  0  0  0  0  0  0  0  0  0  0  0
   -4.1770   -0.1160  -17.3770 H   0  0  0  0  0  0  0  0  0  0  0  0
   -7.7440   -1.7580  -18.6790 H   0  0  0  0  0  0  0  0  0  0  0  0
   -6.8430   -2.5710  -22.1090 C   0  0  0  0  0  0  0  0  0  0  0  0
   -5.6920   -2.9250  -22.2150 O   0  0  0  0  0  0  0  0  0  0  0  0
   -8.0600   -3.1640  -22.7810 C   0  0  0  0  0  0  0  0  0  0  0  0
   -7.9960   -3.2400  -24.3260 C   0  0  0  0  0  0  0  0  0  0  0  0
   -8.0120   -4.7190  -24.2650 N   0  0  0  0  0  0  0  0  0  0  0  0
   -9.2720   -5.5550  -25.0020 S   0  0  0  0  0  0  0  0  0  0  0  0
  -10.5370   -4.9140  -24.6590 O   0  0  0  0  0  0  0  0  0  0  0  0
   -9.0480   -6.9560  -24.6980 O   0  0  0  0  0  0  0  0  0  0  0  0
   -9.0100   -5.2810  -26.7330 C   0  0  0  0  0  0  0  0  0  0  0  0
   -9.7410   -4.1420  -27.3870 C   0  0  0  0  0  0  0  0  0  0  0  0
  -10.2180   -5.5470  -27.5880 C   0  0  0  0  0  0  0  0  0  0  0  0
  -10.0570   -6.0160  -28.5560 H   0  0  0  0  0  0  0  0  0  0  0  0
  -11.1230   -5.8530  -27.0700 H   0  0  0  0  0  0  0  0  0  0  0  0
   -9.2570   -3.6500  -28.2280 H   0  0  0  0  0  0  0  0  0  0  0  0
  -10.3330   -3.5060  -26.7320 H   0  0  0  0  0  0  0  0  0  0  0  0
   -8.0340   -5.5610  -27.1110 H   0  0  0  0  0  0  0  0  0  0  0  0
   -8.0780   -4.7060  -22.7730 C   0  0  0  0  0  0  0  0  0  0  0  0
   -7.1730   -5.1410  -22.3480 H   0  0  0  0  0  0  0  0  0  0  0  0
   -8.9660   -5.1800  -22.3440 H   0  0  0  0  0  0  0  0  0  0  0  0
   -8.8400   -2.7770  -24.8470 H   0  0  0  0  0  0  0  0  0  0  0  0
   -7.0480   -2.8700  -24.7210 H   0  0  0  0  0  0  0  0  0  0  0  0
  -10.7540   -2.5330  -23.5250 H   0  0  0  0  0  0  0  0  0  0  0  0
  -11.1320   -1.9760  -21.8730 H   0  0  0  0  0  0  0  0  0  0  0  0
  -10.7970   -3.6990  -22.1920 H   0  0  0  0  0  0  0  0  0  0  0  0
  1  2  1  0  0  0  0
  1 43  1  0  0  0  0
  1 44  1  0  0  0  0
  1 45  1  0  0  0  0
  2  3  1  0  0  0  0
  2 24  1  0  0  0  0
  3  4  2  0  0  0  0
  3  5  1  0  0  0  0
  5  6  1  0  0  0  0
  5 22  1  0  0  0  0
  6  7  2  0  0  0  0
  6 15  1  0  0  0  0
  7  8  1  0  0  0  0
  7 21  1  0  0  0  0
  8  9  2  0  0  0  0
  9 10  1  0  0  0  0
  9 20  1  0  0  0  0
 10 11  2  0  0  0  0
 10 15  1  0  0  0  0
 11 12  1  0  0  0  0
 11 19  1  0  0  0  0
 12 13  2  0  0  0  0
 12 18  1  0  0  0  0
 13 14  1  0  0  0  0
 13 17  1  0  0  0  0
 14 15  2  0  0  0  0
 14 16  1  0  0  0  0
 22 23  2  0  0  0  0
 22 24  1  0  0  0  0
 24 25  1  0  0  0  0
 24 38  1  0  0  0  0
 25 26  1  0  0  0  0
 25 41  1  0  0  0  0
 25 42  1  0  0  0  0
 26 27  1  0  0  0  0
 26 38  1  0  0  0  0
 27 28  2  0  0  0  0
 27 29  2  0  0  0  0
 27 30  1  0  0  0  0
 30 31  1  0  0  0  0
 30 32  1  0  0  0  0
 30 37  1  0  0  0  0
 31 32  1  0  0  0  0
 31 35  1  0  0  0  0
 31 36  1  0  0  0  0
 32 33  1  0  0  0  0
 32 34  1  0  0  0  0
 38 39  1  0  0  0  0
 38 40  1  0  0  0  0
M  END
>  <MODEL>
       1

$$$$
