tmp_first_model_12_14.pdb
 OpenBabel08272523333D

 73 78  0  0  1  0  0  0  0  0999 V2000
   -7.9570   -3.7300  -23.9840 C   0  0  0  0  0  0  0  0  0  0  0  0
   -8.2630   -2.8330  -22.7890 C   0  0  1  0  0  0  0  0  0  0  0  0
   -7.0550   -2.6310  -21.8610 C   0  0  0  0  0  0  0  0  0  0  0  0
   -7.3720   -1.3840  -21.1940 N   0  0  0  0  0  0  0  0  0  0  0  0
   -6.5980   -0.7910  -20.1720 C   0  0  0  0  0  0  0  0  0  0  0  0
   -6.9060   -1.0540  -18.8640 C   0  0  0  0  0  0  0  0  0  0  0  0
   -6.2170   -0.5660  -17.8060 N   0  0  0  0  0  0  0  0  0  0  0  0
   -5.2010    0.2220  -18.0720 C   0  0  0  0  0  0  0  0  0  0  0  0
   -4.7970    0.5960  -19.3860 C   0  0  0  0  0  0  0  0  0  0  0  0
   -3.6630    1.4180  -19.6130 C   0  0  0  0  0  0  0  0  0  0  0  0
   -3.3030    1.7760  -20.8830 C   0  0  0  0  0  0  0  0  0  0  0  0
   -4.0760    1.3550  -21.9860 C   0  0  0  0  0  0  0  0  0  0  0  0
   -5.1620    0.5320  -21.7950 C   0  0  0  0  0  0  0  0  0  0  0  0
   -5.5350    0.1080  -20.4840 C   0  0  0  0  0  0  0  0  0  0  0  0
   -5.7260    0.1890  -22.6580 H   0  0  0  0  0  0  0  0  0  0  0  0
   -3.8130    1.6910  -22.9880 H   0  0  0  0  0  0  0  0  0  0  0  0
   -2.4250    2.3930  -21.0440 H   0  0  0  0  0  0  0  0  0  0  0  0
   -3.0970    1.7500  -18.7500 H   0  0  0  0  0  0  0  0  0  0  0  0
   -4.6230    0.5900  -17.2260 H   0  0  0  0  0  0  0  0  0  0  0  0
   -7.7600   -1.6930  -18.6430 H   0  0  0  0  0  0  0  0  0  0  0  0
   -8.3520   -0.6500  -21.8150 C   0  0  0  0  0  0  0  0  0  0  0  0
   -8.7880    0.3950  -21.3760 O   0  0  0  0  0  0  0  0  0  0  0  0
   -8.7820   -1.4010  -23.0950 C   0  0  1  0  0  0  0  0  0  0  0  0
   -8.0830   -0.8190  -24.3540 C   0  0  0  0  0  0  0  0  0  0  0  0
   -8.5640    0.5100  -24.6740 N   0  0  0  0  0  0  0  0  0  0  0  0
   -7.6400    1.6020  -24.9120 C   0  0  0  0  0  0  0  0  0  0  0  0
   -7.5440    2.5140  -23.6910 C   0  0  0  0  0  0  0  0  0  0  0  0
   -6.4550    3.5310  -23.8390 N   0  3  0  0  0  0  0  0  0  0  0  0
   -6.7740    4.6430  -24.8220 C   0  0  0  0  0  0  0  0  0  0  0  0
   -7.7490    5.6720  -24.2380 C   0  0  0  0  0  0  0  0  0  0  0  0
   -7.3080    6.1830  -22.9400 N   0  0  0  0  0  0  0  0  0  0  0  0
   -6.5550    7.6620  -22.8420 S   0  0  0  0  0  0  0  0  0  0  0  0
   -6.0830    7.8340  -21.4790 O   0  0  0  0  0  0  0  0  0  0  0  0
   -7.4360    8.6370  -23.4620 O   0  0  0  0  0  0  0  0  0  0  0  0
   -5.1250    7.5280  -23.9080 C   0  0  0  0  0  0  0  0  0  0  0  0
   -5.4530    7.4720  -24.9480 H   0  0  0  0  0  0  0  0  0  0  0  0
   -4.5070    6.6630  -23.6640 H   0  0  0  0  0  0  0  0  0  0  0  0
   -4.5400    8.4380  -23.7730 H   0  0  0  0  0  0  0  0  0  0  0  0
   -7.0240    5.1240  -21.9730 C   0  0  0  0  0  0  0  0  0  0  0  0
   -6.0140    4.1230  -22.5240 C   0  0  0  0  0  0  0  0  0  0  0  0
   -5.0520    4.6090  -22.6950 H   0  0  0  0  0  0  0  0  0  0  0  0
   -5.8520    3.3160  -21.8080 H   0  0  0  0  0  0  0  0  0  0  0  0
   -7.9700    4.6060  -21.7700 H   0  0  0  0  0  0  0  0  0  0  0  0
   -6.6790    5.5700  -21.0410 H   0  0  0  0  0  0  0  0  0  0  0  0
   -8.7230    5.1940  -24.0860 H   0  0  0  0  0  0  0  0  0  0  0  0
   -7.9110    6.5010  -24.9260 H   0  0  0  0  0  0  0  0  0  0  0  0
   -7.1780    4.2140  -25.7400 H   0  0  0  0  0  0  0  0  0  0  0  0
   -5.8290    5.1180  -25.0880 H   0  0  0  0  0  0  0  0  0  0  0  0
   -5.6340    3.0160  -24.2070 H   0  0  0  0  0  0  0  0  0  0  0  0
   -7.3510    1.9290  -22.7880 H   0  0  0  0  0  0  0  0  0  0  0  0
   -8.5060    3.0040  -23.5440 H   0  0  0  0  0  0  0  0  0  0  0  0
   -6.6510    1.1900  -25.1430 H   0  0  0  0  0  0  0  0  0  0  0  0
   -7.9790    2.1580  -25.7910 H   0  0  0  0  0  0  0  0  0  0  0  0
   -9.9010    0.7830  -24.7190 C   0  0  0  0  0  0  0  0  0  0  0  0
  -10.3490    1.7950  -25.2480 O   0  0  0  0  0  0  0  0  0  0  0  0
  -10.7950   -0.2080  -24.0390 C   0  0  0  0  0  0  0  0  0  0  0  0
  -12.1670   -0.0120  -24.1400 C   0  0  0  0  0  0  0  0  0  0  0  0
  -13.0240   -0.7350  -23.3420 C   0  0  0  0  0  0  0  0  0  0  0  0
  -12.4960   -1.6950  -22.4840 C   0  0  0  0  0  0  0  0  0  0  0  0
  -13.5480   -2.4680  -21.3370 Cl  0  0  0  0  0  0  0  0  0  0  0  0
  -11.1540   -2.0040  -22.4830 C   0  0  0  0  0  0  0  0  0  0  0  0
  -10.2740   -1.2460  -23.2580 C   0  0  0  0  0  0  0  0  0  0  0  0
  -10.8100   -2.8290  -21.8700 H   0  0  0  0  0  0  0  0  0  0  0  0
  -14.0900   -0.5700  -23.3330 H   0  0  0  0  0  0  0  0  0  0  0  0
  -12.5340    0.7480  -24.8150 H   0  0  0  0  0  0  0  0  0  0  0  0
   -8.2930   -1.4910  -25.2000 H   0  0  0  0  0  0  0  0  0  0  0  0
   -6.9920   -0.7820  -24.2180 H   0  0  0  0  0  0  0  0  0  0  0  0
   -6.1180   -2.5750  -22.4390 H   0  0  0  0  0  0  0  0  0  0  0  0
   -6.9530   -3.4460  -21.1390 H   0  0  0  0  0  0  0  0  0  0  0  0
   -9.0320   -3.3270  -22.1920 H   0  0  0  0  0  0  0  0  0  0  0  0
   -7.1190   -3.3360  -24.5710 H   0  0  0  0  0  0  0  0  0  0  0  0
   -7.6810   -4.7360  -23.6490 H   0  0  0  0  0  0  0  0  0  0  0  0
   -8.8190   -3.8230  -24.6550 H   0  0  0  0  0  0  0  0  0  0  0  0
  1  2  1  0  0  0  0
  1 71  1  0  0  0  0
  1 72  1  0  0  0  0
  1 73  1  0  0  0  0
  2  3  1  0  0  0  0
  2 23  1  0  0  0  0
  2 70  1  1  0  0  0
  3  4  1  0  0  0  0
  3 68  1  0  0  0  0
  3 69  1  0  0  0  0
  4  5  1  0  0  0  0
  4 21  1  0  0  0  0
  5  6  2  0  0  0  0
  5 14  1  0  0  0  0
  6  7  1  0  0  0  0
  6 20  1  0  0  0  0
  7  8  2  0  0  0  0
  8  9  1  0  0  0  0
  8 19  1  0  0  0  0
  9 10  2  0  0  0  0
  9 14  1  0  0  0  0
 10 11  1  0  0  0  0
 10 18  1  0  0  0  0
 11 12  2  0  0  0  0
 11 17  1  0  0  0  0
 12 13  1  0  0  0  0
 12 16  1  0  0  0  0
 13 14  2  0  0  0  0
 13 15  1  0  0  0  0
 21 22  2  0  0  0  0
 23 21  1  1  0  0  0
 23 24  1  0  0  0  0
 23 62  1  0  0  0  0
 24 25  1  0  0  0  0
 24 66  1  0  0  0  0
 24 67  1  0  0  0  0
 25 26  1  0  0  0  0
 25 54  1  0  0  0  0
 26 27  1  0  0  0  0
 26 52  1  0  0  0  0
 26 53  1  0  0  0  0
 27 28  1  0  0  0  0
 27 50  1  0  0  0  0
 27 51  1  0  0  0  0
 28 29  1  0  0  0  0
 28 40  1  0  0  0  0
 28 49  1  0  0  0  0
 29 30  1  0  0  0  0
 29 47  1  0  0  0  0
 29 48  1  0  0  0  0
 30 31  1  0  0  0  0
 30 45  1  0  0  0  0
 30 46  1  0  0  0  0
 31 32  1  0  0  0  0
 31 39  1  0  0  0  0
 32 33  2  0  0  0  0
 32 34  2  0  0  0  0
 32 35  1  0  0  0  0
 35 36  1  0  0  0  0
 35 37  1  0  0  0  0
 35 38  1  0  0  0  0
 39 40  1  0  0  0  0
 39 43  1  0  0  0  0
 39 44  1  0  0  0  0
 40 41  1  0  0  0  0
 40 42  1  0  0  0  0
 54 55  2  0  0  0  0
 54 56  1  0  0  0  0
 56 57  2  0  0  0  0
 56 62  1  0  0  0  0
 57 58  1  0  0  0  0
 57 65  1  0  0  0  0
 58 59  2  0  0  0  0
 58 64  1  0  0  0  0
 59 60  1  0  0  0  0
 59 61  1  0  0  0  0
 61 62  2  0  0  0  0
 61 63  1  0  0  0  0
M  CHG  1  28   1
M  END
>  <MODEL>
       1

$$$$
