tmp_first_model_19_25.pdb
 OpenBabel08282503233D

 70 75  0  0  1  0  0  0  0  0999 V2000
   -5.6040   -7.4800  -25.6100 O   0  0  0  0  0  0  0  0  0  0  0  0
   -5.5760   -7.0410  -24.4750 C   0  0  0  0  0  0  0  0  0  0  0  0
   -6.7960   -6.3690  -23.8430 C   0  0  0  0  0  0  0  0  0  0  0  0
   -6.7930   -4.8750  -23.9440 N   0  3  1  0  0  0  0  0  0  0  0  0
   -6.7610   -4.5110  -25.4190 C   0  0  0  0  0  0  0  0  0  0  0  0
   -6.7770   -3.0220  -25.6330 C   0  0  0  0  0  0  0  0  0  0  0  0
   -6.2860   -2.4790  -26.8200 C   0  0  0  0  0  0  0  0  0  0  0  0
   -6.3080   -1.1070  -27.0340 C   0  0  0  0  0  0  0  0  0  0  0  0
   -6.8190   -0.2710  -26.0480 C   0  0  0  0  0  0  0  0  0  0  0  0
   -6.8480    1.4520  -26.3010 Cl  0  0  0  0  0  0  0  0  0  0  0  0
   -7.3090   -0.7980  -24.8650 C   0  0  0  0  0  0  0  0  0  0  0  0
   -7.3030   -2.1790  -24.6580 C   0  0  0  0  0  0  0  0  0  0  0  0
   -7.8150   -2.7070  -23.3350 C   0  0  2  0  0  0  0  0  0  0  0  0
   -6.8230   -2.3790  -22.2290 C   0  0  0  0  0  0  0  0  0  0  0  0
   -5.7310   -2.9240  -22.2100 O   0  0  0  0  0  0  0  0  0  0  0  0
   -7.2760   -1.4640  -21.3010 N   0  0  0  0  0  0  0  0  0  0  0  0
   -6.5390   -0.8780  -20.2440 C   0  0  0  0  0  0  0  0  0  0  0  0
   -6.9030   -1.0760  -18.9320 C   0  0  0  0  0  0  0  0  0  0  0  0
   -6.2270   -0.5820  -17.8650 N   0  0  0  0  0  0  0  0  0  0  0  0
   -5.1870    0.1830  -18.1020 C   0  0  0  0  0  0  0  0  0  0  0  0
   -4.7380    0.5060  -19.4130 C   0  0  0  0  0  0  0  0  0  0  0  0
   -3.6180    1.3520  -19.6310 C   0  0  0  0  0  0  0  0  0  0  0  0
   -3.2430    1.6890  -20.9040 C   0  0  0  0  0  0  0  0  0  0  0  0
   -3.9660    1.2010  -22.0170 C   0  0  0  0  0  0  0  0  0  0  0  0
   -5.0440    0.3720  -21.8360 C   0  0  0  0  0  0  0  0  0  0  0  0
   -5.4400   -0.0120  -20.5210 C   0  0  0  0  0  0  0  0  0  0  0  0
   -5.6110    0.0130  -22.6900 H   0  0  0  0  0  0  0  0  0  0  0  0
   -3.6680    1.4860  -23.0250 H   0  0  0  0  0  0  0  0  0  0  0  0
   -2.3870    2.3400  -21.0680 H   0  0  0  0  0  0  0  0  0  0  0  0
   -3.0870    1.7340  -18.7640 H   0  0  0  0  0  0  0  0  0  0  0  0
   -4.6430    0.5850  -17.2440 H   0  0  0  0  0  0  0  0  0  0  0  0
   -7.7700   -1.6910  -18.6800 H   0  0  0  0  0  0  0  0  0  0  0  0
   -8.2810   -1.4020  -21.2120 H   0  0  0  0  0  0  0  0  0  0  0  0
   -8.0100   -4.2220  -23.3180 C   0  0  0  0  0  0  0  0  0  0  0  0
   -8.9060   -4.4990  -23.8810 H   0  0  0  0  0  0  0  0  0  0  0  0
   -8.1210   -4.5590  -22.2830 H   0  0  0  0  0  0  0  0  0  0  0  0
   -8.7440   -2.1960  -23.0830 H   0  0  0  0  0  0  0  0  0  0  0  0
   -7.6850   -0.1340  -24.0940 H   0  0  0  0  0  0  0  0  0  0  0  0
   -5.9310   -0.6850  -27.9570 H   0  0  0  0  0  0  0  0  0  0  0  0
   -5.8850   -3.1390  -27.5890 H   0  0  0  0  0  0  0  0  0  0  0  0
   -7.6440   -4.9810  -25.8770 H   0  0  0  0  0  0  0  0  0  0  0  0
   -5.8880   -4.9700  -25.8870 H   0  0  0  0  0  0  0  0  0  0  0  0
   -5.9760   -4.4400  -23.4510 H   0  0  0  0  0  0  0  0  0  0  0  0
   -7.6480   -6.7850  -24.3960 H   0  0  0  0  0  0  0  0  0  0  0  0
   -6.8760   -6.6900  -22.8050 H   0  0  0  0  0  0  0  0  0  0  0  0
   -4.4570   -7.1260  -23.6920 N   0  0  0  0  0  0  0  0  0  0  0  0
   -3.2590   -7.7430  -24.1350 C   0  0  0  0  0  0  0  0  0  0  0  0
   -2.0360   -7.0980  -23.9360 C   0  0  0  0  0  0  0  0  0  0  0  0
   -0.8630   -7.7020  -24.3760 C   0  0  0  0  0  0  0  0  0  0  0  0
   -0.9060   -8.9420  -25.0190 C   0  0  0  0  0  0  0  0  0  0  0  0
    0.3050   -9.5500  -25.4700 N   0  0  0  0  0  0  0  0  0  0  0  0
    1.3180   -9.8670  -24.4660 C   0  0  0  0  0  0  0  0  0  0  0  0
    2.6350  -10.2240  -25.1300 C   0  0  0  0  0  0  0  0  0  0  0  0
    2.4030  -11.1750  -26.1410 O   0  0  0  0  0  0  0  0  0  0  0  0
    1.6780  -10.6200  -27.2040 C   0  0  0  0  0  0  0  0  0  0  0  0
    0.3870   -9.9370  -26.7850 C   0  0  0  0  0  0  0  0  0  0  0  0
   -0.4840   -9.7060  -27.6060 O   0  0  0  0  0  0  0  0  0  0  0  0
    2.2730   -9.8630  -27.7380 H   0  0  0  0  0  0  0  0  0  0  0  0
    1.4210  -11.4250  -27.8960 H   0  0  0  0  0  0  0  0  0  0  0  0
    3.1360   -9.3380  -25.5480 H   0  0  0  0  0  0  0  0  0  0  0  0
    3.3200  -10.6820  -24.4110 H   0  0  0  0  0  0  0  0  0  0  0  0
    1.4550   -9.0100  -23.7970 H   0  0  0  0  0  0  0  0  0  0  0  0
    0.9660  -10.7190  -23.8720 H   0  0  0  0  0  0  0  0  0  0  0  0
   -2.1320   -9.5900  -25.2000 C   0  0  0  0  0  0  0  0  0  0  0  0
   -3.3050   -8.9870  -24.7680 C   0  0  0  0  0  0  0  0  0  0  0  0
   -4.2620   -9.4670  -24.9400 H   0  0  0  0  0  0  0  0  0  0  0  0
   -2.1750  -10.5610  -25.6930 H   0  0  0  0  0  0  0  0  0  0  0  0
    0.0940   -7.1980  -24.2360 H   0  0  0  0  0  0  0  0  0  0  0  0
   -2.0060   -6.1250  -23.4470 H   0  0  0  0  0  0  0  0  0  0  0  0
   -4.4120   -6.5420  -22.8710 H   0  0  0  0  0  0  0  0  0  0  0  0
  1  2  2  0  0  0  0
  2  3  1  0  0  0  0
  2 46  1  0  0  0  0
  3  4  1  0  0  0  0
  3 44  1  0  0  0  0
  3 45  1  0  0  0  0
  4  5  1  0  0  0  0
  4 34  1  0  0  0  0
  4 43  1  1  0  0  0
  5  6  1  0  0  0  0
  5 41  1  0  0  0  0
  5 42  1  0  0  0  0
  6  7  2  0  0  0  0
  6 12  1  0  0  0  0
  7  8  1  0  0  0  0
  7 40  1  0  0  0  0
  8  9  2  0  0  0  0
  8 39  1  0  0  0  0
  9 10  1  0  0  0  0
  9 11  1  0  0  0  0
 11 12  2  0  0  0  0
 11 38  1  0  0  0  0
 12 13  1  0  0  0  0
 13 14  1  0  0  0  0
 13 34  1  0  0  0  0
 13 37  1  1  0  0  0
 14 15  2  0  0  0  0
 14 16  1  0  0  0  0
 16 17  1  0  0  0  0
 16 33  1  0  0  0  0
 17 18  2  0  0  0  0
 17 26  1  0  0  0  0
 18 19  1  0  0  0  0
 18 32  1  0  0  0  0
 19 20  2  0  0  0  0
 20 21  1  0  0  0  0
 20 31  1  0  0  0  0
 21 22  2  0  0  0  0
 21 26  1  0  0  0  0
 22 23  1  0  0  0  0
 22 30  1  0  0  0  0
 23 24  2  0  0  0  0
 23 29  1  0  0  0  0
 24 25  1  0  0  0  0
 24 28  1  0  0  0  0
 25 26  2  0  0  0  0
 25 27  1  0  0  0  0
 34 35  1  0  0  0  0
 34 36  1  0  0  0  0
 46 47  1  0  0  0  0
 46 70  1  0  0  0  0
 47 48  2  0  0  0  0
 47 65  1  0  0  0  0
 48 49  1  0  0  0  0
 48 69  1  0  0  0  0
 49 50  2  0  0  0  0
 49 68  1  0  0  0  0
 50 51  1  0  0  0  0
 50 64  1  0  0  0  0
 51 52  1  0  0  0  0
 51 56  1  0  0  0  0
 52 53  1  0  0  0  0
 52 62  1  0  0  0  0
 52 63  1  0  0  0  0
 53 54  1  0  0  0  0
 53 60  1  0  0  0  0
 53 61  1  0  0  0  0
 54 55  1  0  0  0  0
 55 56  1  0  0  0  0
 55 58  1  0  0  0  0
 55 59  1  0  0  0  0
 56 57  2  0  0  0  0
 64 65  2  0  0  0  0
 64 67  1  0  0  0  0
 65 66  1  0  0  0  0
M  CHG  1   4   1
M  END
>  <MODEL>
       1

$$$$
