tmp_first_model_5_38.pdb
 OpenBabel08272519233D

 46 48  0  0  1  0  0  0  0  0999 V2000
   -8.1440   -4.6730  -26.5250 C   0  0  0  0  0  0  0  0  0  0  0  0
   -8.6540   -4.9470  -25.1090 C   0  0  1  0  0  0  0  0  0  0  0  0
   -7.5920   -5.5300  -24.1740 C   0  0  0  0  0  0  0  0  0  0  0  0
   -6.6140   -4.5280  -23.5650 C   0  0  1  0  0  0  0  0  0  0  0  0
   -5.4240   -4.1470  -24.4480 C   0  0  0  0  0  0  0  0  0  0  0  0
   -4.6370   -3.6970  -23.8360 H   0  0  0  0  0  0  0  0  0  0  0  0
   -5.6980   -3.4180  -25.2140 H   0  0  0  0  0  0  0  0  0  0  0  0
   -5.0260   -5.0450  -24.9330 H   0  0  0  0  0  0  0  0  0  0  0  0
   -7.3200   -3.3510  -23.0360 N   0  0  0  0  0  0  0  0  0  0  0  0
   -6.7170   -2.7630  -21.9540 C   0  0  0  0  0  0  0  0  0  0  0  0
   -5.6770   -3.2110  -21.4840 O   0  0  0  0  0  0  0  0  0  0  0  0
   -7.3920   -1.5460  -21.3080 C   0  0  0  0  0  0  0  0  0  0  0  0
   -6.5180   -0.9910  -20.2380 C   0  0  0  0  0  0  0  0  0  0  0  0
   -6.8280   -1.1500  -18.9160 C   0  0  0  0  0  0  0  0  0  0  0  0
   -6.0470   -0.7800  -17.8640 N   0  0  0  0  0  0  0  0  0  0  0  0
   -4.8910   -0.2350  -18.1750 C   0  0  0  0  0  0  0  0  0  0  0  0
   -4.4580    0.0190  -19.5120 C   0  0  0  0  0  0  0  0  0  0  0  0
   -3.2860    0.7880  -19.7720 C   0  0  0  0  0  0  0  0  0  0  0  0
   -3.1360    1.4200  -20.9750 C   0  0  0  0  0  0  0  0  0  0  0  0
   -4.0170    1.0990  -22.0450 C   0  0  0  0  0  0  0  0  0  0  0  0
   -5.0380    0.1960  -21.8770 C   0  0  0  0  0  0  0  0  0  0  0  0
   -5.3270   -0.2960  -20.5770 C   0  0  0  0  0  0  0  0  0  0  0  0
   -5.6640   -0.1090  -22.7130 H   0  0  0  0  0  0  0  0  0  0  0  0
   -3.8460    1.5320  -23.0210 H   0  0  0  0  0  0  0  0  0  0  0  0
   -2.3020    2.1020  -21.1410 H   0  0  0  0  0  0  0  0  0  0  0  0
   -2.5970    0.9490  -18.9420 H   0  0  0  0  0  0  0  0  0  0  0  0
   -4.2650    0.1470  -17.3600 H   0  0  0  0  0  0  0  0  0  0  0  0
   -7.7970   -1.5790  -18.6610 H   0  0  0  0  0  0  0  0  0  0  0  0
   -7.6000   -0.7840  -22.0680 H   0  0  0  0  0  0  0  0  0  0  0  0
   -8.3550   -1.8670  -20.8870 H   0  0  0  0  0  0  0  0  0  0  0  0
   -8.4130   -2.7120  -23.7920 C   0  0  1  0  0  0  0  0  0  0  0  0
   -7.9390   -1.6640  -24.8030 C   0  0  0  0  0  0  0  0  0  0  0  0
   -7.4470   -2.1200  -25.6650 H   0  0  0  0  0  0  0  0  0  0  0  0
   -8.8020   -1.0980  -25.1750 H   0  0  0  0  0  0  0  0  0  0  0  0
   -7.2320   -0.9580  -24.3560 H   0  0  0  0  0  0  0  0  0  0  0  0
   -9.3410   -3.7640  -24.4150 C   0  0  0  0  0  0  0  0  0  0  0  0
   -9.9690   -4.1620  -23.6110 H   0  0  0  0  0  0  0  0  0  0  0  0
  -10.0290   -3.2590  -25.1080 H   0  0  0  0  0  0  0  0  0  0  0  0
   -9.0290   -2.1790  -23.0590 H   0  0  0  0  0  0  0  0  0  0  0  0
   -6.1890   -5.0190  -22.6860 H   0  0  0  0  0  0  0  0  0  0  0  0
   -8.1020   -6.0300  -23.3420 H   0  0  0  0  0  0  0  0  0  0  0  0
   -7.0100   -6.3100  -24.6840 H   0  0  0  0  0  0  0  0  0  0  0  0
   -9.4270   -5.7200  -25.2150 H   0  0  0  0  0  0  0  0  0  0  0  0
   -7.9030   -5.6190  -27.0220 H   0  0  0  0  0  0  0  0  0  0  0  0
   -8.9120   -4.1700  -27.1230 H   0  0  0  0  0  0  0  0  0  0  0  0
   -7.2380   -4.0610  -26.5540 H   0  0  0  0  0  0  0  0  0  0  0  0
  1  2  1  0  0  0  0
  1 44  1  0  0  0  0
  1 45  1  0  0  0  0
  1 46  1  0  0  0  0
  2  3  1  0  0  0  0
  2 36  1  0  0  0  0
  2 43  1  6  0  0  0
  3  4  1  0  0  0  0
  3 41  1  0  0  0  0
  3 42  1  0  0  0  0
  4  5  1  0  0  0  0
  4  9  1  0  0  0  0
  4 40  1  1  0  0  0
  5  6  1  0  0  0  0
  5  7  1  0  0  0  0
  5  8  1  0  0  0  0
  9 10  1  0  0  0  0
  9 31  1  0  0  0  0
 10 11  2  0  0  0  0
 10 12  1  0  0  0  0
 12 13  1  0  0  0  0
 12 29  1  0  0  0  0
 12 30  1  0  0  0  0
 13 14  2  0  0  0  0
 13 22  1  0  0  0  0
 14 15  1  0  0  0  0
 14 28  1  0  0  0  0
 15 16  2  0  0  0  0
 16 17  1  0  0  0  0
 16 27  1  0  0  0  0
 17 18  2  0  0  0  0
 17 22  1  0  0  0  0
 18 19  1  0  0  0  0
 18 26  1  0  0  0  0
 19 20  2  0  0  0  0
 19 25  1  0  0  0  0
 20 21  1  0  0  0  0
 20 24  1  0  0  0  0
 21 22  2  0  0  0  0
 21 23  1  0  0  0  0
 31 32  1  0  0  0  0
 31 36  1  0  0  0  0
 31 39  1  1  0  0  0
 32 33  1  0  0  0  0
 32 34  1  0  0  0  0
 32 35  1  0  0  0  0
 36 37  1  0  0  0  0
 36 38  1  0  0  0  0
M  END
>  <MODEL>
       1

$$$$
